drugbank_target|Q9Y2H1 Serine/threonine-protein kinase 38-like (DB12010)
 OpenBabel12092121133D

  0  0  0     0  0            999 V3000
M  V30 BEGIN CTAB
M  V30 COUNTS 7579 7665 0 0 0
M  V30 BEGIN ATOM
M  V30 1 H -0.908 1.98254 -0.117106 0
M  V30 2 N 0 1.576 0 0
M  V30 3 C 0.933 2.03868 1.02534 0
M  V30 4 C 1.911 0.928543 1.3348 0
M  V30 5 O 3.095 1.19667 1.45644 0
M  V30 6 C 0.222 2.43627 2.35294 0
M  V30 7 C -0.732 3.65373 2.2001 0
M  V30 8 S 0.101 5.13292 1.52614 0
M  V30 9 C 1.257 5.56322 2.86805 0
M  V30 10 H 1.49 2.90518 0.631377 0
M  V30 11 H -0.977 1.52953 0.210867 0
M  V30 12 H 0.981 2.67203 3.11629 0
M  V30 13 H -0.358 1.57376 2.7183 0
M  V30 14 H -1.165 3.90944 3.18086 0
M  V30 15 H -1.563 3.418 1.51819 0
M  V30 16 H 0.729 5.58782 3.83104 0
M  V30 17 H 1.672 6.56266 2.65933 0
M  V30 18 H 2.08 4.83886 2.90714 0
M  V30 19 N 1.4781 -0.272755 1.55222 0
M  V30 20 C 2.4411 -1.32041 1.87344 0
M  V30 21 C 3.4411 -1.42342 0.74803 0
M  V30 22 O 4.6311 -1.41488 1.0162 0
M  V30 23 C 1.7631 -2.70173 2.07893 0
M  V30 24 H 2.9561 -1.04789 2.80997 0
M  V30 25 H 0.5091 -0.51083 1.47717 0
M  V30 26 H 1.2441 -3.02605 1.16622 0
M  V30 27 H 1.0291 -2.64082 2.89833 0
M  V30 28 H 2.5191 -3.45869 2.34017 0
M  V30 29 N 2.9562 -1.48159 -0.537278 0
M  V30 30 C 3.8892 -1.567 -1.65893 0
M  V30 31 C 4.8672 -0.41787 -1.57139 0
M  V30 32 O 6.0512 -0.628461 -1.77715 0
M  V30 33 C 3.1782 -1.48818 -3.04255 0
M  V30 34 C 2.2242 -2.68482 -3.31391 0
M  V30 35 S 3.0572 -4.30516 -3.1846 0
M  V30 36 C 4.2132 -4.2522 -4.59281 0
M  V30 37 H 4.4462 -2.5159 -1.58397 0
M  V30 38 H 1.9792 -1.36602 -0.719672 0
M  V30 39 H 3.9372 -1.44958 -3.84054 0
M  V30 40 H 2.5982 -0.552777 -3.09198 0
M  V30 41 H 1.7912 -2.59085 -4.32309 0
M  V30 42 H 1.3932 -2.69567 -2.59248 0
M  V30 43 H 3.6852 -3.94703 -5.5065 0
M  V30 44 H 4.6282 -5.26292 -4.73732 0
M  V30 45 H 5.0362 -3.55791 -4.38261 0
M  V30 46 N 4.4343 0.785586 -1.36625 0
M  V30 47 C 5.6623 1.57448 -1.3423 0
M  V30 48 C 6.0773 1.88649 0.0755653 0
M  V30 49 O 5.4343 1.50414 1.03354 0
M  V30 50 C 5.4853 2.89316 -2.16745 0
M  V30 51 O 5.2063 2.59459 -3.53005 0
M  V30 52 C 6.7073 3.83606 -2.22174 0
M  V30 53 H 3.9273 0.488226 -0.4603 0
M  V30 54 H 6.4713 0.974733 -1.79775 0
M  V30 55 H 4.6263 3.4575 -1.74745 0
M  V30 56 H 5.0403 3.43804 -3.96105 0
M  V30 57 H 6.5143 4.73181 -2.8426 0
M  V30 58 H 6.9913 4.21734 -1.22627 0
M  V30 59 H 7.5973 3.33104 -2.64427 0
M  V30 60 N 5.9124 1.20967 1.01018 0
M  V30 61 C 6.8754 0.965918 2.07853 0
M  V30 62 C 7.8754 -0.0610545 1.60684 0
M  V30 63 O 9.0654 0.175681 1.73312 0
M  V30 64 C 6.1974 0.455513 3.37843 0
M  V30 65 H 7.3904 1.91365 2.3091 0
M  V30 66 H 4.9434 1.02594 1.17916 0
M  V30 67 H 5.6784 -0.497381 3.20463 0
M  V30 68 H 5.4634 1.19622 3.73407 0
M  V30 69 H 6.9534 0.304667 4.16487 0
M  V30 70 N 7.3905 -1.2043 1.01659 0
M  V30 71 C 8.6385 -1.89423 0.704522 0
M  V30 72 C 8.9595 -1.79231 -0.768197 0
M  V30 73 O 8.2295 -1.1947 -1.55254 0
M  V30 74 H 6.8095 -0.701178 0.257602 0
M  V30 75 H 9.4715 -1.4626 1.28818 0
M  V30 76 H 8.5675 -2.96052 0.987916 0
M  V30 77 N 8.8686 -0.792821 -1.36206 0
M  V30 78 C 10.0966 -0.378825 -2.03402 0
M  V30 79 C 10.5116 1.00586 -1.59774 0
M  V30 80 O 9.8686 1.64574 -0.788764 0
M  V30 81 C 9.9196 -0.43683 -3.58851 0
M  V30 82 O 9.6406 -1.76691 -4.00889 0
M  V30 83 C 11.1416 -0.0138943 -4.43298 0
M  V30 84 H 8.3616 -0.155673 -0.652692 0
M  V30 85 H 10.9056 -1.07261 -1.74113 0
M  V30 86 H 9.0606 0.208575 -3.86838 0
M  V30 87 H 9.4746 -1.72011 -4.95492 0
M  V30 88 H 10.9486 -0.105615 -5.51899 0
M  V30 89 H 11.4256 1.03915 -4.2673 0
M  V30 90 H 12.0316 -0.63192 -4.20579 0
M  V30 91 N 10.3467 1.47872 -0.545128 0
M  V30 92 C 11.5747 2.06889 -0.021084 0
M  V30 93 C 11.9897 1.39955 1.2672 0
M  V30 94 O 11.3467 0.492036 1.75742 0
M  V30 95 C 11.3977 3.60996 0.190817 0
M  V30 96 O 11.1187 4.25419 -1.04644 0
M  V30 97 C 12.6197 4.36849 0.753521 0
M  V30 98 H 9.8397 0.669785 -0.0403635 0
M  V30 99 H 12.3837 1.90049 -0.755095 0
M  V30 100 H 10.5387 3.77391 0.87492 0
M  V30 101 H 10.9527 5.17785 -0.836611 0
M  V30 102 H 12.4267 5.45399 0.851139 0
M  V30 103 H 12.9037 4.02306 1.762 0
M  V30 104 H 13.5097 4.25169 0.105503 0
M  V30 105 N 11.8248 0.280983 1.55075 0
M  V30 106 C 13.0528 -0.337293 2.04132 0
M  V30 107 C 13.4678 -1.4903 1.15912 0
M  V30 108 O 12.8248 -1.81606 0.180459 0
M  V30 109 C 12.8758 -0.812706 3.52246 0
M  V30 110 O 12.5968 0.294387 4.3711 0
M  V30 111 C 14.0978 -1.4982 4.17216 0
M  V30 112 H 11.3178 -0.0761638 0.666663 0
M  V30 113 H 13.8618 0.414787 2.00249 0
M  V30 114 H 12.0168 -1.51486 3.56554 0
M  V30 115 H 12.4308 -0.0721325 5.2445 0
M  V30 116 H 13.9048 -1.7822 5.22438 0
M  V30 117 H 14.3818 -2.43168 3.65741 0
M  V30 118 H 14.9878 -0.839742 4.16927 0
M  V30 119 N 13.3029 -1.57598 0.00835791 0
M  V30 120 C 14.5309 -1.95214 -0.68549 0
M  V30 121 C 14.9459 -0.883706 -1.66841 0
M  V30 122 O 14.3029 0.136565 -1.81988 0
M  V30 123 C 14.3539 -3.32865 -1.41007 0
M  V30 124 O 14.0749 -4.35609 -0.466552 0
M  V30 125 C 15.5759 -3.84991 -2.19765 0
M  V30 126 H 12.7959 -0.643422 -0.190392 0
M  V30 127 H 15.3399 -2.04406 0.0619607 0
M  V30 128 H 13.4949 -3.24956 -2.10908 0
M  V30 129 H 13.9089 -5.15288 -0.978699 0
M  V30 130 H 15.3829 -4.8371 -2.65948 0
M  V30 131 H 15.8599 -3.18137 -3.02796 0
M  V30 132 H 16.4659 -3.96103 -1.54864 0
M  V30 133 N 14.781 0.264519 -1.55364 0
M  V30 134 C 16.028 0.994986 -1.7637 0
M  V30 135 C 16.356 1.85976 -0.5695 0
M  V30 136 O 15.611 1.90509 0.44776 0
M  V30 137 C 15.91 1.9004 -3.02687 0
M  V30 138 C 15.576 1.19243 -4.34847 0
M  V30 139 C 14.238 0.996709 -4.70764 0
M  V30 140 C 16.59 0.689296 -5.16622 0
M  V30 141 C 13.918 0.285261 -5.86006 0
M  V30 142 C 16.27 -0.00860079 -6.32599 0
M  V30 143 C 14.934 -0.215963 -6.67151 0
M  V30 144 H 14.204 0.364091 -0.645383 0
M  V30 145 H 16.851 0.266543 -1.89636 0
M  V30 146 H 15.156 2.69533 -2.84357 0
M  V30 147 H 16.853 2.46695 -3.16137 0
M  V30 148 H 13.443 1.3549 -4.06621 0
M  V30 149 H 17.627 0.828108 -4.89342 0
M  V30 150 H 12.883 0.113961 -6.11294 0
M  V30 151 H 17.057 -0.406186 -6.95214 0
M  V30 152 H 14.684 -0.769217 -7.56298 0
M  V30 153 N 16.2591 1.48442 0.529413 0
M  V30 154 C 17.6701 1.5002 1.11134 0
M  V30 155 C 18.0211 0.27031 1.94329 0
M  V30 156 O 17.1461 -0.622507 2.07253 0
M  V30 157 C 17.7411 2.71834 2.02217 0
M  V30 158 C 16.3001 2.76283 2.55627 0
M  V30 159 C 15.4471 2.43542 1.326 0
M  V30 160 H 18.3981 1.5555 0.314641 0
M  V30 161 H 18.4191 2.50384 2.8651 0
M  V30 162 H 17.9311 3.61331 1.41639 0
M  V30 163 H 16.0321 1.90995 3.19924 0
M  V30 164 H 16.1451 3.77725 2.94721 0
M  V30 165 H 14.5091 1.94709 1.64196 0
M  V30 166 H 15.2921 3.3528 0.737734 0
M  V30 167 N 17.7372 -0.778329 1.37039 0
M  V30 168 C 18.6702 -1.8984 1.26633 0
M  V30 169 C 19.6482 -1.61923 0.148197 0
M  V30 170 O 20.8322 -1.85742 0.321265 0
M  V30 171 C 17.9592 -3.24916 0.956403 0
M  V30 172 C 17.0052 -3.71752 2.09051 0
M  V30 173 S 17.8382 -3.86201 3.70957 0
M  V30 174 C 18.9942 -5.24135 3.42101 0
M  V30 175 H 19.2272 -1.98377 2.21436 0
M  V30 176 H 16.7602 -0.938738 1.22585 0
M  V30 177 H 18.7182 -4.02936 0.784409 0
M  V30 178 H 17.3792 -3.14089 0.0259713 0
M  V30 179 H 16.5722 -4.69661 1.8285 0
M  V30 180 H 16.1742 -3.00815 2.2223 0
M  V30 181 H 18.4662 -6.09086 2.96682 0
M  V30 182 H 19.4092 -5.55346 4.39314 0
M  V30 183 H 19.8172 -4.91761 2.77185 0
M  V30 184 N 19.2153 -1.21501 -1.00376 0
M  V30 185 C 20.4403 -1.05977 -1.78279 0
M  V30 186 C 20.8653 0.385994 -1.84097 0
M  V30 187 O 20.2233 1.27849 -1.28547 0
M  V30 188 C 20.2713 -1.66302 -3.19963 0
M  V30 189 O 19.3753 -0.909333 -4.0225 0
M  V30 190 H 18.7163 -0.372906 -0.549397 0
M  V30 191 H 21.2463 -1.6107 -1.26165 0
M  V30 192 H 21.2563 -1.70574 -3.70632 0
M  V30 193 H 19.9313 -2.71515 -3.15043 0
M  V30 194 H 18.5083 -0.941795 -3.60811 0
M  V30 195 N 20.6934 1.19889 -1.02296 0
M  V30 196 C 21.6414 2.24938 -0.592081 0
M  V30 197 C 22.6354 1.65257 0.372357 0
M  V30 198 O 23.8414 1.78371 0.241583 0
M  V30 199 H 20.2164 0.731787 -0.173182 0
M  V30 200 H 22.1874 2.58603 -1.48885 0
M  V30 201 C 20.9364 3.47668 0.047351 0
M  V30 202 H 20.2594 3.93875 -0.685772 0
M  V30 203 H 21.6994 4.22852 0.311862 0
M  V30 204 C 20.1584 3.11136 1.29212 0
M  V30 205 O 20.6884 3.2325 2.38479 0
M  V30 206 N 18.8944 2.65625 1.17863 0
M  V30 207 H 18.4414 2.55968 0.289493 0
M  V30 208 H 18.3994 2.41553 2.01245 0
M  V30 209 N 22.1715 0.800033 1.35784 0
M  V30 210 C 23.1215 0.178654 2.27299 0
M  V30 211 C 24.1055 -0.643667 1.47464 0
M  V30 212 O 25.2975 -0.502 1.69732 0
M  V30 213 C 22.4265 -0.677194 3.36555 0
M  V30 214 C 21.5125 0.154497 4.23818 0
M  V30 215 N 21.9035 1.21427 4.91008 0
M  V30 216 C 20.2015 -0.0649462 4.45953 0
M  V30 217 C 20.9025 1.72147 5.55644 0
M  V30 218 N 19.8785 1.02897 5.33773 0
M  V30 219 H 23.6805 0.989637 2.76737 0
M  V30 220 H 21.1945 0.64054 1.49234 0
M  V30 221 H 23.1915 -1.13835 4.01058 0
M  V30 222 H 21.8515 -1.4866 2.8867 0
M  V30 223 H 22.8625 1.59684 4.92668 0
M  V30 224 H 19.5395 -0.844016 4.0888 0
M  V30 225 H 20.9295 2.60683 6.19269 0
M  V30 226 N 23.6496 -1.47581 0.552962 0
M  V30 227 C 24.8776 -2.06875 0.0320556 0
M  V30 228 C 25.2926 -1.40625 -1.25976 0
M  V30 229 O 24.6496 -0.501349 -1.75479 0
M  V30 230 C 24.7006 -3.61092 -0.17167 0
M  V30 231 O 24.4216 -4.24858 1.06899 0
M  V30 232 C 25.9226 -4.37242 -0.730344 0
M  V30 233 H 23.1426 -0.669561 0.043915 0
M  V30 234 H 25.6866 -1.89646 0.765163 0
M  V30 235 H 23.8416 -3.7785 -0.854894 0
M  V30 236 H 24.2556 -5.17334 0.864059 0
M  V30 237 H 25.7296 -5.45842 -0.822203 0
M  V30 238 H 26.2066 -4.03235 -1.74064 0
M  V30 239 H 26.8126 -4.25219 -0.0829543 0
M  V30 240 N 25.1277 -0.289203 -1.54924 0
M  V30 241 C 26.5437 0.0645403 -1.59469 0
M  V30 242 C 26.7437 1.53419 -1.30632 0
M  V30 243 O 25.7997 2.2852 -1.074 0
M  V30 244 C 27.1127 -0.32278 -2.98963 0
M  V30 245 C 28.6607 -0.270564 -3.11828 0
M  V30 246 C 29.1357 -0.632532 -4.53611 0
M  V30 247 N 30.6267 -0.584617 -4.59496 0
M  V30 248 C 31.3617 -0.837314 -5.67254 0
M  V30 249 N 30.8577 -1.15536 -6.83098 0
M  V30 250 N 32.6507 -0.765166 -5.56868 0
M  V30 251 H 24.8017 -1.24714 -1.71931 0
M  V30 252 H 27.0647 -0.504809 -0.802416 0
M  V30 253 H 26.7707 -1.34541 -3.24948 0
M  V30 254 H 26.6447 0.32944 -3.75759 0
M  V30 255 H 29.0317 0.742805 -2.85598 0
M  V30 256 H 29.1127 -0.957242 -2.37214 0
M  V30 257 H 28.7567 -1.64365 -4.80569 0
M  V30 258 H 28.6867 0.07609 -5.26545 0
M  V30 259 H 31.1777 -0.349248 -3.76283 0
M  V30 260 H 31.4907 -1.33447 -7.61191 0
M  V30 261 H 29.8357 -1.19328 -6.84679 0
M  V30 262 H 33.0267 -0.516432 -4.65243 0
M  V30 263 H 33.1997 -0.965477 -6.40767 0
M  V30 264 N 26.6058 1.57591 -0.0167156 0
M  V30 265 C 27.5158 2.1291 0.98521 0
M  V30 266 C 28.5318 1.07834 1.36557 0
M  V30 267 O 29.7078 1.39826 1.44951 0
M  V30 268 C 26.7728 2.63512 2.25305 0
M  V30 269 C 25.8338 3.83256 1.93426 0
M  V30 270 C 25.0668 4.31435 3.14165 0
M  V30 271 O 25.2898 3.78851 4.26413 0
M  V30 272 O 24.2238 5.23416 2.97186 0
M  V30 273 H 28.0498 2.98772 0.544888 0
M  V30 274 H 25.6348 1.48012 0.203141 0
M  V30 275 H 27.5168 2.96183 2.99756 0
M  V30 276 H 26.1918 1.8074 2.68542 0
M  V30 277 H 25.0988 3.55531 1.16398 0
M  V30 278 H 26.4318 4.67153 1.55013 0
M  V30 279 N 28.0839 -0.256276 1.55502 0
M  V30 280 C 29.4999 -0.604325 1.47716 0
M  V30 281 C 29.6999 -1.88763 0.705039 0
M  V30 282 O 28.7559 -2.51445 0.230613 0
M  V30 283 C 30.0689 -0.715756 2.92057 0
M  V30 284 C 31.6169 -0.808706 3.02372 0
M  V30 285 C 32.0919 -0.951777 4.48001 0
M  V30 286 N 33.5829 -1.01688 4.519 0
M  V30 287 C 34.3179 -1.14668 5.61817 0
M  V30 288 N 33.8139 -1.24261 6.81565 0
M  V30 289 N 35.6069 -1.1791 5.49594 0
M  V30 290 H 27.7579 0.586291 2.04148 0
M  V30 291 H 30.0209 0.201015 0.926443 0
M  V30 292 H 29.7269 0.157027 3.51349 0
M  V30 293 H 29.6009 -1.59071 3.42018 0
M  V30 294 H 31.9879 -1.67195 2.43166 0
M  V30 295 H 32.0689 0.0912063 2.55637 0
M  V30 296 H 31.7129 -0.0931291 5.07815 0
M  V30 297 H 31.6429 -1.86659 4.92408 0
M  V30 298 H 34.1339 -0.954468 3.65648 0
M  V30 299 H 34.4469 -1.34046 7.61086 0
M  V30 300 H 32.7919 -1.21236 6.84344 0
M  V30 301 H 35.9829 -1.10057 4.54978 0
M  V30 302 H 36.1559 -1.27681 6.35296 0
M  V30 303 N 29.562 -1.4872 -0.521534 0
M  V30 304 C 30.808 -1.574 -1.27879 0
M  V30 305 C 31.141 -0.250817 -1.92573 0
M  V30 306 O 30.416 0.743934 -1.79711 0
M  V30 307 C 30.699 -2.71843 -2.36164 0
M  V30 308 C 30.552 -4.13893 -1.76105 0
M  V30 309 C 31.871 -2.82008 -3.37875 0
M  V30 310 H 28.99 -0.572941 -0.463581 0
M  V30 311 H 31.632 -1.80927 -0.580119 0
M  V30 312 H 29.782 -2.51914 -2.95756 0
M  V30 313 H 31.454 -4.45284 -1.20499 0
M  V30 314 H 29.697 -4.20498 -1.06601 0
M  V30 315 H 30.368 -4.89804 -2.5455 0
M  V30 316 H 32.844 -3.00086 -2.88249 0
M  V30 317 H 31.72 -3.63796 -4.11028 0
M  V30 318 H 31.981 -1.90511 -3.98946 0
M  V30 319 N 31.0401 0.771051 -1.3745 0
M  V30 320 C 32.2681 1.56015 -1.35893 0
M  V30 321 C 32.6831 1.88718 0.0555523 0
M  V30 322 O 32.0401 1.51502 1.01752 0
M  V30 323 C 32.0911 2.87001 -2.19801 0
M  V30 324 O 31.8121 2.557 -3.55738 0
M  V30 325 C 33.3131 3.81228 -2.26231 0
M  V30 326 H 30.5331 0.483317 -0.465453 0
M  V30 327 H 33.0771 0.955611 -1.80799 0
M  V30 328 H 31.2321 3.43877 -1.78402 0
M  V30 329 H 31.6461 3.39584 -3.99729 0
M  V30 330 H 33.1201 4.70139 -2.89263 0
M  V30 331 H 33.5971 4.20409 -1.27093 0
M  V30 332 H 34.2031 3.30281 -2.67945 0
M  V30 333 N 32.5182 1.22032 0.997298 0
M  V30 334 C 33.7642 1.04376 1.73878 0
M  V30 335 C 34.0972 -0.420716 1.89588 0
M  V30 336 O 33.3722 -1.31202 1.43583 0
M  V30 337 C 33.6552 1.75047 3.14691 0
M  V30 338 C 33.5082 3.29062 3.06656 0
M  V30 339 C 34.8272 1.49928 4.13775 0
M  V30 340 H 31.9462 0.380578 0.631133 0
M  V30 341 H 34.5882 1.50312 1.16217 0
M  V30 342 H 32.7382 1.35996 3.63919 0
M  V30 343 H 34.4102 3.7753 2.65083 0
M  V30 344 H 32.6532 3.58967 2.43568 0
M  V30 345 H 33.3242 3.73683 4.06282 0
M  V30 346 H 35.8002 1.83842 3.73285 0
M  V30 347 H 34.6762 2.01878 5.10428 0
M  V30 348 H 34.9372 0.430929 4.39995 0
M  V30 349 N 33.9963 -1.19345 1.0293 0
M  V30 350 C 34.9593 -2.20793 0.615069 0
M  V30 351 C 35.9593 -1.57553 -0.321533 0
M  V30 352 O 37.1493 -1.73862 -0.108483 0
M  V30 353 C 34.2813 -3.40754 -0.0999222 0
M  V30 354 H 35.4743 -2.58955 1.51269 0
M  V30 355 H 33.0273 -1.3303 0.820534 0
M  V30 356 H 33.7623 -3.0811 -1.01187 0
M  V30 357 H 33.5473 -3.87889 0.57309 0
M  V30 358 H 35.0373 -4.15898 -0.376645 0
M  V30 359 N 35.4744 -0.807222 -1.35358 0
M  V30 360 C 36.4214 -0.216037 -2.29787 0
M  V30 361 C 37.3914 0.650278 -1.52842 0
M  V30 362 O 38.5764 0.595227 -1.81278 0
M  V30 363 C 35.7164 0.628893 -3.39321 0
M  V30 364 C 34.8294 -0.257927 -4.31229 0
M  V30 365 C 33.9644 0.595069 -5.27856 0
M  V30 366 C 33.0034 -0.292111 -6.11403 0
M  V30 367 N 32.1404 0.520895 -7.00165 0
M  V30 368 H 36.9804 -1.02671 -2.79755 0
M  V30 369 H 34.5174 -0.517839 -1.37684 0
M  V30 370 H 36.4754 1.13393 -4.01494 0
M  V30 371 H 35.1054 1.40482 -2.90628 0
M  V30 372 H 34.1574 -0.881076 -3.70056 0
M  V30 373 H 35.4694 -0.940759 -4.89848 0
M  V30 374 H 34.6234 1.16522 -5.95405 0
M  V30 375 H 33.3624 1.31146 -4.69736 0
M  V30 376 H 32.3674 -0.874525 -5.428 0
M  V30 377 H 33.5924 -1.00638 -6.71602 0
M  V30 378 H 31.5384 1.22125 -6.44532 0
M  V30 379 H 31.4554 -0.103877 -7.55929 0
M  V30 380 H 32.7234 1.0743 -7.72062 0
M  V30 381 N 36.9525 1.47285 -0.560781 0
M  V30 382 C 37.8825 2.32857 0.173105 0
M  V30 383 C 38.8635 1.44009 0.905281 0
M  V30 384 O 40.0485 1.7286 0.885046 0
M  V30 385 C 37.1785 3.25861 1.20133 0
M  V30 386 C 36.1325 4.23978 0.585388 0
M  V30 387 C 35.4585 5.06332 1.7185 0
M  V30 388 C 36.7585 5.20242 -0.463178 0
M  V30 389 H 38.4525 2.94466 -0.541307 0
M  V30 390 H 35.9985 1.41601 -0.261764 0
M  V30 391 H 37.9515 3.84569 1.72293 0
M  V30 392 H 36.6755 2.62315 1.94573 0
M  V30 393 H 35.3345 3.66501 0.085054 0
M  V30 394 H 34.9825 4.39186 2.45203 0
M  V30 395 H 34.6825 5.72762 1.31213 0
M  V30 396 H 36.2065 5.67899 2.24329 0
M  V30 397 H 37.6205 5.73293 -0.027502 0
M  V30 398 H 36.0175 5.94896 -0.788627 0
M  V30 399 H 37.0875 4.65504 -1.35773 0
M  V30 400 N 38.4306 0.297415 1.54768 0
M  V30 401 C 39.6586 -0.315623 2.04478 0
M  V30 402 C 40.0736 -1.47792 1.17486 0
M  V30 403 O 39.4306 -1.81404 0.19971 0
M  V30 404 C 39.4816 -0.7753 3.53088 0
M  V30 405 O 39.2026 0.340732 4.36773 0
M  V30 406 C 40.7036 -1.45386 4.18781 0
M  V30 407 H 37.9236 -0.0690887 0.667434 0
M  V30 408 H 40.4676 0.436003 1.99798 0
M  V30 409 H 38.6226 -1.47696 3.58141 0
M  V30 410 H 39.0366 -0.0165035 5.24497 0
M  V30 411 H 40.5106 -1.72669 5.24299 0
M  V30 412 H 40.9876 -2.39275 3.68299 0
M  V30 413 H 41.5936 -0.795475 4.17795 0
M  V30 414 N 39.9087 -1.5758 0.0250728 0
M  V30 415 C 40.8387 -2.13007 -0.956575 0
M  V30 416 C 41.8197 -1.0452 -1.342 0
M  V30 417 O 43.0047 -1.32332 -1.42133 0
M  V30 418 C 40.1347 -2.65386 -2.24026 0
M  V30 419 C 39.0887 -3.78623 -1.99571 0
M  V30 420 C 38.4147 -4.17414 -3.3417 0
M  V30 421 C 39.7147 -5.04867 -1.33814 0
M  V30 422 H 41.4087 -2.9528 -0.494991 0
M  V30 423 H 38.9547 -1.42042 -0.236651 0
M  V30 424 H 40.9077 -3.02794 -2.93076 0
M  V30 425 H 39.6317 -1.80268 -2.72343 0
M  V30 426 H 38.2907 -3.41646 -1.32941 0
M  V30 427 H 37.9387 -3.29284 -3.80238 0
M  V30 428 H 37.6387 -4.93719 -3.18615 0
M  V30 429 H 39.1627 -4.57402 -4.04495 0
M  V30 430 H 40.5767 -5.39888 -1.92857 0
M  V30 431 H 38.9737 -5.86144 -1.28669 0
M  V30 432 H 40.0437 -4.83904 -0.310561 0
M  V30 433 N 41.3868 0.248026 -1.55636 0
M  V30 434 C 42.2968 1.32859 -1.93354 0
M  V30 435 C 43.3128 1.52719 -0.833838 0
M  V30 436 O 44.4888 1.66363 -1.13513 0
M  V30 437 C 41.5538 2.66337 -2.21958 0
M  V30 438 C 40.6148 2.55008 -3.45354 0
M  V30 439 C 39.8478 3.82121 -3.72584 0
M  V30 440 O 40.0708 4.83951 -3.01907 0
M  V30 441 O 39.0048 3.80822 -4.6611 0
M  V30 442 H 42.8308 1.03862 -2.85388 0
M  V30 443 H 40.4158 0.448686 -1.42503 0
M  V30 444 H 42.2978 3.45216 -2.4167 0
M  V30 445 H 40.9728 2.95068 -1.33103 0
M  V30 446 H 39.8798 1.7442 -3.30951 0
M  V30 447 H 41.2128 2.31222 -4.34508 0
M  V30 448 N 42.8649 1.48995 0.513639 0
M  V30 449 C 43.8129 1.65199 1.63744 0
M  V30 450 C 44.8069 0.51809 1.61283 0
M  V30 451 O 46.0129 0.697335 1.65943 0
M  V30 452 H 42.3879 0.52069 0.542574 0
M  V30 453 H 44.3589 2.59552 1.47226 0
M  V30 454 C 43.1079 1.72409 3.01945 0
M  V30 455 H 42.4309 2.59029 3.04539 0
M  V30 456 H 43.8709 1.87785 3.80148 0
M  V30 457 C 42.3299 0.46618 3.33659 0
M  V30 458 O 42.8599 -0.413744 3.99564 0
M  V30 459 N 41.0659 0.332931 2.88687 0
M  V30 460 H 40.6129 1.04996 2.35231 0
M  V30 461 H 40.5709 -0.507665 3.10274 0
M  V30 462 N 44.343 -0.763751 1.37857 0
M  V30 463 C 45.59 -1.52257 1.33506 0
M  V30 464 C 45.918 -1.94343 -0.078022 0
M  V30 465 O 45.173 -1.64958 -1.05297 0
M  V30 466 C 45.472 -2.79499 2.22745 0
M  V30 467 C 45.138 -2.56426 3.70886 0
M  V30 468 C 43.8 -2.49842 4.11257 0
M  V30 469 C 46.152 -2.36008 4.64704 0
M  V30 470 C 43.48 -2.20841 5.43549 0
M  V30 471 C 45.832 -2.0853 5.97242 0
M  V30 472 C 44.496 -2.00396 6.36709 0
M  V30 473 H 43.766 -0.557149 0.488534 0
M  V30 474 H 46.413 -0.879073 1.70131 0
M  V30 475 H 44.718 -3.48447 1.79142 0
M  V30 476 H 46.415 -3.37413 2.16688 0
M  V30 477 H 43.005 -2.62416 3.38874 0
M  V30 478 H 47.189 -2.40079 4.34368 0
M  V30 479 H 42.445 -2.13045 5.73081 0
M  V30 480 H 46.619 -1.91732 6.69486 0
M  V30 481 H 44.246 -1.77688 7.39142 0
M  V30 482 N 45.8211 -1.22559 -0.990812 0
M  V30 483 C 47.0511 -1.07623 -1.76355 0
M  V30 484 C 47.4591 0.37601 -1.85426 0
M  V30 485 O 46.8021 1.27228 -1.32509 0
M  V30 486 C 46.8641 -1.61507 -3.21179 0
M  V30 487 C 46.5281 -3.10146 -3.35646 0
M  V30 488 C 47.5251 -4.07553 -3.22796 0
M  V30 489 C 45.2101 -3.49644 -3.60631 0
M  V30 490 C 47.2041 -5.42442 -3.34716 0
M  V30 491 C 44.8911 -4.84682 -3.72192 0
M  V30 492 C 45.8891 -5.8089 -3.59243 0
M  V30 493 O 45.5771 -7.13476 -3.70415 0
M  V30 494 H 45.3091 -0.377745 -0.560611 0
M  V30 495 H 47.8631 -1.62658 -1.25425 0
M  V30 496 H 46.0931 -1.00881 -3.73309 0
M  V30 497 H 47.7821 -1.42202 -3.80175 0
M  V30 498 H 48.5481 -3.78381 -3.03403 0
M  V30 499 H 44.4271 -2.75282 -3.69785 0
M  V30 500 H 47.9711 -6.17518 -3.24526 0
M  V30 501 H 43.8681 -5.13534 -3.91092 0
M  V30 502 H 44.6361 -7.21083 -3.87275 0
M  V30 503 N 47.2992 1.18797 -1.03562 0
M  V30 504 C 48.5242 1.9314 -0.755764 0
M  V30 505 C 48.9492 1.7537 0.68022 0
M  V30 506 O 48.3072 1.06046 1.47051 0
M  V30 507 C 48.3552 3.42747 -1.12058 0
M  V30 508 O 47.4592 4.11683 -0.243124 0
M  V30 509 H 46.8002 0.602724 -0.278604 0
M  V30 510 H 49.3302 1.50678 -1.3841 0
M  V30 511 H 49.3402 3.93437 -1.08035 0
M  V30 512 H 48.0152 3.55002 -2.16672 0
M  V30 513 H 46.5922 3.71323 -0.342539 0
M  V30 514 N 48.7773 0.814389 1.34928 0
M  V30 515 C 49.7253 0.218424 2.31572 0
M  V30 516 C 50.7193 -0.636128 1.57002 0
M  V30 517 O 51.9253 -0.52842 1.72069 0
M  V30 518 H 48.3003 0.0518799 0.750208 0
M  V30 519 H 50.2713 1.04852 2.79372 0
M  V30 520 C 49.0203 -0.61207 3.4227 0
M  V30 521 H 48.3433 0.0361578 3.99784 0
M  V30 522 H 49.7833 -0.995317 4.12152 0
M  V30 523 C 48.2423 -1.78087 2.85984 0
M  V30 524 O 48.7723 -2.8787 2.80168 0
M  V30 525 N 46.9783 -1.59488 2.42924 0
M  V30 526 H 46.5253 -0.701874 2.47854 0
M  V30 527 H 46.4833 -2.37846 2.05613 0
M  V30 528 N 50.2554 -1.46986 0.568584 0
M  V30 529 C 51.1854 -2.32946 -0.160753 0
M  V30 530 C 52.1664 -1.44487 -0.897631 0
M  V30 531 O 53.3514 -1.73327 -0.875867 0
M  V30 532 C 50.4814 -3.26494 -1.18403 0
M  V30 533 C 49.4354 -4.24282 -0.562895 0
M  V30 534 C 48.7614 -5.07236 -1.69163 0
M  V30 535 C 50.0614 -5.19989 0.490761 0
M  V30 536 H 51.7554 -2.94175 0.556916 0
M  V30 537 H 49.3014 -1.4146 0.26927 0
M  V30 538 H 51.2544 -3.85477 -1.70251 0
M  V30 539 H 49.9784 -2.63343 -1.93179 0
M  V30 540 H 48.6374 -3.66541 -0.0656164 0
M  V30 541 H 48.2854 -4.4048 -2.42871 0
M  V30 542 H 47.9854 -5.7345 -1.28174 0
M  V30 543 H 49.5094 -5.6908 -2.21314 0
M  V30 544 H 50.9234 -5.73271 0.0579047 0
M  V30 545 H 49.3204 -5.94469 0.820165 0
M  V30 546 H 50.3904 -4.64777 1.3824 0
M  V30 547 N 51.7335 -0.305618 -1.54608 0
M  V30 548 C 52.9825 0.303098 -1.9941 0
M  V30 549 C 53.2955 1.54648 -1.19764 0
M  V30 550 O 54.5015 2.23007 -1.54855 0
M  V30 551 C 52.9575 0.590588 -3.55021 0
M  V30 552 C 52.5655 -0.634719 -4.43481 0
M  V30 553 C 54.3095 1.16025 -4.08336 0
M  V30 554 C 52.2165 -0.320126 -5.90533 0
M  V30 555 H 51.1465 0.117031 -0.744862 0
M  V30 556 H 53.7975 -0.415045 -1.78745 0
M  V30 557 H 52.1795 1.36845 -3.71604 0
M  V30 558 H 53.3535 -1.41079 -4.38672 0
M  V30 559 H 51.6685 -1.12333 -4.00962 0
M  V30 560 H 54.2655 1.40994 -5.15776 0
M  V30 561 H 54.6085 2.10397 -3.5922 0
M  V30 562 H 55.1415 0.443985 -3.95315 0
M  V30 563 H 51.8805 -1.23254 -6.43808 0
M  V30 564 H 51.4005 0.418579 -5.98338 0
M  V30 565 H 53.0795 0.0766241 -6.46955 0
M  V30 566 N 53.2116 1.57565 -0.0334293 0
M  V30 567 C 54.1416 2.13511 0.945265 0
M  V30 568 C 55.1226 1.05231 1.33643 0
M  V30 569 O 56.3076 1.33084 1.41429 0
M  V30 570 C 53.4376 2.6657 2.22616 0
M  V30 571 C 52.3916 3.79676 1.97561 0
M  V30 572 C 51.7176 4.1918 3.31952 0
M  V30 573 C 53.0176 5.0557 1.31135 0
M  V30 574 H 54.7116 2.95538 0.479325 0
M  V30 575 H 52.2576 1.42166 0.229115 0
M  V30 576 H 54.2106 3.04344 2.91466 0
M  V30 577 H 52.9346 1.8171 2.71384 0
M  V30 578 H 51.5936 3.42347 1.31127 0
M  V30 579 H 51.2416 3.31296 3.78487 0
M  V30 580 H 50.9416 4.95402 3.15992 0
M  V30 581 H 52.4656 4.59541 4.02063 0
M  V30 582 H 53.8796 5.40903 1.89992 0
M  V30 583 H 52.2766 5.86818 1.25559 0
M  V30 584 H 53.3466 4.84062 0.284894 0
M  V30 585 N 54.6897 -0.239769 1.55765 0
M  V30 586 C 55.6217 -1.32001 1.87372 0
M  V30 587 C 56.6347 -1.43944 0.760522 0
M  V30 588 O 57.8237 -1.45167 1.0387 0
M  V30 589 C 54.9237 -2.69779 2.05115 0
M  V30 590 C 54.0967 -2.80014 3.36022 0
M  V30 591 C 53.1557 -3.98684 3.4342 0
M  V30 592 O 52.1817 -3.87877 4.16582 0
M  V30 593 N 53.3837 -5.12176 2.73232 0
M  V30 594 H 56.1487 -1.0522 2.80622 0
M  V30 595 H 53.7097 -0.429857 1.56089 0
M  V30 596 H 55.7017 -3.47517 2.07399 0
M  V30 597 H 54.2717 -2.89237 1.18577 0
M  V30 598 H 53.4917 -1.88896 3.45994 0
M  V30 599 H 54.7797 -2.83808 4.22292 0
M  V30 600 H 54.1777 -5.2385 2.13536 0
M  V30 601 H 52.7347 -5.88022 2.81199 0
M  V30 602 N 56.1678 -1.49265 -0.50573 0
M  V30 603 C 57.1178 -1.6198 -1.60457 0
M  V30 604 C 58.1018 -0.47568 -1.53708 0
M  V30 605 O 59.2938 -0.728392 -1.61318 0
M  V30 606 C 56.4228 -1.68526 -2.99089 0
M  V30 607 C 55.5088 -2.885 -3.10852 0
M  V30 608 N 55.8998 -4.12635 -2.92517 0
M  V30 609 C 54.1978 -2.86338 -3.41945 0
M  V30 610 C 54.8988 -4.93258 -3.08337 0
M  V30 611 N 53.8748 -4.26533 -3.37003 0
M  V30 612 H 57.6768 -2.55681 -1.44928 0
M  V30 613 H 55.1908 -1.45972 -0.711752 0
M  V30 614 H 57.1878 -1.75732 -3.78053 0
M  V30 615 H 55.8478 -0.759584 -3.1569 0
M  V30 616 H 56.8588 -4.42689 -2.68787 0
M  V30 617 H 53.5358 -2.03129 -3.64753 0
M  V30 618 H 54.9258 -6.01856 -2.98695 0
M  V30 619 N 57.6459 0.756429 -1.3826 0
M  V30 620 C 58.5559 1.9009 -1.37488 0
M  V30 621 C 59.5719 1.71855 -0.272366 0
M  V30 622 O 60.7479 1.94827 -0.510318 0
M  V30 623 C 57.8129 3.25421 -1.19592 0
M  V30 624 C 56.8739 3.56202 -2.39622 0
M  V30 625 C 56.1069 4.85075 -2.2257 0
M  V30 626 O 56.3299 5.57246 -1.21793 0
M  V30 627 O 55.2639 5.15269 -3.11098 0
M  V30 628 H 59.0899 1.93695 -2.33914 0
M  V30 629 H 56.6749 0.901313 -1.1915 0
M  V30 630 H 58.5569 4.06337 -1.11661 0
M  V30 631 H 57.2319 3.22634 -0.262486 0
M  V30 632 H 56.1389 2.75458 -2.53128 0
M  V30 633 H 57.4719 3.63747 -3.31586 0
M  V30 634 N 59.124 1.23083 0.984299 0
M  V30 635 C 60.034 1.02515 2.11016 0
M  V30 636 C 61.05 -0.0291702 1.73976 0
M  V30 637 O 62.226 0.165434 2.00719 0
M  V30 638 C 59.291 0.614673 3.41208 0
M  V30 639 C 58.352 1.74359 3.92297 0
M  V30 640 C 57.585 1.35261 5.16275 0
M  V30 641 O 57.808 0.235136 5.69915 0
M  V30 642 O 56.742 2.17227 5.61334 0
M  V30 643 H 60.568 1.96862 2.31255 0
M  V30 644 H 58.153 1.01753 1.09392 0
M  V30 645 H 60.035 0.396518 4.1953 0
M  V30 646 H 58.71 -0.299851 3.22308 0
M  V30 647 H 57.617 2.01635 3.1511 0
M  V30 648 H 58.95 2.63629 4.15645 0
M  V30 649 N 60.6021 -1.18246 1.0419 0
M  V30 650 C 62.0181 -1.40269 0.761366 0
M  V30 651 C 62.2181 -1.90777 -0.648578 0
M  V30 652 O 61.2741 -2.0929 -1.41258 0
M  V30 653 C 62.5871 -2.40237 1.8085 0
M  V30 654 C 64.1351 -2.53961 1.82955 0
M  V30 655 C 64.6101 -3.57194 2.86664 0
M  V30 656 N 66.1011 -3.64702 2.85563 0
M  V30 657 C 66.8361 -4.44309 3.6246 0
M  V30 658 N 66.3321 -5.27514 4.49111 0
M  V30 659 N 68.1251 -4.39084 3.50944 0
M  V30 660 H 60.2761 -0.837882 1.95175 0
M  V30 661 H 62.5391 -0.430608 0.84456 0
M  V30 662 H 62.2451 -2.10176 2.81991 0
M  V30 663 H 62.1191 -3.39601 1.64168 0
M  V30 664 H 64.5061 -2.83338 0.824855 0
M  V30 665 H 64.5871 -1.54706 2.03715 0
M  V30 666 H 64.2311 -3.28558 3.87314 0
M  V30 667 H 64.1611 -4.5613 2.6316 0
M  V30 668 H 66.6521 -3.05289 2.22727 0
M  V30 669 H 66.9651 -5.85411 5.04493 0
M  V30 670 H 65.3101 -5.2693 4.53178 0
M  V30 671 H 68.5011 -3.7313 2.82651 0
M  V30 672 H 68.6741 -5.00883 4.11121 0
M  V30 673 N 62.0802 -0.821533 -1.34494 0
M  V30 674 C 62.9902 -0.244355 -2.33324 0
M  V30 675 C 64.0062 0.620527 -1.62559 0
M  V30 676 O 65.1822 0.528754 -1.94335 0
M  V30 677 C 62.2472 0.585368 -3.41723 0
M  V30 678 C 61.3082 -0.301752 -4.28238 0
M  V30 679 C 60.5412 0.488466 -5.3146 0
M  V30 680 O 60.7642 1.72186 -5.4379 0
M  V30 681 O 59.6982 -0.12848 -6.01763 0
M  V30 682 H 63.5242 -1.06231 -2.84515 0
M  V30 683 H 61.1092 -0.583645 -1.37528 0
M  V30 684 H 62.9912 1.05747 -4.07916 0
M  V30 685 H 61.6662 1.38068 -2.92778 0
M  V30 686 H 60.5732 -0.821315 -3.64973 0
M  V30 687 H 61.9062 -1.06138 -4.8062 0
M  V30 688 N 63.5583 1.46682 -0.576371 0
M  V30 689 C 64.7863 2.06798 -0.0649635 0
M  V30 690 C 65.2013 1.42612 1.23723 0
M  V30 691 O 64.5583 0.529203 1.74659 0
M  V30 692 C 64.6093 3.6132 0.114202 0
M  V30 693 O 64.3303 4.23104 -1.13644 0
M  V30 694 C 65.8313 4.38349 0.66069 0
M  V30 695 H 63.0513 0.668778 -0.0545616 0
M  V30 696 H 65.5953 1.88404 -0.795237 0
M  V30 697 H 63.7503 3.79162 0.794673 0
M  V30 698 H 64.1643 5.15894 -0.946253 0
M  V30 699 H 65.6383 5.47081 0.73526 0
M  V30 700 H 66.1153 4.05953 1.67627 0
M  V30 701 H 66.7213 4.25297 0.0152951 0
M  V30 702 N 65.0364 0.313813 1.54444 0
M  V30 703 C 66.4524 -0.0391619 1.59552 0
M  V30 704 C 66.6524 -1.51322 1.33056 0
M  V30 705 O 65.7084 -2.26782 1.11022 0
M  V30 706 C 67.0214 0.370302 2.98411 0
M  V30 707 C 68.5694 0.320139 3.11358 0
M  V30 708 C 69.0444 0.704617 4.52547 0
M  V30 709 N 70.5354 0.657645 4.58508 0
M  V30 710 C 71.2704 0.927453 5.6585 0
M  V30 711 N 70.7664 1.26389 6.81174 0
M  V30 712 N 72.5594 0.853662 5.5558 0
M  V30 713 H 64.7104 1.27433 1.69925 0
M  V30 714 H 66.9734 0.517511 0.794284 0
M  V30 715 H 66.6794 1.39694 3.22767 0
M  V30 716 H 66.5534 -0.269619 3.76235 0
M  V30 717 H 68.9404 -0.697275 2.86744 0
M  V30 718 H 69.0214 0.99486 2.35661 0
M  V30 719 H 68.6654 1.7199 4.77893 0
M  V30 720 H 68.5954 0.00768843 5.26599 0
M  V30 721 H 71.0864 0.409067 3.75679 0
M  V30 722 H 71.3994 1.4554 7.58972 0
M  V30 723 H 69.7444 1.30206 6.82694 0
M  V30 724 H 72.9354 0.590383 4.64362 0
M  V30 725 H 73.1084 1.0673 6.3915 0
M  V30 726 N 66.5145 -1.57545 0.0417849 0
M  V30 727 C 67.4465 -2.07904 -0.964799 0
M  V30 728 C 68.4595 -1.00497 -1.28079 0
M  V30 729 O 69.6485 -1.28087 -1.24322 0
M  V30 730 C 66.7485 -2.49928 -2.28887 0
M  V30 731 C 65.9215 -3.80562 -2.15619 0
M  V30 732 C 64.9805 -4.08999 -3.31069 0
M  V30 733 O 64.0065 -4.79061 -3.0739 0
M  V30 734 N 65.2085 -3.6017 -4.55256 0
M  V30 735 H 67.9735 -2.94886 -0.535029 0
M  V30 736 H 65.5345 -1.61252 -0.144681 0
M  V30 737 H 67.5265 -2.66034 -3.04972 0
M  V30 738 H 66.0965 -1.68245 -2.63463 0
M  V30 739 H 65.3165 -3.74129 -1.24183 0
M  V30 740 H 66.6045 -4.66126 -2.03971 0
M  V30 741 H 66.0025 -3.03512 -4.77386 0
M  V30 742 H 64.5595 -3.81532 -5.28466 0
M  V30 743 N 67.9926 0.231505 -1.5589 0
M  V30 744 C 68.9396 1.28682 -1.91598 0
M  V30 745 C 69.9096 1.47071 -0.771974 0
M  V30 746 O 71.0946 1.60802 -1.027 0
M  V30 747 C 68.2346 2.6342 -2.22944 0
M  V30 748 C 67.3476 2.52912 -3.50228 0
M  V30 749 C 66.4826 3.80106 -3.7107 0
M  V30 750 C 65.5216 3.64279 -4.91902 0
M  V30 751 N 64.6586 4.834 -5.09184 0
M  V30 752 H 69.4986 0.975305 -2.81588 0
M  V30 753 H 67.0356 0.470299 -1.39379 0
M  V30 754 H 68.9936 3.41869 -2.39126 0
M  V30 755 H 67.6236 2.92687 -1.36139 0
M  V30 756 H 66.6756 1.6595 -3.42294 0
M  V30 757 H 67.9876 2.37133 -4.38827 0
M  V30 758 H 67.1416 4.66999 -3.87295 0
M  V30 759 H 65.8806 3.98799 -2.80733 0
M  V30 760 H 64.8856 2.7577 -4.75637 0
M  V30 761 H 66.1106 3.47067 -5.83714 0
M  V30 762 H 64.0566 5.02425 -4.21788 0
M  V30 763 H 63.9736 4.70311 -5.91898 0
M  V30 764 H 65.2416 5.71747 -5.29835 0
M  V30 765 N 69.4707 1.49531 0.497807 0
M  V30 766 C 70.4177 1.66436 1.59899 0
M  V30 767 C 71.3877 0.505793 1.58212 0
M  V30 768 O 72.5727 0.733202 1.7615 0
M  V30 769 C 69.7127 1.7399 2.98029 0
M  V30 770 C 68.8257 3.01172 3.09708 0
M  V30 771 C 67.9607 2.99686 4.38591 0
M  V30 772 C 66.9997 4.21434 4.43914 0
M  V30 773 N 66.1367 4.1784 5.64229 0
M  V30 774 H 70.9767 2.60459 1.44793 0
M  V30 775 H 68.5137 1.29137 0.704423 0
M  V30 776 H 70.4717 1.76352 3.78095 0
M  V30 777 H 69.1017 0.834301 3.11832 0
M  V30 778 H 68.1537 3.08408 2.22685 0
M  V30 779 H 69.4657 3.91165 3.09502 0
M  V30 780 H 68.6197 3.00628 5.2698 0
M  V30 781 H 67.3587 2.07477 4.41367 0
M  V30 782 H 66.3637 4.20733 3.53926 0
M  V30 783 H 67.5887 5.14839 4.42851 0
M  V30 784 H 65.5347 3.28469 5.67841 0
M  V30 785 H 65.4517 5.01571 5.65652 0
M  V30 786 H 66.7197 4.22889 6.54817 0
M  V30 787 N 70.9488 -0.749086 1.3866 0
M  V30 788 C 71.8788 -1.8764 1.38973 0
M  V30 789 C 72.8598 -1.68178 0.255004 0
M  V30 790 O 74.0448 -1.88704 0.458754 0
M  V30 791 C 71.1748 -3.25222 1.21851 0
M  V30 792 C 70.1288 -3.59295 2.32575 0
M  V30 793 C 69.4548 -4.95663 2.00555 0
M  V30 794 C 70.7548 -3.63709 3.7485 0
M  V30 795 H 72.4488 -1.87635 2.3331 0
M  V30 796 H 69.9948 -0.901329 1.12303 0
M  V30 797 H 71.9478 -4.03746 1.20695 0
M  V30 798 H 70.6718 -3.25719 0.239775 0
M  V30 799 H 69.3308 -2.83093 2.32925 0
M  V30 800 H 68.9788 -4.92724 1.01154 0
M  V30 801 H 68.6788 -5.19429 2.74714 0
M  V30 802 H 70.2028 -5.7656 2.01024 0
M  V30 803 H 71.6168 -4.32338 3.76506 0
M  V30 804 H 70.0138 -3.98986 4.48252 0
M  V30 805 H 71.0838 -2.63834 4.06841 0
M  V30 806 N 72.4269 -1.23603 -0.977757 0
M  V30 807 C 73.3369 -1.03632 -2.1047 0
M  V30 808 C 74.3529 0.0199435 -1.73989 0
M  V30 809 O 75.5289 -0.176076 -2.00629 0
M  V30 810 C 72.5939 -0.63276 -3.40877 0
M  V30 811 C 71.6549 -1.76437 -3.91367 0
M  V30 812 C 70.8879 -1.37997 -5.15551 0
M  V30 813 O 71.1109 -0.265357 -5.69782 0
M  V30 814 O 70.0449 -2.20201 -5.60174 0
M  V30 815 H 73.8709 -1.98086 -2.30208 0
M  V30 816 H 71.4559 -1.02332 -1.08851 0
M  V30 817 H 73.3379 -0.418761 -4.19314 0
M  V30 818 H 72.0129 0.282754 -3.22463 0
M  V30 819 H 70.9199 -2.03304 -3.14036 0
M  V30 820 H 72.2529 -2.6583 -4.14241 0
M  V30 821 N 73.905 1.17692 -1.04816 0
M  V30 822 C 75.151 1.88137 -0.75711 0
M  V30 823 C 75.484 1.80604 0.713841 0
M  V30 824 O 74.759 1.21146 1.52164 0
M  V30 825 C 75.042 3.38318 -1.2334 0
M  V30 826 C 74.895 3.54622 -2.76701 0
M  V30 827 C 76.214 4.32214 -0.829415 0
M  V30 828 H 73.333 0.683163 -0.27651 0
M  V30 829 H 75.975 1.38424 -1.30149 0
M  V30 830 H 74.125 3.80787 -0.770286 0
M  V30 831 H 75.797 3.21194 -3.31107 0
M  V30 832 H 74.04 2.97026 -3.16161 0
M  V30 833 H 74.711 4.60028 -3.05088 0
M  V30 834 H 77.187 3.97565 -1.22805 0
M  V30 835 H 76.063 5.35838 -1.19033 0
M  V30 836 H 76.324 4.41294 0.266891 0
M  V30 837 N 75.3831 0.828654 1.34056 0
M  V30 838 C 76.3461 0.259927 2.27721 0
M  V30 839 C 77.3461 -0.565478 1.50529 0
M  V30 840 O 78.5361 -0.38075 1.69988 0
M  V30 841 C 75.6681 -0.634944 3.34935 0
M  V30 842 H 76.8611 1.0863 2.79534 0
M  V30 843 H 74.4141 0.600951 1.44285 0
M  V30 844 H 75.1491 -1.48416 2.88346 0
M  V30 845 H 74.9341 -0.0444999 3.92075 0
M  V30 846 H 76.4241 -1.02648 4.04788 0
M  V30 847 N 76.8612 -1.46375 0.584142 0
M  V30 848 C 77.7942 -2.27351 -0.196676 0
M  V30 849 C 78.7722 -1.35715 -0.895561 0
M  V30 850 O 79.9562 -1.65126 -0.90916 0
M  V30 851 C 77.0832 -3.13486 -1.28235 0
M  V30 852 C 76.1292 -4.20896 -0.689145 0
M  V30 853 S 76.9622 -5.33299 0.48507 0
M  V30 854 C 78.1182 -6.23 -0.601767 0
M  V30 855 H 78.3512 -2.93228 0.490395 0
M  V30 856 H 75.8842 -1.49875 0.371071 0
M  V30 857 H 77.8422 -3.63676 -1.90395 0
M  V30 858 H 76.5032 -2.4692 -1.94138 0
M  V30 859 H 75.6962 -4.80997 -1.50527 0
M  V30 860 H 75.2982 -3.73726 -0.143181 0
M  V30 861 H 77.5902 -6.60979 -1.48705 0
M  V30 862 H 78.5332 -7.0809 -0.0374799 0
M  V30 863 H 78.9412 -5.57173 -0.906557 0
M  V30 864 N 78.3393 -0.321999 -1.54275 0
M  V30 865 C 79.2493 0.553631 -2.27974 0
M  V30 866 C 80.2653 1.13054 -1.32268 0
M  V30 867 O 81.4413 1.15084 -1.6528 0
M  V30 868 C 78.5063 1.69927 -3.02201 0
M  V30 869 C 77.5673 1.15433 -4.1349 0
M  V30 870 C 76.8003 2.24537 -4.84168 0
M  V30 871 O 77.0233 3.44852 -4.5435 0
M  V30 872 O 75.9573 1.90044 -5.7111 0
M  V30 873 H 79.7833 -0.0448345 -3.03667 0
M  V30 874 H 77.3683 -0.0877418 -1.49142 0
M  V30 875 H 79.2503 2.3663 -3.48689 0
M  V30 876 H 77.9253 2.28395 -2.29385 0
M  V30 877 H 76.8323 0.452436 -3.71354 0
M  V30 878 H 78.1653 0.614805 -4.88345 0
M  V30 879 N 79.8174 1.5752 -0.0501392 0
M  V30 880 C 80.7274 2.14952 0.939827 0
M  V30 881 C 81.7434 1.10706 1.34239 0
M  V30 882 O 82.9194 1.42869 1.41952 0
M  V30 883 C 79.9844 2.68232 2.19665 0
M  V30 884 C 79.0454 3.87272 1.85253 0
M  V30 885 C 78.2784 4.38002 3.04943 0
M  V30 886 O 78.5014 3.87811 4.18281 0
M  V30 887 O 77.4354 5.29602 2.86017 0
M  V30 888 H 81.2614 2.9986 0.481392 0
M  V30 889 H 78.8464 1.4841 0.171699 0
M  V30 890 H 80.7284 3.02475 2.93406 0
M  V30 891 H 79.4034 1.86395 2.64648 0
M  V30 892 H 78.3104 3.5792 1.0883 0
M  V30 893 H 79.6434 4.70336 1.4507 0
M  V30 894 N 81.2955 -0.223234 1.56011 0
M  V30 895 C 82.2055 -1.29766 1.95443 0
M  V30 896 C 83.2215 -1.51373 0.858028 0
M  V30 897 O 84.3975 -1.64536 1.16146 0
M  V30 898 C 81.4625 -2.62772 2.26167 0
M  V30 899 C 80.5235 -2.49482 3.49367 0
M  V30 900 C 79.7565 -3.76145 3.78616 0
M  V30 901 O 79.9795 -4.79087 3.09568 0
M  V30 902 O 78.9135 -3.73358 4.72109 0
M  V30 903 H 82.7395 -0.99309 2.87004 0
M  V30 904 H 80.3245 -0.425958 1.43199 0
M  V30 905 H 82.2065 -3.41327 2.47131 0
M  V30 906 H 80.8815 -2.92913 1.37781 0
M  V30 907 H 79.7885 -1.69133 3.33684 0
M  V30 908 H 81.1215 -2.2428 4.38131 0
M  V30 909 N 82.7736 -1.49793 -0.48987 0
M  V30 910 C 84.0216 -1.59525 -1.24081 0
M  V30 911 C 84.3426 -0.288953 -1.92847 0
M  V30 912 O 83.6126 0.692436 -1.83254 0
M  V30 913 H 82.1926 -0.587796 -0.460983 0
M  V30 914 H 84.8546 -1.86477 -0.566778 0
M  V30 915 H 83.9506 -2.39696 -1.99881 0
M  V30 916 N 84.2517 0.741722 -1.39055 0
M  V30 917 C 85.1817 1.869 -1.39966 0
M  V30 918 C 86.1627 1.6804 -0.26392 0
M  V30 919 O 87.3477 1.88458 -0.468755 0
M  V30 920 C 84.4777 3.24572 -1.23574 0
M  V30 921 C 83.4317 3.58056 -2.34477 0
M  V30 922 C 82.7577 4.94593 -2.0318 0
M  V30 923 C 84.0577 3.61716 -3.76774 0
M  V30 924 H 85.7517 1.86395 -2.34302 0
M  V30 925 H 83.2977 0.895361 -1.1278 0
M  V30 926 H 85.2507 4.031 -1.22834 0
M  V30 927 H 83.9747 3.25587 -0.257045 0
M  V30 928 H 82.6337 2.81854 -2.34423 0
M  V30 929 H 82.2817 4.92181 -1.03765 0
M  V30 930 H 81.9817 5.17964 -2.77465 0
M  V30 931 H 83.5057 5.75486 -2.04079 0
M  V30 932 H 84.9197 4.30335 -3.78794 0
M  V30 933 H 83.3167 3.96603 -4.50362 0
M  V30 934 H 84.3867 2.61672 -4.08235 0
M  V30 935 N 85.7298 1.2412 0.971189 0
M  V30 936 C 86.6928 1.03156 2.04674 0
M  V30 937 C 87.6928 -0.00990322 1.60797 0
M  V30 938 O 88.8828 0.230729 1.72665 0
M  V30 939 C 86.0148 0.562765 3.36223 0
M  V30 940 H 87.2078 1.98614 2.24705 0
M  V30 941 H 84.7608 1.06293 1.14593 0
M  V30 942 H 85.4958 -0.395176 3.21883 0
M  V30 943 H 85.2808 1.31441 3.69413 0
M  V30 944 H 86.7708 0.437015 4.15307 0
M  V30 945 N 87.2079 -1.17134 1.05439 0
M  V30 946 C 88.4849 -1.83411 0.679699 0
M  V30 947 C 88.8649 -1.9368 -0.839726 0
M  V30 948 O 88.2129 -1.47325 -1.74664 0
M  V30 949 C 88.4229 -3.20918 1.37159 0
M  V30 950 C 89.7709 -3.96796 1.51123 0
M  V30 951 O 90.7949 -3.30406 1.3308 0
M  V30 952 O 89.6539 -5.15778 1.80651 0
M  V30 953 H 86.7479 -0.79154 0.239569 0
M  V30 954 H 89.2939 -1.24411 1.15413 0
M  V30 955 H 88.0659 -3.08428 2.40807 0
M  V30 956 H 87.6889 -3.87587 0.886674 0
M  V30 957 N 88.686 -0.835752 -1.33615 0
M  V30 958 C 89.596 -0.269088 -2.33052 0
M  V30 959 C 90.612 0.603251 -1.63208 0
M  V30 960 O 91.788 0.508112 -1.94885 0
M  V30 961 C 88.853 0.549091 -3.42324 0
M  V30 962 C 87.914 -0.347156 -4.27894 0
M  V30 963 C 87.147 0.43207 -5.31948 0
M  V30 964 O 87.37 1.66409 -5.45586 0
M  V30 965 O 86.304 -0.192298 -6.01593 0
M  V30 966 H 90.13 -1.09243 -2.83372 0
M  V30 967 H 87.715 -0.598198 -1.36901 0
M  V30 968 H 89.597 1.01414 -4.09015 0
M  V30 969 H 88.272 1.34955 -2.94226 0
M  V30 970 H 87.179 -0.859979 -3.64081 0
M  V30 971 H 88.512 -1.1123 -4.79467 0
M  V30 972 N 90.1641 1.46063 -0.591896 0
M  V30 973 C 91.0741 2.34192 0.13831 0
M  V30 974 C 92.0901 1.50305 0.876608 0
M  V30 975 O 93.2661 1.8315 0.837728 0
M  V30 976 C 90.3311 3.27656 1.13326 0
M  V30 977 C 89.3921 4.27445 0.39863 0
M  V30 978 C 88.6251 5.16443 1.34618 0
M  V30 979 O 88.8481 5.08553 2.58321 0
M  V30 980 O 87.7821 5.95843 0.851768 0
M  V30 981 H 91.6081 2.98002 -0.58552 0
M  V30 982 H 89.1931 1.45188 -0.352239 0
M  V30 983 H 91.0751 3.85291 1.70671 0
M  V30 984 H 89.7501 2.6643 1.83839 0
M  V30 985 H 88.6571 3.73471 -0.216895 0
M  V30 986 H 89.9901 4.91482 -0.265709 0
M  V30 987 N 91.6422 0.330177 1.54103 0
M  V30 988 C 92.5892 -0.532762 2.24567 0
M  V30 989 C 93.5592 -1.10635 1.23892 0
M  V30 990 O 94.7442 -1.14546 1.5259 0
M  V30 991 C 91.8842 -1.6845 3.01195 0
M  V30 992 C 90.9972 -1.13951 4.167 0
M  V30 993 C 90.1322 -2.25746 4.80845 0
M  V30 994 C 89.1712 -1.6853 5.88442 0
M  V30 995 N 88.3082 -2.74014 6.46421 0
M  V30 996 H 93.1482 0.0746905 2.97906 0
M  V30 997 H 90.6852 0.048632 1.4702 0
M  V30 998 H 92.6432 -2.36234 3.43874 0
M  V30 999 H 91.2732 -2.26314 2.30178 0
M  V30 1000 H 90.3252 -0.35301 3.78758 0
M  V30 1001 H 91.6372 -0.680892 4.94131 0
M  V30 1002 H 90.7912 -3.01422 5.26526 0
M  V30 1003 H 89.5302 -2.74947 4.0281 0
M  V30 1004 H 88.5352 -0.913543 5.42157 0
M  V30 1005 H 89.7602 -1.20198 6.68378 0
M  V30 1006 H 87.7062 -3.22494 5.71256 0
M  V30 1007 H 87.6232 -2.32735 7.19285 0
M  V30 1008 H 88.8912 -3.49499 6.96757 0
M  V30 1009 N 93.1203 -1.57491 0.0584922 0
M  V30 1010 C 94.0673 -2.11958 -0.913376 0
M  V30 1011 C 95.0373 -1.02875 -1.30407 0
M  V30 1012 O 96.2223 -1.30464 -1.39226 0
M  V30 1013 C 93.3623 -2.67497 -2.18035 0
M  V30 1014 C 92.4753 -3.90691 -1.84349 0
M  V30 1015 C 91.6103 -4.3452 -3.05559 0
M  V30 1016 C 90.6493 -5.50395 -2.67827 0
M  V30 1017 N 89.7863 -5.89244 -3.81754 0
M  V30 1018 H 94.6263 -2.94704 -0.442017 0
M  V30 1019 H 92.1633 -1.45643 -0.206545 0
M  V30 1020 H 94.1213 -2.978 -2.92183 0
M  V30 1021 H 92.7513 -1.87537 -2.62735 0
M  V30 1022 H 91.8033 -3.66934 -1.00319 0
M  V30 1023 H 93.1153 -4.7489 -1.5258 0
M  V30 1024 H 92.2693 -4.66414 -3.87998 0
M  V30 1025 H 91.0083 -3.49147 -3.40511 0
M  V30 1026 H 90.0133 -5.18165 -1.83806 0
M  V30 1027 H 91.2383 -6.3749 -2.34059 0
M  V30 1028 H 89.1843 -5.06823 -4.16493 0
M  V30 1029 H 89.1013 -6.68151 -3.53708 0
M  V30 1030 H 90.3693 -6.25756 -4.64811 0
M  V30 1031 N 94.5984 0.214957 -1.56127 0
M  V30 1032 C 95.5284 1.2695 -1.95974 0
M  V30 1033 C 96.5094 1.48539 -0.828868 0
M  V30 1034 O 97.6944 1.60611 -1.09168 0
M  V30 1035 C 94.8244 2.61794 -2.28214 0
M  V30 1036 C 93.7784 2.54851 -3.43853 0
M  V30 1037 C 93.1044 3.93785 -3.61715 0
M  V30 1038 C 94.4044 2.09065 -4.78632 0
M  V30 1039 H 96.0984 0.93846 -2.84312 0
M  V30 1040 H 93.6444 0.449996 -1.36788 0
M  V30 1041 H 95.5974 3.35731 -2.54682 0
M  V30 1042 H 94.3214 2.96599 -1.36736 0
M  V30 1043 H 92.9804 1.8337 -3.17444 0
M  V30 1044 H 92.6284 4.25908 -2.67602 0
M  V30 1045 H 92.3284 3.90019 -4.39498 0
M  V30 1046 H 93.8524 4.69374 -3.90539 0
M  V30 1047 H 95.2664 2.7275 -5.04262 0
M  V30 1048 H 93.6634 2.16346 -5.59745 0
M  V30 1049 H 94.7334 1.04315 -4.73547 0
M  V30 1050 N 96.0765 1.50051 0.48192 0
M  V30 1051 C 97.4925 1.37237 0.814756 0
M  V30 1052 C 97.6925 0.420109 1.97072 0
M  V30 1053 O 96.7485 -0.141246 2.52105 0
M  V30 1054 C 98.0615 2.78375 1.13701 0
M  V30 1055 C 99.6095 2.87213 1.2441 0
M  V30 1056 C 100.084 4.29161 1.59954 0
M  V30 1057 N 101.575 4.32061 1.66967 0
M  V30 1058 C 102.31 5.38879 1.95952 0
M  V30 1059 N 101.806 6.55918 2.23031 0
M  V30 1060 N 103.599 5.26312 1.97363 0
M  V30 1061 H 95.7505 2.10546 -0.28005 0
M  V30 1062 H 98.0135 0.945921 -0.0627454 0
M  V30 1063 H 97.7195 3.49845 0.360787 0
M  V30 1064 H 97.5935 3.14941 2.07586 0
M  V30 1065 H 99.9805 2.15969 2.01101 0
M  V30 1066 H 100.061 2.54204 0.285299 0
M  V30 1067 H 99.7055 5.00938 0.838067 0
M  V30 1068 H 99.6355 4.59648 2.56966 0
M  V30 1069 H 102.126 3.47661 1.48123 0
M  V30 1070 H 102.439 7.33139 2.44391 0
M  V30 1071 H 100.784 6.59112 2.20447 0
M  V30 1072 H 103.975 4.33876 1.75697 0
M  V30 1073 H 104.148 6.09649 2.19618 0
M  V30 1074 N 97.5546 -0.734337 1.39446 0
M  V30 1075 C 98.9706 -1.03997 1.21065 0
M  V30 1076 C 99.1706 -2.01369 0.0727019 0
M  V30 1077 O 98.2266 -2.45856 -0.575426 0
M  V30 1078 C 99.5396 -1.60163 2.54496 0
M  V30 1079 C 101.088 -1.7224 2.61347 0
M  V30 1080 C 101.563 -2.31814 3.95002 0
M  V30 1081 N 103.054 -2.39223 3.96644 0
M  V30 1082 C 103.789 -2.86258 4.96834 0
M  V30 1083 N 103.285 -3.33184 6.07421 0
M  V30 1084 N 105.078 -2.85473 4.84213 0
M  V30 1085 H 97.2286 -0.0885624 2.12215 0
M  V30 1086 H 99.4916 -0.10191 0.942506 0
M  V30 1087 H 99.1976 -0.960811 3.38321 0
M  V30 1088 H 99.0716 -2.5896 2.74262 0
M  V30 1089 H 101.459 -2.35443 1.77906 0
M  V30 1090 H 101.54 -0.720939 2.4543 0
M  V30 1091 H 101.184 -1.69238 4.78875 0
M  V30 1092 H 101.114 -3.32638 4.08239 0
M  V30 1093 H 103.605 -2.06057 3.16779 0
M  V30 1094 H 103.918 -3.67586 6.7978 0
M  V30 1095 H 102.263 -3.31191 6.11013 0
M  V30 1096 H 105.454 -2.48136 3.96921 0
M  V30 1097 H 105.627 -3.21814 5.62441 0
M  V30 1098 N 99.0327 -1.24633 -0.964593 0
M  V30 1099 C 100.258 -1.11596 -1.74818 0
M  V30 1100 C 100.683 0.32723 -1.85232 0
M  V30 1101 O 100.041 1.23695 -1.32549 0
M  V30 1102 C 100.089 -1.76397 -3.1451 0
M  V30 1103 O 99.1927 -1.03685 -3.99153 0
M  V30 1104 H 98.5337 -0.390196 -0.537255 0
M  V30 1105 H 101.064 -1.65002 -1.20977 0
M  V30 1106 H 101.074 -1.8228 -3.65018 0
M  V30 1107 H 99.7487 -2.81401 -3.06246 0
M  V30 1108 H 98.3257 -1.05611 -3.57632 0
M  V30 1109 N 100.511 1.16574 -1.06058 0
M  V30 1110 C 101.443 2.2045 -0.627239 0
M  V30 1111 C 102.456 1.59752 0.313534 0
M  V30 1112 O 103.645 1.78192 0.104896 0
M  V30 1113 C 100.745 3.3875 0.100974 0
M  V30 1114 C 99.9178 4.29008 -0.852687 0
M  V30 1115 C 98.9768 5.25944 -0.164152 0
M  V30 1116 O 98.0028 5.63535 -0.801047 0
M  V30 1117 N 99.2048 5.70075 1.09518 0
M  V30 1118 H 101.97 2.58249 -1.52077 0
M  V30 1119 H 99.5308 1.3156 -0.943594 0
M  V30 1120 H 101.523 4.00638 0.57194 0
M  V30 1121 H 100.093 2.99476 0.89628 0
M  V30 1122 H 99.3128 3.64419 -1.50308 0
M  V30 1123 H 100.601 4.86195 -1.49972 0
M  V30 1124 H 99.9988 5.41624 1.6328 0
M  V30 1125 H 98.5558 6.34067 1.51006 0
M  V30 1126 N 101.989 0.842826 1.3317 0
M  V30 1127 C 102.939 0.250877 2.26616 0
M  V30 1128 C 103.923 -0.596427 1.49437 0
M  V30 1129 O 105.115 -0.447747 1.71243 0
M  V30 1130 C 102.244 -0.569779 3.38539 0
M  V30 1131 C 101.33 0.289254 4.23112 0
M  V30 1132 N 101.721 1.36987 4.86897 0
M  V30 1133 C 100.019 0.0769631 4.45934 0
M  V30 1134 C 100.72 1.89737 5.49886 0
M  V30 1135 N 99.6959 1.19827 5.30229 0
M  V30 1136 H 103.498 1.07718 2.73448 0
M  V30 1137 H 101.012 0.687693 1.47121 0
M  V30 1138 H 103.009 -1.01018 4.04476 0
M  V30 1139 H 101.669 -1.39401 2.93253 0
M  V30 1140 H 102.68 1.75277 4.87338 0
M  V30 1141 H 99.3569 -0.713507 4.11358 0
M  V30 1142 H 100.747 2.80253 6.10662 0
M  V30 1143 N 103.467 -1.45747 0.599634 0
M  V30 1144 C 104.43 -2.28917 -0.113835 0
M  V30 1145 C 105.43 -1.3933 -0.802729 0
M  V30 1146 O 106.62 -1.61534 -0.652103 0
M  V30 1147 C 103.752 -3.20152 -1.17114 0
M  V30 1148 H 104.945 -2.93478 0.617289 0
M  V30 1149 H 102.498 -1.52137 0.358327 0
M  V30 1150 H 103.233 -2.60374 -1.93329 0
M  V30 1151 H 103.018 -3.86133 -0.681468 0
M  V30 1152 H 104.508 -3.82708 -1.67105 0
M  V30 1153 N 104.945 -0.338344 -1.53925 0
M  V30 1154 C 106.361 0.0137736 -1.59594 0
M  V30 1155 C 106.561 1.49186 -1.35447 0
M  V30 1156 O 105.617 2.24987 -1.14616 0
M  V30 1157 C 106.93 -0.41773 -2.97784 0
M  V30 1158 C 108.478 -0.369633 -3.1081 0
M  V30 1159 C 108.953 -0.776524 -4.51369 0
M  V30 1160 N 110.444 -0.730506 -4.57403 0
M  V30 1161 C 111.179 -1.01736 -5.64303 0
M  V30 1162 N 110.675 -1.3721 -6.79077 0
M  V30 1163 N 112.468 -0.941942 -5.54151 0
M  V30 1164 H 104.619 -1.3012 -1.67876 0
M  V30 1165 H 106.882 -0.530082 -0.78595 0
M  V30 1166 H 106.588 -1.44811 -3.20504 0
M  V30 1167 H 106.462 0.209729 -3.76616 0
M  V30 1168 H 108.849 0.651568 -2.87817 0
M  V30 1169 H 108.93 -1.03223 -2.34049 0
M  V30 1170 H 108.574 -1.79571 -4.75096 0
M  V30 1171 H 108.504 -0.0914649 -5.26521 0
M  V30 1172 H 110.995 -0.468783 -3.74981 0
M  V30 1173 H 111.308 -1.57597 -7.5656 0
M  V30 1174 H 109.653 -1.4105 -6.80536 0
M  V30 1175 H 112.844 -0.664184 -4.63364 0
M  V30 1176 H 113.017 -1.16884 -6.37371 0
M  V30 1177 N 106.423 1.57458 -0.0668435 0
M  V30 1178 C 107.37 2.12439 0.902122 0
M  V30 1179 C 108.34 1.03565 1.2986 0
M  V30 1180 O 109.525 1.312 1.38532 0
M  V30 1181 C 106.665 2.6865 2.16614 0
M  V30 1182 C 105.778 3.91663 1.82274 0
M  V30 1183 C 104.913 4.36134 3.0325 0
M  V30 1184 C 103.952 5.51808 2.64904 0
M  V30 1185 N 103.089 5.9126 3.78624 0
M  V30 1186 H 107.929 2.94934 0.426382 0
M  V30 1187 H 105.466 1.4575 0.198819 0
M  V30 1188 H 107.424 2.99346 2.90599 0
M  V30 1189 H 106.054 1.88928 2.61737 0
M  V30 1190 H 105.106 3.6746 0.983719 0
M  V30 1191 H 106.418 4.75693 1.50059 0
M  V30 1192 H 105.572 4.68465 3.85519 0
M  V30 1193 H 104.311 3.50948 3.38655 0
M  V30 1194 H 103.316 5.19133 1.81055 0
M  V30 1195 H 104.541 6.38722 2.30675 0
M  V30 1196 H 102.487 5.09024 4.138 0
M  V30 1197 H 102.404 6.70018 3.5016 0
M  V30 1198 H 103.672 6.28212 4.61486 0
M  V30 1199 N 107.901 -0.206675 1.56239 0
M  V30 1200 C 108.811 -1.27686 1.96808 0
M  V30 1201 C 109.827 -1.50455 0.874035 0
M  V30 1202 O 111.003 -1.63295 1.17884 0
M  V30 1203 C 108.068 -2.60358 2.28942 0
M  V30 1204 C 107.129 -2.45762 3.51994 0
M  V30 1205 C 106.362 -3.72108 3.82585 0
M  V30 1206 O 106.585 -4.75776 3.14631 0
M  V30 1207 O 105.519 -3.6833 4.76043 0
M  V30 1208 H 109.345 -0.962593 2.88041 0
M  V30 1209 H 106.93 -0.410746 1.43643 0
M  V30 1210 H 108.812 -3.38687 2.50737 0
M  V30 1211 H 107.487 -2.91435 1.4088 0
M  V30 1212 H 106.394 -1.65584 3.35459 0
M  V30 1213 H 107.727 -2.19621 4.40486 0
M  V30 1214 N 109.379 -1.50304 -0.473955 0
M  V30 1215 C 110.607 -1.64902 -1.24959 0
M  V30 1216 C 111.022 -0.331198 -1.85872 0
M  V30 1217 O 110.379 0.68652 -1.69095 0
M  V30 1218 C 110.43 -2.73803 -2.36038 0
M  V30 1219 O 110.151 -4.00477 -1.77624 0
M  V30 1220 C 111.652 -2.99349 -3.26964 0
M  V30 1221 H 108.872 -0.554383 -0.378022 0
M  V30 1222 H 111.416 -1.9651 -0.566054 0
M  V30 1223 H 109.571 -2.44898 -3.00173 0
M  V30 1224 H 109.985 -4.60678 -2.5075 0
M  V30 1225 H 111.459 -3.79217 -4.01121 0
M  V30 1226 H 111.936 -2.10307 -3.85574 0
M  V30 1227 H 112.542 -3.29774 -2.68569 0
M  V30 1228 N 110.857 0.726932 -1.39834 0
M  V30 1229 C 111.767 1.87131 -1.41489 0
M  V30 1230 C 112.783 1.71239 -0.308757 0
M  V30 1231 O 113.959 1.93701 -0.551529 0
M  V30 1232 C 111.024 3.22811 -1.26468 0
M  V30 1233 C 110.085 3.51039 -2.47124 0
M  V30 1234 C 109.318 4.80245 -2.3281 0
M  V30 1235 O 109.541 5.54537 -1.33585 0
M  V30 1236 O 108.475 5.08554 -3.21957 0
M  V30 1237 H 112.301 1.8869 -2.3797 0
M  V30 1238 H 109.886 0.875837 -1.21035 0
M  V30 1239 H 111.768 4.03877 -1.20255 0
M  V30 1240 H 110.443 3.22005 -0.330862 0
M  V30 1241 H 109.35 2.70027 -2.58914 0
M  V30 1242 H 110.683 3.56632 -3.39227 0
M  V30 1243 N 112.336 1.25143 0.95797 0
M  V30 1244 C 113.583 1.09692 1.70217 0
M  V30 1245 C 113.911 -0.362654 1.91089 0
M  V30 1246 O 113.166 -1.28386 1.47701 0
M  V30 1247 C 113.465 1.79272 3.09187 0
M  V30 1248 C 113.131 3.29196 3.08125 0
M  V30 1249 C 111.793 3.70096 3.07543 0
M  V30 1250 C 114.145 4.24995 3.0171 0
M  V30 1251 C 111.473 5.05213 2.9829 0
M  V30 1252 C 113.825 5.60132 2.93999 0
M  V30 1253 C 112.489 6.00365 2.9175 0
M  V30 1254 H 111.759 0.401393 0.622868 0
M  V30 1255 H 114.406 1.55372 1.11945 0
M  V30 1256 H 112.711 1.26014 3.70982 0
M  V30 1257 H 114.408 1.64773 3.65583 0
M  V30 1258 H 110.998 2.96651 3.09348 0
M  V30 1259 H 115.182 3.9439 3.01281 0
M  V30 1260 H 110.438 5.35569 2.94916 0
M  V30 1261 H 114.612 6.3406 2.87996 0
M  V30 1262 H 112.239 7.05023 2.84336 0
M  V30 1263 N 113.814 -1.1601 1.06675 0
M  V30 1264 C 114.744 -2.22688 0.702307 0
M  V30 1265 C 115.725 -1.67306 -0.307032 0
M  V30 1266 O 116.91 -1.93352 -0.181305 0
M  V30 1267 C 114.04 -3.47178 0.092038 0
M  V30 1268 C 112.994 -4.15477 1.02777 0
M  V30 1269 C 112.32 -5.33963 0.28061 0
M  V30 1270 C 113.62 -4.66019 2.35846 0
M  V30 1271 H 115.314 -2.53429 1.59419 0
M  V30 1272 H 112.86 -1.21813 0.767961 0
M  V30 1273 H 114.813 -4.21037 -0.174814 0
M  V30 1274 H 113.537 -3.15749 -0.834877 0
M  V30 1275 H 112.196 -3.43549 1.27944 0
M  V30 1276 H 111.844 -4.98788 -0.649545 0
M  V30 1277 H 111.544 -5.806 0.904258 0
M  V30 1278 H 113.068 -6.10596 0.021396 0
M  V30 1279 H 114.482 -5.3144 2.15045 0
M  V30 1280 H 112.879 -5.23293 2.93743 0
M  V30 1281 H 113.949 -3.82023 2.98641 0
M  V30 1282 N 115.292 -0.849877 -1.32721 0
M  V30 1283 C 116.708 -0.539102 -1.50219 0
M  V30 1284 C 116.908 0.931271 -1.78689 0
M  V30 1285 O 115.964 1.71455 -1.85363 0
M  V30 1286 C 117.277 -1.42196 -2.64954 0
M  V30 1287 C 118.825 -1.42189 -2.78839 0
M  V30 1288 C 119.3 -2.28985 -3.96648 0
M  V30 1289 N 120.791 -2.26754 -4.03902 0
M  V30 1290 C 121.526 -2.90644 -4.94281 0
M  V30 1291 N 121.022 -3.63629 -5.897 0
M  V30 1292 N 122.815 -2.80057 -4.87365 0
M  V30 1293 H 114.966 -1.80156 -1.12506 0
M  V30 1294 H 117.229 -0.769217 -0.554085 0
M  V30 1295 H 116.935 -2.46733 -2.50631 0
M  V30 1296 H 116.809 -1.10591 -3.60624 0
M  V30 1297 H 119.196 -0.38419 -2.92588 0
M  V30 1298 H 119.277 -1.77807 -1.83898 0
M  V30 1299 H 118.921 -3.32819 -3.83658 0
M  V30 1300 H 118.851 -1.90702 -4.90857 0
M  V30 1301 H 121.342 -1.73688 -3.3562 0
M  V30 1302 H 121.655 -4.09558 -6.55349 0
M  V30 1303 H 120 -3.67737 -5.89741 0
M  V30 1304 H 123.191 -2.22593 -4.11789 0
M  V30 1305 H 123.364 -3.30132 -5.57599 0
M  V30 1306 N 116.77 1.45427 -0.607355 0
M  V30 1307 C 117.7 2.3329 0.0989352 0
M  V30 1308 C 118.681 1.46816 0.859007 0
M  V30 1309 O 119.866 1.75588 0.829604 0
M  V30 1310 C 116.996 3.29518 1.09705 0
M  V30 1311 C 115.95 4.25626 0.450206 0
M  V30 1312 C 115.276 5.11542 1.55655 0
M  V30 1313 C 116.576 5.18505 -0.628455 0
M  V30 1314 H 118.27 2.92595 -0.634716 0
M  V30 1315 H 115.816 1.40696 -0.306681 0
M  V30 1316 H 117.769 3.89855 1.59971 0
M  V30 1317 H 116.493 2.68372 1.86129 0
M  V30 1318 H 115.152 3.66586 -0.0315886 0
M  V30 1319 H 114.8 4.46765 2.31107 0
M  V30 1320 H 114.5 5.76647 1.12925 0
M  V30 1321 H 116.024 5.74748 2.06148 0
M  V30 1322 H 117.438 5.72916 -0.209877 0
M  V30 1323 H 115.835 5.92085 -0.977489 0
M  V30 1324 H 116.905 4.60948 -1.50514 0
M  V30 1325 N 118.248 0.346503 1.53744 0
M  V30 1326 C 119.195 -0.508914 2.25119 0
M  V30 1327 C 120.165 -1.09315 1.25058 0
M  V30 1328 O 121.35 -1.12921 1.53797 0
M  V30 1329 C 118.49 -1.65246 3.02965 0
M  V30 1330 C 117.603 -1.09525 4.17886 0
M  V30 1331 C 116.738 -2.20634 4.83212 0
M  V30 1332 C 115.777 -1.62279 5.90196 0
M  V30 1333 N 114.914 -2.67143 6.49291 0
M  V30 1334 H 119.754 0.106283 2.9781 0
M  V30 1335 H 117.291 0.0642227 1.4696 0
M  V30 1336 H 119.249 -2.32574 3.4636 0
M  V30 1337 H 117.879 -2.2386 2.32565 0
M  V30 1338 H 116.931 -0.312818 3.79112 0
M  V30 1339 H 118.243 -0.628444 4.94825 0
M  V30 1340 H 117.397 -2.95821 5.29693 0
M  V30 1341 H 116.136 -2.70659 4.05703 0
M  V30 1342 H 115.141 -0.855989 5.43096 0
M  V30 1343 H 116.366 -1.13102 6.69615 0
M  V30 1344 H 114.312 -3.16417 5.74645 0
M  V30 1345 H 114.229 -2.25093 7.21713 0
M  V30 1346 H 115.497 -3.4209 7.00425 0
M  V30 1347 N 119.726 -1.57421 0.075193 0
M  V30 1348 C 121.142 -1.57099 -0.281444 0
M  V30 1349 C 121.342 -1.08486 -1.69803 0
M  V30 1350 O 120.398 -0.752279 -2.41033 0
M  V30 1351 C 121.711 -3.00571 -0.0880041 0
M  V30 1352 C 123.259 -3.12605 -0.157281 0
M  V30 1353 C 123.734 -4.57999 0.0079207 0
M  V30 1354 N 125.225 -4.63176 -0.0475725 0
M  V30 1355 C 125.96 -5.73373 0.0557876 0
M  V30 1356 N 125.456 -6.92473 0.21286 0
M  V30 1357 N 127.249 -5.621 -0.00152098 0
M  V30 1358 H 119.4 -1.87335 1.00098 0
M  V30 1359 H 121.663 -0.86377 0.390646 0
M  V30 1360 H 121.369 -3.40262 0.889629 0
M  V30 1361 H 121.243 -3.67754 -0.838875 0
M  V30 1362 H 123.63 -2.72798 -1.1254 0
M  V30 1363 H 123.711 -2.48053 0.62475 0
M  V30 1364 H 123.355 -4.98496 0.972824 0
M  V30 1365 H 123.285 -5.20586 -0.793556 0
M  V30 1366 H 125.776 -3.7753 -0.167244 0
M  V30 1367 H 126.089 -7.72279 0.283781 0
M  V30 1368 H 124.434 -6.94556 0.248267 0
M  V30 1369 H 127.625 -4.67938 -0.122958 0
M  V30 1370 H 127.798 -6.47948 0.0824844 0
M  V30 1371 N 121.204 0.198386 -1.56346 0
M  V30 1372 C 122.432 0.935572 -1.84539 0
M  V30 1373 C 122.847 1.76989 -0.657281 0
M  V30 1374 O 122.204 1.78626 0.374043 0
M  V30 1375 C 122.255 1.8344 -3.11499 0
M  V30 1376 O 121.976 1.03377 -4.25728 0
M  V30 1377 C 123.477 2.68355 -3.52846 0
M  V30 1378 H 120.697 0.273126 -0.612897 0
M  V30 1379 H 123.241 0.20663 -2.03453 0
M  V30 1380 H 121.396 2.51701 -2.94492 0
M  V30 1381 H 121.81 1.64599 -4.98003 0
M  V30 1382 H 123.284 3.27085 -4.44657 0
M  V30 1383 H 123.761 3.41901 -2.75681 0
M  V30 1384 H 124.367 2.05471 -3.72373 0
M  V30 1385 N 122.682 1.50554 0.465978 0
M  V30 1386 C 124.098 1.38093 0.800154 0
M  V30 1387 C 124.298 0.440988 1.96615 0
M  V30 1388 O 123.354 -0.114499 2.5224 0
M  V30 1389 C 124.667 2.79565 1.10742 0
M  V30 1390 C 126.215 2.88516 1.21357 0
M  V30 1391 C 126.69 4.30833 1.55393 0
M  V30 1392 N 128.181 4.33807 1.62375 0
M  V30 1393 C 128.916 5.40927 1.90225 0
M  V30 1394 N 128.412 6.58247 2.16062 0
M  V30 1395 N 130.205 5.28376 1.9177 0
M  V30 1396 H 122.356 2.10237 -0.302366 0
M  V30 1397 H 124.619 0.945203 -0.0727746 0
M  V30 1398 H 124.325 3.50208 0.323661 0
M  V30 1399 H 124.199 3.17125 2.04234 0
M  V30 1400 H 126.586 2.1809 1.98799 0
M  V30 1401 H 126.667 2.54492 0.258321 0
M  V30 1402 H 126.311 5.01799 0.784889 0
M  V30 1403 H 126.241 4.62347 2.52076 0
M  V30 1404 H 128.732 3.49212 1.44427 0
M  V30 1405 H 129.045 7.3569 2.36601 0
M  V30 1406 H 127.39 6.61413 2.13444 0
M  V30 1407 H 130.581 4.35715 1.71085 0
M  V30 1408 H 130.754 6.11944 2.13139 0
M  V30 1409 N 124.16 -0.719506 1.40217 0
M  V30 1410 C 125.09 -1.8465 1.42922 0
M  V30 1411 C 126.071 -1.67599 0.29062 0
M  V30 1412 O 127.256 -1.87688 0.498677 0
M  V30 1413 C 124.386 -3.22565 1.28722 0
M  V30 1414 C 123.34 -3.54281 2.40144 0
M  V30 1415 C 122.666 -4.91298 2.11023 0
M  V30 1416 C 123.966 -3.55676 3.82481 0
M  V30 1417 H 125.66 -1.82644 2.37237 0
M  V30 1418 H 123.206 -0.877305 1.1419 0
M  V30 1419 H 125.159 -4.01095 1.29232 0
M  V30 1420 H 123.883 -3.25137 0.308811 0
M  V30 1421 H 122.542 -2.78088 2.38877 0
M  V30 1422 H 122.19 -4.90468 1.11582 0
M  V30 1423 H 121.89 -5.13485 2.8567 0
M  V30 1424 H 123.414 -5.72166 2.13209 0
M  V30 1425 H 124.828 -4.24254 3.85592 0
M  V30 1426 H 123.225 -3.89388 4.56614 0
M  V30 1427 H 124.295 -2.55144 4.12346 0
M  V30 1428 N 125.638 -1.25649 -0.95132 0
M  V30 1429 C 126.886 -1.10375 -1.69298 0
M  V30 1430 C 127.207 0.355339 -1.91735 0
M  V30 1431 O 126.477 1.25188 -1.50681 0
M  V30 1432 H 125.057 -0.405461 -0.627384 0
M  V30 1433 H 127.719 -1.57823 -1.14358 0
M  V30 1434 H 126.815 -1.61465 -2.67087 0
M  V30 1435 N 127.117 1.15442 -1.07289 0
M  V30 1436 C 128.047 2.22312 -0.714107 0
M  V30 1437 C 129.028 1.67467 0.298155 0
M  V30 1438 O 130.213 1.93445 0.171048 0
M  V30 1439 C 127.343 3.47124 -0.110448 0
M  V30 1440 C 126.297 4.14926 -1.04979 0
M  V30 1441 C 125.623 5.33807 -0.308924 0
M  V30 1442 C 126.923 4.64762 -2.38314 0
M  V30 1443 H 128.617 2.5258 -1.6076 0
M  V30 1444 H 126.163 1.21404 -0.77441 0
M  V30 1445 H 128.116 4.21124 0.152482 0
M  V30 1446 H 126.84 3.16187 0.81812 0
M  V30 1447 H 125.499 3.42866 -1.29764 0
M  V30 1448 H 125.147 4.99126 0.623084 0
M  V30 1449 H 124.847 5.80113 -0.935036 0
M  V30 1450 H 126.371 6.10576 -0.0537771 0
M  V30 1451 H 127.785 5.30292 -2.1786 0
M  V30 1452 H 126.182 5.21728 -2.96514 0
M  V30 1453 H 127.252 3.80434 -3.00663 0
M  V30 1454 N 128.595 0.856903 1.32268 0
M  V30 1455 C 129.872 0.382583 1.91822 0
M  V30 1456 C 130.252 -1.13407 1.78051 0
M  V30 1457 O 129.6 -1.95673 1.18001 0
M  V30 1458 C 129.81 0.849446 3.38505 0
M  V30 1459 C 131.158 0.867936 4.15634 0
M  V30 1460 O 132.182 0.794232 3.47232 0
M  V30 1461 O 131.041 0.972286 5.37781 0
M  V30 1462 H 128.135 0.112014 0.819379 0
M  V30 1463 H 130.681 0.943952 1.41024 0
M  V30 1464 H 129.453 1.89267 3.42482 0
M  V30 1465 H 129.076 0.265652 3.96712 0
M  V30 1466 N 130.073 -1.45103 0.615059 0
M  V30 1467 C 131.35 -1.95549 0.0448276 0
M  V30 1468 C 131.73 -1.55737 -1.4251 0
M  V30 1469 O 131.078 -0.823556 -2.13143 0
M  V30 1470 C 131.288 -3.48098 0.250785 0
M  V30 1471 C 132.636 -4.24384 0.135509 0
M  V30 1472 O 133.66 -3.55738 0.181299 0
M  V30 1473 O 132.519 -5.46493 0.0268878 0
M  V30 1474 H 129.613 -0.8264 -0.0314845 0
M  V30 1475 H 132.159 -1.55232 0.685642 0
M  V30 1476 H 130.931 -3.7007 1.27139 0
M  V30 1477 H 130.554 -3.95323 -0.424937 0
M  V30 1478 N 131.551 -0.354651 -1.53558 0
M  V30 1479 C 132.798 0.238443 -2.01091 0
M  V30 1480 C 133.126 1.49663 -1.24222 0
M  V30 1481 O 132.381 1.93049 -0.321003 0
M  V30 1482 C 132.68 0.587121 -3.52545 0
M  V30 1483 C 132.346 -0.575472 -4.47213 0
M  V30 1484 C 131.008 -0.894497 -4.72813 0
M  V30 1485 C 133.36 -1.35489 -5.03281 0
M  V30 1486 C 130.688 -1.99511 -5.51736 0
M  V30 1487 C 133.04 -2.44583 -5.83405 0
M  V30 1488 C 131.704 -2.77033 -6.07296 0
M  V30 1489 H 130.974 0.0872526 -0.735845 0
M  V30 1490 H 133.621 -0.484859 -1.8526 0
M  V30 1491 H 131.926 1.39129 -3.66265 0
M  V30 1492 H 133.623 1.05809 -3.86789 0
M  V30 1493 H 130.213 -0.316774 -4.27428 0
M  V30 1494 H 134.397 -1.12167 -4.83459 0
M  V30 1495 H 129.653 -2.25063 -5.68469 0
M  V30 1496 H 133.827 -3.05401 -6.25862 0
M  V30 1497 H 131.454 -3.6244 -6.68237 0
M  V30 1498 N 133.029 1.57378 -0.0835403 0
M  V30 1499 C 133.939 2.16897 0.894021 0
M  V30 1500 C 134.955 1.13528 1.31861 0
M  V30 1501 O 136.131 1.45848 1.3889 0
M  V30 1502 C 133.196 2.72831 2.13925 0
M  V30 1503 C 132.257 3.91115 1.76997 0
M  V30 1504 C 131.49 4.44371 2.95584 0
M  V30 1505 O 131.713 3.96596 4.09961 0
M  V30 1506 O 130.647 5.35549 2.74719 0
M  V30 1507 H 134.473 3.00814 0.417679 0
M  V30 1508 H 132.058 1.48741 0.140181 0
M  V30 1509 H 133.94 3.0863 2.86924 0
M  V30 1510 H 132.615 1.91967 2.60635 0
M  V30 1511 H 131.522 3.60148 1.01214 0
M  V30 1512 H 132.855 4.73307 1.3506 0
M  V30 1513 N 134.507 -0.190092 1.56449 0
M  V30 1514 C 135.732 -0.929864 1.85387 0
M  V30 1515 C 136.157 -1.7585 0.667704 0
M  V30 1516 O 135.515 -1.77198 -0.383459 0
M  V30 1517 C 135.563 -1.79773 3.12593 0
M  V30 1518 O 134.667 -2.89713 2.93496 0
M  V30 1519 H 134.008 -0.261574 0.610307 0
M  V30 1520 H 136.538 -0.193896 2.03679 0
M  V30 1521 H 136.548 -2.20139 3.43515 0
M  V30 1522 H 135.223 -1.18892 3.98544 0
M  V30 1523 H 133.8 -2.53065 2.73884 0
M  V30 1524 N 135.985 -1.50799 -0.457987 0
M  V30 1525 C 136.915 -1.73553 -1.5621 0
M  V30 1526 C 137.896 -0.584774 -1.59732 0
M  V30 1527 O 139.081 -0.825314 -1.7579 0
M  V30 1528 C 136.211 -1.84169 -2.94447 0
M  V30 1529 C 135.165 -2.99461 -3.0579 0
M  V30 1530 C 134.491 -2.95235 -4.45803 0
M  V30 1531 C 135.791 -4.39766 -2.81786 0
M  V30 1532 H 137.485 -2.66 -1.37421 0
M  V30 1533 H 135.031 -1.28002 -0.659662 0
M  V30 1534 H 136.984 -1.98672 -3.71628 0
M  V30 1535 H 135.708 -0.883545 -3.14422 0
M  V30 1536 H 134.367 -2.8463 -2.31044 0
M  V30 1537 H 134.015 -1.97239 -4.62715 0
M  V30 1538 H 133.715 -3.72642 -4.54326 0
M  V30 1539 H 135.239 -3.11803 -5.24987 0
M  V30 1540 H 136.653 -4.55054 -3.4871 0
M  V30 1541 H 135.05 -5.18722 -3.0174 0
M  V30 1542 H 136.12 -4.51229 -1.7754 0
M  V30 1543 N 137.463 0.71206 -1.40597 0
M  V30 1544 C 138.41 1.82613 -1.41142 0
M  V30 1545 C 139.38 1.63925 -0.267903 0
M  V30 1546 O 140.565 1.85009 -0.466495 0
M  V30 1547 C 137.705 3.20354 -1.28324 0
M  V30 1548 C 136.818 3.50589 -2.52411 0
M  V30 1549 C 135.953 4.77855 -2.32009 0
M  V30 1550 C 134.992 5.01005 -3.51654 0
M  V30 1551 N 134.129 6.19487 -3.30425 0
M  V30 1552 H 138.969 1.81482 -2.36365 0
M  V30 1553 H 136.506 0.886475 -1.17388 0
M  V30 1554 H 138.464 3.99899 -1.18899 0
M  V30 1555 H 137.094 3.20705 -0.367189 0
M  V30 1556 H 136.146 2.65573 -2.72351 0
M  V30 1557 H 137.458 3.63604 -3.41458 0
M  V30 1558 H 136.612 5.65424 -2.19956 0
M  V30 1559 H 135.351 4.67056 -1.40392 0
M  V30 1560 H 134.356 4.1189 -3.64179 0
M  V30 1561 H 135.581 5.13674 -4.44202 0
M  V30 1562 H 133.527 6.09932 -2.41494 0
M  V30 1563 H 133.444 6.33194 -4.13039 0
M  V30 1564 H 134.712 7.09834 -3.22113 0
M  V30 1565 N 138.941 1.26152 0.944643 0
M  V30 1566 C 140.187 1.11657 1.69294 0
M  V30 1567 C 140.52 -0.339926 1.91202 0
M  V30 1568 O 139.795 -1.24994 1.49019 0
M  V30 1569 C 140.078 1.88236 3.06984 0
M  V30 1570 C 139.931 3.41772 2.92424 0
M  V30 1571 C 141.25 1.67343 4.07043 0
M  V30 1572 H 138.369 0.407004 0.614424 0
M  V30 1573 H 141.011 1.55106 1.09737 0
M  V30 1574 H 139.161 1.51308 3.57824 0
M  V30 1575 H 140.833 3.88433 2.48832 0
M  V30 1576 H 139.076 3.68974 2.28124 0
M  V30 1577 H 139.747 3.90579 3.90067 0
M  V30 1578 H 142.223 1.99509 3.65151 0
M  V30 1579 H 141.099 2.23346 5.01406 0
M  V30 1580 H 141.36 0.617158 4.37771 0
M  V30 1581 N 140.419 -1.14872 1.07899 0
M  V30 1582 C 141.668 -1.85135 0.800499 0
M  V30 1583 C 141.981 -1.83547 -0.676014 0
M  V30 1584 O 143.187 -2.49548 -1.06948 0
M  V30 1585 C 141.643 -3.3231 1.38197 0
M  V30 1586 C 141.251 -3.42329 2.8899 0
M  V30 1587 C 142.995 -4.0772 1.18174 0
M  V30 1588 C 140.902 -4.83684 3.403 0
M  V30 1589 H 139.832 -0.693563 0.29578 0
M  V30 1590 H 142.483 -1.29532 1.29976 0
M  V30 1591 H 140.865 -3.87618 0.810431 0
M  V30 1592 H 142.039 -2.97097 3.52236 0
M  V30 1593 H 140.354 -2.80369 3.07867 0
M  V30 1594 H 142.951 -5.12049 1.5398 0
M  V30 1595 H 143.294 -4.16124 0.12117 0
M  V30 1596 H 143.827 -3.58696 1.71994 0
M  V30 1597 H 140.566 -4.80465 4.45907 0
M  V30 1598 H 140.086 -5.29474 2.81811 0
M  V30 1599 H 141.765 -5.52558 3.36584 0
M  V30 1600 N 141.898 -0.863906 -1.31812 0
M  V30 1601 C 143.146 -0.470904 -1.96537 0
M  V30 1602 C 143.467 0.978771 -1.68657 0
M  V30 1603 O 142.737 1.6853 -0.998717 0
M  V30 1604 H 141.317 -0.171148 -0.72713 0
M  V30 1605 H 143.979 -1.10236 -1.60729 0
M  V30 1606 H 143.075 -0.623616 -3.05806 0
M  V30 1607 N 143.376 1.44774 -0.622745 0
M  V30 1608 C 144.792 1.56986 -0.287652 0
M  V30 1609 C 144.992 1.61167 1.20944 0
M  V30 1610 O 144.048 1.55015 1.99315 0
M  V30 1611 C 145.361 2.84551 -0.972188 0
M  V30 1612 C 146.909 2.9825 -0.949536 0
M  V30 1613 C 147.384 4.28605 -1.61437 0
M  V30 1614 N 148.875 4.35399 -1.58057 0
M  V30 1615 C 149.61 5.34964 -2.064 0
M  V30 1616 N 149.106 6.40981 -2.62897 0
M  V30 1617 N 150.899 5.26419 -1.97078 0
M  V30 1618 H 143.05 1.40304 -1.59463 0
M  V30 1619 H 145.313 0.671794 -0.668878 0
M  V30 1620 H 145.019 2.87417 -2.02693 0
M  V30 1621 H 144.893 3.73807 -0.504771 0
M  V30 1622 H 147.28 2.94941 0.0967067 0
M  V30 1623 H 147.361 2.10364 -1.45536 0
M  V30 1624 H 147.005 4.32672 -2.66002 0
M  V30 1625 H 146.935 5.15334 -1.08344 0
M  V30 1626 H 149.426 3.59397 -1.16801 0
M  V30 1627 H 149.739 7.13225 -2.97539 0
M  V30 1628 H 148.084 6.4169 -2.66943 0
M  V30 1629 H 151.275 4.42504 -1.52669 0
M  V30 1630 H 151.448 6.03861 -2.35066 0
M  V30 1631 N 144.854 0.36279 1.53368 0
M  V30 1632 C 146.102 -0.227326 2.00817 0
M  V30 1633 C 146.423 -1.49511 1.25186 0
M  V30 1634 O 145.693 -1.92482 0.364348 0
M  V30 1635 H 144.273 -0.0869923 0.741917 0
M  V30 1636 H 146.935 0.488381 1.88682 0
M  V30 1637 H 146.031 -0.456273 3.08747 0
M  V30 1638 N 146.332 -1.57332 0.0918853 0
M  V30 1639 C 147.295 -2.12708 -0.85369 0
M  V30 1640 C 148.295 -1.05561 -1.213 0
M  V30 1641 O 149.485 -1.31461 -1.14296 0
M  V30 1642 C 146.617 -2.64503 -2.15061 0
M  V30 1643 H 147.81 -2.97573 -0.3729 0
M  V30 1644 H 145.363 -1.55509 -0.157072 0
M  V30 1645 H 146.098 -1.83149 -2.67632 0
M  V30 1646 H 145.883 -3.4284 -1.90272 0
M  V30 1647 H 147.373 -3.07351 -2.82711 0
M  V30 1648 N 147.81 0.181792 -1.56548 0
M  V30 1649 C 149.057 0.900097 -1.81396 0
M  V30 1650 C 149.385 1.82695 -0.667281 0
M  V30 1651 O 148.64 1.92614 0.346146 0
M  V30 1652 C 148.939 1.73728 -3.12335 0
M  V30 1653 C 148.605 0.960255 -4.40556 0
M  V30 1654 C 147.267 0.745766 -4.75386 0
M  V30 1655 C 149.619 0.414477 -5.19549 0
M  V30 1656 C 146.947 -0.0257694 -5.86694 0
M  V30 1657 C 149.299 -0.343916 -6.31664 0
M  V30 1658 C 147.963 -0.569301 -6.65068 0
M  V30 1659 H 147.233 0.329369 -0.663775 0
M  V30 1660 H 149.88 0.165647 -1.90782 0
M  V30 1661 H 148.185 2.54081 -2.98245 0
M  V30 1662 H 149.882 2.29591 -3.28769 0
M  V30 1663 H 146.472 1.13746 -4.13231 0
M  V30 1664 H 150.656 0.567554 -4.93044 0
M  V30 1665 H 145.912 -0.210233 -6.11038 0
M  V30 1666 H 150.086 -0.774133 -6.92084 0
M  V30 1667 H 147.713 -1.16903 -7.51158 0
M  V30 1668 N 149.288 1.51039 0.449983 0
M  V30 1669 C 150.536 1.62759 1.19808 0
M  V30 1670 C 150.857 0.339981 1.92013 0
M  V30 1671 O 150.127 -0.643606 1.85026 0
M  V30 1672 H 148.707 0.599811 0.445237 0
M  V30 1673 H 151.369 1.87914 0.517138 0
M  V30 1674 H 150.465 2.44911 1.93455 0
M  V30 1675 N 150.766 -0.704594 1.40972 0
M  V30 1676 C 151.676 -1.84856 1.44448 0
M  V30 1677 C 152.692 -1.70726 0.335961 0
M  V30 1678 O 153.868 -1.92799 0.582276 0
M  V30 1679 C 150.933 -3.20758 1.31587 0
M  V30 1680 C 149.994 -3.47063 2.52677 0
M  V30 1681 C 149.227 -4.76481 2.4042 0
M  V30 1682 O 149.45 -5.52341 1.42391 0
M  V30 1683 O 148.384 -5.03367 3.30007 0
M  V30 1684 H 152.21 -1.8488 2.40942 0
M  V30 1685 H 149.795 -0.85647 1.22413 0
M  V30 1686 H 151.677 -4.01913 1.26665 0
M  V30 1687 H 150.352 -3.21438 0.382049 0
M  V30 1688 H 149.259 -2.65873 2.63177 0
M  V30 1689 H 150.592 -3.5119 3.44858 0
M  V30 1690 N 152.244 -1.26651 -0.937939 0
M  V30 1691 C 153.49 -1.12553 -1.687 0
M  V30 1692 C 153.823 0.329782 -1.91379 0
M  V30 1693 O 153.098 1.24202 -1.4968 0
M  V30 1694 C 153.381 -1.89862 -3.05981 0
M  V30 1695 C 153.234 -3.43318 -2.90607 0
M  V30 1696 C 154.553 -1.69499 -4.0615 0
M  V30 1697 H 151.672 -0.410257 -0.612257 0
M  V30 1698 H 154.314 -1.55685 -1.08913 0
M  V30 1699 H 152.464 -1.53204 -3.57017 0
M  V30 1700 H 154.136 -3.89747 -2.46769 0
M  V30 1701 H 152.379 -3.70179 -2.26164 0
M  V30 1702 H 153.05 -3.92642 -3.8799 0
M  V30 1703 H 155.526 -2.01442 -3.64088 0
M  V30 1704 H 154.402 -2.26002 -5.00214 0
M  V30 1705 H 154.663 -0.640365 -4.37438 0
M  V30 1706 N 153.722 1.14298 -1.08507 0
M  V30 1707 C 155.138 1.37347 -0.812901 0
M  V30 1708 C 155.338 1.93052 0.577325 0
M  V30 1709 O 154.394 2.14389 1.33393 0
M  V30 1710 C 155.707 2.33359 -1.89642 0
M  V30 1711 C 157.255 2.46996 -1.92255 0
M  V30 1712 C 157.73 3.46309 -2.99724 0
M  V30 1713 N 159.221 3.53853 -2.98902 0
M  V30 1714 C 159.956 4.3055 -3.787 0
M  V30 1715 N 159.452 5.10482 -4.6838 0
M  V30 1716 N 161.245 4.25757 -3.66998 0
M  V30 1717 H 153.396 0.764867 -1.9815 0
M  V30 1718 H 155.659 0.398966 -0.859959 0
M  V30 1719 H 155.365 1.99565 -2.89597 0
M  V30 1720 H 155.239 3.33274 -1.76659 0
M  V30 1721 H 157.626 2.80081 -0.929445 0
M  V30 1722 H 157.707 1.47039 -2.09316 0
M  V30 1723 H 157.351 3.13957 -3.99241 0
M  V30 1724 H 157.281 4.46049 -2.79907 0
M  V30 1725 H 159.772 2.96812 -2.33904 0
M  V30 1726 H 160.085 5.66284 -5.25873 0
M  V30 1727 H 158.43 5.09747 -4.72422 0
M  V30 1728 H 161.621 3.62383 -2.96304 0
M  V30 1729 H 161.794 4.85279 -4.29427 0
M  V30 1730 N 155.201 0.870884 1.31352 0
M  V30 1731 C 156.131 0.343096 2.30966 0
M  V30 1732 C 157.112 -0.566507 1.60389 0
M  V30 1733 O 158.297 -0.483336 1.88089 0
M  V30 1734 C 155.427 -0.455487 3.443 0
M  V30 1735 C 154.381 0.361103 4.26474 0
M  V30 1736 C 153.707 -0.563221 5.31725 0
M  V30 1737 C 155.007 1.59566 4.97329 0
M  V30 1738 H 156.701 1.17548 2.75359 0
M  V30 1739 H 154.247 0.566686 1.32381 0
M  V30 1740 H 156.2 -0.83525 4.13039 0
M  V30 1741 H 154.924 -1.32139 2.98675 0
M  V30 1742 H 153.583 0.722825 3.59403 0
M  V30 1743 H 153.231 -1.42643 4.82351 0
M  V30 1744 H 152.931 -0.0207409 5.87596 0
M  V30 1745 H 154.455 -0.939808 6.03324 0
M  V30 1746 H 155.869 1.28728 5.58661 0
M  V30 1747 H 154.266 2.07728 5.63 0
M  V30 1748 H 155.336 2.34798 4.24262 0
M  V30 1749 N 156.679 -1.44442 0.630414 0
M  V30 1750 C 157.925 -2.02351 0.134816 0
M  V30 1751 C 158.258 -1.4947 -1.23986 0
M  V30 1752 O 157.533 -0.678475 -1.82283 0
M  V30 1753 C 157.816 -3.59898 0.120707 0
M  V30 1754 C 157.669 -4.23063 1.52767 0
M  V30 1755 C 158.988 -4.36585 -0.555127 0
M  V30 1756 H 156.107 -0.73527 0.0504646 0
M  V30 1757 H 158.749 -1.72022 0.806751 0
M  V30 1758 H 156.899 -3.85868 -0.451477 0
M  V30 1759 H 158.571 -4.08202 2.14869 0
M  V30 1760 H 156.814 -3.80586 2.08175 0
M  V30 1761 H 157.485 -5.32071 1.46984 0
M  V30 1762 H 159.961 -4.16044 -0.0685429 0
M  V30 1763 H 158.837 -5.46294 -0.534185 0
M  V30 1764 H 159.098 -4.11138 -1.62535 0
M  V30 1765 N 158.157 -0.370918 -1.53173 0
M  V30 1766 C 159.089 0.507823 -2.23503 0
M  V30 1767 C 160.102 1.04182 -1.251 0
M  V30 1768 O 161.291 0.947286 -1.5129 0
M  V30 1769 C 158.391 1.71447 -2.92334 0
M  V30 1770 C 157.564 1.31105 -4.17289 0
M  V30 1771 C 156.623 2.38035 -4.69282 0
M  V30 1772 O 155.649 2.00204 -5.32829 0
M  V30 1773 N 156.851 3.69697 -4.47554 0
M  V30 1774 H 159.616 -0.0946382 -2.99551 0
M  V30 1775 H 157.177 -0.196358 -1.60705 0
M  V30 1776 H 159.169 2.42469 -3.24023 0
M  V30 1777 H 157.739 2.22368 -2.19707 0
M  V30 1778 H 156.959 0.430462 -3.91843 0
M  V30 1779 H 158.247 1.0179 -4.98514 0
M  V30 1780 H 157.645 4.03205 -3.9679 0
M  V30 1781 H 156.202 4.36807 -4.8378 0
M  V30 1782 N 159.635 1.57281 -0.100228 0
M  V30 1783 C 160.582 2.14305 0.856858 0
M  V30 1784 C 161.552 1.06296 1.27634 0
M  V30 1785 O 162.737 1.34109 1.35718 0
M  V30 1786 C 159.877 2.73184 2.10866 0
M  V30 1787 C 158.99 3.95442 1.73925 0
M  V30 1788 C 158.125 4.42468 2.93931 0
M  V30 1789 C 157.164 5.57303 2.5314 0
M  V30 1790 N 156.301 5.99158 3.65997 0
M  V30 1791 H 161.141 2.95772 0.363726 0
M  V30 1792 H 158.678 1.46139 0.167858 0
M  V30 1793 H 160.636 3.05442 2.84185 0
M  V30 1794 H 159.266 1.94437 2.57671 0
M  V30 1795 H 158.318 3.69464 0.905554 0
M  V30 1796 H 159.63 4.78769 1.39935 0
M  V30 1797 H 158.784 4.76537 3.75496 0
M  V30 1798 H 157.523 3.58052 3.31134 0
M  V30 1799 H 156.528 5.22857 1.70003 0
M  V30 1800 H 157.753 6.43471 2.17075 0
M  V30 1801 H 155.699 5.17687 4.02909 0
M  V30 1802 H 155.616 6.77295 3.35869 0
M  V30 1803 H 156.884 6.3786 4.48057 0
M  V30 1804 N 161.113 -0.173488 1.56642 0
M  V30 1805 C 162.06 -1.21482 1.96242 0
M  V30 1806 C 163.03 -1.44104 0.826027 0
M  V30 1807 O 164.215 -1.5688 1.08597 0
M  V30 1808 C 161.355 -2.54964 2.32567 0
M  V30 1809 C 160.468 -2.39739 3.59373 0
M  V30 1810 C 159.603 -3.66072 3.84921 0
M  V30 1811 C 158.642 -3.45771 5.05083 0
M  V30 1812 N 157.779 -4.64169 5.26775 0
M  V30 1813 H 162.619 -0.870123 2.85014 0
M  V30 1814 H 160.156 -0.418245 1.41029 0
M  V30 1815 H 162.114 -3.32758 2.5165 0
M  V30 1816 H 160.744 -2.87433 1.46908 0
M  V30 1817 H 159.796 -1.53131 3.48217 0
M  V30 1818 H 161.108 -2.20683 4.47326 0
M  V30 1819 H 160.262 -4.52303 4.0436 0
M  V30 1820 H 159.001 -3.88105 2.9534 0
M  V30 1821 H 158.006 -2.57927 4.85545 0
M  V30 1822 H 159.231 -3.25163 5.96193 0
M  V30 1823 H 157.177 -4.86425 4.40144 0
M  V30 1824 H 157.094 -4.48019 6.08946 0
M  V30 1825 H 158.362 -5.51689 5.5069 0
M  V30 1826 N 162.591 -1.51276 -0.441967 0
M  V30 1827 C 163.868 -1.54252 -1.20273 0
M  V30 1828 C 164.248 -0.30408 -2.08898 0
M  V30 1829 O 163.596 0.711084 -2.17154 0
M  V30 1830 C 163.806 -2.85406 -2.00859 0
M  V30 1831 C 165.154 -3.37181 -2.58059 0
M  V30 1832 O 166.178 -2.86925 -2.11074 0
M  V30 1833 O 165.037 -4.24858 -3.43741 0
M  V30 1834 H 162.131 -0.619969 -0.547328 0
M  V30 1835 H 164.677 -1.63586 -0.451413 0
M  V30 1836 H 163.449 -3.67003 -1.35736 0
M  V30 1837 H 163.072 -2.79213 -2.83065 0
M  V30 1838 N 164.069 0.697108 -1.41344 0
M  V30 1839 C 165.297 1.48593 -1.43972 0
M  V30 1840 C 165.712 1.88747 -0.0445612 0
M  V30 1841 O 165.069 1.56682 0.935785 0
M  V30 1842 C 165.12 2.74946 -2.34706 0
M  V30 1843 O 164.841 2.36484 -3.68791 0
M  V30 1844 C 166.342 3.687 -2.46121 0
M  V30 1845 H 163.562 0.457964 -0.490418 0
M  V30 1846 H 166.106 0.858429 -1.8561 0
M  V30 1847 H 164.261 3.33937 -1.9638 0
M  V30 1848 H 164.675 3.17918 -4.17167 0
M  V30 1849 H 166.149 4.54145 -3.13777 0
M  V30 1850 H 166.626 4.13081 -1.49199 0
M  V30 1851 H 167.232 3.15613 -2.85076 0
M  V30 1852 N 165.547 1.27147 0.931209 0
M  V30 1853 C 166.795 1.13055 1.6752 0
M  V30 1854 C 167.116 -0.324791 1.92276 0
M  V30 1855 O 166.386 -1.22775 1.52654 0
M  V30 1856 H 164.966 0.415391 0.620854 0
M  V30 1857 H 167.628 1.59623 1.11833 0
M  V30 1858 H 166.724 1.65694 2.64485 0
M  V30 1859 N 167.025 -1.13721 1.09112 0
M  V30 1860 C 167.975 -2.17082 0.697091 0
M  V30 1861 C 168.959 -1.58321 -0.286923 0
M  V30 1862 O 170.151 -1.7673 -0.0978008 0
M  V30 1863 C 167.28 -3.43105 0.115729 0
M  V30 1864 C 166.366 -4.0888 1.12596 0
M  V30 1865 N 166.757 -4.4987 2.31195 0
M  V30 1866 C 165.055 -4.35471 0.963366 0
M  V30 1867 C 165.756 -5.01094 2.95431 0
M  V30 1868 N 164.732 -4.95751 2.23006 0
M  V30 1869 H 168.534 -2.46524 1.6001 0
M  V30 1870 H 166.048 -1.30481 0.966869 0
M  V30 1871 H 168.045 -4.16491 -0.184555 0
M  V30 1872 H 166.705 -3.15138 -0.78217 0
M  V30 1873 H 167.716 -4.42678 2.68806 0
M  V30 1874 H 164.393 -4.17328 0.119878 0
M  V30 1875 H 165.783 -5.4263 3.96236 0
M  V30 1876 N 168.503 -0.877838 -1.30888 0
M  V30 1877 C 169.752 -0.488793 -1.95688 0
M  V30 1878 C 170.065 0.965485 -1.70111 0
M  V30 1879 O 171.271 1.46104 -2.28836 0
M  V30 1880 C 169.727 -0.823201 -3.50359 0
M  V30 1881 C 169.335 -2.29477 -3.84765 0
M  V30 1882 C 171.079 -0.503009 -4.21509 0
M  V30 1883 C 168.986 -2.57118 -5.32583 0
M  V30 1884 H 167.916 -0.179062 -0.732429 0
M  V30 1885 H 170.567 -1.07183 -1.48943 0
M  V30 1886 H 168.949 -0.169331 -3.95638 0
M  V30 1887 H 170.123 -2.99236 -3.5042 0
M  V30 1888 H 168.438 -2.58178 -3.267 0
M  V30 1889 H 171.035 -0.68665 -5.30273 0
M  V30 1890 H 171.378 0.557109 -4.12555 0
M  V30 1891 H 171.911 -1.11376 -3.8189 0
M  V30 1892 H 168.65 -3.61843 -5.4658 0
M  V30 1893 H 168.17 -1.91961 -5.68253 0
M  V30 1894 H 169.849 -2.42251 -5.99936 0
M  V30 1895 N 169.982 1.44106 -0.638065 0
M  V30 1896 C 171.212 2.06037 -0.152394 0
M  V30 1897 C 171.62 1.47808 1.18108 0
M  V30 1898 O 170.963 0.598092 1.73691 0
M  V30 1899 C 171.025 3.59488 0.0293714 0
M  V30 1900 C 170.689 4.4022 -1.22702 0
M  V30 1901 C 171.686 4.73256 -2.15232 0
M  V30 1902 C 169.371 4.8048 -1.46437 0
M  V30 1903 C 171.365 5.45444 -3.29802 0
M  V30 1904 C 169.052 5.52417 -2.61303 0
M  V30 1905 C 170.05 5.84819 -3.52811 0
M  V30 1906 O 169.738 6.55289 -4.65673 0
M  V30 1907 H 169.47 0.671233 -0.0801401 0
M  V30 1908 H 172.024 1.85851 -0.874563 0
M  V30 1909 H 170.254 3.78191 0.806758 0
M  V30 1910 H 171.943 4.03164 0.470475 0
M  V30 1911 H 172.709 4.42684 -1.98131 0
M  V30 1912 H 168.588 4.54676 -0.760977 0
M  V30 1913 H 172.132 5.70653 -4.01249 0
M  V30 1914 H 168.029 5.82404 -2.78344 0
M  V30 1915 H 168.797 6.73762 -4.64744 0
M  V30 1916 N 171.46 0.379036 1.52974 0
M  V30 1917 C 172.423 -0.448865 2.24762 0
M  V30 1918 C 173.423 -0.998689 1.26027 0
M  V30 1919 O 174.613 -0.882313 1.50203 0
M  V30 1920 C 171.745 -1.62872 2.99476 0
M  V30 1921 H 172.938 0.179491 2.99362 0
M  V30 1922 H 170.491 0.13096 1.5575 0
M  V30 1923 H 171.226 -2.29479 2.29151 0
M  V30 1924 H 171.011 -1.24128 3.71934 0
M  V30 1925 H 172.501 -2.2151 3.5401 0
M  V30 1926 N 172.938 -1.57226 0.108567 0
M  V30 1927 C 173.871 -2.10447 -0.882464 0
M  V30 1928 C 174.849 -1.01829 -1.26766 0
M  V30 1929 O 176.033 -1.29415 -1.37054 0
M  V30 1930 C 173.16 -2.59258 -2.17952 0
M  V30 1931 C 172.206 -3.79662 -1.94318 0
M  V30 1932 S 173.039 -5.22586 -1.16892 0
M  V30 1933 C 174.195 -5.74758 -2.47799 0
M  V30 1934 H 174.428 -2.94178 -0.429745 0
M  V30 1935 H 171.961 -1.54043 -0.105 0
M  V30 1936 H 173.919 -2.88036 -2.92482 0
M  V30 1937 H 172.58 -1.75728 -2.60343 0
M  V30 1938 H 171.773 -4.11928 -2.90399 0
M  V30 1939 H 171.375 -3.51446 -1.27913 0
M  V30 1940 H 173.667 -5.83846 -3.43701 0
M  V30 1941 H 174.61 -6.73027 -2.20093 0
M  V30 1942 H 175.018 -5.02763 -2.56689 0
M  V30 1943 N 174.416 0.165178 -1.56732 0
M  V30 1944 C 175.363 1.2044 -1.96883 0
M  V30 1945 C 176.333 1.43664 -0.833657 0
M  V30 1946 O 177.518 1.56302 -1.09427 0
M  V30 1947 C 174.658 2.53727 -2.33916 0
M  V30 1948 C 173.771 2.3783 -3.6064 0
M  V30 1949 C 172.906 3.64026 -3.86857 0
M  V30 1950 C 171.945 3.43088 -5.06909 0
M  V30 1951 N 171.082 4.61369 -5.29229 0
M  V30 1952 H 175.922 0.854996 -2.85471 0
M  V30 1953 H 173.459 0.41076 -1.41249 0
M  V30 1954 H 175.417 3.31419 -2.53411 0
M  V30 1955 H 174.047 2.8665 -1.48431 0
M  V30 1956 H 173.099 1.51282 -3.49024 0
M  V30 1957 H 174.411 2.18308 -4.4849 0
M  V30 1958 H 173.565 4.50152 -4.06753 0
M  V30 1959 H 172.304 3.86533 -2.97394 0
M  V30 1960 H 171.309 2.55349 -4.86906 0
M  V30 1961 H 172.534 3.21997 -5.97909 0
M  V30 1962 H 170.48 4.84084 -4.42718 0
M  V30 1963 H 170.397 4.44783 -6.11313 0
M  V30 1964 H 171.665 5.48761 -5.53608 0
M  V30 1965 N 175.894 1.51508 0.433938 0
M  V30 1966 C 177.143 1.63578 1.18005 0
M  V30 1967 C 177.456 0.359514 1.92268 0
M  V30 1968 O 178.662 0.359632 2.69108 0
M  V30 1969 C 177.118 2.88901 2.14626 0
M  V30 1970 C 176.726 4.23544 1.45995 0
M  V30 1971 C 178.47 3.10328 2.89649 0
M  V30 1972 C 176.377 5.40014 2.4112 0
M  V30 1973 H 175.307 0.609277 0.444182 0
M  V30 1974 H 177.958 1.77978 0.446773 0
M  V30 1975 H 176.34 2.68142 2.91403 0
M  V30 1976 H 177.514 4.54696 0.747532 0
M  V30 1977 H 175.829 4.08021 0.831115 0
M  V30 1978 H 178.426 3.94518 3.60915 0
M  V30 1979 H 178.769 2.23544 3.51189 0
M  V30 1980 H 179.302 3.31443 2.19978 0
M  V30 1981 H 176.041 6.29068 1.84264 0
M  V30 1982 H 175.561 5.13233 3.10406 0
M  V30 1983 H 177.24 5.72099 3.02177 0
M  V30 1984 N 177.372 -0.689602 1.41712 0
M  V30 1985 C 178.302 -1.81577 1.46806 0
M  V30 1986 C 179.283 -1.66945 0.326105 0
M  V30 1987 O 180.468 -1.86588 0.538377 0
M  V30 1988 C 177.598 -3.19762 1.35535 0
M  V30 1989 C 176.552 -3.49107 2.47605 0
M  V30 1990 C 175.878 -4.86711 2.21397 0
M  V30 1991 C 177.178 -3.47483 3.89939 0
M  V30 1992 H 178.872 -1.7757 2.41058 0
M  V30 1993 H 176.418 -0.852887 1.16025 0
M  V30 1994 H 178.371 -3.98263 1.3771 0
M  V30 1995 H 177.095 -3.24409 0.377708 0
M  V30 1996 H 175.754 -2.72959 2.44722 0
M  V30 1997 H 175.402 -4.8799 1.21961 0
M  V30 1998 H 175.102 -5.0731 2.96497 0
M  V30 1999 H 176.626 -5.67515 2.25297 0
M  V30 2000 H 178.04 -4.1598 3.94505 0
M  V30 2001 H 176.437 -3.79615 4.64771 0
M  V30 2002 H 177.507 -2.46341 4.17665 0
M  V30 2003 N 178.85 -1.27639 -0.924453 0
M  V30 2004 C 180.266 -1.05113 -1.20097 0
M  V30 2005 C 180.466 0.213262 -2.00368 0
M  V30 2006 O 179.522 0.91787 -2.35226 0
M  V30 2007 C 180.835 -2.29244 -1.94596 0
M  V30 2008 C 182.383 -2.34315 -2.07522 0
M  V30 2009 C 182.858 -3.58183 -2.85427 0
M  V30 2010 N 184.349 -3.5876 -2.92994 0
M  V30 2011 C 185.084 -4.51277 -3.53746 0
M  V30 2012 N 184.58 -5.54102 -4.15863 0
M  V30 2013 N 186.373 -4.38894 -3.51181 0
M  V30 2014 H 178.524 -2.08821 -0.388264 0
M  V30 2015 H 180.787 -0.918568 -0.234385 0
M  V30 2016 H 180.493 -3.21301 -1.43034 0
M  V30 2017 H 180.367 -2.34816 -2.95197 0
M  V30 2018 H 182.754 -1.42762 -2.58269 0
M  V30 2019 H 182.835 -2.32744 -1.06131 0
M  V30 2020 H 182.479 -4.50074 -2.35363 0
M  V30 2021 H 182.409 -3.57006 -3.8711 0
M  V30 2022 H 184.9 -2.84398 -2.4885 0
M  V30 2023 H 185.213 -6.20859 -4.60168 0
M  V30 2024 H 183.558 -5.57941 -4.144 0
M  V30 2025 H 186.749 -3.57772 -3.01856 0
M  V30 2026 H 186.922 -5.11186 -3.98237 0
M  V30 2027 N 180.328 1.1314 -1.09713 0
M  V30 2028 C 181.275 2.18642 -0.739196 0
M  V30 2029 C 182.245 1.63706 0.280978 0
M  V30 2030 O 183.43 1.90111 0.161946 0
M  V30 2031 C 180.57 3.44685 -0.169102 0
M  V30 2032 C 179.683 4.13711 -1.24367 0
M  V30 2033 C 178.818 5.27379 -0.636019 0
M  V30 2034 C 177.857 5.88259 -1.69169 0
M  V30 2035 N 176.994 6.93352 -1.10485 0
M  V30 2036 H 181.834 2.48607 -1.64312 0
M  V30 2037 H 179.371 1.22066 -0.820875 0
M  V30 2038 H 181.329 4.16815 0.179256 0
M  V30 2039 H 179.959 3.15161 0.698079 0
M  V30 2040 H 179.011 3.39835 -1.70927 0
M  V30 2041 H 180.323 4.55037 -2.04311 0
M  V30 2042 H 179.477 6.06238 -0.236677 0
M  V30 2043 H 178.216 4.8731 0.194928 0
M  V30 2044 H 177.221 5.08092 -2.10055 0
M  V30 2045 H 178.446 6.30399 -2.52536 0
M  V30 2046 H 176.392 6.55335 -0.295234 0
M  V30 2047 H 176.309 7.33236 -1.84121 0
M  V30 2048 H 177.577 7.76057 -0.73181 0
M  V30 2049 N 181.806 0.884767 1.30421 0
M  V30 2050 C 183.031 0.517288 2.00845 0
M  V30 2051 C 183.456 -0.886779 1.65885 0
M  V30 2052 O 182.814 -1.58768 0.875354 0
M  V30 2053 C 182.862 0.698994 3.5376 0
M  V30 2054 O 181.966 -0.255208 4.1161 0
M  V30 2055 H 181.307 0.203872 0.631927 0
M  V30 2056 H 183.837 1.19225 1.66272 0
M  V30 2057 H 183.847 0.597912 4.03595 0
M  V30 2058 H 182.522 1.72271 3.78544 0
M  V30 2059 H 181.099 -0.10784 3.72744 0
M  V30 2060 N 183.284 -1.43765 0.645699 0
M  V30 2061 C 184.561 -1.9541 0.0862963 0
M  V30 2062 C 184.941 -1.58725 -1.39175 0
M  V30 2063 O 184.289 -0.868581 -2.11348 0
M  V30 2064 C 184.499 -3.47488 0.324565 0
M  V30 2065 C 185.847 -4.24001 0.225497 0
M  V30 2066 O 186.871 -3.55274 0.256715 0
M  V30 2067 O 185.73 -5.46313 0.142801 0
M  V30 2068 H 182.824 -0.826882 -0.0139483 0
M  V30 2069 H 185.37 -1.53743 0.718415 0
M  V30 2070 H 184.142 -3.67289 1.3496 0
M  V30 2071 H 183.765 -3.96135 -0.340987 0
M  V30 2072 N 184.763 -0.387143 -1.52771 0
M  V30 2073 C 185.696 0.493123 -2.22808 0
M  V30 2074 C 186.674 1.0658 -1.22798 0
M  V30 2075 O 187.858 1.11785 -1.51777 0
M  V30 2076 C 184.985 1.68238 -2.93962 0
M  V30 2077 C 184.031 1.23515 -4.08223 0
M  V30 2078 S 184.864 0.21848 -5.35054 0
M  V30 2079 C 186.02 1.41357 -6.09729 0
M  V30 2080 H 186.253 -0.101625 -2.97126 0
M  V30 2081 H 183.786 -0.171323 -1.53447 0
M  V30 2082 H 185.744 2.36443 -3.35567 0
M  V30 2083 H 184.405 2.24842 -2.19328 0
M  V30 2084 H 183.598 2.12304 -4.57103 0
M  V30 2085 H 183.2 0.632044 -3.68621 0
M  V30 2086 H 185.492 2.34101 -6.3577 0
M  V30 2087 H 186.435 0.965736 -7.01484 0
M  V30 2088 H 186.843 1.6294 -5.40473 0
M  V30 2089 N 186.241 1.57166 -0.116904 0
M  V30 2090 C 187.171 2.18222 0.830759 0
M  V30 2091 C 188.152 1.12167 1.27877 0
M  V30 2092 O 189.337 1.40394 1.34176 0
M  V30 2093 C 186.467 2.77996 2.08172 0
M  V30 2094 C 185.421 3.89614 1.77157 0
M  V30 2095 C 184.747 4.36187 3.09265 0
M  V30 2096 C 186.047 5.1181 1.04151 0
M  V30 2097 H 187.741 2.97664 0.321992 0
M  V30 2098 H 185.287 1.4318 0.153434 0
M  V30 2099 H 187.24 3.19366 2.74924 0
M  V30 2100 H 185.964 1.9584 2.6137 0
M  V30 2101 H 184.623 3.48816 1.12796 0
M  V30 2102 H 184.271 3.50893 3.60393 0
M  V30 2103 H 183.971 5.11455 2.89288 0
M  V30 2104 H 185.495 4.80207 3.77139 0
M  V30 2105 H 186.909 5.50214 1.61052 0
M  V30 2106 H 185.306 5.92648 0.942762 0
M  V30 2107 H 186.376 4.84892 0.0279022 0
M  V30 2108 N 187.719 -0.156864 1.56817 0
M  V30 2109 C 188.629 -1.2136 2.00771 0
M  V30 2110 C 189.645 -1.47598 0.921459 0
M  V30 2111 O 190.821 -1.59462 1.2302 0
M  V30 2112 C 187.886 -2.52943 2.37109 0
M  V30 2113 C 186.947 -2.34439 3.59634 0
M  V30 2114 C 186.18 -3.59748 3.94229 0
M  V30 2115 O 186.403 -4.65526 3.29609 0
M  V30 2116 O 185.337 -3.52998 4.8752 0
M  V30 2117 H 189.163 -0.870468 2.90958 0
M  V30 2118 H 186.748 -0.36484 1.44877 0
M  V30 2119 H 188.63 -3.30538 2.61386 0
M  V30 2120 H 187.305 -2.86806 1.5008 0
M  V30 2121 H 186.212 -1.54828 3.40557 0
M  V30 2122 H 187.545 -2.05496 4.4725 0
M  V30 2123 N 189.197 -1.51736 -0.425897 0
M  V30 2124 C 190.144 -1.73875 -1.51776 0
M  V30 2125 C 191.114 -0.580702 -1.55618 0
M  V30 2126 O 192.299 -0.81641 -1.72451 0
M  V30 2127 C 189.439 -1.88012 -2.89388 0
M  V30 2128 C 188.552 -3.15606 -2.94986 0
M  V30 2129 C 187.687 -3.20271 -4.23793 0
M  V30 2130 C 186.726 -4.42134 -4.23302 0
M  V30 2131 N 185.863 -4.44284 -5.43651 0
M  V30 2132 H 190.703 -2.67071 -1.32201 0
M  V30 2133 H 188.24 -1.32351 -0.642008 0
M  V30 2134 H 190.198 -1.9419 -3.69251 0
M  V30 2135 H 188.828 -0.98213 -3.07496 0
M  V30 2136 H 187.88 -3.18681 -2.07717 0
M  V30 2137 H 189.192 -4.05486 -2.90486 0
M  V30 2138 H 188.346 -3.25428 -5.12036 0
M  V30 2139 H 187.085 -2.28299 -4.30965 0
M  V30 2140 H 186.09 -4.3714 -3.3345 0
M  V30 2141 H 187.315 -5.35382 -4.17783 0
M  V30 2142 H 185.261 -3.55188 -5.51523 0
M  V30 2143 H 185.178 -5.27988 -5.41078 0
M  V30 2144 H 186.446 -4.53649 -6.33895 0
M  V30 2145 N 190.675 0.682077 -1.42076 0
M  V30 2146 C 191.585 1.82535 -1.47371 0
M  V30 2147 C 192.601 1.7017 -0.363079 0
M  V30 2148 O 193.777 1.91848 -0.612875 0
M  V30 2149 C 190.842 3.18624 -1.36674 0
M  V30 2150 C 189.903 3.42999 -2.58167 0
M  V30 2151 C 189.136 4.72595 -2.4797 0
M  V30 2152 O 189.359 5.50006 -1.5116 0
M  V30 2153 O 188.293 4.98054 -3.37974 0
M  V30 2154 H 192.119 1.81023 -2.43853 0
M  V30 2155 H 189.704 0.836887 -1.2376 0
M  V30 2156 H 191.586 3.99847 -1.33043 0
M  V30 2157 H 190.261 3.20789 -0.433138 0
M  V30 2158 H 189.168 2.61653 -2.67373 0
M  V30 2159 H 190.501 3.45659 -3.50401 0
M  V30 2160 N 192.153 1.28127 0.917671 0
M  V30 2161 C 193.085 1.07517 2.02417 0
M  V30 2162 C 194.098 0.0281099 1.62776 0
M  V30 2163 O 195.287 0.270748 1.76435 0
M  V30 2164 C 192.387 0.610957 3.33347 0
M  V30 2165 C 191.56 1.73255 4.01624 0
M  V30 2166 C 190.619 1.26238 5.10833 0
M  V30 2167 O 189.645 1.96389 5.34247 0
M  V30 2168 N 190.847 0.123448 5.80369 0
M  V30 2169 H 193.612 2.02806 2.20658 0
M  V30 2170 H 191.173 1.19827 1.08871 0
M  V30 2171 H 193.165 0.280101 4.0373 0
M  V30 2172 H 191.735 -0.24898 3.11607 0
M  V30 2173 H 190.955 2.23319 3.24842 0
M  V30 2174 H 192.243 2.48503 4.43986 0
M  V30 2175 H 191.641 -0.461847 5.63812 0
M  V30 2176 H 190.198 -0.148158 6.51632 0
M  V30 2177 N 193.631 -1.12557 1.10312 0
M  V30 2178 C 194.877 -1.84311 0.846011 0
M  V30 2179 C 195.21 -1.83805 -0.626859 0
M  V30 2180 O 194.485 -1.28268 -1.46211 0
M  V30 2181 C 194.768 -3.32048 1.39341 0
M  V30 2182 C 194.621 -3.41016 2.93305 0
M  V30 2183 C 195.94 -4.27764 1.03468 0
M  V30 2184 H 193.059 -0.669192 0.30879 0
M  V30 2185 H 195.701 -1.32057 1.36605 0
M  V30 2186 H 193.851 -3.76678 0.951087 0
M  V30 2187 H 195.523 -3.05031 3.46055 0
M  V30 2188 H 193.766 -2.81603 3.29973 0
M  V30 2189 H 194.437 -4.44948 3.26689 0
M  V30 2190 H 196.913 -3.91253 1.41633 0
M  V30 2191 H 195.789 -5.29549 1.44463 0
M  V30 2192 H 196.05 -4.42064 -0.0560404 0
M  V30 2193 N 195.109 -0.891671 -1.2995 0
M  V30 2194 C 196.072 -0.36828 -2.26222 0
M  V30 2195 C 197.072 0.493014 -1.53056 0
M  V30 2196 O 198.262 0.299213 -1.71611 0
M  V30 2197 C 195.394 0.47442 -3.37583 0
M  V30 2198 H 196.587 -1.21844 -2.74033 0
M  V30 2199 H 194.14 -0.669107 -1.41254 0
M  V30 2200 H 194.875 1.34489 -2.95099 0
M  V30 2201 H 194.66 -0.142615 -3.91841 0
M  V30 2202 H 196.15 0.83218 -4.09224 0
M  V30 2203 N 196.587 1.43421 -0.653314 0
M  V30 2204 C 197.537 2.2792 0.060558 0
M  V30 2205 C 198.521 1.39906 0.794677 0
M  V30 2206 O 199.713 1.63536 0.677128 0
M  V30 2207 C 196.842 3.27603 1.0262 0
M  V30 2208 C 195.928 4.23104 0.290551 0
M  V30 2209 N 196.319 5.01031 -0.692967 0
M  V30 2210 C 194.617 4.42816 0.531984 0
M  V30 2211 C 195.318 5.70626 -1.12963 0
M  V30 2212 N 194.294 5.41617 -0.463867 0
M  V30 2213 H 198.096 2.85585 -0.694143 0
M  V30 2214 H 195.61 1.55126 -0.480602 0
M  V30 2215 H 197.607 3.86918 1.55242 0
M  V30 2216 H 196.267 2.71499 1.78096 0
M  V30 2217 H 197.278 5.0669 -1.07169 0
M  V30 2218 H 193.955 3.97782 1.26791 0
M  V30 2219 H 195.345 6.4318 -1.94343 0
M  V30 2220 N 198.065 0.39524 1.52563 0
M  V30 2221 C 199.314 -0.186321 2.00838 0
M  V30 2222 C 199.627 -1.47402 1.28577 0
M  V30 2223 O 200.833 -2.13599 1.67593 0
M  V30 2224 C 199.289 -0.382595 3.57861 0
M  V30 2225 C 198.897 0.892202 4.39026 0
M  V30 2226 C 200.641 -0.9202 4.14406 0
M  V30 2227 C 198.548 0.66388 5.87662 0
M  V30 2228 H 197.478 -0.0734041 0.750418 0
M  V30 2229 H 200.129 0.518552 1.76021 0
M  V30 2230 H 198.511 -1.14946 3.7895 0
M  V30 2231 H 199.685 1.66414 4.29701 0
M  V30 2232 H 198 1.35519 3.9373 0
M  V30 2233 H 200.597 -1.10683 5.23119 0
M  V30 2234 H 200.94 -1.89096 3.70875 0
M  V30 2235 H 201.473 -0.212751 3.97231 0
M  V30 2236 H 198.212 1.6058 6.35527 0
M  V30 2237 H 197.732 -0.0690193 5.9976 0
M  V30 2238 H 199.411 0.300699 6.46301 0
M  V30 2239 N 199.544 -1.57102 0.125237 0
M  V30 2240 C 200.96 -1.57915 -0.231322 0
M  V30 2241 C 201.16 -1.13833 -1.66266 0
M  V30 2242 O 200.216 -0.828581 -2.38518 0
M  V30 2243 C 201.529 -3.00699 0.00766489 0
M  V30 2244 C 203.077 -3.12947 -0.0577483 0
M  V30 2245 C 203.552 -4.57742 0.153626 0
M  V30 2246 N 205.043 -4.63092 0.0998073 0
M  V30 2247 C 205.778 -5.72905 0.238174 0
M  V30 2248 N 205.274 -6.91445 0.433057 0
M  V30 2249 N 207.067 -5.6182 0.177308 0
M  V30 2250 H 199.218 -1.84055 1.06007 0
M  V30 2251 H 201.481 -0.850905 0.417929 0
M  V30 2252 H 201.187 -3.3726 0.997431 0
M  V30 2253 H 201.061 -3.70236 -0.721452 0
M  V30 2254 H 203.448 -2.7624 -1.03804 0
M  V30 2255 H 203.529 -2.4594 0.70335 0
M  V30 2256 H 203.173 -4.95149 1.13092 0
M  V30 2257 H 203.103 -5.22848 -0.627534 0
M  V30 2258 H 205.594 -3.77871 -0.047051 0
M  V30 2259 H 205.907 -7.70985 0.529332 0
M  V30 2260 H 204.252 -6.93415 0.469109 0
M  V30 2261 H 207.443 -4.68093 0.0259748 0
M  V30 2262 H 207.616 -6.47357 0.288582 0
M  V30 2263 N 201.022 0.148545 -1.56898 0
M  V30 2264 C 201.985 1.16736 -1.97244 0
M  V30 2265 C 202.985 1.35947 -0.858777 0
M  V30 2266 O 204.175 1.32966 -1.12542 0
M  V30 2267 C 201.307 2.52798 -2.28705 0
M  V30 2268 H 202.5 0.821279 -2.88435 0
M  V30 2269 H 200.053 0.391831 -1.51309 0
M  V30 2270 H 200.788 2.92381 -1.403 0
M  V30 2271 H 200.573 2.40216 -3.09901 0
M  V30 2272 H 202.063 3.26179 -2.60762 0
M  V30 2273 N 202.5 1.5196 0.417844 0
M  V30 2274 C 203.41 1.77554 1.53336 0
M  V30 2275 C 204.426 0.660655 1.6097 0
M  V30 2276 O 205.602 0.945099 1.77848 0
M  V30 2277 C 202.667 1.91291 2.89152 0
M  V30 2278 C 201.728 3.15183 2.91475 0
M  V30 2279 C 200.961 3.28256 4.20813 0
M  V30 2280 O 201.184 2.46798 5.14244 0
M  V30 2281 O 200.118 4.21356 4.29817 0
M  V30 2282 H 203.944 2.7222 1.34647 0
M  V30 2283 H 201.529 1.36698 0.602828 0
M  V30 2284 H 203.411 2.02199 3.69721 0
M  V30 2285 H 202.086 0.998129 3.07927 0
M  V30 2286 H 200.993 3.09739 2.09791 0
M  V30 2287 H 202.326 4.06414 2.77648 0
M  V30 2288 N 203.978 -0.674533 1.42435 0
M  V30 2289 C 205.394 -0.98769 1.25367 0
M  V30 2290 C 205.594 -2.00879 0.158044 0
M  V30 2291 O 204.65 -2.48075 -0.470633 0
M  V30 2292 C 205.963 -1.49224 2.6106 0
M  V30 2293 C 207.511 -1.61 2.68417 0
M  V30 2294 C 207.986 -2.14852 4.04478 0
M  V30 2295 N 209.477 -2.22185 4.06434 0
M  V30 2296 C 210.212 -2.64928 5.08528 0
M  V30 2297 N 209.708 -3.07121 6.21006 0
M  V30 2298 N 211.501 -2.64679 4.95885 0
M  V30 2299 H 203.652 0.00152503 2.124 0
M  V30 2300 H 205.915 -0.0618434 0.945981 0
M  V30 2301 H 205.621 -0.816453 3.42092 0
M  V30 2302 H 205.495 -2.47094 2.84999 0
M  V30 2303 H 207.882 -2.27686 1.87732 0
M  V30 2304 H 207.963 -0.616195 2.48267 0
M  V30 2305 H 207.607 -1.48775 4.85622 0
M  V30 2306 H 207.537 -3.15024 4.2198 0
M  V30 2307 H 210.028 -1.92435 3.25234 0
M  V30 2308 H 210.341 -3.38423 6.94759 0
M  V30 2309 H 208.686 -3.04978 6.24511 0
M  V30 2310 H 211.877 -2.31078 4.07088 0
M  V30 2311 H 212.05 -2.9767 5.75584 0
M  V30 2312 N 205.456 -1.28612 -0.910864 0
M  V30 2313 C 206.733 -1.06632 -1.63979 0
M  V30 2314 C 207.113 0.393351 -2.07403 0
M  V30 2315 O 206.461 1.37999 -1.82122 0
M  V30 2316 C 206.671 -2.0436 -2.8291 0
M  V30 2317 C 208.019 -2.34666 -3.5386 0
M  V30 2318 O 209.043 -2.02467 -2.93062 0
M  V30 2319 O 207.902 -2.89631 -4.63439 0
M  V30 2320 H 204.996 -0.407737 -0.7195 0
M  V30 2321 H 207.542 -1.39942 -0.959914 0
M  V30 2322 H 206.314 -3.02727 -2.47936 0
M  V30 2323 H 205.937 -1.71714 -3.58609 0
M  V30 2324 N 206.934 1.1197 -1.10907 0
M  V30 2325 C 208.183 1.82947 -0.849302 0
M  V30 2326 C 208.496 1.85275 0.627112 0
M  V30 2327 O 209.702 2.52296 1.00295 0
M  V30 2328 C 208.158 3.28529 -1.46959 0
M  V30 2329 C 207.766 3.34546 -2.97965 0
M  V30 2330 C 209.51 4.04443 -1.28942 0
M  V30 2331 C 207.417 4.74491 -3.53004 0
M  V30 2332 H 206.347 0.685477 -0.314065 0
M  V30 2333 H 208.998 1.2604 -1.33365 0
M  V30 2334 H 207.38 3.85333 -0.912917 0
M  V30 2335 H 208.554 2.87654 -3.59989 0
M  V30 2336 H 206.869 2.72108 -3.15192 0
M  V30 2337 H 209.466 5.07787 -1.67502 0
M  V30 2338 H 209.809 4.15656 -0.231456 0
M  V30 2339 H 210.342 3.5401 -1.81443 0
M  V30 2340 H 207.081 4.68474 -4.58489 0
M  V30 2341 H 206.601 5.21816 -2.9575 0
M  V30 2342 H 208.28 5.4344 -3.51115 0
M  V30 2343 N 208.412 0.89855 1.29475 0
M  V30 2344 C 209.342 0.39201 2.30186 0
M  V30 2345 C 210.323 -0.532359 1.61555 0
M  V30 2346 O 211.508 -0.443331 1.89072 0
M  V30 2347 C 208.638 -0.382353 3.45189 0
M  V30 2348 C 207.592 0.451483 4.25612 0
M  V30 2349 C 206.918 -0.450307 5.328 0
M  V30 2350 C 208.218 1.70079 4.93832 0
M  V30 2351 H 209.912 1.23362 2.72804 0
M  V30 2352 H 207.458 0.594638 1.31149 0
M  V30 2353 H 209.411 -0.747451 4.14718 0
M  V30 2354 H 208.135 -1.25774 3.01411 0
M  V30 2355 H 206.794 0.798897 3.57789 0
M  V30 2356 H 206.442 -1.32379 4.85268 0
M  V30 2357 H 206.142 0.103902 5.87508 0
M  V30 2358 H 207.666 -0.811623 6.05182 0
M  V30 2359 H 209.08 1.40549 5.55805 0
M  V30 2360 H 207.477 2.19623 5.58467 0
M  V30 2361 H 208.547 2.43744 4.19186 0
M  V30 2362 N 209.89 -1.43072 0.660911 0
M  V30 2363 C 211.136 -2.0202 0.177708 0
M  V30 2364 C 211.469 -1.52066 -1.20787 0
M  V30 2365 O 210.744 -0.716987 -1.80802 0
M  V30 2366 C 211.027 -3.59561 0.197019 0
M  V30 2367 C 210.88 -4.19727 1.61706 0
M  V30 2368 C 212.199 -4.37664 -0.462396 0
M  V30 2369 H 209.318 -0.734034 0.0660494 0
M  V30 2370 H 211.96 -1.70272 0.843058 0
M  V30 2371 H 210.11 -3.86739 -0.369527 0
M  V30 2372 H 211.782 -4.03553 2.23479 0
M  V30 2373 H 210.025 -3.76084 2.16201 0
M  V30 2374 H 210.696 -5.28834 1.58237 0
M  V30 2375 H 213.172 -4.16095 0.0197215 0
M  V30 2376 H 212.048 -5.47305 -0.418188 0
M  V30 2377 H 212.309 -4.14493 -1.53778 0
M  V30 2378 N 211.368 -0.403325 -1.52352 0
M  V30 2379 C 212.278 0.432009 -2.30588 0
M  V30 2380 C 213.294 1.05884 -1.38075 0
M  V30 2381 O 214.47 1.06161 -1.71148 0
M  V30 2382 C 211.535 1.53669 -3.10784 0
M  V30 2383 C 210.596 0.933525 -4.19027 0
M  V30 2384 C 209.829 1.98557 -4.9539 0
M  V30 2385 O 210.052 3.20283 -4.71991 0
M  V30 2386 O 208.986 1.59504 -5.80381 0
M  V30 2387 H 212.812 -0.205739 -3.03002 0
M  V30 2388 H 210.397 -0.166675 -1.48467 0
M  V30 2389 H 212.279 2.17814 -3.60742 0
M  V30 2390 H 210.954 2.15915 -2.41169 0
M  V30 2391 H 209.861 0.254954 -3.7323 0
M  V30 2392 H 211.194 0.35508 -4.90918 0
M  V30 2393 N 212.846 1.57033 -0.133567 0
M  V30 2394 C 213.809 2.14897 0.796995 0
M  V30 2395 C 214.809 1.0874 1.18458 0
M  V30 2396 O 215.999 1.34446 1.1077 0
M  V30 2397 C 213.131 2.70112 2.07973 0
M  V30 2398 H 214.324 2.98457 0.293873 0
M  V30 2399 H 211.877 1.55871 0.115787 0
M  V30 2400 H 212.612 1.9018 2.62682 0
M  V30 2401 H 212.397 3.47764 1.81115 0
M  V30 2402 H 213.887 3.14738 2.74462 0
M  V30 2403 N 214.325 -0.140222 1.56975 0
M  V30 2404 C 215.602 -0.880769 1.74648 0
M  V30 2405 C 215.982 -1.99036 0.703404 0
M  V30 2406 O 215.33 -2.26821 -0.27648 0
M  V30 2407 C 215.54 -1.417 3.18939 0
M  V30 2408 C 216.888 -1.87774 3.80823 0
M  V30 2409 O 217.912 -1.51427 3.2241 0
M  V30 2410 O 216.771 -2.54827 4.83452 0
M  V30 2411 H 213.865 -0.416713 0.714338 0
M  V30 2412 H 216.411 -0.125618 1.69234 0
M  V30 2413 H 215.183 -0.619902 3.86359 0
M  V30 2414 H 214.806 -2.23546 3.28805 0
M  V30 2415 N 215.803 -1.52179 -0.40978 0
M  V30 2416 C 217.051 -1.65878 -1.15451 0
M  V30 2417 C 217.372 -0.390771 -1.91044 0
M  V30 2418 O 216.642 0.594323 -1.86667 0
M  V30 2419 H 215.222 -0.611405 -0.429177 0
M  V30 2420 H 217.884 -1.89219 -0.467134 0
M  V30 2421 H 216.98 -2.49954 -1.86894 0
M  V30 2422 N 217.281 0.66697 -1.42791 0
M  V30 2423 C 218.244 1.76211 -1.46568 0
M  V30 2424 C 219.244 1.56896 -0.352196 0
M  V30 2425 O 220.434 1.63044 -0.613364 0
M  V30 2426 C 217.566 3.14935 -1.30494 0
M  V30 2427 H 218.759 1.74247 -2.44086 0
M  V30 2428 H 216.312 0.877342 -1.29354 0
M  V30 2429 H 217.047 3.2252 -0.339301 0
M  V30 2430 H 216.832 3.30359 -2.11199 0
M  V30 2431 H 218.322 3.94821 -1.36038 0
M  V30 2432 N 218.759 1.29093 0.90403 0
M  V30 2433 C 220.005 1.17996 1.65676 0
M  V30 2434 C 220.36 -0.266816 1.90541 0
M  V30 2435 O 219.653 -1.19 1.50165 0
M  V30 2436 C 219.847 1.92224 3.01305 0
M  V30 2437 C 219.676 3.43972 2.89678 0
M  V30 2438 C 218.446 4.1332 2.90679 0
M  V30 2439 C 220.644 4.39546 2.67028 0
M  V30 2440 N 218.626 5.51463 2.69743 0
M  V30 2441 C 219.997 5.65119 2.5503 0
M  V30 2442 C 222.052 4.29359 2.52101 0
M  V30 2443 C 220.755 6.81663 2.29626 0
M  V30 2444 C 222.781 5.4565 2.28079 0
M  V30 2445 C 222.143 6.70193 2.16843 0
M  V30 2446 H 218.242 0.486759 0.612037 0
M  V30 2447 H 220.826 1.62868 1.06688 0
M  V30 2448 H 218.997 1.49773 3.58361 0
M  V30 2449 H 220.729 1.73429 3.65656 0
M  V30 2450 H 217.484 3.64984 3.01801 0
M  V30 2451 H 217.908 6.24105 2.6234 0
M  V30 2452 H 222.55 3.33769 2.59534 0
M  V30 2453 H 220.268 7.77313 2.20932 0
M  V30 2454 H 223.854 5.39664 2.1738 0
M  V30 2455 H 222.734 7.58659 1.98511 0
M  V30 2456 N 220.237 -1.11381 1.11499 0
M  V30 2457 C 221.483 -1.83403 0.865512 0
M  V30 2458 C 221.816 -1.84459 -0.607329 0
M  V30 2459 O 221.091 -1.29811 -1.44842 0
M  V30 2460 C 221.374 -3.30552 1.42855 0
M  V30 2461 C 221.227 -3.37886 2.96906 0
M  V30 2462 C 222.546 -4.26643 1.08 0
M  V30 2463 H 219.665 -0.665879 0.31587 0
M  V30 2464 H 222.307 -1.30601 1.37998 0
M  V30 2465 H 220.457 -3.75648 0.990985 0
M  V30 2466 H 222.129 -3.01343 3.49271 0
M  V30 2467 H 220.372 -2.78088 3.32941 0
M  V30 2468 H 221.043 -4.41458 3.31389 0
M  V30 2469 H 223.519 -3.89729 1.45775 0
M  V30 2470 H 222.395 -5.27986 1.50072 0
M  V30 2471 H 222.656 -4.42099 -0.00915037 0
M  V30 2472 N 221.715 -0.905404 -1.28997 0
M  V30 2473 C 222.961 -0.535039 -1.95615 0
M  V30 2474 C 223.294 0.917404 -1.71165 0
M  V30 2475 O 222.569 1.65123 -1.02785 0
M  V30 2476 C 222.852 -0.834918 -3.50287 0
M  V30 2477 C 222.705 -2.33948 -3.84172 0
M  V30 2478 C 224.024 -0.325318 -4.38896 0
M  V30 2479 H 221.143 -0.195861 -0.710498 0
M  V30 2480 H 223.785 -1.13313 -1.52513 0
M  V30 2481 H 221.935 -0.325904 -3.87131 0
M  V30 2482 H 223.607 -2.91847 -3.57243 0
M  V30 2483 H 221.85 -2.79789 -3.31513 0
M  V30 2484 H 222.521 -2.49987 -4.92149 0
M  V30 2485 H 224.997 -0.761256 -4.09077 0
M  V30 2486 H 223.873 -0.564295 -5.45992 0
M  V30 2487 H 224.134 0.774144 -4.35269 0
M  V30 2488 N 223.193 1.4272 -0.668489 0
M  V30 2489 C 224.14 2.30796 0.0137489 0
M  V30 2490 C 225.11 1.4561 0.799177 0
M  V30 2491 O 226.295 1.74453 0.772702 0
M  V30 2492 C 223.435 3.31377 0.963507 0
M  V30 2493 C 222.548 4.31655 0.172569 0
M  V30 2494 C 221.683 5.19312 1.1175 0
M  V30 2495 C 220.722 6.11274 0.317886 0
M  V30 2496 N 219.859 6.91504 1.2152 0
M  V30 2497 H 224.699 2.88585 -0.743161 0
M  V30 2498 H 222.236 1.42154 -0.378226 0
M  V30 2499 H 224.194 3.88214 1.52792 0
M  V30 2500 H 222.824 2.75202 1.68712 0
M  V30 2501 H 221.876 3.76988 -0.508374 0
M  V30 2502 H 223.188 4.96779 -0.448527 0
M  V30 2503 H 222.342 5.80851 1.75206 0
M  V30 2504 H 221.081 4.5435 1.77249 0
M  V30 2505 H 220.086 5.48809 -0.329918 0
M  V30 2506 H 221.311 6.78283 -0.332917 0
M  V30 2507 H 219.257 6.29176 1.85671 0
M  V30 2508 H 219.174 7.53209 0.649036 0
M  V30 2509 H 220.442 7.57535 1.83742 0
M  V30 2510 N 224.671 0.411399 1.52136 0
M  V30 2511 C 225.604 -0.457614 2.23565 0
M  V30 2512 C 226.582 -1.04613 1.24478 0
M  V30 2513 O 227.766 -1.09356 1.53536 0
M  V30 2514 C 224.893 -1.6354 2.96602 0
M  V30 2515 C 223.939 -1.17005 4.10137 0
M  V30 2516 S 224.772 -0.13333 5.35334 0
M  V30 2517 C 225.928 -1.31638 6.119 0
M  V30 2518 H 226.161 0.148883 2.96927 0
M  V30 2519 H 223.694 0.195713 1.53155 0
M  V30 2520 H 225.652 -2.31074 3.39286 0
M  V30 2521 H 224.313 -2.21324 2.22878 0
M  V30 2522 H 223.506 -2.05005 4.60422 0
M  V30 2523 H 223.108 -0.573319 3.6958 0
M  V30 2524 H 225.4 -2.23957 6.39413 0
M  V30 2525 H 226.343 -0.854014 7.02931 0
M  V30 2526 H 226.751 -1.54321 5.42997 0
M  V30 2527 N 226.149 -1.5696 0.141893 0
M  V30 2528 C 227.396 -1.9596 -0.510492 0
M  V30 2529 C 227.724 -1.02648 -1.65208 0
M  V30 2530 O 226.979 -0.0546947 -1.95624 0
M  V30 2531 C 227.278 -3.41242 -1.06249 0
M  V30 2532 C 226.944 -4.50882 -0.0398791 0
M  V30 2533 C 225.606 -4.80595 0.241247 0
M  V30 2534 C 227.958 -5.17058 0.65578 0
M  V30 2535 C 225.286 -5.73792 1.22393 0
M  V30 2536 C 227.638 -6.11313 1.62724 0
M  V30 2537 C 226.302 -6.39407 1.91612 0
M  V30 2538 H 225.572 -0.717068 -0.186802 0
M  V30 2539 H 228.219 -1.90142 0.227643 0
M  V30 2540 H 226.524 -3.43866 -1.87785 0
M  V30 2541 H 228.221 -3.68742 -1.57576 0
M  V30 2542 H 224.811 -4.27754 -0.269174 0
M  V30 2543 H 228.995 -4.94239 0.451779 0
M  V30 2544 H 224.251 -5.93853 1.45424 0
M  V30 2545 H 228.425 -6.61668 2.17183 0
M  V30 2546 H 226.052 -7.11427 2.6791 0
M  V30 2547 N 227.627 0.131896 -1.57047 0
M  V30 2548 C 228.857 0.855219 -1.88068 0
M  V30 2549 C 229.265 1.74557 -0.729817 0
M  V30 2550 O 228.608 1.81083 0.308962 0
M  V30 2551 C 228.67 1.75119 -3.13964 0
M  V30 2552 C 228.334 1.03646 -4.45091 0
M  V30 2553 C 229.331 0.383276 -5.18485 0
M  V30 2554 C 227.016 1.02148 -4.91804 0
M  V30 2555 C 229.01 -0.275347 -6.36805 0
M  V30 2556 C 226.697 0.359047 -6.10044 0
M  V30 2557 C 227.695 -0.288222 -6.82392 0
M  V30 2558 O 227.383 -0.94011 -7.98384 0
M  V30 2559 H 227.115 0.251864 -0.627328 0
M  V30 2560 H 229.669 0.124782 -2.05021 0
M  V30 2561 H 227.899 2.52295 -2.9306 0
M  V30 2562 H 229.588 2.3478 -3.31109 0
M  V30 2563 H 230.354 0.386562 -4.83457 0
M  V30 2564 H 226.233 1.5147 -4.35405 0
M  V30 2565 H 229.777 -0.781148 -6.93213 0
M  V30 2566 H 225.674 0.35348 -6.44531 0
M  V30 2567 H 226.442 -0.84329 -8.14144 0
M  V30 2568 N 229.106 1.52395 0.401703 0
M  V30 2569 C 230.331 1.70972 1.17403 0
M  V30 2570 C 230.756 0.421615 1.83314 0
M  V30 2571 O 230.114 -0.621564 1.70312 0
M  V30 2572 C 230.162 2.85151 2.20728 0
M  V30 2573 O 229.266 2.51238 3.27037 0
M  V30 2574 H 228.607 0.568927 0.342372 0
M  V30 2575 H 231.137 1.99131 0.469891 0
M  V30 2576 H 231.147 3.10279 2.64936 0
M  V30 2577 H 229.822 3.78603 1.7214 0
M  V30 2578 H 228.399 2.36808 2.88057 0
M  V30 2579 N 230.584 -0.659388 1.43143 0
M  V30 2580 C 231.831 -1.41935 1.44433 0
M  V30 2581 C 232.159 -1.94387 0.0663522 0
M  V30 2582 O 231.414 -1.72314 -0.927706 0
M  V30 2583 C 231.713 -2.62206 2.42864 0
M  V30 2584 C 231.379 -2.28208 3.88886 0
M  V30 2585 C 230.041 -2.18647 4.28657 0
M  V30 2586 C 232.393 -2.00887 4.8093 0
M  V30 2587 C 229.721 -1.79914 5.58433 0
M  V30 2588 C 232.073 -1.63653 6.11065 0
M  V30 2589 C 230.737 -1.52614 6.49819 0
M  V30 2590 H 230.007 -0.519376 0.528517 0
M  V30 2591 H 232.654 -0.750453 1.76183 0
M  V30 2592 H 230.959 -3.34199 2.04495 0
M  V30 2593 H 232.656 -3.2041 2.41119 0
M  V30 2594 H 229.246 -2.36557 3.57406 0
M  V30 2595 H 233.43 -2.07198 4.5098 0
M  V30 2596 H 228.686 -1.69948 5.87305 0
M  V30 2597 H 232.86 -1.41543 6.81864 0
M  V30 2598 H 230.487 -1.22371 7.50286 0
M  V30 2599 N 232.062 -1.29571 -0.897171 0
M  V30 2600 C 232.994 -1.10724 -2.00681 0
M  V30 2601 C 234.007 -0.0540026 -1.6271 0
M  V30 2602 O 235.196 -0.298783 -1.75982 0
M  V30 2603 C 232.296 -0.663912 -3.32333 0
M  V30 2604 C 231.469 -1.79622 -3.98816 0
M  V30 2605 C 230.528 -1.34349 -5.0876 0
M  V30 2606 O 229.554 -2.04864 -5.31055 0
M  V30 2607 N 230.756 -0.215764 -5.80099 0
M  V30 2608 H 233.521 -2.06291 -2.17403 0
M  V30 2609 H 231.082 -1.21544 -1.06951 0
M  V30 2610 H 233.074 -0.344295 -4.03233 0
M  V30 2611 H 231.644 0.199375 -3.11964 0
M  V30 2612 H 230.864 -2.28459 -3.21248 0
M  V30 2613 H 232.152 -2.55535 -4.39976 0
M  V30 2614 H 231.55 0.372091 -5.64475 0
M  V30 2615 H 230.107 0.0444707 -6.51785 0
M  V30 2616 N 233.54 1.10788 -1.12088 0
M  V30 2617 C 234.817 1.79136 -0.785476 0
M  V30 2618 C 235.197 1.98246 0.725377 0
M  V30 2619 O 234.545 1.57258 1.65778 0
M  V30 2620 C 234.755 3.12375 -1.55636 0
M  V30 2621 C 236.103 3.8731 -1.74001 0
M  V30 2622 O 237.127 3.22085 -1.52117 0
M  V30 2623 O 235.986 5.04369 -2.10415 0
M  V30 2624 H 233.08 0.776226 -0.285311 0
M  V30 2625 H 235.626 1.1747 -1.2247 0
M  V30 2626 H 234.398 2.93863 -2.5838 0
M  V30 2627 H 234.021 3.81758 -1.11114 0
M  V30 2628 N 235.018 0.912232 1.28515 0
M  V30 2629 C 235.965 0.397954 2.27343 0
M  V30 2630 C 236.935 -0.526766 1.57526 0
M  V30 2631 O 238.12 -0.449292 1.85435 0
M  V30 2632 C 235.26 -0.357263 3.43246 0
M  V30 2633 C 234.373 0.599788 4.27816 0
M  V30 2634 C 233.508 -0.173725 5.30916 0
M  V30 2635 C 232.547 0.777039 6.07148 0
M  V30 2636 N 231.684 0.0371398 7.0209 0
M  V30 2637 H 236.524 1.24577 2.70711 0
M  V30 2638 H 234.061 0.625612 1.33133 0
M  V30 2639 H 236.019 -0.8113 4.09236 0
M  V30 2640 H 234.649 -1.16943 3.00872 0
M  V30 2641 H 233.701 1.17235 3.61884 0
M  V30 2642 H 235.013 1.32704 4.80823 0
M  V30 2643 H 234.167 -0.688394 6.02782 0
M  V30 2644 H 232.906 -0.934041 4.78672 0
M  V30 2645 H 231.911 1.3031 5.34134 0
M  V30 2646 H 233.136 1.53689 6.61481 0
M  V30 2647 H 231.082 -0.705213 6.52198 0
M  V30 2648 H 230.999 0.704249 7.52713 0
M  V30 2649 H 232.267 -0.457383 7.78157 0
M  V30 2650 N 236.496 -1.42363 0.676048 0
M  V30 2651 C 237.912 -1.55811 0.345718 0
M  V30 2652 C 238.112 -1.65544 -1.14879 0
M  V30 2653 O 237.168 -1.62306 -1.93424 0
M  V30 2654 C 238.481 -2.80746 1.07713 0
M  V30 2655 C 240.029 -2.9452 1.05958 0
M  V30 2656 C 240.504 -4.22318 1.77233 0
M  V30 2657 N 241.995 -4.29233 1.74108 0
M  V30 2658 C 242.73 -5.26935 2.26113 0
M  V30 2659 N 242.226 -6.30783 2.86505 0
M  V30 2660 N 244.019 -5.18741 2.1648 0
M  V30 2661 H 236.17 -1.34289 1.6456 0
M  V30 2662 H 238.433 -0.646506 0.69335 0
M  V30 2663 H 238.139 -2.79696 2.13221 0
M  V30 2664 H 238.013 -3.71676 0.64316 0
M  V30 2665 H 240.4 -2.95097 0.0128255 0
M  V30 2666 H 240.481 -2.04817 1.53244 0
M  V30 2667 H 240.125 -4.22502 2.81877 0
M  V30 2668 H 240.055 -5.10958 1.27396 0
M  V30 2669 H 242.546 -3.54814 1.30059 0
M  V30 2670 H 242.859 -7.01691 3.23805 0
M  V30 2671 H 241.204 -6.31341 2.90575 0
M  V30 2672 H 244.395 -4.36533 1.68987 0
M  V30 2673 H 244.568 -5.94721 2.57316 0
M  V30 2674 N 237.974 -0.419461 -1.51915 0
M  V30 2675 C 238.922 0.415502 -2.28859 0
M  V30 2676 C 239.916 1.03674 -1.3397 0
M  V30 2677 O 241.122 0.973757 -1.51387 0
M  V30 2678 H 237.497 0.152786 -0.736315 0
M  V30 2679 H 239.468 -0.254531 -2.97312 0
M  V30 2680 C 238.217 1.51425 -3.12995 0
M  V30 2681 H 237.54 1.04556 -3.85886 0
M  V30 2682 H 238.98 2.07208 -3.6992 0
M  V30 2683 C 237.439 2.48745 -2.27217 0
M  V30 2684 O 237.969 3.52871 -1.9195 0
M  V30 2685 N 236.175 2.19202 -1.90785 0
M  V30 2686 H 235.722 1.34556 -2.19664 0
M  V30 2687 H 235.68 2.84561 -1.33687 0
M  V30 2688 N 239.452 1.56882 -0.150215 0
M  V30 2689 C 240.382 2.19935 0.784284 0
M  V30 2690 C 241.363 1.14854 1.25469 0
M  V30 2691 O 242.548 1.43209 1.31168 0
M  V30 2692 C 239.678 2.82349 2.02229 0
M  V30 2693 C 238.632 3.93285 1.68853 0
M  V30 2694 C 237.958 4.42649 2.99944 0
M  V30 2695 C 239.258 5.13904 0.932714 0
M  V30 2696 H 240.952 2.9828 0.258781 0
M  V30 2697 H 238.498 1.43473 0.123029 0
M  V30 2698 H 240.451 3.25126 2.68088 0
M  V30 2699 H 239.175 2.0134 2.57157 0
M  V30 2700 H 237.834 3.5113 1.05371 0
M  V30 2701 H 237.482 3.58458 3.52869 0
M  V30 2702 H 237.182 5.17476 2.78374 0
M  V30 2703 H 238.706 4.88099 3.66868 0
M  V30 2704 H 240.12 5.53506 1.49345 0
M  V30 2705 H 238.517 5.94515 0.81684 0
M  V30 2706 H 239.587 4.84842 -0.0749568 0
M  V30 2707 N 240.93 -0.123565 1.57115 0
M  V30 2708 C 242.16 -0.845233 1.88519 0
M  V30 2709 C 242.568 -1.74168 0.739064 0
M  V30 2710 O 241.911 -1.81244 -0.299355 0
M  V30 2711 C 241.973 -1.73452 3.14888 0
M  V30 2712 C 241.637 -1.01285 4.45635 0
M  V30 2713 C 242.634 -0.355774 5.18681 0
M  V30 2714 C 240.319 -0.99538 4.92339 0
M  V30 2715 C 242.313 0.309114 6.3665 0
M  V30 2716 C 240 -0.32669 6.10226 0
M  V30 2717 C 240.998 0.324406 6.82229 0
M  V30 2718 O 240.686 0.982437 7.97874 0
M  V30 2719 H 240.418 -0.248534 0.628655 0
M  V30 2720 H 242.972 -0.113907 2.05084 0
M  V30 2721 H 241.202 -2.50737 2.94394 0
M  V30 2722 H 242.891 -2.33021 3.32349 0
M  V30 2723 H 243.657 -0.360918 4.83655 0
M  V30 2724 H 239.536 -1.49159 4.36202 0
M  V30 2725 H 243.08 0.8179 6.92789 0
M  V30 2726 H 238.977 -0.319294 6.4471 0
M  V30 2727 H 239.745 0.886454 8.13686 0
M  V30 2728 N 242.408 -1.52605 -0.393616 0
M  V30 2729 C 243.338 -1.80022 -1.48709 0
M  V30 2730 C 244.319 -0.651995 -1.57108 0
M  V30 2731 O 245.504 -0.89913 -1.72132 0
M  V30 2732 C 242.634 -1.96492 -2.86371 0
M  V30 2733 C 241.588 -3.12161 -2.92813 0
M  V30 2734 C 240.914 -3.13877 -4.3288 0
M  V30 2735 C 242.214 -4.51322 -2.6288 0
M  V30 2736 H 243.908 -2.71589 -1.26015 0
M  V30 2737 H 241.454 -1.30684 -0.604778 0
M  V30 2738 H 243.407 -2.14255 -3.62867 0
M  V30 2739 H 242.131 -1.01611 -3.10391 0
M  V30 2740 H 240.79 -2.94173 -2.18764 0
M  V30 2741 H 240.438 -2.16687 -4.53933 0
M  V30 2742 H 240.138 -3.91576 -4.38112 0
M  V30 2743 H 241.662 -3.33789 -5.1129 0
M  V30 2744 H 243.076 -4.69435 -3.29096 0
M  V30 2745 H 241.473 -5.31053 -2.79468 0
M  V30 2746 H 242.543 -4.58353 -1.58242 0
M  V30 2747 N 243.887 0.651787 -1.4349 0
M  V30 2748 C 245.136 1.40754 -1.44469 0
M  V30 2749 C 245.449 1.95463 -0.0731845 0
M  V30 2750 O 246.655 2.71471 0.0395721 0
M  V30 2751 C 245.111 2.54735 -2.5424 0
M  V30 2752 C 244.719 2.06628 -3.97504 0
M  V30 2753 C 246.463 3.32092 -2.64414 0
M  V30 2754 C 244.37 3.17829 -4.98737 0
M  V30 2755 H 243.3 0.528862 -0.53742 0
M  V30 2756 H 245.951 0.703365 -1.69485 0
M  V30 2757 H 244.333 3.2763 -2.22428 0
M  V30 2758 H 245.507 1.40734 -4.38783 0
M  V30 2759 H 243.822 1.42146 -3.91387 0
M  V30 2760 H 246.419 4.14952 -3.37223 0
M  V30 2761 H 246.762 3.80217 -1.69532 0
M  V30 2762 H 247.295 2.66279 -2.95534 0
M  V30 2763 H 244.034 2.74671 -5.95177 0
M  V30 2764 H 243.554 3.82429 -4.62069 0
M  V30 2765 H 245.233 3.82937 -5.21505 0
M  V30 2766 N 245.365 1.30045 0.890287 0
M  V30 2767 C 246.298 1.10301 1.99772 0
M  V30 2768 C 247.276 0.0121631 1.62595 0
M  V30 2769 O 248.46 0.16469 1.87779 0
M  V30 2770 C 245.587 0.681125 3.31781 0
M  V30 2771 C 244.633 1.77206 3.87944 0
M  V30 2772 S 245.466 3.37335 4.15891 0
M  V30 2773 C 246.622 2.97036 5.50927 0
M  V30 2774 H 246.855 2.04057 2.16213 0
M  V30 2775 H 244.388 1.14299 1.03804 0
M  V30 2776 H 246.346 0.444439 4.08087 0
M  V30 2777 H 245.007 -0.236981 3.13205 0
M  V30 2778 H 244.2 1.42903 4.83316 0
M  V30 2779 H 243.802 1.96275 3.18358 0
M  V30 2780 H 246.094 2.44666 6.31779 0
M  V30 2781 H 247.037 3.91296 5.90164 0
M  V30 2782 H 247.445 2.35057 5.13233 0
M  V30 2783 N 246.843 -1.10192 1.12674 0
M  V30 2784 C 247.753 -2.20172 0.810026 0
M  V30 2785 C 248.769 -1.72821 -0.202188 0
M  V30 2786 O 249.945 -2.01369 -0.0351691 0
M  V30 2787 C 247.01 -3.45631 0.272007 0
M  V30 2788 C 246.071 -4.07704 1.34447 0
M  V30 2789 C 245.304 -5.27175 0.832029 0
M  V30 2790 O 245.527 -5.69425 -0.333284 0
M  V30 2791 O 244.461 -5.80168 1.60277 0
M  V30 2792 H 248.287 -2.49701 1.72867 0
M  V30 2793 H 245.872 -1.18977 0.903597 0
M  V30 2794 H 247.754 -4.21394 -0.0230219 0
M  V30 2795 H 246.429 -3.17723 -0.619164 0
M  V30 2796 H 245.336 -3.33614 1.6927 0
M  V30 2797 H 246.669 -4.3982 2.2095 0
M  V30 2798 N 248.321 -0.919034 -1.28029 0
M  V30 2799 C 249.568 -0.554934 -1.94748 0
M  V30 2800 C 249.896 0.90231 -1.72304 0
M  V30 2801 O 249.151 1.65767 -1.04018 0
M  V30 2802 C 249.45 -0.816855 -3.4794 0
M  V30 2803 C 249.116 -2.25448 -3.90492 0
M  V30 2804 C 247.778 -2.64752 -4.01821 0
M  V30 2805 C 250.13 -3.18977 -4.12193 0
M  V30 2806 C 247.458 -3.96727 -4.32232 0
M  V30 2807 C 249.81 -4.50523 -4.44086 0
M  V30 2808 C 248.474 -4.89673 -4.53626 0
M  V30 2809 H 247.744 -0.203065 -0.712633 0
M  V30 2810 H 250.391 -1.16136 -1.52265 0
M  V30 2811 H 248.696 -0.127677 -3.91592 0
M  V30 2812 H 250.393 -0.514238 -3.97689 0
M  V30 2813 H 246.983 -1.93952 -3.82205 0
M  V30 2814 H 251.167 -2.89817 -4.02889 0
M  V30 2815 H 246.423 -4.26754 -4.37825 0
M  V30 2816 H 250.597 -5.23005 -4.59825 0
M  V30 2817 H 248.224 -5.91969 -4.76946 0
M  V30 2818 N 249.799 1.42003 -0.683588 0
M  V30 2819 C 250.729 2.33487 -0.024866 0
M  V30 2820 C 251.71 1.51163 0.779975 0
M  V30 2821 O 252.895 1.79739 0.735362 0
M  V30 2822 C 250.025 3.3487 0.920836 0
M  V30 2823 C 248.979 4.27414 0.223958 0
M  V30 2824 C 248.305 5.19074 1.2832 0
M  V30 2825 C 249.605 5.14445 -0.90242 0
M  V30 2826 H 251.299 2.88819 -0.788921 0
M  V30 2827 H 248.845 1.38873 -0.38083 0
M  V30 2828 H 250.798 3.97787 1.39081 0
M  V30 2829 H 249.522 2.77861 1.71642 0
M  V30 2830 H 248.181 3.65904 -0.225864 0
M  V30 2831 H 247.829 4.58387 2.071 0
M  V30 2832 H 247.529 5.81822 0.821995 0
M  V30 2833 H 249.053 5.84867 1.75392 0
M  V30 2834 H 250.467 5.70998 -0.513272 0
M  V30 2835 H 248.864 5.86072 -1.28997 0
M  V30 2836 H 249.934 4.52322 -1.74737 0
M  V30 2837 N 251.277 0.427512 1.51691 0
M  V30 2838 C 252.688 -0.0378867 1.86662 0
M  V30 2839 C 253.039 -1.42819 1.34525 0
M  V30 2840 O 252.164 -2.05037 0.692014 0
M  V30 2841 C 252.759 -0.0755266 3.38716 0
M  V30 2842 C 251.318 -0.485309 3.73258 0
M  V30 2843 C 250.465 0.328399 2.75349 0
M  V30 2844 H 253.416 0.64379 1.45055 0
M  V30 2845 H 253.437 -0.887056 3.70016 0
M  V30 2846 H 252.949 0.936487 3.76632 0
M  V30 2847 H 251.05 -1.50329 3.40928 0
M  V30 2848 H 251.163 -0.21693 4.78609 0
M  V30 2849 H 249.527 -0.211905 2.53817 0
M  V30 2850 H 250.31 1.3391 3.16106 0
M  V30 2851 N 252.755 -1.56801 0.158532 0
M  V30 2852 C 254.003 -1.96102 -0.488712 0
M  V30 2853 C 254.324 -1.04498 -1.64636 0
M  V30 2854 O 253.594 -0.108783 -1.95598 0
M  V30 2855 H 252.174 -0.724102 -0.183535 0
M  V30 2856 H 254.836 -1.93457 0.236728 0
M  V30 2857 H 253.932 -3.00097 -0.857219 0
M  V30 2858 N 254.233 0.115231 -1.57178 0
M  V30 2859 C 255.481 0.820727 -1.84685 0
M  V30 2860 C 255.802 1.80237 -0.744279 0
M  V30 2861 O 255.072 1.94529 0.231375 0
M  V30 2862 H 253.652 0.306084 -0.681411 0
M  V30 2863 H 256.314 0.101656 -1.94635 0
M  V30 2864 H 255.41 1.36366 -2.80733 0
M  V30 2865 N 255.711 1.52812 0.385517 0
M  V30 2866 C 256.988 1.5861 1.14465 0
M  V30 2867 C 257.368 0.381402 2.07626 0
M  V30 2868 O 256.716 -0.629999 2.19643 0
M  V30 2869 C 256.926 2.92664 1.90128 0
M  V30 2870 C 258.274 3.46526 2.45367 0
M  V30 2871 O 259.298 2.94562 2.0028 0
M  V30 2872 O 258.157 4.37323 3.27736 0
M  V30 2873 H 255.251 0.639855 0.523941 0
M  V30 2874 H 257.797 1.65149 0.390389 0
M  V30 2875 H 256.569 3.71788 1.22022 0
M  V30 2876 H 256.192 2.89527 2.72507 0
M  V30 2877 N 257.189 -0.644168 1.43834 0
M  V30 2878 C 258.122 -1.76906 1.44151 0
M  V30 2879 C 259.1 -1.59774 0.301857 0
M  V30 2880 O 260.284 -1.81834 0.496841 0
M  V30 2881 C 257.411 -3.14321 1.26174 0
M  V30 2882 C 256.457 -3.50134 2.43533 0
M  V30 2883 S 257.29 -3.49085 4.06079 0
M  V30 2884 C 258.446 -4.89142 3.90501 0
M  V30 2885 H 258.679 -1.76368 2.39336 0
M  V30 2886 H 256.212 -0.817624 1.30974 0
M  V30 2887 H 258.17 -3.93625 1.16489 0
M  V30 2888 H 256.831 -3.12412 0.325224 0
M  V30 2889 H 256.024 -4.50095 2.26783 0
M  V30 2890 H 255.626 -2.78264 2.4989 0
M  V30 2891 H 257.918 -5.78036 3.53385 0
M  V30 2892 H 258.861 -5.10945 4.90246 0
M  V30 2893 H 259.269 -4.63102 3.22795 0
M  V30 2894 N 258.668 -1.30515 -0.883378 0
M  V30 2895 C 259.601 -1.11359 -1.99184 0
M  V30 2896 C 260.579 -0.0207858 -1.62587 0
M  V30 2897 O 261.763 -0.174646 -1.87689 0
M  V30 2898 C 258.89 -0.69871 -3.31415 0
M  V30 2899 C 257.936 -1.79261 -3.86998 0
M  V30 2900 S 258.769 -3.39536 -4.14096 0
M  V30 2901 C 259.925 -2.99954 -5.49344 0
M  V30 2902 H 260.158 -2.052 -2.15128 0
M  V30 2903 H 257.691 -1.14847 -1.03196 0
M  V30 2904 H 259.649 -0.466075 -4.07846 0
M  V30 2905 H 258.31 0.220368 -3.13326 0
M  V30 2906 H 257.503 -1.45464 -4.82552 0
M  V30 2907 H 257.105 -1.97961 -3.17313 0
M  V30 2908 H 259.397 -2.48013 -6.30473 0
M  V30 2909 H 260.34 -3.9442 -5.8808 0
M  V30 2910 H 260.748 -2.37775 -5.1198 0
M  V30 2911 N 260.146 1.09593 -1.13257 0
M  V30 2912 C 261.374 1.855 -0.916378 0
M  V30 2913 C 261.789 1.81069 0.534738 0
M  V30 2914 O 261.146 1.20562 1.37007 0
M  V30 2915 C 261.197 3.33546 -1.39388 0
M  V30 2916 O 260.918 3.37927 -2.78813 0
M  V30 2917 C 262.419 4.26299 -1.21588 0
M  V30 2918 H 259.639 0.585991 -0.326887 0
M  V30 2919 H 262.183 1.38488 -1.5047 0
M  V30 2920 H 260.338 3.77992 -0.848597 0
M  V30 2921 H 260.752 4.30254 -2.9997 0
M  V30 2922 H 262.226 5.28341 -1.59876 0
M  V30 2923 H 262.703 4.38918 -0.157376 0
M  V30 2924 H 263.309 3.87668 -1.7491 0
M  V30 2925 N 261.624 0.925811 1.2754 0
M  V30 2926 C 262.554 0.440748 2.29303 0
M  V30 2927 C 263.535 -0.497971 1.62648 0
M  V30 2928 O 264.72 -0.403126 1.8997 0
M  V30 2929 C 261.85 -0.309048 3.45922 0
M  V30 2930 C 260.804 0.54166 4.24559 0
M  V30 2931 C 260.13 -0.337191 5.33636 0
M  V30 2932 C 261.43 1.80516 4.90114 0
M  V30 2933 H 263.124 1.29121 2.70126 0
M  V30 2934 H 260.67 0.622323 1.29858 0
M  V30 2935 H 262.623 -0.659315 4.1621 0
M  V30 2936 H 261.347 -1.19352 3.04011 0
M  V30 2937 H 260.006 0.874609 3.56014 0
M  V30 2938 H 259.654 -1.22056 4.87966 0
M  V30 2939 H 259.354 0.228497 5.87156 0
M  V30 2940 H 260.878 -0.683072 6.06767 0
M  V30 2941 H 262.292 1.52307 5.52698 0
M  V30 2942 H 260.689 2.3142 5.53683 0
M  V30 2943 H 261.759 2.52581 4.13921 0
M  V30 2944 N 263.102 -1.41638 0.69111 0
M  V30 2945 C 264.032 -2.3347 0.037248 0
M  V30 2946 C 265.013 -1.51575 -0.771947 0
M  V30 2947 O 266.198 -1.80126 -0.72582 0
M  V30 2948 C 263.328 -3.35354 -0.903064 0
M  V30 2949 C 262.282 -4.27526 -0.201288 0
M  V30 2950 C 261.608 -5.19747 -1.25565 0
M  V30 2951 C 262.908 -5.13959 0.929689 0
M  V30 2952 H 264.602 -2.88397 0.804227 0
M  V30 2953 H 262.148 -1.38669 0.388189 0
M  V30 2954 H 264.101 -3.98519 -1.36969 0
M  V30 2955 H 262.825 -2.78767 -1.70166 0
M  V30 2956 H 261.484 -3.65779 0.245265 0
M  V30 2957 H 261.132 -4.59479 -2.04666 0
M  V30 2958 H 260.832 -5.8225 -0.791128 0
M  V30 2959 H 262.356 -5.85789 -1.72288 0
M  V30 2960 H 263.77 -5.70718 0.543546 0
M  V30 2961 H 262.167 -5.85379 1.32103 0
M  V30 2962 H 263.237 -4.51389 1.77133 0
M  V30 2963 N 264.58 -0.43555 -1.51462 0
M  V30 2964 C 265.513 0.421989 -2.24264 0
M  V30 2965 C 266.491 1.02619 -1.26127 0
M  V30 2966 O 267.675 1.069 -1.55257 0
M  V30 2967 C 264.802 1.588 -2.99166 0
M  V30 2968 C 263.848 1.10465 -4.11946 0
M  V30 2969 S 264.681 0.048146 -5.35478 0
M  V30 2970 C 265.837 1.21887 -6.13917 0
M  V30 2971 H 266.07 -0.196102 -2.96653 0
M  V30 2972 H 263.603 -0.220054 -1.52824 0
M  V30 2973 H 265.561 2.25647 -3.42919 0
M  V30 2974 H 264.222 2.1775 -2.26371 0
M  V30 2975 H 263.415 1.97654 -4.63626 0
M  V30 2976 H 263.017 0.51445 -3.70445 0
M  V30 2977 H 265.309 2.13756 -6.42895 0
M  V30 2978 H 266.252 0.742076 -7.04201 0
M  V30 2979 H 266.66 1.45663 -5.45383 0
M  V30 2980 N 266.058 1.56714 -0.166846 0
M  V30 2981 C 267.005 2.17746 0.765193 0
M  V30 2982 C 267.975 1.11614 1.23011 0
M  V30 2983 O 269.16 1.39745 1.29908 0
M  V30 2984 C 266.3 2.81882 1.9909 0
M  V30 2985 C 265.413 4.02462 1.56997 0
M  V30 2986 C 264.548 4.54537 2.749 0
M  V30 2987 C 263.587 5.67538 2.29275 0
M  V30 2988 N 262.724 6.14142 3.40255 0
M  V30 2989 H 267.564 2.97048 0.237952 0
M  V30 2990 H 265.101 1.4672 0.105725 0
M  V30 2991 H 267.059 3.17221 2.70974 0
M  V30 2992 H 265.689 2.05191 2.49192 0
M  V30 2993 H 264.741 3.72973 0.748037 0
M  V30 2994 H 266.053 4.84273 1.19503 0
M  V30 2995 H 265.207 4.92035 3.54946 0
M  V30 2996 H 263.946 3.71774 3.1565 0
M  V30 2997 H 262.951 5.29597 1.47674 0
M  V30 2998 H 264.176 6.52099 1.89588 0
M  V30 2999 H 262.122 5.3431 3.8059 0
M  V30 3000 H 262.039 6.9093 3.06841 0
M  V30 3001 H 263.307 6.56289 4.206 0
M  V30 3002 N 267.536 -0.106894 1.57237 0
M  V30 3003 C 268.483 -1.13049 2.01217 0
M  V30 3004 C 269.453 -1.40471 0.886403 0
M  V30 3005 O 270.638 -1.52133 1.15153 0
M  V30 3006 C 267.778 -2.4487 2.43172 0
M  V30 3007 C 266.891 -2.24281 3.69218 0
M  V30 3008 C 266.026 -3.49417 4.00101 0
M  V30 3009 C 265.065 -3.24038 5.19294 0
M  V30 3010 N 264.202 -4.41409 5.45988 0
M  V30 3011 H 269.042 -0.748456 2.88448 0
M  V30 3012 H 266.579 -0.358054 1.42676 0
M  V30 3013 H 268.537 -3.21786 2.65537 0
M  V30 3014 H 267.167 -2.80944 1.58967 0
M  V30 3015 H 266.219 -1.38224 3.54398 0
M  V30 3016 H 267.531 -2.01512 4.56283 0
M  V30 3017 H 266.685 -4.34746 4.2318 0
M  V30 3018 H 265.424 -3.75229 3.11535 0
M  V30 3019 H 264.429 -2.37102 4.96047 0
M  V30 3020 H 265.654 -2.99584 6.09447 0
M  V30 3021 H 263.6 -4.67319 4.60379 0
M  V30 3022 H 263.517 -4.21788 6.274 0
M  V30 3023 H 264.785 -5.27836 5.73593 0
M  V30 3024 N 269.014 -1.53014 -0.377408 0
M  V30 3025 C 270.291 -1.59215 -1.13622 0
M  V30 3026 C 270.671 -0.392407 -2.07421 0
M  V30 3027 O 270.019 0.618342 -2.19975 0
M  V30 3028 C 270.229 -2.93669 -1.88573 0
M  V30 3029 C 271.577 -3.47822 -2.43526 0
M  V30 3030 O 272.601 -2.9562 -1.98715 0
M  V30 3031 O 271.46 -4.39055 -3.25412 0
M  V30 3032 H 268.554 -0.642625 -0.52054 0
M  V30 3033 H 271.1 -1.65353 -0.381625 0
M  V30 3034 H 269.872 -3.7243 -1.20048 0
M  V30 3035 H 269.495 -2.90968 -2.70968 0
M  V30 3036 N 270.492 0.636531 -1.44174 0
M  V30 3037 C 271.72 1.42353 -1.50144 0
M  V30 3038 C 272.135 1.88389 -0.124575 0
M  V30 3039 O 271.492 1.6051 0.868489 0
M  V30 3040 C 271.543 2.64744 -2.46156 0
M  V30 3041 O 271.264 2.20629 -3.7849 0
M  V30 3042 C 272.765 3.57929 -2.61537 0
M  V30 3043 H 269.985 0.436752 -0.5094 0
M  V30 3044 H 272.529 0.778933 -1.89084 0
M  V30 3045 H 270.684 3.25307 -2.10366 0
M  V30 3046 H 271.098 2.99938 -4.30276 0
M  V30 3047 H 272.572 4.40428 -3.32757 0
M  V30 3048 H 273.049 4.06382 -1.66585 0
M  V30 3049 H 273.655 3.03238 -2.98206 0
M  V30 3050 N 271.97 1.30982 0.876444 0
M  V30 3051 C 272.9 1.20668 1.99903 0
M  V30 3052 C 273.881 0.095354 1.69833 0
M  V30 3053 O 275.066 0.27885 1.92188 0
M  V30 3054 C 272.196 0.90655 3.3526 0
M  V30 3055 C 271.15 1.97675 3.79617 0
M  V30 3056 C 270.476 1.52943 5.1236 0
M  V30 3057 C 271.776 3.389 3.97422 0
M  V30 3058 H 273.47 2.14586 2.0879 0
M  V30 3059 H 271.016 1.03308 1.00317 0
M  V30 3060 H 272.969 0.821025 4.13324 0
M  V30 3061 H 271.693 -0.0682969 3.26529 0
M  V30 3062 H 270.352 2.05205 3.03787 0
M  V30 3063 H 270 0.54262 5.00065 0
M  V30 3064 H 269.7 2.24532 5.43009 0
M  V30 3065 H 271.224 1.45786 5.92941 0
M  V30 3066 H 272.638 3.34081 4.659 0
M  V30 3067 H 271.035 4.0865 4.3946 0
M  V30 3068 H 272.105 3.80163 3.01006 0
M  V30 3069 N 273.449 -1.08991 1.13837 0
M  V30 3070 C 274.677 -1.85011 0.926202 0
M  V30 3071 C 275.092 -1.8135 -0.525127 0
M  V30 3072 O 274.449 -1.21287 -1.36366 0
M  V30 3073 C 274.5 -3.32802 1.41155 0
M  V30 3074 O 274.221 -3.36444 2.80601 0
M  V30 3075 C 275.722 -4.25649 1.23847 0
M  V30 3076 H 272.942 -0.584249 0.32999 0
M  V30 3077 H 275.486 -1.37688 1.51202 0
M  V30 3078 H 273.641 -3.77536 0.868631 0
M  V30 3079 H 274.055 -4.28657 3.02248 0
M  V30 3080 H 275.529 -5.27485 1.62675 0
M  V30 3081 H 276.006 -4.38828 0.18065 0
M  V30 3082 H 276.612 -3.86735 1.76964 0
M  V30 3083 N 274.927 -0.932562 -1.27047 0
M  V30 3084 C 275.837 -0.441219 -2.30414 0
M  V30 3085 C 276.853 0.480525 -1.67233 0
M  V30 3086 O 278.029 0.362151 -1.98117 0
M  V30 3087 C 275.094 0.293651 -3.45454 0
M  V30 3088 C 274.155 -0.663601 -4.2414 0
M  V30 3089 C 273.388 0.0362932 -5.33688 0
M  V30 3090 O 273.611 1.2548 -5.56427 0
M  V30 3091 O 272.545 -0.638015 -5.98509 0
M  V30 3092 H 276.371 -1.29962 -2.74488 0
M  V30 3093 H 273.956 -0.6981 -1.32087 0
M  V30 3094 H 275.838 0.707951 -4.15411 0
M  V30 3095 H 274.513 1.12758 -3.03426 0
M  V30 3096 H 273.42 -1.12768 -3.56699 0
M  V30 3097 H 274.753 -1.46489 -4.69896 0
M  V30 3098 N 276.405 1.4127 -0.698611 0
M  V30 3099 C 277.315 2.34573 -0.0357891 0
M  V30 3100 C 278.331 1.56393 0.762701 0
M  V30 3101 O 279.507 1.8886 0.699564 0
M  V30 3102 C 276.572 3.35159 0.887089 0
M  V30 3103 C 275.633 4.29225 0.0804634 0
M  V30 3104 C 274.866 5.25006 0.959387 0
M  V30 3105 O 275.089 5.26314 2.19886 0
M  V30 3106 O 274.023 6.00519 0.407439 0
M  V30 3107 H 277.849 2.92838 -0.804957 0
M  V30 3108 H 275.434 1.42175 -0.458966 0
M  V30 3109 H 277.316 3.9689 1.41621 0
M  V30 3110 H 275.991 2.79333 1.6357 0
M  V30 3111 H 274.898 3.70833 -0.493328 0
M  V30 3112 H 276.231 4.88157 -0.629547 0
M  V30 3113 N 277.883 0.443576 1.51229 0
M  V30 3114 C 278.793 -0.370721 2.31652 0
M  V30 3115 C 279.809 -1.02186 1.40833 0
M  V30 3116 O 280.985 -1.01586 1.73903 0
M  V30 3117 C 278.05 -1.45376 3.14749 0
M  V30 3118 C 277.111 -0.822099 4.21355 0
M  V30 3119 C 276.344 -1.85353 5.0048 0
M  V30 3120 O 276.567 -3.07656 4.80316 0
M  V30 3121 O 275.501 -1.4406 5.84406 0
M  V30 3122 H 279.327 0.286002 3.0235 0
M  V30 3123 H 276.912 0.20598 1.47973 0
M  V30 3124 H 278.794 -2.08173 3.66391 0
M  V30 3125 H 277.469 -2.09445 2.46809 0
M  V30 3126 H 276.376 -0.155909 3.73775 0
M  V30 3127 H 277.709 -0.224797 4.91686 0
M  V30 3128 N 279.361 -1.56624 0.175154 0
M  V30 3129 C 280.589 -2.01374 -0.474971 0
M  V30 3130 C 281.004 -1.05537 -1.56548 0
M  V30 3131 O 280.361 -0.0568668 -1.82411 0
M  V30 3132 C 280.412 -3.45923 -1.04975 0
M  V30 3133 O 280.133 -4.381 -0.00276605 0
M  V30 3134 C 281.634 -4.06093 -1.77773 0
M  V30 3135 H 278.854 -0.659962 -0.121206 0
M  V30 3136 H 281.398 -2.02601 0.27801 0
M  V30 3137 H 279.553 -3.45458 -1.75321 0
M  V30 3138 H 279.967 -5.22753 -0.427681 0
M  V30 3139 H 281.441 -5.09147 -2.13245 0
M  V30 3140 H 281.918 -3.48405 -2.67414 0
M  V30 3141 H 282.524 -4.10272 -1.12059 0
M  V30 3142 N 280.839 0.0985539 -1.57292 0
M  V30 3143 C 281.771 1.14595 -1.98496 0
M  V30 3144 C 282.784 1.36512 -0.887031 0
M  V30 3145 O 283.973 1.35225 -1.16518 0
M  V30 3146 C 281.073 2.50216 -2.28572 0
M  V30 3147 C 280.246 2.48624 -3.59868 0
M  V30 3148 C 279.305 3.66146 -3.7792 0
M  V30 3149 O 278.331 3.48795 -4.49812 0
M  V30 3150 N 279.533 4.85496 -3.18235 0
M  V30 3151 H 282.298 0.795277 -2.88956 0
M  V30 3152 H 279.859 0.287579 -1.59325 0
M  V30 3153 H 281.851 3.27432 -2.37845 0
M  V30 3154 H 280.421 2.77387 -1.44136 0
M  V30 3155 H 279.641 1.56978 -3.61596 0
M  V30 3156 H 280.929 2.44635 -4.46129 0
M  V30 3157 H 280.327 5.02497 -2.59833 0
M  V30 3158 H 278.884 5.60317 -3.32999 0
M  V30 3159 N 282.317 1.53212 0.369288 0
M  V30 3160 C 283.564 1.69215 1.11232 0
M  V30 3161 C 283.892 0.442048 1.8941 0
M  V30 3162 O 283.147 -0.575944 1.87033 0
M  V30 3163 C 283.446 2.89101 2.10132 0
M  V30 3164 C 283.112 4.25758 1.48463 0
M  V30 3165 C 281.774 4.6292 1.31372 0
M  V30 3166 C 284.126 5.10757 1.03811 0
M  V30 3167 C 281.454 5.82722 0.68207 0
M  V30 3168 C 283.806 6.31201 0.420487 0
M  V30 3169 C 282.47 6.67079 0.237038 0
M  V30 3170 H 281.74 0.619201 0.407027 0
M  V30 3171 H 284.387 1.87391 0.394552 0
M  V30 3172 H 282.692 2.65421 2.88199 0
M  V30 3173 H 284.389 2.98676 2.6757 0
M  V30 3174 H 280.979 3.96494 1.62758 0
M  V30 3175 H 285.163 4.82599 1.1581 0
M  V30 3176 H 280.419 6.09113 0.528316 0
M  V30 3177 H 284.593 6.96368 0.0662874 0
M  V30 3178 H 282.22 7.59774 -0.254477 0
M  V30 3179 N 283.795 -0.628877 1.44509 0
M  V30 3180 C 285.025 -1.41349 1.50678 0
M  V30 3181 C 285.433 -1.88745 0.131075 0
M  V30 3182 O 284.776 -1.61592 -0.87371 0
M  V30 3183 C 284.838 -2.66608 2.41165 0
M  V30 3184 C 284.502 -2.40993 3.88293 0
M  V30 3185 C 285.499 -2.0268 4.78766 0
M  V30 3186 C 283.184 -2.54563 4.33016 0
M  V30 3187 C 285.178 -1.78269 6.11963 0
M  V30 3188 C 282.865 -2.29766 5.6626 0
M  V30 3189 C 283.863 -1.91678 6.55552 0
M  V30 3190 O 283.551 -1.67158 7.86329 0
M  V30 3191 H 283.283 -0.439851 0.51333 0
M  V30 3192 H 285.837 -0.776084 1.90174 0
M  V30 3193 H 284.067 -3.32994 1.96601 0
M  V30 3194 H 285.756 -3.28615 2.38259 0
M  V30 3195 H 286.522 -1.91751 4.45485 0
M  V30 3196 H 282.401 -2.83179 3.63773 0
M  V30 3197 H 285.945 -1.48465 6.81619 0
M  V30 3198 H 281.842 -2.40306 5.99102 0
M  V30 3199 H 282.61 -1.81386 7.98149 0
M  V30 3200 N 285.273 -1.31445 -0.869486 0
M  V30 3201 C 286.522 -1.20517 -1.61736 0
M  V30 3202 C 286.835 0.235341 -1.94179 0
M  V30 3203 O 288.041 0.466312 -2.67465 0
M  V30 3204 C 286.497 -2.10982 -2.91573 0
M  V30 3205 C 286.105 -3.60032 -2.66611 0
M  V30 3206 C 287.849 -2.08856 -3.69567 0
M  V30 3207 C 285.756 -4.42503 -3.92358 0
M  V30 3208 H 284.686 -0.447493 -0.606849 0
M  V30 3209 H 287.337 -1.56303 -0.96133 0
M  V30 3210 H 285.719 -1.68095 -3.58553 0
M  V30 3211 H 286.893 -4.11167 -2.08035 0
M  V30 3212 H 285.208 -3.64139 -2.0197 0
M  V30 3213 H 287.805 -2.67716 -4.62852 0
M  V30 3214 H 288.148 -1.07582 -4.02159 0
M  V30 3215 H 288.681 -2.49945 -3.09471 0
M  V30 3216 H 285.42 -5.44533 -3.64916 0
M  V30 3217 H 284.94 -3.96125 -4.50383 0
M  V30 3218 H 286.619 -4.54741 -4.60238 0
M  V30 3219 N 286.751 1.08385 -1.14413 0
M  V30 3220 C 287.976 1.85057 -0.936413 0
M  V30 3221 C 288.401 1.81055 0.509971 0
M  V30 3222 O 287.759 1.1958 1.36273 0
M  V30 3223 C 287.807 3.30505 -1.44217 0
M  V30 3224 O 286.911 4.07491 -0.634409 0
M  V30 3225 H 286.252 0.573425 -0.334784 0
M  V30 3226 H 288.782 1.36799 -1.52142 0
M  V30 3227 H 288.792 3.81348 -1.45043 0
M  V30 3228 H 287.467 3.32734 -2.49522 0
M  V30 3229 H 286.044 3.66368 -0.694902 0
M  V30 3230 N 288.23 0.939286 1.26551 0
M  V30 3231 C 289.14 0.453432 2.30176 0
M  V30 3232 C 290.156 -0.471649 1.67486 0
M  V30 3233 O 291.332 -0.35164 1.98306 0
M  V30 3234 C 288.397 -0.275326 3.45605 0
M  V30 3235 C 287.458 0.686084 4.23782 0
M  V30 3236 C 286.691 -0.00798994 5.33699 0
M  V30 3237 O 286.914 -1.22528 5.57085 0
M  V30 3238 O 285.848 0.669746 5.98162 0
M  V30 3239 H 289.674 1.31416 2.73795 0
M  V30 3240 H 287.259 0.705095 1.31715 0
M  V30 3241 H 289.141 -0.685911 4.1578 0
M  V30 3242 H 287.816 -1.11147 3.0402 0
M  V30 3243 H 286.723 1.14658 3.56096 0
M  V30 3244 H 288.056 1.48979 4.69112 0
M  V30 3245 N 289.708 -1.40897 0.706093 0
M  V30 3246 C 290.936 -2.05373 0.250887 0
M  V30 3247 C 291.351 -1.53172 -1.10381 0
M  V30 3248 O 290.708 -0.684305 -1.69185 0
M  V30 3249 C 290.759 -3.6088 0.211571 0
M  V30 3250 O 290.48 -4.11153 1.51276 0
M  V30 3251 C 291.981 -4.42517 -0.263346 0
M  V30 3252 H 289.201 -0.66115 0.114552 0
M  V30 3253 H 291.745 -1.80479 0.961635 0
M  V30 3254 H 289.9 -3.84777 -0.450073 0
M  V30 3255 H 290.314 -5.05279 1.40689 0
M  V30 3256 H 291.788 -5.51479 -0.239718 0
M  V30 3257 H 292.265 -4.19396 -1.30397 0
M  V30 3258 H 292.871 -4.23708 0.367677 0
M  V30 3259 N 291.186 -0.45159 -1.50991 0
M  V30 3260 C 292.432 0.110237 -2.025 0
M  V30 3261 C 292.765 1.41109 -1.33424 0
M  V30 3262 O 292.04 1.89135 -0.453659 0
M  V30 3263 C 292.323 0.314271 -3.58726 0
M  V30 3264 C 292.176 -1.00623 -4.38401 0
M  V30 3265 C 293.495 1.07767 -4.26702 0
M  V30 3266 H 290.614 0.0385897 -0.735989 0
M  V30 3267 H 293.256 -0.593374 -1.80497 0
M  V30 3268 H 291.406 0.913601 -3.77605 0
M  V30 3269 H 293.078 -1.64064 -4.31139 0
M  V30 3270 H 291.321 -1.6075 -4.02917 0
M  V30 3271 H 291.992 -0.817341 -5.45915 0
M  V30 3272 H 294.468 0.56986 -4.12179 0
M  V30 3273 H 293.344 1.18921 -5.35863 0
M  V30 3274 H 293.605 2.10939 -3.88532 0
M  V30 3275 N 292.664 1.56529 -0.183458 0
M  V30 3276 C 293.594 2.21549 0.737456 0
M  V30 3277 C 294.575 1.17489 1.23005 0
M  V30 3278 O 295.76 1.45959 1.281 0
M  V30 3279 C 292.89 2.86575 1.96194 0
M  V30 3280 C 291.844 3.96778 1.60473 0
M  V30 3281 C 291.17 4.48911 2.90487 0
M  V30 3282 C 292.47 5.15767 0.823497 0
M  V30 3283 H 294.164 2.98761 0.195453 0
M  V30 3284 H 291.71 1.43702 0.0925686 0
M  V30 3285 H 293.663 3.30739 2.61131 0
M  V30 3286 H 292.387 2.06749 2.52828 0
M  V30 3287 H 291.046 3.53286 0.978997 0
M  V30 3288 H 290.694 3.65862 3.45186 0
M  V30 3289 H 290.394 5.23265 2.67335 0
M  V30 3290 H 291.918 4.95771 3.56432 0
M  V30 3291 H 293.332 5.56549 1.37571 0
M  V30 3292 H 291.729 5.96114 0.690551 0
M  V30 3293 H 292.799 4.84574 -0.177782 0
M  V30 3294 N 294.142 -0.090211 1.57342 0
M  V30 3295 C 295.105 -1.09335 2.01441 0
M  V30 3296 C 296.105 -1.32666 0.908641 0
M  V30 3297 O 297.295 -1.28697 1.174 0
M  V30 3298 C 294.427 -2.44136 2.3793 0
M  V30 3299 H 295.62 -0.713662 2.91285 0
M  V30 3300 H 293.173 -0.335404 1.52659 0
M  V30 3301 H 293.908 -2.86972 1.51055 0
M  V30 3302 H 293.693 -2.28548 3.18603 0
M  V30 3303 H 295.183 -3.16277 2.72688 0
M  V30 3304 N 295.62 -1.53406 -0.361157 0
M  V30 3305 C 296.869 -1.69022 -1.10066 0
M  V30 3306 C 297.182 -0.450838 -1.90333 0
M  V30 3307 O 298.388 -0.487617 -2.67085 0
M  V30 3308 C 296.844 -2.98812 -2.00598 0
M  V30 3309 C 296.452 -4.30027 -1.25621 0
M  V30 3310 C 298.196 -3.23795 -2.74513 0
M  V30 3311 C 296.103 -5.50903 -2.1508 0
M  V30 3312 H 295.033 -0.629776 -0.414606 0
M  V30 3313 H 297.684 -1.79907 -0.361348 0
M  V30 3314 H 296.066 -2.8174 -2.78278 0
M  V30 3315 H 297.24 -4.57745 -0.529739 0
M  V30 3316 H 295.555 -4.11522 -0.635496 0
M  V30 3317 H 298.152 -4.11289 -3.41681 0
M  V30 3318 H 298.495 -2.40045 -3.40123 0
M  V30 3319 H 299.028 -3.41561 -2.03914 0
M  V30 3320 H 295.767 -6.37143 -1.54041 0
M  V30 3321 H 295.287 -5.27459 -2.85565 0
M  V30 3322 H 296.966 -5.85865 -2.74538 0
M  V30 3323 N 297.098 0.621204 -1.44841 0
M  V30 3324 C 298.375 1.38 -1.38619 0
M  V30 3325 C 298.755 2.11041 -0.0498935 0
M  V30 3326 O 298.103 2.06992 0.967816 0
M  V30 3327 C 298.313 2.33817 -2.59096 0
M  V30 3328 C 299.661 2.96844 -3.03593 0
M  V30 3329 O 300.685 2.44141 -2.59371 0
M  V30 3330 O 299.544 3.92476 -3.80296 0
M  V30 3331 H 296.638 0.61811 -0.549426 0
M  V30 3332 H 299.184 0.645429 -1.56947 0
M  V30 3333 H 297.956 1.79012 -3.47952 0
M  V30 3334 H 297.579 3.14676 -2.43032 0
M  V30 3335 N 298.576 1.31904 0.862503 0
M  V30 3336 C 299.539 1.20131 1.95195 0
M  V30 3337 C 300.539 0.126409 1.60302 0
M  V30 3338 O 301.729 0.376234 1.70089 0
M  V30 3339 C 298.861 0.845691 3.30244 0
M  V30 3340 H 300.054 2.16943 2.07064 0
M  V30 3341 H 297.607 1.15622 1.05172 0
M  V30 3342 H 298.342 -0.120957 3.24074 0
M  V30 3343 H 298.127 1.62276 3.56944 0
M  V30 3344 H 299.617 0.787418 4.10109 0
M  V30 3345 N 300.054 -1.07777 1.14986 0
M  V30 3346 C 301.303 -1.79669 0.916617 0
M  V30 3347 C 301.616 -1.87474 -0.557917 0
M  V30 3348 O 302.822 -2.55845 -0.908617 0
M  V30 3349 C 301.278 -3.22848 1.59051 0
M  V30 3350 C 300.886 -3.23257 3.10176 0
M  V30 3351 C 302.63 -3.99379 1.43864 0
M  V30 3352 C 300.537 -4.61063 3.70372 0
M  V30 3353 H 299.467 -0.673349 0.33929 0
M  V30 3354 H 302.118 -1.21003 1.37951 0
M  V30 3355 H 300.5 -3.8168 1.0553 0
M  V30 3356 H 301.674 -2.74095 3.70417 0
M  V30 3357 H 299.989 -2.60222 3.25074 0
M  V30 3358 H 302.586 -5.0122 1.86232 0
M  V30 3359 H 302.929 -4.14511 0.385564 0
M  V30 3360 H 303.462 -3.47032 1.94457 0
M  V30 3361 H 300.201 -4.51135 4.7556 0
M  V30 3362 H 299.721 -5.1048 3.14913 0
M  V30 3363 H 301.4 -5.30034 3.71043 0
M  V30 3364 N 301.532 -0.945985 -1.26051 0
M  V30 3365 C 302.482 -0.430164 -2.23905 0
M  V30 3366 C 303.466 0.47579 -1.53704 0
M  V30 3367 O 304.658 0.310252 -1.7426 0
M  V30 3368 C 301.787 0.298957 -3.41996 0
M  V30 3369 C 300.873 -0.624566 -4.19476 0
M  V30 3370 N 301.264 -1.75245 -4.74471 0
M  V30 3371 C 299.562 -0.431082 -4.43912 0
M  V30 3372 C 300.263 -2.32834 -5.3307 0
M  V30 3373 N 299.239 -1.61583 -5.1903 0
M  V30 3374 H 303.041 -1.29107 -2.64024 0
M  V30 3375 H 300.555 -0.802428 -1.41191 0
M  V30 3376 H 302.552 0.685565 -4.11225 0
M  V30 3377 H 301.212 1.15657 -3.03403 0
M  V30 3378 H 302.223 -2.13449 -4.71868 0
M  V30 3379 H 298.9 0.384364 -4.15727 0
M  V30 3380 H 300.29 -3.27893 -5.86461 0
M  V30 3381 N 303.011 1.40521 -0.713556 0
M  V30 3382 C 303.943 2.29191 -0.0203126 0
M  V30 3383 C 304.956 1.45723 0.725864 0
M  V30 3384 O 306.145 1.69033 0.573581 0
M  V30 3385 C 303.245 3.2395 0.995486 0
M  V30 3386 C 302.418 4.36262 0.315256 0
M  V30 3387 C 301.477 5.11474 1.23616 0
M  V30 3388 O 300.503 5.64606 0.721719 0
M  V30 3389 N 301.705 5.20638 2.56743 0
M  V30 3390 H 304.47 2.89327 -0.781652 0
M  V30 3391 H 302.031 1.51869 -0.561022 0
M  V30 3392 H 304.023 3.71137 1.61368 0
M  V30 3393 H 302.593 2.64995 1.6582 0
M  V30 3394 H 301.813 3.91228 -0.483106 0
M  V30 3395 H 303.101 5.08558 -0.157004 0
M  V30 3396 H 302.499 4.7895 3.01037 0
M  V30 3397 H 301.056 5.71339 3.13712 0
M  V30 3398 N 304.489 0.459591 1.5075 0
M  V30 3399 C 305.419 -0.330644 2.31147 0
M  V30 3400 C 306.4 -1.00087 1.37538 0
M  V30 3401 O 307.585 -1.00025 1.66459 0
M  V30 3402 C 304.715 -1.41958 3.16962 0
M  V30 3403 C 303.669 -0.871608 4.19031 0
M  V30 3404 C 302.995 -2.05797 4.9351 0
M  V30 3405 C 304.295 0.109251 5.22186 0
M  V30 3406 H 305.989 0.340336 2.97459 0
M  V30 3407 H 303.535 0.165119 1.4305 0
M  V30 3408 H 305.488 -1.9798 3.71997 0
M  V30 3409 H 304.212 -2.11917 2.48513 0
M  V30 3410 H 302.871 -0.333442 3.6508 0
M  V30 3411 H 302.519 -2.74427 4.21544 0
M  V30 3412 H 302.219 -1.6976 5.62544 0
M  V30 3413 H 303.743 -2.62331 5.51375 0
M  V30 3414 H 305.157 -0.361405 5.7216 0
M  V30 3415 H 303.554 0.383316 5.98875 0
M  V30 3416 H 304.624 1.03887 4.73641 0
M  V30 3417 N 305.967 -1.56429 0.191757 0
M  V30 3418 C 307.215 -1.97095 -0.447006 0
M  V30 3419 C 307.536 -1.07967 -1.62383 0
M  V30 3420 O 306.806 -0.150248 -1.95323 0
M  V30 3421 H 305.386 -0.727832 -0.168135 0
M  V30 3422 H 308.048 -1.92911 0.27771 0
M  V30 3423 H 307.144 -3.01848 -0.793371 0
M  V30 3424 N 307.445 0.0818655 -1.57387 0
M  V30 3425 C 308.692 0.782914 -1.86753 0
M  V30 3426 C 309.02 1.78082 -0.782118 0
M  V30 3427 O 308.275 1.94426 0.22295 0
M  V30 3428 C 308.574 1.53513 -3.22752 0
M  V30 3429 C 308.24 0.678134 -4.45771 0
M  V30 3430 C 306.902 0.441929 -4.79166 0
M  V30 3431 C 309.254 0.0832243 -5.21134 0
M  V30 3432 C 306.582 -0.398833 -5.85343 0
M  V30 3433 C 308.934 -0.744935 -6.28199 0
M  V30 3434 C 307.598 -0.991107 -6.60101 0
M  V30 3435 H 306.868 0.286489 -0.683378 0
M  V30 3436 H 309.515 0.0439808 -1.91449 0
M  V30 3437 H 307.82 2.34599 -3.138 0
M  V30 3438 H 309.517 2.08218 -3.42705 0
M  V30 3439 H 306.107 0.872357 -4.19628 0
M  V30 3440 H 310.291 0.252847 -4.95655 0
M  V30 3441 H 305.547 -0.598405 -6.08465 0
M  V30 3442 H 309.721 -1.21271 -6.8576 0
M  V30 3443 H 307.348 -1.64437 -7.42202 0
M  V30 3444 N 308.923 1.53595 0.353017 0
M  V30 3445 C 310.172 1.69603 1.09168 0
M  V30 3446 C 310.485 0.460925 1.90092 0
M  V30 3447 O 311.691 0.501774 2.66823 0
M  V30 3448 C 310.147 2.99872 1.9901 0
M  V30 3449 C 309.755 4.30687 1.23339 0
M  V30 3450 C 311.499 3.25246 2.72792 0
M  V30 3451 C 309.406 5.52036 2.12156 0
M  V30 3452 H 308.336 0.631966 0.411261 0
M  V30 3453 H 310.987 1.80096 0.351802 0
M  V30 3454 H 309.369 2.83212 2.7678 0
M  V30 3455 H 310.543 4.58019 0.505456 0
M  V30 3456 H 308.858 4.11853 0.613663 0
M  V30 3457 H 311.455 4.13095 3.39495 0
M  V30 3458 H 311.798 2.41846 3.38846 0
M  V30 3459 H 312.331 3.42638 2.021 0
M  V30 3460 H 309.07 6.37951 1.50659 0
M  V30 3461 H 308.59 5.28966 2.82764 0
M  V30 3462 H 310.269 5.87313 2.71427 0
M  V30 3463 N 310.401 -0.613514 1.45168 0
M  V30 3464 C 311.351 -1.71871 1.49815 0
M  V30 3465 C 312.335 -1.56774 0.362021 0
M  V30 3466 O 313.527 -1.66212 0.608493 0
M  V30 3467 C 310.656 -3.1061 1.46207 0
M  V30 3468 C 309.742 -3.31114 2.64999 0
M  V30 3469 N 310.133 -3.21904 3.90143 0
M  V30 3470 C 308.431 -3.61966 2.6057 0
M  V30 3471 C 309.132 -3.43577 4.69393 0
M  V30 3472 N 308.108 -3.67287 4.00751 0
M  V30 3473 H 311.91 -1.63235 2.444 0
M  V30 3474 H 309.424 -0.816577 1.40377 0
M  V30 3475 H 311.421 -3.8989 1.4762 0
M  V30 3476 H 310.081 -3.20399 0.52673 0
M  V30 3477 H 311.092 -3.00436 4.21852 0
M  V30 3478 H 307.769 -3.78629 1.75916 0
M  V30 3479 H 309.159 -3.41901 5.78406 0
M  V30 3480 N 311.879 -1.3236 -0.855495 0
M  V30 3481 C 313.295 -1.11332 -1.14356 0
M  V30 3482 C 313.495 0.106751 -2.01217 0
M  V30 3483 O 312.551 0.791891 -2.39761 0
M  V30 3484 C 313.864 -2.39237 -1.82171 0
M  V30 3485 C 315.412 -2.44986 -1.9481 0
M  V30 3486 C 315.887 -3.7281 -2.66039 0
M  V30 3487 N 317.378 -3.73787 -2.73565 0
M  V30 3488 C 318.113 -4.69394 -3.29327 0
M  V30 3489 N 317.609 -5.75367 -3.85907 0
M  V30 3490 N 319.402 -4.56893 -3.27423 0
M  V30 3491 H 311.553 -2.10586 -0.277027 0
M  V30 3492 H 313.816 -0.929701 -0.185364 0
M  V30 3493 H 313.522 -3.28431 -1.25802 0
M  V30 3494 H 313.396 -2.50134 -2.82335 0
M  V30 3495 H 315.783 -1.56252 -2.50338 0
M  V30 3496 H 315.864 -2.38043 -0.936448 0
M  V30 3497 H 315.508 -4.61918 -2.11174 0
M  V30 3498 H 315.438 -3.77024 -3.67642 0
M  V30 3499 H 317.929 -2.97189 -2.33424 0
M  V30 3500 H 318.242 -6.44378 -4.26611 0
M  V30 3501 H 316.587 -5.79123 -3.84242 0
M  V30 3502 H 319.778 -3.73269 -2.82467 0
M  V30 3503 H 319.951 -5.31577 -3.7058 0
M  V30 3504 N 313.357 1.07166 -1.15556 0
M  V30 3505 C 314.634 1.76546 -0.842069 0
M  V30 3506 C 315.014 2.00453 0.661939 0
M  V30 3507 O 314.362 1.62452 1.60691 0
M  V30 3508 C 314.572 3.07266 -1.65495 0
M  V30 3509 C 315.92 3.81578 -1.86234 0
M  V30 3510 O 316.944 3.17083 -1.62287 0
M  V30 3511 O 315.803 4.97419 -2.26355 0
M  V30 3512 H 312.897 0.766756 -0.309862 0
M  V30 3513 H 315.443 1.13514 -1.26145 0
M  V30 3514 H 314.215 2.85494 -2.67598 0
M  V30 3515 H 313.838 3.7803 -1.23203 0
M  V30 3516 N 314.835 0.952656 1.25548 0
M  V30 3517 C 316.084 0.602053 1.92505 0
M  V30 3518 C 316.397 -0.864663 1.75451 0
M  V30 3519 O 317.603 -1.32514 2.36965 0
M  V30 3520 C 316.059 1.02607 3.44963 0
M  V30 3521 C 315.667 2.51519 3.70732 0
M  V30 3522 C 317.411 0.747905 4.1786 0
M  V30 3523 C 315.318 2.87732 5.16686 0
M  V30 3524 H 314.248 0.22146 0.720744 0
M  V30 3525 H 316.899 1.15684 1.42441 0
M  V30 3526 H 315.281 0.399712 3.93978 0
M  V30 3527 H 316.455 3.19157 3.32378 0
M  V30 3528 H 314.77 2.76786 3.11092 0
M  V30 3529 H 317.367 0.994647 5.25367 0
M  V30 3530 H 317.71 -0.315629 4.15102 0
M  V30 3531 H 318.243 1.33452 3.74747 0
M  V30 3532 H 314.982 3.93095 5.24554 0
M  V30 3533 H 314.502 2.24765 5.56094 0
M  V30 3534 H 316.181 2.76817 5.84792 0
M  V30 3535 N 316.313 -1.40141 0.720998 0
M  V30 3536 C 317.26 -2.30688 0.071919 0
M  V30 3537 C 318.23 -1.48476 -0.744584 0
M  V30 3538 O 319.415 -1.77201 -0.707423 0
M  V30 3539 C 316.555 -3.34724 -0.839855 0
M  V30 3540 C 315.668 -4.31998 -0.0122438 0
M  V30 3541 C 314.803 -5.23102 -0.923995 0
M  V30 3542 C 313.842 -6.12033 -0.0907969 0
M  V30 3543 N 312.979 -6.95537 -0.957718 0
M  V30 3544 H 317.819 -2.85628 0.849755 0
M  V30 3545 H 315.356 -1.40653 0.430726 0
M  V30 3546 H 317.314 -3.93618 -1.38279 0
M  V30 3547 H 315.944 -2.81274 -1.58381 0
M  V30 3548 H 314.996 -3.74841 0.64794 0
M  V30 3549 H 316.308 -4.94772 0.632595 0
M  V30 3550 H 315.462 -5.86953 -1.53527 0
M  V30 3551 H 314.201 -4.60615 -1.60264 0
M  V30 3552 H 313.206 -5.47207 0.533377 0
M  V30 3553 H 314.431 -6.76581 0.584428 0
M  V30 3554 H 312.377 -6.35633 -1.62192 0
M  V30 3555 H 312.294 -7.55099 -0.36904 0
M  V30 3556 H 313.562 -7.63832 -1.555 0
M  V30 3557 N 317.792 -0.46758 -1.50504 0
M  V30 3558 C 319.203 -0.0116166 -1.86696 0
M  V30 3559 C 319.554 1.39202 -1.38265 0
M  V30 3560 O 318.679 2.0313 -0.746132 0
M  V30 3561 C 319.274 -0.0143044 -3.38797 0
M  V30 3562 C 317.833 0.386175 -3.74414 0
M  V30 3563 C 316.98 -0.401287 -2.74381 0
M  V30 3564 H 319.931 -0.682022 -1.43297 0
M  V30 3565 H 319.952 0.788641 -3.72237 0
M  V30 3566 H 319.464 -1.03602 -3.74016 0
M  V30 3567 H 317.565 1.41237 -3.44794 0
M  V30 3568 H 317.678 0.0899596 -4.79016 0
M  V30 3569 H 316.042 0.144536 -2.5429 0
M  V30 3570 H 316.825 -1.42244 -3.12444 0
M  V30 3571 N 319.27 1.56325 -0.20005 0
M  V30 3572 C 320.547 1.89484 0.48529 0
M  V30 3573 C 320.927 1.1143 1.79294 0
M  V30 3574 O 320.275 0.216919 2.27468 0
M  V30 3575 C 320.485 3.41923 0.699243 0
M  V30 3576 C 321.833 4.12256 1.01638 0
M  V30 3577 O 322.857 3.47402 0.786792 0
M  V30 3578 O 321.716 5.26887 1.45095 0
M  V30 3579 H 318.81 0.787144 0.253639 0
M  V30 3580 H 321.356 1.67985 -0.240633 0
M  V30 3581 H 320.128 3.90658 -0.224008 0
M  V30 3582 H 319.751 3.69131 1.47744 0
M  V30 3583 N 320.748 -0.0735177 1.57428 0
M  V30 3584 C 321.696 -1.10628 2.04607 0
M  V30 3585 C 322.69 -1.40181 0.951088 0
M  V30 3586 O 323.896 -1.39608 1.1362 0
M  V30 3587 H 320.271 -0.374088 0.652351 0
M  V30 3588 H 322.242 -0.682218 2.90497 0
M  V30 3589 C 320.991 -2.41212 2.50423 0
M  V30 3590 H 320.314 -2.19322 3.34272 0
M  V30 3591 H 321.754 -3.11927 2.87189 0
M  V30 3592 C 320.213 -3.0705 1.38644 0
M  V30 3593 O 320.743 -3.95056 0.727582 0
M  V30 3594 N 318.949 -2.67645 1.132 0
M  V30 3595 H 318.496 -1.96169 1.66959 0
M  V30 3596 H 318.454 -3.1202 0.386147 0
M  V30 3597 N 322.226 -1.5378 -0.344866 0
M  V30 3598 C 323.156 -1.84662 -1.42906 0
M  V30 3599 C 324.137 -0.701648 -1.54955 0
M  V30 3600 O 325.322 -0.953438 -1.69184 0
M  V30 3601 C 322.452 -2.05503 -2.79974 0
M  V30 3602 C 321.406 -3.21318 -2.82734 0
M  V30 3603 C 320.732 -3.2749 -4.22675 0
M  V30 3604 C 322.032 -4.59456 -2.48389 0
M  V30 3605 H 323.726 -2.75461 -1.17311 0
M  V30 3606 H 321.272 -1.32542 -0.562896 0
M  V30 3607 H 323.225 -2.25691 -3.55867 0
M  V30 3608 H 321.949 -1.11434 -3.07002 0
M  V30 3609 H 320.608 -3.00984 -2.09294 0
M  V30 3610 H 320.256 -2.31019 -4.4681 0
M  V30 3611 H 319.956 -4.05316 -4.25433 0
M  V30 3612 H 321.48 -3.49887 -5.00412 0
M  V30 3613 H 322.894 -4.79667 -3.13995 0
M  V30 3614 H 321.291 -5.39675 -2.62432 0
M  V30 3615 H 322.361 -4.63155 -1.4358 0
M  V30 3616 N 323.704 0.605807 -1.45491 0
M  V30 3617 C 324.634 1.72709 -1.57143 0
M  V30 3618 C 325.615 1.6476 -0.422884 0
M  V30 3619 O 326.8 1.83132 -0.646247 0
M  V30 3620 C 323.93 3.11316 -1.53948 0
M  V30 3621 C 322.884 3.34077 -2.67537 0
M  V30 3622 C 322.21 4.72975 -2.49397 0
M  V30 3623 C 323.51 3.24158 -4.09535 0
M  V30 3624 H 325.204 1.63214 -2.51001 0
M  V30 3625 H 322.75 0.78379 -1.208 0
M  V30 3626 H 324.703 3.89557 -1.60696 0
M  V30 3627 H 323.427 3.21655 -0.566205 0
M  V30 3628 H 322.086 2.58227 -2.6022 0
M  V30 3629 H 321.734 4.8005 -1.50205 0
M  V30 3630 H 321.434 4.8916 -3.25571 0
M  V30 3631 H 322.958 5.53414 -2.58002 0
M  V30 3632 H 324.372 3.92271 -4.18086 0
M  V30 3633 H 322.769 3.51872 -4.86113 0
M  V30 3634 H 323.839 2.2157 -4.31317 0
M  V30 3635 N 325.182 1.32811 0.848464 0
M  V30 3636 C 326.112 1.24882 1.97299 0
M  V30 3637 C 327.093 0.131357 1.69592 0
M  V30 3638 O 328.278 0.319553 1.91553 0
M  V30 3639 C 325.408 0.97746 3.33261 0
M  V30 3640 C 324.362 2.05682 3.75338 0
M  V30 3641 C 323.688 1.63777 5.09 0
M  V30 3642 C 324.988 3.47254 3.90144 0
M  V30 3643 H 326.682 2.18966 2.04191 0
M  V30 3644 H 324.228 1.05413 0.981029 0
M  V30 3645 H 326.181 0.908513 4.1149 0
M  V30 3646 H 324.905 0.000980011 3.266 0
M  V30 3647 H 323.564 2.11603 2.99366 0
M  V30 3648 H 323.212 0.648569 4.98801 0
M  V30 3649 H 322.912 2.36 5.38124 0
M  V30 3650 H 324.436 1.5833 5.89715 0
M  V30 3651 H 325.85 3.43888 4.58709 0
M  V30 3652 H 324.247 4.1788 4.30693 0
M  V30 3653 H 325.317 3.86462 2.92874 0
M  V30 3654 N 326.66 -1.06551 1.16123 0
M  V30 3655 C 327.937 -1.76097 0.85142 0
M  V30 3656 C 328.317 -2.00802 -0.6513 0
M  V30 3657 O 327.665 -1.63302 -1.59827 0
M  V30 3658 C 327.875 -3.06384 1.67122 0
M  V30 3659 C 329.223 -3.80585 1.88255 0
M  V30 3660 O 330.247 -3.16218 1.63966 0
M  V30 3661 O 329.106 -4.96212 2.2899 0
M  V30 3662 H 326.2 -0.765102 0.313923 0
M  V30 3663 H 328.746 -1.12844 1.26745 0
M  V30 3664 H 327.518 -2.84071 2.69108 0
M  V30 3665 H 327.141 -3.77371 1.25206 0
M  V30 3666 N 328.138 -0.959301 -1.25041 0
M  V30 3667 C 329.101 -0.487677 -2.23952 0
M  V30 3668 C 330.101 0.41119 -1.55454 0
M  V30 3669 O 331.291 0.207825 -1.72956 0
M  V30 3670 C 328.423 0.294807 -3.39623 0
M  V30 3671 H 329.616 -1.36198 -2.67189 0
M  V30 3672 H 327.169 -0.743042 -1.37508 0
M  V30 3673 H 327.904 1.18658 -3.01813 0
M  V30 3674 H 327.689 -0.35012 -3.90534 0
M  V30 3675 H 329.179 0.614089 -4.1306 0
M  V30 3676 N 329.616 1.39756 -0.72842 0
M  V30 3677 C 330.563 2.30647 -0.0841519 0
M  V30 3678 C 331.533 1.48869 0.7367 0
M  V30 3679 O 332.718 1.77574 0.698015 0
M  V30 3680 C 329.858 3.35165 0.822091 0
M  V30 3681 C 328.971 4.31999 -0.0106663 0
M  V30 3682 C 328.106 5.23585 0.896241 0
M  V30 3683 C 327.145 6.12072 0.0583381 0
M  V30 3684 N 326.282 6.96035 0.920818 0
M  V30 3685 H 331.122 2.85173 -0.864891 0
M  V30 3686 H 328.659 1.40422 -0.438179 0
M  V30 3687 H 330.617 3.94345 1.36189 0
M  V30 3688 H 329.247 2.8211 1.56888 0
M  V30 3689 H 328.299 3.74492 -0.66781 0
M  V30 3690 H 329.611 4.9443 -0.658825 0
M  V30 3691 H 328.765 5.87759 1.50412 0
M  V30 3692 H 327.504 4.61459 1.57819 0
M  V30 3693 H 326.509 5.46916 -0.562389 0
M  V30 3694 H 327.734 6.76261 -0.6203 0
M  V30 3695 H 325.68 6.36485 1.58818 0
M  V30 3696 H 325.597 7.55284 0.32899 0
M  V30 3697 H 326.865 7.64646 1.51447 0
M  V30 3698 N 331.094 0.475555 1.50254 0
M  V30 3699 C 332.342 -0.077738 2.0195 0
M  V30 3700 C 332.663 -1.39813 1.35931 0
M  V30 3701 O 331.933 -1.89249 0.506123 0
M  V30 3702 H 330.513 -0.031719 0.746326 0
M  V30 3703 H 333.175 0.626995 1.84539 0
M  V30 3704 H 332.271 -0.225995 3.11281 0
M  V30 3705 N 332.573 -1.56217 0.208337 0
M  V30 3706 C 333.523 -2.16324 -0.720281 0
M  V30 3707 C 334.507 -1.10775 -1.16695 0
M  V30 3708 O 335.699 -1.36801 -1.12314 0
M  V30 3709 C 332.828 -2.83644 -1.93393 0
M  V30 3710 C 331.914 -3.96401 -1.50755 0
M  V30 3711 N 332.305 -4.99546 -0.792937 0
M  V30 3712 C 330.603 -4.08246 -1.79585 0
M  V30 3713 C 331.304 -5.78828 -0.577364 0
M  V30 3714 N 330.28 -5.31723 -1.1301 0
M  V30 3715 H 334.082 -2.93432 -0.165725 0
M  V30 3716 H 331.596 -1.62397 0.00906463 0
M  V30 3717 H 333.593 -3.25107 -2.60981 0
M  V30 3718 H 332.253 -2.08027 -2.49308 0
M  V30 3719 H 333.264 -5.15967 -0.447004 0
M  V30 3720 H 329.941 -3.4377 -2.36915 0
M  V30 3721 H 331.331 -6.71899 -0.00952956 0
M  V30 3722 N 334.051 0.0651679 -1.57465 0
M  V30 3723 C 335.297 0.764193 -1.87851 0
M  V30 3724 C 335.63 1.76889 -0.801495 0
M  V30 3725 O 334.905 1.93594 0.187528 0
M  V30 3726 C 335.188 1.46625 -3.28897 0
M  V30 3727 C 335.041 0.477515 -4.47258 0
M  V30 3728 C 336.36 2.4095 -3.68281 0
M  V30 3729 H 333.479 0.276351 -0.683227 0
M  V30 3730 H 336.121 0.0272868 -1.8998 0
M  V30 3731 H 334.271 2.09438 -3.27212 0
M  V30 3732 H 335.943 -0.145922 -4.61069 0
M  V30 3733 H 334.186 -0.206576 -4.33308 0
M  V30 3734 H 334.857 1.0065 -5.42746 0
M  V30 3735 H 337.333 1.88209 -3.71102 0
M  V30 3736 H 336.209 2.87072 -4.67847 0
M  V30 3737 H 336.47 3.26049 -2.98571 0
M  V30 3738 N 335.529 1.53961 0.336706 0
M  V30 3739 C 336.476 1.82428 1.41381 0
M  V30 3740 C 337.446 0.670444 1.51968 0
M  V30 3741 O 338.631 0.915565 1.67398 0
M  V30 3742 C 335.771 2.04564 2.77934 0
M  V30 3743 C 334.884 3.32267 2.76084 0
M  V30 3744 C 334.019 3.44434 4.04399 0
M  V30 3745 C 333.058 4.66061 3.96804 0
M  V30 3746 N 332.195 4.75224 5.16823 0
M  V30 3747 H 337.035 2.74324 1.16405 0
M  V30 3748 H 334.572 1.35869 0.563752 0
M  V30 3749 H 336.53 2.15388 3.57301 0
M  V30 3750 H 335.16 1.15974 3.01247 0
M  V30 3751 H 334.212 3.3025 1.88784 0
M  V30 3752 H 335.524 4.21733 2.66351 0
M  V30 3753 H 334.678 3.54728 4.92192 0
M  V30 3754 H 333.417 2.53037 4.16921 0
M  V30 3755 H 332.422 4.55838 3.07396 0
M  V30 3756 H 333.647 5.58829 3.85858 0
M  V30 3757 H 331.593 3.86739 5.29876 0
M  V30 3758 H 331.51 5.58636 5.09374 0
M  V30 3759 H 332.778 4.89835 6.06367 0
M  V30 3760 N 337.007 -0.598083 1.45811 0
M  V30 3761 C 337.937 -1.71873 1.58057 0
M  V30 3762 C 338.918 -1.64533 0.431615 0
M  V30 3763 O 340.103 -1.82787 0.65595 0
M  V30 3764 C 337.233 -3.10495 1.55597 0
M  V30 3765 C 336.187 -3.32654 2.69305 0
M  V30 3766 C 335.513 -4.71646 2.51902 0
M  V30 3767 C 336.813 -3.21981 4.11248 0
M  V30 3768 H 338.507 -1.61881 2.51863 0
M  V30 3769 H 336.053 -0.777372 1.21214 0
M  V30 3770 H 338.006 -3.88699 1.6276 0
M  V30 3771 H 336.73 -3.2135 0.583255 0
M  V30 3772 H 335.389 -2.56843 2.61586 0
M  V30 3773 H 335.037 -4.79246 1.52748 0
M  V30 3774 H 334.737 -4.87426 3.2816 0
M  V30 3775 H 336.261 -5.52038 2.60933 0
M  V30 3776 H 337.675 -3.90049 4.20161 0
M  V30 3777 H 336.072 -3.49289 4.87972 0
M  V30 3778 H 337.142 -2.1928 4.32486 0
M  V30 3779 N 338.485 -1.33259 -0.841409 0
M  V30 3780 C 339.71 -1.2775 -1.63385 0
M  V30 3781 C 340.135 0.149188 -1.87507 0
M  V30 3782 O 339.493 1.10498 -1.43736 0
M  V30 3783 C 339.541 -2.05571 -2.96265 0
M  V30 3784 O 338.645 -1.41257 -3.87453 0
M  V30 3785 H 337.986 -0.439627 -0.497618 0
M  V30 3786 H 340.516 -1.75782 -1.04699 0
M  V30 3787 H 340.526 -2.16241 -3.45982 0
M  V30 3788 H 339.201 -3.09309 -2.7803 0
M  V30 3789 H 337.778 -1.39217 -3.45938 0
M  V30 3790 N 339.963 1.05934 -1.16686 0
M  V30 3791 C 341.24 1.75643 -0.860747 0
M  V30 3792 C 341.62 2.01144 0.640641 0
M  V30 3793 O 340.968 1.64147 1.58959 0
M  V30 3794 C 341.178 3.05493 -1.68745 0
M  V30 3795 C 342.526 3.79581 -1.90271 0
M  V30 3796 O 343.55 3.15344 -1.65641 0
M  V30 3797 O 342.409 4.9499 -2.31618 0
M  V30 3798 H 339.503 0.763426 -0.317977 0
M  V30 3799 H 342.049 1.1217 -1.27342 0
M  V30 3800 H 340.821 2.8264 -2.70611 0
M  V30 3801 H 340.444 3.76702 -1.27206 0
M  V30 3802 N 341.441 0.965919 1.2453 0
M  V30 3803 C 342.688 0.626831 1.92554 0
M  V30 3804 C 343.016 -0.837739 1.75534 0
M  V30 3805 O 342.271 -1.61793 1.10098 0
M  V30 3806 C 342.57 0.945428 3.44669 0
M  V30 3807 C 342.236 2.39785 3.81856 0
M  V30 3808 C 340.898 2.79483 3.91718 0
M  V30 3809 C 343.25 3.34055 4.00071 0
M  V30 3810 C 340.578 4.12496 4.1721 0
M  V30 3811 C 342.93 4.66694 4.27059 0
M  V30 3812 C 341.594 5.06172 4.3514 0
M  V30 3813 H 340.864 0.229374 0.704605 0
M  V30 3814 H 343.511 1.21707 1.4785 0
M  V30 3815 H 341.816 0.272926 3.90848 0
M  V30 3816 H 343.513 0.661484 3.95507 0
M  V30 3817 H 340.103 2.08003 3.74743 0
M  V30 3818 H 344.287 3.04571 3.91855 0
M  V30 3819 H 339.543 4.42709 4.21685 0
M  V30 3820 H 343.717 5.3971 4.40097 0
M  V30 3821 H 341.344 6.09262 4.54646 0
M  V30 3822 N 342.919 -1.39368 0.735821 0
M  V30 3823 C 344.167 -2.00101 0.283562 0
M  V30 3824 C 344.488 -1.5868 -1.13338 0
M  V30 3825 O 343.758 -0.835423 -1.77193 0
M  V30 3826 H 342.338 -0.740024 0.101851 0
M  V30 3827 H 345 -1.70404 0.945962 0
M  V30 3828 H 344.096 -3.10323 0.332604 0
M  V30 3829 N 344.397 -0.483516 -1.5 0
M  V30 3830 C 345.327 0.293829 -2.31644 0
M  V30 3831 C 346.308 0.978864 -1.39112 0
M  V30 3832 O 347.493 0.973644 -1.68029 0
M  V30 3833 C 344.623 1.36897 -3.19181 0
M  V30 3834 C 343.577 0.804833 -4.20365 0
M  V30 3835 C 342.903 1.9792 -4.96721 0
M  V30 3836 C 344.203 -0.192313 -5.21946 0
M  V30 3837 H 345.897 -0.387616 -2.9688 0
M  V30 3838 H 343.443 -0.187856 -1.42769 0
M  V30 3839 H 345.396 1.92037 -3.751 0
M  V30 3840 H 344.12 2.07936 -2.51853 0
M  V30 3841 H 342.779 0.275319 -3.65565 0
M  V30 3842 H 342.427 2.67686 -4.25856 0
M  V30 3843 H 342.127 1.60789 -5.65173 0
M  V30 3844 H 343.651 2.53526 -5.55479 0
M  V30 3845 H 345.065 0.270333 -5.72662 0
M  V30 3846 H 343.462 -0.478543 -5.98189 0
M  V30 3847 H 344.532 -1.11409 -4.71928 0
M  V30 3848 N 345.875 1.56104 -0.216619 0
M  V30 3849 C 347.115 2.00074 0.418322 0
M  V30 3850 C 347.479 1.10098 1.57297 0
M  V30 3851 O 348.68 1.43393 2.27359 0
M  V30 3852 C 346.951 3.47231 0.846477 0
M  V30 3853 S 348.51 4.13223 1.47622 0
M  V30 3854 H 345.328 0.698457 0.132962 0
M  V30 3855 H 347.93 1.92784 -0.324748 0
M  V30 3856 H 346.634 4.104 -0.0036319 0
M  V30 3857 H 346.165 3.58384 1.62248 0
M  V30 3858 H 348.18 4.12005 2.76526 0
M  V30 3859 N 347.353 -0.0568162 1.57498 0
M  V30 3860 C 348.581 -0.765626 1.92213 0
M  V30 3861 C 348.996 -1.70353 0.813961 0
M  V30 3862 O 348.353 -1.81268 -0.211701 0
M  V30 3863 C 348.404 -1.5465 3.2675 0
M  V30 3864 O 348.125 -0.646278 4.33307 0
M  V30 3865 C 349.626 -2.35497 3.75574 0
M  V30 3866 H 346.846 -0.216835 0.634999 0
M  V30 3867 H 349.39 -0.0226146 2.04487 0
M  V30 3868 H 347.545 -2.24165 3.15957 0
M  V30 3869 H 347.959 -1.19093 5.108 0
M  V30 3870 H 349.433 -2.85722 4.72299 0
M  V30 3871 H 349.91 -3.15692 3.05344 0
M  V30 3872 H 350.516 -1.7111 3.8936 0
M  V30 3873 N 348.832 -1.54138 -0.328536 0
M  V30 3874 C 350.08 -1.71765 -1.06496 0
M  V30 3875 C 350.401 -0.49149 -1.88704 0
M  V30 3876 O 349.671 0.494539 -1.89555 0
M  V30 3877 H 348.251 -0.633295 -0.396164 0
M  V30 3878 H 350.913 -1.91429 -0.366176 0
M  V30 3879 H 350.009 -2.5951 -1.73381 0
M  V30 3880 N 350.31 0.590341 -1.46126 0
M  V30 3881 C 351.24 1.71032 -1.58966 0
M  V30 3882 C 352.221 1.64302 -0.440335 0
M  V30 3883 O 353.406 1.82436 -0.665634 0
M  V30 3884 C 350.536 3.09665 -1.57241 0
M  V30 3885 C 349.49 3.31221 -2.71066 0
M  V30 3886 C 348.816 4.70303 -2.54399 0
M  V30 3887 C 350.116 3.19796 -4.1295 0
M  V30 3888 H 351.81 1.60543 -2.52718 0
M  V30 3889 H 349.356 0.770933 -1.21625 0
M  V30 3890 H 351.309 3.87831 -1.64819 0
M  V30 3891 H 350.033 3.21036 -0.600289 0
M  V30 3892 H 348.692 2.55452 -2.62944 0
M  V30 3893 H 348.34 4.78429 -1.55288 0
M  V30 3894 H 348.04 4.85679 -3.30741 0
M  V30 3895 H 349.564 5.50647 -2.63857 0
M  V30 3896 H 350.978 3.87815 -4.22223 0
M  V30 3897 H 349.375 3.46696 -4.89818 0
M  V30 3898 H 350.445 2.16983 -4.33643 0
M  V30 3899 N 351.788 1.33704 0.83433 0
M  V30 3900 C 352.735 1.24335 1.94447 0
M  V30 3901 C 353.705 0.120991 1.65659 0
M  V30 3902 O 354.89 0.300035 1.88426 0
M  V30 3903 C 352.03 0.993124 3.30501 0
M  V30 3904 C 351.143 2.20217 3.71657 0
M  V30 3905 C 350.278 1.88572 4.96602 0
M  V30 3906 C 349.317 3.05683 5.30306 0
M  V30 3907 N 348.454 2.73997 6.46429 0
M  V30 3908 H 353.294 2.1928 2.01792 0
M  V30 3909 H 350.831 1.09035 0.987404 0
M  V30 3910 H 352.789 0.828467 4.08892 0
M  V30 3911 H 351.419 0.0803902 3.227 0
M  V30 3912 H 350.471 2.47642 2.88752 0
M  V30 3913 H 351.783 3.07752 3.92543 0
M  V30 3914 H 350.937 1.68776 5.82752 0
M  V30 3915 H 349.676 0.982799 4.77695 0
M  V30 3916 H 348.681 3.26088 4.42659 0
M  V30 3917 H 349.906 3.96737 5.51159 0
M  V30 3918 H 347.852 1.86268 6.28999 0
M  V30 3919 H 347.769 3.55064 6.67432 0
M  V30 3920 H 349.037 2.57679 7.35678 0
M  V30 3921 N 353.266 -1.05314 1.17247 0
M  V30 3922 C 354.213 -2.13031 0.888058 0
M  V30 3923 C 355.183 -1.65253 -0.167537 0
M  V30 3924 O 356.368 -1.90775 -0.0305974 0
M  V30 3925 C 353.508 -3.42702 0.406147 0
M  V30 3926 C 352.621 -4.04161 1.52572 0
M  V30 3927 C 351.756 -5.21744 0.997808 0
M  V30 3928 C 350.795 -5.75207 2.09291 0
M  V30 3929 N 349.932 -6.84094 1.57986 0
M  V30 3930 H 354.772 -2.36698 1.81048 0
M  V30 3931 H 352.309 -1.16121 0.903013 0
M  V30 3932 H 354.267 -4.17059 0.108305 0
M  V30 3933 H 352.897 -3.19222 -0.479313 0
M  V30 3934 H 351.949 -3.27253 1.93931 0
M  V30 3935 H 353.261 -4.39881 2.35172 0
M  V30 3936 H 352.415 -6.03168 0.653739 0
M  V30 3937 H 351.154 -4.87495 0.141232 0
M  V30 3938 H 350.159 -4.92414 2.44557 0
M  V30 3939 H 351.384 -6.11505 2.95362 0
M  V30 3940 H 349.33 -6.51745 0.74598 0
M  V30 3941 H 349.247 -7.18811 2.34195 0
M  V30 3942 H 350.515 -7.69172 1.26468 0
M  V30 3943 N 354.744 -0.972509 -1.24016 0
M  V30 3944 C 355.707 -0.511403 -2.23422 0
M  V30 3945 C 356.707 0.394679 -1.55881 0
M  V30 3946 O 357.897 0.189469 -1.73167 0
M  V30 3947 C 355.029 0.258769 -3.39916 0
M  V30 3948 H 356.222 -1.39024 -2.6573 0
M  V30 3949 H 353.775 -0.757585 -1.36713 0
M  V30 3950 H 354.51 1.1545 -3.03054 0
M  V30 3951 H 354.295 -0.391522 -3.9014 0
M  V30 3952 H 355.785 0.570244 -4.13688 0
M  V30 3953 N 356.222 1.38976 -0.743202 0
M  V30 3954 C 357.172 2.27843 -0.084513 0
M  V30 3955 C 358.156 1.44677 0.704094 0
M  V30 3956 O 359.348 1.67511 0.571755 0
M  V30 3957 C 356.477 3.33466 0.815781 0
M  V30 3958 C 355.563 4.24095 0.0208844 0
M  V30 3959 N 355.954 4.95609 -1.0102 0
M  V30 3960 C 354.252 4.45303 0.249293 0
M  V30 3961 C 354.953 5.62287 -1.49024 0
M  V30 3962 N 353.929 5.37571 -0.807377 0
M  V30 3963 H 357.731 2.80593 -0.87436 0
M  V30 3964 H 355.245 1.51755 -0.578283 0
M  V30 3965 H 357.242 3.96008 1.30321 0
M  V30 3966 H 355.902 2.82276 1.6047 0
M  V30 3967 H 356.913 4.98849 -1.39176 0
M  V30 3968 H 353.59 4.0504 1.01237 0
M  V30 3969 H 354.98 6.29519 -2.34853 0
M  V30 3970 N 357.7 0.491464 1.49741 0
M  V30 3971 C 359.116 0.146835 1.58923 0
M  V30 3972 C 359.316 -1.34804 1.49767 0
M  V30 3973 O 358.372 -2.12317 1.36667 0
M  V30 3974 C 359.685 0.715157 2.92072 0
M  V30 3975 C 361.233 0.680407 3.05515 0
M  V30 3976 C 361.708 1.22663 4.41269 0
M  V30 3977 N 363.199 1.18691 4.47735 0
M  V30 3978 C 363.934 1.57984 5.51207 0
M  V30 3979 N 363.43 2.04824 6.6183 0
M  V30 3980 N 365.223 1.49459 5.41866 0
M  V30 3981 H 357.374 1.46347 1.53936 0
M  V30 3982 H 359.637 0.606453 0.728642 0
M  V30 3983 H 359.343 1.76317 3.04311 0
M  V30 3984 H 359.217 0.17018 3.76816 0
M  V30 3985 H 361.604 -0.358743 2.92911 0
M  V30 3986 H 361.685 1.26242 2.22478 0
M  V30 3987 H 361.329 2.26451 4.54623 0
M  V30 3988 H 361.259 0.620637 5.2293 0
M  V30 3989 H 363.75 0.843605 3.68364 0
M  V30 3990 H 364.063 2.32901 7.3687 0
M  V30 3991 H 362.408 2.08791 6.62896 0
M  V30 3992 H 365.599 1.12692 4.54333 0
M  V30 3993 H 365.772 1.80406 6.22381 0
M  V30 3994 N 359.178 -1.55987 0.224894 0
M  V30 3995 C 360.406 -2.02784 -0.410665 0
M  V30 3996 C 360.821 -1.10464 -1.53112 0
M  V30 3997 O 360.178 -0.114871 -1.82138 0
M  V30 3998 C 360.229 -3.49087 -0.939165 0
M  V30 3999 O 359.95 -4.37887 0.136614 0
M  V30 4000 C 361.451 -4.11543 -1.64763 0
M  V30 4001 H 358.671 -0.663484 -0.100148 0
M  V30 4002 H 361.215 -2.01614 0.342326 0
M  V30 4003 H 359.37 -3.50861 -1.64242 0
M  V30 4004 H 359.784 -5.23849 -0.261155 0
M  V30 4005 H 361.258 -5.15673 -1.96939 0
M  V30 4006 H 361.735 -3.56736 -2.56195 0
M  V30 4007 H 362.341 -4.13629 -0.989503 0
M  V30 4008 N 360.656 0.0484629 -1.57525 0
M  V30 4009 C 361.566 1.07241 -2.08654 0
M  V30 4010 C 362.582 1.409 -1.02095 0
M  V30 4011 O 363.758 1.50609 -1.33712 0
M  V30 4012 C 360.823 2.36008 -2.5397 0
M  V30 4013 C 359.884 2.09108 -3.7493 0
M  V30 4014 C 359.117 3.31736 -4.18075 0
M  V30 4015 O 359.34 4.41714 -3.60895 0
M  V30 4016 O 358.274 3.18576 -5.10679 0
M  V30 4017 H 362.1 0.667965 -2.96263 0
M  V30 4018 H 359.685 0.26417 -1.47046 0
M  V30 4019 H 361.567 3.11747 -2.83535 0
M  V30 4020 H 360.242 2.75786 -1.69481 0
M  V30 4021 H 359.149 1.31 -3.50414 0
M  V30 4022 H 360.482 1.74198 -4.60343 0
M  V30 4023 N 362.134 1.5431 0.320358 0
M  V30 4024 C 363.381 1.72668 1.05792 0
M  V30 4025 C 363.709 0.502084 1.87908 0
M  V30 4026 O 362.964 -0.516149 1.88771 0
M  V30 4027 C 363.263 2.95639 2.00828 0
M  V30 4028 C 362.929 4.30265 1.34843 0
M  V30 4029 C 361.591 4.66865 1.16578 0
M  V30 4030 C 363.943 5.13801 0.875095 0
M  V30 4031 C 361.271 5.84597 0.496336 0
M  V30 4032 C 363.623 6.32219 0.219463 0
M  V30 4033 C 362.287 6.67495 0.0246915 0
M  V30 4034 H 361.557 0.631837 0.387121 0
M  V30 4035 H 364.204 1.88552 0.334735 0
M  V30 4036 H 362.509 2.74456 2.79609 0
M  V30 4037 H 364.206 3.07038 2.57932 0
M  V30 4038 H 360.796 4.01472 1.50061 0
M  V30 4039 H 364.98 4.86039 1.00398 0
M  V30 4040 H 360.236 6.10486 0.334264 0
M  V30 4041 H 364.41 6.96227 -0.155291 0
M  V30 4042 H 362.037 7.5858 -0.496065 0
M  V30 4043 N 363.613 -0.582584 1.46437 0
M  V30 4044 C 364.843 -1.36484 1.55099 0
M  V30 4045 C 365.251 -1.88233 0.191056 0
M  V30 4046 O 364.594 -1.6429 -0.821858 0
M  V30 4047 C 364.656 -2.588 2.49525 0
M  V30 4048 C 364.32 -2.28517 3.95764 0
M  V30 4049 C 365.317 -1.87346 4.84972 0
M  V30 4050 C 363.002 -2.40658 4.40896 0
M  V30 4051 C 364.996 -1.5871 6.17325 0
M  V30 4052 C 362.683 -2.11635 5.73284 0
M  V30 4053 C 363.681 -1.70725 6.61318 0
M  V30 4054 O 363.369 -1.42057 7.91249 0
M  V30 4055 H 363.101 -0.423297 0.527063 0
M  V30 4056 H 365.655 -0.715188 1.92547 0
M  V30 4057 H 363.885 -3.26571 2.07095 0
M  V30 4058 H 365.574 -3.20868 2.48593 0
M  V30 4059 H 366.34 -1.77481 4.5136 0
M  V30 4060 H 362.219 -2.71463 3.72598 0
M  V30 4061 H 365.763 -1.26704 6.85997 0
M  V30 4062 H 361.66 -2.21124 6.06444 0
M  V30 4063 H 362.428 -1.55901 8.03515 0
M  V30 4064 N 365.091 -1.34144 -0.827227 0
M  V30 4065 C 366.507 -1.13732 -1.11969 0
M  V30 4066 C 366.707 0.0640463 -2.01398 0
M  V30 4067 O 365.763 0.740856 -2.41387 0
M  V30 4068 C 367.076 -2.43047 -1.77055 0
M  V30 4069 C 368.624 -2.49063 -1.89569 0
M  V30 4070 C 369.099 -3.78369 -2.58072 0
M  V30 4071 N 370.59 -3.79505 -2.65575 0
M  V30 4072 C 371.325 -4.76274 -3.19297 0
M  V30 4073 N 370.821 -5.83424 -3.73616 0
M  V30 4074 N 372.614 -4.63735 -3.17658 0
M  V30 4075 H 364.765 -2.11126 -0.232296 0
M  V30 4076 H 367.028 -0.933424 -0.165602 0
M  V30 4077 H 366.734 -3.31025 -1.18807 0
M  V30 4078 H 366.608 -2.56066 -2.76966 0
M  V30 4079 H 368.995 -1.61527 -2.46968 0
M  V30 4080 H 369.076 -2.39975 -0.885745 0
M  V30 4081 H 368.72 -4.66293 -2.01329 0
M  V30 4082 H 368.65 -3.84737 -3.59562 0
M  V30 4083 H 371.141 -3.02074 -2.27068 0
M  V30 4084 H 371.454 -6.53282 -4.12846 0
M  V30 4085 H 369.799 -5.87143 -3.71871 0
M  V30 4086 H 372.99 -3.79177 -2.74486 0
M  V30 4087 H 373.163 -5.39318 -3.59221 0
M  V30 4088 N 366.569 1.04691 -1.17803 0
M  V30 4089 C 367.517 2.14665 -0.895635 0
M  V30 4090 C 368.511 1.68806 0.141679 0
M  V30 4091 O 369.717 1.79999 -0.00587914 0
M  V30 4092 H 366.092 0.701038 -0.272121 0
M  V30 4093 H 368.063 2.35685 -1.83017 0
M  V30 4094 C 366.812 3.45019 -0.430962 0
M  V30 4095 H 366.135 3.8071 -1.22064 0
M  V30 4096 H 367.575 4.23125 -0.272301 0
M  V30 4097 C 366.034 3.25943 0.852207 0
M  V30 4098 O 366.564 3.5296 1.91786 0
M  V30 4099 N 364.77 2.79304 0.802346 0
M  V30 4100 H 364.317 2.57518 -0.0650788 0
M  V30 4101 H 364.275 2.66921 1.66134 0
M  V30 4102 N 368.047 0.979072 1.23499 0
M  V30 4103 C 368.977 0.537606 2.27227 0
M  V30 4104 C 369.958 -0.428539 1.64613 0
M  V30 4105 O 371.143 -0.322191 1.91509 0
M  V30 4106 C 368.273 -0.162052 3.46922 0
M  V30 4107 C 367.227 0.721242 4.21879 0
M  V30 4108 C 366.553 -0.110555 5.34586 0
M  V30 4109 C 367.853 2.01141 4.82016 0
M  V30 4110 H 369.547 1.40462 2.64406 0
M  V30 4111 H 367.093 0.67684 1.27102 0
M  V30 4112 H 369.046 -0.482192 4.18632 0
M  V30 4113 H 367.77 -1.06351 3.08799 0
M  V30 4114 H 366.429 1.02482 3.51984 0
M  V30 4115 H 366.077 -1.0125 4.92704 0
M  V30 4116 H 365.777 0.477325 5.85658 0
M  V30 4117 H 367.301 -0.425107 6.09118 0
M  V30 4118 H 368.715 1.75612 5.45741 0
M  V30 4119 H 367.112 2.54695 5.43369 0
M  V30 4120 H 368.182 2.69909 4.02836 0
M  V30 4121 N 369.525 -1.3858 0.750561 0
M  V30 4122 C 370.753 -2.04471 0.316098 0
M  V30 4123 C 371.168 -1.56606 -1.05452 0
M  V30 4124 O 370.525 -0.737784 -1.66922 0
M  V30 4125 C 370.576 -3.60025 0.326275 0
M  V30 4126 O 370.297 -4.06133 1.6428 0
M  V30 4127 C 371.798 -4.43131 -0.122429 0
M  V30 4128 H 369.018 -0.65717 0.135528 0
M  V30 4129 H 371.562 -1.77329 1.01857 0
M  V30 4130 H 369.717 -3.86014 -0.327431 0
M  V30 4131 H 370.131 -5.00547 1.56693 0
M  V30 4132 H 371.605 -5.51963 -0.0641473 0
M  V30 4133 H 372.082 -4.23333 -1.16988 0
M  V30 4134 H 372.688 -4.22323 0.50229 0
M  V30 4135 N 371.003 -0.499398 -1.49478 0
M  V30 4136 C 371.953 0.299103 -2.2603 0
M  V30 4137 C 372.937 0.936934 -1.30807 0
M  V30 4138 O 374.129 0.844798 -1.55538 0
M  V30 4139 C 371.258 1.36391 -3.15044 0
M  V30 4140 C 370.344 0.732398 -4.17728 0
M  V30 4141 N 370.735 -0.164028 -5.05534 0
M  V30 4142 C 369.033 0.993162 -4.34801 0
M  V30 4143 C 369.734 -0.525345 -5.79323 0
M  V30 4144 N 368.71 0.106348 -5.43496 0
M  V30 4145 H 372.512 -0.391003 -2.91287 0
M  V30 4146 H 370.026 -0.31537 -1.59308 0
M  V30 4147 H 372.023 1.94939 -3.68516 0
M  V30 4148 H 370.683 2.05571 -2.51338 0
M  V30 4149 H 371.694 -0.534736 -5.15132 0
M  V30 4150 H 368.371 1.67783 -3.82302 0
M  V30 4151 H 369.761 -1.25862 -6.60006 0
M  V30 4152 N 372.481 1.55866 -0.233164 0
M  V30 4153 C 373.429 2.22176 0.68851 0
M  V30 4154 C 374.423 1.20487 1.19076 0
M  V30 4155 O 375.629 1.38536 1.14925 0
M  V30 4156 H 372.004 0.712511 0.240483 0
M  V30 4157 H 373.975 2.98212 0.105935 0
M  V30 4158 C 372.724 2.92446 1.88071 0
M  V30 4159 H 372.047 3.70458 1.50337 0
M  V30 4160 H 373.487 3.42226 2.50314 0
M  V30 4161 C 371.946 1.95555 2.74335 0
M  V30 4162 O 372.476 1.47986 3.73447 0
M  V30 4163 N 370.682 1.62953 2.40613 0
M  V30 4164 H 370.229 2.01831 1.60069 0
M  V30 4165 H 370.187 0.983886 2.98609 0
M  V30 4166 N 373.959 -0.0401083 1.57549 0
M  V30 4167 C 375.37 -0.588097 1.77196 0
M  V30 4168 C 375.721 -1.76209 0.862832 0
M  V30 4169 O 374.846 -2.16331 0.0548389 0
M  V30 4170 C 375.441 -1.07363 3.21339 0
M  V30 4171 C 374 -1.56723 3.42221 0
M  V30 4172 C 373.147 -0.50041 2.72747 0
M  V30 4173 H 376.098 0.186119 1.57605 0
M  V30 4174 H 376.119 -1.94143 3.27244 0
M  V30 4175 H 375.631 -0.218975 3.87482 0
M  V30 4176 H 373.732 -2.4441 2.81237 0
M  V30 4177 H 373.845 -1.62234 4.50796 0
M  V30 4178 H 372.209 -0.952894 2.36203 0
M  V30 4179 H 372.992 0.344599 3.41566 0
M  V30 4180 N 375.437 -1.54477 -0.31217 0
M  V30 4181 C 376.848 -1.64344 -0.885891 0
M  V30 4182 C 377.199 -0.54485 -1.88483 0
M  V30 4183 O 376.324 0.320387 -2.14015 0
M  V30 4184 C 376.919 -2.97908 -1.61357 0
M  V30 4185 C 375.478 -3.09933 -2.13585 0
M  V30 4186 C 374.625 -2.59971 -0.964897 0
M  V30 4187 H 377.576 -1.58448 -0.0894528 0
M  V30 4188 H 377.597 -2.88706 -2.47848 0
M  V30 4189 H 377.109 -3.77845 -0.886277 0
M  V30 4190 H 375.21 -2.34694 -2.89395 0
M  V30 4191 H 375.323 -4.15916 -2.37804 0
M  V30 4192 H 373.687 -2.16147 -1.34731 0
M  V30 4193 H 374.47 -3.42376 -0.251742 0
M  V30 4194 N 376.915 0.57481 -1.46744 0
M  V30 4195 C 378.14 1.36341 -1.56288 0
M  V30 4196 C 378.565 1.86954 -0.207347 0
M  V30 4197 O 377.923 1.62006 0.813871 0
M  V30 4198 C 377.971 2.52147 -2.57787 0
M  V30 4199 O 377.075 3.53834 -2.11838 0
M  V30 4200 H 376.416 0.405713 -0.525636 0
M  V30 4201 H 378.946 0.696453 -1.92382 0
M  V30 4202 H 378.956 2.98958 -2.77648 0
M  V30 4203 H 377.631 2.14663 -3.5622 0
M  V30 4204 H 376.208 3.1345 -2.01999 0
M  V30 4205 N 378.394 1.34581 0.820102 0
M  V30 4206 C 379.671 1.17675 1.56244 0
M  V30 4207 C 380.051 -0.249541 2.0962 0
M  V30 4208 O 379.399 -1.25125 1.91196 0
M  V30 4209 C 379.609 2.23364 2.6816 0
M  V30 4210 C 380.957 2.58485 3.36854 0
M  V30 4211 O 381.981 2.22175 2.78418 0
M  V30 4212 O 380.84 3.20868 4.42386 0
M  V30 4213 H 377.934 0.456333 0.689702 0
M  V30 4214 H 380.48 1.46222 0.861231 0
M  V30 4215 H 379.252 3.19087 2.26493 0
M  V30 4216 H 378.875 1.96009 3.45928 0
M  V30 4217 N 379.872 -1.04064 1.18357 0
M  V30 4218 C 381.119 -1.77265 0.978947 0
M  V30 4219 C 381.447 -1.88189 -0.491428 0
M  V30 4220 O 380.702 -1.38653 -1.38108 0
M  V30 4221 C 381.001 -3.20634 1.57888 0
M  V30 4222 C 380.667 -3.29743 3.07539 0
M  V30 4223 C 379.329 -3.31937 3.48384 0
M  V30 4224 C 381.681 -3.29841 4.03552 0
M  V30 4225 C 379.009 -3.3187 4.83818 0
M  V30 4226 C 381.361 -3.31313 5.38901 0
M  V30 4227 C 380.025 -3.31799 5.79194 0
M  V30 4228 H 379.295 -0.648659 0.358222 0
M  V30 4229 H 381.942 -1.22225 1.47422 0
M  V30 4230 H 380.247 -3.78675 1.00561 0
M  V30 4231 H 381.944 -3.75917 1.39598 0
M  V30 4232 H 378.534 -3.28757 2.74986 0
M  V30 4233 H 382.718 -3.27337 3.73047 0
M  V30 4234 H 377.974 -3.30562 5.14333 0
M  V30 4235 H 382.148 -3.30338 6.13066 0
M  V30 4236 H 379.775 -3.315 6.84114 0
M  V30 4237 N 381.35 -0.985608 -1.22978 0
M  V30 4238 C 382.575 -0.675254 -1.961 0
M  V30 4239 C 383 0.752154 -1.72407 0
M  V30 4240 O 382.358 1.5131 -0.998751 0
M  V30 4241 C 382.406 -0.977899 -3.47087 0
M  V30 4242 O 381.51 -0.072685 -4.12336 0
M  V30 4243 H 380.851 -0.253443 -0.613728 0
M  V30 4244 H 383.381 -1.32061 -1.56272 0
M  V30 4245 H 383.391 -0.916739 -3.97567 0
M  V30 4246 H 382.066 -2.01807 -3.63657 0
M  V30 4247 H 380.643 -0.188703 -3.72422 0
M  V30 4248 N 382.828 1.3818 -0.7579 0
M  V30 4249 C 384.075 2.00019 -0.315985 0
M  V30 4250 C 384.403 1.60163 1.10355 0
M  V30 4251 O 383.658 0.83264 1.77103 0
M  V30 4252 C 383.957 3.55252 -0.391218 0
M  V30 4253 C 383.623 4.14834 -1.76702 0
M  V30 4254 C 382.285 4.30821 -2.14353 0
M  V30 4255 C 384.637 4.47658 -2.66931 0
M  V30 4256 C 381.965 4.76928 -3.41696 0
M  V30 4257 C 384.317 4.95184 -3.93669 0
M  V30 4258 C 382.981 5.09377 -4.31383 0
M  V30 4259 H 382.251 0.731923 -0.115627 0
M  V30 4260 H 384.898 1.65161 -0.969223 0
M  V30 4261 H 383.203 3.90273 0.34558 0
M  V30 4262 H 384.9 4.00988 -0.030805 0
M  V30 4263 H 381.49 4.02808 -1.46435 0
M  V30 4264 H 385.674 4.34904 -2.39106 0
M  V30 4265 H 380.93 4.86103 -3.70829 0
M  V30 4266 H 385.104 5.19551 -4.63724 0
M  V30 4267 H 382.731 5.44865 -5.30119 0
M  V30 4268 N 384.306 0.507319 1.49211 0
M  V30 4269 C 385.238 -0.304532 2.27168 0
M  V30 4270 C 386.251 -0.924956 1.33972 0
M  V30 4271 O 387.44 -0.807227 1.59205 0
M  V30 4272 C 384.54 -1.44431 3.06583 0
M  V30 4273 C 383.713 -0.930026 4.27398 0
M  V30 4274 C 382.772 -1.94817 4.88807 0
M  V30 4275 O 381.798 -1.51418 5.4869 0
M  V30 4276 N 383 -3.279 4.79022 0
M  V30 4277 H 385.765 0.36395 2.97482 0
M  V30 4278 H 383.326 0.340249 1.58284 0
M  V30 4279 H 385.318 -2.12311 3.44537 0
M  V30 4280 H 383.888 -2.01684 2.38835 0
M  V30 4281 H 383.108 -0.0759244 3.94127 0
M  V30 4282 H 384.396 -0.564932 5.05654 0
M  V30 4283 H 383.794 -3.65843 4.3148 0
M  V30 4284 H 382.351 -3.91476 5.21142 0
M  V30 4285 N 385.784 -1.5574 0.241426 0
M  V30 4286 C 386.732 -2.22538 -0.676718 0
M  V30 4287 C 387.726 -1.21117 -1.18436 0
M  V30 4288 O 388.932 -1.39144 -1.14188 0
M  V30 4289 H 385.307 -0.713776 -0.236701 0
M  V30 4290 H 387.278 -2.98264 -0.0901187 0
M  V30 4291 C 386.027 -2.93439 -1.86518 0
M  V30 4292 H 385.35 -3.7125 -1.4837 0
M  V30 4293 H 386.79 -3.43549 -2.48495 0
M  V30 4294 C 385.249 -1.97008 -2.73294 0
M  V30 4295 O 385.779 -1.49965 -3.72657 0
M  V30 4296 N 383.985 -1.64227 -2.39745 0
M  V30 4297 H 383.532 -2.02677 -1.58996 0
M  V30 4298 H 383.49 -0.999708 -2.98083 0
M  V30 4299 N 387.262 0.0317525 -1.57568 0
M  V30 4300 C 388.195 1.06621 -2.0176 0
M  V30 4301 C 389.173 1.35323 -0.901462 0
M  V30 4302 O 390.357 1.48025 -1.16708 0
M  V30 4303 C 387.484 2.40155 -2.38837 0
M  V30 4304 C 386.53 2.27327 -3.60867 0
M  V30 4305 S 387.363 1.62925 -5.10113 0
M  V30 4306 C 388.519 2.97955 -5.5043 0
M  V30 4307 H 388.752 0.689781 -2.89187 0
M  V30 4308 H 386.285 0.24164 -1.52497 0
M  V30 4309 H 388.243 3.1695 -2.6087 0
M  V30 4310 H 386.904 2.74946 -1.51867 0
M  V30 4311 H 386.097 3.25898 -3.84456 0
M  V30 4312 H 385.699 1.58675 -3.38671 0
M  V30 4313 H 387.991 3.94285 -5.5095 0
M  V30 4314 H 388.934 2.79102 -6.50775 0
M  V30 4315 H 389.342 3.00404 -4.77931 0
M  V30 4316 N 388.74 1.54641 0.303973 0
M  V30 4317 C 389.688 1.86137 1.39484 0
M  V30 4318 C 390.682 0.734854 1.52631 0
M  V30 4319 O 391.888 0.918803 1.54784 0
M  V30 4320 H 388.263 0.590324 0.465856 0
M  V30 4321 H 390.234 2.77324 1.10154 0
M  V30 4322 C 388.983 2.12274 2.75382 0
M  V30 4323 H 388.306 2.98429 2.66046 0
M  V30 4324 H 389.746 2.38254 3.5073 0
M  V30 4325 C 388.205 0.920365 3.24085 0
M  V30 4326 O 388.735 0.139377 4.01458 0
M  V30 4327 N 386.941 0.726566 2.81371 0
M  V30 4328 H 386.488 1.36332 2.18567 0
M  V30 4329 H 386.446 -0.0763799 3.14307 0
M  V30 4330 N 390.218 -0.567019 1.47046 0
M  V30 4331 C 391.443 -1.3551 1.57009 0
M  V30 4332 C 391.868 -1.86841 0.217259 0
M  V30 4333 O 391.226 -1.62435 -0.805268 0
M  V30 4334 C 391.274 -2.50777 2.5912 0
M  V30 4335 O 390.378 -3.52706 2.13711 0
M  V30 4336 H 389.719 -0.402919 0.52778 0
M  V30 4337 H 392.249 -0.686241 1.92748 0
M  V30 4338 H 392.259 -2.97481 2.79229 0
M  V30 4339 H 390.934 -2.12771 3.57353 0
M  V30 4340 H 389.511 -3.12374 2.03659 0
M  V30 4341 N 391.696 -1.35014 -0.812953 0
M  V30 4342 C 392.643 -1.27412 -1.92444 0
M  V30 4343 C 393.613 -0.14733 -1.65445 0
M  V30 4344 O 394.798 -0.329974 -1.87925 0
M  V30 4345 C 391.938 -1.04558 -3.28879 0
M  V30 4346 C 391.051 -2.26101 -3.68106 0
M  V30 4347 C 390.186 -1.96449 -4.9354 0
M  V30 4348 C 389.225 -3.14081 -5.25376 0
M  V30 4349 N 388.362 -2.84246 -6.41988 0
M  V30 4350 H 393.202 -2.22463 -1.98278 0
M  V30 4351 H 390.739 -1.10593 -0.969933 0
M  V30 4352 H 392.697 -0.893413 -4.07522 0
M  V30 4353 H 391.327 -0.131719 -3.22531 0
M  V30 4354 H 390.379 -2.52204 -2.84775 0
M  V30 4355 H 391.691 -3.13959 -3.87597 0
M  V30 4356 H 390.845 -1.78026 -5.79993 0
M  V30 4357 H 389.584 -1.05867 -4.76071 0
M  V30 4358 H 388.589 -3.33089 -4.37415 0
M  V30 4359 H 389.814 -4.05455 -5.44778 0
M  V30 4360 H 387.76 -1.96252 -6.25956 0
M  V30 4361 H 387.677 -3.65637 -6.61699 0
M  V30 4362 H 388.945 -2.6935 -7.31485 0
M  V30 4363 N 393.175 1.03435 -1.18907 0
M  V30 4364 C 394.591 1.28973 -0.940111 0
M  V30 4365 C 394.791 1.97676 0.390691 0
M  V30 4366 O 393.847 2.26127 1.12352 0
M  V30 4367 C 395.16 2.14221 -2.11021 0
M  V30 4368 C 396.708 2.27547 -2.14922 0
M  V30 4369 C 397.183 3.16164 -3.31367 0
M  V30 4370 N 398.674 3.23752 -3.31269 0
M  V30 4371 C 399.409 3.92495 -4.18014 0
M  V30 4372 N 398.905 4.63515 -5.14904 0
M  V30 4373 N 400.698 3.88838 -4.05908 0
M  V30 4374 H 392.849 0.57252 -2.04538 0
M  V30 4375 H 395.112 0.315184 -0.894071 0
M  V30 4376 H 394.818 1.71054 -3.073 0
M  V30 4377 H 394.692 3.14919 -2.0762 0
M  V30 4378 H 397.079 2.69947 -1.19217 0
M  V30 4379 H 397.16 1.26418 -2.22378 0
M  V30 4380 H 396.804 2.74474 -4.27348 0
M  V30 4381 H 396.734 4.17339 -3.21148 0
M  V30 4382 H 399.225 2.73167 -2.61129 0
M  V30 4383 H 399.538 5.13583 -5.77453 0
M  V30 4384 H 397.883 4.62398 -5.18857 0
M  V30 4385 H 401.074 3.32491 -3.29495 0
M  V30 4386 H 401.247 4.4214 -4.73726 0
M  V30 4387 N 394.653 0.992116 1.22453 0
M  V30 4388 C 395.6 0.541731 2.24352 0
M  V30 4389 C 396.57 -0.425519 1.60557 0
M  V30 4390 O 397.755 -0.330453 1.87917 0
M  V30 4391 C 394.895 -0.138248 3.44823 0
M  V30 4392 C 394.008 0.870649 4.23136 0
M  V30 4393 C 393.143 0.164269 5.30946 0
M  V30 4394 C 392.182 1.16159 6.00977 0
M  V30 4395 N 391.319 0.483568 7.00433 0
M  V30 4396 H 396.159 1.41541 2.62241 0
M  V30 4397 H 393.696 0.709013 1.28885 0
M  V30 4398 H 395.654 -0.5494 4.13567 0
M  V30 4399 H 394.284 -0.975721 3.077 0
M  V30 4400 H 393.336 1.40013 3.53696 0
M  V30 4401 H 394.648 1.63014 4.7141 0
M  V30 4402 H 393.802 -0.303653 6.0594 0
M  V30 4403 H 392.541 -0.627733 4.83643 0
M  V30 4404 H 391.546 1.64015 5.24766 0
M  V30 4405 H 392.771 1.95445 6.50368 0
M  V30 4406 H 390.717 -0.289012 6.55363 0
M  V30 4407 H 390.634 1.18152 7.4671 0
M  V30 4408 H 391.902 0.0384219 7.79491 0
M  V30 4409 N 396.131 -1.37776 0.765217 0
M  V30 4410 C 397.094 -2.28686 0.153416 0
M  V30 4411 C 398.094 -1.47727 -0.635081 0
M  V30 4412 O 399.284 -1.68027 -0.459632 0
M  V30 4413 C 396.416 -3.31608 -0.790495 0
M  V30 4414 H 397.609 -2.84297 0.954723 0
M  V30 4415 H 395.162 -1.46932 0.53299 0
M  V30 4416 H 395.897 -2.81109 -1.61705 0
M  V30 4417 H 395.682 -3.9144 -0.227348 0
M  V30 4418 H 397.172 -3.99559 -1.21419 0
M  V30 4419 N 397.609 -0.515225 -1.4894 0
M  V30 4420 C 398.519 0.259774 -2.33157 0
M  V30 4421 C 399.535 0.953501 -1.45548 0
M  V30 4422 O 400.711 0.931735 -1.78552 0
M  V30 4423 C 397.776 1.30193 -3.21326 0
M  V30 4424 C 396.837 0.620129 -4.24797 0
M  V30 4425 C 396.07 1.61263 -5.08753 0
M  V30 4426 O 396.293 2.84389 -4.94448 0
M  V30 4427 O 395.227 1.16013 -5.90614 0
M  V30 4428 H 399.053 -0.429932 -3.00641 0
M  V30 4429 H 396.638 -0.276346 -1.46822 0
M  V30 4430 H 398.52 1.90455 -3.75905 0
M  V30 4431 H 397.195 1.97431 -2.56521 0
M  V30 4432 H 396.102 -0.0226019 -3.74093 0
M  V30 4433 H 397.435 -0.0100493 -4.92199 0
M  V30 4434 N 399.087 1.5561 -0.249682 0
M  V30 4435 C 400.315 2.03411 0.378352 0
M  V30 4436 C 400.73 1.12886 1.51335 0
M  V30 4437 O 400.087 0.143833 1.81932 0
M  V30 4438 C 400.138 3.50537 0.88351 0
M  V30 4439 O 399.859 4.37614 -0.20626 0
M  V30 4440 C 401.36 4.14113 1.58195 0
M  V30 4441 H 398.58 0.664994 0.08958 0
M  V30 4442 H 401.124 2.01044 -0.374357 0
M  V30 4443 H 399.279 3.5343 1.58639 0
M  V30 4444 H 399.693 5.24199 0.177782 0
M  V30 4445 H 401.167 5.18741 1.8871 0
M  V30 4446 H 401.644 3.60767 2.50487 0
M  V30 4447 H 402.25 4.15151 0.923573 0
M  V30 4448 N 400.565 -0.0233959 1.57583 0
M  V30 4449 C 401.811 -0.708611 1.90657 0
M  V30 4450 C 402.166 -1.7266 0.848895 0
M  V30 4451 O 401.459 -1.91075 -0.141749 0
M  V30 4452 C 401.653 -1.41428 3.28227 0
M  V30 4453 C 401.482 -0.466155 4.47277 0
M  V30 4454 C 400.252 -0.085117 5.05228 0
M  V30 4455 C 402.45 0.257836 5.13653 0
M  V30 4456 N 400.432 0.863672 6.07794 0
M  V30 4457 C 401.803 1.06209 6.10835 0
M  V30 4458 C 403.858 0.324174 4.96844 0
M  V30 4459 C 402.561 1.9266 6.93018 0
M  V30 4460 C 404.587 1.17583 5.79593 0
M  V30 4461 C 403.949 1.96799 6.7635 0
M  V30 4462 H 400.048 -0.233222 0.746412 0
M  V30 4463 H 402.632 0.0314512 1.94675 0
M  V30 4464 H 400.803 -2.12477 3.25128 0
M  V30 4465 H 402.535 -2.05233 3.488 0
M  V30 4466 H 399.29 -0.448516 4.71471 0
M  V30 4467 H 399.714 1.33274 6.63752 0
M  V30 4468 H 404.356 -0.273975 4.21911 0
M  V30 4469 H 402.074 2.53552 7.67292 0
M  V30 4470 H 405.66 1.23076 5.68633 0
M  V30 4471 H 404.54 2.61635 7.39268 0
M  V30 4472 N 402.043 -1.548 -0.295768 0
M  V30 4473 C 402.99 -1.86113 -1.36494 0
M  V30 4474 C 403.96 -0.7105 -1.50137 0
M  V30 4475 O 405.145 -0.959626 -1.64912 0
M  V30 4476 C 402.285 -2.11861 -2.72413 0
M  V30 4477 C 401.398 -3.39471 -2.67177 0
M  V30 4478 C 400.533 -3.55035 -3.95125 0
M  V30 4479 C 399.572 -4.76418 -3.84308 0
M  V30 4480 N 398.709 -4.8876 -5.04042 0
M  V30 4481 H 403.549 -2.77314 -1.09091 0
M  V30 4482 H 401.086 -1.37315 -0.52753 0
M  V30 4483 H 403.044 -2.24786 -3.51464 0
M  V30 4484 H 401.674 -1.2392 -2.98066 0
M  V30 4485 H 400.726 -3.35139 -1.79962 0
M  V30 4486 H 402.038 -4.28646 -2.55076 0
M  V30 4487 H 401.192 -3.67653 -4.82614 0
M  V30 4488 H 399.931 -2.64002 -4.10066 0
M  V30 4489 H 398.936 -4.63827 -2.95202 0
M  V30 4490 H 400.161 -5.68863 -3.70906 0
M  V30 4491 H 398.107 -4.00652 -5.19436 0
M  V30 4492 H 398.024 -5.71945 -4.94384 0
M  V30 4493 H 399.292 -5.0574 -5.93167 0
M  V30 4494 N 403.521 0.559213 -1.47345 0
M  V30 4495 C 404.468 1.66645 -1.59682 0
M  V30 4496 C 405.438 1.60168 -0.43994 0
M  V30 4497 O 406.623 1.79031 -0.659736 0
M  V30 4498 C 403.763 3.04969 -1.61518 0
M  V30 4499 C 402.876 3.21897 -2.88108 0
M  V30 4500 C 402.011 4.50608 -2.81294 0
M  V30 4501 C 401.05 4.60961 -4.02717 0
M  V30 4502 N 400.187 5.81024 -3.94151 0
M  V30 4503 H 405.027 1.55439 -2.54249 0
M  V30 4504 H 402.564 0.757219 -1.26113 0
M  V30 4505 H 404.522 3.85064 -1.60566 0
M  V30 4506 H 403.152 3.15015 -0.704645 0
M  V30 4507 H 402.204 2.35248 -2.98936 0
M  V30 4508 H 403.516 3.25412 -3.78032 0
M  V30 4509 H 402.67 5.3896 -2.7858 0
M  V30 4510 H 401.409 4.49568 -1.89049 0
M  V30 4511 H 400.414 3.71021 -4.05738 0
M  V30 4512 H 401.639 4.63761 -4.96087 0
M  V30 4513 H 399.585 5.80938 -3.04708 0
M  V30 4514 H 399.502 5.85909 -4.77752 0
M  V30 4515 H 400.77 6.71744 -3.9545 0
M  V30 4516 N 404.999 1.35443 0.805782 0
M  V30 4517 C 405.947 1.28465 1.93906 0
M  V30 4518 C 406.941 0.17943 1.68447 0
M  V30 4519 O 408.147 0.345459 1.76654 0
M  V30 4520 H 404.522 0.399528 0.637088 0
M  V30 4521 H 406.493 2.24206 1.96912 0
M  V30 4522 C 405.242 1.07432 3.30687 0
M  V30 4523 H 404.565 1.91716 3.50835 0
M  V30 4524 H 406.005 1.06591 4.10383 0
M  V30 4525 C 404.464 -0.22179 3.36169 0
M  V30 4526 O 404.994 -1.21731 3.82811 0
M  V30 4527 N 403.2 -0.260841 2.89427 0
M  V30 4528 H 402.747 0.549884 2.51663 0
M  V30 4529 H 402.705 -1.12777 2.93477 0
M  V30 4530 N 406.477 -1.02803 1.19454 0
M  V30 4531 C 407.893 -1.28473 0.946937 0
M  V30 4532 C 408.093 -1.97881 -0.380202 0
M  V30 4533 O 407.149 -2.26719 -1.11151 0
M  V30 4534 C 408.462 -2.13099 2.12154 0
M  V30 4535 C 410.01 -2.26404 2.16126 0
M  V30 4536 C 410.485 -3.14402 3.33039 0
M  V30 4537 N 411.976 -3.21991 3.32981 0
M  V30 4538 C 412.711 -3.90272 4.20089 0
M  V30 4539 N 412.207 -4.60777 5.17355 0
M  V30 4540 N 414 -3.8668 4.07964 0
M  V30 4541 H 406.151 -0.561665 2.04839 0
M  V30 4542 H 408.414 -0.310438 0.89573 0
M  V30 4543 H 408.12 -1.69422 3.08203 0
M  V30 4544 H 407.994 -3.13813 2.09287 0
M  V30 4545 H 410.381 -2.69311 1.20647 0
M  V30 4546 H 410.462 -1.25237 2.23045 0
M  V30 4547 H 410.106 -2.72204 4.28798 0
M  V30 4548 H 410.036 -4.1563 3.23356 0
M  V30 4549 H 412.527 -2.71778 2.62574 0
M  V30 4550 H 412.84 -5.10513 5.80169 0
M  V30 4551 H 411.185 -4.5964 5.21302 0
M  V30 4552 H 414.376 -3.30739 3.31254 0
M  V30 4553 H 414.549 -4.39621 4.76064 0
M  V30 4554 N 407.956 -0.998596 -1.21925 0
M  V30 4555 C 409.372 -0.710303 -1.42923 0
M  V30 4556 C 409.572 0.716933 -1.88314 0
M  V30 4557 O 408.628 1.48712 -2.04062 0
M  V30 4558 C 409.941 -1.72072 -2.466 0
M  V30 4559 C 411.489 -1.73681 -2.60392 0
M  V30 4560 C 411.964 -2.73601 -3.67296 0
M  V30 4561 N 413.455 -2.7223 -3.7476 0
M  V30 4562 C 414.19 -3.46206 -4.57087 0
M  V30 4563 N 413.686 -4.29802 -5.43362 0
M  V30 4564 N 415.479 -3.34886 -4.51451 0
M  V30 4565 H 407.63 -1.92028 -0.9077 0
M  V30 4566 H 409.893 -0.828487 -0.460775 0
M  V30 4567 H 409.599 -2.74231 -2.20206 0
M  V30 4568 H 409.473 -1.51818 -3.45299 0
M  V30 4569 H 411.86 -0.722173 -2.86127 0
M  V30 4570 H 411.941 -1.98005 -1.61949 0
M  V30 4571 H 411.585 -3.75217 -3.42307 0
M  V30 4572 H 411.515 -2.46545 -4.65321 0
M  V30 4573 H 414.006 -2.11576 -3.1312 0
M  V30 4574 H 414.319 -4.83061 -6.03218 0
M  V30 4575 H 412.664 -4.33887 -5.42925 0
M  V30 4576 H 415.855 -2.69015 -3.83078 0
M  V30 4577 H 416.028 -3.92796 -5.15379 0
M  V30 4578 N 409.434 1.37368 -0.772513 0
M  V30 4579 C 410.366 2.28899 -0.117502 0
M  V30 4580 C 411.379 1.4867 0.663405 0
M  V30 4581 O 412.568 1.71314 0.501372 0
M  V30 4582 C 409.668 3.2788 0.857192 0
M  V30 4583 C 408.841 4.37207 0.129938 0
M  V30 4584 C 407.9 5.16257 1.01811 0
M  V30 4585 O 406.926 5.67159 0.481601 0
M  V30 4586 N 408.128 5.31058 2.3443 0
M  V30 4587 H 410.893 2.85752 -0.903662 0
M  V30 4588 H 408.454 1.49353 -0.62493 0
M  V30 4589 H 410.446 3.77647 1.45482 0
M  V30 4590 H 409.016 2.7179 1.54432 0
M  V30 4591 H 408.236 3.88827 -0.648605 0
M  V30 4592 H 409.524 5.07434 -0.372559 0
M  V30 4593 H 408.922 4.91287 2.80452 0
M  V30 4594 H 407.479 5.84131 2.89197 0
M  V30 4595 N 410.912 0.523116 1.48665 0
M  V30 4596 C 411.842 -0.23231 2.32342 0
M  V30 4597 C 412.823 -0.941637 1.41659 0
M  V30 4598 O 414.008 -0.928751 1.70552 0
M  V30 4599 C 411.138 -1.28387 3.22698 0
M  V30 4600 C 410.092 -0.693098 4.22351 0
M  V30 4601 C 409.418 -1.8468 5.01794 0
M  V30 4602 C 410.718 0.33063 5.21252 0
M  V30 4603 H 412.412 0.466192 2.95748 0
M  V30 4604 H 409.958 0.225643 1.42221 0
M  V30 4605 H 411.911 -1.82024 3.80059 0
M  V30 4606 H 410.635 -2.01186 2.57278 0
M  V30 4607 H 409.294 -0.178299 3.66166 0
M  V30 4608 H 408.942 -2.56301 4.32804 0
M  V30 4609 H 408.642 -1.45747 5.69238 0
M  V30 4610 H 410.166 -2.38709 5.62006 0
M  V30 4611 H 411.58 -0.118407 5.73178 0
M  V30 4612 H 409.977 0.636974 5.9671 0
M  V30 4613 H 411.047 1.23883 4.68808 0
M  V30 4614 N 412.39 -1.55475 0.257931 0
M  V30 4615 C 413.353 -2.20551 -0.623706 0
M  V30 4616 C 414.353 -1.17809 -1.09443 0
M  V30 4617 O 415.543 -1.42823 -0.997362 0
M  V30 4618 C 412.675 -2.85784 -1.8585 0
M  V30 4619 H 413.868 -2.99848 -0.0557743 0
M  V30 4620 H 411.421 -1.56298 0.0084422 0
M  V30 4621 H 412.156 -2.10453 -2.46739 0
M  V30 4622 H 411.941 -3.61057 -1.52907 0
M  V30 4623 H 413.431 -3.35553 -2.48584 0
M  V30 4624 N 413.868 0.0150385 -1.57593 0
M  V30 4625 C 415.098 0.713359 -1.93894 0
M  V30 4626 C 415.506 1.68663 -0.857289 0
M  V30 4627 O 414.849 1.82876 0.173788 0
M  V30 4628 C 414.911 1.51348 -3.26089 0
M  V30 4629 C 414.575 0.703451 -4.51554 0
M  V30 4630 C 415.572 -0.00237924 -5.199 0
M  V30 4631 C 413.257 0.653854 -4.98026 0
M  V30 4632 C 415.251 -0.746955 -6.33008 0
M  V30 4633 C 412.938 -0.0944578 -6.11027 0
M  V30 4634 C 413.936 -0.793609 -6.78374 0
M  V30 4635 O 413.624 -1.52974 -7.89211 0
M  V30 4636 H 413.356 0.204637 -0.644282 0
M  V30 4637 H 415.91 -0.0276411 -2.05381 0
M  V30 4638 H 414.14 2.29862 -3.10967 0
M  V30 4639 H 415.829 2.09572 -3.47612 0
M  V30 4640 H 416.595 0.0268803 -4.84993 0
M  V30 4641 H 412.474 1.18756 -4.45441 0
M  V30 4642 H 416.018 -1.2932 -6.85509 0
M  V30 4643 H 411.915 -0.125591 -6.45378 0
M  V30 4644 H 412.683 -1.44488 -8.05646 0
M  V30 4645 N 415.346 1.54954 0.287554 0
M  V30 4646 C 416.571 1.79209 1.04397 0
M  V30 4647 C 416.996 0.556431 1.79682 0
M  V30 4648 O 416.354 -0.493518 1.74454 0
M  V30 4649 C 416.402 3.00739 1.98969 0
M  V30 4650 O 415.506 2.74805 3.075 0
M  V30 4651 H 414.847 0.592755 0.299227 0
M  V30 4652 H 417.377 2.02068 0.320886 0
M  V30 4653 H 417.387 3.29077 2.4119 0
M  V30 4654 H 416.062 3.90329 1.43582 0
M  V30 4655 H 414.639 2.57523 2.69697 0
M  V30 4656 N 416.824 -0.551391 1.4764 0
M  V30 4657 C 418.052 -1.33357 1.58189 0
M  V30 4658 C 418.467 -1.87342 0.234199 0
M  V30 4659 O 417.824 -1.65301 -0.77343 0
M  V30 4660 C 417.875 -2.49942 2.61173 0
M  V30 4661 O 417.596 -1.98187 3.90709 0
M  V30 4662 C 419.097 -3.42072 2.8196 0
M  V30 4663 H 416.317 -0.40631 0.533998 0
M  V30 4664 H 418.861 -0.667367 1.93304 0
M  V30 4665 H 417.016 -3.12489 2.28975 0
M  V30 4666 H 417.43 -2.74342 4.47031 0
M  V30 4667 H 418.904 -4.20278 3.57869 0
M  V30 4668 H 419.381 -3.95978 1.89995 0
M  V30 4669 H 419.987 -2.85336 3.15378 0
M  V30 4670 N 418.302 -1.35869 -0.798587 0
M  V30 4671 C 419.548 -1.2978 -1.55836 0
M  V30 4672 C 419.881 0.125322 -1.93795 0
M  V30 4673 O 419.156 1.07658 -1.61987 0
M  V30 4674 C 419.439 -2.21188 -2.84162 0
M  V30 4675 C 419.292 -3.72155 -2.52628 0
M  V30 4676 C 420.611 -2.11545 -3.85923 0
M  V30 4677 H 417.73 -0.472769 -0.565383 0
M  V30 4678 H 420.372 -1.66341 -0.918192 0
M  V30 4679 H 418.522 -1.90139 -3.38791 0
M  V30 4680 H 420.194 -4.13682 -2.04121 0
M  V30 4681 H 418.437 -3.92042 -1.85704 0
M  V30 4682 H 419.108 -4.31511 -3.44242 0
M  V30 4683 H 421.584 -2.38855 -3.40716 0
M  V30 4684 H 420.46 -2.77688 -4.73477 0
M  V30 4685 H 420.721 -1.09987 -4.282 0
M  V30 4686 N 419.78 1.02168 -1.19998 0
M  V30 4687 C 421.028 1.75338 -1.00504 0
M  V30 4688 C 421.349 1.89387 0.464506 0
M  V30 4689 O 420.619 1.43268 1.33608 0
M  V30 4690 H 419.199 0.649564 -0.368885 0
M  V30 4691 H 421.861 1.23205 -1.51018 0
M  V30 4692 H 420.957 2.75892 -1.45912 0
M  V30 4693 N 421.258 1.00505 1.21394 0
M  V30 4694 C 422.486 0.706609 1.9446 0
M  V30 4695 C 422.901 -0.73081 1.74082 0
M  V30 4696 O 422.258 -1.49446 1.04747 0
M  V30 4697 C 422.309 1.01824 3.46863 0
M  V30 4698 O 422.03 2.39919 3.66566 0
M  V30 4699 C 423.531 0.739216 4.37093 0
M  V30 4700 H 420.751 0.260394 0.618414 0
M  V30 4701 H 423.295 1.34311 1.54211 0
M  V30 4702 H 421.45 0.427343 3.85036 0
M  V30 4703 H 421.864 2.50784 4.6066 0
M  V30 4704 H 423.338 1.00744 5.42729 0
M  V30 4705 H 423.815 -0.326746 4.37983 0
M  V30 4706 H 424.421 1.31173 4.04566 0
M  V30 4707 N 422.737 -1.36956 0.779787 0
M  V30 4708 C 424.148 -1.82094 0.412156 0
M  V30 4709 C 424.499 -1.64926 -1.06273 0
M  V30 4710 O 423.624 -1.16483 -1.82375 0
M  V30 4711 C 424.219 -3.3059 0.741319 0
M  V30 4712 C 422.778 -3.73974 0.426641 0
M  V30 4713 C 421.925 -2.59368 0.980987 0
M  V30 4714 H 424.876 -1.25314 0.973758 0
M  V30 4715 H 424.897 -3.80489 0.028887 0
M  V30 4716 H 424.409 -3.43054 1.81482 0
M  V30 4717 H 422.51 -3.67076 -0.639215 0
M  V30 4718 H 422.623 -4.69778 0.940515 0
M  V30 4719 H 420.987 -2.51463 0.404757 0
M  V30 4720 H 421.77 -2.74621 2.06005 0
M  V30 4721 N 424.215 -0.530993 -1.48385 0
M  V30 4722 C 425.492 0.0671788 -1.95485 0
M  V30 4723 C 425.872 1.51191 -1.47324 0
M  V30 4724 O 425.22 2.17507 -0.700202 0
M  V30 4725 C 425.43 -0.0511206 -3.48963 0
M  V30 4726 C 426.778 0.107632 -4.24464 0
M  V30 4727 O 427.802 0.0226248 -3.56193 0
M  V30 4728 O 426.661 0.285972 -5.45751 0
M  V30 4729 H 423.755 0.0787365 -0.823243 0
M  V30 4730 H 426.301 -0.595662 -1.58902 0
M  V30 4731 H 425.073 -1.05747 -3.7674 0
M  V30 4732 H 424.696 0.650525 -3.92242 0
M  V30 4733 N 425.693 1.55336 -0.266172 0
M  V30 4734 C 426.923 2.03506 0.356239 0
M  V30 4735 C 427.331 1.14426 1.50676 0
M  V30 4736 O 426.674 0.155043 1.83045 0
M  V30 4737 C 426.736 3.47848 0.90785 0
M  V30 4738 C 426.4 4.56861 -0.112888 0
M  V30 4739 C 427.397 5.11528 -0.929264 0
M  V30 4740 C 425.082 5.01704 -0.244546 0
M  V30 4741 C 427.076 6.09549 -1.86357 0
M  V30 4742 C 424.763 5.99553 -1.18234 0
M  V30 4743 C 425.761 6.53356 -1.99036 0
M  V30 4744 O 425.449 7.49293 -2.91231 0
M  V30 4745 H 425.181 0.670444 0.08649 0
M  V30 4746 H 427.735 2.01598 -0.39337 0
M  V30 4747 H 425.965 3.46967 1.70737 0
M  V30 4748 H 427.654 3.79407 1.44239 0
M  V30 4749 H 428.42 4.77701 -0.838237 0
M  V30 4750 H 424.299 4.59477 0.374359 0
M  V30 4751 H 427.843 6.51469 -2.49467 0
M  V30 4752 H 423.74 6.32799 -1.27421 0
M  V30 4753 H 424.508 7.66978 -2.8581 0
M  V30 4754 N 427.171 -0.0066808 1.57599 0
M  V30 4755 C 428.42 -0.692078 1.89455 0
M  V30 4756 C 428.733 -1.75306 0.867586 0
M  V30 4757 O 429.939 -2.49262 1.07614 0
M  V30 4758 C 428.395 -1.2821 3.36289 0
M  V30 4759 C 428.003 -0.256291 4.47266 0
M  V30 4760 C 429.747 -1.94608 3.77264 0
M  V30 4761 C 427.654 -0.855927 5.85173 0
M  V30 4762 H 426.584 -0.262252 0.706923 0
M  V30 4763 H 429.235 0.052769 1.83424 0
M  V30 4764 H 427.617 -2.0774 3.37135 0
M  V30 4765 H 428.791 0.513923 4.57925 0
M  V30 4766 H 427.106 0.306862 4.15268 0
M  V30 4767 H 429.703 -2.40364 4.77629 0
M  V30 4768 H 430.046 -2.77382 3.10427 0
M  V30 4769 H 430.579 -1.21822 3.78688 0
M  V30 4770 H 427.318 -0.0671161 6.55466 0
M  V30 4771 H 426.838 -1.59546 5.78191 0
M  V30 4772 H 428.517 -1.35658 6.32618 0
M  V30 4773 N 428.649 -1.55105 -0.279332 0
M  V30 4774 C 429.612 -1.86783 -1.32834 0
M  V30 4775 C 430.612 -0.74199 -1.42657 0
M  V30 4776 O 431.802 -1.0102 -1.41918 0
M  V30 4777 C 428.934 -2.06746 -2.71052 0
M  V30 4778 H 430.127 -2.8055 -1.05979 0
M  V30 4779 H 427.68 -1.47499 -0.517087 0
M  V30 4780 H 428.415 -1.15339 -3.03097 0
M  V30 4781 H 428.2 -2.88711 -2.65309 0
M  V30 4782 H 429.69 -2.32549 -3.46858 0
M  V30 4783 N 430.127 0.543554 -1.4793 0
M  V30 4784 C 431.538 1.12561 -1.48953 0
M  V30 4785 C 431.889 1.94578 -0.251754 0
M  V30 4786 O 431.014 2.0665 0.642255 0
M  V30 4787 C 431.609 2.04801 -2.69892 0
M  V30 4788 C 430.168 2.58251 -2.73831 0
M  V30 4789 C 429.315 1.34918 -2.42265 0
M  V30 4790 H 432.266 0.32947 -1.55242 0
M  V30 4791 H 432.287 2.88886 -2.47639 0
M  V30 4792 H 431.799 1.4508 -3.59963 0
M  V30 4793 H 429.9 3.21732 -1.87934 0
M  V30 4794 H 430.013 2.98312 -3.74895 0
M  V30 4795 H 428.377 1.66046 -1.93134 0
M  V30 4796 H 429.16 0.769693 -3.3456 0
M  V30 4797 N 431.605 1.3629 0.791371 0
M  V30 4798 C 432.515 1.32606 1.93527 0
M  V30 4799 C 433.531 0.228541 1.72493 0
M  V30 4800 O 434.707 0.460571 1.96063 0
M  V30 4801 C 431.772 1.11271 3.28359 0
M  V30 4802 C 430.833 2.3048 3.62185 0
M  V30 4803 C 430.066 2.10154 4.90583 0
M  V30 4804 O 430.289 1.07572 5.60165 0
M  V30 4805 O 429.223 2.97884 5.23019 0
M  V30 4806 H 433.049 2.28909 1.99585 0
M  V30 4807 H 430.634 1.16818 0.931344 0
M  V30 4808 H 432.516 1.01283 4.09047 0
M  V30 4809 H 431.191 0.180292 3.23198 0
M  V30 4810 H 430.098 2.46036 2.81811 0
M  V30 4811 H 431.431 3.22221 3.72068 0
M  V30 4812 N 433.083 -1.0153 1.20538 0
M  V30 4813 C 434.329 -1.75408 1.01783 0
M  V30 4814 C 434.662 -1.88943 -0.448814 0
M  V30 4815 O 433.937 -1.4162 -1.33319 0
M  V30 4816 C 434.22 -3.17255 1.70356 0
M  V30 4817 C 434.073 -3.11508 3.24473 0
M  V30 4818 C 435.392 -4.15955 1.43769 0
M  V30 4819 H 432.511 -0.636713 0.371167 0
M  V30 4820 H 435.153 -1.18436 1.4857 0
M  V30 4821 H 433.303 -3.65898 1.30578 0
M  V30 4822 H 434.975 -2.70658 3.73553 0
M  V30 4823 H 433.218 -2.4887 3.55311 0
M  V30 4824 H 433.889 -4.11784 3.67611 0
M  V30 4825 H 436.365 -3.75973 1.7828 0
M  V30 4826 H 435.241 -5.13368 1.94279 0
M  V30 4827 H 435.502 -4.40586 0.365564 0
M  V30 4828 N 434.561 -1.01147 -1.20859 0
M  V30 4829 C 435.808 -0.697865 -1.90095 0
M  V30 4830 C 436.136 0.772014 -1.78522 0
M  V30 4831 O 435.391 1.57595 -1.16027 0
M  V30 4832 C 435.69 -1.0727 -3.40922 0
M  V30 4833 C 435.356 -2.53792 -3.72693 0
M  V30 4834 C 434.018 -2.93829 -3.81075 0
M  V30 4835 C 436.37 -3.48674 -3.87397 0
M  V30 4836 C 433.698 -4.27696 -4.01613 0
M  V30 4837 C 436.05 -4.82223 -4.09444 0
M  V30 4838 C 434.714 -5.21973 -4.16054 0
M  V30 4839 H 433.984 -0.255367 -0.695607 0
M  V30 4840 H 436.631 -1.27111 -1.43231 0
M  V30 4841 H 434.936 -0.417799 -3.89566 0
M  V30 4842 H 436.633 -0.807818 -3.92779 0
M  V30 4843 H 433.223 -2.21768 -3.66765 0
M  V30 4844 H 437.407 -3.18904 -3.80281 0
M  V30 4845 H 432.663 -4.58055 -4.04964 0
M  V30 4846 H 436.837 -5.55672 -4.19763 0
M  V30 4847 H 434.464 -6.25717 -4.31721 0
M  V30 4848 N 436.039 1.36541 -0.78704 0
M  V30 4849 C 436.972 2.27831 -0.129765 0
M  V30 4850 C 437.95 1.47105 0.692732 0
M  V30 4851 O 439.134 1.7641 0.664222 0
M  V30 4852 C 436.261 3.28577 0.821883 0
M  V30 4853 C 435.307 4.26422 0.0814771 0
M  V30 4854 S 436.14 5.20919 -1.24112 0
M  V30 4855 C 437.296 6.25212 -0.293409 0
M  V30 4856 H 437.529 2.83229 -0.903811 0
M  V30 4857 H 435.062 1.43046 -0.581144 0
M  V30 4858 H 437.02 3.87123 1.3655 0
M  V30 4859 H 435.681 2.72096 1.56916 0
M  V30 4860 H 434.874 4.97554 0.803485 0
M  V30 4861 H 434.476 3.71944 -0.391589 0
M  V30 4862 H 436.768 6.75435 0.528622 0
M  V30 4863 H 437.711 7.01378 -0.973344 0
M  V30 4864 H 438.119 5.64407 0.102196 0
M  V30 4865 N 437.518 0.538854 1.48102 0
M  V30 4866 C 438.45 -0.256278 2.27763 0
M  V30 4867 C 439.463 -0.89633 1.35904 0
M  V30 4868 O 440.652 -0.773275 1.60881 0
M  V30 4869 C 437.752 -1.37896 3.09577 0
M  V30 4870 C 436.925 -0.839159 4.29275 0
M  V30 4871 C 435.984 -1.84405 4.9283 0
M  V30 4872 O 435.01 -1.39746 5.51779 0
M  V30 4873 N 436.212 -3.17666 4.85869 0
M  V30 4874 H 438.977 0.426968 2.96643 0
M  V30 4875 H 436.538 0.373747 1.57527 0
M  V30 4876 H 438.53 -2.04955 3.48963 0
M  V30 4877 H 437.1 -1.96572 2.4306 0
M  V30 4878 H 436.32 0.00769287 3.94199 0
M  V30 4879 H 437.608 -0.457548 5.06739 0
M  V30 4880 H 437.006 -3.56609 4.39143 0
M  V30 4881 H 435.563 -3.80334 5.29329 0
M  V30 4882 N 438.996 -1.55193 0.274407 0
M  V30 4883 C 440.224 -2.03987 -0.345943 0
M  V30 4884 C 440.639 -1.15279 -1.4952 0
M  V30 4885 O 439.996 -0.172759 -1.8168 0
M  V30 4886 C 440.047 -3.51898 -0.827631 0
M  V30 4887 O 439.768 -4.37231 0.275855 0
M  V30 4888 C 441.269 -4.16577 -1.51587 0
M  V30 4889 H 438.489 -0.666335 -0.0789892 0
M  V30 4890 H 441.033 -2.00423 0.406294 0
M  V30 4891 H 439.188 -3.55909 -1.52996 0
M  V30 4892 H 439.602 -5.24415 -0.0943638 0
M  V30 4893 H 441.076 -5.21678 -1.80433 0
M  V30 4894 H 441.553 -3.64707 -2.44716 0
M  V30 4895 H 442.159 -4.16568 -0.857409 0
M  V30 4896 N 440.474 -0.00167713 -1.576 0
M  V30 4897 C 441.722 0.681471 -1.90264 0
M  V30 4898 C 442.043 1.7422 -0.875924 0
M  V30 4899 O 441.313 1.95709 0.0864412 0
M  V30 4900 H 439.893 0.254696 -0.702239 0
M  V30 4901 H 442.555 -0.0429996 -1.94853 0
M  V30 4902 H 441.651 1.15166 -2.90075 0
M  V30 4903 N 441.952 1.55251 0.271103 0
M  V30 4904 C 443.182 1.79713 1.01916 0
M  V30 4905 C 443.59 0.571613 1.80359 0
M  V30 4906 O 442.933 -0.468853 1.77616 0
M  V30 4907 C 442.995 2.97138 2.02359 0
M  V30 4908 C 442.659 4.34104 1.42837 0
M  V30 4909 C 443.656 5.13019 0.843071 0
M  V30 4910 C 441.341 4.80765 1.455 0
M  V30 4911 C 443.335 6.36729 0.292333 0
M  V30 4912 C 441.022 6.0443 0.900402 0
M  V30 4913 C 442.02 6.8225 0.32007 0
M  V30 4914 O 441.708 8.03582 -0.226031 0
M  V30 4915 H 441.44 0.602431 0.306681 0
M  V30 4916 H 443.994 2.03097 0.306701 0
M  V30 4917 H 442.224 2.6945 2.77369 0
M  V30 4918 H 443.913 3.08907 2.63309 0
M  V30 4919 H 444.679 4.781 0.815178 0
M  V30 4920 H 440.558 4.20202 1.89609 0
M  V30 4921 H 444.102 6.97414 -0.161274 0
M  V30 4922 H 439.999 6.3883 0.925541 0
M  V30 4923 H 440.767 8.18418 -0.115572 0
M  V30 4924 N 443.43 -0.535701 1.48216 0
M  V30 4925 C 444.378 -1.66179 1.62749 0
M  V30 4926 C 445.372 -1.62034 0.49409 0
M  V30 4927 O 446.578 -1.6696 0.672624 0
M  V30 4928 H 442.953 -0.550244 0.512578 0
M  V30 4929 H 444.924 -1.51063 2.57337 0
M  V30 4930 C 443.673 -3.04471 1.67907 0
M  V30 4931 H 442.996 -3.08351 2.54479 0
M  V30 4932 H 444.436 -3.82894 1.82121 0
M  V30 4933 C 442.895 -3.34314 0.416596 0
M  V30 4934 O 443.425 -3.98905 -0.473014 0
M  V30 4935 N 441.631 -2.89149 0.290038 0
M  V30 4936 H 441.178 -2.36764 1.01493 0
M  V30 4937 H 441.136 -3.09486 -0.55367 0
M  V30 4938 N 444.908 -1.36708 -0.784132 0
M  V30 4939 C 445.855 -1.31466 -1.89698 0
M  V30 4940 C 446.825 -0.18239 -1.65096 0
M  V30 4941 O 448.01 -0.369762 -1.87183 0
M  V30 4942 C 445.15 -1.1151 -3.26588 0
M  V30 4943 C 444.263 -2.33859 -3.63227 0
M  V30 4944 C 443.398 -2.06873 -4.89262 0
M  V30 4945 C 442.437 -3.25154 -5.18595 0
M  V30 4946 N 441.574 -2.978 -6.35814 0
M  V30 4947 H 446.414 -2.26619 -1.93515 0
M  V30 4948 H 443.951 -1.12625 -0.946256 0
M  V30 4949 H 445.909 -0.979653 -4.05535 0
M  V30 4950 H 444.539 -0.200103 -3.22179 0
M  V30 4951 H 443.591 -2.58188 -2.79362 0
M  V30 4952 H 444.903 -3.22109 -3.8085 0
M  V30 4953 H 444.057 -1.90289 -5.76086 0
M  V30 4954 H 442.796 -1.15942 -4.73718 0
M  V30 4955 H 441.801 -3.42292 -4.30251 0
M  V30 4956 H 443.026 -4.1692 -5.36055 0
M  V30 4957 H 440.972 -2.09485 -6.21653 0
M  V30 4958 H 440.889 -3.7959 -6.53794 0
M  V30 4959 H 442.157 -2.84805 -7.25607 0
M  V30 4960 N 446.386 1.0089 -1.21074 0
M  V30 4961 C 447.316 2.1145 -0.990523 0
M  V30 4962 C 448.297 1.69897 0.0831699 0
M  V30 4963 O 449.482 1.94052 -0.0758853 0
M  V30 4964 C 446.612 3.42914 -0.550177 0
M  V30 4965 C 445.566 3.98244 -1.56799 0
M  V30 4966 C 444.892 5.25568 -0.984013 0
M  V30 4967 C 446.192 4.30752 -2.95381 0
M  V30 4968 H 447.886 2.3013 -1.91521 0
M  V30 4969 H 445.432 1.10592 -0.92225 0
M  V30 4970 H 447.385 4.19653 -0.383305 0
M  V30 4971 H 446.109 3.24014 0.41015 0
M  V30 4972 H 444.768 3.23621 -1.72236 0
M  V30 4973 H 444.416 5.02998 -0.0155216 0
M  V30 4974 H 444.116 5.63551 -1.66384 0
M  V30 4975 H 445.64 6.04955 -0.828378 0
M  V30 4976 H 447.054 4.98349 -2.8341 0
M  V30 4977 H 445.451 4.79869 -3.60341 0
M  V30 4978 H 446.521 3.39192 -3.46521 0
M  V30 4979 N 447.864 1.01787 1.20321 0
M  V30 4980 C 449.104 0.716493 1.91431 0
M  V30 4981 C 449.468 -0.740352 1.77152 0
M  V30 4982 O 450.669 -1.1543 2.42754 0
M  V30 4983 C 448.94 1.14169 3.38674 0
M  V30 4984 S 450.499 0.962482 4.28114 0
M  V30 4985 H 447.317 0.261175 0.661293 0
M  V30 4986 H 449.919 1.30539 1.45533 0
M  V30 4987 H 448.623 2.19784 3.46588 0
M  V30 4988 H 448.154 0.545621 3.89598 0
M  V30 4989 H 450.169 -0.133253 4.96021 0
M  V30 4990 N 449.342 -1.36122 0.79427 0
M  V30 4991 C 450.619 -1.93398 0.292685 0
M  V30 4992 C 450.999 -1.72567 -1.21589 0
M  V30 4993 O 450.347 -1.08745 -2.00965 0
M  V30 4994 C 450.557 -3.42099 0.690614 0
M  V30 4995 C 451.905 -4.19231 0.673105 0
M  V30 4996 O 452.929 -3.50559 0.631389 0
M  V30 4997 O 451.788 -5.41732 0.720362 0
M  V30 4998 H 448.882 -0.823712 0.0736693 0
M  V30 4999 H 451.428 -1.45273 0.87714 0
M  V30 5000 H 450.2 -3.50938 1.73085 0
M  V30 5001 H 449.823 -3.97519 0.0803036 0
M  V30 5002 N 450.82 -0.546701 -1.47814 0
M  V30 5003 C 452.066 -0.0269594 -2.03382 0
M  V30 5004 C 452.421 1.30406 -1.41464 0
M  V30 5005 O 451.714 1.8332 -0.557151 0
M  V30 5006 C 451.908 0.134869 -3.57145 0
M  V30 5007 C 451.737 -1.17891 -4.33972 0
M  V30 5008 C 450.507 -1.74336 -4.74273 0
M  V30 5009 C 452.705 -2.09361 -4.69758 0
M  V30 5010 N 450.687 -2.99829 -5.35701 0
M  V30 5011 C 452.058 -3.19431 -5.31379 0
M  V30 5012 C 454.113 -2.09484 -4.51687 0
M  V30 5013 C 452.816 -4.2971 -5.76838 0
M  V30 5014 C 454.842 -3.18767 -4.98138 0
M  V30 5015 C 454.204 -4.27557 -5.59799 0
M  V30 5016 H 450.303 -0.0517733 -0.780284 0
M  V30 5017 H 452.887 -0.731673 -1.80429 0
M  V30 5018 H 451.058 0.80869 -3.79888 0
M  V30 5019 H 452.79 0.655726 -3.99352 0
M  V30 5020 H 449.545 -1.28265 -4.559 0
M  V30 5021 H 449.969 -3.63765 -5.70968 0
M  V30 5022 H 454.611 -1.26663 -4.03381 0
M  V30 5023 H 452.329 -5.13297 -6.24141 0
M  V30 5024 H 455.915 -3.19937 -4.85934 0
M  V30 5025 H 454.795 -5.10725 -5.95088 0
M  V30 5026 N 452.299 1.55045 -0.282633 0
M  V30 5027 C 453.545 2.0078 0.325436 0
M  V30 5028 C 453.9 1.1676 1.52921 0
M  V30 5029 O 453.193 0.231475 1.90197 0
M  V30 5030 C 453.387 3.49422 0.750938 0
M  V30 5031 C 453.216 4.47827 -0.410056 0
M  V30 5032 C 451.986 4.97288 -0.896239 0
M  V30 5033 C 454.184 4.98903 -1.24902 0
M  V30 5034 N 452.166 5.79508 -2.02591 0
M  V30 5035 C 453.537 5.78644 -2.22646 0
M  V30 5036 C 455.592 4.81126 -1.2815 0
M  V30 5037 C 454.295 6.42502 -3.23393 0
M  V30 5038 C 456.321 5.45789 -2.27745 0
M  V30 5039 C 455.683 6.25348 -3.24222 0
M  V30 5040 H 451.782 0.77747 0.08405 0
M  V30 5041 H 454.366 1.90369 -0.408368 0
M  V30 5042 H 452.537 3.60159 1.45395 0
M  V30 5043 H 454.269 3.81978 1.33698 0
M  V30 5044 H 451.024 4.71219 -0.474277 0
M  V30 5045 H 451.448 6.25308 -2.59459 0
M  V30 5046 H 456.09 4.19215 -0.549397 0
M  V30 5047 H 453.808 7.03558 -3.97533 0
M  V30 5048 H 457.394 5.33972 -2.31009 0
M  V30 5049 H 456.274 6.74498 -4.00027 0
M  V30 5050 N 453.777 0.010035 1.57597 0
M  V30 5051 C 455.002 -0.687021 1.95691 0
M  V30 5052 C 455.427 -1.65952 0.885519 0
M  V30 5053 O 454.785 -1.80633 -0.15543 0
M  V30 5054 C 454.833 -1.3864 3.32884 0
M  V30 5055 O 453.937 -2.50115 3.27897 0
M  V30 5056 H 453.278 -0.181989 0.638573 0
M  V30 5057 H 455.808 0.0662122 2.04493 0
M  V30 5058 H 455.818 -1.74754 3.6868 0
M  V30 5059 H 454.493 -0.673411 4.10412 0
M  V30 5060 H 453.07 -2.16253 3.03791 0
M  V30 5061 N 455.255 -1.55392 -0.262866 0
M  V30 5062 C 456.185 -1.91978 -1.32917 0
M  V30 5063 C 457.166 -0.7828 -1.51017 0
M  V30 5064 O 458.351 -1.04178 -1.63892 0
M  V30 5065 C 455.481 -2.20055 -2.68687 0
M  V30 5066 C 454.435 -3.35854 -2.65304 0
M  V30 5067 C 453.761 -3.49435 -4.04721 0
M  V30 5068 C 455.061 -4.71977 -2.23685 0
M  V30 5069 H 456.755 -2.81292 -1.02544 0
M  V30 5070 H 454.301 -1.3534 -0.491846 0
M  V30 5071 H 456.254 -2.44237 -3.43404 0
M  V30 5072 H 454.978 -1.27551 -3.00663 0
M  V30 5073 H 453.637 -3.11655 -1.93045 0
M  V30 5074 H 453.285 -2.54379 -4.33936 0
M  V30 5075 H 452.985 -4.27297 -4.0335 0
M  V30 5076 H 454.509 -3.7592 -4.81161 0
M  V30 5077 H 455.923 -4.95637 -2.88127 0
M  V30 5078 H 454.32 -5.52828 -2.33456 0
M  V30 5079 H 455.39 -4.70115 -1.18827 0
M  V30 5080 N 456.733 0.527833 -1.48498 0
M  V30 5081 C 457.981 1.28101 -1.56316 0
M  V30 5082 C 458.302 1.9352 -0.239781 0
M  V30 5083 O 457.572 1.81433 0.738849 0
M  V30 5084 H 456.152 0.475793 -0.575873 0
M  V30 5085 H 458.814 0.614052 -1.84974 0
M  V30 5086 H 457.91 2.05916 -2.34532 0
M  V30 5087 N 458.211 1.37122 0.776871 0
M  V30 5088 C 459.457 1.32243 1.53752 0
M  V30 5089 C 459.79 -0.0944745 1.9397 0
M  V30 5090 O 459.065 -1.05068 1.6368 0
M  V30 5091 C 459.348 2.25681 2.80607 0
M  V30 5092 C 459.201 3.76127 2.46676 0
M  V30 5093 C 460.52 2.17657 3.82509 0
M  V30 5094 H 457.639 0.481704 0.557791 0
M  V30 5095 H 460.281 1.6778 0.891612 0
M  V30 5096 H 458.431 1.95505 3.35723 0
M  V30 5097 H 460.103 4.16877 1.97513 0
M  V30 5098 H 458.346 3.94946 1.79443 0
M  V30 5099 H 459.017 4.36933 3.37333 0
M  V30 5100 H 461.493 2.44245 3.36873 0
M  V30 5101 H 460.369 2.85185 4.69 0
M  V30 5102 H 460.63 1.16785 4.26396 0
M  V30 5103 N 459.689 -1.00246 1.21608 0
M  V30 5104 C 460.938 -1.73476 1.02902 0
M  V30 5105 C 461.251 -1.90643 -0.437561 0
M  V30 5106 O 462.457 -2.61105 -0.74407 0
M  V30 5107 C 460.913 -3.12079 1.79261 0
M  V30 5108 C 460.521 -3.02877 3.30106 0
M  V30 5109 C 462.265 -3.89421 1.68972 0
M  V30 5110 C 460.172 -4.36575 3.98944 0
M  V30 5111 H 459.102 -0.650408 0.381425 0
M  V30 5112 H 461.753 -1.11985 1.45367 0
M  V30 5113 H 460.135 -3.74196 1.2959 0
M  V30 5114 H 461.309 -2.49983 3.87098 0
M  V30 5115 H 459.624 -2.39022 3.40965 0
M  V30 5116 H 462.221 -4.88362 2.17731 0
M  V30 5117 H 462.564 -4.1122 0.648397 0
M  V30 5118 H 463.097 -3.33963 2.16133 0
M  V30 5119 H 459.836 -4.19978 5.03288 0
M  V30 5120 H 459.356 -4.8942 3.4674 0
M  V30 5121 H 461.035 -5.05364 4.04 0
M  V30 5122 N 461.167 -1.02423 -1.1978 0
M  V30 5123 C 462.1 -0.545641 -2.21581 0
M  V30 5124 C 463.078 0.411024 -1.57319 0
M  V30 5125 O 464.262 0.329223 -1.85603 0
M  V30 5126 C 461.389 0.204973 -3.38079 0
M  V30 5127 C 460.435 -0.70241 -4.20676 0
M  V30 5128 S 461.268 -2.17595 -4.89298 0
M  V30 5129 C 462.424 -1.43572 -6.09211 0
M  V30 5130 H 462.657 -1.4082 -2.61834 0
M  V30 5131 H 460.19 -0.833771 -1.29952 0
M  V30 5132 H 462.148 0.631924 -4.05607 0
M  V30 5133 H 460.809 1.0432 -2.9627 0
M  V30 5134 H 460.002 -0.123193 -5.03849 0
M  V30 5135 H 459.604 -1.06747 -3.58442 0
M  V30 5136 H 461.896 -0.719806 -6.73665 0
M  V30 5137 H 462.839 -2.24388 -6.71607 0
M  V30 5138 H 463.247 -0.935252 -5.56699 0
M  V30 5139 N 462.645 1.35699 -0.801477 0
M  V30 5140 C 463.875 2.02862 -0.3912 0
M  V30 5141 C 464.283 1.60552 1.00099 0
M  V30 5142 O 463.626 0.796215 1.65548 0
M  V30 5143 C 463.688 3.57386 -0.389299 0
M  V30 5144 C 463.352 4.22943 -1.73113 0
M  V30 5145 C 464.349 4.44984 -2.68859 0
M  V30 5146 C 462.034 4.60167 -2.01373 0
M  V30 5147 C 464.028 5.03345 -3.91053 0
M  V30 5148 C 461.715 5.18243 -3.23832 0
M  V30 5149 C 462.713 5.39773 -4.1849 0
M  V30 5150 O 462.401 5.96626 -5.38788 0
M  V30 5151 H 462.133 0.657341 -0.157732 0
M  V30 5152 H 464.687 1.74407 -1.08496 0
M  V30 5153 H 462.917 3.85011 0.361031 0
M  V30 5154 H 464.606 4.059 -0.0020365 0
M  V30 5155 H 465.372 4.1661 -2.48316 0
M  V30 5156 H 461.251 4.42726 -1.28508 0
M  V30 5157 H 464.795 5.20065 -4.64949 0
M  V30 5158 H 460.692 5.46044 -3.44248 0
M  V30 5159 H 461.46 6.15082 -5.40015 0
M  V30 5160 N 464.123 0.554532 1.47522 0
M  V30 5161 C 465.033 -0.197865 2.33764 0
M  V30 5162 C 466.049 -0.914576 1.48025 0
M  V30 5163 O 467.225 -0.884067 1.80959 0
M  V30 5164 C 464.29 -1.21628 3.24665 0
M  V30 5165 C 463.351 -0.507283 4.26292 0
M  V30 5166 C 462.584 -1.47718 5.1285 0
M  V30 5167 O 462.807 -2.7118 5.01814 0
M  V30 5168 O 461.741 -1.00313 5.93482 0
M  V30 5169 H 465.567 0.50949 2.99396 0
M  V30 5170 H 463.152 0.315176 1.46038 0
M  V30 5171 H 465.034 -1.80421 3.80823 0
M  V30 5172 H 463.709 -1.9056 2.61665 0
M  V30 5173 H 462.616 0.121778 3.73902 0
M  V30 5174 H 463.949 0.140544 4.91999 0
M  V30 5175 N 465.601 -1.54893 0.290851 0
M  V30 5176 C 466.534 -2.19289 -0.631489 0
M  V30 5177 C 467.512 -1.15893 -1.14051 0
M  V30 5178 O 468.696 -1.4449 -1.21058 0
M  V30 5179 C 465.823 -2.82866 -1.86291 0
M  V30 5180 C 464.869 -3.997 -1.48801 0
M  V30 5181 S 465.702 -5.32641 -0.552644 0
M  V30 5182 C 466.858 -5.99696 -1.79209 0
M  V30 5183 H 467.091 -2.9718 -0.0843791 0
M  V30 5184 H 464.624 -1.54218 0.075031 0
M  V30 5185 H 466.582 -3.20124 -2.56964 0
M  V30 5186 H 465.243 -2.04839 -2.38117 0
M  V30 5187 H 464.436 -4.42932 -2.40473 0
M  V30 5188 H 464.038 -3.63947 -0.861321 0
M  V30 5189 H 466.33 -6.19886 -2.734 0
M  V30 5190 H 467.273 -6.94071 -1.40251 0
M  V30 5191 H 467.681 -5.29226 -1.96419 0
M  V30 5192 N 467.08 -0.0183926 -1.57589 0
M  V30 5193 C 468.01 0.965596 -2.12599 0
M  V30 5194 C 468.991 1.34641 -1.0395 0
M  V30 5195 O 470.176 1.42693 -1.31729 0
M  V30 5196 C 467.306 2.25149 -2.64434 0
M  V30 5197 C 466.26 2.01175 -3.77773 0
M  V30 5198 C 465.586 3.35937 -4.15994 0
M  V30 5199 C 466.886 1.35953 -5.04296 0
M  V30 5200 H 468.58 0.507504 -2.95067 0
M  V30 5201 H 466.126 0.242671 -1.41941 0
M  V30 5202 H 468.079 2.94357 -3.01549 0
M  V30 5203 H 466.803 2.73105 -1.79112 0
M  V30 5204 H 465.462 1.34388 -3.4108 0
M  V30 5205 H 465.11 3.81631 -3.27669 0
M  V30 5206 H 464.81 3.20705 -4.92364 0
M  V30 5207 H 466.334 4.0643 -4.55683 0
M  V30 5208 H 467.748 1.95144 -5.39065 0
M  V30 5209 H 466.145 1.31152 -5.85593 0
M  V30 5210 H 467.215 0.331071 -4.83768 0
M  V30 5211 N 468.558 1.5553 0.254621 0
M  V30 5212 C 469.807 1.76202 0.981612 0
M  V30 5213 C 470.12 0.580883 1.86776 0
M  V30 5214 O 471.326 0.670448 2.63092 0
M  V30 5215 C 469.782 3.11921 1.79537 0
M  V30 5216 C 469.39 4.37659 0.956991 0
M  V30 5217 C 471.134 3.41936 2.51555 0
M  V30 5218 C 469.041 5.64411 1.76619 0
M  V30 5219 H 467.971 0.656841 0.370237 0
M  V30 5220 H 470.622 1.81969 0.236556 0
M  V30 5221 H 469.004 3.00241 2.58208 0
M  V30 5222 H 470.178 4.60307 0.21315 0
M  V30 5223 H 468.493 4.14922 0.350497 0
M  V30 5224 H 471.09 4.33849 3.12536 0
M  V30 5225 H 471.433 2.62905 3.22779 0
M  V30 5226 H 471.966 3.54797 1.799 0
M  V30 5227 H 468.705 6.46241 1.09783 0
M  V30 5228 H 468.225 5.45877 2.48551 0
M  V30 5229 H 469.904 6.03386 2.33527 0
M  V30 5230 N 470.036 -0.519951 1.48776 0
M  V30 5231 C 471.284 -1.2727 1.56993 0
M  V30 5232 C 471.605 -1.9339 0.25004 0
M  V30 5233 O 470.875 -1.81822 -0.729216 0
M  V30 5234 H 469.455 -0.472732 0.578389 0
M  V30 5235 H 472.117 -0.604234 1.85297 0
M  V30 5236 H 471.213 -2.04669 2.3562 0
M  V30 5237 N 471.514 -1.37532 -0.769588 0
M  V30 5238 C 472.744 -1.35861 -1.55645 0
M  V30 5239 C 473.152 0.0574398 -1.89113 0
M  V30 5240 O 472.495 1.03021 -1.52093 0
M  V30 5241 C 472.557 -2.13431 -2.89288 0
M  V30 5242 C 472.221 -3.62378 -2.78444 0
M  V30 5243 C 473.218 -4.56215 -2.49326 0
M  V30 5244 C 470.903 -4.05529 -2.96398 0
M  V30 5245 C 472.897 -5.91181 -2.38294 0
M  V30 5246 C 470.584 -5.40579 -2.84987 0
M  V30 5247 C 471.582 -6.33218 -2.55975 0
M  V30 5248 O 471.27 -7.65787 -2.44594 0
M  V30 5249 H 471.002 -0.467001 -0.48876 0
M  V30 5250 H 473.556 -1.81505 -0.961515 0
M  V30 5251 H 471.786 -1.62481 -3.50909 0
M  V30 5252 H 473.475 -2.04368 -3.50697 0
M  V30 5253 H 474.241 -4.24187 -2.35139 0
M  V30 5254 H 470.12 -3.33781 -3.1798 0
M  V30 5255 H 473.664 -6.63457 -2.15571 0
M  V30 5256 H 469.561 -5.72209 -2.98743 0
M  V30 5257 H 470.329 -7.76132 -2.59927 0
M  V30 5258 N 472.992 0.995999 -1.22138 0
M  V30 5259 C 474.403 1.54961 -1.04135 0
M  V30 5260 C 474.754 1.92159 0.396147 0
M  V30 5261 O 473.879 1.74435 1.28069 0
M  V30 5262 C 474.474 2.81581 -1.88408 0
M  V30 5263 C 473.033 3.33396 -1.74712 0
M  V30 5264 C 472.18 2.06509 -1.85066 0
M  V30 5265 H 475.131 0.817436 -1.36028 0
M  V30 5266 H 475.152 3.53822 -1.39966 0
M  V30 5267 H 474.664 2.54476 -2.93025 0
M  V30 5268 H 472.765 3.65416 -0.728159 0
M  V30 5269 H 472.878 4.04208 -2.57202 0
M  V30 5270 H 471.242 2.19925 -1.28472 0
M  V30 5271 H 472.025 1.81804 -2.91208 0
M  V30 5272 N 474.47 1.03057 1.19235 0
M  V30 5273 C 475.881 0.757449 1.70645 0
M  V30 5274 C 476.232 -0.722735 1.82403 0
M  V30 5275 O 475.357 -1.56325 1.49638 0
M  V30 5276 C 475.952 1.36833 3.09939 0
M  V30 5277 C 474.511 1.14375 3.58602 0
M  V30 5278 C 473.658 1.46533 2.35422 0
M  V30 5279 H 476.609 1.19828 1.04052 0
M  V30 5280 H 476.63 0.766184 3.72706 0
M  V30 5281 H 476.142 2.44562 3.01349 0
M  V30 5282 H 474.243 0.0847542 3.72504 0
M  V30 5283 H 474.356 1.83366 4.42622 0
M  V30 5284 H 472.72 0.884712 2.38841 0
M  V30 5285 H 473.503 2.55349 2.2946 0
M  V30 5286 N 475.948 -1.35272 0.808662 0
M  V30 5287 C 477.195 -1.98709 0.390003 0
M  V30 5288 C 477.523 -1.64148 -1.04335 0
M  V30 5289 O 476.778 -0.897797 -1.73891 0
M  V30 5290 C 477.077 -3.53556 0.522798 0
M  V30 5291 C 476.743 -4.0799 1.91977 0
M  V30 5292 C 475.405 -4.22568 2.30195 0
M  V30 5293 C 477.757 -4.37442 2.83361 0
M  V30 5294 C 475.085 -4.63918 3.59162 0
M  V30 5295 C 477.437 -4.80232 4.11776 0
M  V30 5296 C 476.101 -4.93016 4.49991 0
M  V30 5297 H 475.371 -0.727127 0.142712 0
M  V30 5298 H 478.018 -1.6145 1.02985 0
M  V30 5299 H 476.323 -3.91287 -0.200494 0
M  V30 5300 H 478.02 -4.00598 0.179608 0
M  V30 5301 H 474.61 -3.97096 1.61284 0
M  V30 5302 H 478.794 -4.25731 2.55083 0
M  V30 5303 H 474.05 -4.72005 3.88615 0
M  V30 5304 H 478.224 -5.01982 4.82687 0
M  V30 5305 H 475.851 -5.24814 5.49976 0
M  V30 5306 N 477.426 -0.562348 -1.47226 0
M  V30 5307 C 478.666 -0.0426374 -2.04356 0
M  V30 5308 C 479.03 1.28487 -1.42671 0
M  V30 5309 O 480.231 1.89259 -1.90878 0
M  V30 5310 C 478.502 0.0433826 -3.57374 0
M  V30 5311 S 480.061 0.508472 -4.35844 0
M  V30 5312 H 476.879 -0.0276234 -0.710463 0
M  V30 5313 H 479.481 -0.750245 -1.80531 0
M  V30 5314 H 478.185 -0.927072 -3.99792 0
M  V30 5315 H 477.716 0.774387 -3.85703 0
M  V30 5316 H 479.731 1.76719 -4.63665 0
M  V30 5317 N 478.904 1.54736 -0.299062 0
M  V30 5318 C 480.129 2.04975 0.316254 0
M  V30 5319 C 480.554 1.17501 1.46885 0
M  V30 5320 O 479.912 0.178678 1.80417 0
M  V30 5321 C 479.96 3.52672 0.751997 0
M  V30 5322 O 479.064 3.68226 1.85697 0
M  V30 5323 H 478.405 0.661126 0.0617175 0
M  V30 5324 H 480.935 1.99805 -0.440341 0
M  V30 5325 H 480.945 3.94488 1.04133 0
M  V30 5326 H 479.62 4.158 -0.0911482 0
M  V30 5327 H 478.197 3.38316 1.56834 0
M  V30 5328 N 480.382 0.0267497 1.57577 0
M  V30 5329 C 481.292 -0.971633 2.13533 0
M  V30 5330 C 482.308 -1.35868 1.08701 0
M  V30 5331 O 483.484 -1.44058 1.40746 0
M  V30 5332 C 480.549 -2.23622 2.64941 0
M  V30 5333 C 479.61 -1.90982 3.8448 0
M  V30 5334 C 478.843 -3.11411 4.33427 0
M  V30 5335 O 479.066 -4.23992 3.81558 0
M  V30 5336 O 478 -2.93848 5.25297 0
M  V30 5337 H 481.826 -0.525853 2.99113 0
M  V30 5338 H 479.411 -0.193712 1.48139 0
M  V30 5339 H 481.293 -2.97864 2.98086 0
M  V30 5340 H 479.968 -2.67386 1.82446 0
M  V30 5341 H 478.875 -1.14132 3.56265 0
M  V30 5342 H 480.208 -1.52036 4.6813 0
M  V30 5343 N 481.861 -1.55662 -0.24637 0
M  V30 5344 C 483.089 -1.81575 -0.991876 0
M  V30 5345 C 483.504 -0.602545 -1.78927 0
M  V30 5346 O 482.861 0.428795 -1.77391 0
M  V30 5347 C 482.912 -3.05711 -1.92933 0
M  V30 5348 O 482.633 -4.22348 -1.1642 0
M  V30 5349 C 484.134 -3.44428 -2.79078 0
M  V30 5350 H 481.354 -0.604209 -0.291844 0
M  V30 5351 H 483.898 -2.02722 -0.269095 0
M  V30 5352 H 482.053 -2.86612 -2.60638 0
M  V30 5353 H 482.467 -4.92706 -1.79835 0
M  V30 5354 H 483.941 -4.34388 -3.40603 0
M  V30 5355 H 484.418 -2.65037 -3.50217 0
M  V30 5356 H 485.024 -3.65879 -2.16824 0
M  V30 5357 N 483.339 0.512053 -1.4905 0
M  V30 5358 C 484.75 1.09376 -1.51307 0
M  V30 5359 C 485.101 1.94 -0.292971 0
M  V30 5360 O 484.226 2.07965 0.598277 0
M  V30 5361 C 484.821 1.99031 -2.74176 0
M  V30 5362 C 483.38 2.52385 -2.79247 0
M  V30 5363 C 482.527 1.29749 -2.45073 0
M  V30 5364 H 485.478 0.296467 -1.55906 0
M  V30 5365 H 485.499 2.83569 -2.53711 0
M  V30 5366 H 485.011 1.37412 -3.62959 0
M  V30 5367 H 483.112 3.17673 -1.94716 0
M  V30 5368 H 483.225 2.90293 -3.81139 0
M  V30 5369 H 481.589 1.61912 -1.96612 0
M  V30 5370 H 482.372 0.698555 -3.36118 0
M  V30 5371 N 484.817 1.37938 0.762283 0
M  V30 5372 C 485.749 1.30349 1.88525 0
M  V30 5373 C 486.762 0.217402 1.61342 0
M  V30 5374 O 487.951 0.474291 1.72084 0
M  V30 5375 C 485.051 0.994844 3.23969 0
M  V30 5376 C 484.224 2.18829 3.78725 0
M  V30 5377 C 483.283 1.84844 4.92665 0
M  V30 5378 O 482.309 2.57244 5.07754 0
M  V30 5379 N 483.511 0.798201 5.74986 0
M  V30 5380 H 486.276 2.27114 1.95549 0
M  V30 5381 H 483.837 1.31686 0.941825 0
M  V30 5382 H 485.829 0.748168 3.97724 0
M  V30 5383 H 484.399 0.115446 3.12387 0
M  V30 5384 H 483.619 2.59615 2.96637 0
M  V30 5385 H 484.907 2.98497 4.1204 0
M  V30 5386 H 484.305 0.197611 5.65355 0
M  V30 5387 H 482.862 0.611396 6.48926 0
M  V30 5388 N 486.295 -0.989507 1.22664 0
M  V30 5389 C 487.205 -2.11449 1.01619 0
M  V30 5390 C 488.221 -1.73962 -0.036545 0
M  V30 5391 O 489.397 -2.00788 0.156924 0
M  V30 5392 C 486.462 -3.41465 0.600204 0
M  V30 5393 C 485.523 -3.93033 1.72695 0
M  V30 5394 C 484.756 -5.16844 1.33071 0
M  V30 5395 O 484.979 -5.7001 0.210975 0
M  V30 5396 O 483.913 -5.6225 2.14845 0
M  V30 5397 H 487.739 -2.32088 1.9588 0
M  V30 5398 H 485.324 -1.09823 1.01289 0
M  V30 5399 H 487.206 -4.19695 0.37873 0
M  V30 5400 H 485.881 -3.22178 -0.313511 0
M  V30 5401 H 484.788 -3.15961 2.00298 0
M  V30 5402 H 486.121 -4.16758 2.61865 0
M  V30 5403 N 487.773 -1.03688 -1.18687 0
M  V30 5404 C 489.001 -0.757918 -1.92518 0
M  V30 5405 C 489.416 0.684398 -1.75959 0
M  V30 5406 O 488.773 1.46617 -1.08673 0
M  V30 5407 C 488.824 -1.10985 -3.44042 0
M  V30 5408 O 488.545 -2.49554 -3.60076 0
M  V30 5409 C 490.046 -0.854844 -4.3498 0
M  V30 5410 H 487.266 -0.276699 -0.611293 0
M  V30 5411 H 489.81 -1.38352 -1.50595 0
M  V30 5412 H 487.965 -0.529279 -3.83767 0
M  V30 5413 H 488.379 -2.6291 -4.53849 0
M  V30 5414 H 489.853 -1.15098 -5.39867 0
M  V30 5415 H 490.33 0.210507 -4.38695 0
M  V30 5416 H 490.936 -1.41853 -4.00946 0
M  V30 5417 N 489.251 1.34841 -0.815825 0
M  V30 5418 C 490.481 2.02436 -0.412695 0
M  V30 5419 C 490.889 1.61604 0.983906 0
M  V30 5420 O 490.232 0.813729 1.64694 0
M  V30 5421 C 490.294 3.56953 -0.427182 0
M  V30 5422 C 489.958 4.21083 -1.77589 0
M  V30 5423 C 490.955 4.42107 -2.73564 0
M  V30 5424 C 488.64 4.58006 -2.06243 0
M  V30 5425 C 490.634 4.99169 -3.9637 0
M  V30 5426 C 488.321 5.1478 -3.2931 0
M  V30 5427 C 489.319 5.35304 -4.24191 0
M  V30 5428 O 489.007 5.90878 -5.45086 0
M  V30 5429 H 488.739 0.655631 -0.164695 0
M  V30 5430 H 491.293 1.73246 -1.1034 0
M  V30 5431 H 489.523 3.85372 0.320175 0
M  V30 5432 H 491.212 4.05875 -0.0450875 0
M  V30 5433 H 491.978 4.13953 -2.52721 0
M  V30 5434 H 487.857 4.41339 -1.33196 0
M  V30 5435 H 491.401 5.15105 -4.70439 0
M  V30 5436 H 487.298 5.42362 -3.5002 0
M  V30 5437 H 488.066 6.0932 -5.46508 0
M  V30 5438 N 490.729 0.570148 1.46925 0
M  V30 5439 C 492.145 0.23087 1.57921 0
M  V30 5440 C 492.345 -1.26676 1.56702 0
M  V30 5441 O 491.401 -2.04774 1.47729 0
M  V30 5442 C 492.714 0.868973 2.8787 0
M  V30 5443 C 494.262 0.841397 3.01479 0
M  V30 5444 C 494.737 1.45881 4.34146 0
M  V30 5445 N 496.228 1.42258 4.40814 0
M  V30 5446 C 496.963 1.8698 5.42057 0
M  V30 5447 N 496.459 2.39618 6.50042 0
M  V30 5448 N 498.252 1.77972 5.33181 0
M  V30 5449 H 490.403 1.54301 1.45962 0
M  V30 5450 H 492.666 0.644224 0.69547 0
M  V30 5451 H 492.372 1.922 2.94537 0
M  V30 5452 H 492.246 0.369682 3.75384 0
M  V30 5453 H 494.633 -0.202973 2.94401 0
M  V30 5454 H 494.714 1.37858 2.15474 0
M  V30 5455 H 494.358 2.50231 4.4198 0
M  V30 5456 H 494.288 0.896958 5.18905 0
M  V30 5457 H 496.779 1.03768 3.63374 0
M  V30 5458 H 497.092 2.71633 7.23488 0
M  V30 5459 H 495.437 2.43636 6.50897 0
M  V30 5460 H 498.628 1.36617 4.4772 0
M  V30 5461 H 498.801 2.13143 6.11943 0
M  V30 5462 N 492.207 -1.54576 0.307264 0
M  V30 5463 C 493.154 -2.23751 -0.56604 0
M  V30 5464 C 494.124 -1.22235 -1.12462 0
M  V30 5465 O 495.309 -1.50873 -1.16799 0
M  V30 5466 C 492.449 -2.98661 -1.72903 0
M  V30 5467 C 491.562 -4.14963 -1.20124 0
M  V30 5468 C 490.697 -4.77441 -2.3286 0
M  V30 5469 C 489.736 -5.85875 -1.77247 0
M  V30 5470 N 488.873 -6.42282 -2.8358 0
M  V30 5471 H 493.713 -2.97984 0.0304578 0
M  V30 5472 H 491.25 -1.47076 0.0268015 0
M  V30 5473 H 493.208 -3.40329 -2.41313 0
M  V30 5474 H 491.838 -2.26793 -2.29706 0
M  V30 5475 H 490.89 -3.78193 -0.409198 0
M  V30 5476 H 492.202 -4.93066 -0.754171 0
M  V30 5477 H 491.356 -5.21993 -3.09205 0
M  V30 5478 H 490.095 -3.98684 -2.80896 0
M  V30 5479 H 489.1 -5.40741 -0.993926 0
M  V30 5480 H 490.325 -6.6652 -1.30107 0
M  V30 5481 H 488.271 -5.66406 -3.30939 0
M  V30 5482 H 488.188 -7.1575 -2.43388 0
M  V30 5483 H 489.456 -6.91492 -3.59804 0
M  V30 5484 N 493.685 -0.035106 -1.57561 0
M  V30 5485 C 494.931 0.64318 -1.92331 0
M  V30 5486 C 495.264 1.71434 -0.912368 0
M  V30 5487 O 494.539 1.94395 0.0640303 0
M  V30 5488 C 494.822 1.25411 -3.37556 0
M  V30 5489 C 494.675 0.192109 -4.4939 0
M  V30 5490 C 495.994 2.17041 -3.82859 0
M  V30 5491 H 493.113 0.232341 -0.699419 0
M  V30 5492 H 495.755 -0.0935889 -1.89769 0
M  V30 5493 H 493.905 1.88205 -3.39869 0
M  V30 5494 H 495.577 -0.438849 -4.59208 0
M  V30 5495 H 493.82 -0.481725 -4.31117 0
M  V30 5496 H 494.491 0.659292 -5.48049 0
M  V30 5497 H 496.967 1.64228 -3.8232 0
M  V30 5498 H 495.843 2.56738 -4.85157 0
M  V30 5499 H 496.104 3.06401 -3.18702 0
M  V30 5500 N 495.163 1.55791 0.238111 0
M  V30 5501 C 496.096 1.86036 1.32158 0
M  V30 5502 C 497.074 0.716216 1.45976 0
M  V30 5503 O 498.258 0.962882 1.62052 0
M  V30 5504 C 495.385 2.05281 2.69402 0
M  V30 5505 C 494.431 3.27939 2.72687 0
M  V30 5506 S 495.264 4.84342 2.28413 0
M  V30 5507 C 496.42 5.06604 3.67565 0
M  V30 5508 H 496.653 2.77644 1.06306 0
M  V30 5509 H 494.186 1.48012 0.439537 0
M  V30 5510 H 496.144 2.17053 3.48423 0
M  V30 5511 H 494.805 1.14499 2.92487 0
M  V30 5512 H 493.998 3.38398 3.73501 0
M  V30 5513 H 493.6 3.14938 2.01717 0
M  V30 5514 H 495.892 4.94486 4.6313 0
M  V30 5515 H 496.835 6.08554 3.62033 0
M  V30 5516 H 497.243 4.34409 3.60485 0
M  V30 5517 N 496.642 -0.504142 1.49319 0
M  V30 5518 C 497.59 -1.62689 1.66238 0
M  V30 5519 C 498.584 -1.6095 0.528349 0
M  V30 5520 O 499.79 -1.65496 0.707887 0
M  V30 5521 H 496.165 -0.539247 0.524134 0
M  V30 5522 H 498.136 -1.45571 2.60484 0
M  V30 5523 C 496.885 -3.00841 1.74328 0
M  V30 5524 H 496.208 -3.02884 2.60963 0
M  V30 5525 H 497.648 -3.78945 1.90202 0
M  V30 5526 C 496.107 -3.33355 0.487416 0
M  V30 5527 O 496.637 -3.99819 -0.388294 0
M  V30 5528 N 494.843 -2.88469 0.351306 0
M  V30 5529 H 494.39 -2.34557 1.06492 0
M  V30 5530 H 494.348 -3.10591 -0.487899 0
M  V30 5531 N 498.12 -1.38341 -0.754957 0
M  V30 5532 C 499.366 -1.35678 -1.51536 0
M  V30 5533 C 499.721 0.0533985 -1.92326 0
M  V30 5534 O 499.014 1.01573 -1.6246 0
M  V30 5535 C 499.208 -2.2452 -2.78075 0
M  V30 5536 C 499.037 -3.74035 -2.49655 0
M  V30 5537 C 497.807 -4.43066 -2.42942 0
M  V30 5538 C 500.005 -4.665 -2.16523 0
M  V30 5539 N 497.987 -5.78026 -2.06783 0
M  V30 5540 C 499.358 -5.89962 -1.90644 0
M  V30 5541 C 501.413 -4.54718 -2.02821 0
M  V30 5542 C 500.116 -7.0296 -1.52444 0
M  V30 5543 C 502.142 -5.67618 -1.66023 0
M  V30 5544 C 501.504 -6.90141 -1.41015 0
M  V30 5545 H 497.603 -0.551764 -0.554148 0
M  V30 5546 H 500.187 -1.73716 -0.879258 0
M  V30 5547 H 498.358 -1.88673 -3.39496 0
M  V30 5548 H 500.09 -2.12993 -3.44116 0
M  V30 5549 H 496.845 -3.96264 -2.59367 0
M  V30 5550 H 497.269 -6.49394 -1.91353 0
M  V30 5551 H 501.911 -3.60546 -2.20831 0
M  V30 5552 H 499.629 -7.97051 -1.33174 0
M  V30 5553 H 503.215 -5.6048 -1.56055 0
M  V30 5554 H 502.095 -7.76021 -1.12965 0
M  V30 5555 N 499.598 0.982988 -1.23187 0
M  V30 5556 C 500.545 2.07491 -1.01075 0
M  V30 5557 C 501.515 1.65949 0.070905 0
M  V30 5558 O 502.7 1.90629 -0.0806822 0
M  V30 5559 C 499.84 3.39751 -0.605261 0
M  V30 5560 C 498.953 3.94578 -1.75876 0
M  V30 5561 C 498.088 5.15039 -1.3003 0
M  V30 5562 C 497.127 5.62027 -2.42472 0
M  V30 5563 N 496.264 6.73719 -1.97602 0
M  V30 5564 H 501.104 2.25739 -1.9454 0
M  V30 5565 H 498.641 1.10659 -0.969179 0
M  V30 5566 H 500.599 4.15719 -0.351279 0
M  V30 5567 H 499.229 3.21473 0.292382 0
M  V30 5568 H 498.281 3.1539 -2.12681 0
M  V30 5569 H 499.593 4.25422 -2.60418 0
M  V30 5570 H 498.747 5.9833 -1.00429 0
M  V30 5571 H 497.486 4.85843 -0.425216 0
M  V30 5572 H 496.491 4.77318 -2.7285 0
M  V30 5573 H 497.716 5.93244 -3.30512 0
M  V30 5574 H 495.662 6.46287 -1.1247 0
M  V30 5575 H 495.579 7.03934 -2.75705 0
M  V30 5576 H 496.847 7.6049 -1.71098 0
M  V30 5577 N 501.076 1.04316 1.18135 0
M  V30 5578 C 501.986 0.646876 2.25505 0
M  V30 5579 C 503.002 -0.328008 1.7088 0
M  V30 5580 O 504.178 -0.182309 2.00573 0
M  V30 5581 C 501.243 0.0185664 3.46695 0
M  V30 5582 C 500.304 1.04277 4.16443 0
M  V30 5583 C 499.537 0.444352 5.31847 0
M  V30 5584 O 499.76 -0.748735 5.65465 0
M  V30 5585 O 498.694 1.17428 5.90334 0
M  V30 5586 H 502.52 1.54147 2.61672 0
M  V30 5587 H 500.105 0.814188 1.25265 0
M  V30 5588 H 501.987 -0.331068 4.20097 0
M  V30 5589 H 500.662 -0.849814 3.12346 0
M  V30 5590 H 499.569 1.44425 3.45098 0
M  V30 5591 H 500.902 1.882 4.54798 0
M  V30 5592 N 502.554 -1.34406 0.822964 0
M  V30 5593 C 503.782 -2.02508 0.424039 0
M  V30 5594 C 504.197 -1.61975 -0.970022 0
M  V30 5595 O 503.554 -0.825228 -1.62777 0
M  V30 5596 C 503.605 -3.57789 0.516657 0
M  V30 5597 O 503.326 -3.96853 1.85577 0
M  V30 5598 C 504.827 -4.43157 0.112637 0
M  V30 5599 H 502.047 -0.649063 0.170173 0
M  V30 5600 H 504.591 -1.7168 1.11113 0
M  V30 5601 H 502.746 -3.87207 -0.122353 0
M  V30 5602 H 503.16 -4.91538 1.83005 0
M  V30 5603 H 504.634 -5.51527 0.228526 0
M  V30 5604 H 505.111 -4.28939 -0.943837 0
M  V30 5605 H 505.717 -4.19067 0.725449 0
M  V30 5606 N 504.032 -0.577932 -1.46621 0
M  V30 5607 C 504.962 0.145917 -2.33044 0
M  V30 5608 C 505.943 0.888412 -1.45056 0
M  V30 5609 O 507.128 0.864812 -1.73881 0
M  V30 5610 C 504.258 1.16322 -3.27241 0
M  V30 5611 C 503.212 0.535868 -4.24632 0
M  V30 5612 C 502.538 1.65929 -5.08303 0
M  V30 5613 C 503.838 -0.523861 -5.19666 0
M  V30 5614 H 505.532 -0.575636 -2.93814 0
M  V30 5615 H 503.078 -0.278272 -1.41286 0
M  V30 5616 H 505.031 1.67793 -3.86553 0
M  V30 5617 H 503.755 1.91498 -2.64567 0
M  V30 5618 H 502.414 0.0422759 -3.66576 0
M  V30 5619 H 502.062 2.40061 -4.42018 0
M  V30 5620 H 501.762 1.2452 -5.74255 0
M  V30 5621 H 503.286 2.17686 -5.70478 0
M  V30 5622 H 504.7 -0.0944059 -5.73222 0
M  V30 5623 H 503.097 -0.858 -5.93935 0
M  V30 5624 H 504.167 -1.41197 -4.63887 0
M  V30 5625 N 505.51 1.54411 -0.315457 0
M  V30 5626 C 506.756 2.00716 0.289972 0
M  V30 5627 C 507.089 1.2034 1.5242 0
M  V30 5628 O 506.364 0.283579 1.92422 0
M  V30 5629 C 506.647 3.54507 0.632196 0
M  V30 5630 C 506.5 4.45615 -0.61218 0
M  V30 5631 C 507.819 4.15421 1.45305 0
M  V30 5632 H 504.938 0.729637 0.10392 0
M  V30 5633 H 507.58 1.8506 -0.430427 0
M  V30 5634 H 505.73 3.67979 1.24595 0
M  V30 5635 H 507.402 4.44026 -1.25053 0
M  V30 5636 H 505.645 4.15621 -1.24264 0
M  V30 5637 H 506.316 5.51022 -0.328379 0
M  V30 5638 H 508.792 4.05474 0.934331 0
M  V30 5639 H 507.668 5.23157 1.66127 0
M  V30 5640 H 507.929 3.68223 2.44671 0
M  V30 5641 N 506.988 0.0434614 1.5754 0
M  V30 5642 C 508.235 -0.632035 1.92384 0
M  V30 5643 C 508.563 -1.71304 0.921157 0
M  V30 5644 O 507.818 -1.95583 -0.067744 0
M  V30 5645 C 508.117 -1.2738 3.3393 0
M  V30 5646 C 507.783 -0.321757 4.49751 0
M  V30 5647 C 506.445 -0.0597611 4.81163 0
M  V30 5648 C 508.797 0.331158 5.20147 0
M  V30 5649 C 506.125 0.862715 5.80322 0
M  V30 5650 C 508.477 1.24178 6.20292 0
M  V30 5651 C 507.141 1.51252 6.50138 0
M  V30 5652 H 506.411 -0.231278 0.703983 0
M  V30 5653 H 509.058 0.108294 1.91194 0
M  V30 5654 H 507.363 -2.08921 3.3145 0
M  V30 5655 H 509.06 -1.80326 3.58167 0
M  V30 5656 H 505.65 -0.53614 4.25233 0
M  V30 5657 H 509.834 0.141826 4.96097 0
M  V30 5658 H 505.09 1.08003 6.01785 0
M  V30 5659 H 509.264 1.75381 6.73954 0
M  V30 5660 H 506.891 2.22897 7.26788 0
M  V30 5661 N 508.466 -1.55915 -0.229846 0
M  V30 5662 C 509.877 -1.68809 -0.797531 0
M  V30 5663 C 510.228 -0.643995 -1.8533 0
M  V30 5664 O 509.353 0.206492 -2.15413 0
M  V30 5665 C 509.948 -3.06043 -1.45338 0
M  V30 5666 C 508.507 -3.20819 -1.96856 0
M  V30 5667 C 507.654 -2.6472 -0.825736 0
M  V30 5668 H 510.605 -1.58699 -0.00533733 0
M  V30 5669 H 510.626 -3.01438 -2.32196 0
M  V30 5670 H 510.138 -3.82012 -0.684743 0
M  V30 5671 H 508.239 -2.49704 -2.76548 0
M  V30 5672 H 508.352 -4.27937 -2.15423 0
M  V30 5673 H 506.716 -2.22985 -1.23084 0
M  V30 5674 H 507.499 -3.43229 -0.0699019 0
M  V30 5675 N 509.944 0.496216 -1.49584 0
M  V30 5676 C 511.355 1.07765 -1.52459 0
M  V30 5677 C 511.706 1.93679 -0.31353 0
M  V30 5678 O 510.831 2.08588 0.576186 0
M  V30 5679 C 511.426 1.96111 -2.76271 0
M  V30 5680 C 509.985 2.49409 -2.81908 0
M  V30 5681 C 509.132 1.27142 -2.46435 0
M  V30 5682 H 512.083 0.279914 -1.56212 0
M  V30 5683 H 512.104 2.80862 -2.56704 0
M  V30 5684 H 511.616 1.33555 -3.64396 0
M  V30 5685 H 509.717 3.1559 -1.98074 0
M  V30 5686 H 509.83 2.86234 -3.84196 0
M  V30 5687 H 508.194 1.59818 -1.98319 0
M  V30 5688 H 508.977 0.662866 -3.3684 0
M  V30 5689 N 511.423 1.38739 0.74761 0
M  V30 5690 C 512.333 1.38696 1.89211 0
M  V30 5691 C 513.349 0.283303 1.71678 0
M  V30 5692 O 514.525 0.522713 1.94498 0
M  V30 5693 C 511.59 1.21662 3.24653 0
M  V30 5694 C 510.651 2.41886 3.54669 0
M  V30 5695 C 509.884 2.25655 4.83648 0
M  V30 5696 O 510.107 1.25339 5.56459 0
M  V30 5697 O 509.041 3.14372 5.13277 0
M  V30 5698 H 512.867 2.35143 1.92202 0
M  V30 5699 H 510.452 1.19721 0.893708 0
M  V30 5700 H 512.334 1.14246 4.05618 0
M  V30 5701 H 511.009 0.283024 3.2246 0
M  V30 5702 H 509.916 2.54877 2.73841 0
M  V30 5703 H 511.249 3.33895 3.61628 0
M  V30 5704 N 512.901 -0.976442 1.23707 0
M  V30 5705 C 514.147 -1.72081 1.07312 0
M  V30 5706 C 514.48 -1.90275 -0.388476 0
M  V30 5707 O 513.755 -1.4579 -1.28746 0
M  V30 5708 C 514.038 -3.11675 1.80363 0
M  V30 5709 C 513.891 -3.01027 3.3422 0
M  V30 5710 C 515.21 -4.1117 1.5693 0
M  V30 5711 H 512.329 -0.624583 0.391236 0
M  V30 5712 H 514.971 -1.13649 1.52263 0
M  V30 5713 H 513.121 -3.61559 1.42153 0
M  V30 5714 H 514.793 -2.58637 3.81975 0
M  V30 5715 H 513.036 -2.3744 3.63049 0
M  V30 5716 H 513.707 -3.9988 3.80525 0
M  V30 5717 H 516.183 -3.7011 1.90151 0
M  V30 5718 H 515.059 -5.06928 2.10513 0
M  V30 5719 H 515.32 -4.392 0.505548 0
M  V30 5720 N 514.379 -1.04941 -1.1758 0
M  V30 5721 C 515.79 -0.784501 -1.69418 0
M  V30 5722 C 516.141 0.693625 -1.8353 0
M  V30 5723 O 515.266 1.53925 -1.52106 0
M  V30 5724 C 515.861 -1.41746 -3.07723 0
M  V30 5725 C 514.42 -1.20066 -3.56737 0
M  V30 5726 C 513.567 -1.5026 -2.33061 0
M  V30 5727 H 516.518 -1.21469 -1.02133 0
M  V30 5728 H 516.539 -0.825381 -3.7144 0
M  V30 5729 H 516.051 -2.49325 -2.9742 0
M  V30 5730 H 514.152 -0.144006 -3.72322 0
M  V30 5731 H 514.265 -1.90384 -4.39648 0
M  V30 5732 H 512.629 -0.922598 -2.37403 0
M  V30 5733 H 513.412 -2.58967 -2.25368 0
M  V30 5734 N 515.857 1.33968 -0.830081 0
M  V30 5735 C 517.106 1.97323 -0.417928 0
M  V30 5736 C 517.419 1.6652 1.02618 0
M  V30 5737 O 518.625 2.2342 1.54259 0
M  V30 5738 C 517.081 3.53099 -0.696359 0
M  V30 5739 C 516.689 3.92788 -2.15457 0
M  V30 5740 C 518.433 4.23049 -0.350724 0
M  V30 5741 C 516.34 5.41506 -2.37751 0
M  V30 5742 H 515.27 0.738409 -0.152541 0
M  V30 5743 H 517.921 1.52711 -1.01744 0
M  V30 5744 H 516.303 3.95991 -0.0265904 0
M  V30 5745 H 517.477 3.6098 -2.86408 0
M  V30 5746 H 515.792 3.35795 -2.46232 0
M  V30 5747 H 518.389 5.32403 -0.495036 0
M  V30 5748 H 518.732 4.10279 0.705476 0
M  V30 5749 H 519.265 3.85657 -0.975362 0
M  V30 5750 H 516.004 5.5927 -3.41903 0
M  V30 5751 H 515.524 5.74804 -1.7135 0
M  V30 5752 H 517.203 6.0828 -2.20465 0
M  V30 5753 N 517.335 0.585699 1.46312 0
M  V30 5754 C 518.56 0.0762461 2.0726 0
M  V30 5755 C 518.985 -1.22071 1.43109 0
M  V30 5756 O 518.343 -1.73804 0.515942 0
M  V30 5757 C 518.391 -0.0729404 3.60526 0
M  V30 5758 O 517.495 -1.1287 3.96654 0
M  V30 5759 H 516.836 0.0641558 0.660893 0
M  V30 5760 H 519.366 0.809492 1.87905 0
M  V30 5761 H 519.376 -0.278158 4.07051 0
M  V30 5762 H 518.051 0.874188 4.06609 0
M  V30 5763 H 516.628 -0.901703 3.61834 0
M  V30 5764 N 518.813 -1.54241 0.323641 0
M  V30 5765 C 519.723 -2.28033 -0.551205 0
M  V30 5766 C 520.739 -1.32388 -1.12913 0
M  V30 5767 O 521.915 -1.65403 -1.14908 0
M  V30 5768 C 518.98 -3.02382 -1.69606 0
M  V30 5769 C 518.041 -4.13612 -1.14993 0
M  V30 5770 C 517.274 -4.84407 -2.24022 0
M  V30 5771 O 517.497 -4.54716 -3.44368 0
M  V30 5772 O 516.431 -5.71312 -1.89436 0
M  V30 5773 H 520.257 -3.03662 0.048066 0
M  V30 5774 H 517.842 -1.49133 0.0893289 0
M  V30 5775 H 519.724 -3.48941 -2.36259 0
M  V30 5776 H 518.399 -2.29628 -2.28151 0
M  V30 5777 H 517.306 -3.71402 -0.448484 0
M  V30 5778 H 518.639 -4.8841 -0.609608 0
M  V30 5779 N 520.291 -0.0518155 -1.57515 0
M  V30 5780 C 521.238 0.922352 -2.11569 0
M  V30 5781 C 522.208 1.30842 -1.02321 0
M  V30 5782 O 523.393 1.39778 -1.29872 0
M  V30 5783 C 520.533 2.19167 -2.6657 0
M  V30 5784 C 519.646 1.86003 -3.89906 0
M  V30 5785 C 518.781 3.07398 -4.33221 0
M  V30 5786 C 517.82 2.70158 -5.49255 0
M  V30 5787 N 516.957 3.84248 -5.8762 0
M  V30 5788 H 521.797 0.454506 -2.94514 0
M  V30 5789 H 519.334 0.212718 -1.45554 0
M  V30 5790 H 521.292 2.93443 -2.96559 0
M  V30 5791 H 519.922 2.63528 -1.86421 0
M  V30 5792 H 518.974 1.01874 -3.66505 0
M  V30 5793 H 520.286 1.54592 -4.74239 0
M  V30 5794 H 519.44 3.89972 -4.64765 0
M  V30 5795 H 518.179 3.41988 -3.477 0
M  V30 5796 H 517.184 1.86001 -5.17382 0
M  V30 5797 H 518.409 2.36759 -6.36492 0
M  V30 5798 H 516.355 4.18638 -5.05053 0
M  V30 5799 H 516.272 3.56538 -6.66646 0
M  V30 5800 H 517.54 4.6746 -6.2378 0
M  V30 5801 N 521.769 1.56035 0.221574 0
M  V30 5802 C 522.732 1.91584 1.2581 0
M  V30 5803 C 523.732 0.794425 1.39805 0
M  V30 5804 O 524.922 1.06217 1.38071 0
M  V30 5805 C 522.054 2.16663 2.63192 0
M  V30 5806 H 523.247 2.8429 0.954935 0
M  V30 5807 H 520.8 1.49316 0.461988 0
M  V30 5808 H 521.535 1.26508 2.98607 0
M  V30 5809 H 521.32 2.98358 2.5441 0
M  V30 5810 H 522.81 2.45262 3.37988 0
M  V30 5811 N 523.247 -0.488276 1.49845 0
M  V30 5812 C 524.194 -1.58836 1.67451 0
M  V30 5813 C 525.164 -1.57886 0.515857 0
M  V30 5814 O 526.349 -1.75679 0.744403 0
M  V30 5815 C 523.489 -2.96915 1.75885 0
M  V30 5816 C 522.602 -3.07784 3.03138 0
M  V30 5817 C 521.737 -4.36673 3.02473 0
M  V30 5818 C 520.776 -4.41222 4.24252 0
M  V30 5819 N 519.913 -5.61557 4.21424 0
M  V30 5820 H 524.753 -1.43131 2.61376 0
M  V30 5821 H 522.29 -0.696186 1.29583 0
M  V30 5822 H 524.248 -3.76965 1.78755 0
M  V30 5823 H 522.878 -3.11295 0.85414 0
M  V30 5824 H 521.93 -2.20717 3.09819 0
M  V30 5825 H 523.242 -3.07005 3.93128 0
M  V30 5826 H 522.396 -5.25055 3.03977 0
M  V30 5827 H 521.135 -4.40037 2.10283 0
M  V30 5828 H 520.14 -3.5124 4.22978 0
M  V30 5829 H 521.365 -4.39564 5.17649 0
M  V30 5830 H 519.311 -5.65738 3.32078 0
M  V30 5831 H 519.228 -5.62447 5.05163 0
M  V30 5832 H 520.496 -6.52111 4.2705 0
M  V30 5833 N 524.725 -1.39134 -0.740242 0
M  V30 5834 C 526.002 -1.26584 -1.49117 0
M  V30 5835 C 526.382 0.126902 -2.10718 0
M  V30 5836 O 525.73 1.13765 -1.98166 0
M  V30 5837 C 525.94 -2.38619 -2.54681 0
M  V30 5838 C 527.288 -2.77685 -3.21211 0
M  V30 5839 O 528.312 -2.38029 -2.64991 0
M  V30 5840 O 527.171 -3.46115 -4.22926 0
M  V30 5841 H 524.265 -0.495769 -0.661923 0
M  V30 5842 H 526.811 -1.50995 -0.774514 0
M  V30 5843 H 525.583 -3.3175 -2.07504 0
M  V30 5844 H 525.206 -2.15845 -3.33911 0
M  V30 5845 N 526.204 0.969867 -1.24223 0
M  V30 5846 C 527.134 2.08191 -1.05729 0
M  V30 5847 C 528.115 1.70075 0.0290765 0
M  V30 5848 O 529.3 1.93712 -0.137583 0
M  V30 5849 C 526.43 3.40991 -0.658995 0
M  V30 5850 C 525.384 3.93054 -1.69389 0
M  V30 5851 C 524.71 5.22171 -1.15072 0
M  V30 5852 C 526.01 4.21137 -3.08935 0
M  V30 5853 H 527.704 2.23921 -1.98746 0
M  V30 5854 H 525.25 1.07602 -0.956967 0
M  V30 5855 H 527.203 4.18221 -0.51662 0
M  V30 5856 H 525.927 3.25155 0.30686 0
M  V30 5857 H 524.586 3.17977 -1.82444 0
M  V30 5858 H 524.234 5.02694 -0.175539 0
M  V30 5859 H 523.934 5.57973 -1.84229 0
M  V30 5860 H 525.458 6.02013 -1.02042 0
M  V30 5861 H 526.872 4.8908 -2.99121 0
M  V30 5862 H 525.269 4.68163 -3.75425 0
M  V30 5863 H 526.339 3.27996 -3.57137 0
M  V30 5864 N 527.682 1.05563 1.17022 0
M  V30 5865 C 528.931 0.763036 1.8671 0
M  V30 5866 C 529.244 -0.712857 1.82147 0
M  V30 5867 O 530.45 -1.11955 2.47343 0
M  V30 5868 C 528.906 1.31474 3.35026 0
M  V30 5869 C 528.514 2.82034 3.48081 0
M  V30 5870 C 530.258 1.09935 4.10018 0
M  V30 5871 C 528.165 3.30486 4.90442 0
M  V30 5872 H 527.095 0.281747 0.699382 0
M  V30 5873 H 529.746 1.2734 1.32124 0
M  V30 5874 H 528.128 0.732171 3.89173 0
M  V30 5875 H 529.302 3.46178 3.04133 0
M  V30 5876 H 527.617 3.02156 2.86515 0
M  V30 5877 H 530.214 1.43632 5.15048 0
M  V30 5878 H 530.557 0.0373072 4.16283 0
M  V30 5879 H 531.09 1.64732 3.62089 0
M  V30 5880 H 527.829 4.36137 4.89352 0
M  V30 5881 H 527.349 2.71086 5.35044 0
M  V30 5882 H 529.028 3.25382 5.59227 0
M  V30 5883 N 529.16 -1.33526 0.837174 0
M  V30 5884 C 530.09 -2.31764 0.284206 0
M  V30 5885 C 531.071 -1.58896 -0.607142 0
M  V30 5886 O 532.256 -1.86798 -0.531047 0
M  V30 5887 C 529.386 -3.43029 -0.542962 0
M  V30 5888 C 528.34 -4.27255 0.252451 0
M  V30 5889 C 527.666 -5.3012 -0.69836 0
M  V30 5890 C 528.966 -5.01229 1.46858 0
M  V30 5891 H 530.66 -2.78262 1.10502 0
M  V30 5892 H 528.206 -1.3378 0.532812 0
M  V30 5893 H 530.159 -4.1078 -0.940096 0
M  V30 5894 H 528.883 -2.95216 -1.39697 0
M  V30 5895 H 527.542 -3.61127 0.631124 0
M  V30 5896 H 527.19 -4.78564 -1.54872 0
M  V30 5897 H 526.89 -5.87353 -0.170274 0
M  V30 5898 H 528.414 -6.00737 -1.09305 0
M  V30 5899 H 529.828 -5.61756 1.14469 0
M  V30 5900 H 528.225 -5.68104 1.93333 0
M  V30 5901 H 529.295 -4.301 2.23924 0
M  V30 5902 N 530.638 -0.59345 -1.46 0
M  V30 5903 C 532.054 -0.255965 -1.57534 0
M  V30 5904 C 532.254 1.24167 -1.58697 0
M  V30 5905 O 531.31 2.02398 -1.50968 0
M  V30 5906 C 532.623 -0.91466 -2.86451 0
M  V30 5907 C 534.171 -0.889253 -3.00102 0
M  V30 5908 C 534.646 -1.52769 -4.3177 0
M  V30 5909 N 536.137 -1.49253 -4.38495 0
M  V30 5910 C 536.872 -1.9558 -5.39014 0
M  V30 5911 N 536.368 -2.49929 -6.46148 0
M  V30 5912 N 538.161 -1.86432 -5.30282 0
M  V30 5913 H 530.312 -1.56604 -1.43489 0
M  V30 5914 H 532.575 -0.655207 -0.685133 0
M  V30 5915 H 532.281 -1.96861 -2.91442 0
M  V30 5916 H 532.155 -0.429356 -3.74748 0
M  V30 5917 H 534.542 0.156111 -2.94687 0
M  V30 5918 H 534.623 -1.41268 -2.13253 0
M  V30 5919 H 534.267 -2.57231 -4.37944 0
M  V30 5920 H 534.197 -0.979398 -5.17412 0
M  V30 5921 H 536.688 -1.09536 -3.61677 0
M  V30 5922 H 537.001 -2.83109 -7.19075 0
M  V30 5923 H 535.346 -2.53961 -6.46938 0
M  V30 5924 H 538.537 -1.43722 -4.4549 0
M  V30 5925 H 538.71 -2.22852 -6.08474 0
M  V30 5926 N 532.116 1.54067 -0.331816 0
M  V30 5927 C 533.363 2.00715 0.268269 0
M  V30 5928 C 533.691 1.21986 1.51491 0
M  V30 5929 O 532.946 0.292309 1.93505 0
M  V30 5930 C 533.245 3.51634 0.639392 0
M  V30 5931 C 532.911 4.48018 -0.509019 0
M  V30 5932 C 531.573 4.74089 -0.824209 0
M  V30 5933 C 533.925 5.05237 -1.28003 0
M  V30 5934 C 531.253 5.54637 -1.91298 0
M  V30 5935 C 533.605 5.86972 -2.35895 0
M  V30 5936 C 532.269 6.11342 -2.67987 0
M  V30 5937 H 531.539 0.734469 0.0981667 0
M  V30 5938 H 534.186 1.8596 -0.457304 0
M  V30 5939 H 532.491 3.6416 1.44551 0
M  V30 5940 H 534.188 3.85175 1.11539 0
M  V30 5941 H 530.778 4.27851 -0.253287 0
M  V30 5942 H 534.962 4.8507 -1.04978 0
M  V30 5943 H 530.218 5.71747 -2.16599 0
M  V30 5944 H 534.392 6.30327 -2.96076 0
M  V30 5945 H 532.019 6.73544 -3.5248 0
M  V30 5946 N 533.594 0.0601682 1.57485 0
M  V30 5947 C 534.834 -0.615384 1.94916 0
M  V30 5948 C 535.198 -1.67475 0.938948 0
M  V30 5949 O 536.399 -2.40502 1.20051 0
M  V30 5950 C 534.67 -1.18788 3.37082 0
M  V30 5951 S 536.229 -1.88018 3.96478 0
M  V30 5952 H 533.047 -0.201821 0.681754 0
M  V30 5953 H 535.649 0.131252 1.95059 0
M  V30 5954 H 534.353 -0.404869 4.08398 0
M  V30 5955 H 533.884 -1.97114 3.40455 0
M  V30 5956 H 535.899 -3.16161 3.82435 0
M  V30 5957 N 535.072 -1.5615 -0.213296 0
M  V30 5958 C 536.321 -1.78743 -0.93455 0
M  V30 5959 C 536.634 -0.630199 -1.8517 0
M  V30 5960 O 537.84 -0.739966 -2.61222 0
M  V30 5961 C 536.296 -3.16571 -1.71203 0
M  V30 5962 C 535.904 -4.40043 -0.840617 0
M  V30 5963 C 537.648 -3.48485 -2.42401 0
M  V30 5964 C 535.555 -5.68895 -1.61592 0
M  V30 5965 H 534.485 -0.666426 -0.352692 0
M  V30 5966 H 537.136 -1.82532 -0.188227 0
M  V30 5967 H 535.518 -3.06981 -2.50157 0
M  V30 5968 H 536.692 -4.6071 -0.0910326 0
M  V30 5969 H 535.007 -4.15706 -0.240365 0
M  V30 5970 H 537.604 -4.41983 -3.00924 0
M  V30 5971 H 537.947 -2.71371 -3.15695 0
M  V30 5972 H 538.48 -3.59442 -1.7043 0
M  V30 5973 H 535.219 -6.48925 -0.926106 0
M  V30 5974 H 534.739 -5.52275 -2.33991 0
M  V30 5975 H 536.418 -6.09365 -2.17447 0
M  V30 5976 N 536.55 0.480323 -1.50102 0
M  V30 5977 C 537.827 1.24159 -1.51142 0
M  V30 5978 C 538.207 2.09605 -0.250818 0
M  V30 5979 O 537.555 2.15274 0.766118 0
M  V30 5980 C 537.765 2.08057 -2.80202 0
M  V30 5981 C 539.113 2.66556 -3.30504 0
M  V30 5982 O 540.137 2.18308 -2.81461 0
M  V30 5983 O 538.996 3.54442 -4.15973 0
M  V30 5984 H 536.09 0.562928 -0.605839 0
M  V30 5985 H 538.636 0.492899 -1.62384 0
M  V30 5986 H 537.408 1.45032 -3.6343 0
M  V30 5987 H 537.031 2.90079 -2.71919 0
M  V30 5988 N 538.028 1.39524 0.732853 0
M  V30 5989 C 539.253 1.40329 1.52717 0
M  V30 5990 C 539.678 0.000286574 1.881 0
M  V30 5991 O 539.036 -0.987262 1.52062 0
M  V30 5992 C 539.084 2.28464 2.78992 0
M  V30 5993 O 538.188 1.716 3.75003 0
M  V30 5994 H 537.529 0.47778 0.461109 0
M  V30 5995 H 540.059 1.83546 0.903996 0
M  V30 5996 H 540.069 2.43051 3.27705 0
M  V30 5997 H 538.744 3.30425 2.52572 0
M  V30 5998 H 537.321 1.66267 3.33781 0
M  V30 5999 N 539.506 -0.963266 1.24736 0
M  V30 6000 C 540.416 -2.09246 1.06082 0
M  V30 6001 C 541.432 -1.74 0.000363101 0
M  V30 6002 O 542.608 -2.0041 0.199479 0
M  V30 6003 C 539.673 -3.40115 0.672498 0
M  V30 6004 C 538.734 -3.89282 1.80993 0
M  V30 6005 C 537.967 -5.13905 1.44004 0
M  V30 6006 O 538.19 -5.69434 0.331835 0
M  V30 6007 O 537.124 -5.57566 2.26723 0
M  V30 6008 H 540.95 -2.27881 2.00759 0
M  V30 6009 H 538.535 -1.07649 1.03595 0
M  V30 6010 H 540.417 -4.18797 0.467668 0
M  V30 6011 H 539.092 -3.22771 -0.245102 0
M  V30 6012 H 537.999 -3.11642 2.06955 0
M  V30 6013 H 539.332 -4.1111 2.70646 0
M  V30 6014 N 540.985 -1.06182 -1.16461 0
M  V30 6015 C 541.933 -0.665716 -2.2287 0
M  V30 6016 C 542.927 0.317822 -1.66392 0
M  V30 6017 O 544.133 0.182807 -1.79069 0
M  V30 6018 H 540.508 -0.197148 -0.725697 0
M  V30 6019 H 542.479 -1.57307 -2.53569 0
M  V30 6020 C 541.228 -0.0669803 -3.47635 0
M  V30 6021 H 540.551 -0.814899 -3.91407 0
M  V30 6022 H 541.991 0.172669 -4.23648 0
M  V30 6023 C 540.45 1.18913 -3.15216 0
M  V30 6024 O 540.98 2.27723 -3.30916 0
M  V30 6025 N 539.186 1.09066 -2.69357 0
M  V30 6026 H 538.733 0.20518 -2.56782 0
M  V30 6027 H 538.691 1.93195 -2.48039 0
M  V30 6028 N 542.463 1.3308 -0.844243 0
M  V30 6029 C 543.879 1.50447 -0.532729 0
M  V30 6030 C 544.079 1.78292 0.938837 0
M  V30 6031 O 543.135 1.84635 1.72239 0
M  V30 6032 C 544.448 2.65555 -1.41072 0
M  V30 6033 C 545.996 2.7944 -1.41005 0
M  V30 6034 C 546.471 3.97616 -2.27301 0
M  V30 6035 N 547.962 4.0486 -2.2504 0
M  V30 6036 C 548.697 4.95508 -2.88547 0
M  V30 6037 N 548.193 5.91236 -3.61126 0
M  V30 6038 N 549.986 4.88548 -2.77989 0
M  V30 6039 H 542.137 1.13269 -1.79677 0
M  V30 6040 H 544.4 0.55734 -0.766861 0
M  V30 6041 H 544.106 2.51675 -2.45668 0
M  V30 6042 H 543.98 3.61089 -1.09061 0
M  V30 6043 H 546.367 2.92749 -0.371784 0
M  V30 6044 H 546.448 1.8465 -1.77026 0
M  V30 6045 H 546.092 3.85066 -3.3119 0
M  V30 6046 H 546.022 4.91661 -1.88619 0
M  V30 6047 H 548.513 3.36353 -1.72264 0
M  V30 6048 H 548.826 6.57079 -4.06776 0
M  V30 6049 H 547.171 5.91295 -3.65234 0
M  V30 6050 H 550.362 4.12729 -2.20846 0
M  V30 6051 H 550.535 5.58994 -3.27765 0
M  V30 6052 N 543.941 0.601185 1.45683 0
M  V30 6053 C 545.19 0.0914953 2.01492 0
M  V30 6054 C 545.503 -1.28331 1.47616 0
M  V30 6055 O 546.709 -1.88537 1.95362 0
M  V30 6056 C 545.165 0.11291 3.59723 0
M  V30 6057 C 544.773 1.48717 4.22596 0
M  V30 6058 C 546.517 -0.341871 4.23121 0
M  V30 6059 C 544.424 1.46531 5.7296 0
M  V30 6060 H 543.354 0.0304365 0.753385 0
M  V30 6061 H 546.005 0.755568 1.67223 0
M  V30 6062 H 544.387 -0.617692 3.91153 0
M  V30 6063 H 545.561 2.23897 4.02749 0
M  V30 6064 H 543.876 1.88351 3.71366 0
M  V30 6065 H 546.473 -0.377304 5.33367 0
M  V30 6066 H 546.816 -1.36325 3.93346 0
M  V30 6067 H 547.349 0.335256 3.96385 0
M  V30 6068 H 544.088 2.46408 6.07423 0
M  V30 6069 H 543.608 0.755997 5.95017 0
M  V30 6070 H 545.287 1.18618 6.36034 0
M  V30 6071 N 545.419 -1.53889 0.339982 0
M  V30 6072 C 546.667 -2.00458 -0.257112 0
M  V30 6073 C 546.988 -1.22953 -1.51353 0
M  V30 6074 O 546.258 -0.335734 -1.93002 0
M  V30 6075 H 544.838 -0.740544 -0.0979965 0
M  V30 6076 H 547.5 -1.89386 0.460317 0
M  V30 6077 H 546.596 -3.08035 -0.502057 0
M  V30 6078 N 546.897 -0.0685191 -1.57451 0
M  V30 6079 C 547.845 0.917577 -2.13736 0
M  V30 6080 C 548.839 1.31049 -1.07344 0
M  V30 6081 O 550.045 1.28811 -1.25728 0
M  V30 6082 H 546.42 0.313835 -0.683382 0
M  V30 6083 H 548.391 0.417903 -2.95459 0
M  V30 6084 C 547.14 2.17686 -2.71123 0
M  V30 6085 H 546.463 1.88336 -3.52661 0
M  V30 6086 H 547.903 2.84803 -3.14107 0
M  V30 6087 C 546.362 2.9332 -1.65726 0
M  V30 6088 O 546.892 3.86901 -1.08031 0
M  V30 6089 N 545.098 2.56367 -1.36837 0
M  V30 6090 H 544.645 1.80341 -1.83943 0
M  V30 6091 H 544.603 3.07276 -0.665501 0
M  V30 6092 N 548.375 1.56261 0.205012 0
M  V30 6093 C 549.6 1.84491 0.947512 0
M  V30 6094 C 550.025 0.650894 1.76479 0
M  V30 6095 O 549.383 -0.40035 1.76824 0
M  V30 6096 C 549.431 3.10863 1.82747 0
M  V30 6097 O 548.535 2.90719 2.925 0
M  V30 6098 H 547.876 0.607783 0.267386 0
M  V30 6099 H 550.406 2.03485 0.213323 0
M  V30 6100 H 550.416 3.41399 2.23407 0
M  V30 6101 H 549.091 3.97392 1.2269 0
M  V30 6102 H 547.668 2.71457 2.55667 0
M  V30 6103 N 549.853 -0.472356 1.50355 0
M  V30 6104 C 551.101 -1.22211 1.60962 0
M  V30 6105 C 551.422 -1.92497 0.311439 0
M  V30 6106 O 550.692 -1.8405 -0.671002 0
M  V30 6107 H 549.272 -0.454092 0.593135 0
M  V30 6108 H 551.934 -0.544977 1.87126 0
M  V30 6109 H 551.03 -1.9707 2.42012 0
M  V30 6110 N 551.331 -1.39911 -0.725443 0
M  V30 6111 C 552.577 -1.37858 -1.48738 0
M  V30 6112 C 552.91 0.0224187 -1.94187 0
M  V30 6113 O 552.185 0.989204 -1.67466 0
M  V30 6114 C 552.468 -2.3594 -2.72038 0
M  V30 6115 C 552.321 -3.85023 -2.32546 0
M  V30 6116 C 553.64 -2.31704 -3.74167 0
M  V30 6117 H 550.759 -0.502074 -0.539528 0
M  V30 6118 H 553.401 -1.70974 -0.828728 0
M  V30 6119 H 551.551 -2.0783 -3.28236 0
M  V30 6120 H 553.223 -4.2392 -1.81905 0
M  V30 6121 H 551.466 -4.01334 -1.64661 0
M  V30 6122 H 552.137 -4.49152 -3.20884 0
M  V30 6123 H 554.613 -2.5658 -3.27576 0
M  V30 6124 H 553.489 -3.02395 -4.58092 0
M  V30 6125 H 553.75 -1.3253 -4.21768 0
M  V30 6126 N 552.809 0.956637 -1.25245 0
M  V30 6127 C 553.719 2.0868 -1.0719 0
M  V30 6128 C 554.735 1.73997 -0.00959074 0
M  V30 6129 O 555.911 2.00301 -0.210104 0
M  V30 6130 C 552.976 3.39754 -0.690526 0
M  V30 6131 C 552.037 3.88316 -1.83055 0
M  V30 6132 C 551.27 5.13134 -1.46728 0
M  V30 6133 O 551.493 5.6925 -0.362029 0
M  V30 6134 O 550.427 5.56356 -2.29677 0
M  V30 6135 H 554.253 2.26813 -2.01965 0
M  V30 6136 H 551.838 1.07098 -1.04165 0
M  V30 6137 H 553.72 4.18543 -0.489871 0
M  V30 6138 H 552.395 3.22896 0.227981 0
M  V30 6139 H 551.302 3.1054 -2.08604 0
M  V30 6140 H 552.635 4.09669 -2.72822 0
M  V30 6141 N 554.287 1.06798 1.15896 0
M  V30 6142 C 555.197 0.694564 2.24083 0
M  V30 6143 C 556.213 -0.291687 1.71538 0
M  V30 6144 O 557.389 -0.139723 2.00915 0
M  V30 6145 C 554.454 0.0921014 3.46578 0
M  V30 6146 C 553.515 1.13087 4.14137 0
M  V30 6147 C 552.748 0.557064 5.30785 0
M  V30 6148 O 552.971 -0.628623 5.66925 0
M  V30 6149 O 551.905 1.29924 5.8771 0
M  V30 6150 H 555.731 1.59663 2.58344 0
M  V30 6151 H 553.316 0.840575 1.2351 0
M  V30 6152 H 555.198 -0.241884 4.20705 0
M  V30 6153 H 553.873 -0.78337 3.14078 0
M  V30 6154 H 552.78 1.51712 3.41957 0
M  V30 6155 H 554.113 1.97805 4.50704 0
M  V30 6156 N 555.766 -1.3263 0.851289 0
M  V30 6157 C 557.015 -1.96633 0.449267 0
M  V30 6158 C 557.328 -1.68131 -0.999562 0
M  V30 6159 O 558.534 -2.25845 -1.50685 0
M  V30 6160 C 556.99 -3.51946 0.752446 0
M  V30 6161 C 556.598 -3.89311 2.21678 0
M  V30 6162 C 558.342 -4.22437 0.417983 0
M  V30 6163 C 556.249 -5.37655 2.46336 0
M  V30 6164 H 555.179 -0.735888 0.164269 0
M  V30 6165 H 557.83 -1.51073 1.0416 0
M  V30 6166 H 556.212 -3.95899 0.0895858 0
M  V30 6167 H 557.386 -3.56378 2.92115 0
M  V30 6168 H 555.701 -3.31836 2.51543 0
M  V30 6169 H 558.298 -5.31549 0.579674 0
M  V30 6170 H 558.641 -4.11349 -0.640115 0
M  V30 6171 H 559.174 -3.84057 1.03659 0
M  V30 6172 H 555.913 -5.5376 3.50757 0
M  V30 6173 H 555.433 -5.72005 1.80473 0
M  V30 6174 H 557.112 -6.04695 2.30115 0
M  V30 6175 N 557.244 -0.608902 -1.45362 0
M  V30 6176 C 558.191 0.109172 -2.30542 0
M  V30 6177 C 559.161 0.858704 -1.42181 0
M  V30 6178 O 560.346 0.844178 -1.71109 0
M  V30 6179 C 557.486 1.09971 -3.27109 0
M  V30 6180 C 556.599 0.350911 -4.30572 0
M  V30 6181 C 555.734 1.33129 -5.14247 0
M  V30 6182 C 554.773 0.570377 -6.09437 0
M  V30 6183 N 553.91 1.5001 -6.85887 0
M  V30 6184 H 558.75 -0.623195 -2.91411 0
M  V30 6185 H 556.287 -0.319122 -1.43597 0
M  V30 6186 H 558.245 1.68714 -3.81564 0
M  V30 6187 H 556.875 1.79947 -2.67991 0
M  V30 6188 H 555.927 -0.352054 -3.78767 0
M  V30 6189 H 557.239 -0.242725 -4.98209 0
M  V30 6190 H 556.393 1.99074 -5.73109 0
M  V30 6191 H 555.132 1.95885 -4.46632 0
M  V30 6192 H 554.137 -0.102702 -5.49704 0
M  V30 6193 H 555.362 -0.0521607 -6.7908 0
M  V30 6194 H 553.308 2.11529 -6.2096 0
M  V30 6195 H 553.225 0.959934 -7.49881 0
M  V30 6196 H 554.493 2.14909 -7.49289 0
M  V30 6197 N 558.722 1.53707 -0.348139 0
M  V30 6198 C 559.97 2.00591 0.246478 0
M  V30 6199 C 560.291 1.23753 1.50699 0
M  V30 6200 O 559.561 0.345964 1.92821 0
M  V30 6201 H 558.141 0.741053 0.0940679 0
M  V30 6202 H 560.803 1.89139 -0.470354 0
M  V30 6203 H 559.899 3.08297 0.485714 0
M  V30 6204 N 560.2 0.0768682 1.57412 0
M  V30 6205 C 561.15 -0.898795 2.09537 0
M  V30 6206 C 562.134 -1.25556 1.0062 0
M  V30 6207 O 563.326 -1.23369 1.26921 0
M  V30 6208 C 560.455 -2.16453 2.66464 0
M  V30 6209 C 559.541 -1.83401 3.82393 0
M  V30 6210 N 559.932 -1.20823 4.91157 0
M  V30 6211 C 558.23 -2.13121 3.91785 0
M  V30 6212 C 558.931 -1.05976 5.71965 0
M  V30 6213 N 557.907 -1.57113 5.204 0
M  V30 6214 H 561.709 -0.410718 2.91016 0
M  V30 6215 H 559.223 -0.126878 1.61904 0
M  V30 6216 H 561.22 -2.87274 3.02125 0
M  V30 6217 H 559.88 -2.65844 1.86433 0
M  V30 6218 H 560.891 -0.877249 5.10416 0
M  V30 6219 H 557.568 -2.64854 3.22736 0
M  V30 6220 H 558.958 -0.571809 6.69462 0
M  V30 6221 N 561.678 -1.56367 -0.196722 0
M  V30 6222 C 563.089 -1.70462 -0.761545 0
M  V30 6223 C 563.44 -0.683161 -1.83922 0
M  V30 6224 O 562.565 0.160753 -2.15802 0
M  V30 6225 C 563.16 -3.09057 -1.38814 0
M  V30 6226 C 561.719 -3.24922 -1.90007 0
M  V30 6227 C 560.866 -2.66412 -0.769399 0
M  V30 6228 H 563.817 -1.58675 0.0283263 0
M  V30 6229 H 563.838 -3.06296 -2.2575 0
M  V30 6230 H 563.35 -3.83378 -0.603559 0
M  V30 6231 H 561.451 -2.55514 -2.71189 0
M  V30 6232 H 561.564 -4.3241 -2.06297 0
M  V30 6233 H 559.928 -2.25546 -1.18326 0
M  V30 6234 H 560.711 -3.433 0.00291773 0
M  V30 6235 N 563.156 0.464375 -1.50603 0
M  V30 6236 C 564.403 1.21596 -1.61928 0
M  V30 6237 C 564.731 1.91804 -0.322737 0
M  V30 6238 O 563.986 1.83065 0.691776 0
M  V30 6239 C 564.285 2.278 -2.75394 0
M  V30 6240 C 563.951 1.74797 -4.1564 0
M  V30 6241 C 562.613 1.60063 -4.53799 0
M  V30 6242 C 564.965 1.35548 -5.03266 0
M  V30 6243 C 562.293 1.04514 -5.77316 0
M  V30 6244 C 564.645 0.814381 -6.27336 0
M  V30 6245 C 563.309 0.653726 -6.64291 0
M  V30 6246 H 562.579 0.444951 -0.592536 0
M  V30 6247 H 565.226 0.510964 -1.84557 0
M  V30 6248 H 563.531 3.04233 -2.46879 0
M  V30 6249 H 565.228 2.85723 -2.81359 0
M  V30 6250 H 561.818 1.87234 -3.8554 0
M  V30 6251 H 566.002 1.45763 -4.74412 0
M  V30 6252 H 561.258 0.908186 -6.04617 0
M  V30 6253 H 565.432 0.501626 -6.94591 0
M  V30 6254 H 563.059 0.22114 -7.59878 0
M  V30 6255 N 564.634 1.40294 0.718013 0
M  V30 6256 C 565.881 1.3844 1.47786 0
M  V30 6257 C 566.209 -0.0140838 1.94495 0
M  V30 6258 O 565.464 -0.998165 1.68331 0
M  V30 6259 C 565.763 2.31814 2.72024 0
M  V30 6260 C 565.429 3.79117 2.44093 0
M  V30 6261 C 564.091 4.19249 2.36185 0
M  V30 6262 C 566.443 4.72212 2.20602 0
M  V30 6263 C 563.771 5.50516 2.02851 0
M  V30 6264 C 566.123 6.03775 1.88781 0
M  V30 6265 C 564.787 6.42953 1.79354 0
M  V30 6266 H 564.057 0.506588 0.540786 0
M  V30 6267 H 566.704 1.72929 0.822663 0
M  V30 6268 H 565.009 1.90501 3.42369 0
M  V30 6269 H 566.706 2.27664 3.30106 0
M  V30 6270 H 563.296 3.47318 2.51133 0
M  V30 6271 H 567.48 4.42026 2.25669 0
M  V30 6272 H 562.736 5.79776 1.94088 0
M  V30 6273 H 566.91 6.75428 1.69617 0
M  V30 6274 H 564.537 7.44584 1.53291 0
M  V30 6275 N 566.112 -0.949982 1.2575 0
M  V30 6276 C 567.022 -2.08109 1.08295 0
M  V30 6277 C 568.038 -1.7399 0.0188181 0
M  V30 6278 O 569.214 -2.00187 0.220724 0
M  V30 6279 C 566.279 -3.39383 0.708534 0
M  V30 6280 C 565.34 -3.8734 1.85111 0
M  V30 6281 C 564.573 -5.12349 1.49447 0
M  V30 6282 O 564.796 -5.6905 0.392212 0
M  V30 6283 O 563.73 -5.5513 2.32624 0
M  V30 6284 H 567.556 -2.25738 2.03165 0
M  V30 6285 H 565.141 -1.06545 1.04731 0
M  V30 6286 H 567.023 -4.18277 0.512061 0
M  V30 6287 H 565.698 -3.23013 -0.210854 0
M  V30 6288 H 564.605 -3.09429 2.10248 0
M  V30 6289 H 565.938 -4.08216 2.74991 0
M  V30 6290 N 567.59 -1.07411 -1.15328 0
M  V30 6291 C 568.838 -0.796073 -1.85761 0
M  V30 6292 C 569.159 0.679864 -1.82764 0
M  V30 6293 O 568.429 1.49242 -1.269 0
M  V30 6294 H 567.009 -0.291495 -0.687779 0
M  V30 6295 H 569.671 -1.35799 -1.39802 0
M  V30 6296 H 568.767 -1.13114 -2.90881 0
M  V30 6297 N 569.068 1.32177 -0.85831 0
M  V30 6298 C 570.314 1.97417 -0.46417 0
M  V30 6299 C 570.647 1.67746 0.978514 0
M  V30 6300 O 569.922 0.967654 1.68721 0
M  V30 6301 C 570.205 3.53069 -0.708094 0
M  V30 6302 C 570.058 3.92357 -2.19946 0
M  V30 6303 C 571.377 4.39783 -0.166881 0
M  V30 6304 H 568.496 0.717097 -0.17012 0
M  V30 6305 H 571.138 1.56499 -1.07741 0
M  V30 6306 H 569.288 3.88054 -0.186128 0
M  V30 6307 H 570.96 3.67533 -2.78779 0
M  V30 6308 H 569.203 3.41384 -2.67656 0
M  V30 6309 H 569.874 5.00841 -2.32082 0
M  V30 6310 H 572.35 4.11556 -0.613285 0
M  V30 6311 H 571.226 5.47671 -0.367093 0
M  V30 6312 H 571.487 4.32196 0.930559 0
M  V30 6313 N 570.547 0.616602 1.45037 0
M  V30 6314 C 571.824 0.0469086 1.95544 0
M  V30 6315 C 572.204 -1.42345 1.55888 0
M  V30 6316 O 571.552 -2.13055 0.825824 0
M  V30 6317 C 571.762 0.254489 3.48071 0
M  V30 6318 C 573.11 0.140025 4.24369 0
M  V30 6319 O 574.134 0.185084 3.55719 0
M  V30 6320 O 572.993 0.0327034 5.4649 0
M  V30 6321 H 570.087 -0.0306051 0.826433 0
M  V30 6322 H 572.633 0.687293 1.55159 0
M  V30 6323 H 571.405 1.27532 3.69934 0
M  V30 6324 H 571.028 -0.42073 3.95368 0
M  V30 6325 N 572.025 -1.5352 0.356285 0
M  V30 6326 C 573.271 -2.02104 -0.229271 0
M  V30 6327 C 573.626 -1.23923 -1.47176 0
M  V30 6328 O 572.919 -0.321957 -1.88876 0
M  V30 6329 C 573.113 -3.52607 -0.583369 0
M  V30 6330 C 572.942 -4.4536 0.623253 0
M  V30 6331 C 571.712 -4.92446 1.13248 0
M  V30 6332 C 573.91 -4.92375 1.48563 0
M  V30 6333 N 571.892 -5.69183 2.3001 0
M  V30 6334 C 573.263 -5.67362 2.50001 0
M  V30 6335 C 575.318 -4.74464 1.50959 0
M  V30 6336 C 574.021 -6.26341 3.5368 0
M  V30 6337 C 576.047 -5.34302 2.53526 0
M  V30 6338 C 575.409 -6.09166 3.53688 0
M  V30 6339 H 571.508 -0.780595 -0.0468602 0
M  V30 6340 H 574.092 -1.88204 0.49873 0
M  V30 6341 H 572.263 -3.66686 -1.28046 0
M  V30 6342 H 573.995 -3.87922 -1.15321 0
M  V30 6343 H 570.75 -4.6842 0.698562 0
M  V30 6344 H 571.174 -6.12216 2.88998 0
M  V30 6345 H 575.816 -4.16117 0.748785 0
M  V30 6346 H 573.534 -6.8379 4.30648 0
M  V30 6347 H 577.12 -5.22342 2.56223 0
M  V30 6348 H 576 -6.54644 4.31753 0
M  V30 6349 N 573.503 -0.0852151 -1.57369 0
M  V30 6350 C 574.413 0.891712 -2.16992 0
M  V30 6351 C 575.429 1.3174 -1.13669 0
M  V30 6352 O 576.605 1.38735 -1.45995 0
M  V30 6353 C 573.67 2.13635 -2.73059 0
M  V30 6354 C 572.731 1.7658 -3.91303 0
M  V30 6355 C 571.964 2.95111 -4.44686 0
M  V30 6356 O 572.187 4.09539 -3.97032 0
M  V30 6357 O 571.121 2.74149 -5.35841 0
M  V30 6358 H 574.947 0.414477 -3.00858 0
M  V30 6359 H 572.532 0.138598 -1.48756 0
M  V30 6360 H 574.414 2.86595 -3.08935 0
M  V30 6361 H 573.089 2.6043 -1.92244 0
M  V30 6362 H 571.996 1.00831 -3.60255 0
M  V30 6363 H 573.329 1.34557 -4.7345 0
M  V30 6364 N 574.981 1.5647 0.188427 0
M  V30 6365 C 575.931 1.91479 1.23774 0
M  V30 6366 C 576.915 0.78119 1.40664 0
M  V30 6367 O 578.107 1.04414 1.42922 0
M  V30 6368 C 575.236 2.26354 2.58106 0
M  V30 6369 C 574.322 3.46186 2.44981 0
M  V30 6370 N 574.713 4.63911 2.01546 0
M  V30 6371 C 573.011 3.50456 2.75856 0
M  V30 6372 C 573.712 5.46064 2.00472 0
M  V30 6373 N 572.688 4.86648 2.42229 0
M  V30 6374 H 576.49 2.79994 0.893339 0
M  V30 6375 H 574.004 1.57477 0.39682 0
M  V30 6376 H 576.001 2.49622 3.33908 0
M  V30 6377 H 574.661 1.39168 2.93364 0
M  V30 6378 H 575.672 4.88451 1.7215 0
M  V30 6379 H 572.349 2.73704 3.15265 0
M  V30 6380 H 573.739 6.50368 1.68734 0
M  V30 6381 N 576.459 -0.456382 1.50847 0
M  V30 6382 C 577.708 -1.2042 1.61808 0
M  V30 6383 C 578.021 -1.9278 0.330932 0
M  V30 6384 O 579.227 -2.69612 0.319643 0
M  V30 6385 C 577.683 -2.18891 2.85683 0
M  V30 6386 C 577.291 -1.52267 4.2133 0
M  V30 6387 C 579.035 -2.94224 3.05994 0
M  V30 6388 C 576.942 -2.4911 5.36375 0
M  V30 6389 H 575.872 -0.453177 0.602616 0
M  V30 6390 H 578.523 -0.473144 1.77295 0
M  V30 6391 H 576.905 -2.95351 2.63787 0
M  V30 6392 H 578.079 -0.814949 4.53536 0
M  V30 6393 H 576.394 -0.891594 4.06743 0
M  V30 6394 H 578.991 -3.66732 3.89117 0
M  V30 6395 H 579.334 -3.54469 2.18306 0
M  V30 6396 H 579.867 -2.24874 3.28141 0
M  V30 6397 H 576.606 -1.93582 6.26264 0
M  V30 6398 H 576.126 -3.17991 5.08569 0
M  V30 6399 H 577.805 -3.10637 5.67551 0
M  V30 6400 N 577.937 -1.40673 -0.710563 0
M  V30 6401 C 579.353 -1.22813 -1.01928 0
M  V30 6402 C 579.553 -0.10687 -2.01216 0
M  V30 6403 O 578.609 0.533614 -2.46797 0
M  V30 6404 C 579.922 -2.57178 -1.5582 0
M  V30 6405 C 581.47 -2.64233 -1.67779 0
M  V30 6406 C 581.945 -3.98879 -2.25076 0
M  V30 6407 N 583.436 -4.00647 -2.32456 0
M  V30 6408 C 584.171 -5.01621 -2.77784 0
M  V30 6409 N 583.667 -6.12989 -3.22826 0
M  V30 6410 N 585.46 -4.88988 -2.77213 0
M  V30 6411 H 577.611 -2.12335 -0.05253 0
M  V30 6412 H 579.874 -0.9441 -0.085898 0
M  V30 6413 H 579.58 -3.39903 -0.903249 0
M  V30 6414 H 579.454 -2.78618 -2.54267 0
M  V30 6415 H 581.841 -1.81876 -2.3239 0
M  V30 6416 H 581.922 -2.46619 -0.679178 0
M  V30 6417 H 581.566 -4.81678 -1.61086 0
M  V30 6418 H 581.496 -4.13826 -3.25661 0
M  V30 6419 H 583.987 -3.20231 -2.0065 0
M  V30 6420 H 584.3 -6.85921 -3.55995 0
M  V30 6421 H 582.645 -6.16547 -3.20773 0
M  V30 6422 H 585.836 -4.01075 -2.41363 0
M  V30 6423 H 586.009 -5.67822 -3.12221 0
M  V30 6424 N 579.415 0.9433 -1.26252 0
M  V30 6425 C 580.325 2.07532 -1.09397 0
M  V30 6426 C 581.341 1.73977 -0.0280449 0
M  V30 6427 O 582.517 2.00067 -0.231337 0
M  V30 6428 C 579.582 3.39002 -0.726523 0
M  V30 6429 C 578.643 3.86353 -1.87163 0
M  V30 6430 C 577.876 5.11549 -1.52162 0
M  V30 6431 O 578.099 5.68834 -0.422385 0
M  V30 6432 O 577.033 5.53889 -2.35565 0
M  V30 6433 H 580.859 2.24658 -2.04359 0
M  V30 6434 H 578.444 1.05988 -1.05295 0
M  V30 6435 H 580.326 4.18 -0.534236 0
M  V30 6436 H 579.001 3.2312 0.193721 0
M  V30 6437 H 577.908 3.0831 -2.11886 0
M  V30 6438 H 579.241 4.06752 -2.77152 0
M  V30 6439 N 580.893 1.08022 1.14757 0
M  V30 6440 C 582.309 0.807072 1.3769 0
M  V30 6441 C 582.509 -0.585504 1.92806 0
M  V30 6442 O 581.565 -1.34301 2.13821 0
M  V30 6443 C 582.878 1.88651 2.34161 0
M  V30 6444 C 584.426 1.91206 2.47809 0
M  V30 6445 C 584.901 2.98253 3.47576 0
M  V30 6446 N 586.392 2.974 3.55117 0
M  V30 6447 C 587.127 3.76872 4.32152 0
M  V30 6448 N 586.623 4.66212 5.12463 0
M  V30 6449 N 588.416 3.6519 4.27309 0
M  V30 6450 H 580.567 1.97824 0.77326 0
M  V30 6451 H 582.83 0.85826 0.402608 0
M  V30 6452 H 582.536 2.88749 2.00791 0
M  V30 6453 H 582.41 1.75244 3.3402 0
M  V30 6454 H 584.797 0.917564 2.80472 0
M  V30 6455 H 584.878 2.08691 1.47925 0
M  V30 6456 H 584.522 3.97907 3.15646 0
M  V30 6457 H 584.452 2.78014 4.47231 0
M  V30 6458 H 586.943 2.32643 2.97801 0
M  V30 6459 H 587.256 5.23468 5.68508 0
M  V30 6460 H 585.601 4.70257 5.11745 0
M  V30 6461 H 588.792 2.94765 3.63636 0
M  V30 6462 H 588.965 4.27366 4.87095 0
M  V30 6463 N 582.371 -1.3172 0.865308 0
M  V30 6464 C 583.782 -1.79104 0.527126 0
M  V30 6465 C 584.133 -1.7135 -0.955695 0
M  V30 6466 O 583.258 -1.27845 -1.74598 0
M  V30 6467 C 583.853 -3.25207 0.950061 0
M  V30 6468 C 582.412 -3.70504 0.663611 0
M  V30 6469 C 581.559 -2.52605 1.14395 0
M  V30 6470 H 584.51 -1.18868 1.05148 0
M  V30 6471 H 584.531 -3.79535 0.270805 0
M  V30 6472 H 584.043 -3.30818 2.02931 0
M  V30 6473 H 582.144 -3.70398 -0.404474 0
M  V30 6474 H 582.257 -4.62845 1.23737 0
M  V30 6475 H 580.621 -2.4838 0.563859 0
M  V30 6476 H 581.404 -2.60964 2.23053 0
M  V30 6477 N 583.85 -0.624285 -1.44708 0
M  V30 6478 C 584.812 0.0749638 -2.29077 0
M  V30 6479 C 585.812 0.778965 -1.40673 0
M  V30 6480 O 587.003 0.624591 -1.62618 0
M  V30 6481 C 584.135 1.11663 -3.22094 0
M  V30 6482 H 585.327 -0.667013 -2.92388 0
M  V30 6483 H 582.88 -0.384098 -1.51507 0
M  V30 6484 H 583.615 1.88881 -2.63618 0
M  V30 6485 H 583.401 0.61583 -3.87234 0
M  V30 6486 H 584.891 1.60585 -3.8549 0
M  V30 6487 N 585.328 1.53329 -0.364422 0
M  V30 6488 C 586.291 2.24323 0.470292 0
M  V30 6489 C 587.291 1.25068 1.01067 0
M  V30 6490 O 588.481 1.49354 0.896605 0
M  V30 6491 C 585.613 2.97908 1.65722 0
M  V30 6492 H 586.806 2.9952 -0.150917 0
M  V30 6493 H 584.359 1.55868 -0.116092 0
M  V30 6494 H 585.094 2.2695 2.31655 0
M  V30 6495 H 584.879 3.70732 1.27671 0
M  V30 6496 H 586.369 3.5188 2.24878 0
M  V30 6497 N 586.806 0.0935595 1.57322 0
M  V30 6498 C 588.055 -0.570191 1.93473 0
M  V30 6499 C 588.368 -1.69434 0.977318 0
M  V30 6500 O 589.574 -2.41914 1.23248 0
M  V30 6501 C 588.03 -1.06564 3.43762 0
M  V30 6502 C 587.638 0.0286723 4.47991 0
M  V30 6503 C 589.382 -1.70221 3.88877 0
M  V30 6504 C 587.289 -0.482046 5.89432 0
M  V30 6505 H 586.219 -0.216764 0.72217 0
M  V30 6506 H 588.87 0.169313 1.82717 0
M  V30 6507 H 587.252 -1.85878 3.49664 0
M  V30 6508 H 588.426 0.804106 4.5373 0
M  V30 6509 H 586.741 0.570336 4.12476 0
M  V30 6510 H 589.338 -2.09502 4.91948 0
M  V30 6511 H 589.681 -2.57078 3.27439 0
M  V30 6512 H 590.214 -0.974919 3.85668 0
M  V30 6513 H 586.953 0.349871 6.54566 0
M  V30 6514 H 586.473 -1.22452 5.87167 0
M  V30 6515 H 588.152 -0.951508 6.39965 0
M  V30 6516 N 588.284 -1.56567 -0.180126 0
M  V30 6517 C 589.695 -1.7126 -0.743422 0
M  V30 6518 C 590.046 -0.70263 -1.83187 0
M  V30 6519 O 589.171 0.137856 -2.1596 0
M  V30 6520 C 589.766 -3.10512 -1.35528 0
M  V30 6521 C 588.325 -3.26919 -1.8655 0
M  V30 6522 C 587.472 -2.67213 -0.741099 0
M  V30 6523 H 590.423 -1.58636 0.0451543 0
M  V30 6524 H 590.444 -3.08673 -2.22489 0
M  V30 6525 H 589.956 -3.83997 -0.562862 0
M  V30 6526 H 588.057 -2.58376 -2.68464 0
M  V30 6527 H 588.17 -4.34574 -2.01699 0
M  V30 6528 H 586.534 -2.26788 -1.15927 0
M  V30 6529 H 587.317 -3.43277 0.0393291 0
M  V30 6530 N 589.762 0.448376 -1.51087 0
M  V30 6531 C 591.011 1.19561 -1.62444 0
M  V30 6532 C 591.324 1.92602 -0.341151 0
M  V30 6533 O 592.53 2.69439 -0.333936 0
M  V30 6534 C 590.986 2.17373 -2.8684 0
M  V30 6535 C 590.594 1.5003 -4.22131 0
M  V30 6536 C 592.338 2.92597 -3.0755 0
M  V30 6537 C 590.245 2.46262 -5.37689 0
M  V30 6538 H 589.175 0.449975 -0.605011 0
M  V30 6539 H 591.826 0.463735 -1.77544 0
M  V30 6540 H 590.208 2.93948 -2.65349 0
M  V30 6541 H 591.382 0.790886 -4.53962 0
M  V30 6542 H 589.697 0.870011 -4.0721 0
M  V30 6543 H 592.294 3.64663 -3.91056 0
M  V30 6544 H 592.637 3.53306 -2.20183 0
M  V30 6545 H 593.17 2.23131 -3.29329 0
M  V30 6546 H 589.909 1.90258 -6.27281 0
M  V30 6547 H 589.429 3.15289 -5.10248 0
M  V30 6548 H 591.108 3.07623 -5.6919 0
M  V30 6549 N 591.24 1.41047 0.703093 0
M  V30 6550 C 592.15 1.44645 1.84703 0
M  V30 6551 C 593.166 0.337778 1.7069 0
M  V30 6552 O 594.342 0.584327 1.92737 0
M  V30 6553 C 591.407 1.31928 3.20618 0
M  V30 6554 C 590.468 2.53047 3.46794 0
M  V30 6555 C 589.701 2.40927 4.76224 0
M  V30 6556 O 589.924 1.42978 5.5219 0
M  V30 6557 O 588.858 3.30543 5.03016 0
M  V30 6558 H 592.684 2.41139 1.84624 0
M  V30 6559 H 590.269 1.22504 0.855167 0
M  V30 6560 H 592.151 1.27092 4.01778 0
M  V30 6561 H 590.826 0.385469 3.21397 0
M  V30 6562 H 589.733 2.6346 2.65593 0
M  V30 6563 H 591.066 3.45231 3.50822 0
M  V30 6564 N 592.718 -0.936591 1.26751 0
M  V30 6565 C 593.967 -1.67778 1.11953 0
M  V30 6566 C 594.28 -1.92694 -0.33589 0
M  V30 6567 O 595.486 -2.64682 -0.604618 0
M  V30 6568 C 593.942 -3.02138 1.95551 0
M  V30 6569 C 593.55 -2.84953 3.45696 0
M  V30 6570 C 595.294 -3.79917 1.89377 0
M  V30 6571 C 593.201 -4.14814 4.21525 0
M  V30 6572 H 592.131 -0.629275 0.415366 0
M  V30 6573 H 594.782 -1.04122 1.51099 0
M  V30 6574 H 593.164 -3.668 1.49243 0
M  V30 6575 H 594.338 -2.29112 3.99805 0
M  V30 6576 H 592.653 -2.20612 3.53156 0
M  V30 6577 H 595.25 -4.76134 2.43312 0
M  V30 6578 H 595.593 -4.07204 0.865464 0
M  V30 6579 H 596.126 -3.22037 2.33532 0
M  V30 6580 H 592.865 -3.92709 5.24843 0
M  V30 6581 H 592.385 -4.70352 3.72195 0
M  V30 6582 H 594.064 -4.83239 4.3022 0
M  V30 6583 N 594.196 -1.08629 -1.14182 0
M  V30 6584 C 595.143 -0.718299 -2.19338 0
M  V30 6585 C 596.113 0.296587 -1.63431 0
M  V30 6586 O 597.298 0.180079 -1.89948 0
M  V30 6587 C 594.438 -0.136203 -3.44831 0
M  V30 6588 C 593.551 -1.20414 -4.14879 0
M  V30 6589 C 592.686 -0.585666 -5.27962 0
M  V30 6590 C 591.725 -1.63548 -5.89846 0
M  V30 6591 N 590.862 -1.03864 -6.94375 0
M  V30 6592 H 595.702 -1.61932 -2.50164 0
M  V30 6593 H 593.239 -0.80919 -1.22844 0
M  V30 6594 H 595.197 0.219021 -4.16625 0
M  V30 6595 H 593.827 0.728121 -3.14481 0
M  V30 6596 H 592.879 -1.67676 -3.41451 0
M  V30 6597 H 594.191 -1.99959 -4.56966 0
M  V30 6598 H 593.345 -0.178818 -6.06436 0
M  V30 6599 H 592.084 0.24142 -4.87102 0
M  V30 6600 H 591.089 -2.05197 -5.10073 0
M  V30 6601 H 592.314 -2.46509 -6.3278 0
M  V30 6602 H 590.26 -0.232687 -6.55587 0
M  V30 6603 H 590.177 -1.77116 -7.3496 0
M  V30 6604 H 591.445 -0.657724 -7.7672 0
M  V30 6605 N 595.674 1.31259 -0.872281 0
M  V30 6606 C 596.899 2.0133 -0.498099 0
M  V30 6607 C 597.324 1.65031 0.902568 0
M  V30 6608 O 596.682 0.860164 1.59596 0
M  V30 6609 C 596.73 3.54411 -0.665205 0
M  V30 6610 O 595.834 4.11347 0.294473 0
M  V30 6611 H 595.175 0.633844 -0.197832 0
M  V30 6612 H 597.705 1.67402 -1.17633 0
M  V30 6613 H 597.715 4.04147 -0.559373 0
M  V30 6614 H 596.39 3.80171 -1.68651 0
M  V30 6615 H 594.967 3.72624 0.143403 0
M  V30 6616 N 597.152 0.631951 1.44375 0
M  V30 6617 C 598.401 0.134214 2.01253 0
M  V30 6618 C 598.714 -1.25171 1.50305 0
M  V30 6619 O 599.92 -1.8435 1.99317 0
M  V30 6620 C 598.376 0.189187 3.59402 0
M  V30 6621 C 597.984 1.57647 4.19346 0
M  V30 6622 C 599.728 -0.252044 4.23751 0
M  V30 6623 C 597.635 1.58651 5.69722 0
M  V30 6624 H 596.565 0.0464101 0.75257 0
M  V30 6625 H 599.216 0.790868 1.65582 0
M  V30 6626 H 597.598 -0.534584 3.92375 0
M  V30 6627 H 598.772 2.32389 3.97909 0
M  V30 6628 H 597.087 1.96186 3.67288 0
M  V30 6629 H 599.684 -0.264084 5.34047 0
M  V30 6630 H 600.027 -1.27951 3.96149 0
M  V30 6631 H 600.56 0.41926 3.95584 0
M  V30 6632 H 597.299 2.59237 6.0206 0
M  V30 6633 H 596.819 0.882039 5.93279 0
M  V30 6634 H 598.498 1.32082 6.33375 0
M  V30 6635 N 598.631 -1.53133 0.372548 0
M  V30 6636 C 599.908 -1.93704 -0.271693 0
M  V30 6637 C 600.288 -1.30667 -1.65799 0
M  V30 6638 O 599.636 -0.46838 -2.23648 0
M  V30 6639 C 599.846 -3.47576 -0.314903 0
M  V30 6640 C 601.194 -4.20998 -0.551912 0
M  V30 6641 O 602.218 -3.53994 -0.39582 0
M  V30 6642 O 601.077 -5.39748 -0.85639 0
M  V30 6643 H 598.171 -0.810457 -0.164586 0
M  V30 6644 H 600.717 -1.6427 0.425838 0
M  V30 6645 H 599.489 -3.85749 0.656792 0
M  V30 6646 H 599.112 -3.83264 -1.05804 0
M  V30 6647 N 600.109 -0.101901 -1.5727 0
M  V30 6648 C 601.386 0.602832 -1.86079 0
M  V30 6649 C 601.766 1.85912 -1 0
M  V30 6650 O 601.114 2.28379 -0.0742488 0
M  V30 6651 C 601.324 0.911694 -3.36881 0
M  V30 6652 C 602.672 1.2722 -4.05093 0
M  V30 6653 O 603.696 1.0025 -3.41802 0
M  V30 6654 O 602.555 1.7776 -5.16782 0
M  V30 6655 H 599.649 0.302366 -0.769743 0
M  V30 6656 H 602.195 -0.135113 -1.69161 0
M  V30 6657 H 600.967 0.0207256 -3.91295 0
M  V30 6658 H 600.59 1.70538 -3.59169 0
M  V30 6659 N 601.587 1.56661 0.17182 0
M  V30 6660 C 602.815 1.861 0.904115 0
M  V30 6661 C 603.23 0.687227 1.75848 0
M  V30 6662 O 602.587 -0.343671 1.79235 0
M  V30 6663 C 602.638 3.14568 1.78127 0
M  V30 6664 O 602.359 4.27422 0.961366 0
M  V30 6665 C 603.86 3.5735 2.62327 0
M  V30 6666 H 601.08 0.617445 0.262684 0
M  V30 6667 H 603.624 2.03775 0.172068 0
M  V30 6668 H 601.779 2.98721 2.46666 0
M  V30 6669 H 602.193 5.00725 1.56123 0
M  V30 6670 H 603.667 4.50144 3.1949 0
M  V30 6671 H 604.144 2.81445 3.37173 0
M  V30 6672 H 604.75 3.75807 1.99121 0
M  V30 6673 N 603.065 -0.440357 1.51323 0
M  V30 6674 C 604.29 -1.21716 1.67928 0
M  V30 6675 C 604.715 -1.84328 0.374826 0
M  V30 6676 O 604.073 -1.68675 -0.664706 0
M  V30 6677 C 604.121 -2.27914 2.79442 0
M  V30 6678 O 603.225 -3.33325 2.42834 0
M  V30 6679 H 602.566 -0.35674 0.560029 0
M  V30 6680 H 605.096 -0.520417 1.97871 0
M  V30 6681 H 605.106 -2.72746 3.03436 0
M  V30 6682 H 603.781 -1.8172 3.741 0
M  V30 6683 H 602.358 -2.9399 2.294 0
M  V30 6684 N 604.543 -1.41418 -0.695603 0
M  V30 6685 C 605.491 -1.43467 -1.83084 0
M  V30 6686 C 606.485 -0.312719 -1.66489 0
M  V30 6687 O 607.691 -0.484744 -1.7335 0
M  V30 6688 H 604.066 -0.448891 -0.603325 0
M  V30 6689 H 606.037 -2.39144 -1.78473 0
M  V30 6690 C 604.786 -1.3337 -3.21104 0
M  V30 6691 H 604.109 -2.18989 -3.3449 0
M  V30 6692 H 605.549 -1.38865 -4.00615 0
M  V30 6693 C 604.008 -0.0460484 -3.36869 0
M  V30 6694 O 604.538 0.909258 -3.91274 0
M  V30 6695 N 602.744 0.0300222 -2.90584 0
M  V30 6696 H 602.291 -0.748129 -2.46497 0
M  V30 6697 H 602.249 0.890991 -3.01511 0
M  V30 6698 N 606.021 0.929856 -1.27246 0
M  V30 6699 C 607.268 1.67731 -1.13457 0
M  V30 6700 C 607.596 1.9185 0.319998 0
M  V30 6701 O 606.851 1.50524 1.25064 0
M  V30 6702 C 607.15 3.05116 -1.86115 0
M  V30 6703 C 606.816 3.00715 -3.35978 0
M  V30 6704 C 605.478 2.99222 -3.76855 0
M  V30 6705 C 607.83 2.92168 -4.3161 0
M  V30 6706 C 605.158 2.86962 -5.11732 0
M  V30 6707 C 607.51 2.81449 -5.66542 0
M  V30 6708 C 606.174 2.78305 -6.06715 0
M  V30 6709 H 605.444 0.613772 -0.415168 0
M  V30 6710 H 608.091 1.08456 -1.57827 0
M  V30 6711 H 606.396 3.68083 -1.34246 0
M  V30 6712 H 608.093 3.61822 -1.72876 0
M  V30 6713 H 604.683 3.02664 -3.03468 0
M  V30 6714 H 608.867 2.92421 -4.01003 0
M  V30 6715 H 604.123 2.82913 -5.42006 0
M  V30 6716 H 608.297 2.738 -6.40317 0
M  V30 6717 H 605.924 2.68561 -7.11181 0
M  V30 6718 N 607.499 1.09233 1.13605 0
M  V30 6719 C 608.776 0.739633 1.81077 0
M  V30 6720 C 609.156 -0.775595 1.96336 0
M  V30 6721 O 608.504 -1.69726 1.52988 0
M  V30 6722 C 608.714 1.47636 3.16235 0
M  V30 6723 C 610.062 1.64087 3.91613 0
M  V30 6724 O 611.086 1.43871 3.25852 0
M  V30 6725 O 609.945 1.97511 5.0956 0
M  V30 6726 H 607.039 0.265464 0.783236 0
M  V30 6727 H 609.585 1.19441 1.20549 0
M  V30 6728 H 608.357 2.50818 3.00344 0
M  V30 6729 H 607.98 1.01362 3.84462 0
M  V30 6730 N 608.977 -1.30795 0.87923 0
M  V30 6731 C 610.254 -1.91145 0.415086 0
M  V30 6732 C 610.634 -1.7995 -1.10368 0
M  V30 6733 O 609.982 -1.21305 -1.93642 0
M  V30 6734 C 610.192 -3.37014 0.906778 0
M  V30 6735 C 611.54 -4.14101 0.938358 0
M  V30 6736 O 612.564 -3.45834 0.853053 0
M  V30 6737 O 611.423 -5.36054 1.06342 0
M  V30 6738 H 608.517 -0.81736 0.125905 0
M  V30 6739 H 611.063 -1.39401 0.967753 0
M  V30 6740 H 609.835 -3.3922 1.95053 0
M  V30 6741 H 609.458 -3.96204 0.332948 0
M  V30 6742 N 610.455 -0.639598 -1.44038 0
M  V30 6743 C 611.702 -0.14748 -2.01962 0
M  V30 6744 C 612.03 1.23372 -1.50365 0
M  V30 6745 O 611.285 1.8345 -0.681501 0
M  V30 6746 C 611.584 -0.0925348 -3.5728 0
M  V30 6747 C 611.25 -1.41365 -4.28167 0
M  V30 6748 C 609.912 -1.77545 -4.47248 0
M  V30 6749 C 612.264 -2.2853 -4.68427 0
M  V30 6750 C 609.592 -3.00583 -5.03852 0
M  V30 6751 C 611.944 -3.50846 -5.26393 0
M  V30 6752 C 610.608 -3.8724 -5.43692 0
M  V30 6753 H 609.878 -0.0539666 -0.739032 0
M  V30 6754 H 612.525 -0.827599 -1.72694 0
M  V30 6755 H 610.83 0.670987 -3.86012 0
M  V30 6756 H 612.527 0.304891 -3.99839 0
M  V30 6757 H 609.117 -1.1221 -4.13651 0
M  V30 6758 H 613.301 -2.0187 -4.5339 0
M  V30 6759 H 608.557 -3.28846 -5.15432 0
M  V30 6760 H 612.731 -4.18616 -5.56537 0
M  V30 6761 H 610.358 -4.8266 -5.87319 0
M  V30 6762 N 611.933 1.52934 -0.380664 0
M  V30 6763 C 613.344 1.86457 0.0952684 0
M  V30 6764 C 613.695 1.3007 1.46889 0
M  V30 6765 O 612.82 0.628636 2.07068 0
M  V30 6766 C 613.415 3.38323 0.179648 0
M  V30 6767 C 611.974 3.71589 0.599858 0
M  V30 6768 C 611.121 2.76228 -0.243572 0
M  V30 6769 H 614.072 1.46966 -0.59888 0
M  V30 6770 H 614.093 3.67113 1.00042 0
M  V30 6771 H 613.605 3.79333 -0.820228 0
M  V30 6772 H 611.706 3.36144 1.60742 0
M  V30 6773 H 611.819 4.77715 0.364003 0
M  V30 6774 H 610.183 2.53045 0.289855 0
M  V30 6775 H 610.966 3.20074 -1.24127 0
M  V30 6776 N 613.412 0.11024 1.57214 0
M  V30 6777 C 614.322 -0.857077 2.18383 0
M  V30 6778 C 615.338 -1.29915 1.1575 0
M  V30 6779 O 616.514 -1.36394 1.48184 0
M  V30 6780 C 613.579 -2.09264 2.76423 0
M  V30 6781 C 612.64 -1.70333 3.94063 0
M  V30 6782 C 611.873 -2.87999 4.49324 0
M  V30 6783 O 612.096 -4.0317 4.03497 0
M  V30 6784 O 611.03 -2.6559 5.40135 0
M  V30 6785 H 614.856 -0.366561 3.0148 0
M  V30 6786 H 612.441 -0.114914 1.48957 0
M  V30 6787 H 614.323 -2.81644 3.13456 0
M  V30 6788 H 612.998 -2.57339 1.96363 0
M  V30 6789 H 611.905 -0.950864 3.61814 0
M  V30 6790 H 613.238 -1.27007 4.75531 0
M  V30 6791 N 614.89 -1.56749 -0.16351 0
M  V30 6792 C 616.115 -1.86938 -0.898264 0
M  V30 6793 C 616.54 -0.697456 -1.74692 0
M  V30 6794 O 615.898 0.353327 -1.77824 0
M  V30 6795 C 615.946 -3.15599 -1.74441 0
M  V30 6796 O 615.05 -2.98371 -2.8469 0
M  V30 6797 H 614.391 -0.614659 -0.251178 0
M  V30 6798 H 616.921 -2.03979 -0.159298 0
M  V30 6799 H 616.931 -3.47202 -2.14277 0
M  V30 6800 H 615.606 -4.00505 -1.1211 0
M  V30 6801 H 614.183 -2.7814 -2.4838 0
M  V30 6802 N 616.368 0.432326 -1.51554 0
M  V30 6803 C 617.645 1.19288 -1.55015 0
M  V30 6804 C 618.025 2.08701 -0.317375 0
M  V30 6805 O 617.373 2.17602 0.697243 0
M  V30 6806 C 617.583 1.99037 -2.86679 0
M  V30 6807 C 618.931 2.55907 -3.38817 0
M  V30 6808 O 619.955 2.09243 -2.88263 0
M  V30 6809 O 618.814 3.41029 -4.27038 0
M  V30 6810 H 615.908 0.543369 -0.623441 0
M  V30 6811 H 618.454 0.440988 -1.6387 0
M  V30 6812 H 617.226 1.33397 -3.6786 0
M  V30 6813 H 616.849 2.81281 -2.8101 0
M  V30 6814 N 617.846 1.41785 0.688094 0
M  V30 6815 C 619.095 1.4084 1.44385 0
M  V30 6816 C 619.408 0.0234166 1.95586 0
M  V30 6817 O 620.614 -0.108647 2.71283 0
M  V30 6818 C 619.07 2.47675 2.61123 0
M  V30 6819 C 618.678 3.92116 2.16677 0
M  V30 6820 C 620.422 2.55877 3.38714 0
M  V30 6821 C 618.329 4.90487 3.30419 0
M  V30 6822 H 617.259 0.523787 0.542368 0
M  V30 6823 H 619.91 1.6764 0.74627 0
M  V30 6824 H 618.292 2.14018 3.33185 0
M  V30 6825 H 619.466 4.35059 1.51856 0
M  V30 6826 H 617.781 3.87642 1.5206 0
M  V30 6827 H 620.378 3.26553 4.234 0
M  V30 6828 H 620.721 1.59801 3.84408 0
M  V30 6829 H 621.254 2.88662 2.73714 0
M  V30 6830 H 617.993 5.87994 2.89729 0
M  V30 6831 H 617.513 4.52187 3.94065 0
M  V30 6832 H 619.192 5.11591 3.96085 0
M  V30 6833 N 619.324 -0.923095 1.27737 0
M  V30 6834 C 620.254 -2.04124 1.13383 0
M  V30 6835 C 621.235 -1.70066 0.0340658 0
M  V30 6836 O 622.42 -1.93068 0.209383 0
M  V30 6837 C 619.55 -3.3831 0.785097 0
M  V30 6838 C 618.504 -3.86496 1.8386 0
M  V30 6839 C 617.83 -5.1754 1.34373 0
M  V30 6840 C 619.13 -4.09381 3.24353 0
M  V30 6841 H 620.824 -2.1639 2.06919 0
M  V30 6842 H 618.37 -1.03976 0.996243 0
M  V30 6843 H 620.323 -4.16016 0.671485 0
M  V30 6844 H 619.047 -3.2607 -0.185969 0
M  V30 6845 H 617.706 -3.10987 1.9412 0
M  V30 6846 H 617.354 -5.01696 0.361989 0
M  V30 6847 H 617.054 -5.50751 2.04811 0
M  V30 6848 H 618.578 -5.97811 1.24315 0
M  V30 6849 H 619.992 -4.77641 3.17067 0
M  V30 6850 H 618.389 -4.53906 3.92542 0
M  V30 6851 H 619.459 -3.14515 3.69064 0
M  V30 6852 N 620.802 -1.09834 -1.13024 0
M  V30 6853 C 621.734 -0.699379 -2.18269 0
M  V30 6854 C 622.747 0.260841 -1.60697 0
M  V30 6855 O 623.936 0.0462538 -1.7844 0
M  V30 6856 C 621.036 -0.0104537 -3.38898 0
M  V30 6857 C 620.209 -0.993275 -4.25973 0
M  V30 6858 C 619.268 -0.336982 -5.2512 0
M  V30 6859 O 618.294 -0.985892 -5.60597 0
M  V30 6860 N 619.496 0.90716 -5.73368 0
M  V30 6861 H 622.261 -1.60486 -2.5311 0
M  V30 6862 H 619.822 -0.986337 -1.28386 0
M  V30 6863 H 621.814 0.43991 -4.02302 0
M  V30 6864 H 620.384 0.797335 -3.0226 0
M  V30 6865 H 619.604 -1.62208 -3.5928 0
M  V30 6866 H 620.892 -1.65876 -4.81002 0
M  V30 6867 H 620.29 1.45384 -5.46699 0
M  V30 6868 H 618.847 1.30077 -6.38689 0
M  V30 6869 N 622.28 1.30327 -0.886154 0
M  V30 6870 C 623.691 1.78243 -0.555554 0
M  V30 6871 C 624.042 1.72849 0.928314 0
M  V30 6872 O 623.167 1.30607 1.72542 0
M  V30 6873 C 623.762 3.23654 -1.00168 0
M  V30 6874 C 622.321 3.69401 -0.722471 0
M  V30 6875 C 621.468 2.50753 -1.18399 0
M  V30 6876 H 624.419 1.1718 -1.07026 0
M  V30 6877 H 624.44 3.79056 -0.331152 0
M  V30 6878 H 623.952 3.27548 -2.08169 0
M  V30 6879 H 622.053 3.70995 0.345496 0
M  V30 6880 H 622.166 4.60818 -1.31085 0
M  V30 6881 H 620.53 2.47452 -0.603303 0
M  V30 6882 H 621.313 2.57383 -2.27176 0
M  V30 6883 N 623.758 0.647228 1.43697 0
M  V30 6884 C 625.004 0.158422 2.0218 0
M  V30 6885 C 625.337 -1.22233 1.50907 0
M  V30 6886 O 624.612 -1.81478 0.699702 0
M  V30 6887 C 624.895 0.1627 3.59732 0
M  V30 6888 C 624.748 1.57694 4.21251 0
M  V30 6889 C 626.067 -0.504138 4.37203 0
M  V30 6890 H 623.186 0.059042 0.734631 0
M  V30 6891 H 625.828 0.826772 1.71069 0
M  V30 6892 H 623.978 -0.406414 3.86368 0
M  V30 6893 H 625.65 2.19618 4.05667 0
M  V30 6894 H 623.893 2.12603 3.7813 0
M  V30 6895 H 624.564 1.53183 5.3032 0
M  V30 6896 H 627.04 -0.0199841 4.16095 0
M  V30 6897 H 625.916 -0.470394 5.46881 0
M  V30 6898 H 626.177 -1.57726 4.13007 0
M  V30 6899 N 625.236 -1.5273 0.388769 0
M  V30 6900 C 626.647 -1.86505 -0.0853788 0
M  V30 6901 C 626.998 -1.30847 -1.46197 0
M  V30 6902 O 626.123 -0.639609 -2.06732 0
M  V30 6903 C 626.718 -3.38414 -0.161703 0
M  V30 6904 C 625.277 -3.71902 -0.580144 0
M  V30 6905 C 624.424 -2.76095 0.258218 0
M  V30 6906 H 627.375 -1.46647 0.606665 0
M  V30 6907 H 627.396 -3.67638 -0.980936 0
M  V30 6908 H 626.908 -3.78893 0.840333 0
M  V30 6909 H 625.009 -3.36992 -1.58957 0
M  V30 6910 H 625.122 -4.77902 -0.338663 0
M  V30 6911 H 623.486 -2.53195 -0.276432 0
M  V30 6912 H 624.269 -3.19411 1.25822 0
M  V30 6913 N 626.714 -0.118576 -1.57153 0
M  V30 6914 C 627.662 0.849114 -2.16547 0
M  V30 6915 C 628.656 1.27567 -1.11458 0
M  V30 6916 O 629.862 1.24746 -1.29763 0
M  V30 6917 H 626.237 0.291935 -0.693021 0
M  V30 6918 H 628.208 0.323693 -2.96639 0
M  V30 6919 C 626.957 2.08951 -2.77912 0
M  V30 6920 H 626.28 1.77021 -3.58474 0
M  V30 6921 H 627.72 2.74666 -3.23008 0
M  V30 6922 C 626.179 2.87899 -1.74974 0
M  V30 6923 O 626.709 3.83268 -1.20285 0
M  V30 6924 N 624.915 2.51884 -1.44924 0
M  V30 6925 H 624.462 1.74397 -1.89587 0
M  V30 6926 H 624.42 3.05003 -0.762921 0
M  V30 6927 N 628.193 1.56834 0.155195 0
M  V30 6928 C 629.421 1.87049 0.884326 0
M  V30 6929 C 629.836 0.705839 1.7511 0
M  V30 6930 O 629.193 -0.324641 1.79589 0
M  V30 6931 C 629.244 3.1644 1.74781 0
M  V30 6932 O 628.965 4.28417 0.915978 0
M  V30 6933 C 630.466 3.60113 2.58522 0
M  V30 6934 H 627.686 0.620196 0.25612 0
M  V30 6935 H 630.23 2.03946 0.150445 0
M  V30 6936 H 628.385 3.01321 2.43484 0
M  V30 6937 H 628.799 5.02353 1.50803 0
M  V30 6938 H 630.273 4.53508 3.14698 0
M  V30 6939 H 630.75 2.85005 3.34169 0
M  V30 6940 H 631.356 3.77898 1.95124 0
M  V30 6941 N 629.671 -0.424282 1.51781 0
M  V30 6942 C 630.899 -1.1947 1.68921 0
M  V30 6943 C 631.314 -1.84683 0.39213 0
M  V30 6944 O 630.671 -1.71261 -0.630554 0
M  V30 6945 C 630.722 -2.26909 2.81416 0
M  V30 6946 O 630.443 -1.64361 4.061 0
M  V30 6947 C 631.944 -3.16945 3.09937 0
M  V30 6948 H 629.164 -0.359591 0.566511 0
M  V30 6949 H 631.708 -0.501139 1.98265 0
M  V30 6950 H 629.863 -2.91959 2.54635 0
M  V30 6951 H 630.277 -2.35468 4.68674 0
M  V30 6952 H 631.751 -3.88437 3.922 0
M  V30 6953 H 632.228 -3.78451 2.22871 0
M  V30 6954 H 632.834 -2.57581 3.38426 0
M  V30 6955 N 631.149 -1.42148 -0.680565 0
M  V30 6956 C 632.059 -1.47565 -1.82378 0
M  V30 6957 C 633.075 -0.36489 -1.70131 0
M  V30 6958 O 634.251 -0.614916 -1.91783 0
M  V30 6959 C 631.316 -1.37013 -3.18478 0
M  V30 6960 C 630.377 -2.58532 -3.42724 0
M  V30 6961 C 629.61 -2.48473 -4.72331 0
M  V30 6962 O 629.833 -1.51745 -5.49845 0
M  V30 6963 O 628.767 -3.38503 -4.97694 0
M  V30 6964 H 632.593 -2.44045 -1.80764 0
M  V30 6965 H 630.178 -1.23849 -0.835569 0
M  V30 6966 H 632.06 -1.33468 -3.99705 0
M  V30 6967 H 630.735 -0.436552 -3.20743 0
M  V30 6968 H 629.642 -2.67652 -2.61368 0
M  V30 6969 H 630.975 -3.50769 -3.45286 0
M  V30 6970 N 632.627 0.916307 -1.28225 0
M  V30 6971 C 634.038 1.48024 -1.13779 0
M  V30 6972 C 634.389 1.94289 0.273139 0
M  V30 6973 O 633.514 1.82226 1.16716 0
M  V30 6974 C 634.109 2.69029 -2.05935 0
M  V30 6975 C 632.668 3.2161 -1.95561 0
M  V30 6976 C 631.815 1.94321 -1.97825 0
M  V30 6977 H 634.766 0.729272 -1.40951 0
M  V30 6978 H 634.787 3.44204 -1.62184 0
M  V30 6979 H 634.299 2.35325 -3.08616 0
M  V30 6980 H 632.4 3.60045 -0.959076 0
M  V30 6981 H 632.513 3.87032 -2.82388 0
M  V30 6982 H 630.877 2.1131 -1.42198 0
M  V30 6983 H 631.66 1.62917 -3.0218 0
M  V30 6984 N 634.105 1.10431 1.1244 0
M  V30 6985 C 635.382 0.758797 1.80282 0
M  V30 6986 C 635.762 -0.754727 1.97147 0
M  V30 6987 O 635.11 -1.68094 1.54779 0
M  V30 6988 C 635.32 1.50982 3.14651 0
M  V30 6989 C 636.668 1.68232 3.8985 0
M  V30 6990 O 637.692 1.47319 3.24308 0
M  V30 6991 O 636.551 2.02905 5.07437 0
M  V30 6992 H 633.645 0.273756 0.780376 0
M  V30 6993 H 636.191 1.20713 1.19275 0
M  V30 6994 H 634.963 2.53989 2.97666 0
M  V30 6995 H 634.586 1.05435 3.83366 0
M  V30 6996 N 635.583 -1.29855 0.893053 0
M  V30 6997 C 636.813 -1.99686 0.530019 0
M  V30 6998 C 637.221 -1.67066 -0.888012 0
M  V30 6999 O 636.564 -0.908366 -1.5967 0
M  V30 7000 C 636.626 -3.53855 0.63457 0
M  V30 7001 C 636.29 -4.10013 2.01837 0
M  V30 7002 C 637.287 -4.25406 2.98874 0
M  V30 7003 C 634.972 -4.45202 2.32595 0
M  V30 7004 C 636.966 -4.7521 4.24799 0
M  V30 7005 C 634.653 -4.94704 3.58763 0
M  V30 7006 C 635.651 -5.09662 4.5468 0
M  V30 7007 O 635.339 -5.58093 5.78608 0
M  V30 7008 H 635.071 -0.644913 0.20264 0
M  V30 7009 H 637.625 -1.66518 1.20253 0
M  V30 7010 H 635.855 -3.86583 -0.0949477 0
M  V30 7011 H 637.544 -4.04922 0.281648 0
M  V30 7012 H 638.31 -3.98515 2.76425 0
M  V30 7013 H 634.189 -4.32822 1.58701 0
M  V30 7014 H 637.733 -4.86801 4.99671 0
M  V30 7015 H 633.63 -5.21032 3.81046 0
M  V30 7016 H 634.398 -5.7642 5.81104 0
M  V30 7017 N 637.061 -0.65484 -1.43351 0
M  V30 7018 C 638.008 0.0357713 -2.30772 0
M  V30 7019 C 638.978 0.813035 -1.44841 0
M  V30 7020 O 640.163 0.789314 -1.73708 0
M  V30 7021 C 637.303 0.995084 -3.30442 0
M  V30 7022 C 636.416 0.21375 -4.31471 0
M  V30 7023 C 635.551 1.16701 -5.18222 0
M  V30 7024 C 634.59 0.376201 -6.10943 0
M  V30 7025 N 633.727 1.28113 -6.90313 0
M  V30 7026 H 638.567 -0.71559 -2.89281 0
M  V30 7027 H 636.104 -0.364645 -1.42509 0
M  V30 7028 H 638.062 1.5649 -3.86739 0
M  V30 7029 H 636.692 1.7133 -2.7358 0
M  V30 7030 H 635.744 -0.472377 -3.77456 0
M  V30 7031 H 637.056 -0.401103 -4.97185 0
M  V30 7032 H 636.21 1.8074 -5.79153 0
M  V30 7033 H 634.949 1.81577 -4.52638 0
M  V30 7034 H 633.954 -0.277534 -5.49099 0
M  V30 7035 H 635.179 -0.268178 -6.7857 0
M  V30 7036 H 633.125 1.91666 -6.27376 0
M  V30 7037 H 633.042 0.720879 -7.52555 0
M  V30 7038 H 634.31 1.90962 -7.55747 0
M  V30 7039 N 638.539 1.52521 -0.396863 0
M  V30 7040 C 639.764 2.06571 0.185258 0
M  V30 7041 C 640.189 1.26605 1.39115 0
M  V30 7042 O 639.547 0.293055 1.78916 0
M  V30 7043 C 639.595 3.5674 0.526189 0
M  V30 7044 O 638.699 3.7929 1.61903 0
M  V30 7045 H 638.04 0.663712 0.0195474 0
M  V30 7046 H 640.57 1.966 -0.566519 0
M  V30 7047 H 640.58 4.00311 0.788338 0
M  V30 7048 H 639.255 4.14379 -0.355397 0
M  V30 7049 H 637.832 3.47605 1.35 0
M  V30 7050 N 640.017 0.126909 1.57088 0
M  V30 7051 C 640.964 -0.82036 2.15728 0
M  V30 7052 C 641.934 -1.25811 1.08447 0
M  V30 7053 O 643.119 -1.33422 1.36393 0
M  V30 7054 C 640.259 -2.06199 2.76724 0
M  V30 7055 C 639.372 -1.67188 3.98337 0
M  V30 7056 C 638.507 -2.86378 4.47393 0
M  V30 7057 C 637.546 -2.43644 5.61519 0
M  V30 7058 N 636.683 -3.55775 6.05284 0
M  V30 7059 H 641.523 -0.313472 2.96347 0
M  V30 7060 H 639.06 -0.14303 1.46403 0
M  V30 7061 H 641.018 -2.78959 3.10222 0
M  V30 7062 H 639.648 -2.54333 1.98782 0
M  V30 7063 H 638.7 -0.842714 3.70948 0
M  V30 7064 H 640.012 -1.31789 4.81075 0
M  V30 7065 H 639.166 -3.67353 4.82842 0
M  V30 7066 H 637.905 -3.25009 3.63621 0
M  V30 7067 H 636.91 -1.61104 5.25667 0
M  V30 7068 H 638.135 -2.06122 6.47063 0
M  V30 7069 H 636.081 -3.94065 5.24451 0
M  V30 7070 H 635.998 -3.24325 6.82898 0
M  V30 7071 H 637.266 -4.37166 6.45373 0
M  V30 7072 N 641.495 -1.56914 -0.146875 0
M  V30 7073 C 642.772 -1.74273 -0.888165 0
M  V30 7074 C 643.152 -0.69496 -1.99333 0
M  V30 7075 O 642.5 0.286093 -2.26702 0
M  V30 7076 C 642.71 -3.18336 -1.43051 0
M  V30 7077 C 644.058 -3.80024 -1.89387 0
M  V30 7078 O 645.082 -3.21765 -1.52792 0
M  V30 7079 O 643.941 -4.82367 -2.56874 0
M  V30 7080 H 641.035 -0.712565 -0.419738 0
M  V30 7081 H 643.581 -1.6918 -0.132791 0
M  V30 7082 H 642.353 -3.86092 -0.636274 0
M  V30 7083 H 641.976 -3.27854 -2.24938 0
M  V30 7084 N 642.974 0.416227 -1.52004 0
M  V30 7085 C 644.22 1.16233 -1.66917 0
M  V30 7086 C 644.575 1.8839 -0.390763 0
M  V30 7087 O 643.868 1.81479 0.614478 0
M  V30 7088 C 644.062 2.18923 -2.82502 0
M  V30 7089 C 643.891 1.56849 -4.2146 0
M  V30 7090 C 642.661 1.34426 -4.87091 0
M  V30 7091 C 644.859 1.03322 -5.03815 0
M  V30 7092 N 642.841 0.681703 -6.10103 0
M  V30 7093 C 644.212 0.497165 -6.18003 0
M  V30 7094 C 646.267 0.926997 -4.89194 0
M  V30 7095 C 644.97 -0.134687 -7.19174 0
M  V30 7096 C 646.996 0.309009 -5.90592 0
M  V30 7097 C 646.358 -0.216399 -7.04068 0
M  V30 7098 H 642.457 0.412252 -0.664509 0
M  V30 7099 H 645.041 0.455758 -1.89291 0
M  V30 7100 H 643.212 2.86946 -2.61756 0
M  V30 7101 H 644.944 2.85844 -2.86488 0
M  V30 7102 H 641.699 1.61183 -4.45328 0
M  V30 7103 H 642.123 0.367256 -6.76003 0
M  V30 7104 H 646.765 1.31904 -4.01698 0
M  V30 7105 H 644.483 -0.538811 -8.06302 0
M  V30 7106 H 648.069 0.228438 -5.81351 0
M  V30 7107 H 646.949 -0.687064 -7.81184 0
M  V30 7108 N 644.452 1.42507 0.673017 0
M  V30 7109 C 645.698 1.43284 1.43519 0
M  V30 7110 C 646.031 0.049668 1.94136 0
M  V30 7111 O 645.306 -0.926369 1.71022 0
M  V30 7112 C 645.589 2.45874 2.63093 0
M  V30 7113 C 645.442 3.93388 2.18096 0
M  V30 7114 C 646.761 2.45431 3.6531 0
M  V30 7115 H 643.88 0.521752 0.520522 0
M  V30 7116 H 646.522 1.73932 0.764701 0
M  V30 7117 H 644.672 2.19869 3.20296 0
M  V30 7118 H 646.344 4.30379 1.66046 0
M  V30 7119 H 644.587 4.07169 1.49652 0
M  V30 7120 H 645.258 4.60752 3.03993 0
M  V30 7121 H 647.734 2.68561 3.17827 0
M  V30 7122 H 646.61 3.19189 4.46553 0
M  V30 7123 H 646.871 1.48092 4.16559 0
M  V30 7124 N 645.93 -0.909495 1.28709 0
M  V30 7125 C 647.177 -1.65905 1.16111 0
M  V30 7126 C 647.505 -1.92334 -0.289436 0
M  V30 7127 O 646.76 -1.52495 -1.22653 0
M  V30 7128 C 647.059 -3.02117 1.90945 0
M  V30 7129 C 646.725 -2.95332 3.40719 0
M  V30 7130 C 645.387 -2.93189 3.81567 0
M  V30 7131 C 647.739 -2.85264 4.36204 0
M  V30 7132 C 645.067 -2.78784 5.16233 0
M  V30 7133 C 647.419 -2.724 5.70948 0
M  V30 7134 C 646.083 -2.68617 6.11066 0
M  V30 7135 H 645.353 -0.60709 0.42488 0
M  V30 7136 H 648 -1.05932 1.59533 0
M  V30 7137 H 646.305 -3.65901 1.40085 0
M  V30 7138 H 648.002 -3.59026 1.7861 0
M  V30 7139 H 644.592 -2.97797 3.08245 0
M  V30 7140 H 648.776 -2.86005 4.05605 0
M  V30 7141 H 644.032 -2.74254 5.46438 0
M  V30 7142 H 648.206 -2.63579 6.44592 0
M  V30 7143 H 645.833 -2.57213 7.15364 0
M  V30 7144 N 647.408 -1.11026 -1.11852 0
M  V30 7145 C 648.338 -0.786812 -2.19844 0
M  V30 7146 C 649.319 0.242935 -1.68356 0
M  V30 7147 O 650.504 0.107355 -1.93903 0
M  V30 7148 C 647.634 -0.224516 -3.46574 0
M  V30 7149 C 646.588 -1.18564 -4.1125 0
M  V30 7150 C 645.914 -0.484261 -5.32503 0
M  V30 7151 C 647.214 -2.53465 -4.56676 0
M  V30 7152 H 648.908 -1.68978 -2.47158 0
M  V30 7153 H 646.454 -0.813906 -1.18792 0
M  V30 7154 H 648.407 0.0139435 -4.21398 0
M  V30 7155 H 647.131 0.713722 -3.18706 0
M  V30 7156 H 645.79 -1.40966 -3.38414 0
M  V30 7157 H 645.438 0.458646 -5.00905 0
M  V30 7158 H 645.138 -1.12526 -5.76725 0
M  V30 7159 H 646.662 -0.254492 -6.10069 0
M  V30 7160 H 648.076 -2.35177 -5.22843 0
M  V30 7161 H 646.473 -3.13507 -5.11697 0
M  V30 7162 H 647.543 -3.13008 -3.70343 0
M  V30 7163 N 648.886 1.2938 -0.899927 0
M  V30 7164 C 649.834 2.29675 -0.367698 0
M  V30 7165 C 650.828 1.60787 0.533282 0
M  V30 7166 O 652.034 1.75126 0.416058 0
M  V30 7167 H 648.409 0.745284 -0.100279 0
M  V30 7168 H 650.38 2.72008 -1.22696 0
M  V30 7169 C 649.129 3.45512 0.389483 0
M  V30 7170 H 648.452 3.98713 -0.294575 0
M  V30 7171 H 649.892 4.17725 0.726744 0
M  V30 7172 C 648.351 2.969 1.59223 0
M  V30 7173 O 648.881 2.98195 2.69152 0
M  V30 7174 N 647.087 2.52728 1.43447 0
M  V30 7175 H 646.634 2.51873 0.540148 0
M  V30 7176 H 646.592 2.20561 2.24054 0
M  V30 7177 N 650.364 0.662433 1.43002 0
M  V30 7178 C 651.594 0.187343 2.05749 0
M  V30 7179 C 652.002 -1.15582 1.49791 0
M  V30 7180 O 651.345 -1.72651 0.627487 0
M  V30 7181 C 651.407 0.0316493 3.59486 0
M  V30 7182 C 651.071 1.30156 4.38073 0
M  V30 7183 C 652.068 2.23234 4.69535 0
M  V30 7184 C 649.753 1.54572 4.77926 0
M  V30 7185 C 651.747 3.39012 5.39768 0
M  V30 7186 C 649.434 2.70641 5.47902 0
M  V30 7187 C 650.432 3.62687 5.78746 0
M  V30 7188 O 650.12 4.76728 6.47291 0
M  V30 7189 H 649.852 0.0915214 0.669776 0
M  V30 7190 H 652.406 0.905982 1.8434 0
M  V30 7191 H 650.636 -0.742451 3.79506 0
M  V30 7192 H 652.325 -0.401977 4.03905 0
M  V30 7193 H 653.091 2.05616 4.39257 0
M  V30 7194 H 648.97 0.83804 4.53319 0
M  V30 7195 H 652.514 4.10877 5.63761 0
M  V30 7196 H 648.411 2.88189 5.77596 0
M  V30 7197 H 649.179 4.76113 6.65777 0
M  V30 7198 N 651.842 -1.52309 0.404946 0
M  V30 7199 C 653.07 -2.06185 -0.171818 0
M  V30 7200 C 653.485 -1.27536 -1.39212 0
M  V30 7201 O 652.842 -0.326112 -1.79563 0
M  V30 7202 C 652.893 -3.57647 -0.526417 0
M  V30 7203 O 652.614 -4.3332 0.645417 0
M  V30 7204 C 654.115 -4.27925 -1.15736 0
M  V30 7205 H 651.335 -0.670632 -0.0222328 0
M  V30 7206 H 653.879 -1.96259 0.574692 0
M  V30 7207 H 652.034 -3.67595 -1.22282 0
M  V30 7208 H 652.448 -5.23328 0.35042 0
M  V30 7209 H 653.922 -5.35093 -1.35572 0
M  V30 7210 H 654.399 -3.84134 -2.12926 0
M  V30 7211 H 655.005 -4.22335 -0.501281 0
M  V30 7212 N 653.32 -0.135238 -1.57019 0
M  V30 7213 C 654.55 0.525303 -1.9981 0
M  V30 7214 C 654.958 1.59724 -1.01415 0
M  V30 7215 O 654.301 1.837 -0.00130938 0
M  V30 7216 C 654.363 1.19578 -3.3903 0
M  V30 7217 C 654.027 0.269855 -4.56203 0
M  V30 7218 C 655.024 -0.497905 -5.1751 0
M  V30 7219 C 652.709 0.176188 -5.01991 0
M  V30 7220 C 654.703 -1.3469 -6.23007 0
M  V30 7221 C 652.39 -0.676422 -6.07345 0
M  V30 7222 C 653.388 -1.43658 -6.67721 0
M  V30 7223 O 653.076 -2.27501 -7.71037 0
M  V30 7224 H 652.808 0.142296 -0.660854 0
M  V30 7225 H 655.362 -0.223272 -2.04183 0
M  V30 7226 H 653.592 1.99176 -3.3146 0
M  V30 7227 H 655.281 1.75486 -3.66005 0
M  V30 7228 H 656.047 -0.435507 -4.83041 0
M  V30 7229 H 651.926 0.757583 -4.54733 0
M  V30 7230 H 655.47 -1.9407 -6.70062 0
M  V30 7231 H 651.367 -0.740154 -6.41243 0
M  V30 7232 H 652.135 -2.20619 -7.88206 0
M  V30 7233 N 654.798 1.5699 0.138552 0
M  V30 7234 C 655.745 1.98899 1.17081 0
M  V30 7235 C 656.715 0.857922 1.42228 0
M  V30 7236 O 657.9 1.12065 1.54422 0
M  V30 7237 C 655.04 2.38189 2.4972 0
M  V30 7238 C 654.153 3.64624 2.31674 0
M  V30 7239 C 653.288 3.9298 3.57407 0
M  V30 7240 C 652.327 5.1266 3.34435 0
M  V30 7241 N 651.464 5.36983 4.5232 0
M  V30 7242 H 656.304 2.86881 0.80642 0
M  V30 7243 H 653.841 1.41925 0.386727 0
M  V30 7244 H 655.799 2.59 3.2707 0
M  V30 7245 H 654.429 1.53275 2.84089 0
M  V30 7246 H 653.481 3.51542 1.45337 0
M  V30 7247 H 654.793 4.52131 2.10664 0
M  V30 7248 H 653.947 4.14335 4.43183 0
M  V30 7249 H 652.686 3.03912 3.8143 0
M  V30 7250 H 651.691 4.9117 2.47048 0
M  V30 7251 H 652.916 6.03288 3.11802 0
M  V30 7252 H 650.862 4.50871 4.76499 0
M  V30 7253 H 650.779 6.18775 4.34343 0
M  V30 7254 H 652.047 5.62842 5.39285 0
M  V30 7255 N 656.276 -0.40816 1.52223 0
M  V30 7256 C 657.692 -0.74685 1.41047 0
M  V30 7257 C 657.892 -1.94788 0.51573 0
M  V30 7258 O 656.948 -2.52494 -0.0181156 0
M  V30 7259 C 658.261 -0.999878 2.83589 0
M  V30 7260 C 659.809 -1.10253 2.92939 0
M  V30 7261 C 660.284 -1.38832 4.36451 0
M  V30 7262 N 661.775 -1.45694 4.3969 0
M  V30 7263 C 662.51 -1.69435 5.47795 0
M  V30 7264 N 662.006 -1.90774 6.66016 0
M  V30 7265 N 663.799 -1.71458 5.35312 0
M  V30 7266 H 655.95 0.382409 2.08929 0
M  V30 7267 H 658.213 0.108807 0.941735 0
M  V30 7268 H 657.919 -0.189723 3.51188 0
M  V30 7269 H 657.793 -1.91978 3.24691 0
M  V30 7270 H 660.18 -1.90328 2.2552 0
M  V30 7271 H 660.261 -0.160973 2.55293 0
M  V30 7272 H 659.905 -0.592741 5.04429 0
M  V30 7273 H 659.835 -2.34241 4.71634 0
M  V30 7274 H 662.326 -1.3099 3.54472 0
M  V30 7275 H 662.639 -2.08342 7.44186 0
M  V30 7276 H 660.984 -1.88037 6.69079 0
M  V30 7277 H 664.175 -1.54326 4.41929 0
M  V30 7278 H 664.348 -1.89621 6.19635 0
M  V30 7279 N 657.755 -1.42862 -0.66545 0
M  V30 7280 C 659.002 -1.4383 -1.42546 0
M  V30 7281 C 659.33 -0.0581114 -1.94413 0
M  V30 7282 O 658.585 0.935002 -1.71919 0
M  V30 7283 C 658.884 -2.4175 -2.63233 0
M  V30 7284 C 658.55 -3.87915 -2.29854 0
M  V30 7285 C 657.212 -4.27726 -2.20463 0
M  V30 7286 C 659.564 -4.80074 -2.02924 0
M  V30 7287 C 656.892 -5.57666 -1.82279 0
M  V30 7288 C 659.244 -6.10366 -1.66242 0
M  V30 7289 C 657.908 -6.49167 -1.55367 0
M  V30 7290 H 657.178 -0.52631 -0.521612 0
M  V30 7291 H 659.825 -1.75863 -0.757914 0
M  V30 7292 H 658.13 -2.03077 -3.35063 0
M  V30 7293 H 659.827 -2.39759 -3.21429 0
M  V30 7294 H 656.417 -3.564 -2.3807 0
M  V30 7295 H 660.601 -4.50097 -2.09108 0
M  V30 7296 H 655.857 -5.8658 -1.72436 0
M  V30 7297 H 660.031 -6.81258 -1.44432 0
M  V30 7298 H 657.658 -7.49761 -1.2555 0
M  V30 7299 N 659.233 0.902656 -1.29189 0
M  V30 7300 C 660.143 2.03946 -1.15944 0
M  V30 7301 C 661.159 1.738 -0.0833803 0
M  V30 7302 O 662.335 1.9923 -0.29487 0
M  V30 7303 C 659.4 3.36519 -0.834006 0
M  V30 7304 C 658.461 3.80203 -1.9936 0
M  V30 7305 C 657.694 5.06449 -1.68359 0
M  V30 7306 O 657.917 5.67202 -0.603141 0
M  V30 7307 O 656.851 5.46114 -2.53067 0
M  V30 7308 H 660.677 2.18043 -2.11403 0
M  V30 7309 H 658.262 1.02584 -1.08613 0
M  V30 7310 H 660.144 4.16089 -0.666949 0
M  V30 7311 H 658.819 3.23573 0.0908245 0
M  V30 7312 H 657.726 3.01413 -2.21588 0
M  V30 7313 H 659.059 3.97729 -2.89952 0
M  V30 7314 N 660.711 1.11618 1.11262 0
M  V30 7315 C 661.959 0.864469 1.82678 0
M  V30 7316 C 662.28 -0.611564 1.85162 0
M  V30 7317 O 661.55 -1.44429 1.32352 0
M  V30 7318 H 660.13 0.316821 0.676486 0
M  V30 7319 H 662.792 1.40894 1.34666 0
M  V30 7320 H 661.888 1.23832 2.86482 0
M  V30 7321 N 662.189 -1.289 0.906776 0
M  V30 7322 C 663.119 -2.29932 0.406659 0
M  V30 7323 C 664.1 -1.6189 -0.522061 0
M  V30 7324 O 665.285 -1.8935 -0.431283 0
M  V30 7325 C 662.415 -3.45425 -0.360366 0
M  V30 7326 C 661.369 -4.25316 0.478574 0
M  V30 7327 C 660.695 -5.33076 -0.416373 0
M  V30 7328 C 661.995 -4.92739 1.7322 0
M  V30 7329 H 663.689 -2.72013 1.25097 0
M  V30 7330 H 661.235 -1.30768 0.602977 0
M  V30 7331 H 663.188 -4.15186 -0.721029 0
M  V30 7332 H 661.912 -3.02206 -1.23852 0
M  V30 7333 H 660.571 -3.57273 0.821662 0
M  V30 7334 H 660.219 -4.86101 -1.29287 0
M  V30 7335 H 659.919 -5.8743 0.141309 0
M  V30 7336 H 661.443 -6.05686 -0.773072 0
M  V30 7337 H 662.857 -5.54898 1.44086 0
M  V30 7338 H 661.254 -5.57057 2.23175 0
M  V30 7339 H 662.324 -4.17625 2.46408 0
M  V30 7340 N 663.667 -0.670007 -1.42649 0
M  V30 7341 C 664.895 -0.19854 -2.05945 0
M  V30 7342 C 665.31 1.14243 -1.50313 0
M  V30 7343 O 664.667 1.70872 -0.641027 0
M  V30 7344 C 664.718 -0.11966 -3.61302 0
M  V30 7345 O 664.439 -1.40764 -4.1487 0
M  V30 7346 C 665.94 0.375878 -4.41704 0
M  V30 7347 H 663.16 -0.0976894 -0.663851 0
M  V30 7348 H 665.704 -0.915392 -1.82868 0
M  V30 7349 H 663.859 0.547851 -3.83507 0
M  V30 7350 H 664.273 -1.27784 -5.08696 0
M  V30 7351 H 665.747 0.379988 -5.50691 0
M  V30 7352 H 666.224 1.41028 -4.15942 0
M  V30 7353 H 666.83 -0.259727 -4.24506 0
M  V30 7354 N 665.145 1.52092 -0.413018 0
M  V30 7355 C 666.077 2.24819 0.445994 0
M  V30 7356 C 667.09 1.27925 1.00692 0
M  V30 7357 O 668.279 1.53845 0.905204 0
M  V30 7358 C 665.379 2.96951 1.6332 0
M  V30 7359 C 664.552 4.20746 1.19548 0
M  V30 7360 C 663.611 4.75668 2.25003 0
M  V30 7361 O 662.637 5.38148 1.85434 0
M  V30 7362 N 663.839 4.57579 3.57214 0
M  V30 7363 H 666.604 2.99176 -0.177209 0
M  V30 7364 H 664.165 1.60102 -0.240601 0
M  V30 7365 H 666.157 3.30586 2.33441 0
M  V30 7366 H 664.727 2.25756 2.16225 0
M  V30 7367 H 663.947 3.92881 0.32224 0
M  V30 7368 H 665.235 5.01132 0.880033 0
M  V30 7369 H 664.633 4.07758 3.92109 0
M  V30 7370 H 663.19 4.95642 4.23299 0
M  V30 7371 N 666.623 0.143563 1.56945 0
M  V30 7372 C 668.039 -0.212877 1.58174 0
M  V30 7373 C 668.239 -1.64926 1.15766 0
M  V30 7374 O 667.295 -2.37535 0.856361 0
M  V30 7375 C 668.608 0.0427573 3.0067 0
M  V30 7376 C 670.156 -0.0212221 3.12993 0
M  V30 7377 C 670.631 0.207036 4.57532 0
M  V30 7378 N 672.122 0.153845 4.62944 0
M  V30 7379 C 672.857 0.305018 5.72588 0
M  V30 7380 N 672.353 0.513722 6.90893 0
M  V30 7381 N 674.146 0.242862 5.61575 0
M  V30 7382 H 666.297 1.08148 1.82805 0
M  V30 7383 H 668.56 0.427831 0.84597 0
M  V30 7384 H 668.266 1.03672 3.36073 0
M  V30 7385 H 668.14 -0.678195 3.71053 0
M  V30 7386 H 670.527 -1.00574 2.77433 0
M  V30 7387 H 670.608 0.732004 2.45103 0
M  V30 7388 H 670.252 1.18863 4.93795 0
M  V30 7389 H 670.182 -0.566473 5.23544 0
M  V30 7390 H 672.673 -0.00294866 3.779 0
M  V30 7391 H 672.986 0.619273 7.70315 0
M  V30 7392 H 671.331 0.550001 6.9282 0
M  V30 7393 H 674.522 0.0806015 4.68031 0
M  V30 7394 H 674.695 0.364112 6.46976 0
M  V30 7395 N 668.101 -1.57061 -0.130224 0
M  V30 7396 C 669.349 -1.83893 -0.838313 0
M  V30 7397 C 669.67 -0.727046 -1.80939 0
M  V30 7398 O 668.94 0.249927 -1.94299 0
M  V30 7399 H 667.52 -0.67846 -0.312573 0
M  V30 7400 H 670.182 -1.94529 -0.120224 0
M  V30 7401 H 669.278 -2.79419 -1.39038 0
M  V30 7402 N 669.579 0.400081 -1.52437 0
M  V30 7403 C 670.804 1.17221 -1.71096 0
M  V30 7404 C 671.229 1.83269 -0.423565 0
M  V30 7405 O 670.587 1.70378 0.619751 0
M  V30 7406 C 670.635 2.20425 -2.85386 0
M  V30 7407 O 669.739 3.26769 -2.51586 0
M  V30 7408 H 669.08 0.341766 -0.569291 0
M  V30 7409 H 671.61 0.467772 -1.99181 0
M  V30 7410 H 671.62 2.64605 -3.10561 0
M  V30 7411 H 670.295 1.71737 -3.78786 0
M  V30 7412 H 668.872 2.87804 -2.37114 0
M  V30 7413 N 671.057 1.43213 0.657864 0
M  V30 7414 C 672.306 1.43871 1.41365 0
M  V30 7415 C 672.619 0.064898 1.95492 0
M  V30 7416 O 673.825 -0.0510796 2.71452 0
M  V30 7417 C 672.281 2.53158 2.55811 0
M  V30 7418 C 671.889 3.96624 2.08311 0
M  V30 7419 C 673.633 2.63004 3.3321 0
M  V30 7420 C 671.54 4.97385 3.1994 0
M  V30 7421 H 670.47 0.535174 0.531136 0
M  V30 7422 H 673.121 1.69185 0.710543 0
M  V30 7423 H 671.503 2.21037 3.2857 0
M  V30 7424 H 672.677 4.38182 1.42593 0
M  V30 7425 H 670.992 3.90781 1.43804 0
M  V30 7426 H 673.589 3.3546 4.16378 0
M  V30 7427 H 673.932 1.67918 3.80932 0
M  V30 7428 H 674.465 2.94403 2.67529 0
M  V30 7429 H 671.204 5.94007 2.77192 0
M  V30 7430 H 670.724 4.60444 3.84385 0
M  V30 7431 H 672.403 5.19877 3.85145 0
M  V30 7432 N 672.536 -0.895792 1.29666 0
M  V30 7433 C 673.947 -1.46195 1.1612 0
M  V30 7434 C 674.298 -1.94699 -0.242195 0
M  V30 7435 O 673.423 -1.8406 -1.13802 0
M  V30 7436 C 674.018 -2.65718 2.10189 0
M  V30 7437 C 672.577 -3.18458 2.00653 0
M  V30 7438 C 671.724 -1.91149 2.00891 0
M  V30 7439 H 674.675 -0.706756 1.42094 0
M  V30 7440 H 674.696 -3.4158 1.6764 0
M  V30 7441 H 674.208 -2.30386 3.12321 0
M  V30 7442 H 672.309 -3.58474 1.01623 0
M  V30 7443 H 672.422 -3.82491 2.88509 0
M  V30 7444 H 670.786 -2.09021 1.45542 0
M  V30 7445 H 671.569 -1.58089 3.04734 0
M  V30 7446 N 674.014 -1.12206 -1.10668 0
M  V30 7447 C 675.242 -0.898635 -1.86366 0
M  V30 7448 C 675.657 0.551991 -1.80551 0
M  V30 7449 O 675.014 1.38152 -1.19249 0
M  V30 7450 C 675.065 -1.36199 -3.34861 0
M  V30 7451 O 674.786 -2.75576 -3.40573 0
M  V30 7452 C 676.287 -1.17515 -4.2744 0
M  V30 7453 H 673.507 -0.321281 -0.589084 0
M  V30 7454 H 676.051 -1.49142 -1.39918 0
M  V30 7455 H 674.206 -0.81249 -3.78784 0
M  V30 7456 H 674.62 -2.95851 -4.33096 0
M  V30 7457 H 676.094 -1.54827 -5.29842 0
M  V30 7458 H 676.571 -0.115486 -4.39048 0
M  V30 7459 H 677.177 -1.71203 -3.89319 0
M  V30 7460 N 675.492 1.28418 -0.913599 0
M  V30 7461 C 676.722 1.98817 -0.56172 0
M  V30 7462 C 677.13 1.68457 0.861321 0
M  V30 7463 O 676.473 0.933653 1.58204 0
M  V30 7464 C 676.535 3.52801 -0.690785 0
M  V30 7465 C 676.199 4.0675 -2.08334 0
M  V30 7466 C 677.196 4.20597 -3.05604 0
M  V30 7467 C 674.881 4.41445 -2.39648 0
M  V30 7468 C 676.875 4.68392 -4.32305 0
M  V30 7469 C 674.562 4.88934 -3.66588 0
M  V30 7470 C 675.56 5.02364 -4.6273 0
M  V30 7471 O 675.248 5.48817 -5.87414 0
M  V30 7472 H 674.98 0.641608 -0.212874 0
M  V30 7473 H 677.534 1.64584 -1.22887 0
M  V30 7474 H 675.764 3.86686 0.0334336 0
M  V30 7475 H 677.453 4.04422 -0.346031 0
M  V30 7476 H 678.219 3.94067 -2.8273 0
M  V30 7477 H 674.098 4.30242 -1.65567 0
M  V30 7478 H 677.642 4.7879 -5.07352 0
M  V30 7479 H 673.539 5.14904 -3.89287 0
M  V30 7480 H 674.307 5.67103 -5.90201 0
M  V30 7481 N 676.97 0.677563 1.42291 0
M  V30 7482 C 677.903 -0.0492638 2.28147 0
M  V30 7483 C 678.881 -0.805936 1.41221 0
M  V30 7484 O 680.065 -0.80049 1.70659 0
M  V30 7485 C 677.192 -1.07697 3.21122 0
M  V30 7486 C 676.238 -0.41556 4.24471 0
M  V30 7487 S 677.071 0.828876 5.29046 0
M  V30 7488 C 678.227 -0.197687 6.25588 0
M  V30 7489 H 678.46 0.678965 2.89443 0
M  V30 7490 H 675.993 0.467201 1.47162 0
M  V30 7491 H 677.951 -1.66482 3.75225 0
M  V30 7492 H 676.612 -1.77766 2.58956 0
M  V30 7493 H 675.805 -1.19112 4.89723 0
M  V30 7494 H 675.407 0.0987632 3.7387 0
M  V30 7495 H 677.699 -1.05656 6.69211 0
M  V30 7496 H 678.642 0.420437 7.06851 0
M  V30 7497 H 679.05 -0.544401 5.61869 0
M  V30 7498 N 678.448 -1.51871 0.421078 0
M  V30 7499 C 679.395 -2.27334 -0.398508 0
M  V30 7500 C 680.365 -1.30241 -1.03085 0
M  V30 7501 O 681.55 -1.59121 -1.05285 0
M  V30 7502 C 678.69 -3.10664 -1.50272 0
M  V30 7503 C 677.803 -4.2273 -0.890122 0
M  V30 7504 C 676.938 -4.93399 -1.96803 0
M  V30 7505 C 675.977 -5.97409 -1.333 0
M  V30 7506 N 675.114 -6.61548 -2.35156 0
M  V30 7507 H 679.954 -2.96938 0.251411 0
M  V30 7508 H 677.491 -1.46472 0.135825 0
M  V30 7509 H 679.449 -3.57292 -2.15403 0
M  V30 7510 H 678.079 -2.43207 -2.1225 0
M  V30 7511 H 677.131 -3.80186 -0.127537 0
M  V30 7512 H 678.443 -4.97302 -0.386349 0
M  V30 7513 H 677.597 -5.43491 -2.69633 0
M  V30 7514 H 676.336 -4.18421 -2.50549 0
M  V30 7515 H 675.341 -5.46624 -0.59008 0
M  V30 7516 H 676.566 -6.74335 -0.803076 0
M  V30 7517 H 674.512 -5.89394 -2.88012 0
M  V30 7518 H 674.429 -7.31832 -1.89624 0
M  V30 7519 H 675.697 -7.16276 -3.0752 0
M  V30 7520 N 679.926 -0.151884 -1.56866 0
M  V30 7521 C 680.889 0.771861 -2.15812 0
M  V30 7522 C 681.889 1.17181 -1.10115 0
M  V30 7523 O 683.079 1.09194 -1.35729 0
M  V30 7524 C 680.211 2.04806 -2.7252 0
M  V30 7525 H 681.404 0.259021 -2.98779 0
M  V30 7526 H 678.957 0.097588 -1.55995 0
M  V30 7527 H 679.692 2.60445 -1.93233 0
M  V30 7528 H 679.477 1.77044 -3.49854 0
M  V30 7529 H 680.967 2.70771 -3.1792 0
M  V30 7530 N 681.404 1.57128 0.121893 0
M  V30 7531 C 682.652 1.84335 0.828548 0
M  V30 7532 C 682.973 0.736632 1.80551 0
M  V30 7533 O 682.243 -0.23962 1.94429 0
M  V30 7534 H 680.823 0.680108 0.30897 0
M  V30 7535 H 683.485 1.9459 0.109906 0
M  V30 7536 H 682.581 2.80152 1.37554 0
M  V30 7537 N 682.882 -0.391992 1.52647 0
M  V30 7538 C 683.829 -1.47866 1.77213 0
M  V30 7539 C 684.799 -1.54286 0.615223 0
M  V30 7540 O 685.984 -1.7059 0.854622 0
M  V30 7541 C 683.124 -2.85129 1.94411 0
M  V30 7542 C 682.237 -2.87883 3.22098 0
M  V30 7543 C 681.372 -4.16553 3.29631 0
M  V30 7544 C 680.411 -4.13348 4.51453 0
M  V30 7545 N 679.548 -5.33619 4.56284 0
M  V30 7546 H 684.388 -1.26219 2.6995 0
M  V30 7547 H 681.925 -0.612367 1.33748 0
M  V30 7548 H 683.883 -3.64833 2.02367 0
M  V30 7549 H 682.513 -3.05232 1.05038 0
M  V30 7550 H 681.565 -2.00567 3.23229 0
M  V30 7551 H 682.877 -2.81382 4.11856 0
M  V30 7552 H 682.031 -5.0466 3.36753 0
M  V30 7553 H 680.77 -4.25773 2.37842 0
M  V30 7554 H 679.775 -3.23629 4.44459 0
M  V30 7555 H 681 -4.05754 5.44555 0
M  V30 7556 H 678.946 -5.43474 3.67385 0
M  V30 7557 H 678.863 -5.29182 5.3991 0
M  V30 7558 H 680.131 -6.23632 4.67657 0
M  V30 7559 N 684.36 -1.4356 -0.65026 0
M  V30 7560 C 685.29 -1.51758 -1.77459 0
M  V30 7561 C 686.271 -0.372019 -1.65982 0
M  V30 7562 O 687.456 -0.589627 -1.85033 0
M  V30 7563 C 684.586 -1.44302 -3.15902 0
M  V30 7564 C 683.54 -2.57138 -3.42146 0
M  V30 7565 C 682.866 -2.34735 -4.8042 0
M  V30 7566 C 684.166 -3.99373 -3.36598 0
M  V30 7567 H 685.86 -2.45863 -1.70855 0
M  V30 7568 H 683.406 -1.18333 -0.820566 0
M  V30 7569 H 685.359 -1.48641 -3.94314 0
M  V30 7570 H 684.083 -0.467026 -3.23244 0
M  V30 7571 H 682.742 -2.52157 -2.66106 0
M  V30 7572 H 682.39 -1.35372 -4.84441 0
M  V30 7573 H 682.09 -3.10375 -4.9894 0
M  V30 7574 H 683.614 -2.40862 -5.61086 0
M  V30 7575 H 685.028 -4.05826 -4.04942 0
M  V30 7576 H 683.425 -4.75063 -3.66654 0
M  V30 7577 H 684.495 -4.243 -2.34729 0
M  V30 7578 O 685.877 0.793351 -1.40671 0
M  V30 7579 H 686.568 1.43915 -1.29646 0
M  V30 END ATOM
M  V30 BEGIN BOND
M  V30 END BOND
M  V30 END CTAB
M  END
$$$$
