drugbank_target|P23882 Methionyl-tRNA formyltransferase (DB04464)
 OpenBabel12092120463D

  0  0  0     0  0            999 V3000
M  V30 BEGIN CTAB
M  V30 COUNTS 7018 7483 0 0 0
M  V30 BEGIN ATOM
M  V30 1 H -2.588 8.49073 -0.0679273 0
M  V30 2 O -1.492 9.37262 0.0843559 0
M  V30 3 P 0 8.791 0 0
M  V30 4 O 1.422 9.31096 0.027933 0
M  V30 5 O -0.36 7.77869 -1.04071 0
M  V30 6 O -0.323 8.09533 1.41463 0
M  V30 7 C -0.483 9.0349 2.53943 0
M  V30 8 C 0.057 8.35226 3.79016 0
M  V30 9 O -0.999 7.57992 4.15078 0
M  V30 10 C 1.275 7.45087 3.67298 0
M  V30 11 O 2.013 7.27796 4.85194 0
M  V30 12 C 0.606 6.17323 3.12027 0
M  V30 13 O 1.405 5.04231 3.47188 0
M  V30 14 C -0.731 6.19961 3.81809 0
M  V30 15 H -0.699 5.58218 4.73051 0
M  V30 16 H 0.484 6.21726 2.02589 0
M  V30 17 H 1.968 7.86112 2.9231 0
M  V30 18 H 0.274 9.11627 4.55076 0
M  V30 19 H 0.084 9.9573 2.34194 0
M  V30 20 H -1.546 9.2792 2.67832 0
M  V30 21 H 1.093 4.67702 4.28772 0
M  V30 22 P 2.95057 7.39546 4.75277 0
M  V30 23 O 4.37257 7.81777 5.05738 0
M  V30 24 O 2.59057 7.1065 3.32998 0
M  V30 25 O 2.62757 6.04542 5.56673 0
M  V30 26 C 2.46757 6.22772 7.02095 0
M  V30 27 C 3.00757 4.97725 7.70406 0
M  V30 28 O 1.95157 4.13256 7.58987 0
M  V30 29 C 4.22557 4.28231 7.11815 0
M  V30 30 O 4.96357 3.49945 8.01648 0
M  V30 31 C 3.55657 3.5063 5.96244 0
M  V30 32 O 4.35557 2.36482 5.64681 0
M  V30 33 C 2.21957 3.15122 6.56374 0
M  V30 34 H 2.25157 2.13853 6.99751 0
M  V30 35 H 3.43457 4.13501 5.06559 0
M  V30 36 H 4.91857 5.03285 6.70911 0
M  V30 37 H 3.22457 5.20877 8.75697 0
M  V30 38 H 3.03457 7.11046 7.35349 0
M  V30 39 H 1.40457 6.35815 7.26986 0
M  V30 40 H 4.04357 1.61644 6.13565 0
M  V30 41 P 5.90114 3.65191 7.99657 0
M  V30 42 O 7.32314 3.8425 8.48115 0
M  V30 43 O 5.54114 4.17805 6.64342 0
M  V30 44 O 5.57814 2.07613 7.95143 0
M  V30 45 C 5.41814 1.44328 9.27336 0
M  V30 46 C 5.95814 0.0220036 9.17197 0
M  V30 47 O 4.90214 -0.626867 8.61923 0
M  V30 48 C 7.17614 -0.24586 8.30336 0
M  V30 49 O 7.91414 -1.39011 8.63583 0
M  V30 50 C 6.50714 -0.273849 6.91158 0
M  V30 51 O 7.30614 -1.06348 6.02892 0
M  V30 52 C 5.17014 -0.897649 7.22545 0
M  V30 53 H 5.20214 -1.9841 7.04286 0
M  V30 54 H 6.38514 0.739928 6.497 0
M  V30 55 H 7.86914 0.60668 8.36503 0
M  V30 56 H 6.17514 -0.352479 10.1829 0
M  V30 57 H 5.98514 2.00611 10.0304 0
M  V30 58 H 4.35514 1.41843 9.55327 0
M  V30 59 H 6.99414 -1.95734 6.03555 0
M  V30 60 P 8.85171 -1.25109 8.70152 0
M  V30 61 O 10.2737 -1.35274 9.21221 0
M  V30 62 O 8.49171 -0.0769065 7.84762 0
M  V30 63 O 8.52871 -2.55232 7.81161 0
M  V30 64 C 8.36871 -3.79939 8.58154 0
M  V30 65 C 8.90871 -4.94023 7.72785 0
M  V30 66 O 7.85271 -5.18726 6.91205 0
M  V30 67 C 10.1267 -4.69597 6.85231 0
M  V30 68 O 10.8647 -5.83832 6.51337 0
M  V30 69 C 9.45771 -3.96706 5.66633 0
M  V30 70 O 10.2567 -4.15414 4.49689 0
M  V30 71 C 8.12071 -4.66153 5.59313 0
M  V30 72 H 8.15271 -5.47679 4.85214 0
M  V30 73 H 9.33571 -2.89008 5.86566 0
M  V30 74 H 10.8197 -4.0121 7.36511 0
M  V30 75 H 9.12571 -5.80182 8.37584 0
M  V30 76 H 8.93571 -3.73517 9.52265 0
M  V30 77 H 7.30571 -3.97163 8.80359 0
M  V30 78 H 9.94471 -4.90969 4.01921 0
M  V30 79 P 11.8023 -5.75688 6.64379 0
M  V30 80 O 13.2243 -6.11849 7.01846 0
M  V30 81 O 11.4423 -4.30744 6.56026 0
M  V30 82 O 11.4793 -6.37042 5.19165 0
M  V30 83 C 11.3193 -7.83578 5.16515 0
M  V30 84 C 11.8593 -8.33398 3.83019 0
M  V30 85 O 10.8033 -8.10074 3.01034 0
M  V30 86 C 13.0773 -7.65514 3.2257 0
M  V30 87 O 13.8153 -8.4329 2.32297 0
M  V30 88 C 12.4083 -6.40075 2.62207 0
M  V30 89 O 13.2073 -5.92589 1.53712 0
M  V30 90 C 11.0713 -6.9454 2.18503 0
M  V30 91 H 11.1033 -7.23063 1.12091 0
M  V30 92 H 12.2863 -5.6025 3.37201 0
M  V30 93 H 13.7703 -7.35707 4.02681 0
M  V30 94 H 12.0763 -9.40912 3.9095 0
M  V30 95 H 11.8863 -8.29056 5.99158 0
M  V30 96 H 10.2563 -8.10073 5.25882 0
M  V30 97 H 12.8953 -6.30324 0.726794 0
M  V30 98 P 14.7528 -8.4349 2.47671 0
M  V30 99 O 16.1738 -8.94263 2.59668 0
M  V30 100 O 14.3928 -7.1704 3.19006 0
M  V30 101 O 14.4298 -8.16596 0.923387 0
M  V30 102 C 14.2688 -9.38537 0.108869 0
M  V30 103 C 14.8098 -9.08175 -1.28353 0
M  V30 104 O 13.7548 -8.44131 -1.84692 0
M  V30 105 C 16.0278 -8.18386 -1.42505 0
M  V30 106 O 16.7659 -8.3501 -2.60497 0
M  V30 107 C 15.3598 -6.80225 -1.25468 0
M  V30 108 O 16.1578 -5.81716 -1.90454 0
M  V30 109 C 14.0218 -7.02416 -1.9168 0
M  V30 110 N 12.9788 -6.31033 -1.20314 0
M  V30 111 C 13.1478 -5.98817 0.0994088 0
M  V30 112 N 12.1208 -5.35403 0.621694 0
M  V30 113 C 11.2358 -5.25212 -0.43376 0
M  V30 114 C 9.96885 -4.64602 -0.519722 0
M  V30 115 N 9.40385 -4.7568 -1.76013 0
M  V30 116 C 10.0058 -5.3653 -2.83017 0
M  V30 117 N 11.1828 -5.93676 -2.79782 0
M  V30 118 C 11.7578 -5.84061 -1.56249 0
M  V30 119 H 15.2368 -6.53498 -0.198729 0
M  V30 120 H 16.7198 -8.36622 -0.589963 0
M  V30 121 H 15.0258 -10.0273 -1.8081 0
M  V30 122 H 14.8358 -10.2138 0.558219 0
M  V30 123 H 13.2058 -9.6579 0.0444202 0
M  V30 124 H 14.0478 -6.23209 0.660562 0
M  V30 125 H 15.8458 -5.69466 -2.79593 0
M  V30 126 P 17.7034 -8.4349 -2.47671 0
M  V30 127 O 19.1254 -8.92593 -2.65 0
M  V30 128 O 17.3434 -7.7568 -1.19296 0
M  V30 129 O 17.3804 -7.36886 -3.63805 0
M  V30 130 C 17.2204 -7.95349 -4.982 0
M  V30 131 C 17.7604 -6.94612 -5.98974 0
M  V30 132 O 16.7044 -6.10347 -6.11815 0
M  V30 133 C 18.9784 -6.11426 -5.62335 0
M  V30 134 O 19.7164 -5.6162 -6.70584 0
M  V30 135 C 18.3094 -5.04409 -4.73308 0
M  V30 136 O 19.1084 -3.85992 -4.75183 0
M  V30 137 C 16.9724 -4.8728 -5.41006 0
M  V30 138 H 17.0044 -4.02333 -6.11157 0
M  V30 139 H 18.1874 -5.39466 -3.69543 0
M  V30 140 H 19.6714 -6.71916 -5.01943 0
M  V30 141 H 17.9774 -7.4649 -6.93477 0
M  V30 142 H 17.7874 -8.89416 -5.05237 0
M  V30 143 H 16.1574 -8.14876 -5.18409 0
M  V30 144 H 18.7964 -3.27957 -5.4317 0
M  V30 145 P 20.654 -5.75688 -6.64379 0
M  V30 146 O 22.076 -6.07627 -7.05504 0
M  V30 147 O 20.294 -5.88047 -5.19722 0
M  V30 148 O 20.331 -4.2322 -7.04443 0
M  V30 149 C 20.171 -3.99743 -8.4911 0
M  V30 150 C 20.711 -2.60516 -8.79425 0
M  V30 151 O 19.655 -1.82684 -8.4467 0
M  V30 152 C 21.929 -2.10343 -8.03628 0
M  V30 153 O 22.667 -1.09919 -8.67766 0
M  V30 154 C 21.26 -1.68446 -6.70876 0
M  V30 155 O 22.059 -0.678137 -6.08433 0
M  V30 156 C 19.923 -1.17436 -7.18567 0
M  V30 157 H 19.955 -0.0804732 -7.31656 0
M  V30 158 H 21.138 -2.54037 -6.02537 0
M  V30 159 H 22.622 -2.93881 -7.85526 0
M  V30 160 H 20.928 -2.53065 -9.86973 0
M  V30 161 H 20.738 -4.75072 -9.05887 0
M  V30 162 H 19.108 -4.05244 -8.76668 0
M  V30 163 H 21.747 0.177647 -6.34251 0
M  V30 164 P 23.6046 -1.25109 -8.70152 0
M  V30 165 O 25.0266 -1.29744 -9.22016 0
M  V30 166 O 23.2446 -2.13714 -7.55141 0
M  V30 167 O 23.2816 0.248149 -8.21425 0
M  V30 168 C 23.1216 1.22779 -9.30434 0
M  V30 169 C 23.6616 2.56293 -8.80664 0
M  V30 170 O 22.6056 3.02979 -8.09349 0
M  V30 171 C 24.8796 2.57523 -7.89775 0
M  V30 172 O 25.6176 3.7668 -7.89438 0
M  V30 173 C 24.2106 2.20997 -6.55446 0
M  V30 174 O 25.0096 2.71895 -5.48509 0
M  V30 175 C 22.8736 2.89693 -6.67988 0
M  V30 176 H 22.9056 3.88793 -6.19859 0
M  V30 177 H 24.0886 1.12046 -6.44229 0
M  V30 178 H 25.5726 1.7746 -8.19711 0
M  V30 179 H 23.8786 3.20706 -9.67112 0
M  V30 180 H 23.6886 0.901032 -10.1892 0
M  V30 181 H 22.0586 1.33049 -9.56592 0
M  V30 182 H 24.6976 3.57847 -5.23962 0
M  V30 183 P 26.5551 3.65191 -7.99657 0
M  V30 184 O 27.9761 3.89374 -8.45885 0
M  V30 185 O 26.1951 2.28472 -7.50807 0
M  V30 186 O 26.2321 4.64972 -6.77611 0
M  V30 187 C 26.0711 6.06383 -7.16428 0
M  V30 188 C 26.6121 6.91731 -6.02299 0
M  V30 189 O 25.5571 6.92369 -5.17005 0
M  V30 190 C 27.8301 6.43627 -5.25174 0
M  V30 191 O 28.5681 7.43686 -4.60469 0
M  V30 192 C 27.1621 5.40275 -4.31916 0
M  V30 193 O 27.9601 5.24878 -3.14911 0
M  V30 194 C 25.8241 6.04847 -4.05327 0
M  V30 195 N 24.7811 5.04166 -3.98114 0
M  V30 196 C 24.9501 3.84629 -4.59066 0
M  V30 197 N 23.9231 3.0363 -4.45343 0
M  V30 198 C 23.0381 3.76722 -3.68523 0
M  V30 199 C 21.7711 3.43528 -3.17088 0
M  V30 200 N 21.1721 2.23665 -3.37397 0
M  V30 201 N 21.2061 4.44526 -2.44231 0
M  V30 202 C 21.8081 5.65243 -2.20146 0
M  V30 203 N 22.9851 6.00221 -2.65453 0
M  V30 204 C 23.5601 5.00564 -3.39083 0
M  V30 205 H 25.8561 6.62104 -3.11218 0
M  V30 206 H 27.0391 4.42969 -4.80867 0
M  V30 207 H 28.5221 5.92458 -5.93643 0
M  V30 208 H 26.8281 7.93295 -6.39407 0
M  V30 209 H 26.6381 6.26671 -8.0846 0
M  V30 210 H 25.0081 6.29101 -7.32804 0
M  V30 211 H 21.2721 6.36894 -1.5883 0
M  V30 212 H 25.8501 3.58193 -5.14248 0
M  V30 213 H 20.2421 2.05145 -2.97047 0
M  V30 214 H 21.6461 1.51255 -3.92998 0
M  V30 215 H 27.6481 5.84223 -2.47279 0
M  V30 216 P 29.5057 7.39546 -4.75277 0
M  V30 217 O 30.9277 7.84966 -5.01146 0
M  V30 218 O 29.1457 5.9812 -5.08098 0
M  V30 219 O 29.1827 7.57503 -3.1866 0
M  V30 220 C 29.0227 8.97357 -2.74833 0
M  V30 221 C 29.5627 9.0745 -1.32694 0
M  V30 222 O 28.5077 8.62072 -0.606159 0
M  V30 223 C 30.7807 8.25383 -0.938334 0
M  V30 224 O 31.5187 8.74577 0.146954 0
M  V30 225 C 30.1127 6.8802 -0.712559 0
M  V30 226 O 30.9107 6.11791 0.194623 0
M  V30 227 C 28.7747 7.27966 -0.139777 0
M  V30 228 N 27.7317 6.39368 -0.623421 0
M  V30 229 C 27.7937 5.90299 -1.85969 0
M  V30 230 N 26.7487 5.10919 -2.1133 0
M  V30 231 C 26.0147 5.14646 -1.0015 0
M  V30 232 C 24.7087 4.60057 -0.729219 0
M  V30 233 O 23.9757 3.93476 -1.47746 0
M  V30 234 N 24.2787 4.88302 0.523505 0
M  V30 235 C 25.0277 5.63646 1.46207 0
M  V30 236 N 24.4307 5.78186 2.69239 0
M  V30 237 N 26.1807 6.19285 1.21544 0
M  V30 238 C 26.6377 5.93392 -0.0308487 0
M  V30 239 H 28.8067 7.25354 0.961601 0
M  V30 240 H 29.9897 6.3246 -1.65676 0
M  V30 241 H 31.4747 8.19533 -1.78278 0
M  V30 242 H 29.7797 10.1294 -1.10029 0
M  V30 243 H 29.5897 9.64276 -3.41316 0
M  V30 244 H 27.9587 9.25417 -2.76357 0
M  V30 245 H 23.3827 4.53993 0.806451 0
M  V30 246 H 28.5897 6.11865 -2.57394 0
M  V30 247 H 23.5197 5.34046 2.87467 0
M  V30 248 H 24.8957 6.33391 3.42578 0
M  V30 249 H 30.5997 6.25169 1.0783 0
M  V30 250 P 32.4563 8.791 -9.96115e-15 0
M  V30 251 O 33.8783 9.31096 0.027933 0
M  V30 252 O 32.0963 7.77869 -1.04071 0
M  V30 253 O 32.1333 8.09533 1.41463 0
M  V30 254 C 31.9733 9.0349 2.53943 0
M  V30 255 C 32.5133 8.35226 3.79016 0
M  V30 256 O 31.4573 7.57992 4.15078 0
M  V30 257 C 33.7313 7.45087 3.67298 0
M  V30 258 O 34.4693 7.27796 4.85194 0
M  V30 259 C 33.0623 6.17323 3.12027 0
M  V30 260 O 33.8613 5.04231 3.47188 0
M  V30 261 C 31.7253 6.19961 3.81809 0
M  V30 262 H 31.7573 5.58218 4.73051 0
M  V30 263 H 32.9403 6.21726 2.02589 0
M  V30 264 H 34.4243 7.86112 2.9231 0
M  V30 265 H 32.7303 9.11627 4.55076 0
M  V30 266 H 32.5403 9.9573 2.34194 0
M  V30 267 H 30.9103 9.2792 2.67832 0
M  V30 268 H 33.5493 4.67702 4.28772 0
M  V30 269 P 35.4068 7.39546 4.75277 0
M  V30 270 O 36.8288 7.81777 5.05738 0
M  V30 271 O 35.0468 7.1065 3.32998 0
M  V30 272 O 35.0838 6.04542 5.56673 0
M  V30 273 C 34.9238 6.22772 7.02095 0
M  V30 274 C 35.4638 4.97725 7.70406 0
M  V30 275 O 34.4078 4.13256 7.58987 0
M  V30 276 C 36.6818 4.28231 7.11815 0
M  V30 277 O 37.4198 3.49945 8.01648 0
M  V30 278 C 36.0128 3.5063 5.96244 0
M  V30 279 O 36.8118 2.36482 5.64681 0
M  V30 280 C 34.6758 3.15122 6.56374 0
M  V30 281 H 34.7078 2.13853 6.99751 0
M  V30 282 H 35.8908 4.13501 5.06559 0
M  V30 283 H 37.3748 5.03285 6.70911 0
M  V30 284 H 35.6808 5.20877 8.75697 0
M  V30 285 H 35.4908 7.11046 7.35349 0
M  V30 286 H 33.8608 6.35815 7.26986 0
M  V30 287 H 36.4998 1.61644 6.13565 0
M  V30 288 P 38.3574 3.65191 7.99657 0
M  V30 289 O 39.7794 3.8425 8.48115 0
M  V30 290 O 37.9974 4.17805 6.64342 0
M  V30 291 O 38.0344 2.07613 7.95143 0
M  V30 292 C 37.8744 1.44328 9.27336 0
M  V30 293 C 38.4144 0.0220036 9.17197 0
M  V30 294 O 37.3584 -0.626867 8.61923 0
M  V30 295 C 39.6324 -0.24586 8.30336 0
M  V30 296 O 40.3704 -1.39011 8.63583 0
M  V30 297 C 38.9634 -0.273849 6.91158 0
M  V30 298 O 39.7624 -1.06348 6.02892 0
M  V30 299 C 37.6264 -0.897649 7.22545 0
M  V30 300 H 37.6584 -1.9841 7.04286 0
M  V30 301 H 38.8414 0.739928 6.497 0
M  V30 302 H 40.3254 0.60668 8.36503 0
M  V30 303 H 38.6314 -0.352479 10.1829 0
M  V30 304 H 38.4414 2.00611 10.0304 0
M  V30 305 H 36.8114 1.41843 9.55327 0
M  V30 306 H 39.4504 -1.95734 6.03555 0
M  V30 307 P 41.308 -1.25109 8.70152 0
M  V30 308 O 42.73 -1.35274 9.21221 0
M  V30 309 O 40.948 -0.0769065 7.84762 0
M  V30 310 O 40.985 -2.55232 7.81161 0
M  V30 311 C 40.825 -3.79939 8.58154 0
M  V30 312 C 41.365 -4.94023 7.72785 0
M  V30 313 O 40.309 -5.18726 6.91205 0
M  V30 314 C 42.583 -4.69597 6.85231 0
M  V30 315 O 43.321 -5.83832 6.51337 0
M  V30 316 C 41.914 -3.96706 5.66633 0
M  V30 317 O 42.713 -4.15414 4.49689 0
M  V30 318 C 40.577 -4.66153 5.59313 0
M  V30 319 H 40.609 -5.47679 4.85214 0
M  V30 320 H 41.792 -2.89008 5.86566 0
M  V30 321 H 43.276 -4.0121 7.36511 0
M  V30 322 H 41.582 -5.80182 8.37584 0
M  V30 323 H 41.392 -3.73517 9.52265 0
M  V30 324 H 39.762 -3.97163 8.80359 0
M  V30 325 H 42.401 -4.90969 4.01921 0
M  V30 326 P 44.2585 -5.75688 6.64379 0
M  V30 327 O 45.6795 -6.11915 7.01921 0
M  V30 328 O 43.8985 -4.30744 6.56026 0
M  V30 329 O 43.9355 -6.37042 5.19165 0
M  V30 330 C 43.7745 -7.83662 5.1657 0
M  V30 331 C 44.3155 -8.33398 3.83019 0
M  V30 332 O 43.2605 -8.0998 3.00999 0
M  V30 333 C 45.5335 -7.65514 3.2257 0
M  V30 334 O 46.2715 -8.4329 2.32297 0
M  V30 335 C 44.8655 -6.40075 2.62207 0
M  V30 336 O 45.6635 -5.92338 1.5428 0
M  V30 337 C 43.5275 -6.9454 2.18503 0
M  V30 338 N 42.4845 -5.95905 2.39948 0
M  V30 339 C 42.6535 -4.98383 3.32108 0
M  V30 340 N 41.6265 -4.16798 3.41761 0
M  V30 341 C 40.7415 -4.65287 2.47461 0
M  V30 342 C 39.4745 -4.18946 2.07461 0
M  V30 343 N 38.8755 -3.09661 2.60717 0
M  V30 344 N 38.9095 -4.95327 1.09101 0
M  V30 345 C 39.5115 -6.04369 0.519812 0
M  V30 346 N 40.6885 -6.50694 0.855982 0
M  V30 347 C 41.2635 -5.75818 1.84322 0
M  V30 348 H 43.5595 -7.22964 1.12076 0
M  V30 349 H 44.7425 -5.60502 3.36589 0
M  V30 350 H 46.2255 -7.35707 4.02681 0
M  V30 351 H 44.5315 -9.41302 3.90009 0
M  V30 352 H 44.3415 -8.29056 5.99158 0
M  V30 353 H 42.7115 -8.10073 5.25882 0
M  V30 354 H 38.9755 -6.55843 -0.270373 0
M  V30 355 H 43.5535 -4.88564 3.92502 0
M  V30 356 H 37.9455 -2.80523 2.27218 0
M  V30 357 H 39.3495 -2.55848 3.34465 0
M  V30 358 H 45.3515 -6.30224 0.72668 0
M  V30 359 P 47.2091 -8.4349 2.47671 0
M  V30 360 O 48.6301 -8.94263 2.59668 0
M  V30 361 O 46.8491 -7.1704 3.19006 0
M  V30 362 O 46.8861 -8.16596 0.923387 0
M  V30 363 C 46.7251 -9.38537 0.108869 0
M  V30 364 C 47.2661 -9.08175 -1.28353 0
M  V30 365 O 46.2111 -8.44131 -1.84692 0
M  V30 366 C 48.4841 -8.18386 -1.42505 0
M  V30 367 O 49.2221 -8.3501 -2.60497 0
M  V30 368 C 47.8161 -6.80225 -1.25468 0
M  V30 369 O 48.6141 -5.81716 -1.90454 0
M  V30 370 C 46.4781 -7.02416 -1.9168 0
M  V30 371 N 45.4351 -6.31033 -1.20314 0
M  V30 372 C 45.6041 -5.98817 0.0994088 0
M  V30 373 N 44.5771 -5.35403 0.621694 0
M  V30 374 C 43.6921 -5.25212 -0.43376 0
M  V30 375 C 42.4251 -4.64602 -0.519722 0
M  V30 376 N 41.8261 -4.01457 0.519136 0
M  V30 377 N 41.8601 -4.7568 -1.76013 0
M  V30 378 C 42.4621 -5.3653 -2.83017 0
M  V30 379 N 43.6391 -5.93676 -2.79782 0
M  V30 380 C 44.2141 -5.84061 -1.56249 0
M  V30 381 H 46.5101 -6.68789 -2.9658 0
M  V30 382 H 47.6931 -6.53498 -0.198729 0
M  V30 383 H 49.1761 -8.36622 -0.589963 0
M  V30 384 H 47.4821 -10.0273 -1.8081 0
M  V30 385 H 47.2921 -10.2138 0.558219 0
M  V30 386 H 45.6621 -9.6579 0.0444202 0
M  V30 387 H 41.9261 -5.37113 -3.77321 0
M  V30 388 H 46.5041 -6.23209 0.660562 0
M  V30 389 H 40.8961 -3.58834 0.394862 0
M  V30 390 H 42.3001 -3.96059 1.43048 0
M  V30 391 H 48.3021 -5.69466 -2.79593 0
M  V30 392 P 50.1597 -8.4349 -2.47671 0
M  V30 393 O 51.5807 -8.92689 -2.65029 0
M  V30 394 O 49.7997 -7.7568 -1.19296 0
M  V30 395 O 49.8367 -7.36886 -3.63805 0
M  V30 396 C 49.6757 -7.95433 -4.98253 0
M  V30 397 C 50.2167 -6.94612 -5.98974 0
M  V30 398 O 49.1617 -6.10277 -6.11744 0
M  V30 399 C 51.4347 -6.11426 -5.62335 0
M  V30 400 O 52.1727 -5.6162 -6.70584 0
M  V30 401 C 50.7667 -5.04409 -4.73308 0
M  V30 402 O 51.5647 -3.86404 -4.74719 0
M  V30 403 C 49.4287 -4.8728 -5.41006 0
M  V30 404 N 48.3857 -4.65812 -4.42377 0
M  V30 405 C 48.5547 -5.09132 -3.15382 0
M  V30 406 N 47.5277 -4.84021 -2.3716 0
M  V30 407 C 46.6427 -4.18386 -3.20441 0
M  V30 408 C 45.3757 -3.6275 -2.94905 0
M  V30 409 N 44.8107 -3.05008 -4.05243 0
M  V30 410 C 45.4127 -2.98348 -5.28159 0
M  V30 411 N 46.5897 -3.48171 -5.56333 0
M  V30 412 C 47.1647 -4.06869 -4.47212 0
M  V30 413 H 50.6437 -5.39013 -3.70026 0
M  V30 414 H 52.1267 -6.71916 -5.01943 0
M  V30 415 H 50.4327 -7.45796 -6.94223 0
M  V30 416 H 50.2427 -8.89416 -5.05237 0
M  V30 417 H 48.6127 -8.14876 -5.18409 0
M  V30 418 H 49.4547 -5.59989 -2.81362 0
M  V30 419 H 51.2527 -3.27906 -5.43085 0
M  V30 420 P 53.1103 -5.75688 -6.64379 0
M  V30 421 O 54.5323 -6.07627 -7.05504 0
M  V30 422 O 52.7503 -5.88047 -5.19722 0
M  V30 423 O 52.7873 -4.2322 -7.04443 0
M  V30 424 C 52.6273 -3.99743 -8.4911 0
M  V30 425 C 53.1673 -2.60516 -8.79425 0
M  V30 426 O 52.1113 -1.82684 -8.4467 0
M  V30 427 C 54.3853 -2.10343 -8.03628 0
M  V30 428 O 55.1233 -1.09919 -8.67766 0
M  V30 429 C 53.7163 -1.68446 -6.70876 0
M  V30 430 O 54.5153 -0.678137 -6.08433 0
M  V30 431 C 52.3793 -1.17436 -7.18567 0
M  V30 432 H 52.4113 -0.0804732 -7.31656 0
M  V30 433 H 53.5943 -2.54037 -6.02537 0
M  V30 434 H 55.0783 -2.93881 -7.85526 0
M  V30 435 H 53.3843 -2.53065 -9.86973 0
M  V30 436 H 53.1943 -4.75072 -9.05887 0
M  V30 437 H 51.5643 -4.05244 -8.76668 0
M  V30 438 H 54.2033 0.177647 -6.34251 0
M  V30 439 P 56.0608 -1.25109 -8.70152 0
M  V30 440 O 57.4828 -1.29744 -9.22016 0
M  V30 441 O 55.7008 -2.13714 -7.55141 0
M  V30 442 O 55.7378 0.248149 -8.21425 0
M  V30 443 C 55.5778 1.22779 -9.30434 0
M  V30 444 C 56.1178 2.56293 -8.80664 0
M  V30 445 O 55.0618 3.02979 -8.09349 0
M  V30 446 C 57.3358 2.57523 -7.89775 0
M  V30 447 O 58.0738 3.7668 -7.89438 0
M  V30 448 C 56.6668 2.20997 -6.55446 0
M  V30 449 O 57.4658 2.71895 -5.48509 0
M  V30 450 C 55.3298 2.89693 -6.67988 0
M  V30 451 H 55.3618 3.88793 -6.19859 0
M  V30 452 H 56.5448 1.12046 -6.44229 0
M  V30 453 H 58.0288 1.7746 -8.19711 0
M  V30 454 H 56.3348 3.20706 -9.67112 0
M  V30 455 H 56.1448 0.901032 -10.1892 0
M  V30 456 H 54.5148 1.33049 -9.56592 0
M  V30 457 H 57.1538 3.57847 -5.23962 0
M  V30 458 P 59.0114 3.65191 -7.99657 0
M  V30 459 O 60.4334 3.89332 -8.45794 0
M  V30 460 O 58.6514 2.28472 -7.50807 0
M  V30 461 O 58.6884 4.64972 -6.77611 0
M  V30 462 C 58.5284 6.06319 -7.16352 0
M  V30 463 C 59.0684 6.91731 -6.02299 0
M  V30 464 O 58.0124 6.92449 -5.17064 0
M  V30 465 C 60.2864 6.43627 -5.25174 0
M  V30 466 O 61.0244 7.43686 -4.60469 0
M  V30 467 C 59.6174 5.40275 -4.31916 0
M  V30 468 O 60.4164 5.25279 -3.14438 0
M  V30 469 C 58.2804 6.04847 -4.05327 0
M  V30 470 H 58.3124 6.62195 -3.11261 0
M  V30 471 H 59.4954 4.42556 -4.81383 0
M  V30 472 H 60.9794 5.92458 -5.93643 0
M  V30 473 H 59.2854 7.92655 -6.402 0
M  V30 474 H 59.0954 6.26671 -8.0846 0
M  V30 475 H 57.4654 6.29101 -7.32804 0
M  V30 476 H 60.1044 5.84315 -2.47318 0
M  V30 477 P 61.962 7.39546 -4.75277 0
M  V30 478 O 63.383 7.84882 -5.01092 0
M  V30 479 O 61.602 5.9812 -5.08098 0
M  V30 480 O 61.639 7.57503 -3.1866 0
M  V30 481 C 61.478 8.97452 -2.74862 0
M  V30 482 C 62.019 9.07548 -1.32709 0
M  V30 483 O 60.964 8.61972 -0.606089 0
M  V30 484 C 63.237 8.25383 -0.938334 0
M  V30 485 O 63.975 8.74577 0.146954 0
M  V30 486 C 62.569 6.8802 -0.712559 0
M  V30 487 O 63.367 6.1181 0.188505 0
M  V30 488 C 61.231 7.27966 -0.139777 0
M  V30 489 N 60.188 6.39368 -0.623421 0
M  V30 490 C 60.357 5.71761 -1.78245 0
M  V30 491 N 59.33 4.962 -2.10491 0
M  V30 492 C 58.445 5.16158 -1.0635 0
M  V30 493 C 57.178 4.60425 -0.810266 0
M  V30 494 N 56.579 3.7057 -1.62914 0
M  V30 495 N 56.613 5.06 0.348685 0
M  V30 496 C 57.215 5.94532 1.20395 0
M  V30 497 N 58.392 6.48452 1.01191 0
M  V30 498 C 58.967 6.04423 -0.146291 0
M  V30 499 H 61.263 7.25255 0.961469 0
M  V30 500 H 62.446 6.32625 -1.65044 0
M  V30 501 H 63.929 8.19355 -1.79097 0
M  V30 502 H 62.235 10.1305 -1.09016 0
M  V30 503 H 62.045 9.64276 -3.41316 0
M  V30 504 H 60.415 9.25417 -2.76357 0
M  V30 505 H 56.679 6.21659 2.10714 0
M  V30 506 H 61.257 5.79354 -2.38959 0
M  V30 507 H 55.649 3.33174 -1.38982 0
M  V30 508 H 57.053 3.39714 -2.48836 0
M  V30 509 H 63.055 6.25169 1.0783 0
M  V30 510 P 64.9125 8.791 -3.55383e-14 0
M  V30 511 O 66.3345 9.31096 0.027933 0
M  V30 512 O 64.5525 7.77869 -1.04071 0
M  V30 513 O 64.5895 8.09533 1.41463 0
M  V30 514 C 64.4295 9.0349 2.53943 0
M  V30 515 C 64.9695 8.35226 3.79016 0
M  V30 516 O 63.9135 7.57992 4.15078 0
M  V30 517 C 66.1875 7.45087 3.67298 0
M  V30 518 O 66.9255 7.27796 4.85194 0
M  V30 519 C 65.5185 6.17323 3.12027 0
M  V30 520 O 66.3175 5.04231 3.47188 0
M  V30 521 C 64.1815 6.19961 3.81809 0
M  V30 522 H 64.2135 5.58218 4.73051 0
M  V30 523 H 65.3965 6.21726 2.02589 0
M  V30 524 H 66.8805 7.86112 2.9231 0
M  V30 525 H 65.1865 9.11627 4.55076 0
M  V30 526 H 64.9965 9.9573 2.34194 0
M  V30 527 H 63.3665 9.2792 2.67832 0
M  V30 528 H 66.0055 4.67702 4.28772 0
M  V30 529 P 67.8631 7.39546 4.75277 0
M  V30 530 O 69.2851 7.81777 5.05738 0
M  V30 531 O 67.5031 7.1065 3.32998 0
M  V30 532 O 67.5401 6.04542 5.56673 0
M  V30 533 C 67.3801 6.22772 7.02095 0
M  V30 534 C 67.9201 4.97725 7.70406 0
M  V30 535 O 66.8641 4.13256 7.58987 0
M  V30 536 C 69.1381 4.28231 7.11815 0
M  V30 537 O 69.8761 3.49945 8.01648 0
M  V30 538 C 68.4691 3.5063 5.96244 0
M  V30 539 O 69.2681 2.36482 5.64681 0
M  V30 540 C 67.1321 3.15122 6.56374 0
M  V30 541 H 67.1641 2.13853 6.99751 0
M  V30 542 H 68.3471 4.13501 5.06559 0
M  V30 543 H 69.8311 5.03285 6.70911 0
M  V30 544 H 68.1371 5.20877 8.75697 0
M  V30 545 H 67.9471 7.11046 7.35349 0
M  V30 546 H 66.3171 6.35815 7.26986 0
M  V30 547 H 68.9561 1.61644 6.13565 0
M  V30 548 P 70.8137 3.65191 7.99657 0
M  V30 549 O 72.2357 3.8425 8.48115 0
M  V30 550 O 70.4537 4.17805 6.64342 0
M  V30 551 O 70.4907 2.07613 7.95143 0
M  V30 552 C 70.3307 1.44328 9.27336 0
M  V30 553 C 70.8707 0.0220036 9.17197 0
M  V30 554 O 69.8147 -0.626867 8.61923 0
M  V30 555 C 72.0887 -0.24586 8.30336 0
M  V30 556 O 72.8267 -1.39011 8.63583 0
M  V30 557 C 71.4197 -0.273849 6.91158 0
M  V30 558 O 72.2187 -1.06348 6.02892 0
M  V30 559 C 70.0827 -0.897649 7.22545 0
M  V30 560 H 70.1147 -1.9841 7.04286 0
M  V30 561 H 71.2977 0.739928 6.497 0
M  V30 562 H 72.7817 0.60668 8.36503 0
M  V30 563 H 71.0877 -0.352479 10.1829 0
M  V30 564 H 70.8977 2.00611 10.0304 0
M  V30 565 H 69.2677 1.41843 9.55327 0
M  V30 566 H 71.9067 -1.95734 6.03555 0
M  V30 567 P 73.7642 -1.25109 8.70152 0
M  V30 568 O 75.1862 -1.35274 9.21221 0
M  V30 569 O 73.4042 -0.0769065 7.84762 0
M  V30 570 O 73.4412 -2.55232 7.81161 0
M  V30 571 C 73.2812 -3.79939 8.58154 0
M  V30 572 C 73.8212 -4.94023 7.72785 0
M  V30 573 O 72.7652 -5.18726 6.91205 0
M  V30 574 C 75.0392 -4.69597 6.85231 0
M  V30 575 O 75.7772 -5.83832 6.51337 0
M  V30 576 C 74.3702 -3.96706 5.66633 0
M  V30 577 O 75.1692 -4.15414 4.49689 0
M  V30 578 C 73.0332 -4.66153 5.59313 0
M  V30 579 H 73.0652 -5.47679 4.85214 0
M  V30 580 H 74.2482 -2.89008 5.86566 0
M  V30 581 H 75.7322 -4.0121 7.36511 0
M  V30 582 H 74.0382 -5.80182 8.37584 0
M  V30 583 H 73.8482 -3.73517 9.52265 0
M  V30 584 H 72.2182 -3.97163 8.80359 0
M  V30 585 H 74.8572 -4.90969 4.01921 0
M  V30 586 P 76.7148 -5.75688 6.64379 0
M  V30 587 O 78.1368 -6.11981 7.01997 0
M  V30 588 O 76.3548 -4.30744 6.56026 0
M  V30 589 O 76.3918 -6.37042 5.19165 0
M  V30 590 C 76.2318 -7.83578 5.16515 0
M  V30 591 C 76.7718 -8.33307 3.82977 0
M  V30 592 O 75.7168 -8.10074 3.01034 0
M  V30 593 C 77.9898 -7.65514 3.2257 0
M  V30 594 O 78.7278 -8.4329 2.32297 0
M  V30 595 C 77.3218 -6.40075 2.62207 0
M  V30 596 O 78.1198 -5.92492 1.53687 0
M  V30 597 C 75.9838 -6.9454 2.18503 0
M  V30 598 N 74.9408 -5.95905 2.39948 0
M  V30 599 C 75.0028 -5.13994 3.44742 0
M  V30 600 N 73.9578 -4.30684 3.46712 0
M  V30 601 C 73.2238 -4.65583 2.41086 0
M  V30 602 C 71.9178 -4.20877 1.99581 0
M  V30 603 O 71.1848 -3.35913 2.52616 0
M  V30 604 N 71.4878 -4.83271 0.873406 0
M  V30 605 C 72.2368 -5.82006 0.185129 0
M  V30 606 N 71.6398 -6.30619 -0.95439 0
M  V30 607 N 73.3898 -6.28443 0.578524 0
M  V30 608 C 73.8468 -5.68486 1.70138 0
M  V30 609 H 76.0158 -7.23063 1.12091 0
M  V30 610 H 77.1988 -5.60165 3.3715 0
M  V30 611 H 78.6838 -7.3611 4.01946 0
M  V30 612 H 76.9888 -9.40912 3.9095 0
M  V30 613 H 76.7988 -8.29056 5.99158 0
M  V30 614 H 75.1678 -8.10073 5.25882 0
M  V30 615 H 70.5918 -4.58323 0.505262 0
M  V30 616 H 75.7988 -5.14564 4.1935 0
M  V30 617 H 70.7288 -5.93402 -1.25364 0
M  V30 618 H 72.1048 -7.0425 -1.50254 0
M  V30 619 H 77.8088 -6.30224 0.72668 0
M  V30 620 P 79.6654 -8.4349 2.47671 0
M  V30 621 O 81.0874 -8.94167 2.5964 0
M  V30 622 O 79.3054 -7.1704 3.19006 0
M  V30 623 O 79.3424 -8.16596 0.923387 0
M  V30 624 C 79.1824 -9.38437 0.108857 0
M  V30 625 C 79.7224 -9.08175 -1.28353 0
M  V30 626 O 78.6664 -8.44229 -1.84713 0
M  V30 627 C 80.9404 -8.18386 -1.42505 0
M  V30 628 O 81.6784 -8.3501 -2.60497 0
M  V30 629 C 80.2714 -6.80225 -1.25468 0
M  V30 630 O 81.0704 -5.81621 -1.91066 0
M  V30 631 C 78.9344 -7.02416 -1.9168 0
M  V30 632 H 78.9664 -6.6888 -2.96621 0
M  V30 633 H 80.1494 -6.53617 -0.192223 0
M  V30 634 H 81.6334 -8.36622 -0.589963 0
M  V30 635 H 79.9394 -10.0291 -1.79807 0
M  V30 636 H 79.7494 -10.2138 0.558219 0
M  V30 637 H 78.1194 -9.6579 0.0444202 0
M  V30 638 H 80.7584 -5.69556 -2.79637 0
M  V30 639 P 82.616 -8.4349 -2.47671 0
M  V30 640 O 84.038 -8.92593 -2.65 0
M  V30 641 O 82.256 -7.7568 -1.19296 0
M  V30 642 O 82.293 -7.36886 -3.63805 0
M  V30 643 C 82.133 -7.95349 -4.982 0
M  V30 644 C 82.673 -6.94612 -5.98974 0
M  V30 645 O 81.617 -6.10347 -6.11815 0
M  V30 646 C 83.891 -6.11426 -5.62335 0
M  V30 647 O 84.629 -5.6162 -6.70584 0
M  V30 648 C 83.222 -5.04409 -4.73308 0
M  V30 649 O 84.021 -3.85992 -4.75183 0
M  V30 650 C 81.885 -4.8728 -5.41006 0
M  V30 651 H 81.917 -4.02333 -6.11157 0
M  V30 652 H 83.1 -5.39466 -3.69543 0
M  V30 653 H 84.584 -6.71916 -5.01943 0
M  V30 654 H 82.89 -7.4649 -6.93477 0
M  V30 655 H 82.7 -8.89416 -5.05237 0
M  V30 656 H 81.07 -8.14876 -5.18409 0
M  V30 657 H 83.709 -3.27957 -5.4317 0
M  V30 658 P 85.5665 -5.75688 -6.64379 0
M  V30 659 O 86.9885 -6.07627 -7.05504 0
M  V30 660 O 85.2065 -5.88047 -5.19722 0
M  V30 661 O 85.2435 -4.2322 -7.04443 0
M  V30 662 C 85.0835 -3.99743 -8.4911 0
M  V30 663 C 85.6235 -2.60516 -8.79425 0
M  V30 664 O 84.5675 -1.82684 -8.4467 0
M  V30 665 C 86.8415 -2.10343 -8.03628 0
M  V30 666 O 87.5795 -1.09919 -8.67766 0
M  V30 667 C 86.1725 -1.68446 -6.70876 0
M  V30 668 O 86.9715 -0.678137 -6.08433 0
M  V30 669 C 84.8355 -1.17436 -7.18567 0
M  V30 670 H 84.8675 -0.0804732 -7.31656 0
M  V30 671 H 86.0505 -2.54037 -6.02537 0
M  V30 672 H 87.5345 -2.93881 -7.85526 0
M  V30 673 H 85.8405 -2.53065 -9.86973 0
M  V30 674 H 85.6505 -4.75072 -9.05887 0
M  V30 675 H 84.0205 -4.05244 -8.76668 0
M  V30 676 H 86.6595 0.177647 -6.34251 0
M  V30 677 P 88.5171 -1.25109 -8.70152 0
M  V30 678 O 89.9391 -1.29744 -9.22016 0
M  V30 679 O 88.1571 -2.13714 -7.55141 0
M  V30 680 O 88.1941 0.248149 -8.21425 0
M  V30 681 C 88.0341 1.22779 -9.30434 0
M  V30 682 C 88.5741 2.56293 -8.80664 0
M  V30 683 O 87.5181 3.02979 -8.09349 0
M  V30 684 C 89.7921 2.57523 -7.89775 0
M  V30 685 O 90.5301 3.7668 -7.89438 0
M  V30 686 C 89.1231 2.20997 -6.55446 0
M  V30 687 O 89.9221 2.71895 -5.48509 0
M  V30 688 C 87.7861 2.89693 -6.67988 0
M  V30 689 H 87.8181 3.88793 -6.19859 0
M  V30 690 H 89.0011 1.12046 -6.44229 0
M  V30 691 H 90.4851 1.7746 -8.19711 0
M  V30 692 H 88.7911 3.20706 -9.67112 0
M  V30 693 H 88.6011 0.901032 -10.1892 0
M  V30 694 H 86.9711 1.33049 -9.56592 0
M  V30 695 H 89.6101 3.57847 -5.23962 0
M  V30 696 P 91.4677 3.65191 -7.99657 0
M  V30 697 O 92.8897 3.89416 -8.45976 0
M  V30 698 O 91.1077 2.28472 -7.50807 0
M  V30 699 O 91.1447 4.64972 -6.77611 0
M  V30 700 C 90.9847 6.06319 -7.16352 0
M  V30 701 C 91.5247 6.91655 -6.02234 0
M  V30 702 O 90.4697 6.92449 -5.17064 0
M  V30 703 C 92.7427 6.43627 -5.25174 0
M  V30 704 O 93.4807 7.43686 -4.60469 0
M  V30 705 C 92.0747 5.40275 -4.31916 0
M  V30 706 O 92.8727 5.25193 -3.14386 0
M  V30 707 C 90.7367 6.04847 -4.05327 0
M  V30 708 N 89.6937 5.04166 -3.98114 0
M  V30 709 C 89.7557 3.96049 -4.75587 0
M  V30 710 N 88.7107 3.15559 -4.54006 0
M  V30 711 C 87.9767 3.78802 -3.62491 0
M  V30 712 C 86.6707 3.476 -3.10071 0
M  V30 713 O 85.9377 2.51136 -3.37021 0
M  V30 714 N 86.2407 4.39088 -2.19956 0
M  V30 715 C 86.9897 5.53215 -1.81733 0
M  V30 716 N 86.3927 6.31963 -0.860928 0
M  V30 717 N 88.1427 5.86688 -2.32562 0
M  V30 718 C 88.5997 4.97525 -3.23407 0
M  V30 719 H 90.7687 6.62195 -3.11261 0
M  V30 720 H 91.9517 4.42488 -4.8131 0
M  V30 721 H 93.4367 5.93051 -5.9305 0
M  V30 722 H 91.7417 7.92655 -6.402 0
M  V30 723 H 91.5517 6.26671 -8.0846 0
M  V30 724 H 89.9207 6.29101 -7.32804 0
M  V30 725 H 85.3447 4.25523 -1.77604 0
M  V30 726 H 90.5517 3.75576 -5.47333 0
M  V30 727 H 85.4817 6.04684 -0.468946 0
M  V30 728 H 86.8577 7.18054 -0.542422 0
M  V30 729 H 92.5617 5.84223 -2.47279 0
M  V30 730 P 94.4182 7.39546 -4.75277 0
M  V30 731 O 95.8402 7.84798 -5.01039 0
M  V30 732 O 94.0582 5.9812 -5.08098 0
M  V30 733 O 94.0952 7.57503 -3.1866 0
M  V30 734 C 93.9352 8.97357 -2.74833 0
M  V30 735 C 94.4752 9.07548 -1.32709 0
M  V30 736 O 93.4192 8.62072 -0.606159 0
M  V30 737 C 95.6932 8.25383 -0.938334 0
M  V30 738 O 96.4312 8.74577 0.146954 0
M  V30 739 C 95.0242 6.8802 -0.712559 0
M  V30 740 O 95.8232 6.1189 0.194655 0
M  V30 741 C 93.6872 7.27966 -0.139777 0
M  V30 742 H 93.7192 7.25354 0.961601 0
M  V30 743 H 94.9022 6.32557 -1.65702 0
M  V30 744 H 96.3862 8.19355 -1.79097 0
M  V30 745 H 94.6922 10.1294 -1.10029 0
M  V30 746 H 94.5022 9.64276 -3.41316 0
M  V30 747 H 92.8722 9.25417 -2.76357 0
M  V30 748 H 95.5112 6.25267 1.07847 0
M  V30 749 P 97.3688 8.791 -6.89233e-14 0
M  V30 750 O 98.7908 9.31096 0.027933 0
M  V30 751 O 97.0088 7.77869 -1.04071 0
M  V30 752 O 97.0458 8.09533 1.41463 0
M  V30 753 C 96.8858 9.0349 2.53943 0
M  V30 754 C 97.4258 8.35226 3.79016 0
M  V30 755 O 96.3698 7.57992 4.15078 0
M  V30 756 C 98.6438 7.45087 3.67298 0
M  V30 757 O 99.3818 7.27796 4.85194 0
M  V30 758 C 97.9748 6.17323 3.12027 0
M  V30 759 O 98.7738 5.04231 3.47188 0
M  V30 760 C 96.6378 6.19961 3.81809 0
M  V30 761 H 96.6698 5.58218 4.73051 0
M  V30 762 H 97.8528 6.21726 2.02589 0
M  V30 763 H 99.3368 7.86112 2.9231 0
M  V30 764 H 97.6428 9.11627 4.55076 0
M  V30 765 H 97.4528 9.9573 2.34194 0
M  V30 766 H 95.8228 9.2792 2.67832 0
M  V30 767 H 98.4618 4.67702 4.28772 0
M  V30 768 P 100.319 7.39546 4.75277 0
M  V30 769 O 101.741 7.81777 5.05738 0
M  V30 770 O 99.9594 7.1065 3.32998 0
M  V30 771 O 99.9964 6.04542 5.56673 0
M  V30 772 C 99.8364 6.22772 7.02095 0
M  V30 773 C 100.376 4.97725 7.70406 0
M  V30 774 O 99.3204 4.13256 7.58987 0
M  V30 775 C 101.594 4.28231 7.11815 0
M  V30 776 O 102.332 3.49945 8.01648 0
M  V30 777 C 100.925 3.5063 5.96244 0
M  V30 778 O 101.724 2.36482 5.64681 0
M  V30 779 C 99.5884 3.15122 6.56374 0
M  V30 780 H 99.6204 2.13853 6.99751 0
M  V30 781 H 100.803 4.13501 5.06559 0
M  V30 782 H 102.287 5.03285 6.70911 0
M  V30 783 H 100.593 5.20877 8.75697 0
M  V30 784 H 100.403 7.11046 7.35349 0
M  V30 785 H 98.7734 6.35815 7.26986 0
M  V30 786 H 101.412 1.61644 6.13565 0
M  V30 787 P 103.27 3.65191 7.99657 0
M  V30 788 O 104.692 3.8425 8.48115 0
M  V30 789 O 102.91 4.17805 6.64342 0
M  V30 790 O 102.947 2.07613 7.95143 0
M  V30 791 C 102.787 1.44328 9.27336 0
M  V30 792 C 103.327 0.0220036 9.17197 0
M  V30 793 O 102.271 -0.626867 8.61923 0
M  V30 794 C 104.545 -0.24586 8.30336 0
M  V30 795 O 105.283 -1.39011 8.63583 0
M  V30 796 C 103.876 -0.273849 6.91158 0
M  V30 797 O 104.675 -1.06348 6.02892 0
M  V30 798 C 102.539 -0.897649 7.22545 0
M  V30 799 H 102.571 -1.9841 7.04286 0
M  V30 800 H 103.754 0.739928 6.497 0
M  V30 801 H 105.238 0.60668 8.36503 0
M  V30 802 H 103.544 -0.352479 10.1829 0
M  V30 803 H 103.354 2.00611 10.0304 0
M  V30 804 H 101.724 1.41843 9.55327 0
M  V30 805 H 104.363 -1.95734 6.03555 0
M  V30 806 P 106.221 -1.25109 8.70152 0
M  V30 807 O 107.643 -1.35274 9.21221 0
M  V30 808 O 105.861 -0.0769065 7.84762 0
M  V30 809 O 105.898 -2.55232 7.81161 0
M  V30 810 C 105.738 -3.79939 8.58154 0
M  V30 811 C 106.278 -4.94023 7.72785 0
M  V30 812 O 105.222 -5.18726 6.91205 0
M  V30 813 C 107.496 -4.69597 6.85231 0
M  V30 814 O 108.234 -5.83832 6.51337 0
M  V30 815 C 106.827 -3.96706 5.66633 0
M  V30 816 O 107.626 -4.15414 4.49689 0
M  V30 817 C 105.49 -4.66153 5.59313 0
M  V30 818 H 105.522 -5.47679 4.85214 0
M  V30 819 H 106.705 -2.89008 5.86566 0
M  V30 820 H 108.189 -4.0121 7.36511 0
M  V30 821 H 106.495 -5.80182 8.37584 0
M  V30 822 H 106.305 -3.73517 9.52265 0
M  V30 823 H 104.675 -3.97163 8.80359 0
M  V30 824 H 107.314 -4.90969 4.01921 0
M  V30 825 P 109.171 -5.75688 6.64379 0
M  V30 826 O 110.593 -6.11849 7.01846 0
M  V30 827 O 108.811 -4.30744 6.56026 0
M  V30 828 O 108.848 -6.37042 5.19165 0
M  V30 829 C 108.688 -7.83578 5.16515 0
M  V30 830 C 109.228 -8.33398 3.83019 0
M  V30 831 O 108.172 -8.10074 3.01034 0
M  V30 832 C 110.446 -7.65514 3.2257 0
M  V30 833 O 111.184 -8.4329 2.32297 0
M  V30 834 C 109.777 -6.40075 2.62207 0
M  V30 835 O 110.576 -5.92589 1.53712 0
M  V30 836 C 108.44 -6.9454 2.18503 0
M  V30 837 H 108.472 -7.23063 1.12091 0
M  V30 838 H 109.655 -5.6025 3.37201 0
M  V30 839 H 111.139 -7.35707 4.02681 0
M  V30 840 H 109.445 -9.40912 3.9095 0
M  V30 841 H 109.255 -8.29056 5.99158 0
M  V30 842 H 107.625 -8.10073 5.25882 0
M  V30 843 H 110.264 -6.30324 0.726794 0
M  V30 844 P 112.122 -8.4349 2.47671 0
M  V30 845 O 113.543 -8.94263 2.59668 0
M  V30 846 O 111.762 -7.1704 3.19006 0
M  V30 847 O 111.799 -8.16596 0.923387 0
M  V30 848 C 111.638 -9.38537 0.108869 0
M  V30 849 C 112.179 -9.08175 -1.28353 0
M  V30 850 O 111.124 -8.44131 -1.84692 0
M  V30 851 C 113.397 -8.18386 -1.42505 0
M  V30 852 O 114.135 -8.3501 -2.60497 0
M  V30 853 C 112.729 -6.80225 -1.25468 0
M  V30 854 O 113.527 -5.81716 -1.90454 0
M  V30 855 C 111.391 -7.02416 -1.9168 0
M  V30 856 N 110.348 -6.31033 -1.20314 0
M  V30 857 C 110.517 -5.98817 0.0994088 0
M  V30 858 N 109.49 -5.35403 0.621694 0
M  V30 859 C 108.605 -5.25212 -0.43376 0
M  V30 860 C 107.338 -4.64602 -0.519722 0
M  V30 861 N 106.773 -4.7568 -1.76013 0
M  V30 862 C 107.375 -5.3653 -2.83017 0
M  V30 863 N 108.552 -5.93676 -2.79782 0
M  V30 864 C 109.127 -5.84061 -1.56249 0
M  V30 865 H 112.606 -6.53498 -0.198729 0
M  V30 866 H 114.089 -8.36622 -0.589963 0
M  V30 867 H 112.395 -10.0273 -1.8081 0
M  V30 868 H 112.205 -10.2138 0.558219 0
M  V30 869 H 110.575 -9.6579 0.0444202 0
M  V30 870 H 111.417 -6.23209 0.660562 0
M  V30 871 H 113.215 -5.69466 -2.79593 0
M  V30 872 P 115.072 -8.4349 -2.47671 0
M  V30 873 O 116.494 -8.92593 -2.65 0
M  V30 874 O 114.712 -7.7568 -1.19296 0
M  V30 875 O 114.749 -7.36886 -3.63805 0
M  V30 876 C 114.589 -7.95349 -4.982 0
M  V30 877 C 115.129 -6.94612 -5.98974 0
M  V30 878 O 114.073 -6.10347 -6.11815 0
M  V30 879 C 116.347 -6.11426 -5.62335 0
M  V30 880 O 117.085 -5.6162 -6.70584 0
M  V30 881 C 115.678 -5.04409 -4.73308 0
M  V30 882 O 116.477 -3.85992 -4.75183 0
M  V30 883 C 114.341 -4.8728 -5.41006 0
M  V30 884 H 114.373 -4.02333 -6.11157 0
M  V30 885 H 115.556 -5.39466 -3.69543 0
M  V30 886 H 117.04 -6.71916 -5.01943 0
M  V30 887 H 115.346 -7.4649 -6.93477 0
M  V30 888 H 115.156 -8.89416 -5.05237 0
M  V30 889 H 113.526 -8.14876 -5.18409 0
M  V30 890 H 116.165 -3.27957 -5.4317 0
M  V30 891 P 118.023 -5.75688 -6.64379 0
M  V30 892 O 119.444 -6.07692 -7.0558 0
M  V30 893 O 117.663 -5.88047 -5.19722 0
M  V30 894 O 117.7 -4.2322 -7.04443 0
M  V30 895 C 117.539 -3.99785 -8.49201 0
M  V30 896 C 118.08 -2.60516 -8.79425 0
M  V30 897 O 117.025 -1.82663 -8.44573 0
M  V30 898 C 119.298 -2.10343 -8.03628 0
M  V30 899 O 120.036 -1.09919 -8.67766 0
M  V30 900 C 118.63 -1.68446 -6.70876 0
M  V30 901 O 119.428 -0.684109 -6.08265 0
M  V30 902 C 117.292 -1.17436 -7.18567 0
M  V30 903 N 116.249 -1.52699 -6.23988 0
M  V30 904 C 116.418 -2.578 -5.40574 0
M  V30 905 N 115.391 -2.78966 -4.61193 0
M  V30 906 C 114.506 -1.78725 -4.95769 0
M  V30 907 C 113.239 -1.45727 -4.44207 0
M  V30 908 N 112.64 -2.13994 -3.43613 0
M  V30 909 N 112.674 -0.374977 -5.05812 0
M  V30 910 C 113.276 0.345585 -6.05615 0
M  V30 911 N 114.453 0.0787651 -6.56253 0
M  V30 912 C 115.028 -1.00499 -5.96189 0
M  V30 913 H 117.324 -0.0804622 -7.31556 0
M  V30 914 H 118.507 -2.53396 -6.02698 0
M  V30 915 H 119.99 -2.93881 -7.85526 0
M  V30 916 H 118.296 -2.52078 -9.87225 0
M  V30 917 H 118.106 -4.75072 -9.05887 0
M  V30 918 H 116.476 -4.05244 -8.76668 0
M  V30 919 H 112.74 1.20098 -6.4532 0
M  V30 920 H 117.318 -3.18977 -5.3945 0
M  V30 921 H 111.71 -1.84983 -3.10004 0
M  V30 922 H 113.114 -2.9465 -3.00843 0
M  V30 923 H 119.116 0.177619 -6.34151 0
M  V30 924 P 120.973 -1.25109 -8.70152 0
M  V30 925 O 122.395 -1.29772 -9.22214 0
M  V30 926 O 120.613 -2.13714 -7.55141 0
M  V30 927 O 120.65 0.248149 -8.21425 0
M  V30 928 C 120.49 1.22779 -9.30434 0
M  V30 929 C 121.03 2.56265 -8.80568 0
M  V30 930 O 119.975 3.02979 -8.09349 0
M  V30 931 C 122.248 2.57523 -7.89775 0
M  V30 932 O 122.986 3.7668 -7.89438 0
M  V30 933 C 121.58 2.20997 -6.55446 0
M  V30 934 O 122.378 2.71851 -5.48419 0
M  V30 935 C 120.242 2.89693 -6.67988 0
M  V30 936 N 119.199 2.08895 -6.07487 0
M  V30 937 C 119.261 0.760559 -6.14209 0
M  V30 938 N 118.216 0.200108 -5.52538 0
M  V30 939 C 117.482 1.22692 -5.09742 0
M  V30 940 C 116.176 1.24782 -4.48775 0
M  V30 941 O 115.443 0.290617 -4.19294 0
M  V30 942 N 115.746 2.50468 -4.22428 0
M  V30 943 C 116.495 3.67142 -4.51974 0
M  V30 944 N 115.898 4.85096 -4.14091 0
M  V30 945 N 117.648 3.67821 -5.12831 0
M  V30 946 C 118.105 2.43698 -5.4105 0
M  V30 947 H 120.274 3.88793 -6.19859 0
M  V30 948 H 121.457 1.12029 -6.4413 0
M  V30 949 H 122.942 1.78279 -8.19533 0
M  V30 950 H 121.247 3.20706 -9.67112 0
M  V30 951 H 121.057 0.901032 -10.1892 0
M  V30 952 H 119.426 1.33049 -9.56592 0
M  V30 953 H 114.85 2.61953 -3.79465 0
M  V30 954 H 120.057 0.200439 -6.63497 0
M  V30 955 H 114.987 4.8334 -3.66367 0
M  V30 956 H 116.363 5.7474 -4.33841 0
M  V30 957 H 122.067 3.5779 -5.23879 0
M  V30 958 P 123.924 3.65191 -7.99657 0
M  V30 959 O 125.345 3.89374 -8.45885 0
M  V30 960 O 123.564 2.28472 -7.50807 0
M  V30 961 O 123.601 4.64972 -6.77611 0
M  V30 962 C 123.44 6.06383 -7.16428 0
M  V30 963 C 123.981 6.91731 -6.02299 0
M  V30 964 O 122.926 6.92369 -5.17005 0
M  V30 965 C 125.199 6.43627 -5.25174 0
M  V30 966 O 125.937 7.43686 -4.60469 0
M  V30 967 C 124.531 5.40275 -4.31916 0
M  V30 968 O 125.329 5.24878 -3.14911 0
M  V30 969 C 123.193 6.04847 -4.05327 0
M  V30 970 N 122.15 5.04166 -3.98114 0
M  V30 971 C 122.319 3.84629 -4.59066 0
M  V30 972 N 121.292 3.0363 -4.45343 0
M  V30 973 C 120.407 3.76722 -3.68523 0
M  V30 974 C 119.14 3.43528 -3.17088 0
M  V30 975 N 118.575 4.44526 -2.44231 0
M  V30 976 C 119.177 5.65243 -2.20146 0
M  V30 977 N 120.354 6.00221 -2.65453 0
M  V30 978 C 120.929 5.00564 -3.39083 0
M  V30 979 H 124.408 4.42969 -4.80867 0
M  V30 980 H 125.891 5.92458 -5.93643 0
M  V30 981 H 124.197 7.93295 -6.39407 0
M  V30 982 H 124.007 6.26671 -8.0846 0
M  V30 983 H 122.377 6.29101 -7.32804 0
M  V30 984 H 123.219 3.58193 -5.14248 0
M  V30 985 H 125.017 5.84223 -2.47279 0
M  V30 986 P 126.875 7.39546 -4.75277 0
M  V30 987 O 128.297 7.84966 -5.01146 0
M  V30 988 O 126.515 5.9812 -5.08098 0
M  V30 989 O 126.552 7.57503 -3.1866 0
M  V30 990 C 126.392 8.97357 -2.74833 0
M  V30 991 C 126.932 9.0745 -1.32694 0
M  V30 992 O 125.877 8.62072 -0.606159 0
M  V30 993 C 128.15 8.25383 -0.938334 0
M  V30 994 O 128.888 8.74577 0.146954 0
M  V30 995 C 127.482 6.8802 -0.712559 0
M  V30 996 O 128.28 6.11791 0.194623 0
M  V30 997 C 126.144 7.27966 -0.139777 0
M  V30 998 N 125.101 6.39368 -0.623421 0
M  V30 999 C 125.163 5.90299 -1.85969 0
M  V30 1000 N 124.118 5.10919 -2.1133 0
M  V30 1001 C 123.384 5.14646 -1.0015 0
M  V30 1002 C 122.078 4.60057 -0.729219 0
M  V30 1003 O 121.345 3.93476 -1.47746 0
M  V30 1004 N 121.648 4.88302 0.523505 0
M  V30 1005 C 122.397 5.63646 1.46207 0
M  V30 1006 N 121.8 5.78186 2.69239 0
M  V30 1007 N 123.55 6.19285 1.21544 0
M  V30 1008 C 124.007 5.93392 -0.0308487 0
M  V30 1009 H 126.176 7.25354 0.961601 0
M  V30 1010 H 127.359 6.3246 -1.65676 0
M  V30 1011 H 128.844 8.19533 -1.78278 0
M  V30 1012 H 127.149 10.1294 -1.10029 0
M  V30 1013 H 126.959 9.64276 -3.41316 0
M  V30 1014 H 125.328 9.25417 -2.76357 0
M  V30 1015 H 120.752 4.53993 0.806451 0
M  V30 1016 H 125.959 6.11865 -2.57394 0
M  V30 1017 H 120.889 5.34046 2.87467 0
M  V30 1018 H 122.265 6.33391 3.42578 0
M  V30 1019 H 127.969 6.25169 1.0783 0
M  V30 1020 P 129.825 8.791 -1.02308e-13 0
M  V30 1021 O 131.247 9.31096 0.027933 0
M  V30 1022 O 129.465 7.77869 -1.04071 0
M  V30 1023 O 129.502 8.09533 1.41463 0
M  V30 1024 C 129.342 9.0349 2.53943 0
M  V30 1025 C 129.882 8.35226 3.79016 0
M  V30 1026 O 128.826 7.57992 4.15078 0
M  V30 1027 C 131.1 7.45087 3.67298 0
M  V30 1028 O 131.838 7.27796 4.85194 0
M  V30 1029 C 130.431 6.17323 3.12027 0
M  V30 1030 O 131.23 5.04231 3.47188 0
M  V30 1031 C 129.094 6.19961 3.81809 0
M  V30 1032 H 129.126 5.58218 4.73051 0
M  V30 1033 H 130.309 6.21726 2.02589 0
M  V30 1034 H 131.793 7.86112 2.9231 0
M  V30 1035 H 130.099 9.11627 4.55076 0
M  V30 1036 H 129.909 9.9573 2.34194 0
M  V30 1037 H 128.279 9.2792 2.67832 0
M  V30 1038 H 130.918 4.67702 4.28772 0
M  V30 1039 P 132.776 7.39546 4.75277 0
M  V30 1040 O 134.198 7.81777 5.05738 0
M  V30 1041 O 132.416 7.1065 3.32998 0
M  V30 1042 O 132.453 6.04542 5.56673 0
M  V30 1043 C 132.293 6.22772 7.02095 0
M  V30 1044 C 132.833 4.97725 7.70406 0
M  V30 1045 O 131.777 4.13256 7.58987 0
M  V30 1046 C 134.051 4.28231 7.11815 0
M  V30 1047 O 134.789 3.49945 8.01648 0
M  V30 1048 C 133.382 3.5063 5.96244 0
M  V30 1049 O 134.181 2.36482 5.64681 0
M  V30 1050 C 132.045 3.15122 6.56374 0
M  V30 1051 H 132.077 2.13853 6.99751 0
M  V30 1052 H 133.26 4.13501 5.06559 0
M  V30 1053 H 134.744 5.03285 6.70911 0
M  V30 1054 H 133.05 5.20877 8.75697 0
M  V30 1055 H 132.86 7.11046 7.35349 0
M  V30 1056 H 131.23 6.35815 7.26986 0
M  V30 1057 H 133.869 1.61644 6.13565 0
M  V30 1058 P 135.726 3.65191 7.99657 0
M  V30 1059 O 137.148 3.8425 8.48115 0
M  V30 1060 O 135.366 4.17805 6.64342 0
M  V30 1061 O 135.403 2.07613 7.95143 0
M  V30 1062 C 135.243 1.44328 9.27336 0
M  V30 1063 C 135.783 0.0220036 9.17197 0
M  V30 1064 O 134.727 -0.626867 8.61923 0
M  V30 1065 C 137.001 -0.24586 8.30336 0
M  V30 1066 O 137.739 -1.39011 8.63583 0
M  V30 1067 C 136.332 -0.273849 6.91158 0
M  V30 1068 O 137.131 -1.06348 6.02892 0
M  V30 1069 C 134.995 -0.897649 7.22545 0
M  V30 1070 H 135.027 -1.9841 7.04286 0
M  V30 1071 H 136.21 0.739928 6.497 0
M  V30 1072 H 137.694 0.60668 8.36503 0
M  V30 1073 H 136 -0.352479 10.1829 0
M  V30 1074 H 135.81 2.00611 10.0304 0
M  V30 1075 H 134.18 1.41843 9.55327 0
M  V30 1076 H 136.819 -1.95734 6.03555 0
M  V30 1077 P 138.677 -1.25109 8.70152 0
M  V30 1078 O 140.099 -1.35274 9.21221 0
M  V30 1079 O 138.317 -0.0769065 7.84762 0
M  V30 1080 O 138.354 -2.55232 7.81161 0
M  V30 1081 C 138.194 -3.79939 8.58154 0
M  V30 1082 C 138.734 -4.94023 7.72785 0
M  V30 1083 O 137.678 -5.18726 6.91205 0
M  V30 1084 C 139.952 -4.69597 6.85231 0
M  V30 1085 O 140.69 -5.83832 6.51337 0
M  V30 1086 C 139.283 -3.96706 5.66633 0
M  V30 1087 O 140.082 -4.15414 4.49689 0
M  V30 1088 C 137.946 -4.66153 5.59313 0
M  V30 1089 H 137.978 -5.47679 4.85214 0
M  V30 1090 H 139.161 -2.89008 5.86566 0
M  V30 1091 H 140.645 -4.0121 7.36511 0
M  V30 1092 H 138.951 -5.80182 8.37584 0
M  V30 1093 H 138.761 -3.73517 9.52265 0
M  V30 1094 H 137.131 -3.97163 8.80359 0
M  V30 1095 H 139.77 -4.90969 4.01921 0
M  V30 1096 P 141.627 -5.75688 6.64379 0
M  V30 1097 O 143.049 -6.11849 7.01846 0
M  V30 1098 O 141.267 -4.30744 6.56026 0
M  V30 1099 O 141.304 -6.37042 5.19165 0
M  V30 1100 C 141.144 -7.83578 5.16515 0
M  V30 1101 C 141.684 -8.33398 3.83019 0
M  V30 1102 O 140.628 -8.10074 3.01034 0
M  V30 1103 C 142.902 -7.65514 3.2257 0
M  V30 1104 O 143.64 -8.4329 2.32297 0
M  V30 1105 C 142.233 -6.40075 2.62207 0
M  V30 1106 O 143.032 -5.92589 1.53712 0
M  V30 1107 C 140.896 -6.9454 2.18503 0
M  V30 1108 H 140.928 -7.23063 1.12091 0
M  V30 1109 H 142.111 -5.6025 3.37201 0
M  V30 1110 H 143.595 -7.35707 4.02681 0
M  V30 1111 H 141.901 -9.40912 3.9095 0
M  V30 1112 H 141.711 -8.29056 5.99158 0
M  V30 1113 H 140.081 -8.10073 5.25882 0
M  V30 1114 H 142.72 -6.30324 0.726794 0
M  V30 1115 P 144.578 -8.4349 2.47671 0
M  V30 1116 O 146 -8.94167 2.5964 0
M  V30 1117 O 144.218 -7.1704 3.19006 0
M  V30 1118 O 144.255 -8.16596 0.923387 0
M  V30 1119 C 144.095 -9.38437 0.108857 0
M  V30 1120 C 144.635 -9.08175 -1.28353 0
M  V30 1121 O 143.579 -8.44229 -1.84713 0
M  V30 1122 C 145.853 -8.18386 -1.42505 0
M  V30 1123 O 146.591 -8.3501 -2.60497 0
M  V30 1124 C 145.184 -6.80225 -1.25468 0
M  V30 1125 O 145.983 -5.81621 -1.91066 0
M  V30 1126 C 143.847 -7.02416 -1.9168 0
M  V30 1127 H 143.879 -6.6888 -2.96621 0
M  V30 1128 H 145.062 -6.53617 -0.192223 0
M  V30 1129 H 146.546 -8.36622 -0.589963 0
M  V30 1130 H 144.852 -10.0291 -1.79807 0
M  V30 1131 H 144.662 -10.2138 0.558219 0
M  V30 1132 H 143.032 -9.6579 0.0444202 0
M  V30 1133 H 145.671 -5.69556 -2.79637 0
M  V30 1134 P 147.528 -8.4349 -2.47671 0
M  V30 1135 O 148.95 -8.92593 -2.65 0
M  V30 1136 O 147.168 -7.7568 -1.19296 0
M  V30 1137 O 147.205 -7.36886 -3.63805 0
M  V30 1138 C 147.045 -7.95349 -4.982 0
M  V30 1139 C 147.585 -6.94612 -5.98974 0
M  V30 1140 O 146.529 -6.10347 -6.11815 0
M  V30 1141 C 148.803 -6.11426 -5.62335 0
M  V30 1142 O 149.541 -5.6162 -6.70584 0
M  V30 1143 C 148.134 -5.04409 -4.73308 0
M  V30 1144 O 148.933 -3.85992 -4.75183 0
M  V30 1145 C 146.797 -4.8728 -5.41006 0
M  V30 1146 H 146.829 -4.02333 -6.11157 0
M  V30 1147 H 148.012 -5.39466 -3.69543 0
M  V30 1148 H 149.496 -6.71916 -5.01943 0
M  V30 1149 H 147.802 -7.4649 -6.93477 0
M  V30 1150 H 147.612 -8.89416 -5.05237 0
M  V30 1151 H 145.982 -8.14876 -5.18409 0
M  V30 1152 H 148.621 -3.27957 -5.4317 0
M  V30 1153 P 150.479 -5.75688 -6.64379 0
M  V30 1154 O 151.901 -6.07627 -7.05504 0
M  V30 1155 O 150.119 -5.88047 -5.19722 0
M  V30 1156 O 150.156 -4.2322 -7.04443 0
M  V30 1157 C 149.996 -3.99743 -8.4911 0
M  V30 1158 C 150.536 -2.60516 -8.79425 0
M  V30 1159 O 149.48 -1.82684 -8.4467 0
M  V30 1160 C 151.754 -2.10343 -8.03628 0
M  V30 1161 O 152.492 -1.09919 -8.67766 0
M  V30 1162 C 151.085 -1.68446 -6.70876 0
M  V30 1163 O 151.884 -0.678137 -6.08433 0
M  V30 1164 C 149.748 -1.17436 -7.18567 0
M  V30 1165 H 149.78 -0.0804732 -7.31656 0
M  V30 1166 H 150.963 -2.54037 -6.02537 0
M  V30 1167 H 152.447 -2.93881 -7.85526 0
M  V30 1168 H 150.753 -2.53065 -9.86973 0
M  V30 1169 H 150.563 -4.75072 -9.05887 0
M  V30 1170 H 148.933 -4.05244 -8.76668 0
M  V30 1171 H 151.572 0.177647 -6.34251 0
M  V30 1172 P 153.43 -1.25109 -8.70152 0
M  V30 1173 O 154.852 -1.29744 -9.22016 0
M  V30 1174 O 153.07 -2.13714 -7.55141 0
M  V30 1175 O 153.107 0.248149 -8.21425 0
M  V30 1176 C 152.947 1.22779 -9.30434 0
M  V30 1177 C 153.487 2.56293 -8.80664 0
M  V30 1178 O 152.431 3.02979 -8.09349 0
M  V30 1179 C 154.705 2.57523 -7.89775 0
M  V30 1180 O 155.443 3.7668 -7.89438 0
M  V30 1181 C 154.036 2.20997 -6.55446 0
M  V30 1182 O 154.835 2.71895 -5.48509 0
M  V30 1183 C 152.699 2.89693 -6.67988 0
M  V30 1184 H 152.731 3.88793 -6.19859 0
M  V30 1185 H 153.914 1.12046 -6.44229 0
M  V30 1186 H 155.398 1.7746 -8.19711 0
M  V30 1187 H 153.704 3.20706 -9.67112 0
M  V30 1188 H 153.514 0.901032 -10.1892 0
M  V30 1189 H 151.884 1.33049 -9.56592 0
M  V30 1190 H 154.523 3.57847 -5.23962 0
M  V30 1191 P 156.38 3.65191 -7.99657 0
M  V30 1192 O 157.802 3.89332 -8.45794 0
M  V30 1193 O 156.02 2.28472 -7.50807 0
M  V30 1194 O 156.057 4.64972 -6.77611 0
M  V30 1195 C 155.897 6.06319 -7.16352 0
M  V30 1196 C 156.437 6.91731 -6.02299 0
M  V30 1197 O 155.381 6.92449 -5.17064 0
M  V30 1198 C 157.655 6.43627 -5.25174 0
M  V30 1199 O 158.393 7.43686 -4.60469 0
M  V30 1200 C 156.986 5.40275 -4.31916 0
M  V30 1201 O 157.785 5.25279 -3.14438 0
M  V30 1202 C 155.649 6.04847 -4.05327 0
M  V30 1203 H 155.681 6.62195 -3.11261 0
M  V30 1204 H 156.864 4.42556 -4.81383 0
M  V30 1205 H 158.348 5.92458 -5.93643 0
M  V30 1206 H 156.654 7.92655 -6.402 0
M  V30 1207 H 156.464 6.26671 -8.0846 0
M  V30 1208 H 154.834 6.29101 -7.32804 0
M  V30 1209 H 157.473 5.84315 -2.47318 0
M  V30 1210 P 159.331 7.39546 -4.75277 0
M  V30 1211 O 160.753 7.84798 -5.01039 0
M  V30 1212 O 158.971 5.9812 -5.08098 0
M  V30 1213 O 159.008 7.57503 -3.1866 0
M  V30 1214 C 158.848 8.97357 -2.74833 0
M  V30 1215 C 159.388 9.07548 -1.32709 0
M  V30 1216 O 158.332 8.62072 -0.606159 0
M  V30 1217 C 160.606 8.25383 -0.938334 0
M  V30 1218 O 161.344 8.74577 0.146954 0
M  V30 1219 C 159.937 6.8802 -0.712559 0
M  V30 1220 O 160.736 6.1189 0.194655 0
M  V30 1221 C 158.6 7.27966 -0.139777 0
M  V30 1222 H 158.632 7.25354 0.961601 0
M  V30 1223 H 159.815 6.32557 -1.65702 0
M  V30 1224 H 161.299 8.19355 -1.79097 0
M  V30 1225 H 159.605 10.1294 -1.10029 0
M  V30 1226 H 159.415 9.64276 -3.41316 0
M  V30 1227 H 157.785 9.25417 -2.76357 0
M  V30 1228 H 160.424 6.25267 1.07847 0
M  V30 1229 P 162.281 8.791 -1.35693e-13 0
M  V30 1230 O 163.702 9.31196 0.027936 0
M  V30 1231 O 161.921 7.77869 -1.04071 0
M  V30 1232 O 161.958 8.09533 1.41463 0
M  V30 1233 C 161.797 9.03587 2.5397 0
M  V30 1234 C 162.338 8.35226 3.79016 0
M  V30 1235 O 161.283 7.57904 4.1503 0
M  V30 1236 C 163.556 7.45087 3.67298 0
M  V30 1237 O 164.294 7.27796 4.85194 0
M  V30 1238 C 162.888 6.17323 3.12027 0
M  V30 1239 O 163.686 5.04496 3.46627 0
M  V30 1240 C 161.55 6.19961 3.81809 0
M  V30 1241 N 160.507 5.71575 2.93223 0
M  V30 1242 C 160.676 5.77362 1.59168 0
M  V30 1243 N 159.649 5.3123 0.911893 0
M  V30 1244 C 158.764 4.91717 1.89588 0
M  V30 1245 C 157.497 4.3114 1.8076 0
M  V30 1246 N 156.898 3.99821 0.632928 0
M  V30 1247 N 156.932 4.06823 3.02898 0
M  V30 1248 C 157.534 4.35062 4.22711 0
M  V30 1249 N 158.711 4.90805 4.35707 0
M  V30 1250 C 159.286 5.16382 3.14469 0
M  V30 1251 H 161.582 5.58142 4.72986 0
M  V30 1252 H 162.765 6.21428 2.0318 0
M  V30 1253 H 164.248 7.86112 2.9231 0
M  V30 1254 H 162.554 9.11171 4.55987 0
M  V30 1255 H 162.364 9.9573 2.34194 0
M  V30 1256 H 160.734 9.2792 2.67832 0
M  V30 1257 H 156.998 4.09052 5.13359 0
M  V30 1258 H 161.576 6.16575 1.12198 0
M  V30 1259 H 155.968 3.55423 0.632085 0
M  V30 1260 H 157.372 4.20317 -0.256712 0
M  V30 1261 H 163.374 4.67628 4.28704 0
M  V30 1262 P 165.232 7.39546 4.75277 0
M  V30 1263 O 166.654 7.81777 5.05738 0
M  V30 1264 O 164.872 7.1065 3.32998 0
M  V30 1265 O 164.909 6.04542 5.56673 0
M  V30 1266 C 164.749 6.22772 7.02095 0
M  V30 1267 C 165.289 4.97725 7.70406 0
M  V30 1268 O 164.233 4.13256 7.58987 0
M  V30 1269 C 166.507 4.28231 7.11815 0
M  V30 1270 O 167.245 3.49945 8.01648 0
M  V30 1271 C 165.838 3.5063 5.96244 0
M  V30 1272 O 166.637 2.36482 5.64681 0
M  V30 1273 C 164.501 3.15122 6.56374 0
M  V30 1274 H 164.533 2.13853 6.99751 0
M  V30 1275 H 165.716 4.13501 5.06559 0
M  V30 1276 H 167.2 5.03285 6.70911 0
M  V30 1277 H 165.506 5.20877 8.75697 0
M  V30 1278 H 165.316 7.11046 7.35349 0
M  V30 1279 H 163.686 6.35815 7.26986 0
M  V30 1280 H 166.325 1.61644 6.13565 0
M  V30 1281 P 168.182 3.65191 7.99657 0
M  V30 1282 O 169.604 3.8425 8.48115 0
M  V30 1283 O 167.822 4.17805 6.64342 0
M  V30 1284 O 167.859 2.07613 7.95143 0
M  V30 1285 C 167.699 1.44328 9.27336 0
M  V30 1286 C 168.239 0.0220036 9.17197 0
M  V30 1287 O 167.183 -0.626867 8.61923 0
M  V30 1288 C 169.457 -0.24586 8.30336 0
M  V30 1289 O 170.195 -1.39011 8.63583 0
M  V30 1290 C 168.788 -0.273849 6.91158 0
M  V30 1291 O 169.587 -1.06348 6.02892 0
M  V30 1292 C 167.451 -0.897649 7.22545 0
M  V30 1293 H 167.483 -1.9841 7.04286 0
M  V30 1294 H 168.666 0.739928 6.497 0
M  V30 1295 H 170.15 0.60668 8.36503 0
M  V30 1296 H 168.456 -0.352479 10.1829 0
M  V30 1297 H 168.266 2.00611 10.0304 0
M  V30 1298 H 166.636 1.41843 9.55327 0
M  V30 1299 H 169.275 -1.95734 6.03555 0
M  V30 1300 P 171.133 -1.25109 8.70152 0
M  V30 1301 O 172.555 -1.35274 9.21221 0
M  V30 1302 O 170.773 -0.0769065 7.84762 0
M  V30 1303 O 170.81 -2.55232 7.81161 0
M  V30 1304 C 170.65 -3.79939 8.58154 0
M  V30 1305 C 171.19 -4.94023 7.72785 0
M  V30 1306 O 170.134 -5.18726 6.91205 0
M  V30 1307 C 172.408 -4.69597 6.85231 0
M  V30 1308 O 173.146 -5.83832 6.51337 0
M  V30 1309 C 171.739 -3.96706 5.66633 0
M  V30 1310 O 172.538 -4.15414 4.49689 0
M  V30 1311 C 170.402 -4.66153 5.59313 0
M  V30 1312 H 170.434 -5.47679 4.85214 0
M  V30 1313 H 171.617 -2.89008 5.86566 0
M  V30 1314 H 173.101 -4.0121 7.36511 0
M  V30 1315 H 171.407 -5.80182 8.37584 0
M  V30 1316 H 171.217 -3.73517 9.52265 0
M  V30 1317 H 169.587 -3.97163 8.80359 0
M  V30 1318 H 172.226 -4.90969 4.01921 0
M  V30 1319 P 174.084 -5.75688 6.64379 0
M  V30 1320 O 175.506 -6.11981 7.01997 0
M  V30 1321 O 173.724 -4.30744 6.56026 0
M  V30 1322 O 173.761 -6.37042 5.19165 0
M  V30 1323 C 173.601 -7.83578 5.16515 0
M  V30 1324 C 174.141 -8.33307 3.82977 0
M  V30 1325 O 173.086 -8.10074 3.01034 0
M  V30 1326 C 175.359 -7.65514 3.2257 0
M  V30 1327 O 176.097 -8.4329 2.32297 0
M  V30 1328 C 174.691 -6.40075 2.62207 0
M  V30 1329 O 175.489 -5.92492 1.53687 0
M  V30 1330 C 173.353 -6.9454 2.18503 0
M  V30 1331 N 172.31 -5.95905 2.39948 0
M  V30 1332 C 172.372 -5.13994 3.44742 0
M  V30 1333 N 171.327 -4.30684 3.46712 0
M  V30 1334 C 170.593 -4.65583 2.41086 0
M  V30 1335 C 169.287 -4.20877 1.99581 0
M  V30 1336 O 168.554 -3.35913 2.52616 0
M  V30 1337 N 168.857 -4.83271 0.873406 0
M  V30 1338 C 169.606 -5.82006 0.185129 0
M  V30 1339 N 169.009 -6.30619 -0.95439 0
M  V30 1340 N 170.759 -6.28443 0.578524 0
M  V30 1341 C 171.216 -5.68486 1.70138 0
M  V30 1342 H 173.385 -7.23063 1.12091 0
M  V30 1343 H 174.568 -5.60165 3.3715 0
M  V30 1344 H 176.053 -7.3611 4.01946 0
M  V30 1345 H 174.358 -9.40912 3.9095 0
M  V30 1346 H 174.168 -8.29056 5.99158 0
M  V30 1347 H 172.537 -8.10073 5.25882 0
M  V30 1348 H 167.961 -4.58323 0.505262 0
M  V30 1349 H 173.168 -5.14564 4.1935 0
M  V30 1350 H 168.098 -5.93402 -1.25364 0
M  V30 1351 H 169.474 -7.0425 -1.50254 0
M  V30 1352 H 175.178 -6.30224 0.72668 0
M  V30 1353 P 177.034 -8.4349 2.47671 0
M  V30 1354 O 178.456 -8.94167 2.5964 0
M  V30 1355 O 176.674 -7.1704 3.19006 0
M  V30 1356 O 176.711 -8.16596 0.923387 0
M  V30 1357 C 176.551 -9.38437 0.108857 0
M  V30 1358 C 177.091 -9.08175 -1.28353 0
M  V30 1359 O 176.035 -8.44229 -1.84713 0
M  V30 1360 C 178.309 -8.18386 -1.42505 0
M  V30 1361 O 179.047 -8.3501 -2.60497 0
M  V30 1362 C 177.64 -6.80225 -1.25468 0
M  V30 1363 O 178.439 -5.81621 -1.91066 0
M  V30 1364 C 176.303 -7.02416 -1.9168 0
M  V30 1365 H 176.335 -6.6888 -2.96621 0
M  V30 1366 H 177.518 -6.53617 -0.192223 0
M  V30 1367 H 179.002 -8.36622 -0.589963 0
M  V30 1368 H 177.308 -10.0291 -1.79807 0
M  V30 1369 H 177.118 -10.2138 0.558219 0
M  V30 1370 H 175.488 -9.6579 0.0444202 0
M  V30 1371 H 178.127 -5.69556 -2.79637 0
M  V30 1372 P 179.985 -8.4349 -2.47671 0
M  V30 1373 O 181.407 -8.92593 -2.65 0
M  V30 1374 O 179.625 -7.7568 -1.19296 0
M  V30 1375 O 179.662 -7.36886 -3.63805 0
M  V30 1376 C 179.502 -7.95349 -4.982 0
M  V30 1377 C 180.042 -6.94612 -5.98974 0
M  V30 1378 O 178.986 -6.10347 -6.11815 0
M  V30 1379 C 181.26 -6.11426 -5.62335 0
M  V30 1380 O 181.998 -5.6162 -6.70584 0
M  V30 1381 C 180.591 -5.04409 -4.73308 0
M  V30 1382 O 181.39 -3.85992 -4.75183 0
M  V30 1383 C 179.254 -4.8728 -5.41006 0
M  V30 1384 H 179.286 -4.02333 -6.11157 0
M  V30 1385 H 180.469 -5.39466 -3.69543 0
M  V30 1386 H 181.953 -6.71916 -5.01943 0
M  V30 1387 H 180.259 -7.4649 -6.93477 0
M  V30 1388 H 180.069 -8.89416 -5.05237 0
M  V30 1389 H 178.439 -8.14876 -5.18409 0
M  V30 1390 H 181.078 -3.27957 -5.4317 0
M  V30 1391 P 182.935 -5.75688 -6.64379 0
M  V30 1392 O 184.357 -6.07627 -7.05504 0
M  V30 1393 O 182.575 -5.88047 -5.19722 0
M  V30 1394 O 182.612 -4.2322 -7.04443 0
M  V30 1395 C 182.452 -3.99743 -8.4911 0
M  V30 1396 C 182.992 -2.60516 -8.79425 0
M  V30 1397 O 181.936 -1.82684 -8.4467 0
M  V30 1398 C 184.21 -2.10343 -8.03628 0
M  V30 1399 O 184.948 -1.09919 -8.67766 0
M  V30 1400 C 183.541 -1.68446 -6.70876 0
M  V30 1401 O 184.34 -0.678137 -6.08433 0
M  V30 1402 C 182.204 -1.17436 -7.18567 0
M  V30 1403 H 182.236 -0.0804732 -7.31656 0
M  V30 1404 H 183.419 -2.54037 -6.02537 0
M  V30 1405 H 184.903 -2.93881 -7.85526 0
M  V30 1406 H 183.209 -2.53065 -9.86973 0
M  V30 1407 H 183.019 -4.75072 -9.05887 0
M  V30 1408 H 181.389 -4.05244 -8.76668 0
M  V30 1409 H 184.028 0.177647 -6.34251 0
M  V30 1410 P 185.886 -1.25109 -8.70152 0
M  V30 1411 O 187.308 -1.29744 -9.22016 0
M  V30 1412 O 185.526 -2.13714 -7.55141 0
M  V30 1413 O 185.563 0.248149 -8.21425 0
M  V30 1414 C 185.403 1.22779 -9.30434 0
M  V30 1415 C 185.943 2.56293 -8.80664 0
M  V30 1416 O 184.887 3.02979 -8.09349 0
M  V30 1417 C 187.161 2.57523 -7.89775 0
M  V30 1418 O 187.899 3.7668 -7.89438 0
M  V30 1419 C 186.492 2.20997 -6.55446 0
M  V30 1420 O 187.291 2.71895 -5.48509 0
M  V30 1421 C 185.155 2.89693 -6.67988 0
M  V30 1422 H 185.187 3.88793 -6.19859 0
M  V30 1423 H 186.37 1.12046 -6.44229 0
M  V30 1424 H 187.854 1.7746 -8.19711 0
M  V30 1425 H 186.16 3.20706 -9.67112 0
M  V30 1426 H 185.97 0.901032 -10.1892 0
M  V30 1427 H 184.34 1.33049 -9.56592 0
M  V30 1428 H 186.979 3.57847 -5.23962 0
M  V30 1429 P 188.836 3.65191 -7.99657 0
M  V30 1430 O 190.258 3.89332 -8.45794 0
M  V30 1431 O 188.476 2.28472 -7.50807 0
M  V30 1432 O 188.513 4.64972 -6.77611 0
M  V30 1433 C 188.353 6.06319 -7.16352 0
M  V30 1434 C 188.893 6.91731 -6.02299 0
M  V30 1435 O 187.837 6.92449 -5.17064 0
M  V30 1436 C 190.111 6.43627 -5.25174 0
M  V30 1437 O 190.849 7.43686 -4.60469 0
M  V30 1438 C 189.442 5.40275 -4.31916 0
M  V30 1439 O 190.241 5.25279 -3.14438 0
M  V30 1440 C 188.105 6.04847 -4.05327 0
M  V30 1441 H 188.137 6.62195 -3.11261 0
M  V30 1442 H 189.32 4.42556 -4.81383 0
M  V30 1443 H 190.804 5.92458 -5.93643 0
M  V30 1444 H 189.11 7.92655 -6.402 0
M  V30 1445 H 188.92 6.26671 -8.0846 0
M  V30 1446 H 187.29 6.29101 -7.32804 0
M  V30 1447 H 189.929 5.84315 -2.47318 0
M  V30 1448 P 191.787 7.39546 -4.75277 0
M  V30 1449 O 193.209 7.84798 -5.01039 0
M  V30 1450 O 191.427 5.9812 -5.08098 0
M  V30 1451 O 191.464 7.57503 -3.1866 0
M  V30 1452 C 191.304 8.97357 -2.74833 0
M  V30 1453 C 191.844 9.07548 -1.32709 0
M  V30 1454 O 190.788 8.62072 -0.606159 0
M  V30 1455 C 193.062 8.25383 -0.938334 0
M  V30 1456 O 193.8 8.74577 0.146954 0
M  V30 1457 C 192.393 6.8802 -0.712559 0
M  V30 1458 O 193.192 6.1189 0.194655 0
M  V30 1459 C 191.056 7.27966 -0.139777 0
M  V30 1460 H 191.088 7.25354 0.961601 0
M  V30 1461 H 192.271 6.32557 -1.65702 0
M  V30 1462 H 193.755 8.19355 -1.79097 0
M  V30 1463 H 192.061 10.1294 -1.10029 0
M  V30 1464 H 191.871 9.64276 -3.41316 0
M  V30 1465 H 190.241 9.25417 -2.76357 0
M  V30 1466 H 192.88 6.25267 1.07847 0
M  V30 1467 P 194.738 8.791 1.12009e-13 0
M  V30 1468 O 196.16 9.31096 0.027933 0
M  V30 1469 O 194.378 7.77869 -1.04071 0
M  V30 1470 O 194.415 8.09533 1.41463 0
M  V30 1471 C 194.255 9.0349 2.53943 0
M  V30 1472 C 194.795 8.35226 3.79016 0
M  V30 1473 O 193.739 7.57992 4.15078 0
M  V30 1474 C 196.013 7.45087 3.67298 0
M  V30 1475 O 196.751 7.27796 4.85194 0
M  V30 1476 C 195.344 6.17323 3.12027 0
M  V30 1477 O 196.143 5.04231 3.47188 0
M  V30 1478 C 194.007 6.19961 3.81809 0
M  V30 1479 H 194.039 5.58218 4.73051 0
M  V30 1480 H 195.222 6.21726 2.02589 0
M  V30 1481 H 196.706 7.86112 2.9231 0
M  V30 1482 H 195.012 9.11627 4.55076 0
M  V30 1483 H 194.822 9.9573 2.34194 0
M  V30 1484 H 193.192 9.2792 2.67832 0
M  V30 1485 H 195.831 4.67702 4.28772 0
M  V30 1486 P 197.688 7.39546 4.75277 0
M  V30 1487 O 199.11 7.81777 5.05738 0
M  V30 1488 O 197.328 7.1065 3.32998 0
M  V30 1489 O 197.365 6.04542 5.56673 0
M  V30 1490 C 197.205 6.22772 7.02095 0
M  V30 1491 C 197.745 4.97725 7.70406 0
M  V30 1492 O 196.689 4.13256 7.58987 0
M  V30 1493 C 198.963 4.28231 7.11815 0
M  V30 1494 O 199.701 3.49945 8.01648 0
M  V30 1495 C 198.294 3.5063 5.96244 0
M  V30 1496 O 199.093 2.36482 5.64681 0
M  V30 1497 C 196.957 3.15122 6.56374 0
M  V30 1498 H 196.989 2.13853 6.99751 0
M  V30 1499 H 198.172 4.13501 5.06559 0
M  V30 1500 H 199.656 5.03285 6.70911 0
M  V30 1501 H 197.962 5.20877 8.75697 0
M  V30 1502 H 197.772 7.11046 7.35349 0
M  V30 1503 H 196.142 6.35815 7.26986 0
M  V30 1504 H 198.781 1.61644 6.13565 0
M  V30 1505 P 200.639 3.65191 7.99657 0
M  V30 1506 O 202.061 3.8425 8.48115 0
M  V30 1507 O 200.279 4.17805 6.64342 0
M  V30 1508 O 200.316 2.07613 7.95143 0
M  V30 1509 C 200.156 1.44328 9.27336 0
M  V30 1510 C 200.696 0.0220036 9.17197 0
M  V30 1511 O 199.64 -0.626867 8.61923 0
M  V30 1512 C 201.914 -0.24586 8.30336 0
M  V30 1513 O 202.652 -1.39011 8.63583 0
M  V30 1514 C 201.245 -0.273849 6.91158 0
M  V30 1515 O 202.044 -1.06348 6.02892 0
M  V30 1516 C 199.908 -0.897649 7.22545 0
M  V30 1517 H 199.94 -1.9841 7.04286 0
M  V30 1518 H 201.123 0.739928 6.497 0
M  V30 1519 H 202.607 0.60668 8.36503 0
M  V30 1520 H 200.913 -0.352479 10.1829 0
M  V30 1521 H 200.723 2.00611 10.0304 0
M  V30 1522 H 199.093 1.41843 9.55327 0
M  V30 1523 H 201.732 -1.95734 6.03555 0
M  V30 1524 P 203.589 -1.25109 8.70152 0
M  V30 1525 O 205.01 -1.35288 9.2132 0
M  V30 1526 O 203.229 -0.0769065 7.84762 0
M  V30 1527 O 203.266 -2.55232 7.81161 0
M  V30 1528 C 203.105 -3.79979 8.58246 0
M  V30 1529 C 203.646 -4.94023 7.72785 0
M  V30 1530 O 202.591 -5.18666 6.91125 0
M  V30 1531 C 204.864 -4.69597 6.85231 0
M  V30 1532 O 205.602 -5.83832 6.51337 0
M  V30 1533 C 204.196 -3.96706 5.66633 0
M  V30 1534 O 204.994 -4.14896 4.5003 0
M  V30 1535 C 202.858 -4.66153 5.59313 0
M  V30 1536 N 201.815 -3.71582 5.24027 0
M  V30 1537 C 201.984 -2.39715 5.48833 0
M  V30 1538 N 200.957 -1.65863 5.12845 0
M  V30 1539 C 200.072 -2.57637 4.5973 0
M  V30 1540 C 198.805 -2.40278 4.01027 0
M  V30 1541 N 198.24 -3.57711 3.59575 0
M  V30 1542 C 198.842 -4.80324 3.70476 0
M  V30 1543 N 200.019 -5.01121 4.23801 0
M  V30 1544 C 200.594 -3.84757 4.66372 0
M  V30 1545 H 204.073 -2.8955 5.86187 0
M  V30 1546 H 205.556 -4.0121 7.36511 0
M  V30 1547 H 203.862 -5.81019 8.37003 0
M  V30 1548 H 203.672 -3.73517 9.52265 0
M  V30 1549 H 202.042 -3.97163 8.80359 0
M  V30 1550 H 202.884 -1.98804 5.94332 0
M  V30 1551 H 204.682 -4.90891 4.01857 0
M  V30 1552 P 206.54 -5.75688 6.64379 0
M  V30 1553 O 207.962 -6.11849 7.01846 0
M  V30 1554 O 206.18 -4.30744 6.56026 0
M  V30 1555 O 206.217 -6.37042 5.19165 0
M  V30 1556 C 206.057 -7.83578 5.16515 0
M  V30 1557 C 206.597 -8.33398 3.83019 0
M  V30 1558 O 205.541 -8.10074 3.01034 0
M  V30 1559 C 207.815 -7.65514 3.2257 0
M  V30 1560 O 208.553 -8.4329 2.32297 0
M  V30 1561 C 207.146 -6.40075 2.62207 0
M  V30 1562 O 207.945 -5.92589 1.53712 0
M  V30 1563 C 205.809 -6.9454 2.18503 0
M  V30 1564 H 205.841 -7.23063 1.12091 0
M  V30 1565 H 207.024 -5.6025 3.37201 0
M  V30 1566 H 208.508 -7.35707 4.02681 0
M  V30 1567 H 206.814 -9.40912 3.9095 0
M  V30 1568 H 206.624 -8.29056 5.99158 0
M  V30 1569 H 204.994 -8.10073 5.25882 0
M  V30 1570 H 207.633 -6.30324 0.726794 0
M  V30 1571 P 209.49 -8.4349 2.47671 0
M  V30 1572 O 210.912 -8.94167 2.5964 0
M  V30 1573 O 209.13 -7.1704 3.19006 0
M  V30 1574 O 209.167 -8.16596 0.923387 0
M  V30 1575 C 209.007 -9.38437 0.108857 0
M  V30 1576 C 209.547 -9.08175 -1.28353 0
M  V30 1577 O 208.491 -8.44229 -1.84713 0
M  V30 1578 C 210.765 -8.18386 -1.42505 0
M  V30 1579 O 211.503 -8.3501 -2.60497 0
M  V30 1580 C 210.096 -6.80225 -1.25468 0
M  V30 1581 O 210.895 -5.81621 -1.91066 0
M  V30 1582 C 208.759 -7.02416 -1.9168 0
M  V30 1583 H 208.791 -6.6888 -2.96621 0
M  V30 1584 H 209.974 -6.53617 -0.192223 0
M  V30 1585 H 211.458 -8.36622 -0.589963 0
M  V30 1586 H 209.764 -10.0291 -1.79807 0
M  V30 1587 H 209.574 -10.2138 0.558219 0
M  V30 1588 H 207.944 -9.6579 0.0444202 0
M  V30 1589 H 210.583 -5.69556 -2.79637 0
M  V30 1590 P 212.441 -8.4349 -2.47671 0
M  V30 1591 O 213.863 -8.92593 -2.65 0
M  V30 1592 O 212.081 -7.7568 -1.19296 0
M  V30 1593 O 212.118 -7.36886 -3.63805 0
M  V30 1594 C 211.958 -7.95349 -4.982 0
M  V30 1595 C 212.498 -6.94612 -5.98974 0
M  V30 1596 O 211.442 -6.10347 -6.11815 0
M  V30 1597 C 213.716 -6.11426 -5.62335 0
M  V30 1598 O 214.454 -5.6162 -6.70584 0
M  V30 1599 C 213.047 -5.04409 -4.73308 0
M  V30 1600 O 213.846 -3.85992 -4.75183 0
M  V30 1601 C 211.71 -4.8728 -5.41006 0
M  V30 1602 H 211.742 -4.02333 -6.11157 0
M  V30 1603 H 212.925 -5.39466 -3.69543 0
M  V30 1604 H 214.409 -6.71916 -5.01943 0
M  V30 1605 H 212.715 -7.4649 -6.93477 0
M  V30 1606 H 212.525 -8.89416 -5.05237 0
M  V30 1607 H 210.895 -8.14876 -5.18409 0
M  V30 1608 H 213.534 -3.27957 -5.4317 0
M  V30 1609 P 215.392 -5.75688 -6.64379 0
M  V30 1610 O 216.814 -6.07627 -7.05504 0
M  V30 1611 O 215.032 -5.88047 -5.19722 0
M  V30 1612 O 215.069 -4.2322 -7.04443 0
M  V30 1613 C 214.909 -3.99743 -8.4911 0
M  V30 1614 C 215.449 -2.60516 -8.79425 0
M  V30 1615 O 214.393 -1.82684 -8.4467 0
M  V30 1616 C 216.667 -2.10343 -8.03628 0
M  V30 1617 O 217.405 -1.09919 -8.67766 0
M  V30 1618 C 215.998 -1.68446 -6.70876 0
M  V30 1619 O 216.797 -0.678137 -6.08433 0
M  V30 1620 C 214.661 -1.17436 -7.18567 0
M  V30 1621 H 214.693 -0.0804732 -7.31656 0
M  V30 1622 H 215.876 -2.54037 -6.02537 0
M  V30 1623 H 217.36 -2.93881 -7.85526 0
M  V30 1624 H 215.666 -2.53065 -9.86973 0
M  V30 1625 H 215.476 -4.75072 -9.05887 0
M  V30 1626 H 213.846 -4.05244 -8.76668 0
M  V30 1627 H 216.485 0.177647 -6.34251 0
M  V30 1628 P 218.342 -1.25109 -8.70152 0
M  V30 1629 O 219.764 -1.29744 -9.22016 0
M  V30 1630 O 217.982 -2.13714 -7.55141 0
M  V30 1631 O 218.019 0.248149 -8.21425 0
M  V30 1632 C 217.859 1.22779 -9.30434 0
M  V30 1633 C 218.399 2.56293 -8.80664 0
M  V30 1634 O 217.343 3.02979 -8.09349 0
M  V30 1635 C 219.617 2.57523 -7.89775 0
M  V30 1636 O 220.355 3.7668 -7.89438 0
M  V30 1637 C 218.948 2.20997 -6.55446 0
M  V30 1638 O 219.747 2.71895 -5.48509 0
M  V30 1639 C 217.611 2.89693 -6.67988 0
M  V30 1640 H 217.643 3.88793 -6.19859 0
M  V30 1641 H 218.826 1.12046 -6.44229 0
M  V30 1642 H 220.31 1.7746 -8.19711 0
M  V30 1643 H 218.616 3.20706 -9.67112 0
M  V30 1644 H 218.426 0.901032 -10.1892 0
M  V30 1645 H 216.796 1.33049 -9.56592 0
M  V30 1646 H 219.435 3.57847 -5.23962 0
M  V30 1647 P 221.293 3.65191 -7.99657 0
M  V30 1648 O 222.715 3.89332 -8.45794 0
M  V30 1649 O 220.933 2.28472 -7.50807 0
M  V30 1650 O 220.97 4.64972 -6.77611 0
M  V30 1651 C 220.81 6.06319 -7.16352 0
M  V30 1652 C 221.35 6.91731 -6.02299 0
M  V30 1653 O 220.294 6.92449 -5.17064 0
M  V30 1654 C 222.568 6.43627 -5.25174 0
M  V30 1655 O 223.306 7.43686 -4.60469 0
M  V30 1656 C 221.899 5.40275 -4.31916 0
M  V30 1657 O 222.698 5.25279 -3.14438 0
M  V30 1658 C 220.562 6.04847 -4.05327 0
M  V30 1659 H 220.594 6.62195 -3.11261 0
M  V30 1660 H 221.777 4.42556 -4.81383 0
M  V30 1661 H 223.261 5.92458 -5.93643 0
M  V30 1662 H 221.567 7.92655 -6.402 0
M  V30 1663 H 221.377 6.26671 -8.0846 0
M  V30 1664 H 219.747 6.29101 -7.32804 0
M  V30 1665 H 222.386 5.84315 -2.47318 0
M  V30 1666 P 224.243 7.39546 -4.75277 0
M  V30 1667 O 225.665 7.84798 -5.01039 0
M  V30 1668 O 223.883 5.9812 -5.08098 0
M  V30 1669 O 223.92 7.57503 -3.1866 0
M  V30 1670 C 223.76 8.97357 -2.74833 0
M  V30 1671 C 224.3 9.07548 -1.32709 0
M  V30 1672 O 223.244 8.62072 -0.606159 0
M  V30 1673 C 225.518 8.25383 -0.938334 0
M  V30 1674 O 226.256 8.74577 0.146954 0
M  V30 1675 C 224.849 6.8802 -0.712559 0
M  V30 1676 O 225.648 6.1189 0.194655 0
M  V30 1677 C 223.512 7.27966 -0.139777 0
M  V30 1678 H 223.544 7.25354 0.961601 0
M  V30 1679 H 224.727 6.32557 -1.65702 0
M  V30 1680 H 226.211 8.19355 -1.79097 0
M  V30 1681 H 224.517 10.1294 -1.10029 0
M  V30 1682 H 224.327 9.64276 -3.41316 0
M  V30 1683 H 222.697 9.25417 -2.76357 0
M  V30 1684 H 225.336 6.25267 1.07847 0
M  V30 1685 P 227.194 8.791 4.22174e-13 0
M  V30 1686 O 228.616 9.31096 0.027933 0
M  V30 1687 O 226.834 7.77869 -1.04071 0
M  V30 1688 O 226.871 8.09533 1.41463 0
M  V30 1689 C 226.711 9.0349 2.53943 0
M  V30 1690 C 227.251 8.35226 3.79016 0
M  V30 1691 O 226.195 7.57992 4.15078 0
M  V30 1692 C 228.469 7.45087 3.67298 0
M  V30 1693 O 229.207 7.27796 4.85194 0
M  V30 1694 C 227.8 6.17323 3.12027 0
M  V30 1695 O 228.599 5.04231 3.47188 0
M  V30 1696 C 226.463 6.19961 3.81809 0
M  V30 1697 H 226.495 5.58218 4.73051 0
M  V30 1698 H 227.678 6.21726 2.02589 0
M  V30 1699 H 229.162 7.86112 2.9231 0
M  V30 1700 H 227.468 9.11627 4.55076 0
M  V30 1701 H 227.278 9.9573 2.34194 0
M  V30 1702 H 225.648 9.2792 2.67832 0
M  V30 1703 H 228.287 4.67702 4.28772 0
M  V30 1704 P 230.144 7.39546 4.75277 0
M  V30 1705 O 231.565 7.81861 5.05793 0
M  V30 1706 O 229.784 7.1065 3.32998 0
M  V30 1707 O 229.821 6.04542 5.56673 0
M  V30 1708 C 229.66 6.22839 7.02169 0
M  V30 1709 C 230.201 4.97725 7.70406 0
M  V30 1710 O 229.146 4.13208 7.58899 0
M  V30 1711 C 231.419 4.28231 7.11815 0
M  V30 1712 O 232.157 3.49945 8.01648 0
M  V30 1713 C 230.751 3.5063 5.96244 0
M  V30 1714 O 231.549 2.37008 5.64352 0
M  V30 1715 C 229.413 3.15122 6.56374 0
M  V30 1716 N 228.37 3.22311 5.55692 0
M  V30 1717 C 228.539 3.99655 4.46046 0
M  V30 1718 N 227.512 3.97599 3.63918 0
M  V30 1719 C 226.627 3.11159 4.25334 0
M  V30 1720 C 225.36 2.64972 3.85157 0
M  V30 1721 N 224.761 3.02132 2.69405 0
M  V30 1722 N 224.795 1.78482 4.74759 0
M  V30 1723 C 225.397 1.37463 5.90819 0
M  V30 1724 N 226.574 1.7733 6.31889 0
M  V30 1725 C 227.149 2.64393 5.43725 0
M  V30 1726 H 229.445 2.13823 6.99656 0
M  V30 1727 H 230.628 4.12931 5.06895 0
M  V30 1728 H 232.111 5.03285 6.70911 0
M  V30 1729 H 230.417 5.20001 8.76217 0
M  V30 1730 H 230.227 7.11046 7.35349 0
M  V30 1731 H 228.597 6.35815 7.26986 0
M  V30 1732 H 224.861 0.66574 6.53015 0
M  V30 1733 H 229.439 4.58037 4.27732 0
M  V30 1734 H 223.831 2.64828 2.45331 0
M  V30 1735 H 225.235 3.67472 2.05644 0
M  V30 1736 H 231.237 1.61619 6.13468 0
M  V30 1737 P 233.095 3.65191 7.99657 0
M  V30 1738 O 234.517 3.8425 8.48115 0
M  V30 1739 O 232.735 4.17805 6.64342 0
M  V30 1740 O 232.772 2.07613 7.95143 0
M  V30 1741 C 232.612 1.44328 9.27336 0
M  V30 1742 C 233.152 0.0220036 9.17197 0
M  V30 1743 O 232.096 -0.626867 8.61923 0
M  V30 1744 C 234.37 -0.24586 8.30336 0
M  V30 1745 O 235.108 -1.39011 8.63583 0
M  V30 1746 C 233.701 -0.273849 6.91158 0
M  V30 1747 O 234.5 -1.06348 6.02892 0
M  V30 1748 C 232.364 -0.897649 7.22545 0
M  V30 1749 H 232.396 -1.9841 7.04286 0
M  V30 1750 H 233.579 0.739928 6.497 0
M  V30 1751 H 235.063 0.60668 8.36503 0
M  V30 1752 H 233.369 -0.352479 10.1829 0
M  V30 1753 H 233.179 2.00611 10.0304 0
M  V30 1754 H 231.549 1.41843 9.55327 0
M  V30 1755 H 234.188 -1.95734 6.03555 0
M  V30 1756 P 236.046 -1.25109 8.70152 0
M  V30 1757 O 237.468 -1.35274 9.21221 0
M  V30 1758 O 235.686 -0.0769065 7.84762 0
M  V30 1759 O 235.723 -2.55232 7.81161 0
M  V30 1760 C 235.563 -3.79939 8.58154 0
M  V30 1761 C 236.103 -4.94023 7.72785 0
M  V30 1762 O 235.047 -5.18726 6.91205 0
M  V30 1763 C 237.321 -4.69597 6.85231 0
M  V30 1764 O 238.059 -5.83832 6.51337 0
M  V30 1765 C 236.652 -3.96706 5.66633 0
M  V30 1766 O 237.451 -4.15414 4.49689 0
M  V30 1767 C 235.315 -4.66153 5.59313 0
M  V30 1768 H 235.347 -5.47679 4.85214 0
M  V30 1769 H 236.53 -2.89008 5.86566 0
M  V30 1770 H 238.014 -4.0121 7.36511 0
M  V30 1771 H 236.32 -5.80182 8.37584 0
M  V30 1772 H 236.13 -3.73517 9.52265 0
M  V30 1773 H 234.5 -3.97163 8.80359 0
M  V30 1774 H 237.139 -4.90969 4.01921 0
M  V30 1775 P 238.996 -5.75688 6.64379 0
M  V30 1776 O 240.418 -6.11849 7.01846 0
M  V30 1777 O 238.636 -4.30744 6.56026 0
M  V30 1778 O 238.673 -6.37042 5.19165 0
M  V30 1779 C 238.513 -7.83578 5.16515 0
M  V30 1780 C 239.053 -8.33398 3.83019 0
M  V30 1781 O 237.997 -8.10074 3.01034 0
M  V30 1782 C 240.271 -7.65514 3.2257 0
M  V30 1783 O 241.009 -8.4329 2.32297 0
M  V30 1784 C 239.602 -6.40075 2.62207 0
M  V30 1785 O 240.401 -5.92589 1.53712 0
M  V30 1786 C 238.265 -6.9454 2.18503 0
M  V30 1787 H 238.297 -7.23063 1.12091 0
M  V30 1788 H 239.48 -5.6025 3.37201 0
M  V30 1789 H 240.964 -7.35707 4.02681 0
M  V30 1790 H 239.27 -9.40912 3.9095 0
M  V30 1791 H 239.08 -8.29056 5.99158 0
M  V30 1792 H 237.45 -8.10073 5.25882 0
M  V30 1793 H 240.089 -6.30324 0.726794 0
M  V30 1794 P 241.947 -8.4349 2.47671 0
M  V30 1795 O 243.368 -8.94263 2.59668 0
M  V30 1796 O 241.587 -7.1704 3.19006 0
M  V30 1797 O 241.624 -8.16596 0.923387 0
M  V30 1798 C 241.463 -9.38537 0.108869 0
M  V30 1799 C 242.004 -9.08175 -1.28353 0
M  V30 1800 O 240.949 -8.44131 -1.84692 0
M  V30 1801 C 243.222 -8.18386 -1.42505 0
M  V30 1802 O 243.96 -8.3501 -2.60497 0
M  V30 1803 C 242.554 -6.80225 -1.25468 0
M  V30 1804 O 243.352 -5.81716 -1.90454 0
M  V30 1805 C 241.216 -7.02416 -1.9168 0
M  V30 1806 N 240.173 -6.31033 -1.20314 0
M  V30 1807 C 240.342 -5.98817 0.0994088 0
M  V30 1808 N 239.315 -5.35403 0.621694 0
M  V30 1809 C 238.43 -5.25212 -0.43376 0
M  V30 1810 C 237.163 -4.64602 -0.519722 0
M  V30 1811 N 236.564 -4.01457 0.519136 0
M  V30 1812 N 236.598 -4.7568 -1.76013 0
M  V30 1813 C 237.2 -5.3653 -2.83017 0
M  V30 1814 N 238.377 -5.93676 -2.79782 0
M  V30 1815 C 238.952 -5.84061 -1.56249 0
M  V30 1816 H 241.248 -6.68789 -2.9658 0
M  V30 1817 H 242.431 -6.53498 -0.198729 0
M  V30 1818 H 243.914 -8.36622 -0.589963 0
M  V30 1819 H 242.22 -10.0273 -1.8081 0
M  V30 1820 H 242.03 -10.2138 0.558219 0
M  V30 1821 H 240.4 -9.6579 0.0444202 0
M  V30 1822 H 236.664 -5.37113 -3.77321 0
M  V30 1823 H 241.242 -6.23209 0.660562 0
M  V30 1824 H 235.634 -3.58834 0.394862 0
M  V30 1825 H 237.038 -3.96059 1.43048 0
M  V30 1826 H 243.04 -5.69466 -2.79593 0
M  V30 1827 P 244.897 -8.4349 -2.47671 0
M  V30 1828 O 246.319 -8.92593 -2.65 0
M  V30 1829 O 244.537 -7.7568 -1.19296 0
M  V30 1830 O 244.574 -7.36886 -3.63805 0
M  V30 1831 C 244.414 -7.95349 -4.982 0
M  V30 1832 C 244.954 -6.94612 -5.98974 0
M  V30 1833 O 243.898 -6.10347 -6.11815 0
M  V30 1834 C 246.172 -6.11426 -5.62335 0
M  V30 1835 O 246.91 -5.6162 -6.70584 0
M  V30 1836 C 245.503 -5.04409 -4.73308 0
M  V30 1837 O 246.302 -3.85992 -4.75183 0
M  V30 1838 C 244.166 -4.8728 -5.41006 0
M  V30 1839 H 244.198 -4.02333 -6.11157 0
M  V30 1840 H 245.381 -5.39466 -3.69543 0
M  V30 1841 H 246.865 -6.71916 -5.01943 0
M  V30 1842 H 245.171 -7.4649 -6.93477 0
M  V30 1843 H 244.981 -8.89416 -5.05237 0
M  V30 1844 H 243.351 -8.14876 -5.18409 0
M  V30 1845 H 245.99 -3.27957 -5.4317 0
M  V30 1846 P 247.848 -5.75688 -6.64379 0
M  V30 1847 O 249.27 -6.07627 -7.05504 0
M  V30 1848 O 247.488 -5.88047 -5.19722 0
M  V30 1849 O 247.525 -4.2322 -7.04443 0
M  V30 1850 C 247.365 -3.99743 -8.4911 0
M  V30 1851 C 247.905 -2.60516 -8.79425 0
M  V30 1852 O 246.849 -1.82684 -8.4467 0
M  V30 1853 C 249.123 -2.10343 -8.03628 0
M  V30 1854 O 249.861 -1.09919 -8.67766 0
M  V30 1855 C 248.454 -1.68446 -6.70876 0
M  V30 1856 O 249.253 -0.678137 -6.08433 0
M  V30 1857 C 247.117 -1.17436 -7.18567 0
M  V30 1858 H 247.149 -0.0804732 -7.31656 0
M  V30 1859 H 248.332 -2.54037 -6.02537 0
M  V30 1860 H 249.816 -2.93881 -7.85526 0
M  V30 1861 H 248.122 -2.53065 -9.86973 0
M  V30 1862 H 247.932 -4.75072 -9.05887 0
M  V30 1863 H 246.302 -4.05244 -8.76668 0
M  V30 1864 H 248.941 0.177647 -6.34251 0
M  V30 1865 P 250.798 -1.25109 -8.70152 0
M  V30 1866 O 252.22 -1.29744 -9.22016 0
M  V30 1867 O 250.438 -2.13714 -7.55141 0
M  V30 1868 O 250.475 0.248149 -8.21425 0
M  V30 1869 C 250.315 1.22779 -9.30434 0
M  V30 1870 C 250.855 2.56293 -8.80664 0
M  V30 1871 O 249.799 3.02979 -8.09349 0
M  V30 1872 C 252.073 2.57523 -7.89775 0
M  V30 1873 O 252.811 3.7668 -7.89438 0
M  V30 1874 C 251.404 2.20997 -6.55446 0
M  V30 1875 O 252.203 2.71895 -5.48509 0
M  V30 1876 C 250.067 2.89693 -6.67988 0
M  V30 1877 H 250.099 3.88793 -6.19859 0
M  V30 1878 H 251.282 1.12046 -6.44229 0
M  V30 1879 H 252.766 1.7746 -8.19711 0
M  V30 1880 H 251.072 3.20706 -9.67112 0
M  V30 1881 H 250.882 0.901032 -10.1892 0
M  V30 1882 H 249.252 1.33049 -9.56592 0
M  V30 1883 H 251.891 3.57847 -5.23962 0
M  V30 1884 P 253.749 3.65191 -7.99657 0
M  V30 1885 O 255.171 3.89332 -8.45794 0
M  V30 1886 O 253.389 2.28472 -7.50807 0
M  V30 1887 O 253.426 4.64972 -6.77611 0
M  V30 1888 C 253.266 6.06319 -7.16352 0
M  V30 1889 C 253.806 6.91731 -6.02299 0
M  V30 1890 O 252.75 6.92449 -5.17064 0
M  V30 1891 C 255.024 6.43627 -5.25174 0
M  V30 1892 O 255.762 7.43686 -4.60469 0
M  V30 1893 C 254.355 5.40275 -4.31916 0
M  V30 1894 O 255.154 5.25279 -3.14438 0
M  V30 1895 C 253.018 6.04847 -4.05327 0
M  V30 1896 H 253.05 6.62195 -3.11261 0
M  V30 1897 H 254.233 4.42556 -4.81383 0
M  V30 1898 H 255.717 5.92458 -5.93643 0
M  V30 1899 H 254.023 7.92655 -6.402 0
M  V30 1900 H 253.833 6.26671 -8.0846 0
M  V30 1901 H 252.203 6.29101 -7.32804 0
M  V30 1902 H 254.842 5.84315 -2.47318 0
M  V30 1903 P 256.7 7.39546 -4.75277 0
M  V30 1904 O 258.122 7.84798 -5.01039 0
M  V30 1905 O 256.34 5.9812 -5.08098 0
M  V30 1906 O 256.377 7.57503 -3.1866 0
M  V30 1907 C 256.217 8.97357 -2.74833 0
M  V30 1908 C 256.757 9.07548 -1.32709 0
M  V30 1909 O 255.701 8.62072 -0.606159 0
M  V30 1910 C 257.975 8.25383 -0.938334 0
M  V30 1911 O 258.713 8.74577 0.146954 0
M  V30 1912 C 257.306 6.8802 -0.712559 0
M  V30 1913 O 258.105 6.1189 0.194655 0
M  V30 1914 C 255.969 7.27966 -0.139777 0
M  V30 1915 H 256.001 7.25354 0.961601 0
M  V30 1916 H 257.184 6.32557 -1.65702 0
M  V30 1917 H 258.668 8.19355 -1.79097 0
M  V30 1918 H 256.974 10.1294 -1.10029 0
M  V30 1919 H 256.784 9.64276 -3.41316 0
M  V30 1920 H 255.154 9.25417 -2.76357 0
M  V30 1921 H 257.793 6.25267 1.07847 0
M  V30 1922 P 259.65 8.791 7.3234e-13 0
M  V30 1923 O 261.072 9.31096 0.027933 0
M  V30 1924 O 259.29 7.77869 -1.04071 0
M  V30 1925 O 259.327 8.09533 1.41463 0
M  V30 1926 C 259.167 9.0349 2.53943 0
M  V30 1927 C 259.707 8.35226 3.79016 0
M  V30 1928 O 258.651 7.57992 4.15078 0
M  V30 1929 C 260.925 7.45087 3.67298 0
M  V30 1930 O 261.663 7.27796 4.85194 0
M  V30 1931 C 260.256 6.17323 3.12027 0
M  V30 1932 O 261.055 5.04231 3.47188 0
M  V30 1933 C 258.919 6.19961 3.81809 0
M  V30 1934 H 258.951 5.58218 4.73051 0
M  V30 1935 H 260.134 6.21726 2.02589 0
M  V30 1936 H 261.618 7.86112 2.9231 0
M  V30 1937 H 259.924 9.11627 4.55076 0
M  V30 1938 H 259.734 9.9573 2.34194 0
M  V30 1939 H 258.104 9.2792 2.67832 0
M  V30 1940 H 260.743 4.67702 4.28772 0
M  V30 1941 P 262.601 7.39546 4.75277 0
M  V30 1942 O 264.022 7.81861 5.05793 0
M  V30 1943 O 262.241 7.1065 3.32998 0
M  V30 1944 O 262.278 6.04542 5.56673 0
M  V30 1945 C 262.117 6.22839 7.02169 0
M  V30 1946 C 262.658 4.97725 7.70406 0
M  V30 1947 O 261.603 4.13208 7.58899 0
M  V30 1948 C 263.876 4.28231 7.11815 0
M  V30 1949 O 264.614 3.49945 8.01648 0
M  V30 1950 C 263.208 3.5063 5.96244 0
M  V30 1951 O 264.006 2.37008 5.64352 0
M  V30 1952 C 261.87 3.15122 6.56374 0
M  V30 1953 N 260.827 3.22311 5.55692 0
M  V30 1954 C 260.996 3.99655 4.46046 0
M  V30 1955 N 259.969 3.97599 3.63918 0
M  V30 1956 C 259.084 3.11159 4.25334 0
M  V30 1957 C 257.817 2.64972 3.85157 0
M  V30 1958 N 257.218 3.02132 2.69405 0
M  V30 1959 N 257.252 1.78482 4.74759 0
M  V30 1960 C 257.854 1.37463 5.90819 0
M  V30 1961 N 259.031 1.7733 6.31889 0
M  V30 1962 C 259.606 2.64393 5.43725 0
M  V30 1963 H 261.902 2.13823 6.99656 0
M  V30 1964 H 263.085 4.12931 5.06895 0
M  V30 1965 H 264.568 5.03285 6.70911 0
M  V30 1966 H 262.874 5.20001 8.76217 0
M  V30 1967 H 262.684 7.11046 7.35349 0
M  V30 1968 H 261.054 6.35815 7.26986 0
M  V30 1969 H 257.318 0.66574 6.53015 0
M  V30 1970 H 261.896 4.58037 4.27732 0
M  V30 1971 H 256.288 2.64828 2.45331 0
M  V30 1972 H 257.692 3.67472 2.05644 0
M  V30 1973 H 263.694 1.61619 6.13468 0
M  V30 1974 P 265.551 3.65191 7.99657 0
M  V30 1975 O 266.952 3.90823 8.51272 0
M  V30 1976 O 265.173 4.23191 6.66972 0
M  V30 1977 O 265.228 2.07587 7.95046 0
M  V30 1978 C 265.068 1.44328 9.27336 0
M  V30 1979 C 265.608 0.0220012 9.17097 0
M  V30 1980 O 264.552 -0.626794 8.61824 0
M  V30 1981 C 266.825 -0.24586 8.30336 0
M  V30 1982 O 267.564 -1.39011 8.63583 0
M  V30 1983 C 266.158 -0.273849 6.91158 0
M  V30 1984 O 266.956 -1.06331 6.02794 0
M  V30 1985 C 264.82 -0.897649 7.22545 0
M  V30 1986 N 263.777 -0.292839 6.41732 0
M  V30 1987 C 262.742 -1.08701 5.98712 0
M  V30 1988 O 262.781 -2.31211 6.24471 0
M  V30 1989 N 261.73 -0.533391 5.28415 0
M  V30 1990 C 261.778 0.770866 4.98576 0
M  V30 1991 C 262.874 1.59049 5.38086 0
M  V30 1992 C 263.84 1.01866 6.10256 0
M  V30 1993 H 264.852 -1.98383 7.04189 0
M  V30 1994 H 266.035 0.733318 6.49674 0
M  V30 1995 H 267.519 0.598386 8.36663 0
M  V30 1996 H 265.825 -0.362662 10.1825 0
M  V30 1997 H 265.634 2.00611 10.0304 0
M  V30 1998 H 264.004 1.41828 9.55228 0
M  V30 1999 H 262.922 2.6415 5.10622 0
M  V30 2000 H 264.686 1.61983 6.44042 0
M  V30 2001 H 266.74 -1.97777 6.14035 0
M  V30 2002 P 268.502 -1.25109 8.70152 0
M  V30 2003 O 269.924 -1.35303 9.21419 0
M  V30 2004 O 268.142 -0.0769065 7.84762 0
M  V30 2005 O 268.179 -2.55232 7.81161 0
M  V30 2006 C 268.019 -3.79939 8.58154 0
M  V30 2007 C 268.559 -4.93969 7.72701 0
M  V30 2008 O 267.504 -5.18726 6.91205 0
M  V30 2009 C 269.777 -4.69597 6.85231 0
M  V30 2010 O 270.515 -5.83832 6.51337 0
M  V30 2011 C 269.109 -3.96706 5.66633 0
M  V30 2012 O 269.907 -4.15346 4.49615 0
M  V30 2013 C 267.771 -4.66153 5.59313 0
M  V30 2014 N 266.728 -3.71582 5.24027 0
M  V30 2015 C 266.79 -2.46018 5.67902 0
M  V30 2016 N 265.745 -1.74868 5.24518 0
M  V30 2017 C 265.011 -2.61333 4.54528 0
M  V30 2018 C 263.705 -2.46162 3.95441 0
M  V30 2019 O 262.972 -1.46013 3.94122 0
M  V30 2020 N 263.275 -3.59334 3.34752 0
M  V30 2021 C 264.024 -4.79605 3.3023 0
M  V30 2022 N 263.427 -5.82109 2.6065 0
M  V30 2023 N 265.177 -4.97402 3.8843 0
M  V30 2024 C 265.634 -3.86258 4.50476 0
M  V30 2025 H 267.803 -5.47679 4.85214 0
M  V30 2026 H 268.986 -2.88964 5.86476 0
M  V30 2027 H 270.471 -4.01947 7.36109 0
M  V30 2028 H 268.776 -5.80182 8.37584 0
M  V30 2029 H 268.586 -3.73517 9.52265 0
M  V30 2030 H 266.955 -3.97163 8.80359 0
M  V30 2031 H 262.379 -3.5825 2.90294 0
M  V30 2032 H 267.586 -2.06161 6.30974 0
M  V30 2033 H 262.516 -5.66979 2.15354 0
M  V30 2034 H 263.892 -6.73686 2.54344 0
M  V30 2035 H 269.596 -4.90891 4.01857 0
M  V30 2036 P 271.452 -5.75688 6.64379 0
M  V30 2037 O 272.874 -6.11849 7.01846 0
M  V30 2038 O 271.092 -4.30744 6.56026 0
M  V30 2039 O 271.129 -6.37042 5.19165 0
M  V30 2040 C 270.969 -7.83578 5.16515 0
M  V30 2041 C 271.509 -8.33398 3.83019 0
M  V30 2042 O 270.453 -8.10074 3.01034 0
M  V30 2043 C 272.727 -7.65514 3.2257 0
M  V30 2044 O 273.465 -8.4329 2.32297 0
M  V30 2045 C 272.058 -6.40075 2.62207 0
M  V30 2046 O 272.857 -5.92589 1.53712 0
M  V30 2047 C 270.721 -6.9454 2.18503 0
M  V30 2048 H 270.753 -7.23063 1.12091 0
M  V30 2049 H 271.936 -5.6025 3.37201 0
M  V30 2050 H 273.42 -7.35707 4.02681 0
M  V30 2051 H 271.726 -9.40912 3.9095 0
M  V30 2052 H 271.536 -8.29056 5.99158 0
M  V30 2053 H 269.906 -8.10073 5.25882 0
M  V30 2054 H 272.545 -6.30324 0.726794 0
M  V30 2055 P 274.403 -8.4349 2.47671 0
M  V30 2056 O 275.825 -8.94167 2.5964 0
M  V30 2057 O 274.043 -7.1704 3.19006 0
M  V30 2058 O 274.08 -8.16596 0.923387 0
M  V30 2059 C 273.92 -9.38437 0.108857 0
M  V30 2060 C 274.46 -9.08175 -1.28353 0
M  V30 2061 O 273.404 -8.44229 -1.84713 0
M  V30 2062 C 275.678 -8.18386 -1.42505 0
M  V30 2063 O 276.416 -8.3501 -2.60497 0
M  V30 2064 C 275.009 -6.80225 -1.25468 0
M  V30 2065 O 275.808 -5.81621 -1.91066 0
M  V30 2066 C 273.672 -7.02416 -1.9168 0
M  V30 2067 H 273.704 -6.6888 -2.96621 0
M  V30 2068 H 274.887 -6.53617 -0.192223 0
M  V30 2069 H 276.371 -8.36622 -0.589963 0
M  V30 2070 H 274.677 -10.0291 -1.79807 0
M  V30 2071 H 274.487 -10.2138 0.558219 0
M  V30 2072 H 272.857 -9.6579 0.0444202 0
M  V30 2073 H 275.496 -5.69556 -2.79637 0
M  V30 2074 P 277.354 -8.4349 -2.47671 0
M  V30 2075 O 278.776 -8.92593 -2.65 0
M  V30 2076 O 276.994 -7.7568 -1.19296 0
M  V30 2077 O 277.031 -7.36886 -3.63805 0
M  V30 2078 C 276.871 -7.95349 -4.982 0
M  V30 2079 C 277.411 -6.94612 -5.98974 0
M  V30 2080 O 276.355 -6.10347 -6.11815 0
M  V30 2081 C 278.629 -6.11426 -5.62335 0
M  V30 2082 O 279.367 -5.6162 -6.70584 0
M  V30 2083 C 277.96 -5.04409 -4.73308 0
M  V30 2084 O 278.759 -3.85992 -4.75183 0
M  V30 2085 C 276.623 -4.8728 -5.41006 0
M  V30 2086 H 276.655 -4.02333 -6.11157 0
M  V30 2087 H 277.838 -5.39466 -3.69543 0
M  V30 2088 H 279.322 -6.71916 -5.01943 0
M  V30 2089 H 277.628 -7.4649 -6.93477 0
M  V30 2090 H 277.438 -8.89416 -5.05237 0
M  V30 2091 H 275.808 -8.14876 -5.18409 0
M  V30 2092 H 278.447 -3.27957 -5.4317 0
M  V30 2093 P 280.304 -5.75688 -6.64379 0
M  V30 2094 O 281.726 -6.07627 -7.05504 0
M  V30 2095 O 279.944 -5.88047 -5.19722 0
M  V30 2096 O 279.981 -4.2322 -7.04443 0
M  V30 2097 C 279.821 -3.99743 -8.4911 0
M  V30 2098 C 280.361 -2.60516 -8.79425 0
M  V30 2099 O 279.305 -1.82684 -8.4467 0
M  V30 2100 C 281.579 -2.10343 -8.03628 0
M  V30 2101 O 282.317 -1.09919 -8.67766 0
M  V30 2102 C 280.91 -1.68446 -6.70876 0
M  V30 2103 O 281.709 -0.678137 -6.08433 0
M  V30 2104 C 279.573 -1.17436 -7.18567 0
M  V30 2105 H 279.605 -0.0804732 -7.31656 0
M  V30 2106 H 280.788 -2.54037 -6.02537 0
M  V30 2107 H 282.272 -2.93881 -7.85526 0
M  V30 2108 H 280.578 -2.53065 -9.86973 0
M  V30 2109 H 280.388 -4.75072 -9.05887 0
M  V30 2110 H 278.758 -4.05244 -8.76668 0
M  V30 2111 H 281.397 0.177647 -6.34251 0
M  V30 2112 P 283.255 -1.25109 -8.70152 0
M  V30 2113 O 284.677 -1.29744 -9.22016 0
M  V30 2114 O 282.895 -2.13714 -7.55141 0
M  V30 2115 O 282.932 0.248149 -8.21425 0
M  V30 2116 C 282.772 1.22779 -9.30434 0
M  V30 2117 C 283.312 2.56293 -8.80664 0
M  V30 2118 O 282.256 3.02979 -8.09349 0
M  V30 2119 C 284.53 2.57523 -7.89775 0
M  V30 2120 O 285.268 3.7668 -7.89438 0
M  V30 2121 C 283.861 2.20997 -6.55446 0
M  V30 2122 O 284.66 2.71895 -5.48509 0
M  V30 2123 C 282.524 2.89693 -6.67988 0
M  V30 2124 H 282.556 3.88793 -6.19859 0
M  V30 2125 H 283.739 1.12046 -6.44229 0
M  V30 2126 H 285.223 1.7746 -8.19711 0
M  V30 2127 H 283.529 3.20706 -9.67112 0
M  V30 2128 H 283.339 0.901032 -10.1892 0
M  V30 2129 H 281.709 1.33049 -9.56592 0
M  V30 2130 H 284.348 3.57847 -5.23962 0
M  V30 2131 P 286.205 3.65191 -7.99657 0
M  V30 2132 O 287.626 3.89374 -8.45885 0
M  V30 2133 O 285.845 2.28472 -7.50807 0
M  V30 2134 O 285.882 4.64972 -6.77611 0
M  V30 2135 C 285.721 6.06383 -7.16428 0
M  V30 2136 C 286.262 6.91731 -6.02299 0
M  V30 2137 O 285.207 6.92369 -5.17005 0
M  V30 2138 C 287.48 6.43627 -5.25174 0
M  V30 2139 O 288.218 7.43686 -4.60469 0
M  V30 2140 C 286.812 5.40275 -4.31916 0
M  V30 2141 O 287.61 5.24878 -3.14911 0
M  V30 2142 C 285.474 6.04847 -4.05327 0
M  V30 2143 N 284.431 5.04166 -3.98114 0
M  V30 2144 C 284.6 3.84629 -4.59066 0
M  V30 2145 N 283.573 3.0363 -4.45343 0
M  V30 2146 C 282.688 3.76722 -3.68523 0
M  V30 2147 C 281.421 3.43528 -3.17088 0
M  V30 2148 N 280.822 2.23665 -3.37397 0
M  V30 2149 N 280.856 4.44526 -2.44231 0
M  V30 2150 C 281.458 5.65243 -2.20146 0
M  V30 2151 N 282.635 6.00221 -2.65453 0
M  V30 2152 C 283.21 5.00564 -3.39083 0
M  V30 2153 H 285.506 6.62104 -3.11218 0
M  V30 2154 H 286.689 4.42969 -4.80867 0
M  V30 2155 H 288.172 5.92458 -5.93643 0
M  V30 2156 H 286.478 7.93295 -6.39407 0
M  V30 2157 H 286.288 6.26671 -8.0846 0
M  V30 2158 H 284.658 6.29101 -7.32804 0
M  V30 2159 H 280.922 6.36894 -1.5883 0
M  V30 2160 H 285.5 3.58193 -5.14248 0
M  V30 2161 H 279.892 2.05145 -2.97047 0
M  V30 2162 H 281.296 1.51255 -3.92998 0
M  V30 2163 H 287.298 5.84223 -2.47279 0
M  V30 2164 P 289.156 7.39546 -4.75277 0
M  V30 2165 O 290.578 7.84798 -5.01039 0
M  V30 2166 O 288.796 5.9812 -5.08098 0
M  V30 2167 O 288.833 7.57503 -3.1866 0
M  V30 2168 C 288.673 8.97357 -2.74833 0
M  V30 2169 C 289.213 9.07548 -1.32709 0
M  V30 2170 O 288.157 8.62072 -0.606159 0
M  V30 2171 C 290.431 8.25383 -0.938334 0
M  V30 2172 O 291.169 8.74577 0.146954 0
M  V30 2173 C 289.762 6.8802 -0.712559 0
M  V30 2174 O 290.561 6.1189 0.194655 0
M  V30 2175 C 288.425 7.27966 -0.139777 0
M  V30 2176 H 288.457 7.25354 0.961601 0
M  V30 2177 H 289.64 6.32557 -1.65702 0
M  V30 2178 H 291.124 8.19355 -1.79097 0
M  V30 2179 H 289.43 10.1294 -1.10029 0
M  V30 2180 H 289.24 9.64276 -3.41316 0
M  V30 2181 H 287.61 9.25417 -2.76357 0
M  V30 2182 H 290.249 6.25267 1.07847 0
M  V30 2183 P 292.106 8.791 1.04251e-12 0
M  V30 2184 O 293.528 9.31096 0.027933 0
M  V30 2185 O 291.746 7.77869 -1.04071 0
M  V30 2186 O 291.783 8.09533 1.41463 0
M  V30 2187 C 291.623 9.0349 2.53943 0
M  V30 2188 C 292.163 8.35226 3.79016 0
M  V30 2189 O 291.107 7.57992 4.15078 0
M  V30 2190 C 293.381 7.45087 3.67298 0
M  V30 2191 O 294.119 7.27796 4.85194 0
M  V30 2192 C 292.712 6.17323 3.12027 0
M  V30 2193 O 293.511 5.04231 3.47188 0
M  V30 2194 C 291.375 6.19961 3.81809 0
M  V30 2195 H 291.407 5.58218 4.73051 0
M  V30 2196 H 292.59 6.21726 2.02589 0
M  V30 2197 H 294.074 7.86112 2.9231 0
M  V30 2198 H 292.38 9.11627 4.55076 0
M  V30 2199 H 292.19 9.9573 2.34194 0
M  V30 2200 H 290.56 9.2792 2.67832 0
M  V30 2201 H 293.199 4.67702 4.28772 0
M  V30 2202 P 295.057 7.39546 4.75277 0
M  V30 2203 O 296.479 7.81777 5.05738 0
M  V30 2204 O 294.697 7.1065 3.32998 0
M  V30 2205 O 294.734 6.04542 5.56673 0
M  V30 2206 C 294.574 6.22772 7.02095 0
M  V30 2207 C 295.114 4.97725 7.70406 0
M  V30 2208 O 294.058 4.13256 7.58987 0
M  V30 2209 C 296.332 4.28231 7.11815 0
M  V30 2210 O 297.07 3.49945 8.01648 0
M  V30 2211 C 295.663 3.5063 5.96244 0
M  V30 2212 O 296.462 2.36482 5.64681 0
M  V30 2213 C 294.326 3.15122 6.56374 0
M  V30 2214 H 294.358 2.13853 6.99751 0
M  V30 2215 H 295.541 4.13501 5.06559 0
M  V30 2216 H 297.025 5.03285 6.70911 0
M  V30 2217 H 295.331 5.20877 8.75697 0
M  V30 2218 H 295.141 7.11046 7.35349 0
M  V30 2219 H 293.511 6.35815 7.26986 0
M  V30 2220 H 296.15 1.61644 6.13565 0
M  V30 2221 P 298.008 3.65191 7.99657 0
M  V30 2222 O 299.43 3.8425 8.48115 0
M  V30 2223 O 297.648 4.17805 6.64342 0
M  V30 2224 O 297.685 2.07613 7.95143 0
M  V30 2225 C 297.525 1.44328 9.27336 0
M  V30 2226 C 298.065 0.0220036 9.17197 0
M  V30 2227 O 297.009 -0.626867 8.61923 0
M  V30 2228 C 299.283 -0.24586 8.30336 0
M  V30 2229 O 300.021 -1.39011 8.63583 0
M  V30 2230 C 298.614 -0.273849 6.91158 0
M  V30 2231 O 299.413 -1.06348 6.02892 0
M  V30 2232 C 297.277 -0.897649 7.22545 0
M  V30 2233 H 297.309 -1.9841 7.04286 0
M  V30 2234 H 298.492 0.739928 6.497 0
M  V30 2235 H 299.976 0.60668 8.36503 0
M  V30 2236 H 298.282 -0.352479 10.1829 0
M  V30 2237 H 298.092 2.00611 10.0304 0
M  V30 2238 H 296.462 1.41843 9.55327 0
M  V30 2239 H 299.101 -1.95734 6.03555 0
M  V30 2240 P 300.958 -1.25109 8.70152 0
M  V30 2241 O 302.38 -1.35274 9.21221 0
M  V30 2242 O 300.598 -0.0769065 7.84762 0
M  V30 2243 O 300.635 -2.55232 7.81161 0
M  V30 2244 C 300.475 -3.79939 8.58154 0
M  V30 2245 C 301.015 -4.94023 7.72785 0
M  V30 2246 O 299.959 -5.18726 6.91205 0
M  V30 2247 C 302.233 -4.69597 6.85231 0
M  V30 2248 O 302.971 -5.83832 6.51337 0
M  V30 2249 C 301.564 -3.96706 5.66633 0
M  V30 2250 O 302.363 -4.15414 4.49689 0
M  V30 2251 C 300.227 -4.66153 5.59313 0
M  V30 2252 H 300.259 -5.47679 4.85214 0
M  V30 2253 H 301.442 -2.89008 5.86566 0
M  V30 2254 H 302.926 -4.0121 7.36511 0
M  V30 2255 H 301.232 -5.80182 8.37584 0
M  V30 2256 H 301.042 -3.73517 9.52265 0
M  V30 2257 H 299.412 -3.97163 8.80359 0
M  V30 2258 H 302.051 -4.90969 4.01921 0
M  V30 2259 P 303.909 -5.75688 6.64379 0
M  V30 2260 O 305.33 -6.11915 7.01921 0
M  V30 2261 O 303.549 -4.30744 6.56026 0
M  V30 2262 O 303.586 -6.37042 5.19165 0
M  V30 2263 C 303.425 -7.83662 5.1657 0
M  V30 2264 C 303.966 -8.33398 3.83019 0
M  V30 2265 O 302.911 -8.0998 3.00999 0
M  V30 2266 C 305.184 -7.65514 3.2257 0
M  V30 2267 O 305.922 -8.4329 2.32297 0
M  V30 2268 C 304.516 -6.40075 2.62207 0
M  V30 2269 O 305.314 -5.92338 1.5428 0
M  V30 2270 C 303.178 -6.9454 2.18503 0
M  V30 2271 N 302.135 -5.95905 2.39948 0
M  V30 2272 C 302.304 -4.98383 3.32108 0
M  V30 2273 N 301.277 -4.16798 3.41761 0
M  V30 2274 C 300.392 -4.65287 2.47461 0
M  V30 2275 C 299.125 -4.18946 2.07461 0
M  V30 2276 N 298.56 -4.95327 1.09101 0
M  V30 2277 C 299.162 -6.04369 0.519812 0
M  V30 2278 N 300.339 -6.50694 0.855982 0
M  V30 2279 C 300.914 -5.75818 1.84322 0
M  V30 2280 H 304.393 -5.60502 3.36589 0
M  V30 2281 H 305.876 -7.35707 4.02681 0
M  V30 2282 H 304.182 -9.41302 3.90009 0
M  V30 2283 H 303.992 -8.29056 5.99158 0
M  V30 2284 H 302.362 -8.10073 5.25882 0
M  V30 2285 H 303.204 -4.88564 3.92502 0
M  V30 2286 H 305.002 -6.30224 0.72668 0
M  V30 2287 P 306.859 -8.4349 2.47671 0
M  V30 2288 O 308.281 -8.94167 2.5964 0
M  V30 2289 O 306.499 -7.1704 3.19006 0
M  V30 2290 O 306.536 -8.16596 0.923387 0
M  V30 2291 C 306.376 -9.38437 0.108857 0
M  V30 2292 C 306.916 -9.08175 -1.28353 0
M  V30 2293 O 305.86 -8.44229 -1.84713 0
M  V30 2294 C 308.134 -8.18386 -1.42505 0
M  V30 2295 O 308.872 -8.3501 -2.60497 0
M  V30 2296 C 307.465 -6.80225 -1.25468 0
M  V30 2297 O 308.264 -5.81621 -1.91066 0
M  V30 2298 C 306.128 -7.02416 -1.9168 0
M  V30 2299 H 306.16 -6.6888 -2.96621 0
M  V30 2300 H 307.343 -6.53617 -0.192223 0
M  V30 2301 H 308.827 -8.36622 -0.589963 0
M  V30 2302 H 307.133 -10.0291 -1.79807 0
M  V30 2303 H 306.943 -10.2138 0.558219 0
M  V30 2304 H 305.313 -9.6579 0.0444202 0
M  V30 2305 H 307.952 -5.69556 -2.79637 0
M  V30 2306 P 309.81 -8.4349 -2.47671 0
M  V30 2307 O 311.232 -8.92785 -2.65057 0
M  V30 2308 O 309.45 -7.7568 -1.19296 0
M  V30 2309 O 309.487 -7.36886 -3.63805 0
M  V30 2310 C 309.327 -7.95349 -4.982 0
M  V30 2311 C 309.867 -6.94537 -5.98908 0
M  V30 2312 O 308.812 -6.10347 -6.11815 0
M  V30 2313 C 311.085 -6.11426 -5.62335 0
M  V30 2314 O 311.823 -5.6162 -6.70584 0
M  V30 2315 C 310.417 -5.04409 -4.73308 0
M  V30 2316 O 311.215 -3.85929 -4.75106 0
M  V30 2317 C 309.079 -4.8728 -5.41006 0
M  V30 2318 N 308.036 -4.65812 -4.42377 0
M  V30 2319 C 308.098 -5.27109 -3.24335 0
M  V30 2320 N 307.053 -4.94293 -2.47735 0
M  V30 2321 C 306.319 -4.1271 -3.23359 0
M  V30 2322 C 305.013 -3.56384 -2.99934 0
M  V30 2323 O 304.28 -3.69331 -2.00616 0
M  V30 2324 N 304.583 -2.80206 -4.03316 0
M  V30 2325 C 305.332 -2.58614 -5.2172 0
M  V30 2326 N 304.735 -1.75154 -6.13278 0
M  V30 2327 N 306.485 -3.13689 -5.47619 0
M  V30 2328 C 306.942 -3.90921 -4.46436 0
M  V30 2329 H 309.111 -4.02333 -6.11157 0
M  V30 2330 H 310.294 -5.39383 -3.69487 0
M  V30 2331 H 311.779 -6.71414 -5.02615 0
M  V30 2332 H 310.084 -7.4649 -6.93477 0
M  V30 2333 H 309.894 -8.89416 -5.05237 0
M  V30 2334 H 308.263 -8.14876 -5.18409 0
M  V30 2335 H 303.687 -2.36355 -3.95916 0
M  V30 2336 H 308.894 -5.95212 -2.93859 0
M  V30 2337 H 303.824 -1.32473 -5.91856 0
M  V30 2338 H 305.2 -1.5588 -7.03026 0
M  V30 2339 H 310.904 -3.27906 -5.43085 0
M  V30 2340 P 312.76 -5.75688 -6.64379 0
M  V30 2341 O 314.161 -6.14823 -7.06682 0
M  V30 2342 O 312.382 -5.93957 -5.20728 0
M  V30 2343 O 312.437 -4.23169 -7.04357 0
M  V30 2344 C 312.277 -3.99743 -8.4911 0
M  V30 2345 C 312.817 -2.60487 -8.79329 0
M  V30 2346 O 311.761 -1.82663 -8.44573 0
M  V30 2347 C 314.034 -2.10343 -8.03628 0
M  V30 2348 O 314.773 -1.09919 -8.67766 0
M  V30 2349 C 313.367 -1.68446 -6.70876 0
M  V30 2350 O 314.165 -0.678026 -6.08333 0
M  V30 2351 C 312.029 -1.17436 -7.18567 0
M  V30 2352 N 310.986 -1.52699 -6.23988 0
M  V30 2353 C 309.951 -0.643793 -6.05085 0
M  V30 2354 O 309.99 0.459118 -6.64315 0
M  V30 2355 N 308.939 -0.976931 -5.22038 0
M  V30 2356 C 308.987 -2.14429 -4.56662 0
M  V30 2357 N 307.977 -2.4542 -3.76231 0
M  V30 2358 C 310.083 -3.04203 -4.71481 0
M  V30 2359 C 311.049 -2.69669 -5.56838 0
M  V30 2360 H 312.061 -0.0804622 -7.31556 0
M  V30 2361 H 313.244 -2.53396 -6.02698 0
M  V30 2362 H 314.728 -2.9313 -7.85914 0
M  V30 2363 H 313.034 -2.52078 -9.87225 0
M  V30 2364 H 312.843 -4.75072 -9.05887 0
M  V30 2365 H 311.213 -4.05202 -8.76577 0
M  V30 2366 H 310.131 -3.97309 -4.15519 0
M  V30 2367 H 311.895 -3.36869 -5.72318 0
M  V30 2368 H 307.187 -1.80133 -3.65413 0
M  V30 2369 H 307.982 -3.34359 -3.24736 0
M  V30 2370 H 313.949 0.167718 -6.44882 0
M  V30 2371 P 315.711 -1.25109 -8.70152 0
M  V30 2372 O 317.133 -1.29744 -9.22016 0
M  V30 2373 O 315.351 -2.13714 -7.55141 0
M  V30 2374 O 315.388 0.248149 -8.21425 0
M  V30 2375 C 315.228 1.22779 -9.30434 0
M  V30 2376 C 315.768 2.56293 -8.80664 0
M  V30 2377 O 314.712 3.02979 -8.09349 0
M  V30 2378 C 316.986 2.57523 -7.89775 0
M  V30 2379 O 317.724 3.7668 -7.89438 0
M  V30 2380 C 316.317 2.20997 -6.55446 0
M  V30 2381 O 317.116 2.71895 -5.48509 0
M  V30 2382 C 314.98 2.89693 -6.67988 0
M  V30 2383 H 315.012 3.88793 -6.19859 0
M  V30 2384 H 316.195 1.12046 -6.44229 0
M  V30 2385 H 317.679 1.7746 -8.19711 0
M  V30 2386 H 315.985 3.20706 -9.67112 0
M  V30 2387 H 315.795 0.901032 -10.1892 0
M  V30 2388 H 314.165 1.33049 -9.56592 0
M  V30 2389 H 316.804 3.57847 -5.23962 0
M  V30 2390 P 318.662 3.65191 -7.99657 0
M  V30 2391 O 320.084 3.89332 -8.45794 0
M  V30 2392 O 318.302 2.28472 -7.50807 0
M  V30 2393 O 318.339 4.64972 -6.77611 0
M  V30 2394 C 318.179 6.06319 -7.16352 0
M  V30 2395 C 318.719 6.91731 -6.02299 0
M  V30 2396 O 317.663 6.92449 -5.17064 0
M  V30 2397 C 319.937 6.43627 -5.25174 0
M  V30 2398 O 320.675 7.43686 -4.60469 0
M  V30 2399 C 319.268 5.40275 -4.31916 0
M  V30 2400 O 320.067 5.25279 -3.14438 0
M  V30 2401 C 317.931 6.04847 -4.05327 0
M  V30 2402 H 317.963 6.62195 -3.11261 0
M  V30 2403 H 319.146 4.42556 -4.81383 0
M  V30 2404 H 320.63 5.92458 -5.93643 0
M  V30 2405 H 318.936 7.92655 -6.402 0
M  V30 2406 H 318.746 6.26671 -8.0846 0
M  V30 2407 H 317.116 6.29101 -7.32804 0
M  V30 2408 H 319.755 5.84315 -2.47318 0
M  V30 2409 P 321.612 7.39546 -4.75277 0
M  V30 2410 O 323.034 7.84798 -5.01039 0
M  V30 2411 O 321.252 5.9812 -5.08098 0
M  V30 2412 O 321.289 7.57503 -3.1866 0
M  V30 2413 C 321.129 8.97357 -2.74833 0
M  V30 2414 C 321.669 9.07548 -1.32709 0
M  V30 2415 O 320.613 8.62072 -0.606159 0
M  V30 2416 C 322.887 8.25383 -0.938334 0
M  V30 2417 O 323.625 8.74577 0.146954 0
M  V30 2418 C 322.218 6.8802 -0.712559 0
M  V30 2419 O 323.017 6.1189 0.194655 0
M  V30 2420 C 320.881 7.27966 -0.139777 0
M  V30 2421 H 320.913 7.25354 0.961601 0
M  V30 2422 H 322.096 6.32557 -1.65702 0
M  V30 2423 H 323.58 8.19355 -1.79097 0
M  V30 2424 H 321.886 10.1294 -1.10029 0
M  V30 2425 H 321.696 9.64276 -3.41316 0
M  V30 2426 H 320.066 9.25417 -2.76357 0
M  V30 2427 H 322.705 6.25267 1.07847 0
M  V30 2428 P 324.563 8.791 1.35267e-12 0
M  V30 2429 O 325.985 9.31096 0.027933 0
M  V30 2430 O 324.203 7.77869 -1.04071 0
M  V30 2431 O 324.24 8.09533 1.41463 0
M  V30 2432 C 324.08 9.0349 2.53943 0
M  V30 2433 C 324.62 8.35226 3.79016 0
M  V30 2434 O 323.564 7.57992 4.15078 0
M  V30 2435 C 325.838 7.45087 3.67298 0
M  V30 2436 O 326.576 7.27796 4.85194 0
M  V30 2437 C 325.169 6.17323 3.12027 0
M  V30 2438 O 325.968 5.04231 3.47188 0
M  V30 2439 C 323.832 6.19961 3.81809 0
M  V30 2440 H 323.864 5.58218 4.73051 0
M  V30 2441 H 325.047 6.21726 2.02589 0
M  V30 2442 H 326.531 7.86112 2.9231 0
M  V30 2443 H 324.837 9.11627 4.55076 0
M  V30 2444 H 324.647 9.9573 2.34194 0
M  V30 2445 H 323.017 9.2792 2.67832 0
M  V30 2446 H 325.656 4.67702 4.28772 0
M  V30 2447 P 327.513 7.39546 4.75277 0
M  V30 2448 O 328.935 7.81945 5.05847 0
M  V30 2449 O 327.153 7.1065 3.32998 0
M  V30 2450 O 327.19 6.04542 5.56673 0
M  V30 2451 C 327.03 6.22772 7.02095 0
M  V30 2452 C 327.57 4.97671 7.70322 0
M  V30 2453 O 326.515 4.13256 7.58987 0
M  V30 2454 C 328.788 4.28231 7.11815 0
M  V30 2455 O 329.526 3.49945 8.01648 0
M  V30 2456 C 328.12 3.5063 5.96244 0
M  V30 2457 O 328.918 2.36443 5.64589 0
M  V30 2458 C 326.782 3.15122 6.56374 0
M  V30 2459 N 325.739 3.22311 5.55692 0
M  V30 2460 C 325.801 4.14382 4.59701 0
M  V30 2461 N 324.756 4.04476 3.76958 0
M  V30 2462 C 324.022 3.04892 4.26534 0
M  V30 2463 C 322.716 2.57447 3.88189 0
M  V30 2464 O 321.983 2.9785 2.96543 0
M  V30 2465 N 322.286 1.55228 4.65922 0
M  V30 2466 C 323.035 1.01152 5.73447 0
M  V30 2467 N 322.438 -0.0472117 6.37783 0
M  V30 2468 N 324.188 1.467 6.13813 0
M  V30 2469 C 324.645 2.4931 5.38487 0
M  V30 2470 H 326.814 2.13853 6.99751 0
M  V30 2471 H 327.997 4.13438 5.06482 0
M  V30 2472 H 329.482 5.02614 6.71414 0
M  V30 2473 H 327.787 5.20877 8.75697 0
M  V30 2474 H 327.597 7.11046 7.35349 0
M  V30 2475 H 325.966 6.35815 7.26986 0
M  V30 2476 H 321.39 1.15238 4.46468 0
M  V30 2477 H 326.597 4.88312 4.49647 0
M  V30 2478 H 321.527 -0.396382 6.05203 0
M  V30 2479 H 322.903 -0.484997 7.18465 0
M  V30 2480 H 328.607 1.61619 6.13468 0
M  V30 2481 P 330.464 3.65191 7.99657 0
M  V30 2482 O 331.886 3.8425 8.48115 0
M  V30 2483 O 330.104 4.17805 6.64342 0
M  V30 2484 O 330.141 2.07613 7.95143 0
M  V30 2485 C 329.981 1.44328 9.27336 0
M  V30 2486 C 330.521 0.0220036 9.17197 0
M  V30 2487 O 329.465 -0.626867 8.61923 0
M  V30 2488 C 331.739 -0.24586 8.30336 0
M  V30 2489 O 332.477 -1.39011 8.63583 0
M  V30 2490 C 331.07 -0.273849 6.91158 0
M  V30 2491 O 331.869 -1.06348 6.02892 0
M  V30 2492 C 329.733 -0.897649 7.22545 0
M  V30 2493 H 329.765 -1.9841 7.04286 0
M  V30 2494 H 330.948 0.739928 6.497 0
M  V30 2495 H 332.432 0.60668 8.36503 0
M  V30 2496 H 330.738 -0.352479 10.1829 0
M  V30 2497 H 330.548 2.00611 10.0304 0
M  V30 2498 H 328.918 1.41843 9.55327 0
M  V30 2499 H 331.557 -1.95734 6.03555 0
M  V30 2500 P 333.414 -1.25109 8.70152 0
M  V30 2501 O 334.836 -1.35274 9.21221 0
M  V30 2502 O 333.054 -0.0769065 7.84762 0
M  V30 2503 O 333.091 -2.55232 7.81161 0
M  V30 2504 C 332.931 -3.79939 8.58154 0
M  V30 2505 C 333.471 -4.94023 7.72785 0
M  V30 2506 O 332.415 -5.18726 6.91205 0
M  V30 2507 C 334.689 -4.69597 6.85231 0
M  V30 2508 O 335.427 -5.83832 6.51337 0
M  V30 2509 C 334.02 -3.96706 5.66633 0
M  V30 2510 O 334.819 -4.15414 4.49689 0
M  V30 2511 C 332.683 -4.66153 5.59313 0
M  V30 2512 H 332.715 -5.47679 4.85214 0
M  V30 2513 H 333.898 -2.89008 5.86566 0
M  V30 2514 H 335.382 -4.0121 7.36511 0
M  V30 2515 H 333.688 -5.80182 8.37584 0
M  V30 2516 H 333.498 -3.73517 9.52265 0
M  V30 2517 H 331.868 -3.97163 8.80359 0
M  V30 2518 H 334.507 -4.90969 4.01921 0
M  V30 2519 P 336.365 -5.75688 6.64379 0
M  V30 2520 O 337.787 -6.11849 7.01846 0
M  V30 2521 O 336.005 -4.30744 6.56026 0
M  V30 2522 O 336.042 -6.37042 5.19165 0
M  V30 2523 C 335.882 -7.83578 5.16515 0
M  V30 2524 C 336.422 -8.33398 3.83019 0
M  V30 2525 O 335.366 -8.10074 3.01034 0
M  V30 2526 C 337.64 -7.65514 3.2257 0
M  V30 2527 O 338.378 -8.4329 2.32297 0
M  V30 2528 C 336.971 -6.40075 2.62207 0
M  V30 2529 O 337.77 -5.92589 1.53712 0
M  V30 2530 C 335.634 -6.9454 2.18503 0
M  V30 2531 H 335.666 -7.23063 1.12091 0
M  V30 2532 H 336.849 -5.6025 3.37201 0
M  V30 2533 H 338.333 -7.35707 4.02681 0
M  V30 2534 H 336.639 -9.40912 3.9095 0
M  V30 2535 H 336.449 -8.29056 5.99158 0
M  V30 2536 H 334.819 -8.10073 5.25882 0
M  V30 2537 H 337.458 -6.30324 0.726794 0
M  V30 2538 P 339.316 -8.4349 2.47671 0
M  V30 2539 O 340.738 -8.94167 2.5964 0
M  V30 2540 O 338.956 -7.1704 3.19006 0
M  V30 2541 O 338.993 -8.16596 0.923387 0
M  V30 2542 C 338.833 -9.38437 0.108857 0
M  V30 2543 C 339.373 -9.08175 -1.28353 0
M  V30 2544 O 338.317 -8.44229 -1.84713 0
M  V30 2545 C 340.591 -8.18386 -1.42505 0
M  V30 2546 O 341.329 -8.3501 -2.60497 0
M  V30 2547 C 339.922 -6.80225 -1.25468 0
M  V30 2548 O 340.721 -5.81621 -1.91066 0
M  V30 2549 C 338.585 -7.02416 -1.9168 0
M  V30 2550 H 338.617 -6.6888 -2.96621 0
M  V30 2551 H 339.8 -6.53617 -0.192223 0
M  V30 2552 H 341.284 -8.36622 -0.589963 0
M  V30 2553 H 339.59 -10.0291 -1.79807 0
M  V30 2554 H 339.4 -10.2138 0.558219 0
M  V30 2555 H 337.77 -9.6579 0.0444202 0
M  V30 2556 H 340.409 -5.69556 -2.79637 0
M  V30 2557 P 342.266 -8.4349 -2.47671 0
M  V30 2558 O 343.687 -8.92689 -2.65029 0
M  V30 2559 O 341.906 -7.7568 -1.19296 0
M  V30 2560 O 341.943 -7.36886 -3.63805 0
M  V30 2561 C 341.782 -7.95433 -4.98253 0
M  V30 2562 C 342.323 -6.94612 -5.98974 0
M  V30 2563 O 341.268 -6.10277 -6.11744 0
M  V30 2564 C 343.541 -6.11426 -5.62335 0
M  V30 2565 O 344.279 -5.6162 -6.70584 0
M  V30 2566 C 342.873 -5.04409 -4.73308 0
M  V30 2567 O 343.671 -3.86404 -4.74719 0
M  V30 2568 C 341.535 -4.8728 -5.41006 0
M  V30 2569 N 340.492 -4.65812 -4.42377 0
M  V30 2570 C 340.661 -5.09132 -3.15382 0
M  V30 2571 N 339.634 -4.84021 -2.3716 0
M  V30 2572 C 338.749 -4.18386 -3.20441 0
M  V30 2573 C 337.482 -3.6275 -2.94905 0
M  V30 2574 N 336.917 -3.05008 -4.05243 0
M  V30 2575 C 337.519 -2.98348 -5.28159 0
M  V30 2576 N 338.696 -3.48171 -5.56333 0
M  V30 2577 C 339.271 -4.06869 -4.47212 0
M  V30 2578 H 342.75 -5.39013 -3.70026 0
M  V30 2579 H 344.233 -6.71916 -5.01943 0
M  V30 2580 H 342.539 -7.45796 -6.94223 0
M  V30 2581 H 342.349 -8.89416 -5.05237 0
M  V30 2582 H 340.719 -8.14876 -5.18409 0
M  V30 2583 H 341.561 -5.59989 -2.81362 0
M  V30 2584 H 343.359 -3.27906 -5.43085 0
M  V30 2585 P 345.217 -5.75688 -6.64379 0
M  V30 2586 O 346.639 -6.07627 -7.05504 0
M  V30 2587 O 344.857 -5.88047 -5.19722 0
M  V30 2588 O 344.894 -4.2322 -7.04443 0
M  V30 2589 C 344.734 -3.99743 -8.4911 0
M  V30 2590 C 345.274 -2.60516 -8.79425 0
M  V30 2591 O 344.218 -1.82684 -8.4467 0
M  V30 2592 C 346.492 -2.10343 -8.03628 0
M  V30 2593 O 347.23 -1.09919 -8.67766 0
M  V30 2594 C 345.823 -1.68446 -6.70876 0
M  V30 2595 O 346.622 -0.678137 -6.08433 0
M  V30 2596 C 344.486 -1.17436 -7.18567 0
M  V30 2597 H 344.518 -0.0804732 -7.31656 0
M  V30 2598 H 345.701 -2.54037 -6.02537 0
M  V30 2599 H 347.185 -2.93881 -7.85526 0
M  V30 2600 H 345.491 -2.53065 -9.86973 0
M  V30 2601 H 345.301 -4.75072 -9.05887 0
M  V30 2602 H 343.671 -4.05244 -8.76668 0
M  V30 2603 H 346.31 0.177647 -6.34251 0
M  V30 2604 P 348.167 -1.25109 -8.70152 0
M  V30 2605 O 349.588 -1.29758 -9.22115 0
M  V30 2606 O 347.807 -2.13714 -7.55141 0
M  V30 2607 O 347.844 0.248149 -8.21425 0
M  V30 2608 C 347.683 1.22792 -9.30533 0
M  V30 2609 C 348.224 2.56293 -8.80664 0
M  V30 2610 O 347.169 3.02944 -8.09255 0
M  V30 2611 C 349.442 2.57523 -7.89775 0
M  V30 2612 O 350.18 3.7668 -7.89438 0
M  V30 2613 C 348.774 2.20997 -6.55446 0
M  V30 2614 O 349.572 2.71302 -5.48691 0
M  V30 2615 C 347.436 2.89693 -6.67988 0
M  V30 2616 N 346.393 2.08895 -6.07487 0
M  V30 2617 C 346.562 0.753809 -5.94137 0
M  V30 2618 N 345.535 0.146592 -5.38801 0
M  V30 2619 C 344.65 1.1768 -5.13693 0
M  V30 2620 C 343.383 1.17563 -4.52477 0
M  V30 2621 N 342.818 2.41918 -4.45789 0
M  V30 2622 C 343.42 3.56493 -4.90792 0
M  V30 2623 N 344.597 3.61423 -5.47817 0
M  V30 2624 C 345.172 2.37779 -5.5588 0
M  V30 2625 H 348.651 1.12673 -6.44018 0
M  V30 2626 H 350.134 1.7746 -8.19711 0
M  V30 2627 H 348.44 3.21673 -9.66791 0
M  V30 2628 H 348.25 0.901032 -10.1892 0
M  V30 2629 H 346.62 1.33049 -9.56592 0
M  V30 2630 H 347.462 0.233081 -6.26266 0
M  V30 2631 H 349.26 3.5779 -5.23879 0
M  V30 2632 P 351.118 3.65191 -7.99657 0
M  V30 2633 O 352.54 3.89416 -8.45976 0
M  V30 2634 O 350.758 2.28472 -7.50807 0
M  V30 2635 O 350.795 4.64972 -6.77611 0
M  V30 2636 C 350.635 6.06319 -7.16352 0
M  V30 2637 C 351.175 6.91655 -6.02234 0
M  V30 2638 O 350.12 6.92449 -5.17064 0
M  V30 2639 C 352.393 6.43627 -5.25174 0
M  V30 2640 O 353.131 7.43686 -4.60469 0
M  V30 2641 C 351.725 5.40275 -4.31916 0
M  V30 2642 O 352.523 5.25193 -3.14386 0
M  V30 2643 C 350.387 6.04847 -4.05327 0
M  V30 2644 N 349.344 5.04166 -3.98114 0
M  V30 2645 C 349.406 3.96049 -4.75587 0
M  V30 2646 N 348.361 3.15559 -4.54006 0
M  V30 2647 C 347.627 3.78802 -3.62491 0
M  V30 2648 C 346.321 3.476 -3.10071 0
M  V30 2649 O 345.588 2.51136 -3.37021 0
M  V30 2650 N 345.891 4.39088 -2.19956 0
M  V30 2651 C 346.64 5.53215 -1.81733 0
M  V30 2652 N 346.043 6.31963 -0.860928 0
M  V30 2653 N 347.793 5.86688 -2.32562 0
M  V30 2654 C 348.25 4.97525 -3.23407 0
M  V30 2655 H 350.419 6.62195 -3.11261 0
M  V30 2656 H 351.602 4.42488 -4.8131 0
M  V30 2657 H 353.087 5.93051 -5.9305 0
M  V30 2658 H 351.392 7.92655 -6.402 0
M  V30 2659 H 351.202 6.26671 -8.0846 0
M  V30 2660 H 349.571 6.29101 -7.32804 0
M  V30 2661 H 344.995 4.25523 -1.77604 0
M  V30 2662 H 350.202 3.75576 -5.47333 0
M  V30 2663 H 345.132 6.04684 -0.468946 0
M  V30 2664 H 346.508 7.18054 -0.542422 0
M  V30 2665 H 352.212 5.84223 -2.47279 0
M  V30 2666 P 354.068 7.39546 -4.75277 0
M  V30 2667 O 355.489 7.84882 -5.01092 0
M  V30 2668 O 353.708 5.9812 -5.08098 0
M  V30 2669 O 353.745 7.57503 -3.1866 0
M  V30 2670 C 353.584 8.97452 -2.74862 0
M  V30 2671 C 354.125 9.07548 -1.32709 0
M  V30 2672 O 353.07 8.61972 -0.606089 0
M  V30 2673 C 355.343 8.25383 -0.938334 0
M  V30 2674 O 356.081 8.74577 0.146954 0
M  V30 2675 C 354.675 6.8802 -0.712559 0
M  V30 2676 O 355.473 6.1181 0.188505 0
M  V30 2677 C 353.337 7.27966 -0.139777 0
M  V30 2678 N 352.294 6.39368 -0.623421 0
M  V30 2679 C 352.463 5.71761 -1.78245 0
M  V30 2680 N 351.436 4.962 -2.10491 0
M  V30 2681 C 350.551 5.16158 -1.0635 0
M  V30 2682 C 349.284 4.60425 -0.810266 0
M  V30 2683 N 348.685 3.7057 -1.62914 0
M  V30 2684 N 348.719 5.06 0.348685 0
M  V30 2685 C 349.321 5.94532 1.20395 0
M  V30 2686 N 350.498 6.48452 1.01191 0
M  V30 2687 C 351.073 6.04423 -0.146291 0
M  V30 2688 H 353.369 7.25255 0.961469 0
M  V30 2689 H 354.552 6.32625 -1.65044 0
M  V30 2690 H 356.035 8.19355 -1.79097 0
M  V30 2691 H 354.341 10.1305 -1.09016 0
M  V30 2692 H 354.151 9.64276 -3.41316 0
M  V30 2693 H 352.521 9.25417 -2.76357 0
M  V30 2694 H 348.785 6.21659 2.10714 0
M  V30 2695 H 353.363 5.79354 -2.38959 0
M  V30 2696 H 347.755 3.33174 -1.38982 0
M  V30 2697 H 349.159 3.39714 -2.48836 0
M  V30 2698 H 355.161 6.25169 1.0783 0
M  V30 2699 P 357.019 8.791 1.66284e-12 0
M  V30 2700 O 358.44 9.31196 0.027936 0
M  V30 2701 O 356.659 7.77869 -1.04071 0
M  V30 2702 O 356.696 8.09533 1.41463 0
M  V30 2703 C 356.535 9.03587 2.5397 0
M  V30 2704 C 357.076 8.35226 3.79016 0
M  V30 2705 O 356.021 7.57904 4.1503 0
M  V30 2706 C 358.294 7.45087 3.67298 0
M  V30 2707 O 359.032 7.27796 4.85194 0
M  V30 2708 C 357.626 6.17323 3.12027 0
M  V30 2709 O 358.424 5.04496 3.46627 0
M  V30 2710 C 356.288 6.19961 3.81809 0
M  V30 2711 N 355.245 5.71575 2.93223 0
M  V30 2712 C 355.414 5.77362 1.59168 0
M  V30 2713 N 354.387 5.3123 0.911893 0
M  V30 2714 C 353.502 4.91717 1.89588 0
M  V30 2715 C 352.235 4.3114 1.8076 0
M  V30 2716 N 351.636 3.99821 0.632928 0
M  V30 2717 N 351.67 4.06823 3.02898 0
M  V30 2718 C 352.272 4.35062 4.22711 0
M  V30 2719 N 353.449 4.90805 4.35707 0
M  V30 2720 C 354.024 5.16382 3.14469 0
M  V30 2721 H 356.32 5.58142 4.72986 0
M  V30 2722 H 357.503 6.21428 2.0318 0
M  V30 2723 H 358.986 7.86112 2.9231 0
M  V30 2724 H 357.292 9.11171 4.55987 0
M  V30 2725 H 357.102 9.9573 2.34194 0
M  V30 2726 H 355.472 9.2792 2.67832 0
M  V30 2727 H 351.736 4.09052 5.13359 0
M  V30 2728 H 356.314 6.16575 1.12198 0
M  V30 2729 H 350.706 3.55423 0.632085 0
M  V30 2730 H 352.11 4.20317 -0.256712 0
M  V30 2731 H 358.112 4.67628 4.28704 0
M  V30 2732 P 359.97 7.39546 4.75277 0
M  V30 2733 O 361.392 7.81777 5.05738 0
M  V30 2734 O 359.61 7.1065 3.32998 0
M  V30 2735 O 359.647 6.04542 5.56673 0
M  V30 2736 C 359.487 6.22772 7.02095 0
M  V30 2737 C 360.027 4.97725 7.70406 0
M  V30 2738 O 358.971 4.13256 7.58987 0
M  V30 2739 C 361.245 4.28231 7.11815 0
M  V30 2740 O 361.983 3.49945 8.01648 0
M  V30 2741 C 360.576 3.5063 5.96244 0
M  V30 2742 O 361.375 2.36482 5.64681 0
M  V30 2743 C 359.239 3.15122 6.56374 0
M  V30 2744 H 359.271 2.13853 6.99751 0
M  V30 2745 H 360.454 4.13501 5.06559 0
M  V30 2746 H 361.938 5.03285 6.70911 0
M  V30 2747 H 360.244 5.20877 8.75697 0
M  V30 2748 H 360.054 7.11046 7.35349 0
M  V30 2749 H 358.424 6.35815 7.26986 0
M  V30 2750 H 361.063 1.61644 6.13565 0
M  V30 2751 P 362.92 3.65191 7.99657 0
M  V30 2752 O 364.342 3.8425 8.48115 0
M  V30 2753 O 362.56 4.17805 6.64342 0
M  V30 2754 O 362.597 2.07613 7.95143 0
M  V30 2755 C 362.437 1.44328 9.27336 0
M  V30 2756 C 362.977 0.0220036 9.17197 0
M  V30 2757 O 361.921 -0.626867 8.61923 0
M  V30 2758 C 364.195 -0.24586 8.30336 0
M  V30 2759 O 364.933 -1.39011 8.63583 0
M  V30 2760 C 363.526 -0.273849 6.91158 0
M  V30 2761 O 364.325 -1.06348 6.02892 0
M  V30 2762 C 362.189 -0.897649 7.22545 0
M  V30 2763 H 362.221 -1.9841 7.04286 0
M  V30 2764 H 363.404 0.739928 6.497 0
M  V30 2765 H 364.888 0.60668 8.36503 0
M  V30 2766 H 363.194 -0.352479 10.1829 0
M  V30 2767 H 363.004 2.00611 10.0304 0
M  V30 2768 H 361.374 1.41843 9.55327 0
M  V30 2769 H 364.013 -1.95734 6.03555 0
M  V30 2770 P 365.871 -1.25109 8.70152 0
M  V30 2771 O 367.293 -1.35274 9.21221 0
M  V30 2772 O 365.511 -0.0769065 7.84762 0
M  V30 2773 O 365.548 -2.55232 7.81161 0
M  V30 2774 C 365.388 -3.79939 8.58154 0
M  V30 2775 C 365.928 -4.94023 7.72785 0
M  V30 2776 O 364.872 -5.18726 6.91205 0
M  V30 2777 C 367.146 -4.69597 6.85231 0
M  V30 2778 O 367.884 -5.83832 6.51337 0
M  V30 2779 C 366.477 -3.96706 5.66633 0
M  V30 2780 O 367.276 -4.15414 4.49689 0
M  V30 2781 C 365.14 -4.66153 5.59313 0
M  V30 2782 H 365.172 -5.47679 4.85214 0
M  V30 2783 H 366.355 -2.89008 5.86566 0
M  V30 2784 H 367.839 -4.0121 7.36511 0
M  V30 2785 H 366.145 -5.80182 8.37584 0
M  V30 2786 H 365.955 -3.73517 9.52265 0
M  V30 2787 H 364.325 -3.97163 8.80359 0
M  V30 2788 H 366.964 -4.90969 4.01921 0
M  V30 2789 P 368.821 -5.75688 6.64379 0
M  V30 2790 O 370.242 -6.11915 7.01921 0
M  V30 2791 O 368.461 -4.30744 6.56026 0
M  V30 2792 O 368.498 -6.37042 5.19165 0
M  V30 2793 C 368.337 -7.83662 5.1657 0
M  V30 2794 C 368.878 -8.33398 3.83019 0
M  V30 2795 O 367.823 -8.0998 3.00999 0
M  V30 2796 C 370.096 -7.65514 3.2257 0
M  V30 2797 O 370.834 -8.4329 2.32297 0
M  V30 2798 C 369.428 -6.40075 2.62207 0
M  V30 2799 O 370.226 -5.92338 1.5428 0
M  V30 2800 C 368.09 -6.9454 2.18503 0
M  V30 2801 N 367.047 -5.95905 2.39948 0
M  V30 2802 C 367.216 -4.98383 3.32108 0
M  V30 2803 N 366.189 -4.16798 3.41761 0
M  V30 2804 C 365.304 -4.65287 2.47461 0
M  V30 2805 C 364.037 -4.18946 2.07461 0
M  V30 2806 N 363.472 -4.95327 1.09101 0
M  V30 2807 C 364.074 -6.04369 0.519812 0
M  V30 2808 N 365.251 -6.50694 0.855982 0
M  V30 2809 C 365.826 -5.75818 1.84322 0
M  V30 2810 H 369.305 -5.60502 3.36589 0
M  V30 2811 H 370.788 -7.35707 4.02681 0
M  V30 2812 H 369.094 -9.41302 3.90009 0
M  V30 2813 H 368.904 -8.29056 5.99158 0
M  V30 2814 H 367.274 -8.10073 5.25882 0
M  V30 2815 H 368.116 -4.88564 3.92502 0
M  V30 2816 H 369.914 -6.30224 0.72668 0
M  V30 2817 P 371.772 -8.4349 2.47671 0
M  V30 2818 O 373.194 -8.94167 2.5964 0
M  V30 2819 O 371.412 -7.1704 3.19006 0
M  V30 2820 O 371.449 -8.16596 0.923387 0
M  V30 2821 C 371.289 -9.38437 0.108857 0
M  V30 2822 C 371.829 -9.08175 -1.28353 0
M  V30 2823 O 370.773 -8.44229 -1.84713 0
M  V30 2824 C 373.047 -8.18386 -1.42505 0
M  V30 2825 O 373.785 -8.3501 -2.60497 0
M  V30 2826 C 372.378 -6.80225 -1.25468 0
M  V30 2827 O 373.177 -5.81621 -1.91066 0
M  V30 2828 C 371.041 -7.02416 -1.9168 0
M  V30 2829 H 371.073 -6.6888 -2.96621 0
M  V30 2830 H 372.256 -6.53617 -0.192223 0
M  V30 2831 H 373.74 -8.36622 -0.589963 0
M  V30 2832 H 372.046 -10.0291 -1.79807 0
M  V30 2833 H 371.856 -10.2138 0.558219 0
M  V30 2834 H 370.226 -9.6579 0.0444202 0
M  V30 2835 H 372.865 -5.69556 -2.79637 0
M  V30 2836 P 374.722 -8.4349 -2.47671 0
M  V30 2837 O 376.144 -8.92593 -2.65 0
M  V30 2838 O 374.362 -7.7568 -1.19296 0
M  V30 2839 O 374.399 -7.36886 -3.63805 0
M  V30 2840 C 374.239 -7.95349 -4.982 0
M  V30 2841 C 374.779 -6.94612 -5.98974 0
M  V30 2842 O 373.723 -6.10347 -6.11815 0
M  V30 2843 C 375.997 -6.11426 -5.62335 0
M  V30 2844 O 376.735 -5.6162 -6.70584 0
M  V30 2845 C 375.328 -5.04409 -4.73308 0
M  V30 2846 O 376.127 -3.85992 -4.75183 0
M  V30 2847 C 373.991 -4.8728 -5.41006 0
M  V30 2848 H 374.023 -4.02333 -6.11157 0
M  V30 2849 H 375.206 -5.39466 -3.69543 0
M  V30 2850 H 376.69 -6.71916 -5.01943 0
M  V30 2851 H 374.996 -7.4649 -6.93477 0
M  V30 2852 H 374.806 -8.89416 -5.05237 0
M  V30 2853 H 373.176 -8.14876 -5.18409 0
M  V30 2854 H 375.815 -3.27957 -5.4317 0
M  V30 2855 P 377.673 -5.75688 -6.64379 0
M  V30 2856 O 379.095 -6.07627 -7.05504 0
M  V30 2857 O 377.313 -5.88047 -5.19722 0
M  V30 2858 O 377.35 -4.2322 -7.04443 0
M  V30 2859 C 377.19 -3.99743 -8.4911 0
M  V30 2860 C 377.73 -2.60516 -8.79425 0
M  V30 2861 O 376.674 -1.82684 -8.4467 0
M  V30 2862 C 378.948 -2.10343 -8.03628 0
M  V30 2863 O 379.686 -1.09919 -8.67766 0
M  V30 2864 C 378.279 -1.68446 -6.70876 0
M  V30 2865 O 379.078 -0.678137 -6.08433 0
M  V30 2866 C 376.942 -1.17436 -7.18567 0
M  V30 2867 H 376.974 -0.0804732 -7.31656 0
M  V30 2868 H 378.157 -2.54037 -6.02537 0
M  V30 2869 H 379.641 -2.93881 -7.85526 0
M  V30 2870 H 377.947 -2.53065 -9.86973 0
M  V30 2871 H 377.757 -4.75072 -9.05887 0
M  V30 2872 H 376.127 -4.05244 -8.76668 0
M  V30 2873 H 378.766 0.177647 -6.34251 0
M  V30 2874 P 380.624 -1.25109 -8.70152 0
M  V30 2875 O 382.045 -1.29758 -9.22115 0
M  V30 2876 O 380.264 -2.13714 -7.55141 0
M  V30 2877 O 380.301 0.248149 -8.21425 0
M  V30 2878 C 380.14 1.22792 -9.30533 0
M  V30 2879 C 380.681 2.56293 -8.80664 0
M  V30 2880 O 379.626 3.02944 -8.09255 0
M  V30 2881 C 381.899 2.57523 -7.89775 0
M  V30 2882 O 382.637 3.7668 -7.89438 0
M  V30 2883 C 381.231 2.20997 -6.55446 0
M  V30 2884 O 382.029 2.71302 -5.48691 0
M  V30 2885 C 379.893 2.89693 -6.67988 0
M  V30 2886 N 378.85 2.08895 -6.07487 0
M  V30 2887 C 379.019 0.753809 -5.94137 0
M  V30 2888 N 377.992 0.146592 -5.38801 0
M  V30 2889 C 377.107 1.1768 -5.13693 0
M  V30 2890 C 375.84 1.17563 -4.52477 0
M  V30 2891 N 375.241 0.057481 -4.04759 0
M  V30 2892 N 375.275 2.41918 -4.45789 0
M  V30 2893 C 375.877 3.56493 -4.90792 0
M  V30 2894 N 377.054 3.61423 -5.47817 0
M  V30 2895 C 377.629 2.37779 -5.5588 0
M  V30 2896 H 379.925 3.8874 -6.19774 0
M  V30 2897 H 381.108 1.12673 -6.44018 0
M  V30 2898 H 382.591 1.7746 -8.19711 0
M  V30 2899 H 380.897 3.21673 -9.66791 0
M  V30 2900 H 380.707 0.901032 -10.1892 0
M  V30 2901 H 379.077 1.33049 -9.56592 0
M  V30 2902 H 375.341 4.49919 -4.77947 0
M  V30 2903 H 379.919 0.233081 -6.26266 0
M  V30 2904 H 374.311 0.119831 -3.60801 0
M  V30 2905 H 375.715 -0.852272 -4.12385 0
M  V30 2906 H 381.717 3.5779 -5.23879 0
M  V30 2907 P 383.574 3.65191 -7.99657 0
M  V30 2908 O 384.996 3.89416 -8.45976 0
M  V30 2909 O 383.214 2.28472 -7.50807 0
M  V30 2910 O 383.251 4.64972 -6.77611 0
M  V30 2911 C 383.091 6.06319 -7.16352 0
M  V30 2912 C 383.631 6.91655 -6.02234 0
M  V30 2913 O 382.576 6.92449 -5.17064 0
M  V30 2914 C 384.849 6.43627 -5.25174 0
M  V30 2915 O 385.587 7.43686 -4.60469 0
M  V30 2916 C 384.181 5.40275 -4.31916 0
M  V30 2917 O 384.979 5.25193 -3.14386 0
M  V30 2918 C 382.843 6.04847 -4.05327 0
M  V30 2919 N 381.8 5.04166 -3.98114 0
M  V30 2920 C 381.862 3.96049 -4.75587 0
M  V30 2921 N 380.817 3.15559 -4.54006 0
M  V30 2922 C 380.083 3.78802 -3.62491 0
M  V30 2923 C 378.777 3.476 -3.10071 0
M  V30 2924 O 378.044 2.51136 -3.37021 0
M  V30 2925 N 378.347 4.39088 -2.19956 0
M  V30 2926 C 379.096 5.53215 -1.81733 0
M  V30 2927 N 378.499 6.31963 -0.860928 0
M  V30 2928 N 380.249 5.86688 -2.32562 0
M  V30 2929 C 380.706 4.97525 -3.23407 0
M  V30 2930 H 382.875 6.62195 -3.11261 0
M  V30 2931 H 384.058 4.42488 -4.8131 0
M  V30 2932 H 385.543 5.93051 -5.9305 0
M  V30 2933 H 383.848 7.92655 -6.402 0
M  V30 2934 H 383.658 6.26671 -8.0846 0
M  V30 2935 H 382.027 6.29101 -7.32804 0
M  V30 2936 H 377.451 4.25523 -1.77604 0
M  V30 2937 H 382.658 3.75576 -5.47333 0
M  V30 2938 H 377.588 6.04684 -0.468946 0
M  V30 2939 H 378.964 7.18054 -0.542422 0
M  V30 2940 H 384.668 5.84223 -2.47279 0
M  V30 2941 P 386.525 7.39546 -4.75277 0
M  V30 2942 O 387.947 7.84798 -5.01039 0
M  V30 2943 O 386.165 5.9812 -5.08098 0
M  V30 2944 O 386.202 7.57503 -3.1866 0
M  V30 2945 C 386.042 8.97357 -2.74833 0
M  V30 2946 C 386.582 9.07548 -1.32709 0
M  V30 2947 O 385.526 8.62072 -0.606159 0
M  V30 2948 C 387.8 8.25383 -0.938334 0
M  V30 2949 O 388.538 8.74577 0.146954 0
M  V30 2950 C 387.131 6.8802 -0.712559 0
M  V30 2951 O 387.93 6.1189 0.194655 0
M  V30 2952 C 385.794 7.27966 -0.139777 0
M  V30 2953 H 385.826 7.25354 0.961601 0
M  V30 2954 H 387.009 6.32557 -1.65702 0
M  V30 2955 H 388.493 8.19355 -1.79097 0
M  V30 2956 H 386.799 10.1294 -1.10029 0
M  V30 2957 H 386.609 9.64276 -3.41316 0
M  V30 2958 H 384.979 9.25417 -2.76357 0
M  V30 2959 H 387.618 6.25267 1.07847 0
M  V30 2960 P 389.475 8.791 1.973e-12 0
M  V30 2961 O 390.896 9.31196 0.027936 0
M  V30 2962 O 389.115 7.77869 -1.04071 0
M  V30 2963 O 389.152 8.09533 1.41463 0
M  V30 2964 C 388.991 9.03587 2.5397 0
M  V30 2965 C 389.532 8.35226 3.79016 0
M  V30 2966 O 388.477 7.57904 4.1503 0
M  V30 2967 C 390.75 7.45087 3.67298 0
M  V30 2968 O 391.488 7.27796 4.85194 0
M  V30 2969 C 390.082 6.17323 3.12027 0
M  V30 2970 O 390.88 5.04496 3.46627 0
M  V30 2971 C 388.744 6.19961 3.81809 0
M  V30 2972 N 387.701 5.71575 2.93223 0
M  V30 2973 C 387.87 5.77362 1.59168 0
M  V30 2974 N 386.843 5.3123 0.911893 0
M  V30 2975 C 385.958 4.91717 1.89588 0
M  V30 2976 C 384.691 4.3114 1.8076 0
M  V30 2977 N 384.092 3.99821 0.632928 0
M  V30 2978 N 384.126 4.06823 3.02898 0
M  V30 2979 C 384.728 4.35062 4.22711 0
M  V30 2980 N 385.905 4.90805 4.35707 0
M  V30 2981 C 386.48 5.16382 3.14469 0
M  V30 2982 H 388.776 5.58142 4.72986 0
M  V30 2983 H 389.959 6.21428 2.0318 0
M  V30 2984 H 391.442 7.86112 2.9231 0
M  V30 2985 H 389.748 9.11171 4.55987 0
M  V30 2986 H 389.558 9.9573 2.34194 0
M  V30 2987 H 387.928 9.2792 2.67832 0
M  V30 2988 H 384.192 4.09052 5.13359 0
M  V30 2989 H 388.77 6.16575 1.12198 0
M  V30 2990 H 383.162 3.55423 0.632085 0
M  V30 2991 H 384.566 4.20317 -0.256712 0
M  V30 2992 H 390.568 4.67628 4.28704 0
M  V30 2993 P 392.426 7.39546 4.75277 0
M  V30 2994 O 393.848 7.81777 5.05738 0
M  V30 2995 O 392.066 7.1065 3.32998 0
M  V30 2996 O 392.103 6.04542 5.56673 0
M  V30 2997 C 391.943 6.22772 7.02095 0
M  V30 2998 C 392.483 4.97725 7.70406 0
M  V30 2999 O 391.427 4.13256 7.58987 0
M  V30 3000 C 393.701 4.28231 7.11815 0
M  V30 3001 O 394.439 3.49945 8.01648 0
M  V30 3002 C 393.032 3.5063 5.96244 0
M  V30 3003 O 393.831 2.36482 5.64681 0
M  V30 3004 C 391.695 3.15122 6.56374 0
M  V30 3005 H 391.727 2.13853 6.99751 0
M  V30 3006 H 392.91 4.13501 5.06559 0
M  V30 3007 H 394.394 5.03285 6.70911 0
M  V30 3008 H 392.7 5.20877 8.75697 0
M  V30 3009 H 392.51 7.11046 7.35349 0
M  V30 3010 H 390.88 6.35815 7.26986 0
M  V30 3011 H 393.519 1.61644 6.13565 0
M  V30 3012 P 395.376 3.65191 7.99657 0
M  V30 3013 O 396.798 3.8425 8.48115 0
M  V30 3014 O 395.016 4.17805 6.64342 0
M  V30 3015 O 395.053 2.07613 7.95143 0
M  V30 3016 C 394.893 1.44328 9.27336 0
M  V30 3017 C 395.433 0.0220036 9.17197 0
M  V30 3018 O 394.377 -0.626867 8.61923 0
M  V30 3019 C 396.651 -0.24586 8.30336 0
M  V30 3020 O 397.389 -1.39011 8.63583 0
M  V30 3021 C 395.982 -0.273849 6.91158 0
M  V30 3022 O 396.781 -1.06348 6.02892 0
M  V30 3023 C 394.645 -0.897649 7.22545 0
M  V30 3024 H 394.677 -1.9841 7.04286 0
M  V30 3025 H 395.86 0.739928 6.497 0
M  V30 3026 H 397.344 0.60668 8.36503 0
M  V30 3027 H 395.65 -0.352479 10.1829 0
M  V30 3028 H 395.46 2.00611 10.0304 0
M  V30 3029 H 393.83 1.41843 9.55327 0
M  V30 3030 H 396.469 -1.95734 6.03555 0
M  V30 3031 P 398.327 -1.25109 8.70152 0
M  V30 3032 O 399.749 -1.35303 9.21419 0
M  V30 3033 O 397.967 -0.0769065 7.84762 0
M  V30 3034 O 398.004 -2.55232 7.81161 0
M  V30 3035 C 397.844 -3.79939 8.58154 0
M  V30 3036 C 398.384 -4.93969 7.72701 0
M  V30 3037 O 397.329 -5.18726 6.91205 0
M  V30 3038 C 399.602 -4.69597 6.85231 0
M  V30 3039 O 400.34 -5.83832 6.51337 0
M  V30 3040 C 398.934 -3.96706 5.66633 0
M  V30 3041 O 399.732 -4.15346 4.49615 0
M  V30 3042 C 397.596 -4.66153 5.59313 0
M  V30 3043 N 396.553 -3.71582 5.24027 0
M  V30 3044 C 396.615 -2.46018 5.67902 0
M  V30 3045 N 395.57 -1.74868 5.24518 0
M  V30 3046 C 394.836 -2.61333 4.54528 0
M  V30 3047 C 393.53 -2.46162 3.95441 0
M  V30 3048 O 392.797 -1.46013 3.94122 0
M  V30 3049 N 393.1 -3.59334 3.34752 0
M  V30 3050 C 393.849 -4.79605 3.3023 0
M  V30 3051 N 393.252 -5.82109 2.6065 0
M  V30 3052 N 395.002 -4.97402 3.8843 0
M  V30 3053 C 395.459 -3.86258 4.50476 0
M  V30 3054 H 397.628 -5.47679 4.85214 0
M  V30 3055 H 398.811 -2.88964 5.86476 0
M  V30 3056 H 400.296 -4.01947 7.36109 0
M  V30 3057 H 398.601 -5.80182 8.37584 0
M  V30 3058 H 398.411 -3.73517 9.52265 0
M  V30 3059 H 396.78 -3.97163 8.80359 0
M  V30 3060 H 392.204 -3.5825 2.90294 0
M  V30 3061 H 397.411 -2.06161 6.30974 0
M  V30 3062 H 392.341 -5.66979 2.15354 0
M  V30 3063 H 393.717 -6.73686 2.54344 0
M  V30 3064 H 399.421 -4.90891 4.01857 0
M  V30 3065 P 401.278 -5.75688 6.64379 0
M  V30 3066 O 402.7 -6.11849 7.01846 0
M  V30 3067 O 400.918 -4.30744 6.56026 0
M  V30 3068 O 400.955 -6.37042 5.19165 0
M  V30 3069 C 400.795 -7.83578 5.16515 0
M  V30 3070 C 401.335 -8.33398 3.83019 0
M  V30 3071 O 400.279 -8.10074 3.01034 0
M  V30 3072 C 402.553 -7.65514 3.2257 0
M  V30 3073 O 403.291 -8.4329 2.32297 0
M  V30 3074 C 401.884 -6.40075 2.62207 0
M  V30 3075 O 402.683 -5.92589 1.53712 0
M  V30 3076 C 400.547 -6.9454 2.18503 0
M  V30 3077 H 400.579 -7.23063 1.12091 0
M  V30 3078 H 401.762 -5.6025 3.37201 0
M  V30 3079 H 403.246 -7.35707 4.02681 0
M  V30 3080 H 401.552 -9.40912 3.9095 0
M  V30 3081 H 401.362 -8.29056 5.99158 0
M  V30 3082 H 399.732 -8.10073 5.25882 0
M  V30 3083 H 402.371 -6.30324 0.726794 0
M  V30 3084 P 404.228 -8.4349 2.47671 0
M  V30 3085 O 405.65 -8.94167 2.5964 0
M  V30 3086 O 403.868 -7.1704 3.19006 0
M  V30 3087 O 403.905 -8.16596 0.923387 0
M  V30 3088 C 403.745 -9.38437 0.108857 0
M  V30 3089 C 404.285 -9.08175 -1.28353 0
M  V30 3090 O 403.229 -8.44229 -1.84713 0
M  V30 3091 C 405.503 -8.18386 -1.42505 0
M  V30 3092 O 406.241 -8.3501 -2.60497 0
M  V30 3093 C 404.834 -6.80225 -1.25468 0
M  V30 3094 O 405.633 -5.81621 -1.91066 0
M  V30 3095 C 403.497 -7.02416 -1.9168 0
M  V30 3096 H 403.529 -6.6888 -2.96621 0
M  V30 3097 H 404.712 -6.53617 -0.192223 0
M  V30 3098 H 406.196 -8.36622 -0.589963 0
M  V30 3099 H 404.502 -10.0291 -1.79807 0
M  V30 3100 H 404.312 -10.2138 0.558219 0
M  V30 3101 H 402.682 -9.6579 0.0444202 0
M  V30 3102 H 405.321 -5.69556 -2.79637 0
M  V30 3103 P 407.179 -8.4349 -2.47671 0
M  V30 3104 O 408.601 -8.92593 -2.65 0
M  V30 3105 O 406.819 -7.7568 -1.19296 0
M  V30 3106 O 406.856 -7.36886 -3.63805 0
M  V30 3107 C 406.696 -7.95349 -4.982 0
M  V30 3108 C 407.236 -6.94612 -5.98974 0
M  V30 3109 O 406.18 -6.10347 -6.11815 0
M  V30 3110 C 408.454 -6.11426 -5.62335 0
M  V30 3111 O 409.192 -5.6162 -6.70584 0
M  V30 3112 C 407.785 -5.04409 -4.73308 0
M  V30 3113 O 408.584 -3.85992 -4.75183 0
M  V30 3114 C 406.448 -4.8728 -5.41006 0
M  V30 3115 H 406.48 -4.02333 -6.11157 0
M  V30 3116 H 407.663 -5.39466 -3.69543 0
M  V30 3117 H 409.147 -6.71916 -5.01943 0
M  V30 3118 H 407.453 -7.4649 -6.93477 0
M  V30 3119 H 407.263 -8.89416 -5.05237 0
M  V30 3120 H 405.633 -8.14876 -5.18409 0
M  V30 3121 H 408.272 -3.27957 -5.4317 0
M  V30 3122 P 410.129 -5.75688 -6.64379 0
M  V30 3123 O 411.551 -6.07627 -7.05504 0
M  V30 3124 O 409.769 -5.88047 -5.19722 0
M  V30 3125 O 409.806 -4.2322 -7.04443 0
M  V30 3126 C 409.646 -3.99743 -8.4911 0
M  V30 3127 C 410.186 -2.60516 -8.79425 0
M  V30 3128 O 409.13 -1.82684 -8.4467 0
M  V30 3129 C 411.404 -2.10343 -8.03628 0
M  V30 3130 O 412.142 -1.09919 -8.67766 0
M  V30 3131 C 410.735 -1.68446 -6.70876 0
M  V30 3132 O 411.534 -0.678137 -6.08433 0
M  V30 3133 C 409.398 -1.17436 -7.18567 0
M  V30 3134 H 409.43 -0.0804732 -7.31656 0
M  V30 3135 H 410.613 -2.54037 -6.02537 0
M  V30 3136 H 412.097 -2.93881 -7.85526 0
M  V30 3137 H 410.403 -2.53065 -9.86973 0
M  V30 3138 H 410.213 -4.75072 -9.05887 0
M  V30 3139 H 408.583 -4.05244 -8.76668 0
M  V30 3140 H 411.222 0.177647 -6.34251 0
M  V30 3141 P 413.08 -1.25109 -8.70152 0
M  V30 3142 O 414.502 -1.29744 -9.22016 0
M  V30 3143 O 412.72 -2.13714 -7.55141 0
M  V30 3144 O 412.757 0.248149 -8.21425 0
M  V30 3145 C 412.597 1.22779 -9.30434 0
M  V30 3146 C 413.137 2.56293 -8.80664 0
M  V30 3147 O 412.081 3.02979 -8.09349 0
M  V30 3148 C 414.355 2.57523 -7.89775 0
M  V30 3149 O 415.093 3.7668 -7.89438 0
M  V30 3150 C 413.686 2.20997 -6.55446 0
M  V30 3151 O 414.485 2.71895 -5.48509 0
M  V30 3152 C 412.349 2.89693 -6.67988 0
M  V30 3153 H 412.381 3.88793 -6.19859 0
M  V30 3154 H 413.564 1.12046 -6.44229 0
M  V30 3155 H 415.048 1.7746 -8.19711 0
M  V30 3156 H 413.354 3.20706 -9.67112 0
M  V30 3157 H 413.164 0.901032 -10.1892 0
M  V30 3158 H 411.534 1.33049 -9.56592 0
M  V30 3159 H 414.173 3.57847 -5.23962 0
M  V30 3160 P 416.03 3.65191 -7.99657 0
M  V30 3161 O 417.452 3.89332 -8.45794 0
M  V30 3162 O 415.67 2.28472 -7.50807 0
M  V30 3163 O 415.707 4.64972 -6.77611 0
M  V30 3164 C 415.547 6.06319 -7.16352 0
M  V30 3165 C 416.087 6.91731 -6.02299 0
M  V30 3166 O 415.031 6.92449 -5.17064 0
M  V30 3167 C 417.305 6.43627 -5.25174 0
M  V30 3168 O 418.043 7.43686 -4.60469 0
M  V30 3169 C 416.636 5.40275 -4.31916 0
M  V30 3170 O 417.435 5.25279 -3.14438 0
M  V30 3171 C 415.299 6.04847 -4.05327 0
M  V30 3172 H 415.331 6.62195 -3.11261 0
M  V30 3173 H 416.514 4.42556 -4.81383 0
M  V30 3174 H 417.998 5.92458 -5.93643 0
M  V30 3175 H 416.304 7.92655 -6.402 0
M  V30 3176 H 416.114 6.26671 -8.0846 0
M  V30 3177 H 414.484 6.29101 -7.32804 0
M  V30 3178 H 417.123 5.84315 -2.47318 0
M  V30 3179 P 418.981 7.39546 -4.75277 0
M  V30 3180 O 420.403 7.84798 -5.01039 0
M  V30 3181 O 418.621 5.9812 -5.08098 0
M  V30 3182 O 418.658 7.57503 -3.1866 0
M  V30 3183 C 418.498 8.97357 -2.74833 0
M  V30 3184 C 419.038 9.07548 -1.32709 0
M  V30 3185 O 417.982 8.62072 -0.606159 0
M  V30 3186 C 420.256 8.25383 -0.938334 0
M  V30 3187 O 420.994 8.74577 0.146954 0
M  V30 3188 C 419.587 6.8802 -0.712559 0
M  V30 3189 O 420.386 6.1189 0.194655 0
M  V30 3190 C 418.25 7.27966 -0.139777 0
M  V30 3191 H 418.282 7.25354 0.961601 0
M  V30 3192 H 419.465 6.32557 -1.65702 0
M  V30 3193 H 420.949 8.19355 -1.79097 0
M  V30 3194 H 419.255 10.1294 -1.10029 0
M  V30 3195 H 419.065 9.64276 -3.41316 0
M  V30 3196 H 417.435 9.25417 -2.76357 0
M  V30 3197 H 420.074 6.25267 1.07847 0
M  V30 3198 P 421.932 8.791 2.28317e-12 0
M  V30 3199 O 423.354 9.31096 0.027933 0
M  V30 3200 O 421.572 7.77869 -1.04071 0
M  V30 3201 O 421.609 8.09533 1.41463 0
M  V30 3202 C 421.449 9.0349 2.53943 0
M  V30 3203 C 421.989 8.35226 3.79016 0
M  V30 3204 O 420.933 7.57992 4.15078 0
M  V30 3205 C 423.207 7.45087 3.67298 0
M  V30 3206 O 423.945 7.27796 4.85194 0
M  V30 3207 C 422.538 6.17323 3.12027 0
M  V30 3208 O 423.337 5.04231 3.47188 0
M  V30 3209 C 421.201 6.19961 3.81809 0
M  V30 3210 H 421.233 5.58218 4.73051 0
M  V30 3211 H 422.416 6.21726 2.02589 0
M  V30 3212 H 423.9 7.86112 2.9231 0
M  V30 3213 H 422.206 9.11627 4.55076 0
M  V30 3214 H 422.016 9.9573 2.34194 0
M  V30 3215 H 420.386 9.2792 2.67832 0
M  V30 3216 H 423.025 4.67702 4.28772 0
M  V30 3217 P 424.882 7.39546 4.75277 0
M  V30 3218 O 426.304 7.81945 5.05847 0
M  V30 3219 O 424.522 7.1065 3.32998 0
M  V30 3220 O 424.559 6.04542 5.56673 0
M  V30 3221 C 424.399 6.22772 7.02095 0
M  V30 3222 C 424.939 4.97671 7.70322 0
M  V30 3223 O 423.884 4.13256 7.58987 0
M  V30 3224 C 426.157 4.28231 7.11815 0
M  V30 3225 O 426.895 3.49945 8.01648 0
M  V30 3226 C 425.489 3.5063 5.96244 0
M  V30 3227 O 426.287 2.36443 5.64589 0
M  V30 3228 C 424.151 3.15122 6.56374 0
M  V30 3229 N 423.108 3.22311 5.55692 0
M  V30 3230 C 423.17 4.14382 4.59701 0
M  V30 3231 N 422.125 4.04476 3.76958 0
M  V30 3232 C 421.391 3.04892 4.26534 0
M  V30 3233 C 420.085 2.57447 3.88189 0
M  V30 3234 O 419.352 2.9785 2.96543 0
M  V30 3235 N 419.655 1.55228 4.65922 0
M  V30 3236 C 420.404 1.01152 5.73447 0
M  V30 3237 N 419.807 -0.0472117 6.37783 0
M  V30 3238 N 421.557 1.467 6.13813 0
M  V30 3239 C 422.014 2.4931 5.38487 0
M  V30 3240 H 424.183 2.13853 6.99751 0
M  V30 3241 H 425.366 4.13438 5.06482 0
M  V30 3242 H 426.851 5.02614 6.71414 0
M  V30 3243 H 425.156 5.20877 8.75697 0
M  V30 3244 H 424.966 7.11046 7.35349 0
M  V30 3245 H 423.335 6.35815 7.26986 0
M  V30 3246 H 418.759 1.15238 4.46468 0
M  V30 3247 H 423.966 4.88312 4.49647 0
M  V30 3248 H 418.896 -0.396382 6.05203 0
M  V30 3249 H 420.272 -0.484997 7.18465 0
M  V30 3250 H 425.976 1.61619 6.13468 0
M  V30 3251 P 427.833 3.65191 7.99657 0
M  V30 3252 O 429.255 3.8425 8.48115 0
M  V30 3253 O 427.473 4.17805 6.64342 0
M  V30 3254 O 427.51 2.07613 7.95143 0
M  V30 3255 C 427.35 1.44328 9.27336 0
M  V30 3256 C 427.89 0.0220036 9.17197 0
M  V30 3257 O 426.834 -0.626867 8.61923 0
M  V30 3258 C 429.108 -0.24586 8.30336 0
M  V30 3259 O 429.846 -1.39011 8.63583 0
M  V30 3260 C 428.439 -0.273849 6.91158 0
M  V30 3261 O 429.238 -1.06348 6.02892 0
M  V30 3262 C 427.102 -0.897649 7.22545 0
M  V30 3263 H 427.134 -1.9841 7.04286 0
M  V30 3264 H 428.317 0.739928 6.497 0
M  V30 3265 H 429.801 0.60668 8.36503 0
M  V30 3266 H 428.107 -0.352479 10.1829 0
M  V30 3267 H 427.917 2.00611 10.0304 0
M  V30 3268 H 426.287 1.41843 9.55327 0
M  V30 3269 H 428.926 -1.95734 6.03555 0
M  V30 3270 P 430.783 -1.25109 8.70152 0
M  V30 3271 O 432.205 -1.35274 9.21221 0
M  V30 3272 O 430.423 -0.0769065 7.84762 0
M  V30 3273 O 430.46 -2.55232 7.81161 0
M  V30 3274 C 430.3 -3.79939 8.58154 0
M  V30 3275 C 430.84 -4.94023 7.72785 0
M  V30 3276 O 429.784 -5.18726 6.91205 0
M  V30 3277 C 432.058 -4.69597 6.85231 0
M  V30 3278 O 432.796 -5.83832 6.51337 0
M  V30 3279 C 431.389 -3.96706 5.66633 0
M  V30 3280 O 432.188 -4.15414 4.49689 0
M  V30 3281 C 430.052 -4.66153 5.59313 0
M  V30 3282 H 430.084 -5.47679 4.85214 0
M  V30 3283 H 431.267 -2.89008 5.86566 0
M  V30 3284 H 432.751 -4.0121 7.36511 0
M  V30 3285 H 431.057 -5.80182 8.37584 0
M  V30 3286 H 430.867 -3.73517 9.52265 0
M  V30 3287 H 429.237 -3.97163 8.80359 0
M  V30 3288 H 431.876 -4.90969 4.01921 0
M  V30 3289 P 433.734 -5.75688 6.64379 0
M  V30 3290 O 435.156 -6.11849 7.01846 0
M  V30 3291 O 433.374 -4.30744 6.56026 0
M  V30 3292 O 433.411 -6.37042 5.19165 0
M  V30 3293 C 433.251 -7.83578 5.16515 0
M  V30 3294 C 433.791 -8.33398 3.83019 0
M  V30 3295 O 432.735 -8.10074 3.01034 0
M  V30 3296 C 435.009 -7.65514 3.2257 0
M  V30 3297 O 435.747 -8.4329 2.32297 0
M  V30 3298 C 434.34 -6.40075 2.62207 0
M  V30 3299 O 435.139 -5.92589 1.53712 0
M  V30 3300 C 433.003 -6.9454 2.18503 0
M  V30 3301 H 433.035 -7.23063 1.12091 0
M  V30 3302 H 434.218 -5.6025 3.37201 0
M  V30 3303 H 435.702 -7.35707 4.02681 0
M  V30 3304 H 434.008 -9.40912 3.9095 0
M  V30 3305 H 433.818 -8.29056 5.99158 0
M  V30 3306 H 432.188 -8.10073 5.25882 0
M  V30 3307 H 434.827 -6.30324 0.726794 0
M  V30 3308 P 436.684 -8.4349 2.47671 0
M  V30 3309 O 438.106 -8.94359 2.59696 0
M  V30 3310 O 436.324 -7.1704 3.19006 0
M  V30 3311 O 436.361 -8.16596 0.923387 0
M  V30 3312 C 436.201 -9.38437 0.108857 0
M  V30 3313 C 436.741 -9.08076 -1.28339 0
M  V30 3314 O 435.686 -8.44229 -1.84713 0
M  V30 3315 C 437.959 -8.18386 -1.42505 0
M  V30 3316 O 438.697 -8.3501 -2.60497 0
M  V30 3317 C 437.291 -6.80225 -1.25468 0
M  V30 3318 O 438.089 -5.81526 -1.91035 0
M  V30 3319 C 435.953 -7.02416 -1.9168 0
M  V30 3320 N 434.91 -6.31033 -1.20314 0
M  V30 3321 C 434.972 -6.18781 0.121293 0
M  V30 3322 N 433.927 -5.49762 0.588272 0
M  V30 3323 C 433.193 -5.22015 -0.488988 0
M  V30 3324 C 431.887 -4.61966 -0.596448 0
M  V30 3325 O 431.154 -4.19162 0.309059 0
M  V30 3326 N 431.457 -4.53773 -1.878 0
M  V30 3327 C 432.206 -4.99623 -2.99082 0
M  V30 3328 N 431.609 -4.78912 -4.21227 0
M  V30 3329 N 433.359 -5.59957 -2.91093 0
M  V30 3330 C 433.816 -5.70225 -1.64218 0
M  V30 3331 H 435.985 -6.6888 -2.96621 0
M  V30 3332 H 437.168 -6.53517 -0.192194 0
M  V30 3333 H 438.653 -8.36563 -0.598329 0
M  V30 3334 H 436.958 -10.0291 -1.79807 0
M  V30 3335 H 436.768 -10.2138 0.558219 0
M  V30 3336 H 435.137 -9.6579 0.0444202 0
M  V30 3337 H 430.561 -4.12883 -2.05283 0
M  V30 3338 H 435.768 -6.59596 0.745856 0
M  V30 3339 H 430.698 -4.31425 -4.2628 0
M  V30 3340 H 432.074 -5.11219 -5.07148 0
M  V30 3341 H 437.778 -5.69466 -2.79593 0
M  V30 3342 P 439.635 -8.4349 -2.47671 0
M  V30 3343 O 441.057 -8.92593 -2.65 0
M  V30 3344 O 439.275 -7.7568 -1.19296 0
M  V30 3345 O 439.312 -7.36886 -3.63805 0
M  V30 3346 C 439.152 -7.95349 -4.982 0
M  V30 3347 C 439.692 -6.94612 -5.98974 0
M  V30 3348 O 438.636 -6.10347 -6.11815 0
M  V30 3349 C 440.91 -6.11426 -5.62335 0
M  V30 3350 O 441.648 -5.6162 -6.70584 0
M  V30 3351 C 440.241 -5.04409 -4.73308 0
M  V30 3352 O 441.04 -3.85992 -4.75183 0
M  V30 3353 C 438.904 -4.8728 -5.41006 0
M  V30 3354 H 438.936 -4.02333 -6.11157 0
M  V30 3355 H 440.119 -5.39466 -3.69543 0
M  V30 3356 H 441.603 -6.71916 -5.01943 0
M  V30 3357 H 439.909 -7.4649 -6.93477 0
M  V30 3358 H 439.719 -8.89416 -5.05237 0
M  V30 3359 H 438.089 -8.14876 -5.18409 0
M  V30 3360 H 440.728 -3.27957 -5.4317 0
M  V30 3361 P 442.586 -5.75688 -6.64379 0
M  V30 3362 O 444.008 -6.07627 -7.05504 0
M  V30 3363 O 442.226 -5.88047 -5.19722 0
M  V30 3364 O 442.263 -4.2322 -7.04443 0
M  V30 3365 C 442.103 -3.99743 -8.4911 0
M  V30 3366 C 442.643 -2.60516 -8.79425 0
M  V30 3367 O 441.587 -1.82684 -8.4467 0
M  V30 3368 C 443.861 -2.10343 -8.03628 0
M  V30 3369 O 444.599 -1.09919 -8.67766 0
M  V30 3370 C 443.192 -1.68446 -6.70876 0
M  V30 3371 O 443.991 -0.678137 -6.08433 0
M  V30 3372 C 441.855 -1.17436 -7.18567 0
M  V30 3373 H 441.887 -0.0804732 -7.31656 0
M  V30 3374 H 443.07 -2.54037 -6.02537 0
M  V30 3375 H 444.554 -2.93881 -7.85526 0
M  V30 3376 H 442.86 -2.53065 -9.86973 0
M  V30 3377 H 442.67 -4.75072 -9.05887 0
M  V30 3378 H 441.04 -4.05244 -8.76668 0
M  V30 3379 H 443.679 0.177647 -6.34251 0
M  V30 3380 P 445.536 -1.25109 -8.70152 0
M  V30 3381 O 446.958 -1.29744 -9.22016 0
M  V30 3382 O 445.176 -2.13714 -7.55141 0
M  V30 3383 O 445.213 0.248149 -8.21425 0
M  V30 3384 C 445.053 1.22779 -9.30434 0
M  V30 3385 C 445.593 2.56293 -8.80664 0
M  V30 3386 O 444.537 3.02979 -8.09349 0
M  V30 3387 C 446.811 2.57523 -7.89775 0
M  V30 3388 O 447.549 3.7668 -7.89438 0
M  V30 3389 C 446.142 2.20997 -6.55446 0
M  V30 3390 O 446.941 2.71895 -5.48509 0
M  V30 3391 C 444.805 2.89693 -6.67988 0
M  V30 3392 H 444.837 3.88793 -6.19859 0
M  V30 3393 H 446.02 1.12046 -6.44229 0
M  V30 3394 H 447.504 1.7746 -8.19711 0
M  V30 3395 H 445.81 3.20706 -9.67112 0
M  V30 3396 H 445.62 0.901032 -10.1892 0
M  V30 3397 H 443.99 1.33049 -9.56592 0
M  V30 3398 H 446.629 3.57847 -5.23962 0
M  V30 3399 P 448.487 3.65191 -7.99657 0
M  V30 3400 O 449.888 3.87414 -8.52829 0
M  V30 3401 O 448.109 2.26932 -7.566 0
M  V30 3402 O 448.164 4.64915 -6.77529 0
M  V30 3403 C 448.004 6.06319 -7.16352 0
M  V30 3404 C 448.544 6.91655 -6.02234 0
M  V30 3405 O 447.488 6.92369 -5.17005 0
M  V30 3406 C 449.761 6.43627 -5.25174 0
M  V30 3407 O 450.5 7.43686 -4.60469 0
M  V30 3408 C 449.094 5.40275 -4.31916 0
M  V30 3409 O 449.892 5.25193 -3.14386 0
M  V30 3410 C 447.756 6.04847 -4.05327 0
M  V30 3411 N 446.713 5.04166 -3.98114 0
M  V30 3412 C 445.678 5.2366 -3.09923 0
M  V30 3413 O 445.717 6.23355 -2.34204 0
M  V30 3414 N 444.666 4.34279 -3.05727 0
M  V30 3415 C 444.714 3.26317 -3.84756 0
M  V30 3416 C 445.81 3.02504 -4.72573 0
M  V30 3417 C 446.776 3.94493 -4.76618 0
M  V30 3418 H 447.788 6.62104 -3.11218 0
M  V30 3419 H 448.971 4.42969 -4.80867 0
M  V30 3420 H 450.455 5.93122 -5.93121 0
M  V30 3421 H 448.761 7.93295 -6.39407 0
M  V30 3422 H 448.57 6.26671 -8.0846 0
M  V30 3423 H 446.94 6.29036 -7.32728 0
M  V30 3424 H 445.858 2.12921 -5.34017 0
M  V30 3425 H 447.622 3.80658 -5.44176 0
M  V30 3426 H 449.676 5.93572 -2.52637 0
M  V30 3427 P 451.437 7.39546 -4.75277 0
M  V30 3428 O 452.859 7.84798 -5.01039 0
M  V30 3429 O 451.077 5.9812 -5.08098 0
M  V30 3430 O 451.114 7.57503 -3.1866 0
M  V30 3431 C 450.954 8.97357 -2.74833 0
M  V30 3432 C 451.494 9.07548 -1.32709 0
M  V30 3433 O 450.438 8.62072 -0.606159 0
M  V30 3434 C 452.712 8.25383 -0.938334 0
M  V30 3435 O 453.45 8.74577 0.146954 0
M  V30 3436 C 452.043 6.8802 -0.712559 0
M  V30 3437 O 452.842 6.1189 0.194655 0
M  V30 3438 C 450.706 7.27966 -0.139777 0
M  V30 3439 H 450.738 7.25354 0.961601 0
M  V30 3440 H 451.921 6.32557 -1.65702 0
M  V30 3441 H 453.405 8.19355 -1.79097 0
M  V30 3442 H 451.711 10.1294 -1.10029 0
M  V30 3443 H 451.521 9.64276 -3.41316 0
M  V30 3444 H 449.891 9.25417 -2.76357 0
M  V30 3445 H 452.53 6.25267 1.07847 0
M  V30 3446 P 454.388 8.791 2.59334e-12 0
M  V30 3447 O 455.81 9.31096 0.027933 0
M  V30 3448 O 454.028 7.77869 -1.04071 0
M  V30 3449 O 454.065 8.09533 1.41463 0
M  V30 3450 C 453.905 9.0349 2.53943 0
M  V30 3451 C 454.445 8.35226 3.79016 0
M  V30 3452 O 453.389 7.57992 4.15078 0
M  V30 3453 C 455.663 7.45087 3.67298 0
M  V30 3454 O 456.401 7.27796 4.85194 0
M  V30 3455 C 454.994 6.17323 3.12027 0
M  V30 3456 O 455.793 5.04231 3.47188 0
M  V30 3457 C 453.657 6.19961 3.81809 0
M  V30 3458 H 453.689 5.58218 4.73051 0
M  V30 3459 H 454.872 6.21726 2.02589 0
M  V30 3460 H 456.356 7.86112 2.9231 0
M  V30 3461 H 454.662 9.11627 4.55076 0
M  V30 3462 H 454.472 9.9573 2.34194 0
M  V30 3463 H 452.842 9.2792 2.67832 0
M  V30 3464 H 455.481 4.67702 4.28772 0
M  V30 3465 P 457.338 7.39546 4.75277 0
M  V30 3466 O 458.76 7.81777 5.05738 0
M  V30 3467 O 456.978 7.1065 3.32998 0
M  V30 3468 O 457.015 6.04542 5.56673 0
M  V30 3469 C 456.855 6.22772 7.02095 0
M  V30 3470 C 457.395 4.97725 7.70406 0
M  V30 3471 O 456.339 4.13256 7.58987 0
M  V30 3472 C 458.613 4.28231 7.11815 0
M  V30 3473 O 459.351 3.49945 8.01648 0
M  V30 3474 C 457.944 3.5063 5.96244 0
M  V30 3475 O 458.743 2.36482 5.64681 0
M  V30 3476 C 456.607 3.15122 6.56374 0
M  V30 3477 H 456.639 2.13853 6.99751 0
M  V30 3478 H 457.822 4.13501 5.06559 0
M  V30 3479 H 459.306 5.03285 6.70911 0
M  V30 3480 H 457.612 5.20877 8.75697 0
M  V30 3481 H 457.422 7.11046 7.35349 0
M  V30 3482 H 455.792 6.35815 7.26986 0
M  V30 3483 H 458.431 1.61644 6.13565 0
M  V30 3484 P 460.289 3.65191 7.99657 0
M  V30 3485 O 461.69 3.90823 8.51272 0
M  V30 3486 O 459.911 4.23191 6.66972 0
M  V30 3487 O 459.966 2.07587 7.95046 0
M  V30 3488 C 459.806 1.44328 9.27336 0
M  V30 3489 C 460.346 0.0220012 9.17097 0
M  V30 3490 O 459.29 -0.626794 8.61824 0
M  V30 3491 C 461.563 -0.24586 8.30336 0
M  V30 3492 O 462.302 -1.39011 8.63583 0
M  V30 3493 C 460.896 -0.273849 6.91158 0
M  V30 3494 O 461.694 -1.06331 6.02794 0
M  V30 3495 C 459.558 -0.897649 7.22545 0
M  V30 3496 N 458.515 -0.292839 6.41732 0
M  V30 3497 C 457.48 -1.08701 5.98712 0
M  V30 3498 O 457.519 -2.31211 6.24471 0
M  V30 3499 N 456.468 -0.533391 5.28415 0
M  V30 3500 C 456.516 0.770866 4.98576 0
M  V30 3501 N 455.506 1.29482 4.30134 0
M  V30 3502 C 457.612 1.59049 5.38086 0
M  V30 3503 C 458.578 1.01866 6.10256 0
M  V30 3504 H 459.59 -1.98383 7.04189 0
M  V30 3505 H 460.773 0.733318 6.49674 0
M  V30 3506 H 462.257 0.598386 8.36663 0
M  V30 3507 H 460.563 -0.362662 10.1825 0
M  V30 3508 H 460.372 2.00611 10.0304 0
M  V30 3509 H 458.742 1.41828 9.55228 0
M  V30 3510 H 457.66 2.6415 5.10622 0
M  V30 3511 H 459.424 1.61983 6.44042 0
M  V30 3512 H 454.716 0.69888 4.01361 0
M  V30 3513 H 455.511 2.29327 4.05781 0
M  V30 3514 H 461.478 -1.97777 6.14035 0
M  V30 3515 P 463.239 -1.25109 8.70152 0
M  V30 3516 O 464.661 -1.35274 9.21221 0
M  V30 3517 O 462.879 -0.0769065 7.84762 0
M  V30 3518 O 462.916 -2.55232 7.81161 0
M  V30 3519 C 462.756 -3.79939 8.58154 0
M  V30 3520 C 463.296 -4.94023 7.72785 0
M  V30 3521 O 462.24 -5.18726 6.91205 0
M  V30 3522 C 464.514 -4.69597 6.85231 0
M  V30 3523 O 465.252 -5.83832 6.51337 0
M  V30 3524 C 463.845 -3.96706 5.66633 0
M  V30 3525 O 464.644 -4.15414 4.49689 0
M  V30 3526 C 462.508 -4.66153 5.59313 0
M  V30 3527 H 462.54 -5.47679 4.85214 0
M  V30 3528 H 463.723 -2.89008 5.86566 0
M  V30 3529 H 465.207 -4.0121 7.36511 0
M  V30 3530 H 463.513 -5.80182 8.37584 0
M  V30 3531 H 463.323 -3.73517 9.52265 0
M  V30 3532 H 461.693 -3.97163 8.80359 0
M  V30 3533 H 464.332 -4.90969 4.01921 0
M  V30 3534 P 466.19 -5.75688 6.64379 0
M  V30 3535 O 467.612 -6.11849 7.01846 0
M  V30 3536 O 465.83 -4.30744 6.56026 0
M  V30 3537 O 465.867 -6.37042 5.19165 0
M  V30 3538 C 465.707 -7.83578 5.16515 0
M  V30 3539 C 466.247 -8.33398 3.83019 0
M  V30 3540 O 465.191 -8.10074 3.01034 0
M  V30 3541 C 467.465 -7.65514 3.2257 0
M  V30 3542 O 468.203 -8.4329 2.32297 0
M  V30 3543 C 466.796 -6.40075 2.62207 0
M  V30 3544 O 467.595 -5.92589 1.53712 0
M  V30 3545 C 465.459 -6.9454 2.18503 0
M  V30 3546 H 465.491 -7.23063 1.12091 0
M  V30 3547 H 466.674 -5.6025 3.37201 0
M  V30 3548 H 468.158 -7.35707 4.02681 0
M  V30 3549 H 466.464 -9.40912 3.9095 0
M  V30 3550 H 466.274 -8.29056 5.99158 0
M  V30 3551 H 464.644 -8.10073 5.25882 0
M  V30 3552 H 467.283 -6.30324 0.726794 0
M  V30 3553 P 469.141 -8.4349 2.47671 0
M  V30 3554 O 470.563 -8.94167 2.5964 0
M  V30 3555 O 468.781 -7.1704 3.19006 0
M  V30 3556 O 468.818 -8.16596 0.923387 0
M  V30 3557 C 468.658 -9.38437 0.108857 0
M  V30 3558 C 469.198 -9.08175 -1.28353 0
M  V30 3559 O 468.142 -8.44229 -1.84713 0
M  V30 3560 C 470.416 -8.18386 -1.42505 0
M  V30 3561 O 471.154 -8.3501 -2.60497 0
M  V30 3562 C 469.747 -6.80225 -1.25468 0
M  V30 3563 O 470.546 -5.81621 -1.91066 0
M  V30 3564 C 468.41 -7.02416 -1.9168 0
M  V30 3565 H 468.442 -6.6888 -2.96621 0
M  V30 3566 H 469.625 -6.53617 -0.192223 0
M  V30 3567 H 471.109 -8.36622 -0.589963 0
M  V30 3568 H 469.415 -10.0291 -1.79807 0
M  V30 3569 H 469.225 -10.2138 0.558219 0
M  V30 3570 H 467.595 -9.6579 0.0444202 0
M  V30 3571 H 470.234 -5.69556 -2.79637 0
M  V30 3572 P 472.091 -8.4349 -2.47671 0
M  V30 3573 O 473.512 -8.92689 -2.65029 0
M  V30 3574 O 471.731 -7.7568 -1.19296 0
M  V30 3575 O 471.768 -7.36886 -3.63805 0
M  V30 3576 C 471.607 -7.95433 -4.98253 0
M  V30 3577 C 472.148 -6.94612 -5.98974 0
M  V30 3578 O 471.093 -6.10277 -6.11744 0
M  V30 3579 C 473.366 -6.11426 -5.62335 0
M  V30 3580 O 474.104 -5.6162 -6.70584 0
M  V30 3581 C 472.698 -5.04409 -4.73308 0
M  V30 3582 O 473.496 -3.86404 -4.74719 0
M  V30 3583 C 471.36 -4.8728 -5.41006 0
M  V30 3584 N 470.317 -4.65812 -4.42377 0
M  V30 3585 C 470.486 -5.09132 -3.15382 0
M  V30 3586 N 469.459 -4.84021 -2.3716 0
M  V30 3587 C 468.574 -4.18386 -3.20441 0
M  V30 3588 C 467.307 -3.6275 -2.94905 0
M  V30 3589 N 466.708 -3.65794 -1.73372 0
M  V30 3590 N 466.742 -3.05008 -4.05243 0
M  V30 3591 C 467.344 -2.98348 -5.28159 0
M  V30 3592 N 468.521 -3.48171 -5.56333 0
M  V30 3593 C 469.096 -4.06869 -4.47212 0
M  V30 3594 H 471.392 -4.02278 -6.11074 0
M  V30 3595 H 472.575 -5.39013 -3.70026 0
M  V30 3596 H 474.058 -6.71916 -5.01943 0
M  V30 3597 H 472.364 -7.45796 -6.94223 0
M  V30 3598 H 472.174 -8.89416 -5.05237 0
M  V30 3599 H 470.544 -8.14876 -5.18409 0
M  V30 3600 H 466.808 -2.47853 -6.07807 0
M  V30 3601 H 471.386 -5.59989 -2.81362 0
M  V30 3602 H 465.778 -3.23218 -1.60782 0
M  V30 3603 H 467.182 -4.10523 -0.937856 0
M  V30 3604 H 473.184 -3.27906 -5.43085 0
M  V30 3605 P 475.042 -5.75688 -6.64379 0
M  V30 3606 O 476.464 -6.07627 -7.05504 0
M  V30 3607 O 474.682 -5.88047 -5.19722 0
M  V30 3608 O 474.719 -4.2322 -7.04443 0
M  V30 3609 C 474.559 -3.99743 -8.4911 0
M  V30 3610 C 475.099 -2.60516 -8.79425 0
M  V30 3611 O 474.043 -1.82684 -8.4467 0
M  V30 3612 C 476.317 -2.10343 -8.03628 0
M  V30 3613 O 477.055 -1.09919 -8.67766 0
M  V30 3614 C 475.648 -1.68446 -6.70876 0
M  V30 3615 O 476.447 -0.678137 -6.08433 0
M  V30 3616 C 474.311 -1.17436 -7.18567 0
M  V30 3617 H 474.343 -0.0804732 -7.31656 0
M  V30 3618 H 475.526 -2.54037 -6.02537 0
M  V30 3619 H 477.01 -2.93881 -7.85526 0
M  V30 3620 H 475.316 -2.53065 -9.86973 0
M  V30 3621 H 475.126 -4.75072 -9.05887 0
M  V30 3622 H 473.496 -4.05244 -8.76668 0
M  V30 3623 H 476.135 0.177647 -6.34251 0
M  V30 3624 P 477.992 -1.25109 -8.70152 0
M  V30 3625 O 479.414 -1.29744 -9.22016 0
M  V30 3626 O 477.632 -2.13714 -7.55141 0
M  V30 3627 O 477.669 0.248149 -8.21425 0
M  V30 3628 C 477.509 1.22779 -9.30434 0
M  V30 3629 C 478.049 2.56293 -8.80664 0
M  V30 3630 O 476.993 3.02979 -8.09349 0
M  V30 3631 C 479.267 2.57523 -7.89775 0
M  V30 3632 O 480.005 3.7668 -7.89438 0
M  V30 3633 C 478.598 2.20997 -6.55446 0
M  V30 3634 O 479.397 2.71895 -5.48509 0
M  V30 3635 C 477.261 2.89693 -6.67988 0
M  V30 3636 H 477.293 3.88793 -6.19859 0
M  V30 3637 H 478.476 1.12046 -6.44229 0
M  V30 3638 H 479.96 1.7746 -8.19711 0
M  V30 3639 H 478.266 3.20706 -9.67112 0
M  V30 3640 H 478.076 0.901032 -10.1892 0
M  V30 3641 H 476.446 1.33049 -9.56592 0
M  V30 3642 H 479.085 3.57847 -5.23962 0
M  V30 3643 P 480.943 3.65191 -7.99657 0
M  V30 3644 O 482.365 3.89332 -8.45794 0
M  V30 3645 O 480.583 2.28472 -7.50807 0
M  V30 3646 O 480.62 4.64972 -6.77611 0
M  V30 3647 C 480.46 6.06319 -7.16352 0
M  V30 3648 C 481 6.91731 -6.02299 0
M  V30 3649 O 479.944 6.92449 -5.17064 0
M  V30 3650 C 482.218 6.43627 -5.25174 0
M  V30 3651 O 482.956 7.43686 -4.60469 0
M  V30 3652 C 481.549 5.40275 -4.31916 0
M  V30 3653 O 482.348 5.25279 -3.14438 0
M  V30 3654 C 480.212 6.04847 -4.05327 0
M  V30 3655 H 480.244 6.62195 -3.11261 0
M  V30 3656 H 481.427 4.42556 -4.81383 0
M  V30 3657 H 482.911 5.92458 -5.93643 0
M  V30 3658 H 481.217 7.92655 -6.402 0
M  V30 3659 H 481.027 6.26671 -8.0846 0
M  V30 3660 H 479.397 6.29101 -7.32804 0
M  V30 3661 H 482.036 5.84315 -2.47318 0
M  V30 3662 P 483.893 7.39546 -4.75277 0
M  V30 3663 O 485.315 7.84798 -5.01039 0
M  V30 3664 O 483.533 5.9812 -5.08098 0
M  V30 3665 O 483.57 7.57503 -3.1866 0
M  V30 3666 C 483.41 8.97357 -2.74833 0
M  V30 3667 C 483.95 9.07548 -1.32709 0
M  V30 3668 O 482.894 8.62072 -0.606159 0
M  V30 3669 C 485.168 8.25383 -0.938334 0
M  V30 3670 O 485.906 8.74577 0.146954 0
M  V30 3671 C 484.499 6.8802 -0.712559 0
M  V30 3672 O 485.298 6.1189 0.194655 0
M  V30 3673 C 483.162 7.27966 -0.139777 0
M  V30 3674 H 483.194 7.25354 0.961601 0
M  V30 3675 H 484.377 6.32557 -1.65702 0
M  V30 3676 H 485.861 8.19355 -1.79097 0
M  V30 3677 H 484.167 10.1294 -1.10029 0
M  V30 3678 H 483.977 9.64276 -3.41316 0
M  V30 3679 H 482.347 9.25417 -2.76357 0
M  V30 3680 H 484.986 6.25267 1.07847 0
M  V30 3681 P 486.844 8.791 2.9035e-12 0
M  V30 3682 O 488.266 9.31296 0.027939 0
M  V30 3683 O 486.484 7.77869 -1.04071 0
M  V30 3684 O 486.521 8.09533 1.41463 0
M  V30 3685 C 486.361 9.0349 2.53943 0
M  V30 3686 C 486.901 8.35135 3.78975 0
M  V30 3687 O 485.846 7.57992 4.15078 0
M  V30 3688 C 488.119 7.45087 3.67298 0
M  V30 3689 O 488.857 7.27796 4.85194 0
M  V30 3690 C 487.451 6.17323 3.12027 0
M  V30 3691 O 488.249 5.04149 3.47132 0
M  V30 3692 C 486.113 6.19961 3.81809 0
M  V30 3693 N 485.07 5.71575 2.93223 0
M  V30 3694 C 485.132 5.97133 1.62693 0
M  V30 3695 N 484.087 5.44066 0.984414 0
M  V30 3696 C 483.353 4.87093 1.93987 0
M  V30 3697 C 482.047 4.26449 1.8738 0
M  V30 3698 O 481.314 4.1089 0.884377 0
M  V30 3699 N 481.617 3.82483 3.08036 0
M  V30 3700 C 482.366 3.95124 4.27727 0
M  V30 3701 N 481.769 3.4084 5.39089 0
M  V30 3702 N 483.519 4.55264 4.3706 0
M  V30 3703 C 483.976 5.00861 3.18217 0
M  V30 3704 H 486.145 5.58218 4.73051 0
M  V30 3705 H 487.328 6.21631 2.02558 0
M  V30 3706 H 488.813 7.85819 2.93096 0
M  V30 3707 H 487.118 9.11627 4.55076 0
M  V30 3708 H 486.928 9.9573 2.34194 0
M  V30 3709 H 485.297 9.2792 2.67832 0
M  V30 3710 H 480.721 3.38323 3.1329 0
M  V30 3711 H 485.928 6.53891 1.14265 0
M  V30 3712 H 480.858 2.93852 5.30559 0
M  V30 3713 H 482.234 3.47631 6.30632 0
M  V30 3714 H 487.938 4.67628 4.28704 0
M  V30 3715 P 489.795 7.39546 4.75277 0
M  V30 3716 O 491.217 7.81777 5.05738 0
M  V30 3717 O 489.435 7.1065 3.32998 0
M  V30 3718 O 489.472 6.04542 5.56673 0
M  V30 3719 C 489.312 6.22772 7.02095 0
M  V30 3720 C 489.852 4.97725 7.70406 0
M  V30 3721 O 488.796 4.13256 7.58987 0
M  V30 3722 C 491.07 4.28231 7.11815 0
M  V30 3723 O 491.808 3.49945 8.01648 0
M  V30 3724 C 490.401 3.5063 5.96244 0
M  V30 3725 O 491.2 2.36482 5.64681 0
M  V30 3726 C 489.064 3.15122 6.56374 0
M  V30 3727 H 489.096 2.13853 6.99751 0
M  V30 3728 H 490.279 4.13501 5.06559 0
M  V30 3729 H 491.763 5.03285 6.70911 0
M  V30 3730 H 490.069 5.20877 8.75697 0
M  V30 3731 H 489.879 7.11046 7.35349 0
M  V30 3732 H 488.249 6.35815 7.26986 0
M  V30 3733 H 490.888 1.61644 6.13565 0
M  V30 3734 P 492.745 3.65191 7.99657 0
M  V30 3735 O 494.167 3.8425 8.48115 0
M  V30 3736 O 492.385 4.17805 6.64342 0
M  V30 3737 O 492.422 2.07613 7.95143 0
M  V30 3738 C 492.262 1.44328 9.27336 0
M  V30 3739 C 492.802 0.0220036 9.17197 0
M  V30 3740 O 491.746 -0.626867 8.61923 0
M  V30 3741 C 494.02 -0.24586 8.30336 0
M  V30 3742 O 494.758 -1.39011 8.63583 0
M  V30 3743 C 493.351 -0.273849 6.91158 0
M  V30 3744 O 494.15 -1.06348 6.02892 0
M  V30 3745 C 492.014 -0.897649 7.22545 0
M  V30 3746 H 492.046 -1.9841 7.04286 0
M  V30 3747 H 493.229 0.739928 6.497 0
M  V30 3748 H 494.713 0.60668 8.36503 0
M  V30 3749 H 493.019 -0.352479 10.1829 0
M  V30 3750 H 492.829 2.00611 10.0304 0
M  V30 3751 H 491.199 1.41843 9.55327 0
M  V30 3752 H 493.838 -1.95734 6.03555 0
M  V30 3753 P 495.696 -1.25109 8.70152 0
M  V30 3754 O 497.097 -1.31452 9.27431 0
M  V30 3755 O 495.318 -0.0458113 7.89887 0
M  V30 3756 O 495.373 -2.55201 7.81066 0
M  V30 3757 C 495.213 -3.79939 8.58154 0
M  V30 3758 C 495.753 -4.93969 7.72701 0
M  V30 3759 O 494.697 -5.18666 6.91125 0
M  V30 3760 C 496.97 -4.69597 6.85231 0
M  V30 3761 O 497.709 -5.83832 6.51337 0
M  V30 3762 C 496.303 -3.96706 5.66633 0
M  V30 3763 O 497.101 -4.15346 4.49615 0
M  V30 3764 C 494.965 -4.66153 5.59313 0
M  V30 3765 N 493.922 -3.71582 5.24027 0
M  V30 3766 C 492.887 -4.15133 4.44901 0
M  V30 3767 O 492.926 -5.32122 4.00336 0
M  V30 3768 N 491.875 -3.30554 4.15693 0
M  V30 3769 C 491.923 -2.04701 4.61105 0
M  V30 3770 C 493.019 -1.57111 5.38655 0
M  V30 3771 C 493.985 -2.44234 5.68454 0
M  V30 3772 H 494.997 -5.47604 4.85148 0
M  V30 3773 H 496.18 -2.8955 5.86187 0
M  V30 3774 H 497.664 -4.01995 7.36197 0
M  V30 3775 H 495.97 -5.81019 8.37003 0
M  V30 3776 H 495.779 -3.73517 9.52265 0
M  V30 3777 H 494.149 -3.97122 8.80267 0
M  V30 3778 H 493.067 -0.538464 5.72373 0
M  V30 3779 H 494.831 -2.11927 6.29377 0
M  V30 3780 H 496.885 -4.98352 4.09633 0
M  V30 3781 P 498.646 -5.75688 6.64379 0
M  V30 3782 O 500.068 -6.11849 7.01846 0
M  V30 3783 O 498.286 -4.30744 6.56026 0
M  V30 3784 O 498.323 -6.37042 5.19165 0
M  V30 3785 C 498.163 -7.83578 5.16515 0
M  V30 3786 C 498.703 -8.33398 3.83019 0
M  V30 3787 O 497.647 -8.10074 3.01034 0
M  V30 3788 C 499.921 -7.65514 3.2257 0
M  V30 3789 O 500.659 -8.4329 2.32297 0
M  V30 3790 C 499.252 -6.40075 2.62207 0
M  V30 3791 O 500.051 -5.92589 1.53712 0
M  V30 3792 C 497.915 -6.9454 2.18503 0
M  V30 3793 H 497.947 -7.23063 1.12091 0
M  V30 3794 H 499.13 -5.6025 3.37201 0
M  V30 3795 H 500.614 -7.35707 4.02681 0
M  V30 3796 H 498.92 -9.40912 3.9095 0
M  V30 3797 H 498.73 -8.29056 5.99158 0
M  V30 3798 H 497.1 -8.10073 5.25882 0
M  V30 3799 H 499.739 -6.30324 0.726794 0
M  V30 3800 P 501.597 -8.4349 2.47671 0
M  V30 3801 O 503.019 -8.94167 2.5964 0
M  V30 3802 O 501.237 -7.1704 3.19006 0
M  V30 3803 O 501.274 -8.16596 0.923387 0
M  V30 3804 C 501.114 -9.38437 0.108857 0
M  V30 3805 C 501.654 -9.08175 -1.28353 0
M  V30 3806 O 500.598 -8.44229 -1.84713 0
M  V30 3807 C 502.872 -8.18386 -1.42505 0
M  V30 3808 O 503.61 -8.3501 -2.60497 0
M  V30 3809 C 502.203 -6.80225 -1.25468 0
M  V30 3810 O 503.002 -5.81621 -1.91066 0
M  V30 3811 C 500.866 -7.02416 -1.9168 0
M  V30 3812 H 500.898 -6.6888 -2.96621 0
M  V30 3813 H 502.081 -6.53617 -0.192223 0
M  V30 3814 H 503.565 -8.36622 -0.589963 0
M  V30 3815 H 501.871 -10.0291 -1.79807 0
M  V30 3816 H 501.681 -10.2138 0.558219 0
M  V30 3817 H 500.051 -9.6579 0.0444202 0
M  V30 3818 H 502.69 -5.69556 -2.79637 0
M  V30 3819 P 504.547 -8.4349 -2.47671 0
M  V30 3820 O 505.969 -8.92593 -2.65 0
M  V30 3821 O 504.187 -7.7568 -1.19296 0
M  V30 3822 O 504.224 -7.36886 -3.63805 0
M  V30 3823 C 504.064 -7.95349 -4.982 0
M  V30 3824 C 504.604 -6.94612 -5.98974 0
M  V30 3825 O 503.548 -6.10347 -6.11815 0
M  V30 3826 C 505.822 -6.11426 -5.62335 0
M  V30 3827 O 506.56 -5.6162 -6.70584 0
M  V30 3828 C 505.153 -5.04409 -4.73308 0
M  V30 3829 O 505.952 -3.85992 -4.75183 0
M  V30 3830 C 503.816 -4.8728 -5.41006 0
M  V30 3831 H 503.848 -4.02333 -6.11157 0
M  V30 3832 H 505.031 -5.39466 -3.69543 0
M  V30 3833 H 506.515 -6.71916 -5.01943 0
M  V30 3834 H 504.821 -7.4649 -6.93477 0
M  V30 3835 H 504.631 -8.89416 -5.05237 0
M  V30 3836 H 503.001 -8.14876 -5.18409 0
M  V30 3837 H 505.64 -3.27957 -5.4317 0
M  V30 3838 P 507.498 -5.75688 -6.64379 0
M  V30 3839 O 508.919 -6.07692 -7.0558 0
M  V30 3840 O 507.138 -5.88047 -5.19722 0
M  V30 3841 O 507.175 -4.2322 -7.04443 0
M  V30 3842 C 507.014 -3.99785 -8.49201 0
M  V30 3843 C 507.555 -2.60516 -8.79425 0
M  V30 3844 O 506.5 -1.82663 -8.44573 0
M  V30 3845 C 508.773 -2.10343 -8.03628 0
M  V30 3846 O 509.511 -1.09919 -8.67766 0
M  V30 3847 C 508.105 -1.68446 -6.70876 0
M  V30 3848 O 508.903 -0.684109 -6.08265 0
M  V30 3849 C 506.767 -1.17436 -7.18567 0
M  V30 3850 N 505.724 -1.52699 -6.23988 0
M  V30 3851 C 505.893 -2.578 -5.40574 0
M  V30 3852 N 504.866 -2.78966 -4.61193 0
M  V30 3853 C 503.981 -1.78725 -4.95769 0
M  V30 3854 C 502.714 -1.45727 -4.44207 0
M  V30 3855 N 502.115 -2.13994 -3.43613 0
M  V30 3856 N 502.149 -0.374977 -5.05812 0
M  V30 3857 C 502.751 0.345585 -6.05615 0
M  V30 3858 N 503.928 0.0787651 -6.56253 0
M  V30 3859 C 504.503 -1.00499 -5.96189 0
M  V30 3860 H 506.799 -0.0804622 -7.31556 0
M  V30 3861 H 507.982 -2.53396 -6.02698 0
M  V30 3862 H 509.465 -2.93881 -7.85526 0
M  V30 3863 H 507.771 -2.52078 -9.87225 0
M  V30 3864 H 507.581 -4.75072 -9.05887 0
M  V30 3865 H 505.951 -4.05244 -8.76668 0
M  V30 3866 H 502.215 1.20098 -6.4532 0
M  V30 3867 H 506.793 -3.18977 -5.3945 0
M  V30 3868 H 501.185 -1.84983 -3.10004 0
M  V30 3869 H 502.589 -2.9465 -3.00843 0
M  V30 3870 H 508.591 0.177619 -6.34151 0
M  V30 3871 P 510.449 -1.25109 -8.70152 0
M  V30 3872 O 511.871 -1.29744 -9.22016 0
M  V30 3873 O 510.089 -2.13714 -7.55141 0
M  V30 3874 O 510.126 0.248149 -8.21425 0
M  V30 3875 C 509.966 1.22779 -9.30434 0
M  V30 3876 C 510.506 2.56293 -8.80664 0
M  V30 3877 O 509.45 3.02979 -8.09349 0
M  V30 3878 C 511.724 2.57523 -7.89775 0
M  V30 3879 O 512.462 3.7668 -7.89438 0
M  V30 3880 C 511.055 2.20997 -6.55446 0
M  V30 3881 O 511.854 2.71895 -5.48509 0
M  V30 3882 C 509.718 2.89693 -6.67988 0
M  V30 3883 H 509.75 3.88793 -6.19859 0
M  V30 3884 H 510.933 1.12046 -6.44229 0
M  V30 3885 H 512.417 1.7746 -8.19711 0
M  V30 3886 H 510.723 3.20706 -9.67112 0
M  V30 3887 H 510.533 0.901032 -10.1892 0
M  V30 3888 H 508.903 1.33049 -9.56592 0
M  V30 3889 H 511.542 3.57847 -5.23962 0
M  V30 3890 P 513.399 3.65191 -7.99657 0
M  V30 3891 O 514.821 3.89332 -8.45794 0
M  V30 3892 O 513.039 2.28472 -7.50807 0
M  V30 3893 O 513.076 4.64972 -6.77611 0
M  V30 3894 C 512.916 6.06319 -7.16352 0
M  V30 3895 C 513.456 6.91731 -6.02299 0
M  V30 3896 O 512.4 6.92449 -5.17064 0
M  V30 3897 C 514.674 6.43627 -5.25174 0
M  V30 3898 O 515.412 7.43686 -4.60469 0
M  V30 3899 C 514.005 5.40275 -4.31916 0
M  V30 3900 O 514.804 5.25279 -3.14438 0
M  V30 3901 C 512.668 6.04847 -4.05327 0
M  V30 3902 H 512.7 6.62195 -3.11261 0
M  V30 3903 H 513.883 4.42556 -4.81383 0
M  V30 3904 H 515.367 5.92458 -5.93643 0
M  V30 3905 H 513.673 7.92655 -6.402 0
M  V30 3906 H 513.483 6.26671 -8.0846 0
M  V30 3907 H 511.853 6.29101 -7.32804 0
M  V30 3908 H 514.492 5.84315 -2.47318 0
M  V30 3909 P 516.35 7.39546 -4.75277 0
M  V30 3910 O 517.772 7.84966 -5.01146 0
M  V30 3911 O 515.99 5.9812 -5.08098 0
M  V30 3912 O 516.027 7.57503 -3.1866 0
M  V30 3913 C 515.867 8.97357 -2.74833 0
M  V30 3914 C 516.407 9.0745 -1.32694 0
M  V30 3915 O 515.352 8.62072 -0.606159 0
M  V30 3916 C 517.625 8.25383 -0.938334 0
M  V30 3917 O 518.363 8.74577 0.146954 0
M  V30 3918 C 516.957 6.8802 -0.712559 0
M  V30 3919 O 517.755 6.11791 0.194623 0
M  V30 3920 C 515.619 7.27966 -0.139777 0
M  V30 3921 N 514.576 6.39368 -0.623421 0
M  V30 3922 C 514.638 5.90299 -1.85969 0
M  V30 3923 N 513.593 5.10919 -2.1133 0
M  V30 3924 C 512.859 5.14646 -1.0015 0
M  V30 3925 C 511.553 4.60057 -0.729219 0
M  V30 3926 O 510.82 3.93476 -1.47746 0
M  V30 3927 N 511.123 4.88302 0.523505 0
M  V30 3928 C 511.872 5.63646 1.46207 0
M  V30 3929 N 511.275 5.78186 2.69239 0
M  V30 3930 N 513.025 6.19285 1.21544 0
M  V30 3931 C 513.482 5.93392 -0.0308487 0
M  V30 3932 H 515.651 7.25354 0.961601 0
M  V30 3933 H 516.834 6.3246 -1.65676 0
M  V30 3934 H 518.319 8.19533 -1.78278 0
M  V30 3935 H 516.624 10.1294 -1.10029 0
M  V30 3936 H 516.434 9.64276 -3.41316 0
M  V30 3937 H 514.803 9.25417 -2.76357 0
M  V30 3938 H 510.227 4.53993 0.806451 0
M  V30 3939 H 515.434 6.11865 -2.57394 0
M  V30 3940 H 510.364 5.34046 2.87467 0
M  V30 3941 H 511.74 6.33391 3.42578 0
M  V30 3942 H 517.444 6.25169 1.0783 0
M  V30 3943 P 519.3 8.791 3.21367e-12 0
M  V30 3944 O 520.722 9.31096 0.027933 0
M  V30 3945 O 518.94 7.77869 -1.04071 0
M  V30 3946 O 518.977 8.09533 1.41463 0
M  V30 3947 C 518.817 9.0349 2.53943 0
M  V30 3948 C 519.357 8.35226 3.79016 0
M  V30 3949 O 518.301 7.57992 4.15078 0
M  V30 3950 C 520.575 7.45087 3.67298 0
M  V30 3951 O 521.313 7.27796 4.85194 0
M  V30 3952 C 519.906 6.17323 3.12027 0
M  V30 3953 O 520.705 5.04231 3.47188 0
M  V30 3954 C 518.569 6.19961 3.81809 0
M  V30 3955 H 518.601 5.58218 4.73051 0
M  V30 3956 H 519.784 6.21726 2.02589 0
M  V30 3957 H 521.268 7.86112 2.9231 0
M  V30 3958 H 519.574 9.11627 4.55076 0
M  V30 3959 H 519.384 9.9573 2.34194 0
M  V30 3960 H 517.754 9.2792 2.67832 0
M  V30 3961 H 520.393 4.67702 4.28772 0
M  V30 3962 P 522.251 7.39546 4.75277 0
M  V30 3963 O 523.673 7.81777 5.05738 0
M  V30 3964 O 521.891 7.1065 3.32998 0
M  V30 3965 O 521.928 6.04542 5.56673 0
M  V30 3966 C 521.768 6.22772 7.02095 0
M  V30 3967 C 522.308 4.97725 7.70406 0
M  V30 3968 O 521.252 4.13256 7.58987 0
M  V30 3969 C 523.526 4.28231 7.11815 0
M  V30 3970 O 524.264 3.49945 8.01648 0
M  V30 3971 C 522.857 3.5063 5.96244 0
M  V30 3972 O 523.656 2.36482 5.64681 0
M  V30 3973 C 521.52 3.15122 6.56374 0
M  V30 3974 H 521.552 2.13853 6.99751 0
M  V30 3975 H 522.735 4.13501 5.06559 0
M  V30 3976 H 524.219 5.03285 6.70911 0
M  V30 3977 H 522.525 5.20877 8.75697 0
M  V30 3978 H 522.335 7.11046 7.35349 0
M  V30 3979 H 520.705 6.35815 7.26986 0
M  V30 3980 H 523.344 1.61644 6.13565 0
M  V30 3981 P 525.201 3.65191 7.99657 0
M  V30 3982 O 526.623 3.84333 8.48297 0
M  V30 3983 O 524.841 4.17805 6.64342 0
M  V30 3984 O 524.878 2.07613 7.95143 0
M  V30 3985 C 524.718 1.44328 9.27336 0
M  V30 3986 C 525.258 0.0220012 9.17097 0
M  V30 3987 O 524.203 -0.626867 8.61923 0
M  V30 3988 C 526.476 -0.24586 8.30336 0
M  V30 3989 O 527.214 -1.39011 8.63583 0
M  V30 3990 C 525.808 -0.273849 6.91158 0
M  V30 3991 O 526.606 -1.06331 6.02794 0
M  V30 3992 C 524.47 -0.897649 7.22545 0
M  V30 3993 N 523.427 -0.292839 6.41732 0
M  V30 3994 C 523.489 1.00068 6.10757 0
M  V30 3995 N 522.444 1.36468 5.35794 0
M  V30 3996 C 521.71 0.258894 5.2366 0
M  V30 3997 C 520.404 0.0670682 4.65752 0
M  V30 3998 O 519.671 0.902443 4.10497 0
M  V30 3999 N 519.974 -1.2131 4.75881 0
M  V30 4000 C 520.723 -2.24934 5.37101 0
M  V30 4001 N 520.126 -3.48783 5.33984 0
M  V30 4002 N 521.876 -2.0844 5.95684 0
M  V30 4003 C 522.333 -0.81395 5.87791 0
M  V30 4004 H 524.502 -1.9841 7.04286 0
M  V30 4005 H 525.685 0.739815 6.49601 0
M  V30 4006 H 527.17 0.598315 8.36563 0
M  V30 4007 H 525.475 -0.352479 10.1829 0
M  V30 4008 H 525.285 2.00611 10.0304 0
M  V30 4009 H 523.654 1.41843 9.55327 0
M  V30 4010 H 519.078 -1.44434 4.37895 0
M  V30 4011 H 524.285 1.67697 6.42268 0
M  V30 4012 H 519.215 -3.60543 4.87699 0
M  V30 4013 H 520.591 -4.29232 5.7819 0
M  V30 4014 H 526.295 -1.95704 6.0346 0
M  V30 4015 P 528.152 -1.25109 8.70152 0
M  V30 4016 O 529.574 -1.35274 9.21221 0
M  V30 4017 O 527.792 -0.0769065 7.84762 0
M  V30 4018 O 527.829 -2.55232 7.81161 0
M  V30 4019 C 527.669 -3.79939 8.58154 0
M  V30 4020 C 528.209 -4.94023 7.72785 0
M  V30 4021 O 527.153 -5.18726 6.91205 0
M  V30 4022 C 529.427 -4.69597 6.85231 0
M  V30 4023 O 530.165 -5.83832 6.51337 0
M  V30 4024 C 528.758 -3.96706 5.66633 0
M  V30 4025 O 529.557 -4.15414 4.49689 0
M  V30 4026 C 527.421 -4.66153 5.59313 0
M  V30 4027 H 527.453 -5.47679 4.85214 0
M  V30 4028 H 528.636 -2.89008 5.86566 0
M  V30 4029 H 530.12 -4.0121 7.36511 0
M  V30 4030 H 528.426 -5.80182 8.37584 0
M  V30 4031 H 528.236 -3.73517 9.52265 0
M  V30 4032 H 526.606 -3.97163 8.80359 0
M  V30 4033 H 529.245 -4.90969 4.01921 0
M  V30 4034 P 531.103 -5.75688 6.64379 0
M  V30 4035 O 532.525 -6.11849 7.01846 0
M  V30 4036 O 530.743 -4.30744 6.56026 0
M  V30 4037 O 530.78 -6.37042 5.19165 0
M  V30 4038 C 530.62 -7.83578 5.16515 0
M  V30 4039 C 531.16 -8.33398 3.83019 0
M  V30 4040 O 530.104 -8.10074 3.01034 0
M  V30 4041 C 532.378 -7.65514 3.2257 0
M  V30 4042 O 533.116 -8.4329 2.32297 0
M  V30 4043 C 531.709 -6.40075 2.62207 0
M  V30 4044 O 532.508 -5.92589 1.53712 0
M  V30 4045 C 530.372 -6.9454 2.18503 0
M  V30 4046 H 530.404 -7.23063 1.12091 0
M  V30 4047 H 531.587 -5.6025 3.37201 0
M  V30 4048 H 533.071 -7.35707 4.02681 0
M  V30 4049 H 531.377 -9.40912 3.9095 0
M  V30 4050 H 531.187 -8.29056 5.99158 0
M  V30 4051 H 529.557 -8.10073 5.25882 0
M  V30 4052 H 532.196 -6.30324 0.726794 0
M  V30 4053 P 534.053 -8.4349 2.47671 0
M  V30 4054 O 535.475 -8.94167 2.5964 0
M  V30 4055 O 533.693 -7.1704 3.19006 0
M  V30 4056 O 533.73 -8.16596 0.923387 0
M  V30 4057 C 533.57 -9.38437 0.108857 0
M  V30 4058 C 534.11 -9.08175 -1.28353 0
M  V30 4059 O 533.054 -8.44229 -1.84713 0
M  V30 4060 C 535.328 -8.18386 -1.42505 0
M  V30 4061 O 536.066 -8.3501 -2.60497 0
M  V30 4062 C 534.659 -6.80225 -1.25468 0
M  V30 4063 O 535.458 -5.81621 -1.91066 0
M  V30 4064 C 533.322 -7.02416 -1.9168 0
M  V30 4065 H 533.354 -6.6888 -2.96621 0
M  V30 4066 H 534.537 -6.53617 -0.192223 0
M  V30 4067 H 536.021 -8.36622 -0.589963 0
M  V30 4068 H 534.327 -10.0291 -1.79807 0
M  V30 4069 H 534.137 -10.2138 0.558219 0
M  V30 4070 H 532.507 -9.6579 0.0444202 0
M  V30 4071 H 535.146 -5.69556 -2.79637 0
M  V30 4072 P 537.004 -8.4349 -2.47671 0
M  V30 4073 O 538.426 -8.92593 -2.65 0
M  V30 4074 O 536.644 -7.7568 -1.19296 0
M  V30 4075 O 536.681 -7.36886 -3.63805 0
M  V30 4076 C 536.521 -7.95349 -4.982 0
M  V30 4077 C 537.061 -6.94612 -5.98974 0
M  V30 4078 O 536.005 -6.10347 -6.11815 0
M  V30 4079 C 538.279 -6.11426 -5.62335 0
M  V30 4080 O 539.017 -5.6162 -6.70584 0
M  V30 4081 C 537.61 -5.04409 -4.73308 0
M  V30 4082 O 538.409 -3.85992 -4.75183 0
M  V30 4083 C 536.273 -4.8728 -5.41006 0
M  V30 4084 H 536.305 -4.02333 -6.11157 0
M  V30 4085 H 537.488 -5.39466 -3.69543 0
M  V30 4086 H 538.972 -6.71916 -5.01943 0
M  V30 4087 H 537.278 -7.4649 -6.93477 0
M  V30 4088 H 537.088 -8.89416 -5.05237 0
M  V30 4089 H 535.458 -8.14876 -5.18409 0
M  V30 4090 H 538.097 -3.27957 -5.4317 0
M  V30 4091 P 539.954 -5.75688 -6.64379 0
M  V30 4092 O 541.376 -6.07627 -7.05504 0
M  V30 4093 O 539.594 -5.88047 -5.19722 0
M  V30 4094 O 539.631 -4.2322 -7.04443 0
M  V30 4095 C 539.471 -3.99743 -8.4911 0
M  V30 4096 C 540.011 -2.60516 -8.79425 0
M  V30 4097 O 538.955 -1.82684 -8.4467 0
M  V30 4098 C 541.229 -2.10343 -8.03628 0
M  V30 4099 O 541.967 -1.09919 -8.67766 0
M  V30 4100 C 540.56 -1.68446 -6.70876 0
M  V30 4101 O 541.359 -0.678137 -6.08433 0
M  V30 4102 C 539.223 -1.17436 -7.18567 0
M  V30 4103 H 539.255 -0.0804732 -7.31656 0
M  V30 4104 H 540.438 -2.54037 -6.02537 0
M  V30 4105 H 541.922 -2.93881 -7.85526 0
M  V30 4106 H 540.228 -2.53065 -9.86973 0
M  V30 4107 H 540.038 -4.75072 -9.05887 0
M  V30 4108 H 538.408 -4.05244 -8.76668 0
M  V30 4109 H 541.047 0.177647 -6.34251 0
M  V30 4110 P 542.905 -1.25109 -8.70152 0
M  V30 4111 O 544.327 -1.29744 -9.22016 0
M  V30 4112 O 542.545 -2.13714 -7.55141 0
M  V30 4113 O 542.582 0.248149 -8.21425 0
M  V30 4114 C 542.422 1.22779 -9.30434 0
M  V30 4115 C 542.962 2.56293 -8.80664 0
M  V30 4116 O 541.906 3.02979 -8.09349 0
M  V30 4117 C 544.18 2.57523 -7.89775 0
M  V30 4118 O 544.918 3.7668 -7.89438 0
M  V30 4119 C 543.511 2.20997 -6.55446 0
M  V30 4120 O 544.31 2.71895 -5.48509 0
M  V30 4121 C 542.174 2.89693 -6.67988 0
M  V30 4122 H 542.206 3.88793 -6.19859 0
M  V30 4123 H 543.389 1.12046 -6.44229 0
M  V30 4124 H 544.873 1.7746 -8.19711 0
M  V30 4125 H 543.179 3.20706 -9.67112 0
M  V30 4126 H 542.989 0.901032 -10.1892 0
M  V30 4127 H 541.359 1.33049 -9.56592 0
M  V30 4128 H 543.998 3.57847 -5.23962 0
M  V30 4129 P 545.855 3.65191 -7.99657 0
M  V30 4130 O 547.277 3.89332 -8.45794 0
M  V30 4131 O 545.495 2.28472 -7.50807 0
M  V30 4132 O 545.532 4.64972 -6.77611 0
M  V30 4133 C 545.372 6.06319 -7.16352 0
M  V30 4134 C 545.912 6.91731 -6.02299 0
M  V30 4135 O 544.856 6.92449 -5.17064 0
M  V30 4136 C 547.13 6.43627 -5.25174 0
M  V30 4137 O 547.868 7.43686 -4.60469 0
M  V30 4138 C 546.461 5.40275 -4.31916 0
M  V30 4139 O 547.26 5.25279 -3.14438 0
M  V30 4140 C 545.124 6.04847 -4.05327 0
M  V30 4141 H 545.156 6.62195 -3.11261 0
M  V30 4142 H 546.339 4.42556 -4.81383 0
M  V30 4143 H 547.823 5.92458 -5.93643 0
M  V30 4144 H 546.129 7.92655 -6.402 0
M  V30 4145 H 545.939 6.26671 -8.0846 0
M  V30 4146 H 544.309 6.29101 -7.32804 0
M  V30 4147 H 546.948 5.84315 -2.47318 0
M  V30 4148 P 548.806 7.39546 -4.75277 0
M  V30 4149 O 550.228 7.84798 -5.01039 0
M  V30 4150 O 548.446 5.9812 -5.08098 0
M  V30 4151 O 548.483 7.57503 -3.1866 0
M  V30 4152 C 548.323 8.97357 -2.74833 0
M  V30 4153 C 548.863 9.07548 -1.32709 0
M  V30 4154 O 547.807 8.62072 -0.606159 0
M  V30 4155 C 550.081 8.25383 -0.938334 0
M  V30 4156 O 550.819 8.74577 0.146954 0
M  V30 4157 C 549.412 6.8802 -0.712559 0
M  V30 4158 O 550.211 6.1189 0.194655 0
M  V30 4159 C 548.075 7.27966 -0.139777 0
M  V30 4160 H 548.107 7.25354 0.961601 0
M  V30 4161 H 549.29 6.32557 -1.65702 0
M  V30 4162 H 550.774 8.19355 -1.79097 0
M  V30 4163 H 549.08 10.1294 -1.10029 0
M  V30 4164 H 548.89 9.64276 -3.41316 0
M  V30 4165 H 547.26 9.25417 -2.76357 0
M  V30 4166 H 549.899 6.25267 1.07847 0
M  V30 4167 P 551.757 8.791 3.52383e-12 0
M  V30 4168 O 553.178 9.31196 0.027936 0
M  V30 4169 O 551.397 7.77869 -1.04071 0
M  V30 4170 O 551.434 8.09533 1.41463 0
M  V30 4171 C 551.273 9.03587 2.5397 0
M  V30 4172 C 551.814 8.35226 3.79016 0
M  V30 4173 O 550.759 7.57904 4.1503 0
M  V30 4174 C 553.032 7.45087 3.67298 0
M  V30 4175 O 553.77 7.27796 4.85194 0
M  V30 4176 C 552.364 6.17323 3.12027 0
M  V30 4177 O 553.162 5.04496 3.46627 0
M  V30 4178 C 551.026 6.19961 3.81809 0
M  V30 4179 N 549.983 5.71575 2.93223 0
M  V30 4180 C 550.152 5.77362 1.59168 0
M  V30 4181 N 549.125 5.3123 0.911893 0
M  V30 4182 C 548.24 4.91717 1.89588 0
M  V30 4183 C 546.973 4.3114 1.8076 0
M  V30 4184 N 546.374 3.99821 0.632928 0
M  V30 4185 N 546.408 4.06823 3.02898 0
M  V30 4186 C 547.01 4.35062 4.22711 0
M  V30 4187 N 548.187 4.90805 4.35707 0
M  V30 4188 C 548.762 5.16382 3.14469 0
M  V30 4189 H 551.058 5.58142 4.72986 0
M  V30 4190 H 552.241 6.21428 2.0318 0
M  V30 4191 H 553.724 7.86112 2.9231 0
M  V30 4192 H 552.03 9.11171 4.55987 0
M  V30 4193 H 551.84 9.9573 2.34194 0
M  V30 4194 H 550.21 9.2792 2.67832 0
M  V30 4195 H 546.474 4.09052 5.13359 0
M  V30 4196 H 551.052 6.16575 1.12198 0
M  V30 4197 H 545.444 3.55423 0.632085 0
M  V30 4198 H 546.848 4.20317 -0.256712 0
M  V30 4199 H 552.85 4.67628 4.28704 0
M  V30 4200 P 554.707 7.39546 4.75277 0
M  V30 4201 O 556.129 7.81777 5.05738 0
M  V30 4202 O 554.347 7.1065 3.32998 0
M  V30 4203 O 554.384 6.04542 5.56673 0
M  V30 4204 C 554.224 6.22772 7.02095 0
M  V30 4205 C 554.764 4.97725 7.70406 0
M  V30 4206 O 553.708 4.13256 7.58987 0
M  V30 4207 C 555.982 4.28231 7.11815 0
M  V30 4208 O 556.72 3.49945 8.01648 0
M  V30 4209 C 555.313 3.5063 5.96244 0
M  V30 4210 O 556.112 2.36482 5.64681 0
M  V30 4211 C 553.976 3.15122 6.56374 0
M  V30 4212 H 554.008 2.13853 6.99751 0
M  V30 4213 H 555.191 4.13501 5.06559 0
M  V30 4214 H 556.675 5.03285 6.70911 0
M  V30 4215 H 554.981 5.20877 8.75697 0
M  V30 4216 H 554.791 7.11046 7.35349 0
M  V30 4217 H 553.161 6.35815 7.26986 0
M  V30 4218 H 555.8 1.61644 6.13565 0
M  V30 4219 P 557.658 3.65191 7.99657 0
M  V30 4220 O 559.08 3.84333 8.48297 0
M  V30 4221 O 557.298 4.17805 6.64342 0
M  V30 4222 O 557.335 2.07613 7.95143 0
M  V30 4223 C 557.175 1.44328 9.27336 0
M  V30 4224 C 557.715 0.0220012 9.17097 0
M  V30 4225 O 556.66 -0.626867 8.61923 0
M  V30 4226 C 558.933 -0.24586 8.30336 0
M  V30 4227 O 559.671 -1.39011 8.63583 0
M  V30 4228 C 558.265 -0.273849 6.91158 0
M  V30 4229 O 559.063 -1.06331 6.02794 0
M  V30 4230 C 556.927 -0.897649 7.22545 0
M  V30 4231 N 555.884 -0.292839 6.41732 0
M  V30 4232 C 555.946 1.00068 6.10757 0
M  V30 4233 N 554.901 1.36468 5.35794 0
M  V30 4234 C 554.167 0.258894 5.2366 0
M  V30 4235 C 552.861 0.0670682 4.65752 0
M  V30 4236 O 552.128 0.902443 4.10497 0
M  V30 4237 N 552.431 -1.2131 4.75881 0
M  V30 4238 C 553.18 -2.24934 5.37101 0
M  V30 4239 N 552.583 -3.48783 5.33984 0
M  V30 4240 N 554.333 -2.0844 5.95684 0
M  V30 4241 C 554.79 -0.81395 5.87791 0
M  V30 4242 H 556.959 -1.9841 7.04286 0
M  V30 4243 H 558.142 0.739815 6.49601 0
M  V30 4244 H 559.627 0.598315 8.36563 0
M  V30 4245 H 557.932 -0.352479 10.1829 0
M  V30 4246 H 557.742 2.00611 10.0304 0
M  V30 4247 H 556.111 1.41843 9.55327 0
M  V30 4248 H 551.535 -1.44434 4.37895 0
M  V30 4249 H 556.742 1.67697 6.42268 0
M  V30 4250 H 551.672 -3.60543 4.87699 0
M  V30 4251 H 553.048 -4.29232 5.7819 0
M  V30 4252 H 558.752 -1.95704 6.0346 0
M  V30 4253 P 560.608 -1.25109 8.70152 0
M  V30 4254 O 562.03 -1.35274 9.21221 0
M  V30 4255 O 560.248 -0.0769065 7.84762 0
M  V30 4256 O 560.285 -2.55232 7.81161 0
M  V30 4257 C 560.125 -3.79939 8.58154 0
M  V30 4258 C 560.665 -4.94023 7.72785 0
M  V30 4259 O 559.609 -5.18726 6.91205 0
M  V30 4260 C 561.883 -4.69597 6.85231 0
M  V30 4261 O 562.621 -5.83832 6.51337 0
M  V30 4262 C 561.214 -3.96706 5.66633 0
M  V30 4263 O 562.013 -4.15414 4.49689 0
M  V30 4264 C 559.877 -4.66153 5.59313 0
M  V30 4265 H 559.909 -5.47679 4.85214 0
M  V30 4266 H 561.092 -2.89008 5.86566 0
M  V30 4267 H 562.576 -4.0121 7.36511 0
M  V30 4268 H 560.882 -5.80182 8.37584 0
M  V30 4269 H 560.692 -3.73517 9.52265 0
M  V30 4270 H 559.062 -3.97163 8.80359 0
M  V30 4271 H 561.701 -4.90969 4.01921 0
M  V30 4272 P 563.559 -5.75688 6.64379 0
M  V30 4273 O 564.98 -6.11915 7.01921 0
M  V30 4274 O 563.199 -4.30744 6.56026 0
M  V30 4275 O 563.236 -6.37042 5.19165 0
M  V30 4276 C 563.075 -7.83662 5.1657 0
M  V30 4277 C 563.616 -8.33398 3.83019 0
M  V30 4278 O 562.561 -8.0998 3.00999 0
M  V30 4279 C 564.834 -7.65514 3.2257 0
M  V30 4280 O 565.572 -8.4329 2.32297 0
M  V30 4281 C 564.166 -6.40075 2.62207 0
M  V30 4282 O 564.964 -5.92338 1.5428 0
M  V30 4283 C 562.828 -6.9454 2.18503 0
M  V30 4284 N 561.785 -5.95905 2.39948 0
M  V30 4285 C 561.954 -4.98383 3.32108 0
M  V30 4286 N 560.927 -4.16798 3.41761 0
M  V30 4287 C 560.042 -4.65287 2.47461 0
M  V30 4288 C 558.775 -4.18946 2.07461 0
M  V30 4289 N 558.176 -3.09661 2.60717 0
M  V30 4290 N 558.21 -4.95327 1.09101 0
M  V30 4291 C 558.812 -6.04369 0.519812 0
M  V30 4292 N 559.989 -6.50694 0.855982 0
M  V30 4293 C 560.564 -5.75818 1.84322 0
M  V30 4294 H 562.86 -7.22964 1.12076 0
M  V30 4295 H 564.043 -5.60502 3.36589 0
M  V30 4296 H 565.526 -7.35707 4.02681 0
M  V30 4297 H 563.832 -9.41302 3.90009 0
M  V30 4298 H 563.642 -8.29056 5.99158 0
M  V30 4299 H 562.012 -8.10073 5.25882 0
M  V30 4300 H 558.276 -6.55843 -0.270373 0
M  V30 4301 H 562.854 -4.88564 3.92502 0
M  V30 4302 H 557.246 -2.80523 2.27218 0
M  V30 4303 H 558.65 -2.55848 3.34465 0
M  V30 4304 H 564.652 -6.30224 0.72668 0
M  V30 4305 P 566.509 -8.4349 2.47671 0
M  V30 4306 O 567.931 -8.94167 2.5964 0
M  V30 4307 O 566.149 -7.1704 3.19006 0
M  V30 4308 O 566.186 -8.16596 0.923387 0
M  V30 4309 C 566.026 -9.38437 0.108857 0
M  V30 4310 C 566.566 -9.08175 -1.28353 0
M  V30 4311 O 565.51 -8.44229 -1.84713 0
M  V30 4312 C 567.784 -8.18386 -1.42505 0
M  V30 4313 O 568.522 -8.3501 -2.60497 0
M  V30 4314 C 567.115 -6.80225 -1.25468 0
M  V30 4315 O 567.914 -5.81621 -1.91066 0
M  V30 4316 C 565.778 -7.02416 -1.9168 0
M  V30 4317 H 565.81 -6.6888 -2.96621 0
M  V30 4318 H 566.993 -6.53617 -0.192223 0
M  V30 4319 H 568.477 -8.36622 -0.589963 0
M  V30 4320 H 566.783 -10.0291 -1.79807 0
M  V30 4321 H 566.593 -10.2138 0.558219 0
M  V30 4322 H 564.963 -9.6579 0.0444202 0
M  V30 4323 H 567.602 -5.69556 -2.79637 0
M  V30 4324 P 569.46 -8.4349 -2.47671 0
M  V30 4325 O 570.882 -8.92593 -2.65 0
M  V30 4326 O 569.1 -7.7568 -1.19296 0
M  V30 4327 O 569.137 -7.36886 -3.63805 0
M  V30 4328 C 568.977 -7.95349 -4.982 0
M  V30 4329 C 569.517 -6.94612 -5.98974 0
M  V30 4330 O 568.461 -6.10347 -6.11815 0
M  V30 4331 C 570.735 -6.11426 -5.62335 0
M  V30 4332 O 571.473 -5.6162 -6.70584 0
M  V30 4333 C 570.066 -5.04409 -4.73308 0
M  V30 4334 O 570.865 -3.85992 -4.75183 0
M  V30 4335 C 568.729 -4.8728 -5.41006 0
M  V30 4336 H 568.761 -4.02333 -6.11157 0
M  V30 4337 H 569.944 -5.39466 -3.69543 0
M  V30 4338 H 571.428 -6.71916 -5.01943 0
M  V30 4339 H 569.734 -7.4649 -6.93477 0
M  V30 4340 H 569.544 -8.89416 -5.05237 0
M  V30 4341 H 567.914 -8.14876 -5.18409 0
M  V30 4342 H 570.553 -3.27957 -5.4317 0
M  V30 4343 P 572.411 -5.75688 -6.64379 0
M  V30 4344 O 573.833 -6.07627 -7.05504 0
M  V30 4345 O 572.051 -5.88047 -5.19722 0
M  V30 4346 O 572.088 -4.2322 -7.04443 0
M  V30 4347 C 571.928 -3.99743 -8.4911 0
M  V30 4348 C 572.468 -2.60516 -8.79425 0
M  V30 4349 O 571.412 -1.82684 -8.4467 0
M  V30 4350 C 573.686 -2.10343 -8.03628 0
M  V30 4351 O 574.424 -1.09919 -8.67766 0
M  V30 4352 C 573.017 -1.68446 -6.70876 0
M  V30 4353 O 573.816 -0.678137 -6.08433 0
M  V30 4354 C 571.68 -1.17436 -7.18567 0
M  V30 4355 H 571.712 -0.0804732 -7.31656 0
M  V30 4356 H 572.895 -2.54037 -6.02537 0
M  V30 4357 H 574.379 -2.93881 -7.85526 0
M  V30 4358 H 572.685 -2.53065 -9.86973 0
M  V30 4359 H 572.495 -4.75072 -9.05887 0
M  V30 4360 H 570.865 -4.05244 -8.76668 0
M  V30 4361 H 573.504 0.177647 -6.34251 0
M  V30 4362 P 575.361 -1.25109 -8.70152 0
M  V30 4363 O 576.783 -1.29744 -9.22016 0
M  V30 4364 O 575.001 -2.13714 -7.55141 0
M  V30 4365 O 575.038 0.248149 -8.21425 0
M  V30 4366 C 574.878 1.22779 -9.30434 0
M  V30 4367 C 575.418 2.56293 -8.80664 0
M  V30 4368 O 574.362 3.02979 -8.09349 0
M  V30 4369 C 576.636 2.57523 -7.89775 0
M  V30 4370 O 577.374 3.7668 -7.89438 0
M  V30 4371 C 575.967 2.20997 -6.55446 0
M  V30 4372 O 576.766 2.71895 -5.48509 0
M  V30 4373 C 574.63 2.89693 -6.67988 0
M  V30 4374 H 574.662 3.88793 -6.19859 0
M  V30 4375 H 575.845 1.12046 -6.44229 0
M  V30 4376 H 577.329 1.7746 -8.19711 0
M  V30 4377 H 575.635 3.20706 -9.67112 0
M  V30 4378 H 575.445 0.901032 -10.1892 0
M  V30 4379 H 573.815 1.33049 -9.56592 0
M  V30 4380 H 576.454 3.57847 -5.23962 0
M  V30 4381 P 578.312 3.65191 -7.99657 0
M  V30 4382 O 579.734 3.89332 -8.45794 0
M  V30 4383 O 577.952 2.28472 -7.50807 0
M  V30 4384 O 577.989 4.64972 -6.77611 0
M  V30 4385 C 577.829 6.06319 -7.16352 0
M  V30 4386 C 578.369 6.91731 -6.02299 0
M  V30 4387 O 577.313 6.92449 -5.17064 0
M  V30 4388 C 579.587 6.43627 -5.25174 0
M  V30 4389 O 580.325 7.43686 -4.60469 0
M  V30 4390 C 578.918 5.40275 -4.31916 0
M  V30 4391 O 579.717 5.25279 -3.14438 0
M  V30 4392 C 577.581 6.04847 -4.05327 0
M  V30 4393 H 577.613 6.62195 -3.11261 0
M  V30 4394 H 578.796 4.42556 -4.81383 0
M  V30 4395 H 580.28 5.92458 -5.93643 0
M  V30 4396 H 578.586 7.92655 -6.402 0
M  V30 4397 H 578.396 6.26671 -8.0846 0
M  V30 4398 H 576.766 6.29101 -7.32804 0
M  V30 4399 H 579.405 5.84315 -2.47318 0
M  V30 4400 P 581.262 7.39546 -4.75277 0
M  V30 4401 O 582.684 7.84798 -5.01039 0
M  V30 4402 O 580.902 5.9812 -5.08098 0
M  V30 4403 O 580.939 7.57503 -3.1866 0
M  V30 4404 C 580.779 8.97357 -2.74833 0
M  V30 4405 C 581.319 9.07548 -1.32709 0
M  V30 4406 O 580.263 8.62072 -0.606159 0
M  V30 4407 C 582.537 8.25383 -0.938334 0
M  V30 4408 O 583.275 8.74577 0.146954 0
M  V30 4409 C 581.868 6.8802 -0.712559 0
M  V30 4410 O 582.667 6.1189 0.194655 0
M  V30 4411 C 580.531 7.27966 -0.139777 0
M  V30 4412 H 580.563 7.25354 0.961601 0
M  V30 4413 H 581.746 6.32557 -1.65702 0
M  V30 4414 H 583.23 8.19355 -1.79097 0
M  V30 4415 H 581.536 10.1294 -1.10029 0
M  V30 4416 H 581.346 9.64276 -3.41316 0
M  V30 4417 H 579.716 9.25417 -2.76357 0
M  V30 4418 H 582.355 6.25267 1.07847 0
M  V30 4419 P 584.213 8.791 3.834e-12 0
M  V30 4420 O 585.635 9.31096 0.027933 0
M  V30 4421 O 583.853 7.77869 -1.04071 0
M  V30 4422 O 583.89 8.09533 1.41463 0
M  V30 4423 C 583.73 9.0349 2.53943 0
M  V30 4424 C 584.27 8.35226 3.79016 0
M  V30 4425 O 583.214 7.57992 4.15078 0
M  V30 4426 C 585.488 7.45087 3.67298 0
M  V30 4427 O 586.226 7.27796 4.85194 0
M  V30 4428 C 584.819 6.17323 3.12027 0
M  V30 4429 O 585.618 5.04231 3.47188 0
M  V30 4430 C 583.482 6.19961 3.81809 0
M  V30 4431 H 583.514 5.58218 4.73051 0
M  V30 4432 H 584.697 6.21726 2.02589 0
M  V30 4433 H 586.181 7.86112 2.9231 0
M  V30 4434 H 584.487 9.11627 4.55076 0
M  V30 4435 H 584.297 9.9573 2.34194 0
M  V30 4436 H 582.667 9.2792 2.67832 0
M  V30 4437 H 585.306 4.67702 4.28772 0
M  V30 4438 P 587.163 7.39546 4.75277 0
M  V30 4439 O 588.585 7.81777 5.05738 0
M  V30 4440 O 586.803 7.1065 3.32998 0
M  V30 4441 O 586.84 6.04542 5.56673 0
M  V30 4442 C 586.68 6.22772 7.02095 0
M  V30 4443 C 587.22 4.97725 7.70406 0
M  V30 4444 O 586.164 4.13256 7.58987 0
M  V30 4445 C 588.438 4.28231 7.11815 0
M  V30 4446 O 589.176 3.49945 8.01648 0
M  V30 4447 C 587.769 3.5063 5.96244 0
M  V30 4448 O 588.568 2.36482 5.64681 0
M  V30 4449 C 586.432 3.15122 6.56374 0
M  V30 4450 H 586.464 2.13853 6.99751 0
M  V30 4451 H 587.647 4.13501 5.06559 0
M  V30 4452 H 589.131 5.03285 6.70911 0
M  V30 4453 H 587.437 5.20877 8.75697 0
M  V30 4454 H 587.247 7.11046 7.35349 0
M  V30 4455 H 585.617 6.35815 7.26986 0
M  V30 4456 H 588.256 1.61644 6.13565 0
M  V30 4457 P 590.114 3.65191 7.99657 0
M  V30 4458 O 591.536 3.8425 8.48115 0
M  V30 4459 O 589.754 4.17805 6.64342 0
M  V30 4460 O 589.791 2.07613 7.95143 0
M  V30 4461 C 589.631 1.44328 9.27336 0
M  V30 4462 C 590.171 0.0220036 9.17197 0
M  V30 4463 O 589.115 -0.626867 8.61923 0
M  V30 4464 C 591.389 -0.24586 8.30336 0
M  V30 4465 O 592.127 -1.39011 8.63583 0
M  V30 4466 C 590.72 -0.273849 6.91158 0
M  V30 4467 O 591.519 -1.06348 6.02892 0
M  V30 4468 C 589.383 -0.897649 7.22545 0
M  V30 4469 H 589.415 -1.9841 7.04286 0
M  V30 4470 H 590.598 0.739928 6.497 0
M  V30 4471 H 592.082 0.60668 8.36503 0
M  V30 4472 H 590.388 -0.352479 10.1829 0
M  V30 4473 H 590.198 2.00611 10.0304 0
M  V30 4474 H 588.568 1.41843 9.55327 0
M  V30 4475 H 591.207 -1.95734 6.03555 0
M  V30 4476 P 593.065 -1.25109 8.70152 0
M  V30 4477 O 594.487 -1.35274 9.21221 0
M  V30 4478 O 592.705 -0.0769065 7.84762 0
M  V30 4479 O 592.742 -2.55232 7.81161 0
M  V30 4480 C 592.582 -3.79939 8.58154 0
M  V30 4481 C 593.122 -4.94023 7.72785 0
M  V30 4482 O 592.066 -5.18726 6.91205 0
M  V30 4483 C 594.34 -4.69597 6.85231 0
M  V30 4484 O 595.078 -5.83832 6.51337 0
M  V30 4485 C 593.671 -3.96706 5.66633 0
M  V30 4486 O 594.47 -4.15414 4.49689 0
M  V30 4487 C 592.334 -4.66153 5.59313 0
M  V30 4488 H 592.366 -5.47679 4.85214 0
M  V30 4489 H 593.549 -2.89008 5.86566 0
M  V30 4490 H 595.033 -4.0121 7.36511 0
M  V30 4491 H 593.339 -5.80182 8.37584 0
M  V30 4492 H 593.149 -3.73517 9.52265 0
M  V30 4493 H 591.519 -3.97163 8.80359 0
M  V30 4494 H 594.158 -4.90969 4.01921 0
M  V30 4495 P 596.015 -5.75688 6.64379 0
M  V30 4496 O 597.437 -6.11849 7.01846 0
M  V30 4497 O 595.655 -4.30744 6.56026 0
M  V30 4498 O 595.692 -6.37042 5.19165 0
M  V30 4499 C 595.532 -7.83578 5.16515 0
M  V30 4500 C 596.072 -8.33398 3.83019 0
M  V30 4501 O 595.016 -8.10074 3.01034 0
M  V30 4502 C 597.29 -7.65514 3.2257 0
M  V30 4503 O 598.028 -8.4329 2.32297 0
M  V30 4504 C 596.621 -6.40075 2.62207 0
M  V30 4505 O 597.42 -5.92589 1.53712 0
M  V30 4506 C 595.284 -6.9454 2.18503 0
M  V30 4507 H 595.316 -7.23063 1.12091 0
M  V30 4508 H 596.499 -5.6025 3.37201 0
M  V30 4509 H 597.983 -7.35707 4.02681 0
M  V30 4510 H 596.289 -9.40912 3.9095 0
M  V30 4511 H 596.099 -8.29056 5.99158 0
M  V30 4512 H 594.469 -8.10073 5.25882 0
M  V30 4513 H 597.108 -6.30324 0.726794 0
M  V30 4514 P 598.966 -8.4349 2.47671 0
M  V30 4515 O 600.367 -8.98227 2.65696 0
M  V30 4516 O 598.588 -7.20409 3.23964 0
M  V30 4517 O 598.643 -8.16496 0.923275 0
M  V30 4518 C 598.483 -9.38437 0.108857 0
M  V30 4519 C 599.023 -9.08076 -1.28339 0
M  V30 4520 O 597.967 -8.44131 -1.84692 0
M  V30 4521 C 600.24 -8.18386 -1.42505 0
M  V30 4522 O 600.979 -8.3501 -2.60497 0
M  V30 4523 C 599.573 -6.80225 -1.25468 0
M  V30 4524 O 600.371 -5.81526 -1.91035 0
M  V30 4525 C 598.235 -7.02416 -1.9168 0
M  V30 4526 N 597.192 -6.31033 -1.20314 0
M  V30 4527 C 596.157 -5.77149 -1.928 0
M  V30 4528 O 596.196 -5.8521 -3.17729 0
M  V30 4529 N 595.145 -5.15445 -1.27997 0
M  V30 4530 C 595.193 -5.04472 0.0534726 0
M  V30 4531 C 596.289 -5.55244 0.808522 0
M  V30 4532 C 597.255 -6.18542 0.13981 0
M  V30 4533 H 598.267 -6.68789 -2.9658 0
M  V30 4534 H 599.45 -6.53498 -0.198729 0
M  V30 4535 H 600.934 -8.36663 -0.5984 0
M  V30 4536 H 599.24 -10.0273 -1.8081 0
M  V30 4537 H 599.049 -10.2138 0.558219 0
M  V30 4538 H 597.419 -9.6569 0.0444156 0
M  V30 4539 H 596.337 -5.43017 1.88792 0
M  V30 4540 H 598.101 -6.60539 0.686773 0
M  V30 4541 H 600.155 -5.79638 -2.8315 0
M  V30 4542 P 601.916 -8.4349 -2.47671 0
M  V30 4543 O 603.337 -8.92689 -2.65029 0
M  V30 4544 O 601.556 -7.7568 -1.19296 0
M  V30 4545 O 601.593 -7.36886 -3.63805 0
M  V30 4546 C 601.432 -7.95433 -4.98253 0
M  V30 4547 C 601.973 -6.94612 -5.98974 0
M  V30 4548 O 600.918 -6.10277 -6.11744 0
M  V30 4549 C 603.191 -6.11426 -5.62335 0
M  V30 4550 O 603.929 -5.6162 -6.70584 0
M  V30 4551 C 602.523 -5.04409 -4.73308 0
M  V30 4552 O 603.321 -3.86404 -4.74719 0
M  V30 4553 C 601.185 -4.8728 -5.41006 0
M  V30 4554 N 600.142 -4.65812 -4.42377 0
M  V30 4555 C 600.311 -5.09132 -3.15382 0
M  V30 4556 N 599.284 -4.84021 -2.3716 0
M  V30 4557 C 598.399 -4.18386 -3.20441 0
M  V30 4558 C 597.132 -3.6275 -2.94905 0
M  V30 4559 N 596.533 -3.65794 -1.73372 0
M  V30 4560 N 596.567 -3.05008 -4.05243 0
M  V30 4561 C 597.169 -2.98348 -5.28159 0
M  V30 4562 N 598.346 -3.48171 -5.56333 0
M  V30 4563 C 598.921 -4.06869 -4.47212 0
M  V30 4564 H 601.217 -4.02278 -6.11074 0
M  V30 4565 H 602.4 -5.39013 -3.70026 0
M  V30 4566 H 603.883 -6.71916 -5.01943 0
M  V30 4567 H 602.189 -7.45796 -6.94223 0
M  V30 4568 H 601.999 -8.89416 -5.05237 0
M  V30 4569 H 600.369 -8.14876 -5.18409 0
M  V30 4570 H 596.633 -2.47853 -6.07807 0
M  V30 4571 H 601.211 -5.59989 -2.81362 0
M  V30 4572 H 595.603 -3.23218 -1.60782 0
M  V30 4573 H 597.007 -4.10523 -0.937856 0
M  V30 4574 H 603.009 -3.27906 -5.43085 0
M  V30 4575 P 604.867 -5.75688 -6.64379 0
M  V30 4576 O 606.289 -6.07627 -7.05504 0
M  V30 4577 O 604.507 -5.88047 -5.19722 0
M  V30 4578 O 604.544 -4.2322 -7.04443 0
M  V30 4579 C 604.384 -3.99743 -8.4911 0
M  V30 4580 C 604.924 -2.60516 -8.79425 0
M  V30 4581 O 603.868 -1.82684 -8.4467 0
M  V30 4582 C 606.142 -2.10343 -8.03628 0
M  V30 4583 O 606.88 -1.09919 -8.67766 0
M  V30 4584 C 605.473 -1.68446 -6.70876 0
M  V30 4585 O 606.272 -0.678137 -6.08433 0
M  V30 4586 C 604.136 -1.17436 -7.18567 0
M  V30 4587 H 604.168 -0.0804732 -7.31656 0
M  V30 4588 H 605.351 -2.54037 -6.02537 0
M  V30 4589 H 606.835 -2.93881 -7.85526 0
M  V30 4590 H 605.141 -2.53065 -9.86973 0
M  V30 4591 H 604.951 -4.75072 -9.05887 0
M  V30 4592 H 603.321 -4.05244 -8.76668 0
M  V30 4593 H 605.96 0.177647 -6.34251 0
M  V30 4594 P 607.817 -1.25109 -8.70152 0
M  V30 4595 O 609.239 -1.29744 -9.22016 0
M  V30 4596 O 607.457 -2.13714 -7.55141 0
M  V30 4597 O 607.494 0.248149 -8.21425 0
M  V30 4598 C 607.334 1.22779 -9.30434 0
M  V30 4599 C 607.874 2.56293 -8.80664 0
M  V30 4600 O 606.818 3.02979 -8.09349 0
M  V30 4601 C 609.092 2.57523 -7.89775 0
M  V30 4602 O 609.83 3.7668 -7.89438 0
M  V30 4603 C 608.423 2.20997 -6.55446 0
M  V30 4604 O 609.222 2.71895 -5.48509 0
M  V30 4605 C 607.086 2.89693 -6.67988 0
M  V30 4606 H 607.118 3.88793 -6.19859 0
M  V30 4607 H 608.301 1.12046 -6.44229 0
M  V30 4608 H 609.785 1.7746 -8.19711 0
M  V30 4609 H 608.091 3.20706 -9.67112 0
M  V30 4610 H 607.901 0.901032 -10.1892 0
M  V30 4611 H 606.271 1.33049 -9.56592 0
M  V30 4612 H 608.91 3.57847 -5.23962 0
M  V30 4613 P 610.768 3.65191 -7.99657 0
M  V30 4614 O 612.19 3.89332 -8.45794 0
M  V30 4615 O 610.408 2.28472 -7.50807 0
M  V30 4616 O 610.445 4.64972 -6.77611 0
M  V30 4617 C 610.285 6.06319 -7.16352 0
M  V30 4618 C 610.825 6.91731 -6.02299 0
M  V30 4619 O 609.769 6.92449 -5.17064 0
M  V30 4620 C 612.043 6.43627 -5.25174 0
M  V30 4621 O 612.781 7.43686 -4.60469 0
M  V30 4622 C 611.374 5.40275 -4.31916 0
M  V30 4623 O 612.173 5.25279 -3.14438 0
M  V30 4624 C 610.037 6.04847 -4.05327 0
M  V30 4625 H 610.069 6.62195 -3.11261 0
M  V30 4626 H 611.252 4.42556 -4.81383 0
M  V30 4627 H 612.736 5.92458 -5.93643 0
M  V30 4628 H 611.042 7.92655 -6.402 0
M  V30 4629 H 610.852 6.26671 -8.0846 0
M  V30 4630 H 609.222 6.29101 -7.32804 0
M  V30 4631 H 611.861 5.84315 -2.47318 0
M  V30 4632 P 613.719 7.39546 -4.75277 0
M  V30 4633 O 615.141 7.84798 -5.01039 0
M  V30 4634 O 613.359 5.9812 -5.08098 0
M  V30 4635 O 613.396 7.57503 -3.1866 0
M  V30 4636 C 613.236 8.97357 -2.74833 0
M  V30 4637 C 613.776 9.07548 -1.32709 0
M  V30 4638 O 612.72 8.62072 -0.606159 0
M  V30 4639 C 614.994 8.25383 -0.938334 0
M  V30 4640 O 615.732 8.74577 0.146954 0
M  V30 4641 C 614.325 6.8802 -0.712559 0
M  V30 4642 O 615.124 6.1189 0.194655 0
M  V30 4643 C 612.988 7.27966 -0.139777 0
M  V30 4644 H 613.02 7.25354 0.961601 0
M  V30 4645 H 614.203 6.32557 -1.65702 0
M  V30 4646 H 615.687 8.19355 -1.79097 0
M  V30 4647 H 613.993 10.1294 -1.10029 0
M  V30 4648 H 613.803 9.64276 -3.41316 0
M  V30 4649 H 612.173 9.25417 -2.76357 0
M  V30 4650 H 614.812 6.25267 1.07847 0
M  V30 4651 P 616.669 8.791 4.14417e-12 0
M  V30 4652 O 618.091 9.31096 0.027933 0
M  V30 4653 O 616.309 7.77869 -1.04071 0
M  V30 4654 O 616.346 8.09533 1.41463 0
M  V30 4655 C 616.186 9.0349 2.53943 0
M  V30 4656 C 616.726 8.35226 3.79016 0
M  V30 4657 O 615.67 7.57992 4.15078 0
M  V30 4658 C 617.944 7.45087 3.67298 0
M  V30 4659 O 618.682 7.27796 4.85194 0
M  V30 4660 C 617.275 6.17323 3.12027 0
M  V30 4661 O 618.074 5.04231 3.47188 0
M  V30 4662 C 615.938 6.19961 3.81809 0
M  V30 4663 H 615.97 5.58218 4.73051 0
M  V30 4664 H 617.153 6.21726 2.02589 0
M  V30 4665 H 618.637 7.86112 2.9231 0
M  V30 4666 H 616.943 9.11627 4.55076 0
M  V30 4667 H 616.753 9.9573 2.34194 0
M  V30 4668 H 615.123 9.2792 2.67832 0
M  V30 4669 H 617.762 4.67702 4.28772 0
M  V30 4670 P 619.62 7.39546 4.75277 0
M  V30 4671 O 621.042 7.81777 5.05738 0
M  V30 4672 O 619.26 7.1065 3.32998 0
M  V30 4673 O 619.297 6.04542 5.56673 0
M  V30 4674 C 619.137 6.22772 7.02095 0
M  V30 4675 C 619.677 4.97725 7.70406 0
M  V30 4676 O 618.621 4.13256 7.58987 0
M  V30 4677 C 620.895 4.28231 7.11815 0
M  V30 4678 O 621.633 3.49945 8.01648 0
M  V30 4679 C 620.226 3.5063 5.96244 0
M  V30 4680 O 621.025 2.36482 5.64681 0
M  V30 4681 C 618.889 3.15122 6.56374 0
M  V30 4682 H 618.921 2.13853 6.99751 0
M  V30 4683 H 620.104 4.13501 5.06559 0
M  V30 4684 H 621.588 5.03285 6.70911 0
M  V30 4685 H 619.894 5.20877 8.75697 0
M  V30 4686 H 619.704 7.11046 7.35349 0
M  V30 4687 H 618.074 6.35815 7.26986 0
M  V30 4688 H 620.713 1.61644 6.13565 0
M  V30 4689 P 622.57 3.65191 7.99657 0
M  V30 4690 O 623.992 3.8425 8.48115 0
M  V30 4691 O 622.21 4.17805 6.64342 0
M  V30 4692 O 622.247 2.07613 7.95143 0
M  V30 4693 C 622.087 1.44328 9.27336 0
M  V30 4694 C 622.627 0.0220036 9.17197 0
M  V30 4695 O 621.571 -0.626867 8.61923 0
M  V30 4696 C 623.845 -0.24586 8.30336 0
M  V30 4697 O 624.583 -1.39011 8.63583 0
M  V30 4698 C 623.176 -0.273849 6.91158 0
M  V30 4699 O 623.975 -1.06348 6.02892 0
M  V30 4700 C 621.839 -0.897649 7.22545 0
M  V30 4701 H 621.871 -1.9841 7.04286 0
M  V30 4702 H 623.054 0.739928 6.497 0
M  V30 4703 H 624.538 0.60668 8.36503 0
M  V30 4704 H 622.844 -0.352479 10.1829 0
M  V30 4705 H 622.654 2.00611 10.0304 0
M  V30 4706 H 621.024 1.41843 9.55327 0
M  V30 4707 H 623.663 -1.95734 6.03555 0
M  V30 4708 P 625.521 -1.25109 8.70152 0
M  V30 4709 O 626.942 -1.35288 9.2132 0
M  V30 4710 O 625.161 -0.0769065 7.84762 0
M  V30 4711 O 625.198 -2.55232 7.81161 0
M  V30 4712 C 625.037 -3.79979 8.58246 0
M  V30 4713 C 625.578 -4.94023 7.72785 0
M  V30 4714 O 624.523 -5.18666 6.91125 0
M  V30 4715 C 626.796 -4.69597 6.85231 0
M  V30 4716 O 627.534 -5.83832 6.51337 0
M  V30 4717 C 626.128 -3.96706 5.66633 0
M  V30 4718 O 626.926 -4.14896 4.5003 0
M  V30 4719 C 624.79 -4.66153 5.59313 0
M  V30 4720 N 623.747 -3.71582 5.24027 0
M  V30 4721 C 623.916 -2.39715 5.48833 0
M  V30 4722 N 622.889 -1.65863 5.12845 0
M  V30 4723 C 622.004 -2.57637 4.5973 0
M  V30 4724 C 620.737 -2.40278 4.01027 0
M  V30 4725 N 620.138 -1.19549 3.86744 0
M  V30 4726 N 620.172 -3.57711 3.59575 0
M  V30 4727 C 620.774 -4.80324 3.70476 0
M  V30 4728 N 621.951 -5.01121 4.23801 0
M  V30 4729 C 622.526 -3.84757 4.66372 0
M  V30 4730 H 624.822 -5.47604 4.85148 0
M  V30 4731 H 626.005 -2.8955 5.86187 0
M  V30 4732 H 627.488 -4.0121 7.36511 0
M  V30 4733 H 625.794 -5.81019 8.37003 0
M  V30 4734 H 625.604 -3.73517 9.52265 0
M  V30 4735 H 623.974 -3.97163 8.80359 0
M  V30 4736 H 620.238 -5.66348 3.3183 0
M  V30 4737 H 624.816 -1.98804 5.94332 0
M  V30 4738 H 619.208 -1.13147 3.4281 0
M  V30 4739 H 620.612 -0.344074 4.19692 0
M  V30 4740 H 626.614 -4.90891 4.01857 0
M  V30 4741 P 628.471 -5.75688 6.64379 0
M  V30 4742 O 629.892 -6.11915 7.01921 0
M  V30 4743 O 628.111 -4.30744 6.56026 0
M  V30 4744 O 628.148 -6.37042 5.19165 0
M  V30 4745 C 627.987 -7.83662 5.1657 0
M  V30 4746 C 628.528 -8.33398 3.83019 0
M  V30 4747 O 627.473 -8.0998 3.00999 0
M  V30 4748 C 629.746 -7.65514 3.2257 0
M  V30 4749 O 630.484 -8.4329 2.32297 0
M  V30 4750 C 629.078 -6.40075 2.62207 0
M  V30 4751 O 629.876 -5.92338 1.5428 0
M  V30 4752 C 627.74 -6.9454 2.18503 0
M  V30 4753 N 626.697 -5.95905 2.39948 0
M  V30 4754 C 626.866 -4.98383 3.32108 0
M  V30 4755 N 625.839 -4.16798 3.41761 0
M  V30 4756 C 624.954 -4.65287 2.47461 0
M  V30 4757 C 623.687 -4.18946 2.07461 0
M  V30 4758 N 623.122 -4.95327 1.09101 0
M  V30 4759 C 623.724 -6.04369 0.519812 0
M  V30 4760 N 624.901 -6.50694 0.855982 0
M  V30 4761 C 625.476 -5.75818 1.84322 0
M  V30 4762 H 628.955 -5.60502 3.36589 0
M  V30 4763 H 630.438 -7.35707 4.02681 0
M  V30 4764 H 628.744 -9.41302 3.90009 0
M  V30 4765 H 628.554 -8.29056 5.99158 0
M  V30 4766 H 626.924 -8.10073 5.25882 0
M  V30 4767 H 627.766 -4.88564 3.92502 0
M  V30 4768 H 629.564 -6.30224 0.72668 0
M  V30 4769 P 631.422 -8.4349 2.47671 0
M  V30 4770 O 632.844 -8.94167 2.5964 0
M  V30 4771 O 631.062 -7.1704 3.19006 0
M  V30 4772 O 631.099 -8.16596 0.923387 0
M  V30 4773 C 630.939 -9.38437 0.108857 0
M  V30 4774 C 631.479 -9.08175 -1.28353 0
M  V30 4775 O 630.423 -8.44229 -1.84713 0
M  V30 4776 C 632.697 -8.18386 -1.42505 0
M  V30 4777 O 633.435 -8.3501 -2.60497 0
M  V30 4778 C 632.028 -6.80225 -1.25468 0
M  V30 4779 O 632.827 -5.81621 -1.91066 0
M  V30 4780 C 630.691 -7.02416 -1.9168 0
M  V30 4781 H 630.723 -6.6888 -2.96621 0
M  V30 4782 H 631.906 -6.53617 -0.192223 0
M  V30 4783 H 633.39 -8.36622 -0.589963 0
M  V30 4784 H 631.696 -10.0291 -1.79807 0
M  V30 4785 H 631.506 -10.2138 0.558219 0
M  V30 4786 H 629.876 -9.6579 0.0444202 0
M  V30 4787 H 632.515 -5.69556 -2.79637 0
M  V30 4788 P 634.373 -8.4349 -2.47671 0
M  V30 4789 O 635.795 -8.92593 -2.65 0
M  V30 4790 O 634.013 -7.7568 -1.19296 0
M  V30 4791 O 634.05 -7.36886 -3.63805 0
M  V30 4792 C 633.89 -7.95349 -4.982 0
M  V30 4793 C 634.43 -6.94612 -5.98974 0
M  V30 4794 O 633.374 -6.10347 -6.11815 0
M  V30 4795 C 635.648 -6.11426 -5.62335 0
M  V30 4796 O 636.386 -5.6162 -6.70584 0
M  V30 4797 C 634.979 -5.04409 -4.73308 0
M  V30 4798 O 635.778 -3.85992 -4.75183 0
M  V30 4799 C 633.642 -4.8728 -5.41006 0
M  V30 4800 H 633.674 -4.02333 -6.11157 0
M  V30 4801 H 634.857 -5.39466 -3.69543 0
M  V30 4802 H 636.341 -6.71916 -5.01943 0
M  V30 4803 H 634.647 -7.4649 -6.93477 0
M  V30 4804 H 634.457 -8.89416 -5.05237 0
M  V30 4805 H 632.827 -8.14876 -5.18409 0
M  V30 4806 H 635.466 -3.27957 -5.4317 0
M  V30 4807 P 637.323 -5.75688 -6.64379 0
M  V30 4808 O 638.745 -6.07627 -7.05504 0
M  V30 4809 O 636.963 -5.88047 -5.19722 0
M  V30 4810 O 637 -4.2322 -7.04443 0
M  V30 4811 C 636.84 -3.99743 -8.4911 0
M  V30 4812 C 637.38 -2.60516 -8.79425 0
M  V30 4813 O 636.324 -1.82684 -8.4467 0
M  V30 4814 C 638.598 -2.10343 -8.03628 0
M  V30 4815 O 639.336 -1.09919 -8.67766 0
M  V30 4816 C 637.929 -1.68446 -6.70876 0
M  V30 4817 O 638.728 -0.678137 -6.08433 0
M  V30 4818 C 636.592 -1.17436 -7.18567 0
M  V30 4819 H 636.624 -0.0804732 -7.31656 0
M  V30 4820 H 637.807 -2.54037 -6.02537 0
M  V30 4821 H 639.291 -2.93881 -7.85526 0
M  V30 4822 H 637.597 -2.53065 -9.86973 0
M  V30 4823 H 637.407 -4.75072 -9.05887 0
M  V30 4824 H 635.777 -4.05244 -8.76668 0
M  V30 4825 H 638.416 0.177647 -6.34251 0
M  V30 4826 P 640.274 -1.25109 -8.70152 0
M  V30 4827 O 641.696 -1.29744 -9.22016 0
M  V30 4828 O 639.914 -2.13714 -7.55141 0
M  V30 4829 O 639.951 0.248149 -8.21425 0
M  V30 4830 C 639.791 1.22779 -9.30434 0
M  V30 4831 C 640.331 2.56293 -8.80664 0
M  V30 4832 O 639.275 3.02979 -8.09349 0
M  V30 4833 C 641.549 2.57523 -7.89775 0
M  V30 4834 O 642.287 3.7668 -7.89438 0
M  V30 4835 C 640.88 2.20997 -6.55446 0
M  V30 4836 O 641.679 2.71895 -5.48509 0
M  V30 4837 C 639.543 2.89693 -6.67988 0
M  V30 4838 H 639.575 3.88793 -6.19859 0
M  V30 4839 H 640.758 1.12046 -6.44229 0
M  V30 4840 H 642.242 1.7746 -8.19711 0
M  V30 4841 H 640.548 3.20706 -9.67112 0
M  V30 4842 H 640.358 0.901032 -10.1892 0
M  V30 4843 H 638.728 1.33049 -9.56592 0
M  V30 4844 H 641.367 3.57847 -5.23962 0
M  V30 4845 P 643.224 3.65191 -7.99657 0
M  V30 4846 O 644.646 3.89332 -8.45794 0
M  V30 4847 O 642.864 2.28472 -7.50807 0
M  V30 4848 O 642.901 4.64972 -6.77611 0
M  V30 4849 C 642.741 6.06319 -7.16352 0
M  V30 4850 C 643.281 6.91731 -6.02299 0
M  V30 4851 O 642.225 6.92449 -5.17064 0
M  V30 4852 C 644.499 6.43627 -5.25174 0
M  V30 4853 O 645.237 7.43686 -4.60469 0
M  V30 4854 C 643.83 5.40275 -4.31916 0
M  V30 4855 O 644.629 5.25279 -3.14438 0
M  V30 4856 C 642.493 6.04847 -4.05327 0
M  V30 4857 H 642.525 6.62195 -3.11261 0
M  V30 4858 H 643.708 4.42556 -4.81383 0
M  V30 4859 H 645.192 5.92458 -5.93643 0
M  V30 4860 H 643.498 7.92655 -6.402 0
M  V30 4861 H 643.308 6.26671 -8.0846 0
M  V30 4862 H 641.678 6.29101 -7.32804 0
M  V30 4863 H 644.317 5.84315 -2.47318 0
M  V30 4864 P 646.175 7.39546 -4.75277 0
M  V30 4865 O 647.597 7.84798 -5.01039 0
M  V30 4866 O 645.815 5.9812 -5.08098 0
M  V30 4867 O 645.852 7.57503 -3.1866 0
M  V30 4868 C 645.692 8.97357 -2.74833 0
M  V30 4869 C 646.232 9.07548 -1.32709 0
M  V30 4870 O 645.176 8.62072 -0.606159 0
M  V30 4871 C 647.45 8.25383 -0.938334 0
M  V30 4872 O 648.188 8.74577 0.146954 0
M  V30 4873 C 646.781 6.8802 -0.712559 0
M  V30 4874 O 647.58 6.1189 0.194655 0
M  V30 4875 C 645.444 7.27966 -0.139777 0
M  V30 4876 H 645.476 7.25354 0.961601 0
M  V30 4877 H 646.659 6.32557 -1.65702 0
M  V30 4878 H 648.143 8.19355 -1.79097 0
M  V30 4879 H 646.449 10.1294 -1.10029 0
M  V30 4880 H 646.259 9.64276 -3.41316 0
M  V30 4881 H 644.629 9.25417 -2.76357 0
M  V30 4882 H 647.268 6.25267 1.07847 0
M  V30 4883 P 649.125 8.791 4.45433e-12 0
M  V30 4884 O 650.546 9.31196 0.027936 0
M  V30 4885 O 648.765 7.77869 -1.04071 0
M  V30 4886 O 648.802 8.09533 1.41463 0
M  V30 4887 C 648.641 9.03587 2.5397 0
M  V30 4888 C 649.182 8.35226 3.79016 0
M  V30 4889 O 648.127 7.57904 4.1503 0
M  V30 4890 C 650.4 7.45087 3.67298 0
M  V30 4891 O 651.138 7.27796 4.85194 0
M  V30 4892 C 649.732 6.17323 3.12027 0
M  V30 4893 O 650.53 5.04496 3.46627 0
M  V30 4894 C 648.394 6.19961 3.81809 0
M  V30 4895 N 647.351 5.71575 2.93223 0
M  V30 4896 C 647.52 5.77362 1.59168 0
M  V30 4897 N 646.493 5.3123 0.911893 0
M  V30 4898 C 645.608 4.91717 1.89588 0
M  V30 4899 C 644.341 4.3114 1.8076 0
M  V30 4900 N 643.742 3.99821 0.632928 0
M  V30 4901 N 643.776 4.06823 3.02898 0
M  V30 4902 C 644.378 4.35062 4.22711 0
M  V30 4903 N 645.555 4.90805 4.35707 0
M  V30 4904 C 646.13 5.16382 3.14469 0
M  V30 4905 H 648.426 5.58142 4.72986 0
M  V30 4906 H 649.609 6.21428 2.0318 0
M  V30 4907 H 651.092 7.86112 2.9231 0
M  V30 4908 H 649.398 9.11171 4.55987 0
M  V30 4909 H 649.208 9.9573 2.34194 0
M  V30 4910 H 647.578 9.2792 2.67832 0
M  V30 4911 H 643.842 4.09052 5.13359 0
M  V30 4912 H 648.42 6.16575 1.12198 0
M  V30 4913 H 642.812 3.55423 0.632085 0
M  V30 4914 H 644.216 4.20317 -0.256712 0
M  V30 4915 H 650.218 4.67628 4.28704 0
M  V30 4916 P 652.076 7.39546 4.75277 0
M  V30 4917 O 653.497 7.81861 5.05793 0
M  V30 4918 O 651.716 7.1065 3.32998 0
M  V30 4919 O 651.753 6.04542 5.56673 0
M  V30 4920 C 651.592 6.22839 7.02169 0
M  V30 4921 C 652.133 4.97725 7.70406 0
M  V30 4922 O 651.078 4.13208 7.58899 0
M  V30 4923 C 653.351 4.28231 7.11815 0
M  V30 4924 O 654.089 3.49945 8.01648 0
M  V30 4925 C 652.683 3.5063 5.96244 0
M  V30 4926 O 653.481 2.37008 5.64352 0
M  V30 4927 C 651.345 3.15122 6.56374 0
M  V30 4928 N 650.302 3.22311 5.55692 0
M  V30 4929 C 650.471 3.99655 4.46046 0
M  V30 4930 N 649.444 3.97599 3.63918 0
M  V30 4931 C 648.559 3.11159 4.25334 0
M  V30 4932 C 647.292 2.64972 3.85157 0
M  V30 4933 N 646.693 3.02132 2.69405 0
M  V30 4934 N 646.727 1.78482 4.74759 0
M  V30 4935 C 647.329 1.37463 5.90819 0
M  V30 4936 N 648.506 1.7733 6.31889 0
M  V30 4937 C 649.081 2.64393 5.43725 0
M  V30 4938 H 651.377 2.13823 6.99656 0
M  V30 4939 H 652.56 4.12931 5.06895 0
M  V30 4940 H 654.043 5.03285 6.70911 0
M  V30 4941 H 652.349 5.20001 8.76217 0
M  V30 4942 H 652.159 7.11046 7.35349 0
M  V30 4943 H 650.529 6.35815 7.26986 0
M  V30 4944 H 646.793 0.66574 6.53015 0
M  V30 4945 H 651.371 4.58037 4.27732 0
M  V30 4946 H 645.763 2.64828 2.45331 0
M  V30 4947 H 647.167 3.67472 2.05644 0
M  V30 4948 H 653.169 1.61619 6.13468 0
M  V30 4949 P 655.027 3.65191 7.99657 0
M  V30 4950 O 656.449 3.8425 8.48115 0
M  V30 4951 O 654.667 4.17805 6.64342 0
M  V30 4952 O 654.704 2.07613 7.95143 0
M  V30 4953 C 654.544 1.44328 9.27336 0
M  V30 4954 C 655.084 0.0220036 9.17197 0
M  V30 4955 O 654.028 -0.626867 8.61923 0
M  V30 4956 C 656.302 -0.24586 8.30336 0
M  V30 4957 O 657.04 -1.39011 8.63583 0
M  V30 4958 C 655.633 -0.273849 6.91158 0
M  V30 4959 O 656.432 -1.06348 6.02892 0
M  V30 4960 C 654.296 -0.897649 7.22545 0
M  V30 4961 H 654.328 -1.9841 7.04286 0
M  V30 4962 H 655.511 0.739928 6.497 0
M  V30 4963 H 656.995 0.60668 8.36503 0
M  V30 4964 H 655.301 -0.352479 10.1829 0
M  V30 4965 H 655.111 2.00611 10.0304 0
M  V30 4966 H 653.481 1.41843 9.55327 0
M  V30 4967 H 656.12 -1.95734 6.03555 0
M  V30 4968 P 657.977 -1.25109 8.70152 0
M  V30 4969 O 659.399 -1.35274 9.21221 0
M  V30 4970 O 657.617 -0.0769065 7.84762 0
M  V30 4971 O 657.654 -2.55232 7.81161 0
M  V30 4972 C 657.494 -3.79939 8.58154 0
M  V30 4973 C 658.034 -4.94023 7.72785 0
M  V30 4974 O 656.978 -5.18726 6.91205 0
M  V30 4975 C 659.252 -4.69597 6.85231 0
M  V30 4976 O 659.99 -5.83832 6.51337 0
M  V30 4977 C 658.583 -3.96706 5.66633 0
M  V30 4978 O 659.382 -4.15414 4.49689 0
M  V30 4979 C 657.246 -4.66153 5.59313 0
M  V30 4980 H 657.278 -5.47679 4.85214 0
M  V30 4981 H 658.461 -2.89008 5.86566 0
M  V30 4982 H 659.945 -4.0121 7.36511 0
M  V30 4983 H 658.251 -5.80182 8.37584 0
M  V30 4984 H 658.061 -3.73517 9.52265 0
M  V30 4985 H 656.431 -3.97163 8.80359 0
M  V30 4986 H 659.07 -4.90969 4.01921 0
M  V30 4987 P 660.928 -5.75688 6.64379 0
M  V30 4988 O 662.35 -6.11849 7.01846 0
M  V30 4989 O 660.568 -4.30744 6.56026 0
M  V30 4990 O 660.605 -6.37042 5.19165 0
M  V30 4991 C 660.445 -7.83578 5.16515 0
M  V30 4992 C 660.985 -8.33398 3.83019 0
M  V30 4993 O 659.929 -8.10074 3.01034 0
M  V30 4994 C 662.203 -7.65514 3.2257 0
M  V30 4995 O 662.941 -8.4329 2.32297 0
M  V30 4996 C 661.534 -6.40075 2.62207 0
M  V30 4997 O 662.333 -5.92589 1.53712 0
M  V30 4998 C 660.197 -6.9454 2.18503 0
M  V30 4999 H 660.229 -7.23063 1.12091 0
M  V30 5000 H 661.412 -5.6025 3.37201 0
M  V30 5001 H 662.896 -7.35707 4.02681 0
M  V30 5002 H 661.202 -9.40912 3.9095 0
M  V30 5003 H 661.012 -8.29056 5.99158 0
M  V30 5004 H 659.382 -8.10073 5.25882 0
M  V30 5005 H 662.021 -6.30324 0.726794 0
M  V30 5006 P 663.878 -8.4349 2.47671 0
M  V30 5007 O 665.299 -8.94263 2.59668 0
M  V30 5008 O 663.518 -7.1704 3.19006 0
M  V30 5009 O 663.555 -8.16596 0.923387 0
M  V30 5010 C 663.394 -9.38537 0.108869 0
M  V30 5011 C 663.935 -9.08175 -1.28353 0
M  V30 5012 O 662.88 -8.44131 -1.84692 0
M  V30 5013 C 665.153 -8.18386 -1.42505 0
M  V30 5014 O 665.891 -8.3501 -2.60497 0
M  V30 5015 C 664.485 -6.80225 -1.25468 0
M  V30 5016 O 665.283 -5.81716 -1.90454 0
M  V30 5017 C 663.147 -7.02416 -1.9168 0
M  V30 5018 N 662.104 -6.31033 -1.20314 0
M  V30 5019 C 662.273 -5.98817 0.0994088 0
M  V30 5020 N 661.246 -5.35403 0.621694 0
M  V30 5021 C 660.361 -5.25212 -0.43376 0
M  V30 5022 C 659.094 -4.64602 -0.519722 0
M  V30 5023 N 658.529 -4.7568 -1.76013 0
M  V30 5024 C 659.131 -5.3653 -2.83017 0
M  V30 5025 N 660.308 -5.93676 -2.79782 0
M  V30 5026 C 660.883 -5.84061 -1.56249 0
M  V30 5027 H 664.362 -6.53498 -0.198729 0
M  V30 5028 H 665.845 -8.36622 -0.589963 0
M  V30 5029 H 664.151 -10.0273 -1.8081 0
M  V30 5030 H 663.961 -10.2138 0.558219 0
M  V30 5031 H 662.331 -9.6579 0.0444202 0
M  V30 5032 H 663.173 -6.23209 0.660562 0
M  V30 5033 H 664.971 -5.69466 -2.79593 0
M  V30 5034 P 666.829 -8.4349 -2.47671 0
M  V30 5035 O 668.23 -8.99283 -2.62101 0
M  V30 5036 O 666.451 -7.81195 -1.16947 0
M  V30 5037 O 666.506 -7.36797 -3.63761 0
M  V30 5038 C 666.346 -7.95349 -4.982 0
M  V30 5039 C 666.886 -6.94537 -5.98908 0
M  V30 5040 O 665.83 -6.10277 -6.11744 0
M  V30 5041 C 668.103 -6.11426 -5.62335 0
M  V30 5042 O 668.842 -5.6162 -6.70584 0
M  V30 5043 C 667.436 -5.04409 -4.73308 0
M  V30 5044 O 668.234 -3.85929 -4.75106 0
M  V30 5045 C 666.098 -4.8728 -5.41006 0
M  V30 5046 N 665.055 -4.65812 -4.42377 0
M  V30 5047 C 664.02 -3.81293 -4.74224 0
M  V30 5048 O 664.059 -3.20533 -5.83679 0
M  V30 5049 N 663.008 -3.6442 -3.86349 0
M  V30 5050 C 663.056 -4.2728 -2.6824 0
M  V30 5051 N 662.046 -4.09866 -1.83822 0
M  V30 5052 C 664.152 -5.10813 -2.3217 0
M  V30 5053 C 665.118 -5.27909 -3.22647 0
M  V30 5054 H 666.13 -4.02278 -6.11074 0
M  V30 5055 H 667.313 -5.39013 -3.70026 0
M  V30 5056 H 668.797 -6.71494 -5.02675 0
M  V30 5057 H 667.103 -7.45796 -6.94223 0
M  V30 5058 H 666.912 -8.89416 -5.05237 0
M  V30 5059 H 665.282 -8.14791 -5.18355 0
M  V30 5060 H 664.2 -5.58884 -1.34755 0
M  V30 5061 H 665.964 -5.92811 -2.9934 0
M  V30 5062 H 661.256 -3.49095 -2.10018 0
M  V30 5063 H 662.051 -4.56846 -0.924167 0
M  V30 5064 H 668.018 -3.3454 -5.51577 0
M  V30 5065 P 669.779 -5.75688 -6.64379 0
M  V30 5066 O 671.201 -6.07627 -7.05504 0
M  V30 5067 O 669.419 -5.88047 -5.19722 0
M  V30 5068 O 669.456 -4.2322 -7.04443 0
M  V30 5069 C 669.296 -3.99743 -8.4911 0
M  V30 5070 C 669.836 -2.60516 -8.79425 0
M  V30 5071 O 668.78 -1.82684 -8.4467 0
M  V30 5072 C 671.054 -2.10343 -8.03628 0
M  V30 5073 O 671.792 -1.09919 -8.67766 0
M  V30 5074 C 670.385 -1.68446 -6.70876 0
M  V30 5075 O 671.184 -0.678137 -6.08433 0
M  V30 5076 C 669.048 -1.17436 -7.18567 0
M  V30 5077 H 669.08 -0.0804732 -7.31656 0
M  V30 5078 H 670.263 -2.54037 -6.02537 0
M  V30 5079 H 671.747 -2.93881 -7.85526 0
M  V30 5080 H 670.053 -2.53065 -9.86973 0
M  V30 5081 H 669.863 -4.75072 -9.05887 0
M  V30 5082 H 668.233 -4.05244 -8.76668 0
M  V30 5083 H 670.872 0.177647 -6.34251 0
M  V30 5084 P 672.73 -1.25109 -8.70152 0
M  V30 5085 O 674.151 -1.29758 -9.22115 0
M  V30 5086 O 672.37 -2.13714 -7.55141 0
M  V30 5087 O 672.407 0.248149 -8.21425 0
M  V30 5088 C 672.246 1.22792 -9.30533 0
M  V30 5089 C 672.787 2.56293 -8.80664 0
M  V30 5090 O 671.732 3.02944 -8.09255 0
M  V30 5091 C 674.005 2.57523 -7.89775 0
M  V30 5092 O 674.743 3.7668 -7.89438 0
M  V30 5093 C 673.337 2.20997 -6.55446 0
M  V30 5094 O 674.135 2.71302 -5.48691 0
M  V30 5095 C 671.999 2.89693 -6.67988 0
M  V30 5096 N 670.956 2.08895 -6.07487 0
M  V30 5097 C 671.125 0.753809 -5.94137 0
M  V30 5098 N 670.098 0.146592 -5.38801 0
M  V30 5099 C 669.213 1.1768 -5.13693 0
M  V30 5100 C 667.946 1.17563 -4.52477 0
M  V30 5101 N 667.381 2.41918 -4.45789 0
M  V30 5102 C 667.983 3.56493 -4.90792 0
M  V30 5103 N 669.16 3.61423 -5.47817 0
M  V30 5104 C 669.735 2.37779 -5.5588 0
M  V30 5105 H 673.214 1.12673 -6.44018 0
M  V30 5106 H 674.697 1.7746 -8.19711 0
M  V30 5107 H 673.003 3.21673 -9.66791 0
M  V30 5108 H 672.813 0.901032 -10.1892 0
M  V30 5109 H 671.183 1.33049 -9.56592 0
M  V30 5110 H 672.025 0.233081 -6.26266 0
M  V30 5111 H 673.823 3.5779 -5.23879 0
M  V30 5112 P 675.681 3.65191 -7.99657 0
M  V30 5113 O 677.102 3.89374 -8.45885 0
M  V30 5114 O 675.321 2.28472 -7.50807 0
M  V30 5115 O 675.358 4.64972 -6.77611 0
M  V30 5116 C 675.197 6.06383 -7.16428 0
M  V30 5117 C 675.738 6.91731 -6.02299 0
M  V30 5118 O 674.683 6.92369 -5.17005 0
M  V30 5119 C 676.956 6.43627 -5.25174 0
M  V30 5120 O 677.694 7.43686 -4.60469 0
M  V30 5121 C 676.288 5.40275 -4.31916 0
M  V30 5122 O 677.086 5.24878 -3.14911 0
M  V30 5123 C 674.95 6.04847 -4.05327 0
M  V30 5124 N 673.907 5.04166 -3.98114 0
M  V30 5125 C 674.076 3.84629 -4.59066 0
M  V30 5126 N 673.049 3.0363 -4.45343 0
M  V30 5127 C 672.164 3.76722 -3.68523 0
M  V30 5128 C 670.897 3.43528 -3.17088 0
M  V30 5129 N 670.298 2.23665 -3.37397 0
M  V30 5130 N 670.332 4.44526 -2.44231 0
M  V30 5131 C 670.934 5.65243 -2.20146 0
M  V30 5132 N 672.111 6.00221 -2.65453 0
M  V30 5133 C 672.686 5.00564 -3.39083 0
M  V30 5134 H 674.982 6.62104 -3.11218 0
M  V30 5135 H 676.165 4.42969 -4.80867 0
M  V30 5136 H 677.648 5.92458 -5.93643 0
M  V30 5137 H 675.954 7.93295 -6.39407 0
M  V30 5138 H 675.764 6.26671 -8.0846 0
M  V30 5139 H 674.134 6.29101 -7.32804 0
M  V30 5140 H 670.398 6.36894 -1.5883 0
M  V30 5141 H 674.976 3.58193 -5.14248 0
M  V30 5142 H 669.368 2.05145 -2.97047 0
M  V30 5143 H 670.772 1.51255 -3.92998 0
M  V30 5144 H 676.774 5.84223 -2.47279 0
M  V30 5145 P 678.631 7.39546 -4.75277 0
M  V30 5146 O 680.053 7.84798 -5.01039 0
M  V30 5147 O 678.271 5.9812 -5.08098 0
M  V30 5148 O 678.308 7.57503 -3.1866 0
M  V30 5149 C 678.148 8.97357 -2.74833 0
M  V30 5150 C 678.688 9.07548 -1.32709 0
M  V30 5151 O 677.632 8.62072 -0.606159 0
M  V30 5152 C 679.906 8.25383 -0.938334 0
M  V30 5153 O 680.644 8.74577 0.146954 0
M  V30 5154 C 679.237 6.8802 -0.712559 0
M  V30 5155 O 680.036 6.1189 0.194655 0
M  V30 5156 C 677.9 7.27966 -0.139777 0
M  V30 5157 H 677.932 7.25354 0.961601 0
M  V30 5158 H 679.115 6.32557 -1.65702 0
M  V30 5159 H 680.599 8.19355 -1.79097 0
M  V30 5160 H 678.905 10.1294 -1.10029 0
M  V30 5161 H 678.715 9.64276 -3.41316 0
M  V30 5162 H 677.085 9.25417 -2.76357 0
M  V30 5163 H 679.724 6.25267 1.07847 0
M  V30 5164 P 681.582 8.791 4.7645e-12 0
M  V30 5165 O 683.004 9.31096 0.027933 0
M  V30 5166 O 681.222 7.77869 -1.04071 0
M  V30 5167 O 681.259 8.09533 1.41463 0
M  V30 5168 C 681.099 9.0349 2.53943 0
M  V30 5169 C 681.639 8.35226 3.79016 0
M  V30 5170 O 680.583 7.57992 4.15078 0
M  V30 5171 C 682.857 7.45087 3.67298 0
M  V30 5172 O 683.595 7.27796 4.85194 0
M  V30 5173 C 682.188 6.17323 3.12027 0
M  V30 5174 O 682.987 5.04231 3.47188 0
M  V30 5175 C 680.851 6.19961 3.81809 0
M  V30 5176 H 680.883 5.58218 4.73051 0
M  V30 5177 H 682.066 6.21726 2.02589 0
M  V30 5178 H 683.55 7.86112 2.9231 0
M  V30 5179 H 681.856 9.11627 4.55076 0
M  V30 5180 H 681.666 9.9573 2.34194 0
M  V30 5181 H 680.036 9.2792 2.67832 0
M  V30 5182 H 682.675 4.67702 4.28772 0
M  V30 5183 P 684.532 7.39546 4.75277 0
M  V30 5184 O 685.954 7.81777 5.05738 0
M  V30 5185 O 684.172 7.1065 3.32998 0
M  V30 5186 O 684.209 6.04542 5.56673 0
M  V30 5187 C 684.049 6.22772 7.02095 0
M  V30 5188 C 684.589 4.97725 7.70406 0
M  V30 5189 O 683.533 4.13256 7.58987 0
M  V30 5190 C 685.807 4.28231 7.11815 0
M  V30 5191 O 686.545 3.49945 8.01648 0
M  V30 5192 C 685.138 3.5063 5.96244 0
M  V30 5193 O 685.937 2.36482 5.64681 0
M  V30 5194 C 683.801 3.15122 6.56374 0
M  V30 5195 H 683.833 2.13853 6.99751 0
M  V30 5196 H 685.016 4.13501 5.06559 0
M  V30 5197 H 686.5 5.03285 6.70911 0
M  V30 5198 H 684.806 5.20877 8.75697 0
M  V30 5199 H 684.616 7.11046 7.35349 0
M  V30 5200 H 682.986 6.35815 7.26986 0
M  V30 5201 H 685.625 1.61644 6.13565 0
M  V30 5202 P 687.483 3.65191 7.99657 0
M  V30 5203 O 688.905 3.8425 8.48115 0
M  V30 5204 O 687.123 4.17805 6.64342 0
M  V30 5205 O 687.16 2.07613 7.95143 0
M  V30 5206 C 687 1.44328 9.27336 0
M  V30 5207 C 687.54 0.0220036 9.17197 0
M  V30 5208 O 686.484 -0.626867 8.61923 0
M  V30 5209 C 688.758 -0.24586 8.30336 0
M  V30 5210 O 689.496 -1.39011 8.63583 0
M  V30 5211 C 688.089 -0.273849 6.91158 0
M  V30 5212 O 688.888 -1.06348 6.02892 0
M  V30 5213 C 686.752 -0.897649 7.22545 0
M  V30 5214 H 686.784 -1.9841 7.04286 0
M  V30 5215 H 687.967 0.739928 6.497 0
M  V30 5216 H 689.451 0.60668 8.36503 0
M  V30 5217 H 687.757 -0.352479 10.1829 0
M  V30 5218 H 687.567 2.00611 10.0304 0
M  V30 5219 H 685.937 1.41843 9.55327 0
M  V30 5220 H 688.576 -1.95734 6.03555 0
M  V30 5221 P 690.433 -1.25109 8.70152 0
M  V30 5222 O 691.855 -1.35274 9.21221 0
M  V30 5223 O 690.073 -0.0769065 7.84762 0
M  V30 5224 O 690.11 -2.55232 7.81161 0
M  V30 5225 C 689.95 -3.79939 8.58154 0
M  V30 5226 C 690.49 -4.94023 7.72785 0
M  V30 5227 O 689.434 -5.18726 6.91205 0
M  V30 5228 C 691.708 -4.69597 6.85231 0
M  V30 5229 O 692.446 -5.83832 6.51337 0
M  V30 5230 C 691.039 -3.96706 5.66633 0
M  V30 5231 O 691.838 -4.15414 4.49689 0
M  V30 5232 C 689.702 -4.66153 5.59313 0
M  V30 5233 H 689.734 -5.47679 4.85214 0
M  V30 5234 H 690.917 -2.89008 5.86566 0
M  V30 5235 H 692.401 -4.0121 7.36511 0
M  V30 5236 H 690.707 -5.80182 8.37584 0
M  V30 5237 H 690.517 -3.73517 9.52265 0
M  V30 5238 H 688.887 -3.97163 8.80359 0
M  V30 5239 H 691.526 -4.90969 4.01921 0
M  V30 5240 P 693.384 -5.75688 6.64379 0
M  V30 5241 O 694.806 -6.11849 7.01846 0
M  V30 5242 O 693.024 -4.30744 6.56026 0
M  V30 5243 O 693.061 -6.37042 5.19165 0
M  V30 5244 C 692.901 -7.83578 5.16515 0
M  V30 5245 C 693.441 -8.33398 3.83019 0
M  V30 5246 O 692.385 -8.10074 3.01034 0
M  V30 5247 C 694.659 -7.65514 3.2257 0
M  V30 5248 O 695.397 -8.4329 2.32297 0
M  V30 5249 C 693.99 -6.40075 2.62207 0
M  V30 5250 O 694.789 -5.92589 1.53712 0
M  V30 5251 C 692.653 -6.9454 2.18503 0
M  V30 5252 H 692.685 -7.23063 1.12091 0
M  V30 5253 H 693.868 -5.6025 3.37201 0
M  V30 5254 H 695.352 -7.35707 4.02681 0
M  V30 5255 H 693.658 -9.40912 3.9095 0
M  V30 5256 H 693.468 -8.29056 5.99158 0
M  V30 5257 H 691.838 -8.10073 5.25882 0
M  V30 5258 H 694.477 -6.30324 0.726794 0
M  V30 5259 P 696.335 -8.4349 2.47671 0
M  V30 5260 O 697.757 -8.94167 2.5964 0
M  V30 5261 O 695.975 -7.1704 3.19006 0
M  V30 5262 O 696.012 -8.16596 0.923387 0
M  V30 5263 C 695.852 -9.38437 0.108857 0
M  V30 5264 C 696.392 -9.08175 -1.28353 0
M  V30 5265 O 695.336 -8.44229 -1.84713 0
M  V30 5266 C 697.61 -8.18386 -1.42505 0
M  V30 5267 O 698.348 -8.3501 -2.60497 0
M  V30 5268 C 696.941 -6.80225 -1.25468 0
M  V30 5269 O 697.74 -5.81621 -1.91066 0
M  V30 5270 C 695.604 -7.02416 -1.9168 0
M  V30 5271 H 695.636 -6.6888 -2.96621 0
M  V30 5272 H 696.819 -6.53617 -0.192223 0
M  V30 5273 H 698.303 -8.36622 -0.589963 0
M  V30 5274 H 696.609 -10.0291 -1.79807 0
M  V30 5275 H 696.419 -10.2138 0.558219 0
M  V30 5276 H 694.789 -9.6579 0.0444202 0
M  V30 5277 H 697.428 -5.69556 -2.79637 0
M  V30 5278 P 699.285 -8.4349 -2.47671 0
M  V30 5279 O 700.707 -8.92593 -2.65 0
M  V30 5280 O 698.925 -7.7568 -1.19296 0
M  V30 5281 O 698.962 -7.36886 -3.63805 0
M  V30 5282 C 698.802 -7.95349 -4.982 0
M  V30 5283 C 699.342 -6.94612 -5.98974 0
M  V30 5284 O 698.286 -6.10347 -6.11815 0
M  V30 5285 C 700.56 -6.11426 -5.62335 0
M  V30 5286 O 701.298 -5.6162 -6.70584 0
M  V30 5287 C 699.891 -5.04409 -4.73308 0
M  V30 5288 O 700.69 -3.85992 -4.75183 0
M  V30 5289 C 698.554 -4.8728 -5.41006 0
M  V30 5290 H 698.586 -4.02333 -6.11157 0
M  V30 5291 H 699.769 -5.39466 -3.69543 0
M  V30 5292 H 701.253 -6.71916 -5.01943 0
M  V30 5293 H 699.559 -7.4649 -6.93477 0
M  V30 5294 H 699.369 -8.89416 -5.05237 0
M  V30 5295 H 697.739 -8.14876 -5.18409 0
M  V30 5296 H 700.378 -3.27957 -5.4317 0
M  V30 5297 P 702.236 -5.75688 -6.64379 0
M  V30 5298 O 703.658 -6.07627 -7.05504 0
M  V30 5299 O 701.876 -5.88047 -5.19722 0
M  V30 5300 O 701.913 -4.2322 -7.04443 0
M  V30 5301 C 701.753 -3.99743 -8.4911 0
M  V30 5302 C 702.293 -2.60516 -8.79425 0
M  V30 5303 O 701.237 -1.82684 -8.4467 0
M  V30 5304 C 703.511 -2.10343 -8.03628 0
M  V30 5305 O 704.249 -1.09919 -8.67766 0
M  V30 5306 C 702.842 -1.68446 -6.70876 0
M  V30 5307 O 703.641 -0.678137 -6.08433 0
M  V30 5308 C 701.505 -1.17436 -7.18567 0
M  V30 5309 H 701.537 -0.0804732 -7.31656 0
M  V30 5310 H 702.72 -2.54037 -6.02537 0
M  V30 5311 H 704.204 -2.93881 -7.85526 0
M  V30 5312 H 702.51 -2.53065 -9.86973 0
M  V30 5313 H 702.32 -4.75072 -9.05887 0
M  V30 5314 H 700.69 -4.05244 -8.76668 0
M  V30 5315 H 703.329 0.177647 -6.34251 0
M  V30 5316 P 705.186 -1.25109 -8.70152 0
M  V30 5317 O 706.608 -1.29744 -9.22016 0
M  V30 5318 O 704.826 -2.13714 -7.55141 0
M  V30 5319 O 704.863 0.248149 -8.21425 0
M  V30 5320 C 704.703 1.22779 -9.30434 0
M  V30 5321 C 705.243 2.56293 -8.80664 0
M  V30 5322 O 704.187 3.02979 -8.09349 0
M  V30 5323 C 706.461 2.57523 -7.89775 0
M  V30 5324 O 707.199 3.7668 -7.89438 0
M  V30 5325 C 705.792 2.20997 -6.55446 0
M  V30 5326 O 706.591 2.71895 -5.48509 0
M  V30 5327 C 704.455 2.89693 -6.67988 0
M  V30 5328 H 704.487 3.88793 -6.19859 0
M  V30 5329 H 705.67 1.12046 -6.44229 0
M  V30 5330 H 707.154 1.7746 -8.19711 0
M  V30 5331 H 705.46 3.20706 -9.67112 0
M  V30 5332 H 705.27 0.901032 -10.1892 0
M  V30 5333 H 703.64 1.33049 -9.56592 0
M  V30 5334 H 706.279 3.57847 -5.23962 0
M  V30 5335 P 708.137 3.65191 -7.99657 0
M  V30 5336 O 709.559 3.89332 -8.45794 0
M  V30 5337 O 707.777 2.28472 -7.50807 0
M  V30 5338 O 707.814 4.64972 -6.77611 0
M  V30 5339 C 707.654 6.06319 -7.16352 0
M  V30 5340 C 708.194 6.91731 -6.02299 0
M  V30 5341 O 707.138 6.92449 -5.17064 0
M  V30 5342 C 709.412 6.43627 -5.25174 0
M  V30 5343 O 710.15 7.43686 -4.60469 0
M  V30 5344 C 708.743 5.40275 -4.31916 0
M  V30 5345 O 709.542 5.25279 -3.14438 0
M  V30 5346 C 707.406 6.04847 -4.05327 0
M  V30 5347 H 707.438 6.62195 -3.11261 0
M  V30 5348 H 708.621 4.42556 -4.81383 0
M  V30 5349 H 710.105 5.92458 -5.93643 0
M  V30 5350 H 708.411 7.92655 -6.402 0
M  V30 5351 H 708.221 6.26671 -8.0846 0
M  V30 5352 H 706.591 6.29101 -7.32804 0
M  V30 5353 H 709.23 5.84315 -2.47318 0
M  V30 5354 P 711.087 7.39546 -4.75277 0
M  V30 5355 O 712.509 7.84798 -5.01039 0
M  V30 5356 O 710.727 5.9812 -5.08098 0
M  V30 5357 O 710.764 7.57503 -3.1866 0
M  V30 5358 C 710.604 8.97357 -2.74833 0
M  V30 5359 C 711.144 9.07548 -1.32709 0
M  V30 5360 O 710.088 8.62072 -0.606159 0
M  V30 5361 C 712.362 8.25383 -0.938334 0
M  V30 5362 O 713.1 8.74577 0.146954 0
M  V30 5363 C 711.693 6.8802 -0.712559 0
M  V30 5364 O 712.492 6.1189 0.194655 0
M  V30 5365 C 710.356 7.27966 -0.139777 0
M  V30 5366 H 710.388 7.25354 0.961601 0
M  V30 5367 H 711.571 6.32557 -1.65702 0
M  V30 5368 H 713.055 8.19355 -1.79097 0
M  V30 5369 H 711.361 10.1294 -1.10029 0
M  V30 5370 H 711.171 9.64276 -3.41316 0
M  V30 5371 H 709.541 9.25417 -2.76357 0
M  V30 5372 H 712.18 6.25267 1.07847 0
M  V30 5373 P 714.038 8.791 5.07466e-12 0
M  V30 5374 O 715.46 9.31296 0.027939 0
M  V30 5375 O 713.678 7.77869 -1.04071 0
M  V30 5376 O 713.715 8.09533 1.41463 0
M  V30 5377 C 713.555 9.0349 2.53943 0
M  V30 5378 C 714.095 8.35135 3.78975 0
M  V30 5379 O 713.04 7.57992 4.15078 0
M  V30 5380 C 715.313 7.45087 3.67298 0
M  V30 5381 O 716.051 7.27796 4.85194 0
M  V30 5382 C 714.645 6.17323 3.12027 0
M  V30 5383 O 715.443 5.04149 3.47132 0
M  V30 5384 C 713.307 6.19961 3.81809 0
M  V30 5385 N 712.264 5.71575 2.93223 0
M  V30 5386 C 712.326 5.97133 1.62693 0
M  V30 5387 N 711.281 5.44066 0.984414 0
M  V30 5388 C 710.547 4.87093 1.93987 0
M  V30 5389 C 709.241 4.26449 1.8738 0
M  V30 5390 O 708.508 4.1089 0.884377 0
M  V30 5391 N 708.811 3.82483 3.08036 0
M  V30 5392 C 709.56 3.95124 4.27727 0
M  V30 5393 N 708.963 3.4084 5.39089 0
M  V30 5394 N 710.713 4.55264 4.3706 0
M  V30 5395 C 711.17 5.00861 3.18217 0
M  V30 5396 H 713.339 5.58218 4.73051 0
M  V30 5397 H 714.522 6.21631 2.02558 0
M  V30 5398 H 716.007 7.85819 2.93096 0
M  V30 5399 H 714.312 9.11627 4.55076 0
M  V30 5400 H 714.122 9.9573 2.34194 0
M  V30 5401 H 712.491 9.2792 2.67832 0
M  V30 5402 H 707.915 3.38323 3.1329 0
M  V30 5403 H 713.122 6.53891 1.14265 0
M  V30 5404 H 708.052 2.93852 5.30559 0
M  V30 5405 H 709.428 3.47631 6.30632 0
M  V30 5406 H 715.132 4.67628 4.28704 0
M  V30 5407 P 716.989 7.39546 4.75277 0
M  V30 5408 O 718.411 7.81777 5.05738 0
M  V30 5409 O 716.629 7.1065 3.32998 0
M  V30 5410 O 716.666 6.04542 5.56673 0
M  V30 5411 C 716.506 6.22772 7.02095 0
M  V30 5412 C 717.046 4.97725 7.70406 0
M  V30 5413 O 715.99 4.13256 7.58987 0
M  V30 5414 C 718.264 4.28231 7.11815 0
M  V30 5415 O 719.002 3.49945 8.01648 0
M  V30 5416 C 717.595 3.5063 5.96244 0
M  V30 5417 O 718.394 2.36482 5.64681 0
M  V30 5418 C 716.258 3.15122 6.56374 0
M  V30 5419 H 716.29 2.13853 6.99751 0
M  V30 5420 H 717.473 4.13501 5.06559 0
M  V30 5421 H 718.957 5.03285 6.70911 0
M  V30 5422 H 717.263 5.20877 8.75697 0
M  V30 5423 H 717.073 7.11046 7.35349 0
M  V30 5424 H 715.443 6.35815 7.26986 0
M  V30 5425 H 718.082 1.61644 6.13565 0
M  V30 5426 P 719.939 3.65191 7.99657 0
M  V30 5427 O 721.361 3.8425 8.48115 0
M  V30 5428 O 719.579 4.17805 6.64342 0
M  V30 5429 O 719.616 2.07613 7.95143 0
M  V30 5430 C 719.456 1.44328 9.27336 0
M  V30 5431 C 719.996 0.0220036 9.17197 0
M  V30 5432 O 718.94 -0.626867 8.61923 0
M  V30 5433 C 721.214 -0.24586 8.30336 0
M  V30 5434 O 721.952 -1.39011 8.63583 0
M  V30 5435 C 720.545 -0.273849 6.91158 0
M  V30 5436 O 721.344 -1.06348 6.02892 0
M  V30 5437 C 719.208 -0.897649 7.22545 0
M  V30 5438 H 719.24 -1.9841 7.04286 0
M  V30 5439 H 720.423 0.739928 6.497 0
M  V30 5440 H 721.907 0.60668 8.36503 0
M  V30 5441 H 720.213 -0.352479 10.1829 0
M  V30 5442 H 720.023 2.00611 10.0304 0
M  V30 5443 H 718.393 1.41843 9.55327 0
M  V30 5444 H 721.032 -1.95734 6.03555 0
M  V30 5445 P 722.89 -1.25109 8.70152 0
M  V30 5446 O 724.312 -1.35274 9.21221 0
M  V30 5447 O 722.53 -0.0769065 7.84762 0
M  V30 5448 O 722.567 -2.55232 7.81161 0
M  V30 5449 C 722.407 -3.79939 8.58154 0
M  V30 5450 C 722.947 -4.94023 7.72785 0
M  V30 5451 O 721.891 -5.18726 6.91205 0
M  V30 5452 C 724.165 -4.69597 6.85231 0
M  V30 5453 O 724.903 -5.83832 6.51337 0
M  V30 5454 C 723.496 -3.96706 5.66633 0
M  V30 5455 O 724.295 -4.15414 4.49689 0
M  V30 5456 C 722.159 -4.66153 5.59313 0
M  V30 5457 H 722.191 -5.47679 4.85214 0
M  V30 5458 H 723.374 -2.89008 5.86566 0
M  V30 5459 H 724.858 -4.0121 7.36511 0
M  V30 5460 H 723.164 -5.80182 8.37584 0
M  V30 5461 H 722.974 -3.73517 9.52265 0
M  V30 5462 H 721.344 -3.97163 8.80359 0
M  V30 5463 H 723.983 -4.90969 4.01921 0
M  V30 5464 P 725.84 -5.75688 6.64379 0
M  V30 5465 O 727.262 -6.11849 7.01846 0
M  V30 5466 O 725.48 -4.30744 6.56026 0
M  V30 5467 O 725.517 -6.37042 5.19165 0
M  V30 5468 C 725.357 -7.83578 5.16515 0
M  V30 5469 C 725.897 -8.33398 3.83019 0
M  V30 5470 O 724.841 -8.10074 3.01034 0
M  V30 5471 C 727.115 -7.65514 3.2257 0
M  V30 5472 O 727.853 -8.4329 2.32297 0
M  V30 5473 C 726.446 -6.40075 2.62207 0
M  V30 5474 O 727.245 -5.92589 1.53712 0
M  V30 5475 C 725.109 -6.9454 2.18503 0
M  V30 5476 H 725.141 -7.23063 1.12091 0
M  V30 5477 H 726.324 -5.6025 3.37201 0
M  V30 5478 H 727.808 -7.35707 4.02681 0
M  V30 5479 H 726.114 -9.40912 3.9095 0
M  V30 5480 H 725.924 -8.29056 5.99158 0
M  V30 5481 H 724.294 -8.10073 5.25882 0
M  V30 5482 H 726.933 -6.30324 0.726794 0
M  V30 5483 P 728.791 -8.4349 2.47671 0
M  V30 5484 O 730.213 -8.94167 2.5964 0
M  V30 5485 O 728.431 -7.1704 3.19006 0
M  V30 5486 O 728.468 -8.16596 0.923387 0
M  V30 5487 C 728.308 -9.38437 0.108857 0
M  V30 5488 C 728.848 -9.08175 -1.28353 0
M  V30 5489 O 727.792 -8.44229 -1.84713 0
M  V30 5490 C 730.066 -8.18386 -1.42505 0
M  V30 5491 O 730.804 -8.3501 -2.60497 0
M  V30 5492 C 729.397 -6.80225 -1.25468 0
M  V30 5493 O 730.196 -5.81621 -1.91066 0
M  V30 5494 C 728.06 -7.02416 -1.9168 0
M  V30 5495 H 728.092 -6.6888 -2.96621 0
M  V30 5496 H 729.275 -6.53617 -0.192223 0
M  V30 5497 H 730.759 -8.36622 -0.589963 0
M  V30 5498 H 729.065 -10.0291 -1.79807 0
M  V30 5499 H 728.875 -10.2138 0.558219 0
M  V30 5500 H 727.245 -9.6579 0.0444202 0
M  V30 5501 H 729.884 -5.69556 -2.79637 0
M  V30 5502 P 731.741 -8.4349 -2.47671 0
M  V30 5503 O 733.163 -8.92593 -2.65 0
M  V30 5504 O 731.381 -7.7568 -1.19296 0
M  V30 5505 O 731.418 -7.36886 -3.63805 0
M  V30 5506 C 731.258 -7.95349 -4.982 0
M  V30 5507 C 731.798 -6.94612 -5.98974 0
M  V30 5508 O 730.742 -6.10347 -6.11815 0
M  V30 5509 C 733.016 -6.11426 -5.62335 0
M  V30 5510 O 733.754 -5.6162 -6.70584 0
M  V30 5511 C 732.347 -5.04409 -4.73308 0
M  V30 5512 O 733.146 -3.85992 -4.75183 0
M  V30 5513 C 731.01 -4.8728 -5.41006 0
M  V30 5514 H 731.042 -4.02333 -6.11157 0
M  V30 5515 H 732.225 -5.39466 -3.69543 0
M  V30 5516 H 733.709 -6.71916 -5.01943 0
M  V30 5517 H 732.015 -7.4649 -6.93477 0
M  V30 5518 H 731.825 -8.89416 -5.05237 0
M  V30 5519 H 730.195 -8.14876 -5.18409 0
M  V30 5520 H 732.834 -3.27957 -5.4317 0
M  V30 5521 P 734.692 -5.75688 -6.64379 0
M  V30 5522 O 736.114 -6.07627 -7.05504 0
M  V30 5523 O 734.332 -5.88047 -5.19722 0
M  V30 5524 O 734.369 -4.2322 -7.04443 0
M  V30 5525 C 734.209 -3.99743 -8.4911 0
M  V30 5526 C 734.749 -2.60516 -8.79425 0
M  V30 5527 O 733.693 -1.82684 -8.4467 0
M  V30 5528 C 735.967 -2.10343 -8.03628 0
M  V30 5529 O 736.705 -1.09919 -8.67766 0
M  V30 5530 C 735.298 -1.68446 -6.70876 0
M  V30 5531 O 736.097 -0.678137 -6.08433 0
M  V30 5532 C 733.961 -1.17436 -7.18567 0
M  V30 5533 H 733.993 -0.0804732 -7.31656 0
M  V30 5534 H 735.176 -2.54037 -6.02537 0
M  V30 5535 H 736.66 -2.93881 -7.85526 0
M  V30 5536 H 734.966 -2.53065 -9.86973 0
M  V30 5537 H 734.776 -4.75072 -9.05887 0
M  V30 5538 H 733.146 -4.05244 -8.76668 0
M  V30 5539 H 735.785 0.177647 -6.34251 0
M  V30 5540 P 737.643 -1.25109 -8.70152 0
M  V30 5541 O 739.064 -1.29758 -9.22115 0
M  V30 5542 O 737.283 -2.13714 -7.55141 0
M  V30 5543 O 737.32 0.248149 -8.21425 0
M  V30 5544 C 737.159 1.22792 -9.30533 0
M  V30 5545 C 737.7 2.56293 -8.80664 0
M  V30 5546 O 736.644 3.02944 -8.09255 0
M  V30 5547 C 738.918 2.57523 -7.89775 0
M  V30 5548 O 739.656 3.7668 -7.89438 0
M  V30 5549 C 738.25 2.20997 -6.55446 0
M  V30 5550 O 739.048 2.71302 -5.48691 0
M  V30 5551 C 736.912 2.89693 -6.67988 0
M  V30 5552 N 735.869 2.08895 -6.07487 0
M  V30 5553 C 736.038 0.753809 -5.94137 0
M  V30 5554 N 735.011 0.146592 -5.38801 0
M  V30 5555 C 734.125 1.1768 -5.13693 0
M  V30 5556 C 732.859 1.17563 -4.52477 0
M  V30 5557 N 732.26 0.057481 -4.04759 0
M  V30 5558 N 732.293 2.41918 -4.45789 0
M  V30 5559 C 732.896 3.56493 -4.90792 0
M  V30 5560 N 734.072 3.61423 -5.47817 0
M  V30 5561 C 734.648 2.37779 -5.5588 0
M  V30 5562 H 736.944 3.8874 -6.19774 0
M  V30 5563 H 738.127 1.12673 -6.44018 0
M  V30 5564 H 739.61 1.7746 -8.19711 0
M  V30 5565 H 737.916 3.21673 -9.66791 0
M  V30 5566 H 737.726 0.901032 -10.1892 0
M  V30 5567 H 736.096 1.33049 -9.56592 0
M  V30 5568 H 732.36 4.49919 -4.77947 0
M  V30 5569 H 736.938 0.233081 -6.26266 0
M  V30 5570 H 731.33 0.119831 -3.60801 0
M  V30 5571 H 732.734 -0.852272 -4.12385 0
M  V30 5572 H 738.736 3.5779 -5.23879 0
M  V30 5573 P 740.593 3.65191 -7.99657 0
M  V30 5574 O 742.015 3.89332 -8.45794 0
M  V30 5575 O 740.233 2.28472 -7.50807 0
M  V30 5576 O 740.27 4.64972 -6.77611 0
M  V30 5577 C 740.11 6.06319 -7.16352 0
M  V30 5578 C 740.65 6.91731 -6.02299 0
M  V30 5579 O 739.594 6.92449 -5.17064 0
M  V30 5580 C 741.868 6.43627 -5.25174 0
M  V30 5581 O 742.606 7.43686 -4.60469 0
M  V30 5582 C 741.199 5.40275 -4.31916 0
M  V30 5583 O 741.998 5.25279 -3.14438 0
M  V30 5584 C 739.862 6.04847 -4.05327 0
M  V30 5585 H 739.894 6.62195 -3.11261 0
M  V30 5586 H 741.077 4.42556 -4.81383 0
M  V30 5587 H 742.561 5.92458 -5.93643 0
M  V30 5588 H 740.867 7.92655 -6.402 0
M  V30 5589 H 740.677 6.26671 -8.0846 0
M  V30 5590 H 739.047 6.29101 -7.32804 0
M  V30 5591 H 741.686 5.84315 -2.47318 0
M  V30 5592 P 743.544 7.39546 -4.75277 0
M  V30 5593 O 744.966 7.84798 -5.01039 0
M  V30 5594 O 743.184 5.9812 -5.08098 0
M  V30 5595 O 743.221 7.57503 -3.1866 0
M  V30 5596 C 743.061 8.97357 -2.74833 0
M  V30 5597 C 743.601 9.07548 -1.32709 0
M  V30 5598 O 742.545 8.62072 -0.606159 0
M  V30 5599 C 744.819 8.25383 -0.938334 0
M  V30 5600 O 745.557 8.74577 0.146954 0
M  V30 5601 C 744.15 6.8802 -0.712559 0
M  V30 5602 O 744.949 6.1189 0.194655 0
M  V30 5603 C 742.813 7.27966 -0.139777 0
M  V30 5604 H 742.845 7.25354 0.961601 0
M  V30 5605 H 744.028 6.32557 -1.65702 0
M  V30 5606 H 745.512 8.19355 -1.79097 0
M  V30 5607 H 743.818 10.1294 -1.10029 0
M  V30 5608 H 743.628 9.64276 -3.41316 0
M  V30 5609 H 741.998 9.25417 -2.76357 0
M  V30 5610 H 744.637 6.25267 1.07847 0
M  V30 5611 P 746.494 8.791 5.38483e-12 0
M  V30 5612 O 747.916 9.31096 0.027933 0
M  V30 5613 O 746.134 7.77869 -1.04071 0
M  V30 5614 O 746.171 8.09533 1.41463 0
M  V30 5615 C 746.011 9.0349 2.53943 0
M  V30 5616 C 746.551 8.35226 3.79016 0
M  V30 5617 O 745.495 7.57992 4.15078 0
M  V30 5618 C 747.769 7.45087 3.67298 0
M  V30 5619 O 748.507 7.27796 4.85194 0
M  V30 5620 C 747.1 6.17323 3.12027 0
M  V30 5621 O 747.899 5.04231 3.47188 0
M  V30 5622 C 745.763 6.19961 3.81809 0
M  V30 5623 H 745.795 5.58218 4.73051 0
M  V30 5624 H 746.978 6.21726 2.02589 0
M  V30 5625 H 748.462 7.86112 2.9231 0
M  V30 5626 H 746.768 9.11627 4.55076 0
M  V30 5627 H 746.578 9.9573 2.34194 0
M  V30 5628 H 744.948 9.2792 2.67832 0
M  V30 5629 H 747.587 4.67702 4.28772 0
M  V30 5630 P 749.445 7.39546 4.75277 0
M  V30 5631 O 750.867 7.81777 5.05738 0
M  V30 5632 O 749.085 7.1065 3.32998 0
M  V30 5633 O 749.122 6.04542 5.56673 0
M  V30 5634 C 748.962 6.22772 7.02095 0
M  V30 5635 C 749.502 4.97725 7.70406 0
M  V30 5636 O 748.446 4.13256 7.58987 0
M  V30 5637 C 750.72 4.28231 7.11815 0
M  V30 5638 O 751.458 3.49945 8.01648 0
M  V30 5639 C 750.051 3.5063 5.96244 0
M  V30 5640 O 750.85 2.36482 5.64681 0
M  V30 5641 C 748.714 3.15122 6.56374 0
M  V30 5642 H 748.746 2.13853 6.99751 0
M  V30 5643 H 749.929 4.13501 5.06559 0
M  V30 5644 H 751.413 5.03285 6.70911 0
M  V30 5645 H 749.719 5.20877 8.75697 0
M  V30 5646 H 749.529 7.11046 7.35349 0
M  V30 5647 H 747.899 6.35815 7.26986 0
M  V30 5648 H 750.538 1.61644 6.13565 0
M  V30 5649 P 752.395 3.65191 7.99657 0
M  V30 5650 O 753.817 3.8425 8.48115 0
M  V30 5651 O 752.035 4.17805 6.64342 0
M  V30 5652 O 752.072 2.07613 7.95143 0
M  V30 5653 C 751.912 1.44328 9.27336 0
M  V30 5654 C 752.452 0.0220036 9.17197 0
M  V30 5655 O 751.396 -0.626867 8.61923 0
M  V30 5656 C 753.67 -0.24586 8.30336 0
M  V30 5657 O 754.408 -1.39011 8.63583 0
M  V30 5658 C 753.001 -0.273849 6.91158 0
M  V30 5659 O 753.8 -1.06348 6.02892 0
M  V30 5660 C 751.664 -0.897649 7.22545 0
M  V30 5661 H 751.696 -1.9841 7.04286 0
M  V30 5662 H 752.879 0.739928 6.497 0
M  V30 5663 H 754.363 0.60668 8.36503 0
M  V30 5664 H 752.669 -0.352479 10.1829 0
M  V30 5665 H 752.479 2.00611 10.0304 0
M  V30 5666 H 750.849 1.41843 9.55327 0
M  V30 5667 H 753.488 -1.95734 6.03555 0
M  V30 5668 P 755.346 -1.25109 8.70152 0
M  V30 5669 O 756.767 -1.35288 9.2132 0
M  V30 5670 O 754.986 -0.0769065 7.84762 0
M  V30 5671 O 755.023 -2.55232 7.81161 0
M  V30 5672 C 754.862 -3.79979 8.58246 0
M  V30 5673 C 755.403 -4.94023 7.72785 0
M  V30 5674 O 754.348 -5.18666 6.91125 0
M  V30 5675 C 756.621 -4.69597 6.85231 0
M  V30 5676 O 757.359 -5.83832 6.51337 0
M  V30 5677 C 755.953 -3.96706 5.66633 0
M  V30 5678 O 756.751 -4.14896 4.5003 0
M  V30 5679 C 754.615 -4.66153 5.59313 0
M  V30 5680 N 753.572 -3.71582 5.24027 0
M  V30 5681 C 753.741 -2.39715 5.48833 0
M  V30 5682 N 752.714 -1.65863 5.12845 0
M  V30 5683 C 751.829 -2.57637 4.5973 0
M  V30 5684 C 750.562 -2.40278 4.01027 0
M  V30 5685 N 749.963 -1.19549 3.86744 0
M  V30 5686 N 749.997 -3.57711 3.59575 0
M  V30 5687 C 750.599 -4.80324 3.70476 0
M  V30 5688 N 751.776 -5.01121 4.23801 0
M  V30 5689 C 752.351 -3.84757 4.66372 0
M  V30 5690 H 754.647 -5.47604 4.85148 0
M  V30 5691 H 755.83 -2.8955 5.86187 0
M  V30 5692 H 757.313 -4.0121 7.36511 0
M  V30 5693 H 755.619 -5.81019 8.37003 0
M  V30 5694 H 755.429 -3.73517 9.52265 0
M  V30 5695 H 753.799 -3.97163 8.80359 0
M  V30 5696 H 750.063 -5.66348 3.3183 0
M  V30 5697 H 754.641 -1.98804 5.94332 0
M  V30 5698 H 749.033 -1.13147 3.4281 0
M  V30 5699 H 750.437 -0.344074 4.19692 0
M  V30 5700 H 756.439 -4.90891 4.01857 0
M  V30 5701 P 758.296 -5.75688 6.64379 0
M  V30 5702 O 759.718 -6.11849 7.01846 0
M  V30 5703 O 757.936 -4.30744 6.56026 0
M  V30 5704 O 757.973 -6.37042 5.19165 0
M  V30 5705 C 757.813 -7.83578 5.16515 0
M  V30 5706 C 758.353 -8.33398 3.83019 0
M  V30 5707 O 757.297 -8.10074 3.01034 0
M  V30 5708 C 759.571 -7.65514 3.2257 0
M  V30 5709 O 760.309 -8.4329 2.32297 0
M  V30 5710 C 758.902 -6.40075 2.62207 0
M  V30 5711 O 759.701 -5.92589 1.53712 0
M  V30 5712 C 757.565 -6.9454 2.18503 0
M  V30 5713 H 757.597 -7.23063 1.12091 0
M  V30 5714 H 758.78 -5.6025 3.37201 0
M  V30 5715 H 760.264 -7.35707 4.02681 0
M  V30 5716 H 758.57 -9.40912 3.9095 0
M  V30 5717 H 758.38 -8.29056 5.99158 0
M  V30 5718 H 756.75 -8.10073 5.25882 0
M  V30 5719 H 759.389 -6.30324 0.726794 0
M  V30 5720 P 761.247 -8.4349 2.47671 0
M  V30 5721 O 762.669 -8.94167 2.5964 0
M  V30 5722 O 760.887 -7.1704 3.19006 0
M  V30 5723 O 760.924 -8.16596 0.923387 0
M  V30 5724 C 760.764 -9.38437 0.108857 0
M  V30 5725 C 761.304 -9.08175 -1.28353 0
M  V30 5726 O 760.248 -8.44229 -1.84713 0
M  V30 5727 C 762.522 -8.18386 -1.42505 0
M  V30 5728 O 763.26 -8.3501 -2.60497 0
M  V30 5729 C 761.853 -6.80225 -1.25468 0
M  V30 5730 O 762.652 -5.81621 -1.91066 0
M  V30 5731 C 760.516 -7.02416 -1.9168 0
M  V30 5732 H 760.548 -6.6888 -2.96621 0
M  V30 5733 H 761.731 -6.53617 -0.192223 0
M  V30 5734 H 763.215 -8.36622 -0.589963 0
M  V30 5735 H 761.521 -10.0291 -1.79807 0
M  V30 5736 H 761.331 -10.2138 0.558219 0
M  V30 5737 H 759.701 -9.6579 0.0444202 0
M  V30 5738 H 762.34 -5.69556 -2.79637 0
M  V30 5739 P 764.198 -8.4349 -2.47671 0
M  V30 5740 O 765.619 -8.92689 -2.65029 0
M  V30 5741 O 763.838 -7.7568 -1.19296 0
M  V30 5742 O 763.875 -7.36886 -3.63805 0
M  V30 5743 C 763.714 -7.95433 -4.98253 0
M  V30 5744 C 764.255 -6.94612 -5.98974 0
M  V30 5745 O 763.2 -6.10277 -6.11744 0
M  V30 5746 C 765.473 -6.11426 -5.62335 0
M  V30 5747 O 766.211 -5.6162 -6.70584 0
M  V30 5748 C 764.805 -5.04409 -4.73308 0
M  V30 5749 O 765.603 -3.86404 -4.74719 0
M  V30 5750 C 763.467 -4.8728 -5.41006 0
M  V30 5751 N 762.424 -4.65812 -4.42377 0
M  V30 5752 C 762.593 -5.09132 -3.15382 0
M  V30 5753 N 761.566 -4.84021 -2.3716 0
M  V30 5754 C 760.681 -4.18386 -3.20441 0
M  V30 5755 C 759.414 -3.6275 -2.94905 0
M  V30 5756 N 758.815 -3.65794 -1.73372 0
M  V30 5757 N 758.849 -3.05008 -4.05243 0
M  V30 5758 C 759.451 -2.98348 -5.28159 0
M  V30 5759 N 760.628 -3.48171 -5.56333 0
M  V30 5760 C 761.203 -4.06869 -4.47212 0
M  V30 5761 H 763.499 -4.02278 -6.11074 0
M  V30 5762 H 764.682 -5.39013 -3.70026 0
M  V30 5763 H 766.165 -6.71916 -5.01943 0
M  V30 5764 H 764.471 -7.45796 -6.94223 0
M  V30 5765 H 764.281 -8.89416 -5.05237 0
M  V30 5766 H 762.651 -8.14876 -5.18409 0
M  V30 5767 H 758.915 -2.47853 -6.07807 0
M  V30 5768 H 763.493 -5.59989 -2.81362 0
M  V30 5769 H 757.885 -3.23218 -1.60782 0
M  V30 5770 H 759.289 -4.10523 -0.937856 0
M  V30 5771 H 765.291 -3.27906 -5.43085 0
M  V30 5772 P 767.148 -5.75688 -6.64379 0
M  V30 5773 O 768.569 -6.07692 -7.0558 0
M  V30 5774 O 766.788 -5.88047 -5.19722 0
M  V30 5775 O 766.825 -4.2322 -7.04443 0
M  V30 5776 C 766.664 -3.99785 -8.49201 0
M  V30 5777 C 767.205 -2.60516 -8.79425 0
M  V30 5778 O 766.15 -1.82663 -8.44573 0
M  V30 5779 C 768.423 -2.10343 -8.03628 0
M  V30 5780 O 769.161 -1.09919 -8.67766 0
M  V30 5781 C 767.755 -1.68446 -6.70876 0
M  V30 5782 O 768.553 -0.684109 -6.08265 0
M  V30 5783 C 766.417 -1.17436 -7.18567 0
M  V30 5784 N 765.374 -1.52699 -6.23988 0
M  V30 5785 C 765.543 -2.578 -5.40574 0
M  V30 5786 N 764.516 -2.78966 -4.61193 0
M  V30 5787 C 763.631 -1.78725 -4.95769 0
M  V30 5788 C 762.364 -1.45727 -4.44207 0
M  V30 5789 N 761.765 -2.13994 -3.43613 0
M  V30 5790 N 761.799 -0.374977 -5.05812 0
M  V30 5791 C 762.401 0.345585 -6.05615 0
M  V30 5792 N 763.578 0.0787651 -6.56253 0
M  V30 5793 C 764.153 -1.00499 -5.96189 0
M  V30 5794 H 766.449 -0.0804622 -7.31556 0
M  V30 5795 H 767.632 -2.53396 -6.02698 0
M  V30 5796 H 769.115 -2.93881 -7.85526 0
M  V30 5797 H 767.421 -2.52078 -9.87225 0
M  V30 5798 H 767.231 -4.75072 -9.05887 0
M  V30 5799 H 765.601 -4.05244 -8.76668 0
M  V30 5800 H 761.865 1.20098 -6.4532 0
M  V30 5801 H 766.443 -3.18977 -5.3945 0
M  V30 5802 H 760.835 -1.84983 -3.10004 0
M  V30 5803 H 762.239 -2.9465 -3.00843 0
M  V30 5804 H 768.241 0.177619 -6.34151 0
M  V30 5805 P 770.099 -1.25109 -8.70152 0
M  V30 5806 O 771.521 -1.29744 -9.22016 0
M  V30 5807 O 769.739 -2.13714 -7.55141 0
M  V30 5808 O 769.776 0.248149 -8.21425 0
M  V30 5809 C 769.616 1.22779 -9.30434 0
M  V30 5810 C 770.156 2.56293 -8.80664 0
M  V30 5811 O 769.1 3.02979 -8.09349 0
M  V30 5812 C 771.374 2.57523 -7.89775 0
M  V30 5813 O 772.112 3.7668 -7.89438 0
M  V30 5814 C 770.705 2.20997 -6.55446 0
M  V30 5815 O 771.504 2.71895 -5.48509 0
M  V30 5816 C 769.368 2.89693 -6.67988 0
M  V30 5817 H 769.4 3.88793 -6.19859 0
M  V30 5818 H 770.583 1.12046 -6.44229 0
M  V30 5819 H 772.067 1.7746 -8.19711 0
M  V30 5820 H 770.373 3.20706 -9.67112 0
M  V30 5821 H 770.183 0.901032 -10.1892 0
M  V30 5822 H 768.553 1.33049 -9.56592 0
M  V30 5823 H 771.192 3.57847 -5.23962 0
M  V30 5824 P 773.049 3.65191 -7.99657 0
M  V30 5825 O 774.471 3.89416 -8.45976 0
M  V30 5826 O 772.689 2.28472 -7.50807 0
M  V30 5827 O 772.726 4.64972 -6.77611 0
M  V30 5828 C 772.566 6.06319 -7.16352 0
M  V30 5829 C 773.106 6.91655 -6.02234 0
M  V30 5830 O 772.051 6.92449 -5.17064 0
M  V30 5831 C 774.324 6.43627 -5.25174 0
M  V30 5832 O 775.062 7.43686 -4.60469 0
M  V30 5833 C 773.656 5.40275 -4.31916 0
M  V30 5834 O 774.454 5.25193 -3.14386 0
M  V30 5835 C 772.318 6.04847 -4.05327 0
M  V30 5836 N 771.275 5.04166 -3.98114 0
M  V30 5837 C 771.337 3.96049 -4.75587 0
M  V30 5838 N 770.292 3.15559 -4.54006 0
M  V30 5839 C 769.558 3.78802 -3.62491 0
M  V30 5840 C 768.252 3.476 -3.10071 0
M  V30 5841 O 767.519 2.51136 -3.37021 0
M  V30 5842 N 767.822 4.39088 -2.19956 0
M  V30 5843 C 768.571 5.53215 -1.81733 0
M  V30 5844 N 767.974 6.31963 -0.860928 0
M  V30 5845 N 769.724 5.86688 -2.32562 0
M  V30 5846 C 770.181 4.97525 -3.23407 0
M  V30 5847 H 772.35 6.62195 -3.11261 0
M  V30 5848 H 773.533 4.42488 -4.8131 0
M  V30 5849 H 775.018 5.93051 -5.9305 0
M  V30 5850 H 773.323 7.92655 -6.402 0
M  V30 5851 H 773.133 6.26671 -8.0846 0
M  V30 5852 H 771.502 6.29101 -7.32804 0
M  V30 5853 H 766.926 4.25523 -1.77604 0
M  V30 5854 H 772.133 3.75576 -5.47333 0
M  V30 5855 H 767.063 6.04684 -0.468946 0
M  V30 5856 H 768.439 7.18054 -0.542422 0
M  V30 5857 H 774.143 5.84223 -2.47279 0
M  V30 5858 P 776 7.39546 -4.75277 0
M  V30 5859 O 777.422 7.84798 -5.01039 0
M  V30 5860 O 775.64 5.9812 -5.08098 0
M  V30 5861 O 775.677 7.57503 -3.1866 0
M  V30 5862 C 775.517 8.97357 -2.74833 0
M  V30 5863 C 776.057 9.07548 -1.32709 0
M  V30 5864 O 775.001 8.62072 -0.606159 0
M  V30 5865 C 777.275 8.25383 -0.938334 0
M  V30 5866 O 778.013 8.74577 0.146954 0
M  V30 5867 C 776.606 6.8802 -0.712559 0
M  V30 5868 O 777.405 6.1189 0.194655 0
M  V30 5869 C 775.269 7.27966 -0.139777 0
M  V30 5870 H 775.301 7.25354 0.961601 0
M  V30 5871 H 776.484 6.32557 -1.65702 0
M  V30 5872 H 777.968 8.19355 -1.79097 0
M  V30 5873 H 776.274 10.1294 -1.10029 0
M  V30 5874 H 776.084 9.64276 -3.41316 0
M  V30 5875 H 774.454 9.25417 -2.76357 0
M  V30 5876 H 777.093 6.25267 1.07847 0
M  V30 5877 P 778.95 8.791 5.69499e-12 0
M  V30 5878 O 780.372 9.31096 0.027933 0
M  V30 5879 O 778.59 7.77869 -1.04071 0
M  V30 5880 O 778.627 8.09533 1.41463 0
M  V30 5881 C 778.467 9.0349 2.53943 0
M  V30 5882 C 779.007 8.35226 3.79016 0
M  V30 5883 O 777.951 7.57992 4.15078 0
M  V30 5884 C 780.225 7.45087 3.67298 0
M  V30 5885 O 780.963 7.27796 4.85194 0
M  V30 5886 C 779.556 6.17323 3.12027 0
M  V30 5887 O 780.355 5.04231 3.47188 0
M  V30 5888 C 778.219 6.19961 3.81809 0
M  V30 5889 H 778.251 5.58218 4.73051 0
M  V30 5890 H 779.434 6.21726 2.02589 0
M  V30 5891 H 780.918 7.86112 2.9231 0
M  V30 5892 H 779.224 9.11627 4.55076 0
M  V30 5893 H 779.034 9.9573 2.34194 0
M  V30 5894 H 777.404 9.2792 2.67832 0
M  V30 5895 H 780.043 4.67702 4.28772 0
M  V30 5896 P 781.901 7.39546 4.75277 0
M  V30 5897 O 783.323 7.81777 5.05738 0
M  V30 5898 O 781.541 7.1065 3.32998 0
M  V30 5899 O 781.578 6.04542 5.56673 0
M  V30 5900 C 781.418 6.22772 7.02095 0
M  V30 5901 C 781.958 4.97725 7.70406 0
M  V30 5902 O 780.902 4.13256 7.58987 0
M  V30 5903 C 783.176 4.28231 7.11815 0
M  V30 5904 O 783.914 3.49945 8.01648 0
M  V30 5905 C 782.507 3.5063 5.96244 0
M  V30 5906 O 783.306 2.36482 5.64681 0
M  V30 5907 C 781.17 3.15122 6.56374 0
M  V30 5908 H 781.202 2.13853 6.99751 0
M  V30 5909 H 782.385 4.13501 5.06559 0
M  V30 5910 H 783.869 5.03285 6.70911 0
M  V30 5911 H 782.175 5.20877 8.75697 0
M  V30 5912 H 781.985 7.11046 7.35349 0
M  V30 5913 H 780.355 6.35815 7.26986 0
M  V30 5914 H 782.994 1.61644 6.13565 0
M  V30 5915 P 784.852 3.65191 7.99657 0
M  V30 5916 O 786.274 3.8425 8.48115 0
M  V30 5917 O 784.492 4.17805 6.64342 0
M  V30 5918 O 784.529 2.07613 7.95143 0
M  V30 5919 C 784.369 1.44328 9.27336 0
M  V30 5920 C 784.909 0.0220036 9.17197 0
M  V30 5921 O 783.853 -0.626867 8.61923 0
M  V30 5922 C 786.127 -0.24586 8.30336 0
M  V30 5923 O 786.865 -1.39011 8.63583 0
M  V30 5924 C 785.458 -0.273849 6.91158 0
M  V30 5925 O 786.257 -1.06348 6.02892 0
M  V30 5926 C 784.121 -0.897649 7.22545 0
M  V30 5927 H 784.153 -1.9841 7.04286 0
M  V30 5928 H 785.336 0.739928 6.497 0
M  V30 5929 H 786.82 0.60668 8.36503 0
M  V30 5930 H 785.126 -0.352479 10.1829 0
M  V30 5931 H 784.936 2.00611 10.0304 0
M  V30 5932 H 783.306 1.41843 9.55327 0
M  V30 5933 H 785.945 -1.95734 6.03555 0
M  V30 5934 P 787.802 -1.25109 8.70152 0
M  V30 5935 O 789.223 -1.35288 9.2132 0
M  V30 5936 O 787.442 -0.0769065 7.84762 0
M  V30 5937 O 787.479 -2.55232 7.81161 0
M  V30 5938 C 787.318 -3.79979 8.58246 0
M  V30 5939 C 787.859 -4.94023 7.72785 0
M  V30 5940 O 786.804 -5.18666 6.91125 0
M  V30 5941 C 789.077 -4.69597 6.85231 0
M  V30 5942 O 789.815 -5.83832 6.51337 0
M  V30 5943 C 788.409 -3.96706 5.66633 0
M  V30 5944 O 789.207 -4.14896 4.5003 0
M  V30 5945 C 787.071 -4.66153 5.59313 0
M  V30 5946 N 786.028 -3.71582 5.24027 0
M  V30 5947 C 786.197 -2.39715 5.48833 0
M  V30 5948 N 785.17 -1.65863 5.12845 0
M  V30 5949 C 784.285 -2.57637 4.5973 0
M  V30 5950 C 783.018 -2.40278 4.01027 0
M  V30 5951 N 782.419 -1.19549 3.86744 0
M  V30 5952 N 782.453 -3.57711 3.59575 0
M  V30 5953 C 783.055 -4.80324 3.70476 0
M  V30 5954 N 784.232 -5.01121 4.23801 0
M  V30 5955 C 784.807 -3.84757 4.66372 0
M  V30 5956 H 787.103 -5.47604 4.85148 0
M  V30 5957 H 788.286 -2.8955 5.86187 0
M  V30 5958 H 789.769 -4.0121 7.36511 0
M  V30 5959 H 788.075 -5.81019 8.37003 0
M  V30 5960 H 787.885 -3.73517 9.52265 0
M  V30 5961 H 786.255 -3.97163 8.80359 0
M  V30 5962 H 782.519 -5.66348 3.3183 0
M  V30 5963 H 787.097 -1.98804 5.94332 0
M  V30 5964 H 781.489 -1.13147 3.4281 0
M  V30 5965 H 782.893 -0.344074 4.19692 0
M  V30 5966 H 788.895 -4.90891 4.01857 0
M  V30 5967 P 790.753 -5.75688 6.64379 0
M  V30 5968 O 792.175 -6.11849 7.01846 0
M  V30 5969 O 790.393 -4.30744 6.56026 0
M  V30 5970 O 790.43 -6.37042 5.19165 0
M  V30 5971 C 790.27 -7.83578 5.16515 0
M  V30 5972 C 790.81 -8.33398 3.83019 0
M  V30 5973 O 789.754 -8.10074 3.01034 0
M  V30 5974 C 792.028 -7.65514 3.2257 0
M  V30 5975 O 792.766 -8.4329 2.32297 0
M  V30 5976 C 791.359 -6.40075 2.62207 0
M  V30 5977 O 792.158 -5.92589 1.53712 0
M  V30 5978 C 790.022 -6.9454 2.18503 0
M  V30 5979 H 790.054 -7.23063 1.12091 0
M  V30 5980 H 791.237 -5.6025 3.37201 0
M  V30 5981 H 792.721 -7.35707 4.02681 0
M  V30 5982 H 791.027 -9.40912 3.9095 0
M  V30 5983 H 790.837 -8.29056 5.99158 0
M  V30 5984 H 789.207 -8.10073 5.25882 0
M  V30 5985 H 791.846 -6.30324 0.726794 0
M  V30 5986 P 793.703 -8.4349 2.47671 0
M  V30 5987 O 795.125 -8.94167 2.5964 0
M  V30 5988 O 793.343 -7.1704 3.19006 0
M  V30 5989 O 793.38 -8.16596 0.923387 0
M  V30 5990 C 793.22 -9.38437 0.108857 0
M  V30 5991 C 793.76 -9.08175 -1.28353 0
M  V30 5992 O 792.704 -8.44229 -1.84713 0
M  V30 5993 C 794.978 -8.18386 -1.42505 0
M  V30 5994 O 795.716 -8.3501 -2.60497 0
M  V30 5995 C 794.309 -6.80225 -1.25468 0
M  V30 5996 O 795.108 -5.81621 -1.91066 0
M  V30 5997 C 792.972 -7.02416 -1.9168 0
M  V30 5998 H 793.004 -6.6888 -2.96621 0
M  V30 5999 H 794.187 -6.53617 -0.192223 0
M  V30 6000 H 795.671 -8.36622 -0.589963 0
M  V30 6001 H 793.977 -10.0291 -1.79807 0
M  V30 6002 H 793.787 -10.2138 0.558219 0
M  V30 6003 H 792.157 -9.6579 0.0444202 0
M  V30 6004 H 794.796 -5.69556 -2.79637 0
M  V30 6005 P 796.654 -8.4349 -2.47671 0
M  V30 6006 O 798.076 -8.92593 -2.65 0
M  V30 6007 O 796.294 -7.7568 -1.19296 0
M  V30 6008 O 796.331 -7.36886 -3.63805 0
M  V30 6009 C 796.171 -7.95349 -4.982 0
M  V30 6010 C 796.711 -6.94612 -5.98974 0
M  V30 6011 O 795.655 -6.10347 -6.11815 0
M  V30 6012 C 797.929 -6.11426 -5.62335 0
M  V30 6013 O 798.667 -5.6162 -6.70584 0
M  V30 6014 C 797.26 -5.04409 -4.73308 0
M  V30 6015 O 798.059 -3.85992 -4.75183 0
M  V30 6016 C 795.923 -4.8728 -5.41006 0
M  V30 6017 H 795.955 -4.02333 -6.11157 0
M  V30 6018 H 797.138 -5.39466 -3.69543 0
M  V30 6019 H 798.622 -6.71916 -5.01943 0
M  V30 6020 H 796.928 -7.4649 -6.93477 0
M  V30 6021 H 796.738 -8.89416 -5.05237 0
M  V30 6022 H 795.108 -8.14876 -5.18409 0
M  V30 6023 H 797.747 -3.27957 -5.4317 0
M  V30 6024 P 799.604 -5.75688 -6.64379 0
M  V30 6025 O 801.026 -6.07758 -7.05656 0
M  V30 6026 O 799.244 -5.88047 -5.19722 0
M  V30 6027 O 799.281 -4.2322 -7.04443 0
M  V30 6028 C 799.121 -3.99743 -8.4911 0
M  V30 6029 C 799.661 -2.60487 -8.79329 0
M  V30 6030 O 798.606 -1.82684 -8.4467 0
M  V30 6031 C 800.879 -2.10343 -8.03628 0
M  V30 6032 O 801.617 -1.09919 -8.67766 0
M  V30 6033 C 800.211 -1.68446 -6.70876 0
M  V30 6034 O 801.009 -0.678026 -6.08333 0
M  V30 6035 C 798.873 -1.17436 -7.18567 0
M  V30 6036 N 797.83 -1.52699 -6.23988 0
M  V30 6037 C 797.892 -2.68084 -5.57824 0
M  V30 6038 N 796.847 -2.8189 -4.75643 0
M  V30 6039 C 796.113 -1.72373 -4.95155 0
M  V30 6040 C 794.807 -1.37653 -4.44996 0
M  V30 6041 O 794.074 -2.02239 -3.68445 0
M  V30 6042 N 794.377 -0.17675 -4.90782 0
M  V30 6043 C 795.126 0.645036 -5.78716 0
M  V30 6044 N 794.529 1.84214 -6.10618 0
M  V30 6045 N 796.279 0.321732 -6.30279 0
M  V30 6046 C 796.736 -0.87502 -5.86913 0
M  V30 6047 H 798.905 -0.0804732 -7.31656 0
M  V30 6048 H 800.088 -2.53998 -6.02444 0
M  V30 6049 H 801.573 -2.93095 -7.8582 0
M  V30 6050 H 799.878 -2.53065 -9.86973 0
M  V30 6051 H 799.688 -4.75072 -9.05887 0
M  V30 6052 H 798.057 -4.05244 -8.76668 0
M  V30 6053 H 793.481 0.152143 -4.60849 0
M  V30 6054 H 798.688 -3.41852 -5.69006 0
M  V30 6055 H 793.618 2.08538 -5.69521 0
M  V30 6056 H 794.994 2.4895 -6.75698 0
M  V30 6057 H 800.698 0.177619 -6.34151 0
M  V30 6058 P 802.555 -1.25109 -8.70152 0
M  V30 6059 O 803.977 -1.29744 -9.22016 0
M  V30 6060 O 802.195 -2.13714 -7.55141 0
M  V30 6061 O 802.232 0.248149 -8.21425 0
M  V30 6062 C 802.072 1.22779 -9.30434 0
M  V30 6063 C 802.612 2.56293 -8.80664 0
M  V30 6064 O 801.556 3.02979 -8.09349 0
M  V30 6065 C 803.83 2.57523 -7.89775 0
M  V30 6066 O 804.568 3.7668 -7.89438 0
M  V30 6067 C 803.161 2.20997 -6.55446 0
M  V30 6068 O 803.96 2.71895 -5.48509 0
M  V30 6069 C 801.824 2.89693 -6.67988 0
M  V30 6070 H 801.856 3.88793 -6.19859 0
M  V30 6071 H 803.039 1.12046 -6.44229 0
M  V30 6072 H 804.523 1.7746 -8.19711 0
M  V30 6073 H 802.829 3.20706 -9.67112 0
M  V30 6074 H 802.639 0.901032 -10.1892 0
M  V30 6075 H 801.009 1.33049 -9.56592 0
M  V30 6076 H 803.648 3.57847 -5.23962 0
M  V30 6077 P 805.506 3.65191 -7.99657 0
M  V30 6078 O 806.928 3.89332 -8.45794 0
M  V30 6079 O 805.146 2.28472 -7.50807 0
M  V30 6080 O 805.183 4.64972 -6.77611 0
M  V30 6081 C 805.023 6.06319 -7.16352 0
M  V30 6082 C 805.563 6.91731 -6.02299 0
M  V30 6083 O 804.507 6.92449 -5.17064 0
M  V30 6084 C 806.781 6.43627 -5.25174 0
M  V30 6085 O 807.519 7.43686 -4.60469 0
M  V30 6086 C 806.112 5.40275 -4.31916 0
M  V30 6087 O 806.911 5.25279 -3.14438 0
M  V30 6088 C 804.775 6.04847 -4.05327 0
M  V30 6089 H 804.807 6.62195 -3.11261 0
M  V30 6090 H 805.99 4.42556 -4.81383 0
M  V30 6091 H 807.474 5.92458 -5.93643 0
M  V30 6092 H 805.78 7.92655 -6.402 0
M  V30 6093 H 805.59 6.26671 -8.0846 0
M  V30 6094 H 803.96 6.29101 -7.32804 0
M  V30 6095 H 806.599 5.84315 -2.47318 0
M  V30 6096 P 808.456 7.39546 -4.75277 0
M  V30 6097 O 809.878 7.84798 -5.01039 0
M  V30 6098 O 808.096 5.9812 -5.08098 0
M  V30 6099 O 808.133 7.57503 -3.1866 0
M  V30 6100 C 807.973 8.97357 -2.74833 0
M  V30 6101 C 808.513 9.07548 -1.32709 0
M  V30 6102 O 807.457 8.62072 -0.606159 0
M  V30 6103 C 809.731 8.25383 -0.938334 0
M  V30 6104 O 810.469 8.74577 0.146954 0
M  V30 6105 C 809.062 6.8802 -0.712559 0
M  V30 6106 O 809.861 6.1189 0.194655 0
M  V30 6107 C 807.725 7.27966 -0.139777 0
M  V30 6108 H 807.757 7.25354 0.961601 0
M  V30 6109 H 808.94 6.32557 -1.65702 0
M  V30 6110 H 810.424 8.19355 -1.79097 0
M  V30 6111 H 808.73 10.1294 -1.10029 0
M  V30 6112 H 808.54 9.64276 -3.41316 0
M  V30 6113 H 806.91 9.25417 -2.76357 0
M  V30 6114 H 809.549 6.25267 1.07847 0
M  V30 6115 P 811.407 8.791 6.00516e-12 0
M  V30 6116 O 812.828 9.31196 0.027936 0
M  V30 6117 O 811.047 7.77869 -1.04071 0
M  V30 6118 O 811.084 8.09533 1.41463 0
M  V30 6119 C 810.923 9.03587 2.5397 0
M  V30 6120 C 811.464 8.35226 3.79016 0
M  V30 6121 O 810.409 7.57904 4.1503 0
M  V30 6122 C 812.682 7.45087 3.67298 0
M  V30 6123 O 813.42 7.27796 4.85194 0
M  V30 6124 C 812.014 6.17323 3.12027 0
M  V30 6125 O 812.812 5.04496 3.46627 0
M  V30 6126 C 810.676 6.19961 3.81809 0
M  V30 6127 N 809.633 5.71575 2.93223 0
M  V30 6128 C 809.802 5.77362 1.59168 0
M  V30 6129 N 808.775 5.3123 0.911893 0
M  V30 6130 C 807.89 4.91717 1.89588 0
M  V30 6131 C 806.623 4.3114 1.8076 0
M  V30 6132 N 806.024 3.99821 0.632928 0
M  V30 6133 N 806.058 4.06823 3.02898 0
M  V30 6134 C 806.66 4.35062 4.22711 0
M  V30 6135 N 807.837 4.90805 4.35707 0
M  V30 6136 C 808.412 5.16382 3.14469 0
M  V30 6137 H 810.708 5.58142 4.72986 0
M  V30 6138 H 811.891 6.21428 2.0318 0
M  V30 6139 H 813.374 7.86112 2.9231 0
M  V30 6140 H 811.68 9.11171 4.55987 0
M  V30 6141 H 811.49 9.9573 2.34194 0
M  V30 6142 H 809.86 9.2792 2.67832 0
M  V30 6143 H 806.124 4.09052 5.13359 0
M  V30 6144 H 810.702 6.16575 1.12198 0
M  V30 6145 H 805.094 3.55423 0.632085 0
M  V30 6146 H 806.498 4.20317 -0.256712 0
M  V30 6147 H 812.5 4.67628 4.28704 0
M  V30 6148 P 814.357 7.39546 4.75277 0
M  V30 6149 O 815.779 7.81777 5.05738 0
M  V30 6150 O 813.997 7.1065 3.32998 0
M  V30 6151 O 814.034 6.04542 5.56673 0
M  V30 6152 C 813.874 6.22772 7.02095 0
M  V30 6153 C 814.414 4.97725 7.70406 0
M  V30 6154 O 813.358 4.13256 7.58987 0
M  V30 6155 C 815.632 4.28231 7.11815 0
M  V30 6156 O 816.37 3.49945 8.01648 0
M  V30 6157 C 814.963 3.5063 5.96244 0
M  V30 6158 O 815.762 2.36482 5.64681 0
M  V30 6159 C 813.626 3.15122 6.56374 0
M  V30 6160 H 813.658 2.13853 6.99751 0
M  V30 6161 H 814.841 4.13501 5.06559 0
M  V30 6162 H 816.325 5.03285 6.70911 0
M  V30 6163 H 814.631 5.20877 8.75697 0
M  V30 6164 H 814.441 7.11046 7.35349 0
M  V30 6165 H 812.811 6.35815 7.26986 0
M  V30 6166 H 815.45 1.61644 6.13565 0
M  V30 6167 P 817.308 3.65191 7.99657 0
M  V30 6168 O 818.73 3.84333 8.48297 0
M  V30 6169 O 816.948 4.17805 6.64342 0
M  V30 6170 O 816.985 2.07613 7.95143 0
M  V30 6171 C 816.825 1.44328 9.27336 0
M  V30 6172 C 817.365 0.0220012 9.17097 0
M  V30 6173 O 816.31 -0.626867 8.61923 0
M  V30 6174 C 818.583 -0.24586 8.30336 0
M  V30 6175 O 819.321 -1.39011 8.63583 0
M  V30 6176 C 817.915 -0.273849 6.91158 0
M  V30 6177 O 818.713 -1.06331 6.02794 0
M  V30 6178 C 816.577 -0.897649 7.22545 0
M  V30 6179 N 815.534 -0.292839 6.41732 0
M  V30 6180 C 815.596 1.00068 6.10757 0
M  V30 6181 N 814.551 1.36468 5.35794 0
M  V30 6182 C 813.817 0.258894 5.2366 0
M  V30 6183 C 812.511 0.0670682 4.65752 0
M  V30 6184 O 811.778 0.902443 4.10497 0
M  V30 6185 N 812.081 -1.2131 4.75881 0
M  V30 6186 C 812.83 -2.24934 5.37101 0
M  V30 6187 N 812.233 -3.48783 5.33984 0
M  V30 6188 N 813.983 -2.0844 5.95684 0
M  V30 6189 C 814.44 -0.81395 5.87791 0
M  V30 6190 H 816.609 -1.9841 7.04286 0
M  V30 6191 H 817.792 0.739815 6.49601 0
M  V30 6192 H 819.277 0.598315 8.36563 0
M  V30 6193 H 817.582 -0.352479 10.1829 0
M  V30 6194 H 817.392 2.00611 10.0304 0
M  V30 6195 H 815.761 1.41843 9.55327 0
M  V30 6196 H 811.185 -1.44434 4.37895 0
M  V30 6197 H 816.392 1.67697 6.42268 0
M  V30 6198 H 811.322 -3.60543 4.87699 0
M  V30 6199 H 812.698 -4.29232 5.7819 0
M  V30 6200 H 818.402 -1.95704 6.0346 0
M  V30 6201 P 820.258 -1.25109 8.70152 0
M  V30 6202 O 821.68 -1.35274 9.21221 0
M  V30 6203 O 819.898 -0.0769065 7.84762 0
M  V30 6204 O 819.935 -2.55232 7.81161 0
M  V30 6205 C 819.775 -3.79939 8.58154 0
M  V30 6206 C 820.315 -4.94023 7.72785 0
M  V30 6207 O 819.259 -5.18726 6.91205 0
M  V30 6208 C 821.533 -4.69597 6.85231 0
M  V30 6209 O 822.271 -5.83832 6.51337 0
M  V30 6210 C 820.864 -3.96706 5.66633 0
M  V30 6211 O 821.663 -4.15414 4.49689 0
M  V30 6212 C 819.527 -4.66153 5.59313 0
M  V30 6213 H 819.559 -5.47679 4.85214 0
M  V30 6214 H 820.742 -2.89008 5.86566 0
M  V30 6215 H 822.226 -4.0121 7.36511 0
M  V30 6216 H 820.532 -5.80182 8.37584 0
M  V30 6217 H 820.342 -3.73517 9.52265 0
M  V30 6218 H 818.712 -3.97163 8.80359 0
M  V30 6219 H 821.351 -4.90969 4.01921 0
M  V30 6220 P 823.209 -5.75688 6.64379 0
M  V30 6221 O 824.631 -6.11981 7.01997 0
M  V30 6222 O 822.849 -4.30744 6.56026 0
M  V30 6223 O 822.886 -6.37042 5.19165 0
M  V30 6224 C 822.726 -7.83578 5.16515 0
M  V30 6225 C 823.266 -8.33307 3.82977 0
M  V30 6226 O 822.211 -8.10074 3.01034 0
M  V30 6227 C 824.484 -7.65514 3.2257 0
M  V30 6228 O 825.222 -8.4329 2.32297 0
M  V30 6229 C 823.816 -6.40075 2.62207 0
M  V30 6230 O 824.614 -5.92492 1.53687 0
M  V30 6231 C 822.478 -6.9454 2.18503 0
M  V30 6232 N 821.435 -5.95905 2.39948 0
M  V30 6233 C 821.497 -5.13994 3.44742 0
M  V30 6234 N 820.452 -4.30684 3.46712 0
M  V30 6235 C 819.718 -4.65583 2.41086 0
M  V30 6236 C 818.412 -4.20877 1.99581 0
M  V30 6237 O 817.679 -3.35913 2.52616 0
M  V30 6238 N 817.982 -4.83271 0.873406 0
M  V30 6239 C 818.731 -5.82006 0.185129 0
M  V30 6240 N 818.134 -6.30619 -0.95439 0
M  V30 6241 N 819.884 -6.28443 0.578524 0
M  V30 6242 C 820.341 -5.68486 1.70138 0
M  V30 6243 H 822.51 -7.23063 1.12091 0
M  V30 6244 H 823.693 -5.60165 3.3715 0
M  V30 6245 H 825.178 -7.3611 4.01946 0
M  V30 6246 H 823.483 -9.40912 3.9095 0
M  V30 6247 H 823.293 -8.29056 5.99158 0
M  V30 6248 H 821.662 -8.10073 5.25882 0
M  V30 6249 H 817.086 -4.58323 0.505262 0
M  V30 6250 H 822.293 -5.14564 4.1935 0
M  V30 6251 H 817.223 -5.93402 -1.25364 0
M  V30 6252 H 818.599 -7.0425 -1.50254 0
M  V30 6253 H 824.303 -6.30224 0.72668 0
M  V30 6254 P 826.16 -8.4349 2.47671 0
M  V30 6255 O 827.582 -8.94167 2.5964 0
M  V30 6256 O 825.8 -7.1704 3.19006 0
M  V30 6257 O 825.837 -8.16596 0.923387 0
M  V30 6258 C 825.677 -9.38437 0.108857 0
M  V30 6259 C 826.217 -9.08175 -1.28353 0
M  V30 6260 O 825.161 -8.44229 -1.84713 0
M  V30 6261 C 827.435 -8.18386 -1.42505 0
M  V30 6262 O 828.173 -8.3501 -2.60497 0
M  V30 6263 C 826.766 -6.80225 -1.25468 0
M  V30 6264 O 827.565 -5.81621 -1.91066 0
M  V30 6265 C 825.429 -7.02416 -1.9168 0
M  V30 6266 H 825.461 -6.6888 -2.96621 0
M  V30 6267 H 826.644 -6.53617 -0.192223 0
M  V30 6268 H 828.128 -8.36622 -0.589963 0
M  V30 6269 H 826.434 -10.0291 -1.79807 0
M  V30 6270 H 826.244 -10.2138 0.558219 0
M  V30 6271 H 824.614 -9.6579 0.0444202 0
M  V30 6272 H 827.253 -5.69556 -2.79637 0
M  V30 6273 P 829.11 -8.4349 -2.47671 0
M  V30 6274 O 830.532 -8.92593 -2.65 0
M  V30 6275 O 828.75 -7.7568 -1.19296 0
M  V30 6276 O 828.787 -7.36886 -3.63805 0
M  V30 6277 C 828.627 -7.95349 -4.982 0
M  V30 6278 C 829.167 -6.94612 -5.98974 0
M  V30 6279 O 828.111 -6.10347 -6.11815 0
M  V30 6280 C 830.385 -6.11426 -5.62335 0
M  V30 6281 O 831.123 -5.6162 -6.70584 0
M  V30 6282 C 829.716 -5.04409 -4.73308 0
M  V30 6283 O 830.515 -3.85992 -4.75183 0
M  V30 6284 C 828.379 -4.8728 -5.41006 0
M  V30 6285 H 828.411 -4.02333 -6.11157 0
M  V30 6286 H 829.594 -5.39466 -3.69543 0
M  V30 6287 H 831.078 -6.71916 -5.01943 0
M  V30 6288 H 829.384 -7.4649 -6.93477 0
M  V30 6289 H 829.194 -8.89416 -5.05237 0
M  V30 6290 H 827.564 -8.14876 -5.18409 0
M  V30 6291 H 830.203 -3.27957 -5.4317 0
M  V30 6292 P 832.061 -5.75688 -6.64379 0
M  V30 6293 O 833.483 -6.07627 -7.05504 0
M  V30 6294 O 831.701 -5.88047 -5.19722 0
M  V30 6295 O 831.738 -4.2322 -7.04443 0
M  V30 6296 C 831.578 -3.99743 -8.4911 0
M  V30 6297 C 832.118 -2.60516 -8.79425 0
M  V30 6298 O 831.062 -1.82684 -8.4467 0
M  V30 6299 C 833.336 -2.10343 -8.03628 0
M  V30 6300 O 834.074 -1.09919 -8.67766 0
M  V30 6301 C 832.667 -1.68446 -6.70876 0
M  V30 6302 O 833.466 -0.678137 -6.08433 0
M  V30 6303 C 831.33 -1.17436 -7.18567 0
M  V30 6304 H 831.362 -0.0804732 -7.31656 0
M  V30 6305 H 832.545 -2.54037 -6.02537 0
M  V30 6306 H 834.029 -2.93881 -7.85526 0
M  V30 6307 H 832.335 -2.53065 -9.86973 0
M  V30 6308 H 832.145 -4.75072 -9.05887 0
M  V30 6309 H 830.515 -4.05244 -8.76668 0
M  V30 6310 H 833.154 0.177647 -6.34251 0
M  V30 6311 P 835.011 -1.25109 -8.70152 0
M  V30 6312 O 836.433 -1.29744 -9.22016 0
M  V30 6313 O 834.651 -2.13714 -7.55141 0
M  V30 6314 O 834.688 0.248149 -8.21425 0
M  V30 6315 C 834.528 1.22779 -9.30434 0
M  V30 6316 C 835.068 2.56293 -8.80664 0
M  V30 6317 O 834.012 3.02979 -8.09349 0
M  V30 6318 C 836.286 2.57523 -7.89775 0
M  V30 6319 O 837.024 3.7668 -7.89438 0
M  V30 6320 C 835.617 2.20997 -6.55446 0
M  V30 6321 O 836.416 2.71895 -5.48509 0
M  V30 6322 C 834.28 2.89693 -6.67988 0
M  V30 6323 H 834.312 3.88793 -6.19859 0
M  V30 6324 H 835.495 1.12046 -6.44229 0
M  V30 6325 H 836.979 1.7746 -8.19711 0
M  V30 6326 H 835.285 3.20706 -9.67112 0
M  V30 6327 H 835.095 0.901032 -10.1892 0
M  V30 6328 H 833.465 1.33049 -9.56592 0
M  V30 6329 H 836.104 3.57847 -5.23962 0
M  V30 6330 P 837.962 3.65191 -7.99657 0
M  V30 6331 O 839.384 3.89332 -8.45794 0
M  V30 6332 O 837.602 2.28472 -7.50807 0
M  V30 6333 O 837.639 4.64972 -6.77611 0
M  V30 6334 C 837.479 6.06319 -7.16352 0
M  V30 6335 C 838.019 6.91731 -6.02299 0
M  V30 6336 O 836.963 6.92449 -5.17064 0
M  V30 6337 C 839.237 6.43627 -5.25174 0
M  V30 6338 O 839.975 7.43686 -4.60469 0
M  V30 6339 C 838.568 5.40275 -4.31916 0
M  V30 6340 O 839.367 5.25279 -3.14438 0
M  V30 6341 C 837.231 6.04847 -4.05327 0
M  V30 6342 H 837.263 6.62195 -3.11261 0
M  V30 6343 H 838.446 4.42556 -4.81383 0
M  V30 6344 H 839.93 5.92458 -5.93643 0
M  V30 6345 H 838.236 7.92655 -6.402 0
M  V30 6346 H 838.046 6.26671 -8.0846 0
M  V30 6347 H 836.416 6.29101 -7.32804 0
M  V30 6348 H 839.055 5.84315 -2.47318 0
M  V30 6349 P 840.912 7.39546 -4.75277 0
M  V30 6350 O 842.334 7.84798 -5.01039 0
M  V30 6351 O 840.552 5.9812 -5.08098 0
M  V30 6352 O 840.589 7.57503 -3.1866 0
M  V30 6353 C 840.429 8.97357 -2.74833 0
M  V30 6354 C 840.969 9.07548 -1.32709 0
M  V30 6355 O 839.913 8.62072 -0.606159 0
M  V30 6356 C 842.187 8.25383 -0.938334 0
M  V30 6357 O 842.925 8.74577 0.146954 0
M  V30 6358 C 841.518 6.8802 -0.712559 0
M  V30 6359 O 842.317 6.1189 0.194655 0
M  V30 6360 C 840.181 7.27966 -0.139777 0
M  V30 6361 H 840.213 7.25354 0.961601 0
M  V30 6362 H 841.396 6.32557 -1.65702 0
M  V30 6363 H 842.88 8.19355 -1.79097 0
M  V30 6364 H 841.186 10.1294 -1.10029 0
M  V30 6365 H 840.996 9.64276 -3.41316 0
M  V30 6366 H 839.366 9.25417 -2.76357 0
M  V30 6367 H 842.005 6.25267 1.07847 0
M  V30 6368 P 843.863 8.791 6.31533e-12 0
M  V30 6369 O 845.285 9.31096 0.027933 0
M  V30 6370 O 843.503 7.77869 -1.04071 0
M  V30 6371 O 843.54 8.09533 1.41463 0
M  V30 6372 C 843.38 9.0349 2.53943 0
M  V30 6373 C 843.92 8.35226 3.79016 0
M  V30 6374 O 842.864 7.57992 4.15078 0
M  V30 6375 C 845.138 7.45087 3.67298 0
M  V30 6376 O 845.876 7.27796 4.85194 0
M  V30 6377 C 844.469 6.17323 3.12027 0
M  V30 6378 O 845.268 5.04231 3.47188 0
M  V30 6379 C 843.132 6.19961 3.81809 0
M  V30 6380 H 843.164 5.58218 4.73051 0
M  V30 6381 H 844.347 6.21726 2.02589 0
M  V30 6382 H 845.831 7.86112 2.9231 0
M  V30 6383 H 844.137 9.11627 4.55076 0
M  V30 6384 H 843.947 9.9573 2.34194 0
M  V30 6385 H 842.317 9.2792 2.67832 0
M  V30 6386 H 844.956 4.67702 4.28772 0
M  V30 6387 P 846.814 7.39546 4.75277 0
M  V30 6388 O 848.236 7.81777 5.05738 0
M  V30 6389 O 846.454 7.1065 3.32998 0
M  V30 6390 O 846.491 6.04542 5.56673 0
M  V30 6391 C 846.331 6.22772 7.02095 0
M  V30 6392 C 846.871 4.97725 7.70406 0
M  V30 6393 O 845.815 4.13256 7.58987 0
M  V30 6394 C 848.089 4.28231 7.11815 0
M  V30 6395 O 848.827 3.49945 8.01648 0
M  V30 6396 C 847.42 3.5063 5.96244 0
M  V30 6397 O 848.219 2.36482 5.64681 0
M  V30 6398 C 846.083 3.15122 6.56374 0
M  V30 6399 H 846.115 2.13853 6.99751 0
M  V30 6400 H 847.298 4.13501 5.06559 0
M  V30 6401 H 848.782 5.03285 6.70911 0
M  V30 6402 H 847.088 5.20877 8.75697 0
M  V30 6403 H 846.898 7.11046 7.35349 0
M  V30 6404 H 845.268 6.35815 7.26986 0
M  V30 6405 H 847.907 1.61644 6.13565 0
M  V30 6406 P 849.764 3.65191 7.99657 0
M  V30 6407 O 851.186 3.8425 8.48115 0
M  V30 6408 O 849.404 4.17805 6.64342 0
M  V30 6409 O 849.441 2.07613 7.95143 0
M  V30 6410 C 849.281 1.44328 9.27336 0
M  V30 6411 C 849.821 0.0220036 9.17197 0
M  V30 6412 O 848.765 -0.626867 8.61923 0
M  V30 6413 C 851.039 -0.24586 8.30336 0
M  V30 6414 O 851.777 -1.39011 8.63583 0
M  V30 6415 C 850.37 -0.273849 6.91158 0
M  V30 6416 O 851.169 -1.06348 6.02892 0
M  V30 6417 C 849.033 -0.897649 7.22545 0
M  V30 6418 H 849.065 -1.9841 7.04286 0
M  V30 6419 H 850.248 0.739928 6.497 0
M  V30 6420 H 851.732 0.60668 8.36503 0
M  V30 6421 H 850.038 -0.352479 10.1829 0
M  V30 6422 H 849.848 2.00611 10.0304 0
M  V30 6423 H 848.218 1.41843 9.55327 0
M  V30 6424 H 850.857 -1.95734 6.03555 0
M  V30 6425 P 852.715 -1.25109 8.70152 0
M  V30 6426 O 854.136 -1.35288 9.2132 0
M  V30 6427 O 852.355 -0.0769065 7.84762 0
M  V30 6428 O 852.392 -2.55232 7.81161 0
M  V30 6429 C 852.231 -3.79979 8.58246 0
M  V30 6430 C 852.772 -4.94023 7.72785 0
M  V30 6431 O 851.717 -5.18666 6.91125 0
M  V30 6432 C 853.99 -4.69597 6.85231 0
M  V30 6433 O 854.728 -5.83832 6.51337 0
M  V30 6434 C 853.322 -3.96706 5.66633 0
M  V30 6435 O 854.12 -4.14896 4.5003 0
M  V30 6436 C 851.984 -4.66153 5.59313 0
M  V30 6437 N 850.941 -3.71582 5.24027 0
M  V30 6438 C 851.11 -2.39715 5.48833 0
M  V30 6439 N 850.083 -1.65863 5.12845 0
M  V30 6440 C 849.198 -2.57637 4.5973 0
M  V30 6441 C 847.931 -2.40278 4.01027 0
M  V30 6442 N 847.332 -1.19549 3.86744 0
M  V30 6443 N 847.366 -3.57711 3.59575 0
M  V30 6444 C 847.968 -4.80324 3.70476 0
M  V30 6445 N 849.145 -5.01121 4.23801 0
M  V30 6446 C 849.72 -3.84757 4.66372 0
M  V30 6447 H 852.016 -5.47604 4.85148 0
M  V30 6448 H 853.199 -2.8955 5.86187 0
M  V30 6449 H 854.682 -4.0121 7.36511 0
M  V30 6450 H 852.988 -5.81019 8.37003 0
M  V30 6451 H 852.798 -3.73517 9.52265 0
M  V30 6452 H 851.168 -3.97163 8.80359 0
M  V30 6453 H 847.432 -5.66348 3.3183 0
M  V30 6454 H 852.01 -1.98804 5.94332 0
M  V30 6455 H 846.402 -1.13147 3.4281 0
M  V30 6456 H 847.806 -0.344074 4.19692 0
M  V30 6457 H 853.808 -4.90891 4.01857 0
M  V30 6458 P 855.665 -5.75688 6.64379 0
M  V30 6459 O 857.087 -6.11981 7.01997 0
M  V30 6460 O 855.305 -4.30744 6.56026 0
M  V30 6461 O 855.342 -6.37042 5.19165 0
M  V30 6462 C 855.182 -7.83578 5.16515 0
M  V30 6463 C 855.722 -8.33307 3.82977 0
M  V30 6464 O 854.667 -8.10074 3.01034 0
M  V30 6465 C 856.94 -7.65514 3.2257 0
M  V30 6466 O 857.678 -8.4329 2.32297 0
M  V30 6467 C 856.272 -6.40075 2.62207 0
M  V30 6468 O 857.07 -5.92492 1.53687 0
M  V30 6469 C 854.934 -6.9454 2.18503 0
M  V30 6470 N 853.891 -5.95905 2.39948 0
M  V30 6471 C 853.953 -5.13994 3.44742 0
M  V30 6472 N 852.908 -4.30684 3.46712 0
M  V30 6473 C 852.174 -4.65583 2.41086 0
M  V30 6474 C 850.868 -4.20877 1.99581 0
M  V30 6475 O 850.135 -3.35913 2.52616 0
M  V30 6476 N 850.438 -4.83271 0.873406 0
M  V30 6477 C 851.187 -5.82006 0.185129 0
M  V30 6478 N 850.59 -6.30619 -0.95439 0
M  V30 6479 N 852.34 -6.28443 0.578524 0
M  V30 6480 C 852.797 -5.68486 1.70138 0
M  V30 6481 H 854.966 -7.23063 1.12091 0
M  V30 6482 H 856.149 -5.60165 3.3715 0
M  V30 6483 H 857.634 -7.3611 4.01946 0
M  V30 6484 H 855.939 -9.40912 3.9095 0
M  V30 6485 H 855.749 -8.29056 5.99158 0
M  V30 6486 H 854.118 -8.10073 5.25882 0
M  V30 6487 H 849.542 -4.58323 0.505262 0
M  V30 6488 H 854.749 -5.14564 4.1935 0
M  V30 6489 H 849.679 -5.93402 -1.25364 0
M  V30 6490 H 851.055 -7.0425 -1.50254 0
M  V30 6491 H 856.759 -6.30224 0.72668 0
M  V30 6492 P 858.616 -8.4349 2.47671 0
M  V30 6493 O 860.038 -8.94167 2.5964 0
M  V30 6494 O 858.256 -7.1704 3.19006 0
M  V30 6495 O 858.293 -8.16596 0.923387 0
M  V30 6496 C 858.133 -9.38437 0.108857 0
M  V30 6497 C 858.673 -9.08175 -1.28353 0
M  V30 6498 O 857.617 -8.44229 -1.84713 0
M  V30 6499 C 859.891 -8.18386 -1.42505 0
M  V30 6500 O 860.629 -8.3501 -2.60497 0
M  V30 6501 C 859.222 -6.80225 -1.25468 0
M  V30 6502 O 860.021 -5.81621 -1.91066 0
M  V30 6503 C 857.885 -7.02416 -1.9168 0
M  V30 6504 H 857.917 -6.6888 -2.96621 0
M  V30 6505 H 859.1 -6.53617 -0.192223 0
M  V30 6506 H 860.584 -8.36622 -0.589963 0
M  V30 6507 H 858.89 -10.0291 -1.79807 0
M  V30 6508 H 858.7 -10.2138 0.558219 0
M  V30 6509 H 857.07 -9.6579 0.0444202 0
M  V30 6510 H 859.709 -5.69556 -2.79637 0
M  V30 6511 P 861.566 -8.4349 -2.47671 0
M  V30 6512 O 862.988 -8.92593 -2.65 0
M  V30 6513 O 861.206 -7.7568 -1.19296 0
M  V30 6514 O 861.243 -7.36886 -3.63805 0
M  V30 6515 C 861.083 -7.95349 -4.982 0
M  V30 6516 C 861.623 -6.94612 -5.98974 0
M  V30 6517 O 860.567 -6.10347 -6.11815 0
M  V30 6518 C 862.841 -6.11426 -5.62335 0
M  V30 6519 O 863.579 -5.6162 -6.70584 0
M  V30 6520 C 862.172 -5.04409 -4.73308 0
M  V30 6521 O 862.971 -3.85992 -4.75183 0
M  V30 6522 C 860.835 -4.8728 -5.41006 0
M  V30 6523 H 860.867 -4.02333 -6.11157 0
M  V30 6524 H 862.05 -5.39466 -3.69543 0
M  V30 6525 H 863.534 -6.71916 -5.01943 0
M  V30 6526 H 861.84 -7.4649 -6.93477 0
M  V30 6527 H 861.65 -8.89416 -5.05237 0
M  V30 6528 H 860.02 -8.14876 -5.18409 0
M  V30 6529 H 862.659 -3.27957 -5.4317 0
M  V30 6530 P 864.517 -5.75688 -6.64379 0
M  V30 6531 O 865.938 -6.07692 -7.0558 0
M  V30 6532 O 864.157 -5.88047 -5.19722 0
M  V30 6533 O 864.194 -4.2322 -7.04443 0
M  V30 6534 C 864.033 -3.99785 -8.49201 0
M  V30 6535 C 864.574 -2.60516 -8.79425 0
M  V30 6536 O 863.519 -1.82663 -8.44573 0
M  V30 6537 C 865.792 -2.10343 -8.03628 0
M  V30 6538 O 866.53 -1.09919 -8.67766 0
M  V30 6539 C 865.124 -1.68446 -6.70876 0
M  V30 6540 O 865.922 -0.684109 -6.08265 0
M  V30 6541 C 863.786 -1.17436 -7.18567 0
M  V30 6542 N 862.743 -1.52699 -6.23988 0
M  V30 6543 C 862.912 -2.578 -5.40574 0
M  V30 6544 N 861.885 -2.78966 -4.61193 0
M  V30 6545 C 861 -1.78725 -4.95769 0
M  V30 6546 C 859.733 -1.45727 -4.44207 0
M  V30 6547 N 859.134 -2.13994 -3.43613 0
M  V30 6548 N 859.168 -0.374977 -5.05812 0
M  V30 6549 C 859.77 0.345585 -6.05615 0
M  V30 6550 N 860.947 0.0787651 -6.56253 0
M  V30 6551 C 861.522 -1.00499 -5.96189 0
M  V30 6552 H 863.818 -0.0804622 -7.31556 0
M  V30 6553 H 865.001 -2.53396 -6.02698 0
M  V30 6554 H 866.484 -2.93881 -7.85526 0
M  V30 6555 H 864.79 -2.52078 -9.87225 0
M  V30 6556 H 864.6 -4.75072 -9.05887 0
M  V30 6557 H 862.97 -4.05244 -8.76668 0
M  V30 6558 H 859.234 1.20098 -6.4532 0
M  V30 6559 H 863.812 -3.18977 -5.3945 0
M  V30 6560 H 858.204 -1.84983 -3.10004 0
M  V30 6561 H 859.608 -2.9465 -3.00843 0
M  V30 6562 H 865.61 0.177619 -6.34151 0
M  V30 6563 P 867.468 -1.25109 -8.70152 0
M  V30 6564 O 868.89 -1.29744 -9.22016 0
M  V30 6565 O 867.108 -2.13714 -7.55141 0
M  V30 6566 O 867.145 0.248149 -8.21425 0
M  V30 6567 C 866.985 1.22779 -9.30434 0
M  V30 6568 C 867.525 2.56293 -8.80664 0
M  V30 6569 O 866.469 3.02979 -8.09349 0
M  V30 6570 C 868.743 2.57523 -7.89775 0
M  V30 6571 O 869.481 3.7668 -7.89438 0
M  V30 6572 C 868.074 2.20997 -6.55446 0
M  V30 6573 O 868.873 2.71895 -5.48509 0
M  V30 6574 C 866.737 2.89693 -6.67988 0
M  V30 6575 H 866.769 3.88793 -6.19859 0
M  V30 6576 H 867.952 1.12046 -6.44229 0
M  V30 6577 H 869.436 1.7746 -8.19711 0
M  V30 6578 H 867.742 3.20706 -9.67112 0
M  V30 6579 H 867.552 0.901032 -10.1892 0
M  V30 6580 H 865.922 1.33049 -9.56592 0
M  V30 6581 H 868.561 3.57847 -5.23962 0
M  V30 6582 P 870.418 3.65191 -7.99657 0
M  V30 6583 O 871.84 3.89332 -8.45794 0
M  V30 6584 O 870.058 2.28472 -7.50807 0
M  V30 6585 O 870.095 4.64972 -6.77611 0
M  V30 6586 C 869.935 6.06319 -7.16352 0
M  V30 6587 C 870.475 6.91731 -6.02299 0
M  V30 6588 O 869.419 6.92449 -5.17064 0
M  V30 6589 C 871.693 6.43627 -5.25174 0
M  V30 6590 O 872.431 7.43686 -4.60469 0
M  V30 6591 C 871.024 5.40275 -4.31916 0
M  V30 6592 O 871.823 5.25279 -3.14438 0
M  V30 6593 C 869.687 6.04847 -4.05327 0
M  V30 6594 H 869.719 6.62195 -3.11261 0
M  V30 6595 H 870.902 4.42556 -4.81383 0
M  V30 6596 H 872.386 5.92458 -5.93643 0
M  V30 6597 H 870.692 7.92655 -6.402 0
M  V30 6598 H 870.502 6.26671 -8.0846 0
M  V30 6599 H 868.872 6.29101 -7.32804 0
M  V30 6600 H 871.511 5.84315 -2.47318 0
M  V30 6601 P 873.369 7.39546 -4.75277 0
M  V30 6602 O 874.79 7.84882 -5.01092 0
M  V30 6603 O 873.009 5.9812 -5.08098 0
M  V30 6604 O 873.046 7.57503 -3.1866 0
M  V30 6605 C 872.885 8.97452 -2.74862 0
M  V30 6606 C 873.426 9.07548 -1.32709 0
M  V30 6607 O 872.371 8.61972 -0.606089 0
M  V30 6608 C 874.644 8.25383 -0.938334 0
M  V30 6609 O 875.382 8.74577 0.146954 0
M  V30 6610 C 873.976 6.8802 -0.712559 0
M  V30 6611 O 874.774 6.1181 0.188505 0
M  V30 6612 C 872.638 7.27966 -0.139777 0
M  V30 6613 N 871.595 6.39368 -0.623421 0
M  V30 6614 C 871.764 5.71761 -1.78245 0
M  V30 6615 N 870.737 4.962 -2.10491 0
M  V30 6616 C 869.852 5.16158 -1.0635 0
M  V30 6617 C 868.585 4.60425 -0.810266 0
M  V30 6618 N 867.986 3.7057 -1.62914 0
M  V30 6619 N 868.02 5.06 0.348685 0
M  V30 6620 C 868.622 5.94532 1.20395 0
M  V30 6621 N 869.799 6.48452 1.01191 0
M  V30 6622 C 870.374 6.04423 -0.146291 0
M  V30 6623 H 872.67 7.25255 0.961469 0
M  V30 6624 H 873.853 6.32625 -1.65044 0
M  V30 6625 H 875.336 8.19355 -1.79097 0
M  V30 6626 H 873.642 10.1305 -1.09016 0
M  V30 6627 H 873.452 9.64276 -3.41316 0
M  V30 6628 H 871.822 9.25417 -2.76357 0
M  V30 6629 H 868.086 6.21659 2.10714 0
M  V30 6630 H 872.664 5.79354 -2.38959 0
M  V30 6631 H 867.056 3.33174 -1.38982 0
M  V30 6632 H 868.46 3.39714 -2.48836 0
M  V30 6633 H 874.462 6.25169 1.0783 0
M  V30 6634 P 876.319 8.791 6.62549e-12 0
M  V30 6635 O 877.741 9.31096 0.027933 0
M  V30 6636 O 875.959 7.77869 -1.04071 0
M  V30 6637 O 875.996 8.09533 1.41463 0
M  V30 6638 C 875.836 9.0349 2.53943 0
M  V30 6639 C 876.376 8.35226 3.79016 0
M  V30 6640 O 875.32 7.57992 4.15078 0
M  V30 6641 C 877.594 7.45087 3.67298 0
M  V30 6642 O 878.332 7.27796 4.85194 0
M  V30 6643 C 876.925 6.17323 3.12027 0
M  V30 6644 O 877.724 5.04231 3.47188 0
M  V30 6645 C 875.588 6.19961 3.81809 0
M  V30 6646 H 875.62 5.58218 4.73051 0
M  V30 6647 H 876.803 6.21726 2.02589 0
M  V30 6648 H 878.287 7.86112 2.9231 0
M  V30 6649 H 876.593 9.11627 4.55076 0
M  V30 6650 H 876.403 9.9573 2.34194 0
M  V30 6651 H 874.773 9.2792 2.67832 0
M  V30 6652 H 877.412 4.67702 4.28772 0
M  V30 6653 P 879.27 7.39546 4.75277 0
M  V30 6654 O 880.692 7.81777 5.05738 0
M  V30 6655 O 878.91 7.1065 3.32998 0
M  V30 6656 O 878.947 6.04542 5.56673 0
M  V30 6657 C 878.787 6.22772 7.02095 0
M  V30 6658 C 879.327 4.97725 7.70406 0
M  V30 6659 O 878.271 4.13256 7.58987 0
M  V30 6660 C 880.545 4.28231 7.11815 0
M  V30 6661 O 881.283 3.49945 8.01648 0
M  V30 6662 C 879.876 3.5063 5.96244 0
M  V30 6663 O 880.675 2.36482 5.64681 0
M  V30 6664 C 878.539 3.15122 6.56374 0
M  V30 6665 H 878.571 2.13853 6.99751 0
M  V30 6666 H 879.754 4.13501 5.06559 0
M  V30 6667 H 881.238 5.03285 6.70911 0
M  V30 6668 H 879.544 5.20877 8.75697 0
M  V30 6669 H 879.354 7.11046 7.35349 0
M  V30 6670 H 877.724 6.35815 7.26986 0
M  V30 6671 H 880.363 1.61644 6.13565 0
M  V30 6672 P 882.22 3.65191 7.99657 0
M  V30 6673 O 883.642 3.8425 8.48115 0
M  V30 6674 O 881.86 4.17805 6.64342 0
M  V30 6675 O 881.897 2.07613 7.95143 0
M  V30 6676 C 881.737 1.44328 9.27336 0
M  V30 6677 C 882.277 0.0220036 9.17197 0
M  V30 6678 O 881.221 -0.626867 8.61923 0
M  V30 6679 C 883.495 -0.24586 8.30336 0
M  V30 6680 O 884.233 -1.39011 8.63583 0
M  V30 6681 C 882.826 -0.273849 6.91158 0
M  V30 6682 O 883.625 -1.06348 6.02892 0
M  V30 6683 C 881.489 -0.897649 7.22545 0
M  V30 6684 H 881.521 -1.9841 7.04286 0
M  V30 6685 H 882.704 0.739928 6.497 0
M  V30 6686 H 884.188 0.60668 8.36503 0
M  V30 6687 H 882.494 -0.352479 10.1829 0
M  V30 6688 H 882.304 2.00611 10.0304 0
M  V30 6689 H 880.674 1.41843 9.55327 0
M  V30 6690 H 883.313 -1.95734 6.03555 0
M  V30 6691 P 885.171 -1.25109 8.70152 0
M  V30 6692 O 886.593 -1.35274 9.21221 0
M  V30 6693 O 884.811 -0.0769065 7.84762 0
M  V30 6694 O 884.848 -2.55232 7.81161 0
M  V30 6695 C 884.688 -3.79939 8.58154 0
M  V30 6696 C 885.228 -4.94023 7.72785 0
M  V30 6697 O 884.172 -5.18726 6.91205 0
M  V30 6698 C 886.446 -4.69597 6.85231 0
M  V30 6699 O 887.184 -5.83832 6.51337 0
M  V30 6700 C 885.777 -3.96706 5.66633 0
M  V30 6701 O 886.576 -4.15414 4.49689 0
M  V30 6702 C 884.44 -4.66153 5.59313 0
M  V30 6703 H 884.472 -5.47679 4.85214 0
M  V30 6704 H 885.655 -2.89008 5.86566 0
M  V30 6705 H 887.139 -4.0121 7.36511 0
M  V30 6706 H 885.445 -5.80182 8.37584 0
M  V30 6707 H 885.255 -3.73517 9.52265 0
M  V30 6708 H 883.625 -3.97163 8.80359 0
M  V30 6709 H 886.264 -4.90969 4.01921 0
M  V30 6710 P 888.122 -5.75688 6.64379 0
M  V30 6711 O 889.544 -6.11849 7.01846 0
M  V30 6712 O 887.762 -4.30744 6.56026 0
M  V30 6713 O 887.799 -6.37042 5.19165 0
M  V30 6714 C 887.639 -7.83578 5.16515 0
M  V30 6715 C 888.179 -8.33398 3.83019 0
M  V30 6716 O 887.123 -8.10074 3.01034 0
M  V30 6717 C 889.397 -7.65514 3.2257 0
M  V30 6718 O 890.135 -8.4329 2.32297 0
M  V30 6719 C 888.728 -6.40075 2.62207 0
M  V30 6720 O 889.527 -5.92589 1.53712 0
M  V30 6721 C 887.391 -6.9454 2.18503 0
M  V30 6722 H 887.423 -7.23063 1.12091 0
M  V30 6723 H 888.606 -5.6025 3.37201 0
M  V30 6724 H 890.09 -7.35707 4.02681 0
M  V30 6725 H 888.396 -9.40912 3.9095 0
M  V30 6726 H 888.206 -8.29056 5.99158 0
M  V30 6727 H 886.576 -8.10073 5.25882 0
M  V30 6728 H 889.215 -6.30324 0.726794 0
M  V30 6729 P 891.072 -8.4349 2.47671 0
M  V30 6730 O 892.494 -8.94167 2.5964 0
M  V30 6731 O 890.712 -7.1704 3.19006 0
M  V30 6732 O 890.749 -8.16596 0.923387 0
M  V30 6733 C 890.589 -9.38437 0.108857 0
M  V30 6734 C 891.129 -9.08175 -1.28353 0
M  V30 6735 O 890.073 -8.44229 -1.84713 0
M  V30 6736 C 892.347 -8.18386 -1.42505 0
M  V30 6737 O 893.085 -8.3501 -2.60497 0
M  V30 6738 C 891.678 -6.80225 -1.25468 0
M  V30 6739 O 892.477 -5.81621 -1.91066 0
M  V30 6740 C 890.341 -7.02416 -1.9168 0
M  V30 6741 H 890.373 -6.6888 -2.96621 0
M  V30 6742 H 891.556 -6.53617 -0.192223 0
M  V30 6743 H 893.04 -8.36622 -0.589963 0
M  V30 6744 H 891.346 -10.0291 -1.79807 0
M  V30 6745 H 891.156 -10.2138 0.558219 0
M  V30 6746 H 889.526 -9.6579 0.0444202 0
M  V30 6747 H 892.165 -5.69556 -2.79637 0
M  V30 6748 P 894.023 -8.4349 -2.47671 0
M  V30 6749 O 895.444 -8.92689 -2.65029 0
M  V30 6750 O 893.663 -7.7568 -1.19296 0
M  V30 6751 O 893.7 -7.36886 -3.63805 0
M  V30 6752 C 893.539 -7.95433 -4.98253 0
M  V30 6753 C 894.08 -6.94612 -5.98974 0
M  V30 6754 O 893.025 -6.10277 -6.11744 0
M  V30 6755 C 895.298 -6.11426 -5.62335 0
M  V30 6756 O 896.036 -5.6162 -6.70584 0
M  V30 6757 C 894.63 -5.04409 -4.73308 0
M  V30 6758 O 895.428 -3.86404 -4.74719 0
M  V30 6759 C 893.292 -4.8728 -5.41006 0
M  V30 6760 N 892.249 -4.65812 -4.42377 0
M  V30 6761 C 892.418 -5.09132 -3.15382 0
M  V30 6762 N 891.391 -4.84021 -2.3716 0
M  V30 6763 C 890.506 -4.18386 -3.20441 0
M  V30 6764 C 889.239 -3.6275 -2.94905 0
M  V30 6765 N 888.674 -3.05008 -4.05243 0
M  V30 6766 C 889.276 -2.98348 -5.28159 0
M  V30 6767 N 890.453 -3.48171 -5.56333 0
M  V30 6768 C 891.028 -4.06869 -4.47212 0
M  V30 6769 H 894.507 -5.39013 -3.70026 0
M  V30 6770 H 895.99 -6.71916 -5.01943 0
M  V30 6771 H 894.296 -7.45796 -6.94223 0
M  V30 6772 H 894.106 -8.89416 -5.05237 0
M  V30 6773 H 892.476 -8.14876 -5.18409 0
M  V30 6774 H 893.318 -5.59989 -2.81362 0
M  V30 6775 H 895.116 -3.27906 -5.43085 0
M  V30 6776 P 896.973 -5.75688 -6.64379 0
M  V30 6777 O 898.394 -6.07692 -7.0558 0
M  V30 6778 O 896.613 -5.88047 -5.19722 0
M  V30 6779 O 896.65 -4.2322 -7.04443 0
M  V30 6780 C 896.489 -3.99785 -8.49201 0
M  V30 6781 C 897.03 -2.60516 -8.79425 0
M  V30 6782 O 895.975 -1.82663 -8.44573 0
M  V30 6783 C 898.248 -2.10343 -8.03628 0
M  V30 6784 O 898.986 -1.09919 -8.67766 0
M  V30 6785 C 897.58 -1.68446 -6.70876 0
M  V30 6786 O 898.378 -0.684109 -6.08265 0
M  V30 6787 C 896.242 -1.17436 -7.18567 0
M  V30 6788 N 895.199 -1.52699 -6.23988 0
M  V30 6789 C 895.368 -2.578 -5.40574 0
M  V30 6790 N 894.341 -2.78966 -4.61193 0
M  V30 6791 C 893.456 -1.78725 -4.95769 0
M  V30 6792 C 892.189 -1.45727 -4.44207 0
M  V30 6793 N 891.624 -0.374977 -5.05812 0
M  V30 6794 C 892.226 0.345585 -6.05615 0
M  V30 6795 N 893.403 0.0787651 -6.56253 0
M  V30 6796 C 893.978 -1.00499 -5.96189 0
M  V30 6797 H 897.457 -2.53396 -6.02698 0
M  V30 6798 H 898.94 -2.93881 -7.85526 0
M  V30 6799 H 897.246 -2.52078 -9.87225 0
M  V30 6800 H 897.056 -4.75072 -9.05887 0
M  V30 6801 H 895.426 -4.05244 -8.76668 0
M  V30 6802 H 896.268 -3.18977 -5.3945 0
M  V30 6803 H 898.066 0.177619 -6.34151 0
M  V30 6804 P 899.924 -1.25109 -8.70152 0
M  V30 6805 O 901.346 -1.29744 -9.22016 0
M  V30 6806 O 899.564 -2.13714 -7.55141 0
M  V30 6807 O 899.601 0.248149 -8.21425 0
M  V30 6808 C 899.441 1.22779 -9.30434 0
M  V30 6809 C 899.981 2.56293 -8.80664 0
M  V30 6810 O 898.925 3.02979 -8.09349 0
M  V30 6811 C 901.199 2.57523 -7.89775 0
M  V30 6812 O 901.937 3.7668 -7.89438 0
M  V30 6813 C 900.53 2.20997 -6.55446 0
M  V30 6814 O 901.329 2.71895 -5.48509 0
M  V30 6815 C 899.193 2.89693 -6.67988 0
M  V30 6816 H 899.225 3.88793 -6.19859 0
M  V30 6817 H 900.408 1.12046 -6.44229 0
M  V30 6818 H 901.892 1.7746 -8.19711 0
M  V30 6819 H 900.198 3.20706 -9.67112 0
M  V30 6820 H 900.008 0.901032 -10.1892 0
M  V30 6821 H 898.378 1.33049 -9.56592 0
M  V30 6822 H 901.017 3.57847 -5.23962 0
M  V30 6823 P 902.874 3.65191 -7.99657 0
M  V30 6824 O 904.296 3.89332 -8.45794 0
M  V30 6825 O 902.514 2.28472 -7.50807 0
M  V30 6826 O 902.551 4.64972 -6.77611 0
M  V30 6827 C 902.391 6.06319 -7.16352 0
M  V30 6828 C 902.931 6.91731 -6.02299 0
M  V30 6829 O 901.875 6.92449 -5.17064 0
M  V30 6830 C 904.149 6.43627 -5.25174 0
M  V30 6831 O 904.887 7.43686 -4.60469 0
M  V30 6832 C 903.48 5.40275 -4.31916 0
M  V30 6833 O 904.279 5.25279 -3.14438 0
M  V30 6834 C 902.143 6.04847 -4.05327 0
M  V30 6835 H 902.175 6.62195 -3.11261 0
M  V30 6836 H 903.358 4.42556 -4.81383 0
M  V30 6837 H 904.842 5.92458 -5.93643 0
M  V30 6838 H 903.148 7.92655 -6.402 0
M  V30 6839 H 902.958 6.26671 -8.0846 0
M  V30 6840 H 901.328 6.29101 -7.32804 0
M  V30 6841 H 903.967 5.84315 -2.47318 0
M  V30 6842 P 905.825 7.39546 -4.75277 0
M  V30 6843 O 907.247 7.84798 -5.01039 0
M  V30 6844 O 905.465 5.9812 -5.08098 0
M  V30 6845 O 905.502 7.57503 -3.1866 0
M  V30 6846 C 905.342 8.97357 -2.74833 0
M  V30 6847 C 905.882 9.07548 -1.32709 0
M  V30 6848 O 904.826 8.62072 -0.606159 0
M  V30 6849 C 907.1 8.25383 -0.938334 0
M  V30 6850 O 907.838 8.74577 0.146954 0
M  V30 6851 C 906.431 6.8802 -0.712559 0
M  V30 6852 O 907.23 6.1189 0.194655 0
M  V30 6853 C 905.094 7.27966 -0.139777 0
M  V30 6854 H 905.126 7.25354 0.961601 0
M  V30 6855 H 906.309 6.32557 -1.65702 0
M  V30 6856 H 907.793 8.19355 -1.79097 0
M  V30 6857 H 906.099 10.1294 -1.10029 0
M  V30 6858 H 905.909 9.64276 -3.41316 0
M  V30 6859 H 904.279 9.25417 -2.76357 0
M  V30 6860 H 906.918 6.25267 1.07847 0
M  V30 6861 P 908.776 8.791 6.93566e-12 0
M  V30 6862 O 910.198 9.31096 0.027933 0
M  V30 6863 O 908.416 7.77869 -1.04071 0
M  V30 6864 O 908.453 8.09533 1.41463 0
M  V30 6865 C 908.293 9.0349 2.53943 0
M  V30 6866 C 908.833 8.35226 3.79016 0
M  V30 6867 O 907.777 7.57992 4.15078 0
M  V30 6868 C 910.051 7.45087 3.67298 0
M  V30 6869 O 910.789 7.27796 4.85194 0
M  V30 6870 C 909.382 6.17323 3.12027 0
M  V30 6871 O 910.181 5.04231 3.47188 0
M  V30 6872 C 908.045 6.19961 3.81809 0
M  V30 6873 H 908.077 5.58218 4.73051 0
M  V30 6874 H 909.26 6.21726 2.02589 0
M  V30 6875 H 910.744 7.86112 2.9231 0
M  V30 6876 H 909.05 9.11627 4.55076 0
M  V30 6877 H 908.86 9.9573 2.34194 0
M  V30 6878 H 907.23 9.2792 2.67832 0
M  V30 6879 H 909.869 4.67702 4.28772 0
M  V30 6880 P 911.726 7.39546 4.75277 0
M  V30 6881 O 913.148 7.81777 5.05738 0
M  V30 6882 O 911.366 7.1065 3.32998 0
M  V30 6883 O 911.403 6.04542 5.56673 0
M  V30 6884 C 911.243 6.22772 7.02095 0
M  V30 6885 C 911.783 4.97725 7.70406 0
M  V30 6886 O 910.727 4.13256 7.58987 0
M  V30 6887 C 913.001 4.28231 7.11815 0
M  V30 6888 O 913.739 3.49945 8.01648 0
M  V30 6889 C 912.332 3.5063 5.96244 0
M  V30 6890 O 913.131 2.36482 5.64681 0
M  V30 6891 C 910.995 3.15122 6.56374 0
M  V30 6892 H 911.027 2.13853 6.99751 0
M  V30 6893 H 912.21 4.13501 5.06559 0
M  V30 6894 H 913.694 5.03285 6.70911 0
M  V30 6895 H 912 5.20877 8.75697 0
M  V30 6896 H 911.81 7.11046 7.35349 0
M  V30 6897 H 910.18 6.35815 7.26986 0
M  V30 6898 H 912.819 1.61644 6.13565 0
M  V30 6899 P 914.677 3.65191 7.99657 0
M  V30 6900 O 916.099 3.84333 8.48297 0
M  V30 6901 O 914.317 4.17805 6.64342 0
M  V30 6902 O 914.354 2.07613 7.95143 0
M  V30 6903 C 914.194 1.44328 9.27336 0
M  V30 6904 C 914.734 0.0220012 9.17097 0
M  V30 6905 O 913.679 -0.626867 8.61923 0
M  V30 6906 C 915.952 -0.24586 8.30336 0
M  V30 6907 O 916.69 -1.39011 8.63583 0
M  V30 6908 C 915.284 -0.273849 6.91158 0
M  V30 6909 O 916.082 -1.06331 6.02794 0
M  V30 6910 C 913.946 -0.897649 7.22545 0
M  V30 6911 N 912.903 -0.292839 6.41732 0
M  V30 6912 C 912.965 1.00068 6.10757 0
M  V30 6913 N 911.92 1.36468 5.35794 0
M  V30 6914 C 911.186 0.258894 5.2366 0
M  V30 6915 C 909.88 0.0670682 4.65752 0
M  V30 6916 O 909.147 0.902443 4.10497 0
M  V30 6917 N 909.45 -1.2131 4.75881 0
M  V30 6918 C 910.199 -2.24934 5.37101 0
M  V30 6919 N 909.602 -3.48783 5.33984 0
M  V30 6920 N 911.352 -2.0844 5.95684 0
M  V30 6921 C 911.809 -0.81395 5.87791 0
M  V30 6922 H 913.978 -1.9841 7.04286 0
M  V30 6923 H 915.161 0.739815 6.49601 0
M  V30 6924 H 916.646 0.598315 8.36563 0
M  V30 6925 H 914.951 -0.352479 10.1829 0
M  V30 6926 H 914.761 2.00611 10.0304 0
M  V30 6927 H 913.13 1.41843 9.55327 0
M  V30 6928 H 908.554 -1.44434 4.37895 0
M  V30 6929 H 913.761 1.67697 6.42268 0
M  V30 6930 H 908.691 -3.60543 4.87699 0
M  V30 6931 H 910.067 -4.29232 5.7819 0
M  V30 6932 H 915.771 -1.95704 6.0346 0
M  V30 6933 P 917.627 -1.25109 8.70152 0
M  V30 6934 O 919.049 -1.35274 9.21221 0
M  V30 6935 O 917.267 -0.0769065 7.84762 0
M  V30 6936 O 917.304 -2.55232 7.81161 0
M  V30 6937 C 917.144 -3.79939 8.58154 0
M  V30 6938 C 917.684 -4.94023 7.72785 0
M  V30 6939 O 916.628 -5.18726 6.91205 0
M  V30 6940 C 918.902 -4.69597 6.85231 0
M  V30 6941 O 919.64 -5.83832 6.51337 0
M  V30 6942 C 918.233 -3.96706 5.66633 0
M  V30 6943 O 919.032 -4.15414 4.49689 0
M  V30 6944 C 916.896 -4.66153 5.59313 0
M  V30 6945 H 916.928 -5.47679 4.85214 0
M  V30 6946 H 918.111 -2.89008 5.86566 0
M  V30 6947 H 919.595 -4.0121 7.36511 0
M  V30 6948 H 917.901 -5.80182 8.37584 0
M  V30 6949 H 917.711 -3.73517 9.52265 0
M  V30 6950 H 916.081 -3.97163 8.80359 0
M  V30 6951 H 918.72 -4.90969 4.01921 0
M  V30 6952 P 920.578 -5.75688 6.64379 0
M  V30 6953 O 921.999 -6.11915 7.01921 0
M  V30 6954 O 920.218 -4.30744 6.56026 0
M  V30 6955 O 920.255 -6.37042 5.19165 0
M  V30 6956 C 920.094 -7.83662 5.1657 0
M  V30 6957 C 920.635 -8.33398 3.83019 0
M  V30 6958 O 919.58 -8.0998 3.00999 0
M  V30 6959 C 921.853 -7.65514 3.2257 0
M  V30 6960 O 922.591 -8.4329 2.32297 0
M  V30 6961 C 921.185 -6.40075 2.62207 0
M  V30 6962 O 921.983 -5.92338 1.5428 0
M  V30 6963 C 919.847 -6.9454 2.18503 0
M  V30 6964 N 918.804 -5.95905 2.39948 0
M  V30 6965 C 918.973 -4.98383 3.32108 0
M  V30 6966 N 917.946 -4.16798 3.41761 0
M  V30 6967 C 917.061 -4.65287 2.47461 0
M  V30 6968 C 915.794 -4.18946 2.07461 0
M  V30 6969 N 915.229 -4.95327 1.09101 0
M  V30 6970 C 915.831 -6.04369 0.519812 0
M  V30 6971 N 917.008 -6.50694 0.855982 0
M  V30 6972 C 917.583 -5.75818 1.84322 0
M  V30 6973 H 921.062 -5.60502 3.36589 0
M  V30 6974 H 922.545 -7.35707 4.02681 0
M  V30 6975 H 920.851 -9.41302 3.90009 0
M  V30 6976 H 920.661 -8.29056 5.99158 0
M  V30 6977 H 919.031 -8.10073 5.25882 0
M  V30 6978 H 919.873 -4.88564 3.92502 0
M  V30 6979 H 921.671 -6.30224 0.72668 0
M  V30 6980 P 923.528 -8.4349 2.47671 0
M  V30 6981 O 924.95 -8.94167 2.5964 0
M  V30 6982 O 923.168 -7.1704 3.19006 0
M  V30 6983 O 923.205 -8.16596 0.923387 0
M  V30 6984 C 923.045 -9.38437 0.108857 0
M  V30 6985 C 923.585 -9.08175 -1.28353 0
M  V30 6986 O 922.529 -8.44229 -1.84713 0
M  V30 6987 C 924.803 -8.18386 -1.42505 0
M  V30 6988 O 925.541 -8.3501 -2.60497 0
M  V30 6989 C 924.134 -6.80225 -1.25468 0
M  V30 6990 O 924.933 -5.81621 -1.91066 0
M  V30 6991 C 922.797 -7.02416 -1.9168 0
M  V30 6992 H 922.829 -6.6888 -2.96621 0
M  V30 6993 H 924.012 -6.53617 -0.192223 0
M  V30 6994 H 925.496 -8.36622 -0.589963 0
M  V30 6995 H 923.802 -10.0291 -1.79807 0
M  V30 6996 H 923.612 -10.2138 0.558219 0
M  V30 6997 H 921.982 -9.6579 0.0444202 0
M  V30 6998 H 924.621 -5.69556 -2.79637 0
M  V30 6999 P 926.479 -8.4349 -2.47671 0
M  V30 7000 O 927.901 -8.92593 -2.65 0
M  V30 7001 O 926.119 -7.7568 -1.19296 0
M  V30 7002 O 926.156 -7.36886 -3.63805 0
M  V30 7003 C 925.996 -7.95349 -4.982 0
M  V30 7004 C 926.536 -6.94612 -5.98974 0
M  V30 7005 O 925.48 -6.10347 -6.11815 0
M  V30 7006 C 927.754 -6.11426 -5.62335 0
M  V30 7007 O 928.492 -5.6162 -6.70584 0
M  V30 7008 C 927.085 -5.04409 -4.73308 0
M  V30 7009 O 927.884 -3.85992 -4.75183 0
M  V30 7010 C 925.748 -4.8728 -5.41006 0
M  V30 7011 H 925.78 -4.02333 -6.11157 0
M  V30 7012 H 926.963 -5.39466 -3.69543 0
M  V30 7013 H 928.447 -6.71916 -5.01943 0
M  V30 7014 H 926.753 -7.4649 -6.93477 0
M  V30 7015 H 926.563 -8.89416 -5.05237 0
M  V30 7016 H 924.933 -8.14876 -5.18409 0
M  V30 7017 H 927.572 -3.27957 -5.4317 0
M  V30 7018 H 930.125 -5.42347 -6.20617 0
M  V30 END ATOM
M  V30 BEGIN BOND
M  V30 END BOND
M  V30 END CTAB
M  END
$$$$
