drugbank_target|P03765 Protein ninB (DB03345)
 OpenBabel12092120273D

  0  0  0     0  0            999 V3000
M  V30 BEGIN CTAB
M  V30 COUNTS 2349 2375 0 0 0
M  V30 BEGIN ATOM
M  V30 1 H -0.908 1.98254 -0.117106 0
M  V30 2 N 0 1.576 0 0
M  V30 3 C 0.933 2.03868 1.02534 0
M  V30 4 C 1.911 0.928543 1.3348 0
M  V30 5 O 3.095 1.19667 1.45644 0
M  V30 6 C 0.222 2.43627 2.35294 0
M  V30 7 C -0.732 3.65373 2.2001 0
M  V30 8 S 0.101 5.13292 1.52614 0
M  V30 9 C 1.257 5.56322 2.86805 0
M  V30 10 H 1.49 2.90518 0.631377 0
M  V30 11 H -0.977 1.52953 0.210867 0
M  V30 12 H 0.981 2.67203 3.11629 0
M  V30 13 H -0.358 1.57376 2.7183 0
M  V30 14 H -1.165 3.90944 3.18086 0
M  V30 15 H -1.563 3.418 1.51819 0
M  V30 16 H 0.729 5.58782 3.83104 0
M  V30 17 H 1.672 6.56266 2.65933 0
M  V30 18 H 2.08 4.83886 2.90714 0
M  V30 19 N 1.4781 -0.272755 1.55222 0
M  V30 20 C 2.4251 -1.33716 1.88119 0
M  V30 21 C 3.3951 -1.49066 0.73271 0
M  V30 22 O 4.5801 -1.63469 0.984002 0
M  V30 23 C 1.7201 -2.69238 2.15882 0
M  V30 24 C 0.8331 -2.62108 3.43399 0
M  V30 25 C -0.0319 -3.89811 3.60861 0
M  V30 26 C -0.9929 -3.77193 4.8207 0
M  V30 27 N -1.8559 -4.9673 4.96189 0
M  V30 28 H 2.9841 -1.04962 2.78903 0
M  V30 29 H 0.5211 -0.507088 1.38083 0
M  V30 30 H 2.4791 -3.48089 2.29978 0
M  V30 31 H 1.1091 -2.96194 1.28331 0
M  V30 32 H 0.1611 -1.74967 3.37773 0
M  V30 33 H 1.4731 -2.48685 4.32386 0
M  V30 34 H 0.6271 -4.77103 3.74777 0
M  V30 35 H -0.6339 -4.06102 2.7006 0
M  V30 36 H -1.6289 -2.88284 4.68159 0
M  V30 37 H -0.4039 -3.62421 5.74307 0
M  V30 38 H -2.4579 -5.13431 4.08319 0
M  V30 39 H -2.5409 -4.85839 5.79221 0
M  V30 40 H -1.2729 -5.85594 5.1449 0
M  V30 41 N 2.9562 -1.48159 -0.537278 0
M  V30 42 C 3.9032 -1.62138 -1.64256 0
M  V30 43 C 4.8732 -0.463668 -1.59497 0
M  V30 44 O 6.0582 -0.686241 -1.78032 0
M  V30 45 C 3.1982 -1.66028 -3.02537 0
M  V30 46 C 2.3112 -2.92855 -3.17585 0
M  V30 47 C 1.4462 -2.87952 -4.46382 0
M  V30 48 C 0.4852 -4.09516 -4.54932 0
M  V30 49 N -0.3778 -4.02733 -5.75109 0
M  V30 50 H 4.4622 -2.56529 -1.51647 0
M  V30 51 H 1.9992 -1.27224 -0.738414 0
M  V30 52 H 3.9572 -1.66265 -3.82638 0
M  V30 53 H 2.5872 -0.751331 -3.13934 0
M  V30 54 H 1.6392 -3.02395 -2.30784 0
M  V30 55 H 2.9512 -3.82822 -3.19764 0
M  V30 56 H 2.1052 -2.8655 -5.34765 0
M  V30 57 H 0.8442 -1.95702 -4.46712 0
M  V30 58 H -0.1508 -4.11201 -3.64957 0
M  V30 59 H 1.0742 -5.02917 -4.56346 0
M  V30 60 H -0.9798 -3.13299 -5.76351 0
M  V30 61 H -1.0628 -4.86397 -5.78752 0
M  V30 62 H 0.2052 -4.05379 -6.65799 0
M  V30 63 N 4.4343 0.785586 -1.36625 0
M  V30 64 C 5.3643 1.91259 -1.33949 0
M  V30 65 C 6.3453 1.68795 -0.210325 0
M  V30 66 O 7.5303 1.89854 -0.408561 0
M  V30 67 C 4.6603 3.28339 -1.13186 0
M  V30 68 C 3.6143 3.65335 -2.22967 0
M  V30 69 C 2.9403 5.00806 -1.87342 0
M  V30 70 C 4.2403 3.7352 -3.65075 0
M  V30 71 H 5.9343 1.93755 -2.28253 0
M  V30 72 H 3.4803 0.930788 -1.09874 0
M  V30 73 H 5.4333 4.06804 -1.09948 0
M  V30 74 H 4.1573 3.2624 -0.153332 0
M  V30 75 H 2.8163 2.89169 -2.25337 0
M  V30 76 H 2.4643 4.95233 -0.880545 0
M  V30 77 H 2.1643 5.26529 -2.60846 0
M  V30 78 H 3.6883 5.81687 -1.85667 0
M  V30 79 H 5.1023 4.42168 -3.64911 0
M  V30 80 H 3.4993 4.10731 -4.37516 0
M  V30 81 H 4.5693 2.74527 -3.99703 0
M  V30 82 N 5.9124 1.20967 1.01018 0
M  V30 83 C 7.1404 1.04956 1.78303 0
M  V30 84 C 7.5554 -0.400915 1.84494 0
M  V30 85 O 6.9124 -1.27826 1.30257 0
M  V30 86 C 6.9634 1.63403 3.22462 0
M  V30 87 O 6.6844 3.02775 3.16637 0
M  V30 88 C 8.1854 1.52432 4.16268 0
M  V30 89 H 5.4054 0.368858 0.560522 0
M  V30 90 H 7.9494 1.60193 1.27116 0
M  V30 91 H 6.1044 1.1227 3.70775 0
M  V30 92 H 6.5184 3.30626 4.07169 0
M  V30 93 H 7.9924 1.98078 5.15237 0
M  V30 94 H 8.4694 0.477875 4.36592 0
M  V30 95 H 9.0754 2.02787 3.73841 0
M  V30 96 N 7.3905 -1.2043 1.01659 0
M  V30 97 C 8.6375 -1.89797 0.705917 0
M  V30 98 C 8.9655 -1.78848 -0.764439 0
M  V30 99 O 8.2205 -1.16694 -1.57102 0
M  V30 100 C 8.5195 -3.40464 1.08714 0
M  V30 101 C 8.1855 -3.71614 2.5537 0
M  V30 102 C 6.8475 -3.79826 2.95441 0
M  V30 103 C 9.1995 -3.85915 3.50313 0
M  V30 104 C 6.5275 -3.99797 4.29394 0
M  V30 105 C 8.8795 -4.07396 4.83954 0
M  V30 106 C 7.5435 -4.13837 5.23732 0
M  V30 107 H 6.8135 -0.694518 0.258313 0
M  V30 108 H 9.4605 -1.42691 1.27717 0
M  V30 109 H 7.7655 -3.89385 0.434309 0
M  V30 110 H 9.4625 -3.92433 0.824461 0
M  V30 111 H 6.0525 -3.65822 2.23321 0
M  V30 112 H 10.2365 -3.78926 3.20513 0
M  V30 113 H 5.4925 -4.03018 4.59768 0
M  V30 114 H 9.6665 -4.17404 5.57447 0
M  V30 115 H 7.2935 -4.29064 6.27541 0
M  V30 116 N 8.8686 -0.792821 -1.36206 0
M  V30 117 C 9.7786 -0.194808 -2.3379 0
M  V30 118 C 10.7946 0.654869 -1.61206 0
M  V30 119 O 11.9706 0.569856 -1.9317 0
M  V30 120 C 9.0356 0.657721 -3.40404 0
M  V30 121 C 8.0966 -0.210849 -4.28782 0
M  V30 122 C 7.3296 0.601086 -5.30304 0
M  V30 123 O 7.5526 1.83682 -5.40016 0
M  V30 124 O 6.4866 -0.000808277 -6.019 0
M  V30 125 H 10.3126 -1.00172 -2.86704 0
M  V30 126 H 7.8976 -0.554341 -1.38735 0
M  V30 127 H 9.7796 1.14375 -4.05581 0
M  V30 128 H 8.4546 1.44247 -2.89784 0
M  V30 129 H 7.3616 -0.743714 -3.66633 0
M  V30 130 H 8.6946 -0.959195 -4.82763 0
M  V30 131 N 10.3467 1.47872 -0.545128 0
M  V30 132 C 11.5957 2.01695 -0.0145033 0
M  V30 133 C 11.9087 1.42609 1.33873 0
M  V30 134 O 13.1147 1.88021 1.95858 0
M  V30 135 C 11.5707 3.59892 0.0245068 0
M  V30 136 C 11.1787 4.27966 -1.32475 0
M  V30 137 C 12.9227 4.21507 0.50316 0
M  V30 138 C 10.8297 5.78136 -1.2455 0
M  V30 139 H 9.7597 0.753998 -0.00165172 0
M  V30 140 H 12.4107 1.69985 -0.691175 0
M  V30 141 H 10.7927 3.88509 0.766575 0
M  V30 142 H 11.9667 4.11003 -2.08357 0
M  V30 143 H 10.2817 3.78286 -1.74036 0
M  V30 144 H 12.8787 5.31538 0.580656 0
M  V30 145 H 13.2217 3.87855 1.51243 0
M  V30 146 H 13.7547 3.97376 -0.183681 0
M  V30 147 H 10.4937 6.16388 -2.23039 0
M  V30 148 H 10.0137 5.97469 -0.528282 0
M  V30 149 H 11.6927 6.40099 -0.942488 0
M  V30 150 N 11.8248 0.280983 1.55075 0
M  V30 151 C 13.2408 -0.0729964 1.59433 0
M  V30 152 C 13.4408 -1.5411 1.29817 0
M  V30 153 O 12.4968 -2.29086 1.06187 0
M  V30 154 C 13.8098 0.306921 2.9913 0
M  V30 155 C 15.3578 0.254023 3.11968 0
M  V30 156 C 15.8328 0.608467 4.5394 0
M  V30 157 N 17.3238 0.560241 4.59799 0
M  V30 158 C 18.0588 0.80722 5.6769 0
M  V30 159 N 17.5548 1.11912 6.83701 0
M  V30 160 N 19.3478 0.735623 5.57266 0
M  V30 161 H 11.4988 1.238 1.7259 0
M  V30 162 H 13.7618 0.500547 0.805082 0
M  V30 163 H 13.4678 1.32816 3.25657 0
M  V30 164 H 13.3418 -0.349363 3.75579 0
M  V30 165 H 15.7288 -0.75794 2.852 0
M  V30 166 H 15.8098 0.944649 2.37718 0
M  V30 167 H 15.4538 1.61814 4.81434 0
M  V30 168 H 15.3838 -0.104013 5.26497 0
M  V30 169 H 17.8748 0.329288 3.76463 0
M  V30 170 H 18.1878 1.29409 7.61888 0
M  V30 171 H 16.5328 1.15695 6.85303 0
M  V30 172 H 19.7238 0.491752 4.6551 0
M  V30 173 H 19.8968 0.931482 6.4127 0
M  V30 174 N 13.3029 -1.57598 0.00835791 0
M  V30 175 C 14.5279 -1.95617 -0.689103 0
M  V30 176 C 14.9529 -0.883753 -1.66046 0
M  V30 177 O 14.3109 0.157352 -1.80616 0
M  V30 178 C 14.3589 -3.32736 -1.38994 0
M  V30 179 O 13.4629 -3.27631 -2.50463 0
M  V30 180 H 12.8039 -0.638379 -0.182668 0
M  V30 181 H 15.3339 -2.045 0.064036 0
M  V30 182 H 15.3439 -3.68494 -1.75147 0
M  V30 183 H 14.0189 -4.1034 -0.677778 0
M  V30 184 H 12.5959 -3.03561 -2.16576 0
M  V30 185 N 14.781 0.264519 -1.55364 0
M  V30 186 C 16.192 0.834936 -1.6699 0
M  V30 187 C 16.543 1.86718 -0.602552 0
M  V30 188 O 15.668 2.14899 0.254425 0
M  V30 189 C 16.263 1.5212 -3.02729 0
M  V30 190 C 14.822 2.03954 -3.16354 0
M  V30 191 C 13.969 0.884498 -2.62815 0
M  V30 192 H 16.92 0.0406869 -1.58648 0
M  V30 193 H 16.941 2.38853 -2.96191 0
M  V30 194 H 16.453 0.769668 -3.80392 0
M  V30 195 H 14.554 2.82041 -2.43482 0
M  V30 196 H 14.667 2.24902 -4.23032 0
M  V30 197 H 13.031 1.2802 -2.20188 0
M  V30 198 H 13.814 0.14634 -3.42988 0
M  V30 199 N 16.2591 1.48442 0.529413 0
M  V30 200 C 17.2221 1.62524 1.61612 0
M  V30 201 C 18.2221 0.498509 1.52877 0
M  V30 202 O 19.4121 0.76431 1.56537 0
M  V30 203 C 16.5441 1.59597 3.01233 0
M  V30 204 H 17.7371 2.59423 1.50465 0
M  V30 205 H 15.2901 1.37047 0.751514 0
M  V30 206 H 16.0251 0.641781 3.17886 0
M  V30 207 H 15.8101 2.41397 3.08982 0
M  V30 208 H 17.3001 1.72646 3.80241 0
M  V30 209 N 17.7372 -0.778329 1.37039 0
M  V30 210 C 18.6872 -1.88142 1.28789 0
M  V30 211 C 19.6712 -1.59923 0.177063 0
M  V30 212 O 20.8632 -1.72165 0.410873 0
M  V30 213 C 17.9922 -3.25518 1.09055 0
M  V30 214 C 17.0782 -3.5971 2.24654 0
M  V30 215 N 17.4692 -3.65131 3.50018 0
M  V30 216 C 15.7672 -3.89837 2.16663 0
M  V30 217 C 16.4682 -3.95882 4.26207 0
M  V30 218 N 15.4442 -4.11441 3.55271 0
M  V30 219 H 19.2462 -1.90575 2.23737 0
M  V30 220 H 16.7602 -0.974435 1.29917 0
M  V30 221 H 18.7572 -4.04423 1.0123 0
M  V30 222 H 17.4172 -3.24353 0.15018 0
M  V30 223 H 18.4282 -3.475 3.84011 0
M  V30 224 H 15.1052 -3.96533 1.30645 0
M  V30 225 H 16.4952 -4.06907 5.34674 0
M  V30 226 N 19.2153 -1.21501 -1.00376 0
M  V30 227 C 20.1473 -0.933174 -2.09343 0
M  V30 228 C 21.1603 0.0840896 -1.62583 0
M  V30 229 O 22.3493 -0.148563 -1.77881 0
M  V30 230 C 19.4493 -0.379869 -3.36764 0
M  V30 231 C 18.6223 -1.45176 -4.12605 0
M  V30 232 C 17.6813 -0.907476 -5.18316 0
M  V30 233 O 16.7073 -1.5912 -5.46507 0
M  V30 234 N 17.9093 0.276649 -5.7984 0
M  V30 235 H 20.6743 -1.87124 -2.34104 0
M  V30 236 H 18.2353 -1.12043 -1.16867 0
M  V30 237 H 20.2273 -0.00131488 -4.047 0
M  V30 238 H 18.7973 0.463048 -3.09151 0
M  V30 239 H 18.0173 -2.00411 -3.39454 0
M  V30 240 H 19.3053 -2.17328 -4.6005 0
M  V30 241 H 18.7033 0.849147 -5.59291 0
M  V30 242 H 17.2603 0.596702 -6.49063 0
M  V30 243 N 20.6934 1.19889 -1.02296 0
M  V30 244 C 21.6254 2.22334 -0.556787 0
M  V30 245 C 22.6384 1.58674 0.364199 0
M  V30 246 O 23.8274 1.77768 0.161533 0
M  V30 247 C 20.9274 3.38257 0.208694 0
M  V30 248 C 20.1004 4.31504 -0.71577 0
M  V30 249 C 19.1594 5.262 0.00325597 0
M  V30 250 O 18.1854 5.65798 -0.621357 0
M  V30 251 N 19.3874 5.66303 1.27599 0
M  V30 252 H 22.1524 2.62957 -1.43784 0
M  V30 253 H 19.7134 1.34495 -0.901261 0
M  V30 254 H 21.7054 3.98616 0.699111 0
M  V30 255 H 20.2754 2.96472 0.991102 0
M  V30 256 H 19.4954 3.69016 -1.38638 0
M  V30 257 H 20.7834 4.9072 -1.34428 0
M  V30 258 H 20.1814 5.36155 1.80429 0
M  V30 259 H 18.7384 6.28942 1.71102 0
M  V30 260 N 22.1715 0.800033 1.35784 0
M  V30 261 C 23.1195 0.193851 2.31791 0
M  V30 262 C 24.1135 -0.652744 1.56319 0
M  V30 263 O 25.3195 -0.546641 1.71499 0
M  V30 264 H 21.6945 0.04392 0.750716 0
M  V30 265 H 23.6655 1.01883 2.80468 0
M  V30 266 C 22.4145 -0.648338 3.41602 0
M  V30 267 H 21.7375 -0.00624665 3.998 0
M  V30 268 H 23.1775 -1.03898 4.11073 0
M  V30 269 C 21.6365 -1.8111 2.84079 0
M  V30 270 O 22.1665 -2.90825 2.77099 0
M  V30 271 N 20.3725 -1.62056 2.41218 0
M  V30 272 H 19.9195 -0.728123 2.47095 0
M  V30 273 H 19.8775 -2.40013 2.03079 0
M  V30 274 N 23.6496 -1.47581 0.552962 0
M  V30 275 C 24.6126 -2.28439 -0.186605 0
M  V30 276 C 25.6126 -1.36706 -0.84665 0
M  V30 277 O 26.8026 -1.59378 -0.703164 0
M  V30 278 C 23.9346 -3.16264 -1.2724 0
M  V30 279 H 25.1276 -2.95294 0.523609 0
M  V30 280 H 22.6806 -1.532 0.309745 0
M  V30 281 H 23.4156 -2.54091 -2.01514 0
M  V30 282 H 23.2006 -3.83769 -0.803968 0
M  V30 283 H 24.6906 -3.77198 -1.79196 0
M  V30 284 N 25.1277 -0.289203 -1.54924 0
M  V30 285 C 26.3767 0.324231 -1.99077 0
M  V30 286 C 26.6897 1.5591 -1.18117 0
M  V30 287 O 27.8957 2.24637 -1.52481 0
M  V30 288 C 26.3517 0.628209 -3.54375 0
M  V30 289 C 25.9597 -0.587647 -4.44129 0
M  V30 290 C 27.7037 1.20349 -4.07083 0
M  V30 291 C 25.6107 -0.257475 -5.90839 0
M  V30 292 H 24.5407 0.124924 -0.743579 0
M  V30 293 H 27.1917 -0.396063 -1.79175 0
M  V30 294 H 25.5737 1.40778 -3.70132 0
M  V30 295 H 26.7477 -1.36418 -4.40144 0
M  V30 296 H 25.0627 -1.08074 -4.0213 0
M  V30 297 H 27.6597 1.46456 -5.14252 0
M  V30 298 H 28.0027 2.14195 -3.56968 0
M  V30 299 H 28.5357 0.485889 -3.94821 0
M  V30 300 H 25.2747 -1.16419 -6.45079 0
M  V30 301 H 24.7947 0.482018 -5.9786 0
M  V30 302 H 26.4737 0.145238 -6.46837 0
M  V30 303 N 26.6058 1.57591 -0.0167156 0
M  V30 304 C 27.5558 2.05953 0.978137 0
M  V30 305 C 28.5398 0.957532 1.29306 0
M  V30 306 O 29.7318 1.22119 1.28125 0
M  V30 307 C 26.8608 2.58006 2.26468 0
M  V30 308 C 25.9468 3.75113 1.97867 0
M  V30 309 N 26.3378 4.86187 1.39486 0
M  V30 310 C 24.6358 3.83363 2.27924 0
M  V30 311 C 25.3368 5.67502 1.27735 0
M  V30 312 N 24.3128 5.14023 1.76866 0
M  V30 313 H 28.1148 2.89236 0.521522 0
M  V30 314 H 25.6288 1.61301 0.188596 0
M  V30 315 H 27.6258 2.90937 2.98599 0
M  V30 316 H 26.2858 1.76148 2.72767 0
M  V30 317 H 27.2968 5.06695 1.07147 0
M  V30 318 H 23.9738 3.1239 2.76982 0
M  V30 319 H 25.3638 6.66791 0.826978 0
M  V30 320 N 28.0839 -0.256276 1.55502 0
M  V30 321 C 29.0469 -1.30047 1.88734 0
M  V30 322 C 30.0469 -1.4154 0.763086 0
M  V30 323 O 31.2369 -1.40403 1.03115 0
M  V30 324 C 28.3689 -2.67953 2.10747 0
M  V30 325 H 29.5619 -1.01802 2.82093 0
M  V30 326 H 27.1149 -0.495134 1.4825 0
M  V30 327 H 27.8499 -3.01351 1.19825 0
M  V30 328 H 27.6349 -2.60993 2.92617 0
M  V30 329 H 29.1249 -3.43368 2.37673 0
M  V30 330 N 29.562 -1.4872 -0.521534 0
M  V30 331 C 30.808 -1.574 -1.27879 0
M  V30 332 C 31.141 -0.250817 -1.92573 0
M  V30 333 O 30.416 0.743934 -1.79711 0
M  V30 334 C 30.699 -2.71843 -2.36164 0
M  V30 335 C 30.552 -4.13893 -1.76105 0
M  V30 336 C 31.871 -2.82008 -3.37875 0
M  V30 337 H 28.99 -0.572941 -0.463581 0
M  V30 338 H 31.632 -1.80927 -0.580119 0
M  V30 339 H 29.782 -2.51914 -2.95756 0
M  V30 340 H 31.454 -4.45284 -1.20499 0
M  V30 341 H 29.697 -4.20498 -1.06601 0
M  V30 342 H 30.368 -4.89804 -2.5455 0
M  V30 343 H 32.844 -3.00086 -2.88249 0
M  V30 344 H 31.72 -3.63796 -4.11028 0
M  V30 345 H 31.981 -1.90511 -3.98946 0
M  V30 346 N 31.0401 0.771051 -1.3745 0
M  V30 347 C 31.9721 1.89352 -1.29146 0
M  V30 348 C 32.9851 1.61477 -0.207124 0
M  V30 349 O 34.1741 1.72382 -0.463324 0
M  V30 350 C 31.2741 3.24596 -0.974195 0
M  V30 351 C 30.4471 3.80111 -2.16413 0
M  V30 352 C 29.5061 4.93832 -1.81703 0
M  V30 353 O 28.5321 5.09382 -2.54006 0
M  V30 354 N 29.7341 5.75483 -0.761573 0
M  V30 355 H 32.4991 1.96991 -2.25864 0
M  V30 356 H 30.0601 0.950191 -1.31084 0
M  V30 357 H 32.0521 3.98193 -0.722828 0
M  V30 358 H 30.6221 3.12454 -0.0955527 0
M  V30 359 H 29.8421 2.98284 -2.57721 0
M  V30 360 H 31.1301 4.13932 -2.95867 0
M  V30 361 H 30.5281 5.65469 -0.161609 0
M  V30 362 H 29.0851 6.49302 -0.570064 0
M  V30 363 N 32.5182 1.22032 0.997298 0
M  V30 364 C 33.4502 0.944263 2.08845 0
M  V30 365 C 34.4632 -0.0754663 1.62625 0
M  V30 366 O 35.6522 0.157994 1.77799 0
M  V30 367 C 32.7522 0.397723 3.36558 0
M  V30 368 C 31.9252 1.47362 4.11829 0
M  V30 369 C 30.9842 0.934951 5.17827 0
M  V30 370 O 30.0102 1.62016 5.45655 0
M  V30 371 N 31.2122 -0.245895 5.79979 0
M  V30 372 H 33.9772 1.88363 2.33109 0
M  V30 373 H 31.5382 1.12661 1.16272 0
M  V30 374 H 33.5302 0.0227771 4.04694 0
M  V30 375 H 32.1002 -0.446646 3.09393 0
M  V30 376 H 31.3202 2.02208 3.38386 0
M  V30 377 H 32.6082 2.19764 4.58891 0
M  V30 378 H 32.0062 -0.819475 5.59733 0
M  V30 379 H 30.5632 -0.562272 6.4937 0
M  V30 380 N 33.9963 -1.19345 1.0293 0
M  V30 381 C 35.2453 -1.88363 0.721256 0
M  V30 382 C 35.5583 -1.80514 -0.753254 0
M  V30 383 O 36.7643 -2.44788 -1.17436 0
M  V30 384 C 35.2203 -3.37872 1.23978 0
M  V30 385 C 34.8283 -3.54278 2.74211 0
M  V30 386 C 36.5723 -4.12365 1.00775 0
M  V30 387 C 34.4793 -4.97682 3.19479 0
M  V30 388 H 33.4093 -0.705484 0.266098 0
M  V30 389 H 36.0603 -1.34928 1.24365 0
M  V30 390 H 34.4423 -3.90707 0.6453 0
M  V30 391 H 35.6163 -3.11769 3.39318 0
M  V30 392 H 33.9313 -2.93174 2.95699 0
M  V30 393 H 36.5283 -5.18119 1.32123 0
M  V30 394 H 36.8713 -4.16263 -0.0554308 0
M  V30 395 H 37.4043 -3.65668 1.56625 0
M  V30 396 H 34.1433 -4.98945 4.25128 0
M  V30 397 H 33.6633 -5.4095 2.591 0
M  V30 398 H 35.3423 -5.66337 3.12845 0
M  V30 399 N 35.4744 -0.807222 -1.35358 0
M  V30 400 C 36.4044 -0.232509 -2.3234 0
M  V30 401 C 37.3854 0.642386 -1.57504 0
M  V30 402 O 38.5704 0.572526 -1.85569 0
M  V30 403 C 35.7004 0.619238 -3.41735 0
M  V30 404 C 34.6544 -0.157215 -4.27711 0
M  V30 405 C 33.9804 0.816273 -5.28433 0
M  V30 406 C 35.2804 -1.35656 -5.04376 0
M  V30 407 H 36.9744 -1.04276 -2.80654 0
M  V30 408 H 34.5204 -0.50288 -1.34934 0
M  V30 409 H 36.4734 1.03137 -4.08584 0
M  V30 410 H 35.1974 1.46239 -2.92031 0
M  V30 411 H 33.8564 -0.550525 -3.62443 0
M  V30 412 H 33.5044 1.65494 -4.74996 0
M  V30 413 H 33.2044 0.301067 -5.86828 0
M  V30 414 H 34.7284 1.22659 -5.98153 0
M  V30 415 H 36.1424 -1.01927 -5.64166 0
M  V30 416 H 34.5394 -1.8063 -5.7227 0
M  V30 417 H 35.6094 -2.14288 -4.34981 0
M  V30 418 N 36.9525 1.47285 -0.560781 0
M  V30 419 C 38.3635 1.86258 -0.128343 0
M  V30 420 C 38.7145 1.46699 1.30284 0
M  V30 421 O 37.8395 0.871698 1.98067 0
M  V30 422 C 38.4345 3.38044 -0.22614 0
M  V30 423 C 36.9935 3.76096 0.151283 0
M  V30 424 C 36.1405 2.71335 -0.572084 0
M  V30 425 H 39.0915 1.38752 -0.770297 0
M  V30 426 H 39.1125 3.76441 0.554322 0
M  V30 427 H 38.6245 3.66806 -1.26788 0
M  V30 428 H 36.7255 3.52951 1.19399 0
M  V30 429 H 36.8385 4.78641 -0.209765 0
M  V30 430 H 35.2025 2.54696 -0.0147653 0
M  V30 431 H 35.9855 3.02938 -1.61504 0
M  V30 432 N 38.4306 0.297415 1.54768 0
M  V30 433 C 39.7076 -0.365847 1.92148 0
M  V30 434 C 40.0876 -1.71975 1.22424 0
M  V30 435 O 39.4356 -2.25666 0.358739 0
M  V30 436 C 39.6456 -0.484056 3.45627 0
M  V30 437 C 40.9936 -0.756594 4.17805 0
M  V30 438 O 42.0176 -0.568007 3.51642 0
M  V30 439 O 40.8766 -1.11863 5.34929 0
M  V30 440 H 37.9706 -0.203919 0.801465 0
M  V30 441 H 40.5166 0.34521 1.66152 0
M  V30 442 H 39.2886 0.467865 3.88493 0
M  V30 443 H 38.9116 -1.24372 3.77647 0
M  V30 444 N 39.9087 -1.5758 0.0250728 0
M  V30 445 C 41.3197 -1.79476 -0.514323 0
M  V30 446 C 41.6707 -0.934956 -1.72491 0
M  V30 447 O 40.7957 -0.144245 -2.15919 0
M  V30 448 C 41.3907 -3.25503 -0.939842 0
M  V30 449 C 39.9497 -3.48408 -1.42438 0
M  V30 450 C 39.0967 -2.74583 -0.387201 0
M  V30 451 H 42.0477 -1.567 0.25113 0
M  V30 452 H 42.0687 -3.34992 -1.80445 0
M  V30 453 H 41.5807 -3.88056 -0.0585628 0
M  V30 454 H 39.6817 -2.91103 -2.32572 0
M  V30 455 H 39.7947 -4.57119 -1.43455 0
M  V30 456 H 38.1587 -2.39942 -0.854409 0
M  V30 457 H 38.9417 -3.39849 0.485543 0
M  V30 458 N 41.3868 0.248026 -1.55636 0
M  V30 459 C 42.6148 0.993808 -1.81469 0
M  V30 460 C 43.0298 1.78991 -0.60064 0
M  V30 461 O 42.3868 1.77345 0.430682 0
M  V30 462 C 42.4378 1.93258 -3.05506 0
M  V30 463 O 42.1588 1.16869 -4.22224 0
M  V30 464 C 43.6598 2.79444 -3.4413 0
M  V30 465 H 40.8798 0.292486 -0.603898 0
M  V30 466 H 43.4238 0.271253 -2.02693 0
M  V30 467 H 41.5788 2.60943 -2.86335 0
M  V30 468 H 41.9928 1.80359 -4.92515 0
M  V30 469 H 43.4668 3.41066 -4.34026 0
M  V30 470 H 43.9438 3.50499 -2.64665 0
M  V30 471 H 44.5498 2.17214 -3.65648 0
M  V30 472 N 42.8649 1.48995 0.513639 0
M  V30 473 C 43.8119 1.6473 1.61656 0
M  V30 474 C 44.7819 0.488984 1.58739 0
M  V30 475 O 45.9669 0.714478 1.76918 0
M  V30 476 C 43.1069 1.7082 2.99858 0
M  V30 477 C 42.2199 2.9787 3.12885 0
M  V30 478 C 41.3549 2.95017 4.41744 0
M  V30 479 C 40.3939 4.16702 4.48359 0
M  V30 480 N 39.5309 4.11832 5.68629 0
M  V30 481 H 44.3709 2.58909 1.47547 0
M  V30 482 H 41.9079 1.28382 0.71808 0
M  V30 483 H 43.8659 1.72331 3.79944 0
M  V30 484 H 42.4959 0.801181 3.12699 0
M  V30 485 H 41.5479 3.06029 2.25944 0
M  V30 486 H 42.8599 3.8786 3.13633 0
M  V30 487 H 42.0139 2.95021 5.30139 0
M  V30 488 H 40.7529 2.02784 4.43542 0
M  V30 489 H 39.7579 4.16955 3.58369 0
M  V30 490 H 40.9829 5.10113 4.48287 0
M  V30 491 H 38.9289 3.22428 5.71293 0
M  V30 492 H 38.8459 4.95543 5.7094 0
M  V30 493 H 40.1139 4.1592 6.59266 0
M  V30 494 N 44.343 -0.763751 1.37857 0
M  V30 495 C 45.754 -1.3405 1.29952 0
M  V30 496 C 46.105 -1.96138 -0.0492898 0
M  V30 497 O 45.23 -1.94372 -0.951239 0
M  V30 498 C 45.825 -2.43729 2.35333 0
M  V30 499 C 44.384 -2.97151 2.31037 0
M  V30 500 C 43.531 -1.70438 2.18738 0
M  V30 501 H 46.482 -0.563396 1.48363 0
M  V30 502 H 46.503 -3.23412 2.00462 0
M  V30 503 H 46.015 -1.9851 3.33489 0
M  V30 504 H 44.116 -3.46724 1.3643 0
M  V30 505 H 44.229 -3.52221 3.24772 0
M  V30 506 H 42.593 -1.93673 1.65418 0
M  V30 507 H 43.376 -1.27312 3.18821 0
M  V30 508 N 45.8211 -1.22559 -0.990812 0
M  V30 509 C 47.0701 -1.04553 -1.72486 0
M  V30 510 C 47.3831 0.419349 -1.91052 0
M  V30 511 O 48.5891 0.719121 -2.61803 0
M  V30 512 C 47.0451 -1.82231 -3.10355 0
M  V30 513 C 46.6531 -3.32981 -2.99713 0
M  V30 514 C 48.3971 -1.7268 -3.87791 0
M  V30 515 C 46.3041 -4.03091 -4.32748 0
M  V30 516 H 45.2341 -0.387614 -0.646739 0
M  V30 517 H 47.8851 -1.46429 -1.10593 0
M  V30 518 H 46.2671 -1.33155 -3.72942 0
M  V30 519 H 47.4411 -3.89466 -2.46278 0
M  V30 520 H 45.7561 -3.43231 -2.35758 0
M  V30 521 H 48.3531 -2.22381 -4.86262 0
M  V30 522 H 48.6961 -0.687607 -4.10582 0
M  V30 523 H 49.2291 -2.1931 -3.31885 0
M  V30 524 H 45.9681 -5.07273 -4.15156 0
M  V30 525 H 45.4881 -3.51394 -4.86089 0
M  V30 526 H 47.1671 -4.08804 -5.01486 0
M  V30 527 N 47.2992 1.18797 -1.03562 0
M  V30 528 C 48.5452 1.8893 -0.737113 0
M  V30 529 C 48.8782 1.79837 0.732956 0
M  V30 530 O 48.1532 1.19525 1.5344 0
M  V30 531 C 48.4362 3.39607 -1.19745 0
M  V30 532 C 48.2892 3.57537 -2.72924 0
M  V30 533 C 49.6082 4.33069 -0.783526 0
M  V30 534 H 46.7272 0.686057 -0.269249 0
M  V30 535 H 49.3692 1.39797 -1.28673 0
M  V30 536 H 47.5192 3.81583 -0.729855 0
M  V30 537 H 49.1912 3.24688 -3.27682 0
M  V30 538 H 47.4342 3.00363 -3.12993 0
M  V30 539 H 48.1052 4.63238 -3.00191 0
M  V30 540 H 50.5812 3.98846 -1.18581 0
M  V30 541 H 49.4572 5.3707 -1.13343 0
M  V30 542 H 49.7182 4.40986 0.313681 0
M  V30 543 N 48.7773 0.814389 1.34928 0
M  V30 544 C 50.0233 0.399013 1.98836 0
M  V30 545 C 50.3563 -1.03314 1.64438 0
M  V30 546 O 49.6313 -1.71811 0.911659 0
M  V30 547 C 49.9143 0.591629 3.55207 0
M  V30 548 C 49.7673 2.06928 3.99376 0
M  V30 549 C 51.0863 0.022199 4.40094 0
M  V30 550 H 48.2053 0.146451 0.722303 0
M  V30 551 H 50.8473 1.02537 1.59957 0
M  V30 552 H 48.9973 0.0584441 3.88456 0
M  V30 553 H 50.6693 2.66544 3.76499 0
M  V30 554 H 48.9123 2.56287 3.49999 0
M  V30 555 H 49.5833 2.1549 5.08201 0
M  V30 556 H 52.0593 0.477643 4.13349 0
M  V30 557 H 50.9353 0.186832 5.48582 0
M  V30 558 H 51.1963 -1.07215 4.28902 0
M  V30 559 N 50.2554 -1.46986 0.568584 0
M  V30 560 C 51.4834 -2.0683 0.0539956 0
M  V30 561 C 51.8984 -1.41953 -1.24478 0
M  V30 562 O 51.2554 -0.519933 -1.74937 0
M  V30 563 C 51.3064 -3.61254 -0.133362 0
M  V30 564 O 51.0274 -4.237 1.11399 0
M  V30 565 C 52.5284 -4.37992 -0.683927 0
M  V30 566 H 49.7484 -0.669058 0.0510141 0
M  V30 567 H 52.2924 -1.88824 0.785234 0
M  V30 568 H 50.4474 -3.78735 -0.81477 0
M  V30 569 H 50.8614 -5.16388 0.91888 0
M  V30 570 H 52.3354 -5.46684 -0.764263 0
M  V30 571 H 52.8124 -4.05058 -1.69778 0
M  V30 572 H 53.4184 -4.25283 -0.0378494 0
M  V30 573 N 51.7335 -0.305618 -1.54608 0
M  V30 574 C 52.9825 0.303098 -1.9941 0
M  V30 575 C 53.2955 1.54648 -1.19764 0
M  V30 576 O 54.5015 2.23007 -1.54855 0
M  V30 577 C 52.9575 0.590588 -3.55021 0
M  V30 578 C 52.5655 -0.634719 -4.43481 0
M  V30 579 C 54.3095 1.16025 -4.08336 0
M  V30 580 C 52.2165 -0.320126 -5.90533 0
M  V30 581 H 51.1465 0.117031 -0.744862 0
M  V30 582 H 53.7975 -0.415045 -1.78745 0
M  V30 583 H 52.1795 1.36845 -3.71604 0
M  V30 584 H 53.3535 -1.41079 -4.38672 0
M  V30 585 H 51.6685 -1.12333 -4.00962 0
M  V30 586 H 54.2655 1.40994 -5.15776 0
M  V30 587 H 54.6085 2.10397 -3.5922 0
M  V30 588 H 55.1415 0.443985 -3.95315 0
M  V30 589 H 51.8805 -1.23254 -6.43808 0
M  V30 590 H 51.4005 0.418579 -5.98338 0
M  V30 591 H 53.0795 0.0766241 -6.46955 0
M  V30 592 N 53.2116 1.57565 -0.0334293 0
M  V30 593 C 54.1436 2.0739 0.975811 0
M  V30 594 C 55.1566 0.998166 1.2861 0
M  V30 595 O 56.3456 1.27426 1.25 0
M  V30 596 C 53.4456 2.4871 2.30209 0
M  V30 597 C 52.6186 3.79413 2.17634 0
M  V30 598 C 51.6776 4.07237 3.33233 0
M  V30 599 O 50.7036 4.77425 3.09927 0
M  V30 600 N 51.9056 3.5775 4.5716 0
M  V30 601 H 54.6706 2.94598 0.55066 0
M  V30 602 H 52.2316 1.61173 0.15323 0
M  V30 603 H 54.2236 2.64413 3.06378 0
M  V30 604 H 52.7936 1.66845 2.64351 0
M  V30 605 H 52.0136 3.73465 1.26165 0
M  V30 606 H 53.3016 4.65038 2.0644 0
M  V30 607 H 52.6996 3.00976 4.78989 0
M  V30 608 H 51.2566 3.78724 5.30482 0
M  V30 609 N 54.6897 -0.239769 1.55765 0
M  V30 610 C 55.5997 -1.31831 1.94056 0
M  V30 611 C 56.6157 -1.52275 0.841925 0
M  V30 612 O 57.7917 -1.65759 1.14394 0
M  V30 613 C 54.8567 -2.65156 2.23368 0
M  V30 614 C 53.9177 -2.53173 3.46701 0
M  V30 615 C 53.1507 -3.8014 3.74606 0
M  V30 616 O 53.3737 -4.82343 3.04469 0
M  V30 617 O 52.3077 -3.78344 4.68123 0
M  V30 618 H 56.1337 -1.02347 2.85935 0
M  V30 619 H 53.7187 -0.441123 1.42739 0
M  V30 620 H 55.6007 -3.43929 2.43497 0
M  V30 621 H 54.2757 -2.94358 1.34666 0
M  V30 622 H 53.1827 -1.72662 3.31871 0
M  V30 623 H 54.5157 -2.28915 4.35728 0
M  V30 624 N 56.1678 -1.49265 -0.50573 0
M  V30 625 C 57.5838 -1.35923 -0.836486 0
M  V30 626 C 57.7838 -0.388704 -1.97715 0
M  V30 627 O 56.8398 0.181336 -2.51848 0
M  V30 628 C 58.1528 -2.76531 -1.18115 0
M  V30 629 C 59.7008 -2.85197 -1.28964 0
M  V30 630 C 60.1758 -4.26561 -1.66761 0
M  V30 631 N 61.6668 -4.2935 -1.73819 0
M  V30 632 C 62.4018 -5.35693 -2.045 0
M  V30 633 N 61.8978 -6.52287 -2.33438 0
M  V30 634 N 63.6908 -5.23105 -2.05711 0
M  V30 635 H 55.8418 -2.10965 0.246519 0
M  V30 636 H 58.1048 -0.9468 0.0476887 0
M  V30 637 H 57.8108 -3.49226 -0.416398 0
M  V30 638 H 57.6848 -3.11599 -2.1257 0
M  V30 639 H 60.0718 -2.12742 -2.04511 0
M  V30 640 H 60.1528 -2.53718 -0.325704 0
M  V30 641 H 59.7968 -4.99541 -0.917656 0
M  V30 642 H 59.7268 -4.55502 -2.64246 0
M  V30 643 H 62.2178 -3.4526 -1.53635 0
M  V30 644 H 62.5308 -7.29158 -2.56024 0
M  V30 645 H 60.8758 -6.55521 -2.30905 0
M  V30 646 H 64.0668 -4.31026 -1.82577 0
M  V30 647 H 64.2398 -6.06078 -2.29289 0
M  V30 648 N 57.6459 0.756429 -1.3826 0
M  V30 649 C 58.5939 1.89149 -1.35372 0
M  V30 650 C 59.5879 1.67691 -0.24004 0
M  V30 651 O 60.7939 1.75294 -0.408919 0
M  V30 652 H 57.1689 0.622271 -0.422236 0
M  V30 653 H 59.1399 1.88701 -2.31159 0
M  V30 654 C 57.8889 3.26599 -1.19284 0
M  V30 655 H 57.2119 3.43695 -2.0424 0
M  V30 656 H 58.6519 4.06274 -1.21316 0
M  V30 657 C 57.1109 3.3675 0.100454 0
M  V30 658 O 57.6409 3.86951 1.07851 0
M  V30 659 N 55.8469 2.90179 0.15633 0
M  V30 660 H 55.3939 2.49517 -0.640253 0
M  V30 661 H 55.3519 2.97352 1.02123 0
M  V30 662 N 59.124 1.23083 0.984299 0
M  V30 663 C 60.54 0.992637 1.24975 0
M  V30 664 C 60.74 -0.308618 1.99123 0
M  V30 665 O 59.796 -1.02905 2.30579 0
M  V30 666 C 61.109 2.19698 2.05312 0
M  V30 667 C 62.657 2.24147 2.18465 0
M  V30 668 C 63.132 3.44157 3.02192 0
M  V30 669 N 64.623 3.44372 3.09777 0
M  V30 670 C 65.358 4.33886 3.74874 0
M  V30 671 N 64.854 5.3363 4.41827 0
M  V30 672 N 66.647 4.21639 3.71721 0
M  V30 673 H 58.798 2.06731 0.487453 0
M  V30 674 H 61.061 0.906339 0.277944 0
M  V30 675 H 60.767 3.1411 1.58201 0
M  V30 676 H 60.641 2.20465 3.06064 0
M  V30 677 H 63.028 1.30277 2.64786 0
M  V30 678 H 63.109 2.27415 1.17115 0
M  V30 679 H 62.753 4.38332 2.56568 0
M  V30 680 H 62.683 3.3813 4.03702 0
M  V30 681 H 65.174 2.72201 2.62135 0
M  V30 682 H 65.487 5.98196 4.89266 0
M  V30 683 H 63.832 5.37534 4.40548 0
M  V30 684 H 67.023 3.42962 3.18582 0
M  V30 685 H 67.196 4.91604 4.22173 0
M  V30 686 N 60.6021 -1.18246 1.0419 0
M  V30 687 C 61.8271 -1.92736 0.765996 0
M  V30 688 C 62.2521 -1.75728 -0.67091 0
M  V30 689 O 61.6101 -1.06825 -1.46486 0
M  V30 690 C 61.6581 -3.42148 1.13875 0
M  V30 691 O 60.7621 -4.11548 0.264954 0
M  V30 692 H 60.1031 -0.601238 0.281797 0
M  V30 693 H 62.6331 -1.49942 1.39207 0
M  V30 694 H 62.6431 -3.92858 1.1012 0
M  V30 695 H 61.3181 -3.53848 2.18551 0
M  V30 696 H 59.8951 -3.71137 0.362226 0
M  V30 697 N 62.0802 -0.821533 -1.34494 0
M  V30 698 C 63.0102 -0.257138 -2.3208 0
M  V30 699 C 63.9912 0.625645 -1.58176 0
M  V30 700 O 65.1762 0.552811 -1.86166 0
M  V30 701 C 62.3062 0.582958 -3.42372 0
M  V30 702 C 61.2602 -0.202571 -4.2752 0
M  V30 703 C 60.5862 0.760179 -5.29269 0
M  V30 704 C 61.8862 -1.40998 -5.02908 0
M  V30 705 H 63.5802 -1.07247 -2.79532 0
M  V30 706 H 61.1262 -0.517163 -1.34393 0
M  V30 707 H 63.0792 0.987972 -4.09655 0
M  V30 708 H 61.8032 1.43133 -2.93565 0
M  V30 709 H 60.4622 -0.588936 -3.61838 0
M  V30 710 H 60.1102 1.60447 -4.76724 0
M  V30 711 H 59.8102 0.238809 -5.87115 0
M  V30 712 H 61.3342 1.16308 -5.9942 0
M  V30 713 H 62.7482 -1.07905 -5.63054 0
M  V30 714 H 61.1452 -1.86689 -5.70322 0
M  V30 715 H 62.2152 -2.1889 -4.32684 0
M  V30 716 N 63.5583 1.46682 -0.576371 0
M  V30 717 C 64.8353 1.95599 0.00703437 0
M  V30 718 C 65.2153 1.51904 1.46589 0
M  V30 719 O 64.5633 0.766755 2.15251 0
M  V30 720 C 64.7733 3.4864 -0.158404 0
M  V30 721 C 66.1213 4.24594 -0.0229439 0
M  V30 722 O 67.1453 3.56094 -0.0869173 0
M  V30 723 O 66.0043 5.46373 0.118015 0
M  V30 724 H 63.0983 0.825275 0.053384 0
M  V30 725 H 65.6443 1.56996 -0.644244 0
M  V30 726 H 64.4163 3.7331 -1.17282 0
M  V30 727 H 64.0393 3.94057 0.5296 0
M  V30 728 N 65.0364 0.313813 1.54444 0
M  V30 729 C 65.9684 -0.590425 2.21465 0
M  V30 730 C 66.9814 -1.08753 1.21147 0
M  V30 731 O 68.1704 -1.00278 1.4767 0
M  V30 732 C 65.2704 -1.82179 2.85769 0
M  V30 733 C 64.4434 -1.46502 4.12136 0
M  V30 734 C 63.5024 -2.55288 4.60124 0
M  V30 735 O 62.5284 -2.19842 5.25032 0
M  V30 736 N 63.7304 -3.86053 4.33525 0
M  V30 737 H 66.4954 -0.0166033 2.99695 0
M  V30 738 H 64.0564 0.136578 1.61323 0
M  V30 739 H 66.0484 -2.54328 3.14801 0
M  V30 740 H 64.6184 -2.30369 2.11303 0
M  V30 741 H 63.8384 -0.575595 3.89975 0
M  V30 742 H 65.1264 -1.20221 4.94393 0
M  V30 743 H 64.5244 -4.17654 3.81552 0
M  V30 744 H 63.0814 -4.54461 4.67235 0
M  V30 745 N 66.5145 -1.57545 0.0417849 0
M  V30 746 C 67.4625 -2.12148 -0.953723 0
M  V30 747 C 68.4565 -1.05104 -1.32852 0
M  V30 748 O 69.6625 -1.23524 -1.30927 0
M  V30 749 H 66.0375 -0.677957 -0.325389 0
M  V30 750 H 68.0085 -2.94707 -0.467991 0
M  V30 751 C 66.7575 -2.6739 -2.22257 0
M  V30 752 H 66.0805 -3.49413 -1.94295 0
M  V30 753 H 67.5205 -3.09227 -2.90094 0
M  V30 754 C 65.9795 -1.60723 -2.96091 0
M  V30 755 O 66.5095 -1.01449 -3.88679 0
M  V30 756 N 64.7155 -1.32466 -2.58652 0
M  V30 757 H 64.2625 -1.80856 -1.83437 0
M  V30 758 H 64.2205 -0.61325 -3.08361 0
M  V30 759 N 67.9926 0.231505 -1.5589 0
M  V30 760 C 69.4086 0.580748 -1.48659 0
M  V30 761 C 69.6086 1.87617 -0.73498 0
M  V30 762 O 68.6646 2.51046 -0.270586 0
M  V30 763 C 69.9776 0.669202 -2.93159 0
M  V30 764 C 71.5256 0.760499 -3.03621 0
M  V30 765 C 72.0006 0.880383 -4.49459 0
M  V30 766 N 73.4916 0.944861 -4.53461 0
M  V30 767 C 74.2266 1.05716 -5.63571 0
M  V30 768 N 73.7226 1.13403 -6.83456 0
M  V30 769 N 75.5156 1.09152 -5.514 0
M  V30 770 H 67.6666 -0.618695 -2.03189 0
M  V30 771 H 69.9296 -0.215728 -0.923128 0
M  V30 772 H 69.6356 -0.212904 -3.51055 0
M  V30 773 H 69.5096 1.5361 -3.44505 0
M  V30 774 H 71.8966 1.63305 -2.45796 0
M  V30 775 H 71.9776 -0.131864 -2.5546 0
M  V30 776 H 71.6216 0.0123284 -5.07899 0
M  V30 777 H 71.5516 1.78802 -4.95316 0
M  V30 778 H 74.0426 0.896176 -3.6712 0
M  V30 779 H 74.3556 1.21921 -7.63122 0
M  V30 780 H 72.7006 1.10333 -6.86186 0
M  V30 781 H 75.8916 1.02805 -4.56671 0
M  V30 782 H 76.0646 1.17558 -6.37247 0
M  V30 783 N 69.4707 1.49531 0.497807 0
M  V30 784 C 70.4177 1.66436 1.59899 0
M  V30 785 C 71.3877 0.505793 1.58212 0
M  V30 786 O 72.5727 0.733202 1.7615 0
M  V30 787 C 69.7127 1.7399 2.98029 0
M  V30 788 C 68.8257 3.01172 3.09708 0
M  V30 789 C 67.9607 2.99686 4.38591 0
M  V30 790 C 66.9997 4.21434 4.43914 0
M  V30 791 N 66.1367 4.1784 5.64229 0
M  V30 792 H 70.9767 2.60459 1.44793 0
M  V30 793 H 68.5137 1.29137 0.704423 0
M  V30 794 H 70.4717 1.76352 3.78095 0
M  V30 795 H 69.1017 0.834301 3.11832 0
M  V30 796 H 68.1537 3.08408 2.22685 0
M  V30 797 H 69.4657 3.91165 3.09502 0
M  V30 798 H 68.6197 3.00628 5.2698 0
M  V30 799 H 67.3587 2.07477 4.41367 0
M  V30 800 H 66.3637 4.20733 3.53926 0
M  V30 801 H 67.5887 5.14839 4.42851 0
M  V30 802 H 65.5347 3.28469 5.67841 0
M  V30 803 H 65.4517 5.01571 5.65652 0
M  V30 804 H 66.7197 4.22889 6.54817 0
M  V30 805 N 70.9488 -0.749086 1.3866 0
M  V30 806 C 71.8788 -1.8764 1.38973 0
M  V30 807 C 72.8598 -1.68178 0.255004 0
M  V30 808 O 74.0448 -1.88704 0.458754 0
M  V30 809 C 71.1748 -3.25222 1.21851 0
M  V30 810 C 70.1288 -3.59295 2.32575 0
M  V30 811 C 69.4548 -4.95663 2.00555 0
M  V30 812 C 70.7548 -3.63709 3.7485 0
M  V30 813 H 72.4488 -1.87635 2.3331 0
M  V30 814 H 69.9948 -0.901329 1.12303 0
M  V30 815 H 71.9478 -4.03746 1.20695 0
M  V30 816 H 70.6718 -3.25719 0.239775 0
M  V30 817 H 69.3308 -2.83093 2.32925 0
M  V30 818 H 68.9788 -4.92724 1.01154 0
M  V30 819 H 68.6788 -5.19429 2.74714 0
M  V30 820 H 70.2028 -5.7656 2.01024 0
M  V30 821 H 71.6168 -4.32338 3.76506 0
M  V30 822 H 70.0138 -3.98986 4.48252 0
M  V30 823 H 71.0838 -2.63834 4.06841 0
M  V30 824 N 72.4269 -1.23603 -0.977757 0
M  V30 825 C 73.6729 -1.08136 -1.72274 0
M  V30 826 C 74.0279 0.377453 -1.88661 0
M  V30 827 O 73.3209 1.27552 -1.42972 0
M  V30 828 C 73.5149 -1.7433 -3.11999 0
M  V30 829 C 73.3439 -3.26498 -3.0924 0
M  V30 830 C 72.1139 -3.9567 -3.14282 0
M  V30 831 C 74.3119 -4.2323 -2.92201 0
M  V30 832 N 72.2939 -5.34799 -3.01436 0
M  V30 833 C 73.6649 -5.49289 -2.87544 0
M  V30 834 C 75.7199 -4.13931 -2.76705 0
M  V30 835 C 74.4229 -6.67116 -2.68978 0
M  V30 836 C 76.4489 -5.31424 -2.59504 0
M  V30 837 C 75.8109 -6.5641 -2.55548 0
M  V30 838 H 71.9099 -0.450247 -0.639376 0
M  V30 839 H 74.4939 -1.5637 -1.16002 0
M  V30 840 H 72.6649 -1.28624 -3.66484 0
M  V30 841 H 74.3969 -1.51815 -3.75146 0
M  V30 842 H 71.1519 -3.46767 -3.22567 0
M  V30 843 H 71.5759 -6.07748 -2.98281 0
M  V30 844 H 76.2179 -3.1807 -2.78552 0
M  V30 845 H 73.9359 -7.63109 -2.65876 0
M  V30 846 H 77.5219 -5.26072 -2.48474 0
M  V30 847 H 76.4019 -7.45795 -2.42405 0
M  V30 848 N 73.905 1.17692 -1.04816 0
M  V30 849 C 74.868 2.19787 -0.650117 0
M  V30 850 C 75.868 1.58044 0.296427 0
M  V30 851 O 77.058 1.74012 0.0808097 0
M  V30 852 C 74.19 3.40869 0.0456987 0
M  V30 853 H 75.383 2.56516 -1.5537 0
M  V30 854 H 72.936 1.31708 -0.841594 0
M  V30 855 H 73.671 3.09681 0.962726 0
M  V30 856 H 73.456 3.86928 -0.634727 0
M  V30 857 H 74.946 4.16445 0.310432 0
M  V30 858 N 75.3831 0.828654 1.34056 0
M  V30 859 C 76.6231 0.425394 1.99924 0
M  V30 860 C 76.9871 -0.994294 1.64249 0
M  V30 861 O 78.1881 -1.50074 2.23005 0
M  V30 862 C 76.4591 0.628071 3.51838 0
M  V30 863 S 78.0181 0.318511 4.37642 0
M  V30 864 H 74.8361 0.160465 0.692656 0
M  V30 865 H 77.4381 1.07572 1.63244 0
M  V30 866 H 76.1421 1.66089 3.7529 0
M  V30 867 H 75.6731 -0.0367799 3.93383 0
M  V30 868 H 77.6881 -0.865632 4.88591 0
M  V30 869 N 76.8612 -1.46375 0.584142 0
M  V30 870 C 77.7912 -2.33103 -0.136037 0
M  V30 871 C 78.7722 -1.45431 -0.882255 0
M  V30 872 O 79.9572 -1.74246 -0.857434 0
M  V30 873 C 77.0872 -3.27731 -1.14933 0
M  V30 874 C 76.0412 -4.24855 -0.517862 0
M  V30 875 C 75.3672 -5.09001 -1.63773 0
M  V30 876 C 76.6672 -5.19439 0.545886 0
M  V30 877 H 78.3612 -2.93568 0.588086 0
M  V30 878 H 75.9072 -1.41166 0.284259 0
M  V30 879 H 77.8602 -3.87261 -1.66153 0
M  V30 880 H 76.5842 -2.65377 -1.90375 0
M  V30 881 H 75.2432 -3.6659 -0.0267361 0
M  V30 882 H 74.8912 -4.43031 -2.38185 0
M  V30 883 H 74.5912 -5.74777 -1.22085 0
M  V30 884 H 76.1152 -5.71396 -2.15266 0
M  V30 885 H 77.5292 -5.73177 0.118704 0
M  V30 886 H 75.9262 -5.93566 0.88317 0
M  V30 887 H 76.9962 -4.63285 1.43162 0
M  V30 888 N 78.3393 -0.321999 -1.54275 0
M  V30 889 C 79.5873 0.280489 -2.00144 0
M  V30 890 C 79.9083 1.52777 -1.21178 0
M  V30 891 O 79.1783 1.9338 -0.313187 0
M  V30 892 H 77.7583 0.106632 -0.73935 0
M  V30 893 H 80.4203 -0.438184 -1.8991 0
M  V30 894 H 79.5163 0.537972 -3.07428 0
M  V30 895 N 79.8174 1.5752 -0.0501392 0
M  V30 896 C 81.0944 1.83996 0.663685 0
M  V30 897 C 81.4744 0.938339 1.89099 0
M  V30 898 O 80.8224 -0.00087759 2.285 0
M  V30 899 C 81.0324 3.33702 1.02196 0
M  V30 900 C 82.3804 4.00691 1.40469 0
M  V30 901 O 83.4044 3.38321 1.11433 0
M  V30 902 O 82.2634 5.10658 1.94654 0
M  V30 903 H 79.3574 0.759385 0.32751 0
M  V30 904 H 81.9034 1.69514 -0.0794238 0
M  V30 905 H 80.6754 3.91015 0.149364 0
M  V30 906 H 80.2984 3.53368 1.82255 0
M  V30 907 N 81.2955 -0.223234 1.56011 0
M  V30 908 C 82.5415 -0.949279 1.79211 0
M  V30 909 C 82.8745 -1.84054 0.619494 0
M  V30 910 O 82.1495 -1.90726 -0.381317 0
M  V30 911 C 82.4325 -1.78965 3.12479 0
M  V30 912 C 82.2855 -0.924997 4.40186 0
M  V30 913 C 83.6045 -2.76774 3.42175 0
M  V30 914 H 80.7235 -0.343676 0.651963 0
M  V30 915 H 83.3655 -0.218253 1.88742 0
M  V30 916 H 81.5155 -2.41291 3.04485 0
M  V30 917 H 83.1875 -0.318615 4.60198 0
M  V30 918 H 81.4305 -0.230344 4.33188 0
M  V30 919 H 82.1015 -1.54735 5.29869 0
M  V30 920 H 84.5775 -2.24584 3.50287 0
M  V30 921 H 83.4535 -3.32678 4.36597 0
M  V30 922 H 83.7145 -3.54429 2.64258 0
M  V30 923 N 82.7736 -1.49793 -0.48987 0
M  V30 924 C 83.9986 -1.63836 -1.27172 0
M  V30 925 C 84.4236 -0.31402 -1.8546 0
M  V30 926 O 83.7816 0.719803 -1.66399 0
M  V30 927 C 83.8296 -2.71797 -2.36978 0
M  V30 928 O 82.9336 -2.31744 -3.41128 0
M  V30 929 H 82.2746 -0.547997 -0.37496 0
M  V30 930 H 84.8046 -1.96053 -0.585191 0
M  V30 931 H 84.8146 -2.94305 -2.82575 0
M  V30 932 H 83.4896 -3.67923 -1.93921 0
M  V30 933 H 82.0666 -2.1961 -3.01373 0
M  V30 934 N 84.2517 0.741722 -1.39055 0
M  V30 935 C 85.6677 1.04638 -1.20512 0
M  V30 936 C 85.8677 2.01405 -0.0620218 0
M  V30 937 O 84.9237 2.45547 0.588457 0
M  V30 938 C 86.2367 1.6151 -2.53643 0
M  V30 939 C 87.7847 1.73623 -2.6043 0
M  V30 940 C 88.2597 2.33906 -3.93767 0
M  V30 941 N 89.7507 2.41323 -3.9537 0
M  V30 942 C 90.4857 2.88888 -4.95309 0
M  V30 943 N 89.9817 3.36401 -6.05645 0
M  V30 944 N 91.7747 2.88037 -4.82692 0
M  V30 945 H 83.9257 0.0998155 -2.12165 0
M  V30 946 H 86.1887 0.106907 -0.941953 0
M  V30 947 H 85.8947 0.978739 -3.37807 0
M  V30 948 H 85.7687 2.60411 -2.72885 0
M  V30 949 H 88.1557 2.36384 -1.76655 0
M  V30 950 H 88.2367 0.733945 -2.45045 0
M  V30 951 H 87.8807 1.71776 -4.7797 0
M  V30 952 H 87.8107 3.34799 -4.06469 0
M  V30 953 H 90.3017 2.07734 -3.15682 0
M  V30 954 H 90.6147 3.71186 -6.77821 0
M  V30 955 H 88.9597 3.34427 -6.09248 0
M  V30 956 H 92.1507 2.50237 -3.95599 0
M  V30 957 H 92.3237 3.24792 -5.60726 0
M  V30 958 N 85.7298 1.2412 0.971189 0
M  V30 959 C 86.6618 0.988349 2.06795 0
M  V30 960 C 87.6748 -0.0409541 1.62748 0
M  V30 961 O 88.8638 0.195673 1.77424 0
M  V30 962 C 85.9638 0.469023 3.35639 0
M  V30 963 C 85.1368 1.56065 4.08611 0
M  V30 964 C 84.1958 1.04458 5.15728 0
M  V30 965 O 83.2218 1.73553 5.42096 0
M  V30 966 N 84.4238 -0.122817 5.8037 0
M  V30 967 H 87.1888 1.93265 2.29061 0
M  V30 968 H 84.7498 1.15102 1.13856 0
M  V30 969 H 86.7418 0.108613 4.04554 0
M  V30 970 H 85.3118 -0.380919 3.1027 0
M  V30 971 H 84.5318 2.09341 3.34021 0
M  V30 972 H 85.8198 2.29449 4.54126 0
M  V30 973 H 85.2178 -0.700563 5.61345 0
M  V30 974 H 83.7748 -0.424404 6.50417 0
M  V30 975 N 87.2079 -1.17134 1.05439 0
M  V30 976 C 88.4539 -1.87733 0.767077 0
M  V30 977 C 88.7869 -1.8098 -0.704253 0
M  V30 978 O 88.0619 -1.21951 -1.5152 0
M  V30 979 C 88.3449 -3.37659 1.25133 0
M  V30 980 C 88.1979 -3.53149 2.78578 0
M  V30 981 C 89.5169 -4.31768 0.852324 0
M  V30 982 H 86.6359 -0.681687 0.280129 0
M  V30 983 H 89.2779 -1.37732 1.30881 0
M  V30 984 H 87.4279 -3.80373 0.790469 0
M  V30 985 H 89.0999 -3.19434 3.32806 0
M  V30 986 H 87.3429 -2.95345 3.17732 0
M  V30 987 H 88.0139 -4.58403 3.07523 0
M  V30 988 H 90.4899 -3.96909 1.24911 0
M  V30 989 H 89.3659 -5.35199 1.21873 0
M  V30 990 H 89.6269 -4.41429 -0.243485 0
M  V30 991 N 88.686 -0.835752 -1.33615 0
M  V30 992 C 89.596 -0.269088 -2.33052 0
M  V30 993 C 90.612 0.603251 -1.63208 0
M  V30 994 O 91.788 0.508112 -1.94885 0
M  V30 995 C 88.853 0.549091 -3.42324 0
M  V30 996 C 87.914 -0.347156 -4.27894 0
M  V30 997 C 87.147 0.43207 -5.31948 0
M  V30 998 O 87.37 1.66409 -5.45586 0
M  V30 999 O 86.304 -0.192298 -6.01593 0
M  V30 1000 H 90.13 -1.09243 -2.83372 0
M  V30 1001 H 87.715 -0.598198 -1.36901 0
M  V30 1002 H 89.597 1.01414 -4.09015 0
M  V30 1003 H 88.272 1.34955 -2.94226 0
M  V30 1004 H 87.179 -0.859979 -3.64081 0
M  V30 1005 H 88.512 -1.1123 -4.79467 0
M  V30 1006 N 90.1641 1.46063 -0.591896 0
M  V30 1007 C 91.4101 2.03203 -0.0894879 0
M  V30 1008 C 91.7651 1.45407 1.25994 0
M  V30 1009 O 91.0581 0.61326 1.8152 0
M  V30 1010 C 91.2521 3.57391 0.0249813 0
M  V30 1011 C 91.0811 4.30142 -1.3118 0
M  V30 1012 C 89.8511 4.68688 -1.88838 0
M  V30 1013 C 92.0491 4.63098 -2.23708 0
M  V30 1014 N 90.0311 5.26228 -3.1616 0
M  V30 1015 C 91.4021 5.21305 -3.3562 0
M  V30 1016 C 93.4571 4.45031 -2.23274 0
M  V30 1017 C 92.1601 5.63351 -4.47245 0
M  V30 1018 C 94.1861 4.881 -3.33935 0
M  V30 1019 C 93.5481 5.46386 -4.44569 0
M  V30 1020 H 89.6471 0.778323 -0.0757431 0
M  V30 1021 H 92.2311 1.78094 -0.78681 0
M  V30 1022 H 90.4021 3.82195 0.69149 0
M  V30 1023 H 92.1341 4.0118 0.532613 0
M  V30 1024 H 88.8891 4.5174 -1.42223 0
M  V30 1025 H 89.3131 5.59512 -3.8115 0
M  V30 1026 H 93.9551 3.99295 -1.39008 0
M  V30 1027 H 91.6731 6.08061 -5.32247 0
M  V30 1028 H 95.2591 4.75866 -3.34728 0
M  V30 1029 H 94.1391 5.79102 -5.28782 0
M  V30 1030 N 91.6422 0.330177 1.54103 0
M  V30 1031 C 92.5922 -0.548456 2.21305 0
M  V30 1032 C 93.5762 -1.07651 1.19583 0
M  V30 1033 O 94.7682 -1.01243 1.45186 0
M  V30 1034 C 91.8972 -1.70559 2.97934 0
M  V30 1035 C 90.9832 -1.19212 4.07 0
M  V30 1036 N 91.3742 -0.398831 5.04225 0
M  V30 1037 C 89.6722 -1.47024 4.2107 0
M  V30 1038 C 90.3732 -0.121761 5.81573 0
M  V30 1039 N 89.3492 -0.709722 5.38947 0
M  V30 1040 H 93.1512 0.0648483 2.93828 0
M  V30 1041 H 90.6652 0.136363 1.61826 0
M  V30 1042 H 92.6622 -2.34688 3.44568 0
M  V30 1043 H 91.3222 -2.32231 2.26934 0
M  V30 1044 H 92.3332 -0.0410869 5.17884 0
M  V30 1045 H 89.0102 -2.09232 3.61287 0
M  V30 1046 H 90.4002 0.517298 6.69906 0
M  V30 1047 N 93.1203 -1.57491 0.0584922 0
M  V30 1048 C 94.3683 -1.92597 -0.612436 0
M  V30 1049 C 94.6893 -0.938162 -1.70949 0
M  V30 1050 O 93.9593 0.0158301 -1.95894 0
M  V30 1051 H 92.5393 -0.710964 -0.229214 0
M  V30 1052 H 95.2013 -1.94571 0.113218 0
M  V30 1053 H 94.2973 -2.94038 -1.04633 0
M  V30 1054 N 94.5984 0.214957 -1.56127 0
M  V30 1055 C 96.0144 0.564948 -1.49267 0
M  V30 1056 C 96.2144 1.86827 -0.754838 0
M  V30 1057 O 95.2704 2.50745 -0.297198 0
M  V30 1058 C 96.5834 0.638071 -2.93852 0
M  V30 1059 C 98.1314 0.728253 -3.0441 0
M  V30 1060 C 98.6064 0.832663 -4.50367 0
M  V30 1061 N 100.097 0.896712 -4.54437 0
M  V30 1062 C 100.832 0.997324 -5.6466 0
M  V30 1063 N 100.328 1.06147 -6.8462 0
M  V30 1064 N 102.121 1.03297 -5.52527 0
M  V30 1065 H 94.2724 -0.640211 -2.02522 0
M  V30 1066 H 96.5354 -0.225507 -0.920788 0
M  V30 1067 H 96.2414 -0.250126 -3.50809 0
M  V30 1068 H 96.1154 1.49947 -3.46115 0
M  V30 1069 H 98.5024 1.60689 -2.47514 0
M  V30 1070 H 98.5834 -0.158952 -2.55306 0
M  V30 1071 H 98.2274 -0.0415417 -5.07883 0
M  V30 1072 H 98.1574 1.73538 -4.97184 0
M  V30 1073 H 100.648 0.857188 -3.6805 0
M  V30 1074 H 100.961 1.1382 -7.64372 0
M  V30 1075 H 99.3064 1.03049 -6.87318 0
M  V30 1076 H 102.497 0.979558 -4.57736 0
M  V30 1077 H 102.67 1.10793 -6.38458 0
M  V30 1078 N 96.0765 1.50051 0.48192 0
M  V30 1079 C 97.3225 1.61706 1.2338 0
M  V30 1080 C 97.6775 0.308488 1.89911 0
M  V30 1081 O 96.9705 -0.692798 1.78636 0
M  V30 1082 C 97.1645 2.72717 2.30998 0
M  V30 1083 C 96.9935 4.14242 1.75024 0
M  V30 1084 C 95.7635 4.80786 1.55476 0
M  V30 1085 C 97.9615 4.98846 1.25128 0
M  V30 1086 N 95.9435 6.06563 0.946311 0
M  V30 1087 C 97.3145 6.15258 0.765382 0
M  V30 1088 C 99.3695 4.84702 1.13881 0
M  V30 1089 C 98.0725 7.19079 0.178113 0
M  V30 1090 C 100.098 5.8869 0.565486 0
M  V30 1091 C 99.4605 7.04343 0.0899105 0
M  V30 1092 H 95.5595 0.645958 0.440753 0
M  V30 1093 H 98.1435 1.8713 0.537624 0
M  V30 1094 H 96.3145 2.49033 2.98055 0
M  V30 1095 H 98.0465 2.73789 2.9803 0
M  V30 1096 H 94.8015 4.37899 1.80392 0
M  V30 1097 H 95.2255 6.73767 0.660812 0
M  V30 1098 H 99.8675 3.95583 1.49244 0
M  V30 1099 H 97.5855 8.07882 -0.187749 0
M  V30 1100 H 101.171 5.79808 0.480974 0
M  V30 1101 H 100.051 7.83433 -0.346782 0
M  V30 1102 N 97.5546 -0.734337 1.39446 0
M  V30 1103 C 98.4846 -1.86155 1.40955 0
M  V30 1104 C 99.4656 -1.67898 0.272827 0
M  V30 1105 O 100.651 -1.88207 0.478743 0
M  V30 1106 C 97.7806 -3.23912 1.25294 0
M  V30 1107 C 96.7346 -3.56808 2.36373 0
M  V30 1108 C 96.0606 -4.93508 2.058 0
M  V30 1109 C 97.3606 -3.59713 3.78687 0
M  V30 1110 H 99.0546 -1.8515 2.35287 0
M  V30 1111 H 96.6006 -0.889367 1.13253 0
M  V30 1112 H 98.5536 -4.02443 1.2497 0
M  V30 1113 H 97.2776 -3.25446 0.274308 0
M  V30 1114 H 95.9366 -2.80606 2.35914 0
M  V30 1115 H 95.5846 -4.91623 1.06374 0
M  V30 1116 H 95.2846 -5.16486 2.80208 0
M  V30 1117 H 96.8086 -5.74396 2.07128 0
M  V30 1118 H 98.2226 -4.2832 3.81071 0
M  V30 1119 H 96.6196 -3.94209 4.52459 0
M  V30 1120 H 97.6896 -2.59504 4.09617 0
M  V30 1121 N 99.0327 -1.24633 -0.964593 0
M  V30 1122 C 100.31 -0.995809 -1.68354 0
M  V30 1123 C 100.69 0.480964 -2.05548 0
M  V30 1124 O 100.038 1.45599 -1.76105 0
M  V30 1125 C 100.248 -1.92177 -2.91323 0
M  V30 1126 C 101.596 -2.19446 -3.63495 0
M  V30 1127 O 102.62 -1.89855 -3.01386 0
M  V30 1128 O 101.479 -2.69714 -4.75307 0
M  V30 1129 H 98.5727 -0.376854 -0.736146 0
M  V30 1130 H 101.119 -1.35745 -1.0184 0
M  V30 1131 H 99.8907 -2.91938 -2.60553 0
M  V30 1132 H 99.5137 -1.56349 -3.65569 0
M  V30 1133 N 100.511 1.16574 -1.06058 0
M  V30 1134 C 101.474 2.19085 -0.673392 0
M  V30 1135 C 102.474 1.5835 0.279648 0
M  V30 1136 O 103.664 1.74088 0.0623488 0
M  V30 1137 C 100.796 3.40899 0.00954234 0
M  V30 1138 H 101.989 2.54853 -1.58081 0
M  V30 1139 H 99.5418 1.30808 -0.855516 0
M  V30 1140 H 100.277 3.10684 0.929826 0
M  V30 1141 H 100.062 3.86233 -0.67573 0
M  V30 1142 H 101.552 4.1675 0.266245 0
M  V30 1143 N 101.989 0.842826 1.3317 0
M  V30 1144 C 102.899 0.281444 2.32906 0
M  V30 1145 C 103.915 -0.594587 1.63526 0
M  V30 1146 O 105.091 -0.49777 1.95152 0
M  V30 1147 C 102.156 -0.530929 3.42611 0
M  V30 1148 C 101.217 0.369843 4.27704 0
M  V30 1149 C 100.45 -0.403853 5.3217 0
M  V30 1150 O 100.673 -1.63513 5.46461 0
M  V30 1151 O 99.6069 0.224199 6.01482 0
M  V30 1152 H 103.433 1.10744 2.82789 0
M  V30 1153 H 101.018 0.60545 1.36582 0
M  V30 1154 H 102.9 -0.992437 4.09547 0
M  V30 1155 H 101.575 -1.33392 2.94938 0
M  V30 1156 H 100.482 0.879275 3.6362 0
M  V30 1157 H 101.815 1.13771 4.78871 0
M  V30 1158 N 103.467 -1.45747 0.599634 0
M  V30 1159 C 104.692 -2.07178 0.0960198 0
M  V30 1160 C 105.117 -1.44268 -1.207 0
M  V30 1161 O 104.475 -0.532503 -1.73303 0
M  V30 1162 C 104.523 -3.60579 -0.0385348 0
M  V30 1163 O 103.627 -3.97713 -1.0908 0
M  V30 1164 H 102.968 -0.660251 0.0704593 0
M  V30 1165 H 105.498 -1.87124 0.827385 0
M  V30 1166 H 105.508 -4.07298 -0.239304 0
M  V30 1167 H 104.183 -4.05756 0.912947 0
M  V30 1168 H 102.76 -3.62678 -0.867135 0
M  V30 1169 N 104.945 -0.338344 -1.53925 0
M  V30 1170 C 106.191 0.252842 -2.01822 0
M  V30 1171 C 106.546 1.48612 -1.22197 0
M  V30 1172 O 105.839 1.89238 -0.299892 0
M  V30 1173 C 106.033 0.62448 -3.51902 0
M  V30 1174 C 105.862 -0.571235 -4.46057 0
M  V30 1175 C 104.632 -1.07493 -4.93734 0
M  V30 1176 C 106.83 -1.42807 -4.94076 0
M  V30 1177 N 104.812 -2.23351 -5.71828 0
M  V30 1178 C 106.183 -2.43362 -5.70241 0
M  V30 1179 C 108.238 -1.45412 -4.76193 0
M  V30 1180 C 106.941 -3.46346 -6.30426 0
M  V30 1181 C 108.967 -2.47274 -5.37224 0
M  V30 1182 C 108.329 -3.46555 -6.13253 0
M  V30 1183 H 104.428 0.0559669 -0.779995 0
M  V30 1184 H 107.012 -0.476732 -1.88773 0
M  V30 1185 H 105.183 1.32317 -3.65167 0
M  V30 1186 H 106.915 1.19841 -3.86549 0
M  V30 1187 H 103.67 -0.643848 -4.69203 0
M  V30 1188 H 104.094 -2.81834 -6.15548 0
M  V30 1189 H 108.736 -0.700171 -4.16962 0
M  V30 1190 H 106.454 -4.22638 -6.88769 0
M  V30 1191 H 110.04 -2.50109 -5.25297 0
M  V30 1192 H 108.92 -4.24083 -6.59638 0
M  V30 1193 N 106.423 1.57458 -0.0668435 0
M  V30 1194 C 107.37 2.12439 0.902122 0
M  V30 1195 C 108.34 1.03565 1.2986 0
M  V30 1196 O 109.525 1.312 1.38532 0
M  V30 1197 C 106.665 2.6865 2.16614 0
M  V30 1198 C 105.778 3.91663 1.82274 0
M  V30 1199 C 104.913 4.36134 3.0325 0
M  V30 1200 C 103.952 5.51808 2.64904 0
M  V30 1201 N 103.089 5.9126 3.78624 0
M  V30 1202 H 107.929 2.94934 0.426382 0
M  V30 1203 H 105.466 1.4575 0.198819 0
M  V30 1204 H 107.424 2.99346 2.90599 0
M  V30 1205 H 106.054 1.88928 2.61737 0
M  V30 1206 H 105.106 3.6746 0.983719 0
M  V30 1207 H 106.418 4.75693 1.50059 0
M  V30 1208 H 105.572 4.68465 3.85519 0
M  V30 1209 H 104.311 3.50948 3.38655 0
M  V30 1210 H 103.316 5.19133 1.81055 0
M  V30 1211 H 104.541 6.38722 2.30675 0
M  V30 1212 H 102.487 5.09024 4.138 0
M  V30 1213 H 102.404 6.70018 3.5016 0
M  V30 1214 H 103.672 6.28212 4.61486 0
M  V30 1215 N 107.901 -0.206675 1.56239 0
M  V30 1216 C 109.141 -0.93574 1.81723 0
M  V30 1217 C 109.505 -1.80927 0.642609 0
M  V30 1218 O 110.706 -2.57323 0.777081 0
M  V30 1219 C 108.977 -1.74012 3.12177 0
M  V30 1220 S 110.536 -2.52279 3.59028 0
M  V30 1221 H 107.354 -0.314065 0.637875 0
M  V30 1222 H 109.956 -0.200071 1.94474 0
M  V30 1223 H 108.66 -1.0888 3.95693 0
M  V30 1224 H 108.191 -2.51782 3.02274 0
M  V30 1225 H 110.206 -3.76209 3.23545 0
M  V30 1226 N 109.379 -1.50304 -0.473955 0
M  V30 1227 C 110.625 -1.61389 -1.22806 0
M  V30 1228 C 110.958 -0.311955 -1.91678 0
M  V30 1229 O 110.233 0.686384 -1.81986 0
M  V30 1230 C 110.516 -2.79219 -2.27396 0
M  V30 1231 C 110.369 -4.19286 -1.62848 0
M  V30 1232 C 111.688 -2.92614 -3.28732 0
M  V30 1233 H 108.807 -0.587399 -0.445119 0
M  V30 1234 H 111.449 -1.82681 -0.522265 0
M  V30 1235 H 109.599 -2.61195 -2.87592 0
M  V30 1236 H 111.271 -4.48892 -1.06271 0
M  V30 1237 H 109.514 -4.23677 -0.931693 0
M  V30 1238 H 110.185 -4.97655 -2.38838 0
M  V30 1239 H 112.661 -3.09105 -2.78556 0
M  V30 1240 H 111.537 -3.76688 -3.99246 0
M  V30 1241 H 111.798 -2.03107 -3.92683 0
M  V30 1242 N 110.857 0.726932 -1.39834 0
M  V30 1243 C 112.104 1.48664 -1.37496 0
M  V30 1244 C 112.432 1.94482 0.0264678 0
M  V30 1245 O 111.687 1.67692 1.00886 0
M  V30 1246 C 111.986 2.73495 -2.30077 0
M  V30 1247 C 111.652 2.46502 -3.77555 0
M  V30 1248 C 110.314 2.3885 -4.17737 0
M  V30 1249 C 112.666 2.23604 -4.70798 0
M  V30 1250 C 109.994 2.06352 -5.49214 0
M  V30 1251 C 112.346 1.92622 -6.02561 0
M  V30 1252 C 111.01 1.83444 -6.41798 0
M  V30 1253 H 110.28 0.544001 -0.503135 0
M  V30 1254 H 112.927 0.833657 -1.72402 0
M  V30 1255 H 111.232 3.43575 -1.88317 0
M  V30 1256 H 112.929 3.31549 -2.25558 0
M  V30 1257 H 109.519 2.5334 -3.45712 0
M  V30 1258 H 113.703 2.28479 -4.40581 0
M  V30 1259 H 108.959 1.97776 -5.78528 0
M  V30 1260 H 113.133 1.73914 -6.74334 0
M  V30 1261 H 110.76 1.58029 -7.43593 0
M  V30 1262 N 112.336 1.25143 0.95797 0
M  V30 1263 C 113.564 1.12424 1.73691 0
M  V30 1264 C 113.979 -0.322304 1.86029 0
M  V30 1265 O 113.336 -1.22186 1.35561 0
M  V30 1266 C 113.387 1.76933 3.15241 0
M  V30 1267 O 113.108 3.15932 3.03511 0
M  V30 1268 C 114.609 1.6995 4.09429 0
M  V30 1269 H 111.829 0.3923 0.544373 0
M  V30 1270 H 114.373 1.6544 1.20207 0
M  V30 1271 H 112.528 1.27895 3.6568 0
M  V30 1272 H 112.942 3.47598 3.9278 0
M  V30 1273 H 114.416 2.19753 5.06372 0
M  V30 1274 H 114.893 0.662619 4.34173 0
M  V30 1275 H 115.499 2.18461 3.64904 0
M  V30 1276 N 113.814 -1.1601 1.06675 0
M  V30 1277 C 114.777 -2.18724 0.685001 0
M  V30 1278 C 115.777 -1.58496 -0.271246 0
M  V30 1279 O 116.967 -1.74119 -0.0531156 0
M  V30 1280 C 114.099 -3.40899 0.00853648 0
M  V30 1281 H 115.292 -2.54011 1.59431 0
M  V30 1282 H 112.845 -1.30352 0.862441 0
M  V30 1283 H 113.58 -3.11173 -0.913337 0
M  V30 1284 H 113.365 -3.8587 0.696204 0
M  V30 1285 H 114.855 -4.16886 -0.24414 0
M  V30 1286 N 115.292 -0.849877 -1.32721 0
M  V30 1287 C 116.255 -0.296122 -2.27279 0
M  V30 1288 C 117.255 0.541458 -1.5141 0
M  V30 1289 O 118.445 0.353658 -1.70572 0
M  V30 1290 C 115.577 0.581579 -3.35902 0
M  V30 1291 H 116.77 -1.13064 -2.77771 0
M  V30 1292 H 114.323 -0.62383 -1.43311 0
M  V30 1293 H 115.058 1.43809 -2.9067 0
M  V30 1294 H 114.843 -0.0178814 -3.92096 0
M  V30 1295 H 116.333 0.961951 -4.0637 0
M  V30 1296 N 116.77 1.45427 -0.607355 0
M  V30 1297 C 117.7 2.3329 0.0989352 0
M  V30 1298 C 118.681 1.46816 0.859007 0
M  V30 1299 O 119.866 1.75588 0.829604 0
M  V30 1300 C 116.996 3.29518 1.09705 0
M  V30 1301 C 115.95 4.25626 0.450206 0
M  V30 1302 C 115.276 5.11542 1.55655 0
M  V30 1303 C 116.576 5.18505 -0.628455 0
M  V30 1304 H 118.27 2.92595 -0.634716 0
M  V30 1305 H 115.816 1.40696 -0.306681 0
M  V30 1306 H 117.769 3.89855 1.59971 0
M  V30 1307 H 116.493 2.68372 1.86129 0
M  V30 1308 H 115.152 3.66586 -0.0315886 0
M  V30 1309 H 114.8 4.46765 2.31107 0
M  V30 1310 H 114.5 5.76647 1.12925 0
M  V30 1311 H 116.024 5.74748 2.06148 0
M  V30 1312 H 117.438 5.72916 -0.209877 0
M  V30 1313 H 115.835 5.92085 -0.977489 0
M  V30 1314 H 116.905 4.60948 -1.50514 0
M  V30 1315 N 118.248 0.346503 1.53744 0
M  V30 1316 C 119.195 -0.508914 2.25119 0
M  V30 1317 C 120.165 -1.09315 1.25058 0
M  V30 1318 O 121.35 -1.12921 1.53797 0
M  V30 1319 C 118.49 -1.65246 3.02965 0
M  V30 1320 C 117.603 -1.09525 4.17886 0
M  V30 1321 C 116.738 -2.20634 4.83212 0
M  V30 1322 C 115.777 -1.62279 5.90196 0
M  V30 1323 N 114.914 -2.67143 6.49291 0
M  V30 1324 H 119.754 0.106283 2.9781 0
M  V30 1325 H 117.291 0.0642227 1.4696 0
M  V30 1326 H 119.249 -2.32574 3.4636 0
M  V30 1327 H 117.879 -2.2386 2.32565 0
M  V30 1328 H 116.931 -0.312818 3.79112 0
M  V30 1329 H 118.243 -0.628444 4.94825 0
M  V30 1330 H 117.397 -2.95821 5.29693 0
M  V30 1331 H 116.136 -2.70659 4.05703 0
M  V30 1332 H 115.141 -0.855989 5.43096 0
M  V30 1333 H 116.366 -1.13102 6.69615 0
M  V30 1334 H 114.312 -3.16417 5.74645 0
M  V30 1335 H 114.229 -2.25093 7.21713 0
M  V30 1336 H 115.497 -3.4209 7.00425 0
M  V30 1337 N 119.726 -1.57421 0.075193 0
M  V30 1338 C 120.658 -2.09904 -0.920483 0
M  V30 1339 C 121.671 -1.03191 -1.25918 0
M  V30 1340 O 122.86 -1.30695 -1.21577 0
M  V30 1341 C 119.96 -2.54726 -2.23534 0
M  V30 1342 C 119.133 -3.8505 -2.07498 0
M  V30 1343 C 118.192 -4.15929 -3.22319 0
M  V30 1344 O 117.218 -4.85474 -2.9716 0
M  V30 1345 N 118.42 -3.69745 -4.47514 0
M  V30 1346 H 121.185 -2.95954 -0.472359 0
M  V30 1347 H 118.746 -1.61523 -0.110444 0
M  V30 1348 H 120.738 -2.72443 -2.9926 0
M  V30 1349 H 119.308 -1.73795 -2.59835 0
M  V30 1350 H 118.528 -3.76679 -1.16219 0
M  V30 1351 H 119.816 -4.70348 -1.94038 0
M  V30 1352 H 119.214 -3.13569 -4.7084 0
M  V30 1353 H 117.771 -3.92655 -5.20255 0
M  V30 1354 N 121.204 0.198386 -1.56346 0
M  V30 1355 C 122.136 1.26987 -1.90806 0
M  V30 1356 C 123.149 1.41877 -0.798419 0
M  V30 1357 O 124.338 1.42362 -1.07682 0
M  V30 1358 C 121.438 2.64246 -2.12196 0
M  V30 1359 C 120.611 2.71007 -3.43328 0
M  V30 1360 C 119.67 3.89439 -3.5387 0
M  V30 1361 O 118.696 3.76695 -4.26719 0
M  V30 1362 N 119.898 5.04752 -2.86715 0
M  V30 1363 H 122.663 0.977433 -2.83313 0
M  V30 1364 H 120.224 0.388322 -1.57174 0
M  V30 1365 H 122.216 3.41896 -2.1654 0
M  V30 1366 H 120.786 2.85992 -1.26204 0
M  V30 1367 H 120.006 1.79657 -3.50881 0
M  V30 1368 H 121.294 2.72512 -4.29668 0
M  V30 1369 H 120.692 5.18004 -2.2735 0
M  V30 1370 H 119.249 5.8036 -2.96691 0
M  V30 1371 N 122.682 1.50554 0.465978 0
M  V30 1372 C 123.959 1.5232 1.22712 0
M  V30 1373 C 124.339 0.270807 2.09356 0
M  V30 1374 O 123.687 -0.745541 2.15995 0
M  V30 1375 C 123.897 2.82175 2.05374 0
M  V30 1376 C 125.245 3.33033 2.6339 0
M  V30 1377 O 126.269 2.83531 2.15612 0
M  V30 1378 O 125.128 4.19336 3.50456 0
M  V30 1379 H 122.222 0.611183 0.557122 0
M  V30 1380 H 124.768 1.62847 0.477381 0
M  V30 1381 H 123.54 3.64797 1.41558 0
M  V30 1382 H 123.163 2.74675 2.87471 0
M  V30 1383 N 124.16 -0.719506 1.40217 0
M  V30 1384 C 125.406 -1.48152 1.38488 0
M  V30 1385 C 125.739 -1.94195 -0.0141867 0
M  V30 1386 O 125.014 -1.67884 -0.982096 0
M  V30 1387 C 125.297 -2.71035 2.37091 0
M  V30 1388 C 125.15 -2.30912 3.86005 0
M  V30 1389 C 126.469 -3.73182 2.33288 0
M  V30 1390 H 123.588 -0.537395 0.504357 0
M  V30 1391 H 126.23 -0.821472 1.71324 0
M  V30 1392 H 124.38 -3.27352 2.0922 0
M  V30 1393 H 126.052 -1.80107 4.24687 0
M  V30 1394 H 124.295 -1.62958 4.02029 0
M  V30 1395 H 124.966 -3.18978 4.50508 0
M  V30 1396 H 127.442 -3.26485 2.57966 0
M  V30 1397 H 126.318 -4.56806 3.04334 0
M  V30 1398 H 126.579 -4.21202 1.34317 0
M  V30 1399 N 125.638 -1.25649 -0.95132 0
M  V30 1400 C 126.884 -1.10757 -1.69884 0
M  V30 1401 C 127.217 0.350061 -1.91019 0
M  V30 1402 O 126.492 1.25783 -1.48354 0
M  V30 1403 C 126.775 -1.86606 -3.07978 0
M  V30 1404 C 126.628 -3.40217 -2.94232 0
M  V30 1405 C 127.947 -1.65182 -4.07925 0
M  V30 1406 H 125.066 -0.40374 -0.616574 0
M  V30 1407 H 127.708 -1.54521 -1.10558 0
M  V30 1408 H 125.858 -1.49409 -3.58621 0
M  V30 1409 H 127.53 -3.87108 -2.50889 0
M  V30 1410 H 125.773 -3.67759 -2.30078 0
M  V30 1411 H 126.444 -3.88505 -3.92133 0
M  V30 1412 H 128.92 -1.9757 -3.66204 0
M  V30 1413 H 127.796 -2.20683 -5.02583 0
M  V30 1414 H 128.057 -0.593933 -4.38092 0
M  V30 1415 N 127.117 1.15442 -1.07289 0
M  V30 1416 C 128.528 1.67803 -0.818475 0
M  V30 1417 C 128.879 1.8489 0.656507 0
M  V30 1418 O 128.004 1.55176 1.50829 0
M  V30 1419 C 128.599 3.04805 -1.47917 0
M  V30 1420 C 127.158 3.54245 -1.27229 0
M  V30 1421 C 126.305 2.29986 -1.54925 0
M  V30 1422 H 129.256 0.996646 -1.23502 0
M  V30 1423 H 129.277 3.69702 -0.90005 0
M  V30 1424 H 128.789 2.92336 -2.55267 0
M  V30 1425 H 126.89 3.71956 -0.21899 0
M  V30 1426 H 127.003 4.35723 -1.99203 0
M  V30 1427 H 125.367 2.35496 -0.970242 0
M  V30 1428 H 126.15 2.20105 -2.63455 0
M  V30 1429 N 128.595 0.856903 1.32268 0
M  V30 1430 C 129.543 0.291987 2.3076 0
M  V30 1431 C 130.537 -0.585857 1.58947 0
M  V30 1432 O 131.743 -0.47341 1.73663 0
M  V30 1433 H 128.118 0.075721 0.748178 0
M  V30 1434 H 130.089 1.13687 2.75895 0
M  V30 1435 C 128.838 -0.502869 3.44044 0
M  V30 1436 H 128.161 0.163328 3.99466 0
M  V30 1437 H 129.601 -0.863691 4.1511 0
M  V30 1438 C 128.06 -1.68898 2.91505 0
M  V30 1439 O 128.59 -2.78811 2.89184 0
M  V30 1440 N 126.796 -1.51679 2.47875 0
M  V30 1441 H 126.343 -0.622666 2.49961 0
M  V30 1442 H 126.301 -2.31184 2.13076 0
M  V30 1443 N 130.073 -1.45103 0.615059 0
M  V30 1444 C 131.003 -2.33339 -0.0865619 0
M  V30 1445 C 131.984 -1.4727 -0.851209 0
M  V30 1446 O 133.169 -1.76026 -0.820281 0
M  V30 1447 C 130.299 -3.30095 -1.07956 0
M  V30 1448 C 129.253 -4.25858 -0.427628 0
M  V30 1449 C 128.579 -5.12361 -1.5294 0
M  V30 1450 C 129.879 -5.18165 0.655944 0
M  V30 1451 H 131.573 -2.92254 0.650224 0
M  V30 1452 H 129.119 -1.40532 0.314138 0
M  V30 1453 H 131.072 -3.90698 -1.57901 0
M  V30 1454 H 129.796 -2.69355 -1.84703 0
M  V30 1455 H 128.455 -3.66564 0.0510292 0
M  V30 1456 H 128.103 -4.47984 -2.28734 0
M  V30 1457 H 127.803 -5.77238 -1.09865 0
M  V30 1458 H 129.327 -5.75833 -2.03098 0
M  V30 1459 H 130.741 -5.72796 0.240257 0
M  V30 1460 H 129.138 -5.91559 1.00888 0
M  V30 1461 H 130.208 -4.60144 1.52957 0
M  V30 1462 N 131.551 -0.354651 -1.53558 0
M  V30 1463 C 132.514 0.484566 -2.24019 0
M  V30 1464 C 133.514 1.01861 -1.24422 0
M  V30 1465 O 134.704 0.906097 -1.4878 0
M  V30 1466 C 131.836 1.67615 -2.96847 0
M  V30 1467 H 133.029 -0.131843 -2.9961 0
M  V30 1468 H 130.582 -0.106165 -1.55939 0
M  V30 1469 H 131.317 2.33095 -2.25471 0
M  V30 1470 H 131.102 1.30029 -3.69912 0
M  V30 1471 H 132.592 2.27114 -3.50441 0
M  V30 1472 N 133.029 1.57378 -0.0835403 0
M  V30 1473 C 134.277 1.93547 0.581718 0
M  V30 1474 C 134.598 0.96524 1.69435 0
M  V30 1475 O 133.868 0.0153369 1.95894 0
M  V30 1476 H 132.448 0.714521 0.217874 0
M  V30 1477 H 135.11 1.94366 -0.144158 0
M  V30 1478 H 134.206 2.95665 0.999423 0
M  V30 1479 N 134.507 -0.190092 1.56449 0
M  V30 1480 C 135.455 -1.25501 1.95837 0
M  V30 1481 C 136.449 -1.4685 0.844485 0
M  V30 1482 O 137.655 -1.47651 1.02952 0
M  V30 1483 H 134.03 -0.421447 0.622805 0
M  V30 1484 H 136.001 -0.895821 2.84636 0
M  V30 1485 C 134.75 -2.59124 2.31841 0
M  V30 1486 H 134.073 -2.43514 3.17082 0
M  V30 1487 H 135.513 -3.32371 2.6326 0
M  V30 1488 C 133.972 -3.16488 1.15486 0
M  V30 1489 O 134.502 -3.99365 0.432535 0
M  V30 1490 N 132.708 -2.75305 0.930349 0
M  V30 1491 H 132.255 -2.08013 1.51948 0
M  V30 1492 H 132.213 -3.14024 0.153634 0
M  V30 1493 N 135.985 -1.50799 -0.457987 0
M  V30 1494 C 137.233 -1.62121 -1.2067 0
M  V30 1495 C 137.554 -0.329793 -1.92191 0
M  V30 1496 O 136.824 0.653409 -1.84682 0
M  V30 1497 H 135.404 -0.597441 -0.448411 0
M  V30 1498 H 138.066 -1.87637 -0.527096 0
M  V30 1499 H 137.162 -2.43882 -1.94751 0
M  V30 1500 N 137.463 0.71206 -1.40597 0
M  V30 1501 C 138.71 1.47197 -1.39065 0
M  V30 1502 C 139.038 1.94499 0.00583891 0
M  V30 1503 O 138.293 1.68752 0.99102 0
M  V30 1504 C 138.592 2.71039 -2.32965 0
M  V30 1505 C 138.258 2.42484 -3.80148 0
M  V30 1506 C 136.92 2.34406 -4.20247 0
M  V30 1507 C 139.272 2.18598 -4.73143 0
M  V30 1508 C 136.6 2.00516 -5.51371 0
M  V30 1509 C 138.952 1.8622 -6.0457 0
M  V30 1510 C 137.616 1.76626 -6.43708 0
M  V30 1511 H 136.886 0.538634 -0.508876 0
M  V30 1512 H 139.533 0.815325 -1.73276 0
M  V30 1513 H 137.838 3.41558 -1.91951 0
M  V30 1514 H 139.535 3.29138 -2.29061 0
M  V30 1515 H 136.125 2.49659 -3.4838 0
M  V30 1516 H 140.309 2.23793 -4.42979 0
M  V30 1517 H 135.565 1.91628 -5.80593 0
M  V30 1518 H 139.739 1.66752 -6.76141 0
M  V30 1519 H 137.366 1.50133 -7.45228 0
M  V30 1520 N 138.941 1.26152 0.944643 0
M  V30 1521 C 140.187 1.11657 1.69294 0
M  V30 1522 C 140.52 -0.339926 1.91202 0
M  V30 1523 O 139.795 -1.24994 1.49019 0
M  V30 1524 C 140.078 1.88236 3.06984 0
M  V30 1525 C 139.931 3.41772 2.92424 0
M  V30 1526 C 141.25 1.67343 4.07043 0
M  V30 1527 H 138.369 0.407004 0.614424 0
M  V30 1528 H 141.011 1.55106 1.09737 0
M  V30 1529 H 139.161 1.51308 3.57824 0
M  V30 1530 H 140.833 3.88433 2.48832 0
M  V30 1531 H 139.076 3.68974 2.28124 0
M  V30 1532 H 139.747 3.90579 3.90067 0
M  V30 1533 H 142.223 1.99509 3.65151 0
M  V30 1534 H 141.099 2.23346 5.01406 0
M  V30 1535 H 141.36 0.617158 4.37771 0
M  V30 1536 N 140.419 -1.14872 1.07899 0
M  V30 1537 C 141.665 -1.86064 0.806725 0
M  V30 1538 C 141.998 -1.82434 -0.665706 0
M  V30 1539 O 141.273 -1.25138 -1.48899 0
M  V30 1540 C 141.556 -3.34929 1.32267 0
M  V30 1541 C 141.409 -3.47161 2.86006 0
M  V30 1542 C 142.728 -4.29863 0.943717 0
M  V30 1543 H 139.847 -0.675591 0.294526 0
M  V30 1544 H 142.489 -1.34925 1.33773 0
M  V30 1545 H 140.639 -3.78611 0.870974 0
M  V30 1546 H 142.311 -3.12302 3.39507 0
M  V30 1547 H 140.554 -2.88539 3.23925 0
M  V30 1548 H 141.225 -4.51777 3.17177 0
M  V30 1549 H 143.701 -3.9417 1.33302 0
M  V30 1550 H 142.577 -5.32494 1.33198 0
M  V30 1551 H 142.838 -4.41846 -0.149796 0
M  V30 1552 N 141.898 -0.863906 -1.31812 0
M  V30 1553 C 143.147 -0.46801 -1.96195 0
M  V30 1554 C 143.46 0.983474 -1.69077 0
M  V30 1555 O 144.666 1.48523 -2.27273 0
M  V30 1556 C 143.122 -0.785995 -3.51212 0
M  V30 1557 C 142.73 -2.25383 -3.87178 0
M  V30 1558 C 144.474 -0.458274 -4.22019 0
M  V30 1559 C 142.381 -2.51455 -5.3528 0
M  V30 1560 H 141.311 -0.171283 -0.734287 0
M  V30 1561 H 143.962 -1.05597 -1.50072 0
M  V30 1562 H 142.344 -0.127359 -3.95795 0
M  V30 1563 H 143.518 -2.95502 -3.53575 0
M  V30 1564 H 141.833 -2.54698 -3.2942 0
M  V30 1565 H 144.43 -0.630369 -5.30971 0
M  V30 1566 H 144.773 0.600834 -4.11941 0
M  V30 1567 H 145.306 -1.07319 -3.8305 0
M  V30 1568 H 142.045 -3.56025 -5.50387 0
M  V30 1569 H 141.565 -1.85923 -5.70257 0
M  V30 1570 H 143.244 -2.35874 -6.02472 0
M  V30 1571 N 143.376 1.44774 -0.622745 0
M  V30 1572 C 144.624 2.01721 -0.123655 0
M  V30 1573 C 144.945 1.49172 1.25589 0
M  V30 1574 O 144.215 0.691974 1.83272 0
M  V30 1575 H 142.795 0.745777 -0.0427225 0
M  V30 1576 H 145.457 1.77382 -0.807559 0
M  V30 1577 H 144.553 3.11984 -0.0849534 0
M  V30 1578 N 144.854 0.36279 1.53368 0
M  V30 1579 C 145.786 -0.519668 2.23231 0
M  V30 1580 C 146.799 -1.04844 1.24546 0
M  V30 1581 O 147.988 -0.955296 1.50786 0
M  V30 1582 C 145.088 -1.72995 2.9142 0
M  V30 1583 C 144.261 -1.33316 4.16588 0
M  V30 1584 C 143.32 -2.40521 4.68013 0
M  V30 1585 O 142.346 -2.03027 5.3176 0
M  V30 1586 N 143.548 -3.72065 4.45587 0
M  V30 1587 H 146.313 0.078751 2.99597 0
M  V30 1588 H 143.874 0.187833 1.60807 0
M  V30 1589 H 145.866 -2.44184 3.22733 0
M  V30 1590 H 144.436 -2.2353 2.18525 0
M  V30 1591 H 143.656 -0.451236 3.91609 0
M  V30 1592 H 144.944 -1.04432 4.97967 0
M  V30 1593 H 144.342 -4.05304 3.94646 0
M  V30 1594 H 142.899 -4.39366 4.81457 0
M  V30 1595 N 146.332 -1.57332 0.0918853 0
M  V30 1596 C 147.557 -1.98995 -0.584442 0
M  V30 1597 C 147.982 -0.970528 -1.61128 0
M  V30 1598 O 147.34 0.0613904 -1.81196 0
M  V30 1599 C 147.388 -3.39636 -1.21161 0
M  V30 1600 O 146.492 -3.40447 -2.32744 0
M  V30 1601 H 145.833 -0.647165 -0.148572 0
M  V30 1602 H 148.363 -2.03873 0.172347 0
M  V30 1603 H 148.373 -3.7726 -1.55367 0
M  V30 1604 H 147.048 -4.13356 -0.459313 0
M  V30 1605 H 145.625 -3.14614 -2.0018 0
M  V30 1606 N 147.81 0.181792 -1.56548 0
M  V30 1607 C 149.038 0.915947 -1.85521 0
M  V30 1608 C 149.453 1.76282 -0.676016 0
M  V30 1609 O 148.81 1.79012 0.355077 0
M  V30 1610 C 148.861 1.80126 -3.13427 0
M  V30 1611 O 148.582 0.988562 -4.26801 0
M  V30 1612 C 150.083 2.64597 -3.55673 0
M  V30 1613 H 147.303 0.26661 -0.61576 0
M  V30 1614 H 149.847 0.185039 -2.03661 0
M  V30 1615 H 148.002 2.48563 -2.97145 0
M  V30 1616 H 148.416 1.59308 -4.99721 0
M  V30 1617 H 149.89 3.2235 -4.48101 0
M  V30 1618 H 150.367 3.38958 -2.79292 0
M  V30 1619 H 150.973 2.0151 -3.74532 0
M  V30 1620 N 149.288 1.51039 0.449983 0
M  V30 1621 C 150.513 1.6715 1.22783 0
M  V30 1622 C 150.938 0.363081 1.84563 0
M  V30 1623 O 150.296 -0.675433 1.68249 0
M  V30 1624 C 150.344 2.77985 2.29689 0
M  V30 1625 O 149.448 2.40707 3.34864 0
M  V30 1626 H 148.789 0.557746 0.360299 0
M  V30 1627 H 151.319 1.97535 0.533005 0
M  V30 1628 H 151.329 3.01693 2.74673 0
M  V30 1629 H 150.004 3.72935 1.84098 0
M  V30 1630 H 148.581 2.27523 2.95445 0
M  V30 1631 N 150.766 -0.704594 1.40972 0
M  V30 1632 C 152.182 -1.01406 1.23244 0
M  V30 1633 C 152.382 -2.01169 0.115399 0
M  V30 1634 O 151.438 -2.47021 -0.523147 0
M  V30 1635 C 152.751 -1.54728 2.57836 0
M  V30 1636 C 154.299 -1.66658 2.64942 0
M  V30 1637 C 154.774 -2.23383 3.9983 0
M  V30 1638 N 156.265 -2.30756 4.01629 0
M  V30 1639 C 157 -2.75655 5.02794 0
M  V30 1640 N 156.496 -3.20225 6.14352 0
M  V30 1641 N 158.289 -2.75138 4.90159 0
M  V30 1642 H 150.44 -0.0435285 2.12355 0
M  V30 1643 H 152.703 -0.0818951 0.944456 0
M  V30 1644 H 152.409 -0.888832 3.40283 0
M  V30 1645 H 152.283 -2.53084 2.79693 0
M  V30 1646 H 154.67 -2.31617 1.8286 0
M  V30 1647 H 154.751 -0.668717 2.46904 0
M  V30 1648 H 154.395 -1.59043 4.82357 0
M  V30 1649 H 154.325 -3.23904 4.15203 0
M  V30 1650 H 156.816 -1.99291 3.21079 0
M  V30 1651 H 157.129 -3.53084 6.87424 0
M  V30 1652 H 155.474 -3.18156 6.17901 0
M  V30 1653 H 158.665 -2.39661 4.02095 0
M  V30 1654 H 158.838 -3.09812 5.6914 0
M  V30 1655 N 152.244 -1.26651 -0.937939 0
M  V30 1656 C 153.177 -1.02811 -2.03728 0
M  V30 1657 C 154.155 0.0481915 -1.62529 0
M  V30 1658 O 155.339 -0.0948839 -1.88261 0
M  V30 1659 C 152.466 -0.557517 -3.3408 0
M  V30 1660 C 151.512 -1.62686 -3.94253 0
M  V30 1661 S 152.345 -3.21667 -4.28125 0
M  V30 1662 C 153.501 -2.76384 -5.61572 0
M  V30 1663 H 153.734 -1.95891 -2.23638 0
M  V30 1664 H 151.267 -1.10367 -1.07974 0
M  V30 1665 H 153.225 -0.292674 -4.09455 0
M  V30 1666 H 151.886 0.353062 -3.12109 0
M  V30 1667 H 151.079 -1.24866 -4.88287 0
M  V30 1668 H 150.681 -1.84324 -3.25424 0
M  V30 1669 H 152.973 -2.2105 -6.40424 0
M  V30 1670 H 153.916 -3.69123 -6.0428 0
M  V30 1671 H 154.324 -2.15847 -5.21604 0
M  V30 1672 N 153.722 1.14298 -1.08507 0
M  V30 1673 C 155.138 1.37347 -0.812901 0
M  V30 1674 C 155.338 1.93052 0.577325 0
M  V30 1675 O 154.394 2.14389 1.33393 0
M  V30 1676 C 155.707 2.33359 -1.89642 0
M  V30 1677 C 157.255 2.46996 -1.92255 0
M  V30 1678 C 157.73 3.46309 -2.99724 0
M  V30 1679 N 159.221 3.53853 -2.98902 0
M  V30 1680 C 159.956 4.3055 -3.787 0
M  V30 1681 N 159.452 5.10482 -4.6838 0
M  V30 1682 N 161.245 4.25757 -3.66998 0
M  V30 1683 H 153.396 0.764867 -1.9815 0
M  V30 1684 H 155.659 0.398966 -0.859959 0
M  V30 1685 H 155.365 1.99565 -2.89597 0
M  V30 1686 H 155.239 3.33274 -1.76659 0
M  V30 1687 H 157.626 2.80081 -0.929445 0
M  V30 1688 H 157.707 1.47039 -2.09316 0
M  V30 1689 H 157.351 3.13957 -3.99241 0
M  V30 1690 H 157.281 4.46049 -2.79907 0
M  V30 1691 H 159.772 2.96812 -2.33904 0
M  V30 1692 H 160.085 5.66284 -5.25873 0
M  V30 1693 H 158.43 5.09747 -4.72422 0
M  V30 1694 H 161.621 3.62383 -2.96304 0
M  V30 1695 H 161.794 4.85279 -4.29427 0
M  V30 1696 N 155.201 0.870884 1.31352 0
M  V30 1697 C 156.447 0.482987 1.96965 0
M  V30 1698 C 156.78 -0.962462 1.68672 0
M  V30 1699 O 156.055 -1.6779 0.98371 0
M  V30 1700 C 156.338 0.741752 3.52378 0
M  V30 1701 C 156.191 2.2368 3.9024 0
M  V30 1702 C 157.51 0.208838 4.39604 0
M  V30 1703 H 154.629 0.176955 0.715441 0
M  V30 1704 H 157.271 1.09229 1.55464 0
M  V30 1705 H 155.421 0.223149 3.87859 0
M  V30 1706 H 157.093 2.82273 3.64856 0
M  V30 1707 H 155.336 2.70901 3.38814 0
M  V30 1708 H 156.007 2.3685 4.98604 0
M  V30 1709 H 158.483 0.652529 4.10952 0
M  V30 1710 H 157.359 0.419336 5.47296 0
M  V30 1711 H 157.62 -0.889275 4.33064 0
M  V30 1712 N 156.679 -1.44442 0.630414 0
M  V30 1713 C 157.927 -2.01653 0.134351 0
M  V30 1714 C 158.248 -1.49836 -1.24796 0
M  V30 1715 O 157.518 -0.701684 -1.82902 0
M  V30 1716 H 156.098 -0.74554 0.0466769 0
M  V30 1717 H 158.76 -1.76952 0.816955 0
M  V30 1718 H 157.856 -3.11935 0.101498 0
M  V30 1719 N 158.157 -0.370918 -1.53173 0
M  V30 1720 C 159.067 0.480823 -2.2962 0
M  V30 1721 C 160.083 1.08789 -1.35798 0
M  V30 1722 O 161.259 1.09768 -1.68858 0
M  V30 1723 C 158.324 1.60227 -3.07454 0
M  V30 1724 C 157.385 1.0222 -4.16953 0
M  V30 1725 C 156.618 2.0902 -4.91066 0
M  V30 1726 O 156.841 3.30222 -4.65091 0
M  V30 1727 O 155.775 1.71778 -5.76867 0
M  V30 1728 H 159.601 -0.141421 -3.03371 0
M  V30 1729 H 157.186 -0.135146 -1.48787 0
M  V30 1730 H 159.068 2.25417 -3.56041 0
M  V30 1731 H 157.743 2.20982 -2.36535 0
M  V30 1732 H 156.65 0.334064 -3.72605 0
M  V30 1733 H 157.983 0.459131 -4.90054 0
M  V30 1734 N 159.635 1.57281 -0.100228 0
M  V30 1735 C 160.882 1.94537 0.562268 0
M  V30 1736 C 161.21 0.982315 1.67871 0
M  V30 1737 O 160.465 0.00280936 1.957 0
M  V30 1738 C 160.764 3.38305 1.15259 0
M  V30 1739 C 160.43 4.50618 0.159409 0
M  V30 1740 C 159.092 4.81066 -0.113741 0
M  V30 1741 C 161.444 5.18615 -0.518461 0
M  V30 1742 C 158.772 5.76835 -1.07137 0
M  V30 1743 C 161.124 6.15412 -1.46459 0
M  V30 1744 C 159.788 6.44262 -1.74592 0
M  V30 1745 H 159.058 0.711863 0.205748 0
M  V30 1746 H 161.705 1.90679 -0.17715 0
M  V30 1747 H 160.01 3.38766 1.96836 0
M  V30 1748 H 161.707 3.64435 1.67297 0
M  V30 1749 H 158.297 4.2689 0.382491 0
M  V30 1750 H 162.481 4.95264 -0.320581 0
M  V30 1751 H 157.737 5.975 -1.29628 0
M  V30 1752 H 161.911 6.67194 -1.99564 0
M  V30 1753 H 159.538 7.1828 -2.48953 0
M  V30 1754 N 161.113 -0.173488 1.56642 0
M  V30 1755 C 162.076 -1.19859 1.95362 0
M  V30 1756 C 163.076 -1.37296 0.83704 0
M  V30 1757 O 164.266 -1.34739 1.10413 0
M  V30 1758 C 161.398 -2.56405 2.24654 0
M  V30 1759 H 162.591 -0.867062 2.87092 0
M  V30 1760 H 160.144 -0.415853 1.50666 0
M  V30 1761 H 160.879 -2.94576 1.35631 0
M  V30 1762 H 160.664 -2.45115 3.06041 0
M  V30 1763 H 162.154 -3.30287 2.5554 0
M  V30 1764 N 162.591 -1.51276 -0.441967 0
M  V30 1765 C 163.501 -1.75092 -1.56141 0
M  V30 1766 C 164.517 -0.634963 -1.62001 0
M  V30 1767 O 165.693 -0.916686 -1.79329 0
M  V30 1768 C 162.758 -1.86666 -2.92158 0
M  V30 1769 C 161.819 -3.10506 -2.96453 0
M  V30 1770 C 161.052 -3.21519 -4.25982 0
M  V30 1771 O 161.275 -2.38586 -5.18105 0
M  V30 1772 O 160.209 -4.14465 -4.36466 0
M  V30 1773 H 164.035 -2.70044 -1.38961 0
M  V30 1774 H 161.62 -1.35722 -0.624499 0
M  V30 1775 H 163.502 -1.96292 -3.72891 0
M  V30 1776 H 162.177 -0.949014 -3.09476 0
M  V30 1777 H 161.084 -3.06363 -2.14692 0
M  V30 1778 H 162.417 -4.01945 -2.84079 0
M  V30 1779 N 164.069 0.697108 -1.41344 0
M  V30 1780 C 164.999 1.82353 -1.45841 0
M  V30 1781 C 165.98 1.67115 -0.317247 0
M  V30 1782 O 167.165 1.86871 -0.528474 0
M  V30 1783 C 164.295 3.20476 -1.33838 0
M  V30 1784 C 163.249 3.50415 -2.4575 0
M  V30 1785 C 162.575 4.87878 -2.18813 0
M  V30 1786 C 163.875 3.49546 -3.88091 0
M  V30 1787 H 165.569 1.78846 -2.40113 0
M  V30 1788 H 163.115 0.859028 -1.15571 0
M  V30 1789 H 165.068 3.98988 -1.35596 0
M  V30 1790 H 163.792 3.24604 -0.360498 0
M  V30 1791 H 162.451 2.74253 -2.43271 0
M  V30 1792 H 162.099 4.8863 -1.19371 0
M  V30 1793 H 161.799 5.08875 -2.93803 0
M  V30 1794 H 163.323 5.68702 -2.22284 0
M  V30 1795 H 164.737 4.18066 -3.92293 0
M  V30 1796 H 163.134 3.82075 -4.62751 0
M  V30 1797 H 164.204 2.48552 -4.16353 0
M  V30 1798 N 165.547 1.27147 0.931209 0
M  V30 1799 C 166.477 1.12081 2.04842 0
M  V30 1800 C 167.458 0.0232364 1.70084 0
M  V30 1801 O 168.643 0.197085 1.93197 0
M  V30 1802 C 165.773 0.76354 3.38803 0
M  V30 1803 C 164.727 1.81396 3.87659 0
M  V30 1804 C 164.053 1.31075 5.18385 0
M  V30 1805 C 165.353 3.21739 4.11438 0
M  V30 1806 H 167.047 2.05537 2.17703 0
M  V30 1807 H 164.593 0.989603 1.04608 0
M  V30 1808 H 166.546 0.644982 4.16435 0
M  V30 1809 H 165.27 -0.206727 3.25945 0
M  V30 1810 H 163.929 1.92136 3.12217 0
M  V30 1811 H 163.577 0.330037 5.01916 0
M  V30 1812 H 163.277 2.013 5.52044 0
M  V30 1813 H 164.801 1.20506 5.98591 0
M  V30 1814 H 166.215 3.14019 4.79651 0
M  V30 1815 H 164.612 3.89644 4.56397 0
M  V30 1816 H 165.682 3.67054 3.16859 0
M  V30 1817 N 167.025 -1.13721 1.09112 0
M  V30 1818 C 167.935 -2.22638 0.73957 0
M  V30 1819 C 168.951 -1.72091 -0.257068 0
M  V30 1820 O 170.127 -2.01155 -0.0992154 0
M  V30 1821 C 167.192 -3.46322 0.16191 0
M  V30 1822 C 166.253 -4.11775 1.21408 0
M  V30 1823 C 165.486 -5.29555 0.663891 0
M  V30 1824 O 165.709 -5.68077 -0.514274 0
M  V30 1825 O 164.643 -5.84973 1.41738 0
M  V30 1826 H 168.469 -2.55074 1.64836 0
M  V30 1827 H 166.054 -1.21791 0.865289 0
M  V30 1828 H 167.936 -4.21107 -0.157073 0
M  V30 1829 H 166.611 -3.15593 -0.719932 0
M  V30 1830 H 165.518 -3.3883 1.58571 0
M  V30 1831 H 166.851 -4.46627 2.06845 0
M  V30 1832 N 168.503 -0.877838 -1.30888 0
M  V30 1833 C 169.433 -0.35534 -2.3078 0
M  V30 1834 C 170.414 0.557994 -1.60687 0
M  V30 1835 O 171.599 0.473355 -1.88343 0
M  V30 1836 C 168.729 0.437221 -3.44537 0
M  V30 1837 C 167.683 -0.383715 -4.26276 0
M  V30 1838 C 167.009 0.535014 -5.32017 0
M  V30 1839 C 168.309 -1.62201 -4.96476 0
M  V30 1840 H 170.003 -1.19007 -2.74732 0
M  V30 1841 H 167.549 -0.573698 -1.32078 0
M  V30 1842 H 169.502 0.813334 -4.13477 0
M  V30 1843 H 168.226 1.30553 -2.99372 0
M  V30 1844 H 166.885 -0.741874 -3.59015 0
M  V30 1845 H 166.533 1.40083 -4.831 0
M  V30 1846 H 166.233 -0.0104211 -5.87599 0
M  V30 1847 H 167.757 0.907799 -6.03814 0
M  V30 1848 H 169.171 -1.31689 -5.5797 0
M  V30 1849 H 167.568 -2.10711 -5.61891 0
M  V30 1850 H 168.638 -2.37044 -4.23011 0
M  V30 1851 N 169.982 1.44106 -0.638065 0
M  V30 1852 C 171.231 2.01194 -0.142744 0
M  V30 1853 C 171.544 1.50835 1.24532 0
M  V30 1854 O 172.75 2.00096 1.83504 0
M  V30 1855 C 171.206 3.59319 -0.20442 0
M  V30 1856 C 170.814 4.18674 -1.59423 0
M  V30 1857 C 172.558 4.23854 0.234079 0
M  V30 1858 C 170.465 5.69045 -1.61065 0
M  V30 1859 H 169.395 0.752367 -0.0495998 0
M  V30 1860 H 172.046 1.65246 -0.797881 0
M  V30 1861 H 170.428 3.92598 0.517946 0
M  V30 1862 H 171.602 3.96921 -2.34074 0
M  V30 1863 H 169.917 3.66453 -1.97741 0
M  V30 1864 H 172.514 5.34155 0.241443 0
M  V30 1865 H 172.857 3.96688 1.2627 0
M  V30 1866 H 173.39 3.95403 -0.436025 0
M  V30 1867 H 170.129 6.00956 -2.61787 0
M  V30 1868 H 169.649 5.929 -0.90718 0
M  V30 1869 H 171.328 6.32809 -1.34766 0
M  V30 1870 N 171.46 0.379036 1.52974 0
M  V30 1871 C 172.392 -0.495963 2.2377 0
M  V30 1872 C 173.405 -1.03517 1.25651 0
M  V30 1873 O 174.594 -0.939249 1.51791 0
M  V30 1874 C 171.694 -1.69894 2.93239 0
M  V30 1875 C 170.867 -1.2889 4.17979 0
M  V30 1876 C 169.926 -2.35543 4.70538 0
M  V30 1877 O 168.952 -1.97375 5.33883 0
M  V30 1878 N 170.154 -3.67318 4.49508 0
M  V30 1879 H 172.919 0.110523 2.99496 0
M  V30 1880 H 170.48 0.204878 1.60598 0
M  V30 1881 H 172.472 -2.40747 3.25304 0
M  V30 1882 H 171.042 -2.212 2.20883 0
M  V30 1883 H 170.262 -0.409676 3.92065 0
M  V30 1884 H 171.55 -0.991443 4.99047 0
M  V30 1885 H 170.948 -4.01095 3.98923 0
M  V30 1886 H 169.505 -4.34235 4.8609 0
M  V30 1887 N 172.938 -1.57226 0.108567 0
M  V30 1888 C 173.901 -2.13602 -0.831082 0
M  V30 1889 C 174.901 -1.06841 -1.20173 0
M  V30 1890 O 176.091 -1.32666 -1.12895 0
M  V30 1891 C 173.223 -2.66769 -2.12243 0
M  V30 1892 H 174.416 -2.97951 -0.341317 0
M  V30 1893 H 171.969 -1.55667 -0.14057 0
M  V30 1894 H 172.704 -1.85977 -2.65675 0
M  V30 1895 H 172.489 -3.44839 -1.86625 0
M  V30 1896 H 173.979 -3.10332 -2.79435 0
M  V30 1897 N 174.416 0.165178 -1.56732 0
M  V30 1898 C 175.663 0.880807 -1.8234 0
M  V30 1899 C 175.991 1.81977 -0.686621 0
M  V30 1900 O 175.246 1.92971 0.325697 0
M  V30 1901 C 175.545 1.70405 -3.1416 0
M  V30 1902 C 175.211 0.913475 -4.4155 0
M  V30 1903 C 173.873 0.695303 -4.7615 0
M  V30 1904 C 176.225 0.359349 -5.1996 0
M  V30 1905 C 173.553 -0.0879947 -5.86634 0
M  V30 1906 C 175.905 -0.410893 -6.31264 0
M  V30 1907 C 174.569 -0.639808 -6.64427 0
M  V30 1908 H 173.839 0.32231 -0.667231 0
M  V30 1909 H 176.486 0.145402 -1.90947 0
M  V30 1910 H 174.791 2.50903 -3.00923 0
M  V30 1911 H 176.488 2.26091 -3.31186 0
M  V30 1912 H 173.078 1.09357 -4.14414 0
M  V30 1913 H 177.262 0.515228 -4.93618 0
M  V30 1914 H 172.518 -0.27503 -6.10781 0
M  V30 1915 H 176.692 -0.847494 -6.91224 0
M  V30 1916 H 174.319 -1.24864 -7.49875 0
M  V30 1917 N 175.894 1.51508 0.433938 0
M  V30 1918 C 177.142 1.6402 1.18075 0
M  V30 1919 C 177.463 0.360328 1.91642 0
M  V30 1920 O 176.733 -0.623945 1.85698 0
M  V30 1921 H 175.313 0.6045 0.43885 0
M  V30 1922 H 177.975 1.88452 0.497178 0
M  V30 1923 H 177.071 2.46949 1.90847 0
M  V30 1924 N 177.372 -0.689602 1.41712 0
M  V30 1925 C 178.6 -1.47827 1.44758 0
M  V30 1926 C 179.015 -1.88721 0.0545703 0
M  V30 1927 O 178.372 -1.57176 -0.927463 0
M  V30 1928 C 178.423 -2.73698 2.3616 0
M  V30 1929 O 178.144 -2.34524 3.7004 0
M  V30 1930 C 179.645 -3.67389 2.48072 0
M  V30 1931 H 176.865 -0.455357 0.49284 0
M  V30 1932 H 179.409 -0.848574 1.86063 0
M  V30 1933 H 177.564 -3.32891 1.98148 0
M  V30 1934 H 177.978 -3.15701 4.18847 0
M  V30 1935 H 179.452 -4.52475 3.16181 0
M  V30 1936 H 179.929 -4.12284 1.51388 0
M  V30 1937 H 180.535 -3.14097 2.86746 0
M  V30 1938 N 178.85 -1.27639 -0.924453 0
M  V30 1939 C 179.76 -1.12466 -2.05885 0
M  V30 1940 C 180.776 -0.053869 -1.73917 0
M  V30 1941 O 181.952 -0.261012 -1.99702 0
M  V30 1942 C 179.017 -0.776768 -3.37886 0
M  V30 1943 C 178.078 -1.92878 -3.83532 0
M  V30 1944 C 177.311 -1.59739 -5.09234 0
M  V30 1945 O 177.534 -0.506782 -5.68144 0
M  V30 1946 O 176.468 -2.43761 -5.50331 0
M  V30 1947 H 180.294 -2.07671 -2.21599 0
M  V30 1948 H 177.879 -1.06857 -1.04413 0
M  V30 1949 H 179.761 -0.596229 -4.17161 0
M  V30 1950 H 178.436 0.145732 -3.23372 0
M  V30 1951 H 177.343 -2.1644 -3.0513 0
M  V30 1952 H 178.676 -2.8316 -4.02593 0
M  V30 1953 N 180.328 1.1314 -1.09713 0
M  V30 1954 C 181.744 1.36477 -0.827423 0
M  V30 1955 C 181.944 1.93654 0.556817 0
M  V30 1956 O 181 2.15791 1.31112 0
M  V30 1957 C 182.313 2.31334 -1.92106 0
M  V30 1958 C 183.861 2.44943 -1.94864 0
M  V30 1959 C 184.336 3.4311 -3.0338 0
M  V30 1960 N 185.827 3.50662 -3.02639 0
M  V30 1961 C 186.562 4.2651 -3.83246 0
M  V30 1962 N 186.058 5.05485 -4.73768 0
M  V30 1963 N 187.851 4.2184 -3.71493 0
M  V30 1964 H 180.002 0.743807 -1.9895 0
M  V30 1965 H 182.265 0.389823 -0.864143 0
M  V30 1966 H 181.971 1.96483 -2.91698 0
M  V30 1967 H 181.845 3.31381 -1.80184 0
M  V30 1968 H 184.232 2.79079 -0.959099 0
M  V30 1969 H 184.313 1.4481 -2.10864 0
M  V30 1970 H 183.957 3.09704 -4.02549 0
M  V30 1971 H 183.887 4.43055 -2.84622 0
M  V30 1972 H 186.378 2.94315 -2.37039 0
M  V30 1973 H 186.691 5.60675 -5.3185 0
M  V30 1974 H 185.036 5.04708 -4.77802 0
M  V30 1975 H 188.227 3.5922 -3.00131 0
M  V30 1976 H 188.4 4.80697 -4.3455 0
M  V30 1977 N 181.806 0.884767 1.30421 0
M  V30 1978 C 183.054 0.502112 1.95763 0
M  V30 1979 C 183.375 -0.951815 1.70192 0
M  V30 1980 O 182.645 -1.6692 1.0254 0
M  V30 1981 H 181.225 0.182694 0.724315 0
M  V30 1982 H 183.887 1.1278 1.58955 0
M  V30 1983 H 182.983 0.672188 3.04775 0
M  V30 1984 N 183.284 -1.43765 0.645699 0
M  V30 1985 C 184.53 -2.02197 0.156271 0
M  V30 1986 C 184.863 -1.50776 -1.22393 0
M  V30 1987 O 184.138 -0.697771 -1.81553 0
M  V30 1988 C 184.421 -3.59749 0.158872 0
M  V30 1989 C 184.274 -4.21419 1.57245 0
M  V30 1990 C 185.593 -4.37149 -0.50879 0
M  V30 1991 H 182.712 -0.734694 0.0582602 0
M  V30 1992 H 185.354 -1.71157 0.824951 0
M  V30 1993 H 183.504 -3.86325 -0.410525 0
M  V30 1994 H 185.176 -4.059 2.19186 0
M  V30 1995 H 183.419 -3.78356 2.122 0
M  V30 1996 H 184.09 -5.30482 1.52619 0
M  V30 1997 H 186.566 -4.16093 -0.024412 0
M  V30 1998 H 185.442 -5.4683 -0.476213 0
M  V30 1999 H 185.703 -4.12839 -1.58165 0
M  V30 2000 N 184.763 -0.387143 -1.52771 0
M  V30 2001 C 185.71 0.449048 -2.26389 0
M  V30 2002 C 186.68 1.05961 -1.27912 0
M  V30 2003 O 187.865 1.08804 -1.56737 0
M  V30 2004 C 185.005 1.57155 -3.0724 0
M  V30 2005 C 184.118 0.984066 -4.20643 0
M  V30 2006 C 183.253 2.07745 -4.88892 0
M  V30 2007 C 182.292 1.46574 -5.94292 0
M  V30 2008 N 181.429 2.49834 -6.56146 0
M  V30 2009 H 186.269 -0.185205 -2.97424 0
M  V30 2010 H 183.806 -0.103164 -1.46738 0
M  V30 2011 H 185.764 2.23309 -3.52405 0
M  V30 2012 H 184.394 2.17615 -2.38419 0
M  V30 2013 H 183.446 0.212193 -3.79808 0
M  V30 2014 H 184.758 0.497029 -4.96318 0
M  V30 2015 H 183.912 2.81673 -5.3735 0
M  V30 2016 H 182.651 2.59807 -4.12737 0
M  V30 2017 H 181.656 0.711696 -5.45174 0
M  V30 2018 H 182.881 0.953088 -6.72379 0
M  V30 2019 H 180.827 3.0107 -5.82832 0
M  V30 2020 H 180.744 2.05879 -7.27427 0
M  V30 2021 H 182.012 3.23399 -7.09249 0
M  V30 2022 N 186.241 1.57166 -0.116904 0
M  V30 2023 C 187.487 1.96206 0.536166 0
M  V30 2024 C 187.842 0.99915 1.64422 0
M  V30 2025 O 187.135 0.0288195 1.91578 0
M  V30 2026 C 187.329 3.39508 1.11664 0
M  V30 2027 C 187.158 4.49651 0.0663474 0
M  V30 2028 C 185.928 5.03982 -0.36474 0
M  V30 2029 C 188.126 5.09322 -0.713829 0
M  V30 2030 N 186.108 5.97699 -1.40102 0
M  V30 2031 C 187.479 5.98963 -1.60136 0
M  V30 2032 C 189.534 4.91989 -0.764948 0
M  V30 2033 C 188.237 6.73128 -2.53556 0
M  V30 2034 C 190.263 5.66833 -1.68685 0
M  V30 2035 C 189.625 6.56158 -2.56196 0
M  V30 2036 H 185.724 0.764203 0.165886 0
M  V30 2037 H 188.308 1.93623 -0.204535 0
M  V30 2038 H 186.479 3.42743 1.82707 0
M  V30 2039 H 188.211 3.65677 1.73386 0
M  V30 2040 H 184.966 4.73592 0.027252 0
M  V30 2041 H 185.39 6.49262 -1.91802 0
M  V30 2042 H 190.032 4.22676 -0.102501 0
M  V30 2043 H 187.75 7.41689 -3.20816 0
M  V30 2044 H 191.336 5.55427 -1.73181 0
M  V30 2045 H 190.216 7.13057 -3.26372 0
M  V30 2046 N 187.719 -0.156864 1.56817 0
M  V30 2047 C 188.944 -0.890331 1.87318 0
M  V30 2048 C 189.369 -1.74394 0.704855 0
M  V30 2049 O 188.727 -1.77972 -0.345786 0
M  V30 2050 C 188.775 -1.73102 3.16336 0
M  V30 2051 O 187.879 -2.83422 2.99576 0
M  V30 2052 H 187.22 -0.24857 0.615718 0
M  V30 2053 H 189.75 -0.150649 2.04045 0
M  V30 2054 H 189.76 -2.12803 3.48107 0
M  V30 2055 H 188.435 -1.10412 4.00976 0
M  V30 2056 H 187.012 -2.47199 2.7919 0
M  V30 2057 N 189.197 -1.51736 -0.425897 0
M  V30 2058 C 190.474 -1.55519 -1.1863 0
M  V30 2059 C 190.854 -0.326219 -2.08564 0
M  V30 2060 O 190.202 0.688012 -2.17896 0
M  V30 2061 C 190.412 -2.87521 -1.9782 0
M  V30 2062 C 191.76 -3.39899 -2.54468 0
M  V30 2063 O 192.784 -2.89148 -2.08019 0
M  V30 2064 O 191.643 -4.2848 -3.39215 0
M  V30 2065 H 188.737 -0.625739 -0.540721 0
M  V30 2066 H 191.283 -1.64055 -0.434038 0
M  V30 2067 H 190.055 -3.68422 -1.31836 0
M  V30 2068 H 189.678 -2.822 -2.80088 0
M  V30 2069 N 190.675 0.682077 -1.42076 0
M  V30 2070 C 191.585 1.82535 -1.47371 0
M  V30 2071 C 192.601 1.7017 -0.363079 0
M  V30 2072 O 193.777 1.91848 -0.612875 0
M  V30 2073 C 190.842 3.18624 -1.36674 0
M  V30 2074 C 189.903 3.42999 -2.58167 0
M  V30 2075 C 189.136 4.72595 -2.4797 0
M  V30 2076 O 189.359 5.50006 -1.5116 0
M  V30 2077 O 188.293 4.98054 -3.37974 0
M  V30 2078 H 192.119 1.81023 -2.43853 0
M  V30 2079 H 189.704 0.836887 -1.2376 0
M  V30 2080 H 191.586 3.99847 -1.33043 0
M  V30 2081 H 190.261 3.20789 -0.433138 0
M  V30 2082 H 189.168 2.61653 -2.67373 0
M  V30 2083 H 190.501 3.45659 -3.50401 0
M  V30 2084 N 192.153 1.28127 0.917671 0
M  V30 2085 C 193.116 1.11744 2.00115 0
M  V30 2086 C 194.116 0.0583052 1.60694 0
M  V30 2087 O 195.306 0.303755 1.71531 0
M  V30 2088 C 192.438 0.704862 3.33533 0
M  V30 2089 H 193.631 2.07966 2.16079 0
M  V30 2090 H 191.184 1.11058 1.09981 0
M  V30 2091 H 191.919 -0.258299 3.2327 0
M  V30 2092 H 191.704 1.4699 3.63505 0
M  V30 2093 H 193.194 0.612768 4.1308 0
M  V30 2094 N 193.631 -1.12557 1.10312 0
M  V30 2095 C 195.047 -1.36036 0.834649 0
M  V30 2096 C 195.247 -1.93946 -0.546539 0
M  V30 2097 O 194.303 -2.16484 -1.29966 0
M  V30 2098 C 195.616 -2.30312 1.9333 0
M  V30 2099 C 197.164 -2.43906 1.9616 0
M  V30 2100 C 197.639 -3.41496 3.05195 0
M  V30 2101 N 199.13 -3.49053 3.04494 0
M  V30 2102 C 199.865 -4.24471 3.85502 0
M  V30 2103 N 199.361 -5.02966 4.76442 0
M  V30 2104 N 201.154 -4.19864 3.73725 0
M  V30 2105 H 193.305 -0.733246 1.99342 0
M  V30 2106 H 195.568 -0.385234 0.866198 0
M  V30 2107 H 195.274 -1.94933 2.92735 0
M  V30 2108 H 195.148 -3.30421 1.81939 0
M  V30 2109 H 197.535 -2.78567 0.973886 0
M  V30 2110 H 197.616 -1.4369 2.11629 0
M  V30 2111 H 197.26 -3.07565 4.04186 0
M  V30 2112 H 197.19 -4.41539 2.86968 0
M  V30 2113 H 199.681 -2.93053 2.38596 0
M  V30 2114 H 199.994 -5.57846 5.34815 0
M  V30 2115 H 198.339 -5.02167 4.80472 0
M  V30 2116 H 201.53 -3.57623 3.02032 0
M  V30 2117 H 201.703 -4.78386 4.37093 0
M  V30 2118 N 195.109 -0.891671 -1.2995 0
M  V30 2119 C 196.039 -0.379797 -2.30391 0
M  V30 2120 C 197.02 0.540919 -1.6127 0
M  V30 2121 O 198.205 0.453352 -1.88834 0
M  V30 2122 C 195.335 0.400654 -3.44981 0
M  V30 2123 C 194.289 -0.428905 -4.25846 0
M  V30 2124 C 193.615 0.478557 -5.32554 0
M  V30 2125 C 194.915 -1.67458 -4.94727 0
M  V30 2126 H 196.609 -1.21914 -2.73454 0
M  V30 2127 H 194.155 -0.587675 -1.31462 0
M  V30 2128 H 196.108 0.769434 -4.14316 0
M  V30 2129 H 194.832 1.27371 -3.0074 0
M  V30 2130 H 193.491 -0.779911 -3.58208 0
M  V30 2131 H 193.139 1.34951 -4.84559 0
M  V30 2132 H 192.839 -0.0727433 -5.87555 0
M  V30 2133 H 194.363 0.843705 -6.04743 0
M  V30 2134 H 195.777 -1.376 -5.56542 0
M  V30 2135 H 194.174 -2.16659 -5.59624 0
M  V30 2136 H 195.244 -2.41518 -4.20473 0
M  V30 2137 N 196.587 1.43421 -0.653314 0
M  V30 2138 C 197.55 2.29182 0.0287951 0
M  V30 2139 C 198.55 1.42213 0.750465 0
M  V30 2140 O 199.74 1.63843 0.591701 0
M  V30 2141 C 196.872 3.24278 1.05151 0
M  V30 2142 H 198.065 2.90985 -0.725786 0
M  V30 2143 H 195.618 1.50702 -0.414545 0
M  V30 2144 H 196.353 2.6737 1.83532 0
M  V30 2145 H 196.138 3.88396 0.537687 0
M  V30 2146 H 197.628 3.88647 1.52786 0
M  V30 2147 N 198.065 0.39524 1.52563 0
M  V30 2148 C 198.995 -0.428384 2.29537 0
M  V30 2149 C 199.976 -1.05831 1.33169 0
M  V30 2150 O 201.161 -1.06995 1.62067 0
M  V30 2151 C 198.291 -1.55274 3.10656 0
M  V30 2152 C 197.245 -1.04855 4.14957 0
M  V30 2153 C 196.571 -2.26543 4.84337 0
M  V30 2154 C 197.871 -0.112324 5.22179 0
M  V30 2155 H 199.565 0.213867 2.98635 0
M  V30 2156 H 197.111 0.104298 1.43622 0
M  V30 2157 H 199.064 -2.1358 3.63265 0
M  V30 2158 H 197.788 -2.22266 2.39302 0
M  V30 2159 H 196.447 -0.487985 3.63338 0
M  V30 2160 H 196.095 -2.92059 4.09525 0
M  V30 2161 H 195.795 -1.93466 5.54837 0
M  V30 2162 H 197.319 -2.85481 5.39753 0
M  V30 2163 H 198.733 -0.603752 5.70112 0
M  V30 2164 H 197.13 0.128968 5.99961 0
M  V30 2165 H 198.2 0.837052 4.77621 0
M  V30 2166 N 199.544 -1.57102 0.125237 0
M  V30 2167 C 200.454 -2.19191 -0.8362 0
M  V30 2168 C 201.47 -1.16985 -1.28805 0
M  V30 2169 O 202.646 -1.49479 -1.34974 0
M  V30 2170 C 199.711 -2.78407 -2.06617 0
M  V30 2171 C 198.772 -3.9567 -1.66565 0
M  V30 2172 C 198.005 -4.52052 -2.83698 0
M  V30 2173 O 198.228 -4.07326 -3.99302 0
M  V30 2174 O 197.162 -5.42645 -2.60423 0
M  V30 2175 H 200.988 -3.01816 -0.337776 0
M  V30 2176 H 198.573 -1.4906 -0.100695 0
M  V30 2177 H 200.455 -3.16129 -2.7864 0
M  V30 2178 H 199.13 -1.9881 -2.55453 0
M  V30 2179 H 198.037 -3.62705 -0.916296 0
M  V30 2180 H 199.37 -4.76722 -1.22464 0
M  V30 2181 N 201.022 0.148545 -1.56898 0
M  V30 2182 C 202.268 0.857877 -1.84424 0
M  V30 2183 C 202.623 1.7886 -0.709006 0
M  V30 2184 O 201.916 1.89344 0.293139 0
M  V30 2185 C 202.11 1.67064 -3.1595 0
M  V30 2186 C 201.939 0.82011 -4.42159 0
M  V30 2187 C 200.709 0.486328 -5.02954 0
M  V30 2188 C 202.907 0.151155 -5.14078 0
M  V30 2189 N 200.889 -0.377956 -6.12735 0
M  V30 2190 C 202.26 -0.573333 -6.17343 0
M  V30 2191 C 204.315 0.0716685 -4.97848 0
M  V30 2192 C 203.018 -1.3698 -7.06137 0
M  V30 2193 C 205.044 -0.711532 -5.87104 0
M  V30 2194 C 204.406 -1.42431 -6.8985 0
M  V30 2195 H 200.505 0.291798 -0.725519 0
M  V30 2196 H 203.089 0.123347 -1.94309 0
M  V30 2197 H 201.26 2.37642 -3.07215 0
M  V30 2198 H 202.992 2.32302 -3.31388 0
M  V30 2199 H 199.747 0.821753 -4.66416 0
M  V30 2200 H 200.171 -0.801077 -6.72244 0
M  V30 2201 H 204.813 0.608381 -4.184 0
M  V30 2202 H 202.531 -1.91778 -7.85014 0
M  V30 2203 H 206.117 -0.775005 -5.76615 0
M  V30 2204 H 204.997 -2.02061 -7.57721 0
M  V30 2205 N 202.5 1.5196 0.417844 0
M  V30 2206 C 203.447 1.74678 1.50852 0
M  V30 2207 C 204.417 0.588947 1.55308 0
M  V30 2208 O 205.602 0.825544 1.72016 0
M  V30 2209 C 202.742 1.89544 2.88387 0
M  V30 2210 C 201.855 3.17166 2.93309 0
M  V30 2211 C 200.99 3.22513 4.22088 0
M  V30 2212 C 200.029 4.44372 4.20951 0
M  V30 2213 N 199.166 4.47161 5.41287 0
M  V30 2214 H 204.006 2.67768 1.30783 0
M  V30 2215 H 201.543 1.32689 0.63498 0
M  V30 2216 H 203.501 1.96146 3.68216 0
M  V30 2217 H 202.131 0.998424 3.06971 0
M  V30 2218 H 201.183 3.19778 2.06024 0
M  V30 2219 H 202.495 4.07021 2.88332 0
M  V30 2220 H 201.649 3.28139 5.10303 0
M  V30 2221 H 200.388 2.30581 4.29748 0
M  V30 2222 H 199.393 4.38902 3.31127 0
M  V30 2223 H 200.618 5.3759 4.14938 0
M  V30 2224 H 198.564 3.58108 5.49632 0
M  V30 2225 H 198.481 5.3085 5.3827 0
M  V30 2226 H 199.749 4.57005 6.3148 0
M  V30 2227 N 203.978 -0.674533 1.42435 0
M  V30 2228 C 204.941 -1.76986 1.45632 0
M  V30 2229 C 205.941 -1.5708 0.343871 0
M  V30 2230 O 207.131 -1.63367 0.604709 0
M  V30 2231 C 204.263 -3.15623 1.28822 0
M  V30 2232 H 205.456 -1.75539 2.43158 0
M  V30 2233 H 203.009 -0.884189 1.28887 0
M  V30 2234 H 203.744 -3.22696 0.322193 0
M  V30 2235 H 203.529 -3.31475 2.09444 0
M  V30 2236 H 205.019 -3.95537 1.33942 0
M  V30 2237 N 205.456 -1.28612 -0.910864 0
M  V30 2238 C 206.872 -1.06381 -1.18976 0
M  V30 2239 C 207.072 0.191998 -2.00583 0
M  V30 2240 O 206.128 0.892869 -2.36187 0
M  V30 2241 C 207.441 -2.31295 -1.92154 0
M  V30 2242 C 208.989 -2.36503 -2.05025 0
M  V30 2243 C 209.464 -3.61191 -2.81612 0
M  V30 2244 N 210.955 -3.61847 -2.89172 0
M  V30 2245 C 211.69 -4.55004 -3.4894 0
M  V30 2246 N 211.186 -5.58482 -4.09963 0
M  V30 2247 N 212.979 -4.42594 -3.46506 0
M  V30 2248 H 205.13 -2.09221 -0.366094 0
M  V30 2249 H 207.393 -0.921003 -0.224629 0
M  V30 2250 H 207.099 -3.228 -1.39618 0
M  V30 2251 H 206.973 -2.37934 -2.9269 0
M  V30 2252 H 209.36 -1.45494 -2.5674 0
M  V30 2253 H 209.441 -2.33857 -1.03657 0
M  V30 2254 H 209.085 -4.52545 -2.30576 0
M  V30 2255 H 209.015 -3.61092 -3.83302 0
M  V30 2256 H 211.506 -2.87022 -2.45819 0
M  V30 2257 H 211.819 -6.25704 -4.53557 0
M  V30 2258 H 210.164 -5.62305 -4.08459 0
M  V30 2259 H 213.355 -3.60953 -2.98045 0
M  V30 2260 H 213.528 -5.15381 -3.92793 0
M  V30 2261 N 206.934 1.1197 -1.10907 0
M  V30 2262 C 208.18 1.84059 -0.865674 0
M  V30 2263 C 208.535 1.82731 0.602254 0
M  V30 2264 O 207.828 1.26543 1.43866 0
M  V30 2265 C 208.022 3.30749 -1.35425 0
M  V30 2266 C 207.851 3.46363 -2.86815 0
M  V30 2267 C 206.621 3.59712 -3.54874 0
M  V30 2268 C 208.819 3.41116 -3.84895 0
M  V30 2269 N 206.801 3.63741 -4.94536 0
M  V30 2270 C 208.172 3.51698 -5.10596 0
M  V30 2271 C 210.227 3.24612 -3.77533 0
M  V30 2272 C 208.93 3.4748 -6.29802 0
M  V30 2273 C 210.956 3.21708 -4.96244 0
M  V30 2274 C 210.318 3.32856 -6.20795 0
M  V30 2275 H 206.417 0.689015 -0.369841 0
M  V30 2276 H 209.001 1.34016 -1.41237 0
M  V30 2277 H 207.172 3.79322 -0.834814 0
M  V30 2278 H 208.904 3.90718 -1.05458 0
M  V30 2279 H 205.659 3.62038 -3.05329 0
M  V30 2280 H 206.083 3.69408 -5.67333 0
M  V30 2281 H 210.725 3.14883 -2.8215 0
M  V30 2282 H 208.443 3.55978 -7.25469 0
M  V30 2283 H 212.029 3.10113 -4.92261 0
M  V30 2284 H 210.909 3.3059 -7.11112 0
M  V30 2285 N 208.412 0.89855 1.29475 0
M  V30 2286 C 209.66 0.522847 1.9522 0
M  V30 2287 C 209.981 -0.93371 1.71192 0
M  V30 2288 O 209.251 -1.65823 1.04305 0
M  V30 2289 H 207.831 0.190366 0.722336 0
M  V30 2290 H 210.493 1.14459 1.5775 0
M  V30 2291 H 209.589 0.704476 3.04045 0
M  V30 2292 N 209.89 -1.43072 0.660911 0
M  V30 2293 C 211.167 -1.95307 0.107017 0
M  V30 2294 C 211.547 -1.60192 -1.37484 0
M  V30 2295 O 210.895 -0.890949 -2.10415 0
M  V30 2296 C 211.105 -3.47124 0.361402 0
M  V30 2297 C 212.453 -4.23738 0.270455 0
M  V30 2298 O 213.477 -3.54981 0.294382 0
M  V30 2299 O 212.336 -5.46131 0.200737 0
M  V30 2300 H 209.43 -0.826984 -0.00517729 0
M  V30 2301 H 211.976 -1.52972 0.734681 0
M  V30 2302 H 210.748 -3.65837 1.38848 0
M  V30 2303 H 210.371 -3.96475 -0.298953 0
M  V30 2304 N 211.368 -0.403325 -1.52352 0
M  V30 2305 C 212.784 -0.0539281 -1.59509 0
M  V30 2306 C 212.984 1.43307 -1.41652 0
M  V30 2307 O 212.04 2.19924 -1.24056 0
M  V30 2308 C 213.353 -0.543654 -2.95745 0
M  V30 2309 C 214.901 -0.501125 -3.08962 0
M  V30 2310 C 215.376 -0.967267 -4.47669 0
M  V30 2311 N 216.867 -0.923849 -4.53893 0
M  V30 2312 C 217.602 -1.25578 -5.5948 0
M  V30 2313 N 217.098 -1.65889 -6.72646 0
M  V30 2314 N 218.891 -1.17613 -5.49658 0
M  V30 2315 H 211.042 -1.37123 -1.62206 0
M  V30 2316 H 213.305 -0.56294 -0.76276 0
M  V30 2317 H 213.011 -1.58275 -3.14073 0
M  V30 2318 H 212.885 0.0498042 -3.77167 0
M  V30 2319 H 215.272 0.528909 -2.90321 0
M  V30 2320 H 215.353 -1.13056 -2.2946 0
M  V30 2321 H 214.997 -1.9956 -4.67053 0
M  V30 2322 H 214.927 -0.314698 -5.25659 0
M  V30 2323 H 217.418 -0.627403 -3.72655 0
M  V30 2324 H 217.731 -1.89543 -7.49195 0
M  V30 2325 H 216.076 -1.69787 -6.73942 0
M  V30 2326 H 219.267 -0.860115 -4.6013 0
M  V30 2327 H 219.44 -1.43812 -6.3184 0
M  V30 2328 N 212.846 1.57033 -0.133567 0
M  V30 2329 C 213.809 2.14897 0.796995 0
M  V30 2330 C 214.809 1.0874 1.18458 0
M  V30 2331 O 215.999 1.34446 1.1077 0
M  V30 2332 C 213.131 2.70112 2.07973 0
M  V30 2333 H 214.324 2.98457 0.293873 0
M  V30 2334 H 211.877 1.55871 0.115787 0
M  V30 2335 H 212.612 1.9018 2.62682 0
M  V30 2336 H 212.397 3.47764 1.81115 0
M  V30 2337 H 213.887 3.14738 2.74462 0
M  V30 2338 N 214.325 -0.140222 1.56975 0
M  V30 2339 C 215.288 -1.15689 1.97861 0
M  V30 2340 C 216.288 -1.3549 0.865974 0
M  V30 2341 O 217.478 -1.32367 1.13246 0
M  V30 2342 C 214.61 -2.51582 2.30042 0
M  V30 2343 H 215.803 -0.805971 2.88867 0
M  V30 2344 H 213.356 -0.383801 1.51515 0
M  V30 2345 H 214.091 -2.91632 1.41849 0
M  V30 2346 H 213.876 -2.38569 3.11171 0
M  V30 2347 H 215.366 -3.24792 2.62488 0
M  V30 2348 O 215.842 -1.58968 -0.284834 0
M  V30 2349 H 216.533 -1.69867 -0.930848 0
M  V30 END ATOM
M  V30 BEGIN BOND
M  V30 END BOND
M  V30 END CTAB
M  END
$$$$
