drugbank_target|P16544 Putative ketoacyl reductase (DB01942; DB03461; DB07715)
 OpenBabel12092120233D

  0  0  0     0  0            999 V3000
M  V30 BEGIN CTAB
M  V30 COUNTS 3846 3872 0 0 0
M  V30 BEGIN ATOM
M  V30 1 H -0.908 1.98254 -0.117106 0
M  V30 2 N 0 1.576 0 0
M  V30 3 C 0.933 2.03868 1.02534 0
M  V30 4 C 1.911 0.928543 1.3348 0
M  V30 5 O 3.095 1.19667 1.45644 0
M  V30 6 C 0.222 2.43627 2.35294 0
M  V30 7 C -0.732 3.65373 2.2001 0
M  V30 8 S 0.101 5.13292 1.52614 0
M  V30 9 C 1.257 5.56322 2.86805 0
M  V30 10 H 1.49 2.90518 0.631377 0
M  V30 11 H -0.977 1.52953 0.210867 0
M  V30 12 H 0.981 2.67203 3.11629 0
M  V30 13 H -0.358 1.57376 2.7183 0
M  V30 14 H -1.165 3.90944 3.18086 0
M  V30 15 H -1.563 3.418 1.51819 0
M  V30 16 H 0.729 5.58782 3.83104 0
M  V30 17 H 1.672 6.56266 2.65933 0
M  V30 18 H 2.08 4.83886 2.90714 0
M  V30 19 N 1.4781 -0.272755 1.55222 0
M  V30 20 C 2.4411 -1.32041 1.87344 0
M  V30 21 C 3.4411 -1.42342 0.74803 0
M  V30 22 O 4.6311 -1.41488 1.0162 0
M  V30 23 C 1.7631 -2.70173 2.07893 0
M  V30 24 H 2.9561 -1.04789 2.80997 0
M  V30 25 H 0.5091 -0.51083 1.47717 0
M  V30 26 H 1.2441 -3.02605 1.16622 0
M  V30 27 H 1.0291 -2.64082 2.89833 0
M  V30 28 H 2.5191 -3.45869 2.34017 0
M  V30 29 N 2.9562 -1.48159 -0.537278 0
M  V30 30 C 4.1842 -1.59454 -1.31841 0
M  V30 31 C 4.5992 -0.252065 -1.8711 0
M  V30 32 O 3.9562 0.757621 -1.66031 0
M  V30 33 C 4.0072 -2.63546 -2.47439 0
M  V30 34 O 3.7282 -3.92583 -1.94449 0
M  V30 35 C 5.2292 -2.85212 -3.39366 0
M  V30 36 H 2.4492 -0.53785 -0.401196 0
M  V30 37 H 4.9932 -1.93932 -0.648891 0
M  V30 38 H 3.1482 -2.31946 -3.1029 0
M  V30 39 H 3.5622 -4.49629 -2.70063 0
M  V30 40 H 5.0362 -3.61863 -4.16844 0
M  V30 41 H 5.5132 -1.93765 -3.94147 0
M  V30 42 H 6.1192 -3.18086 -2.82314 0
M  V30 43 N 4.4343 0.785586 -1.36625 0
M  V30 44 C 5.3663 1.90711 -1.2713 0
M  V30 45 C 6.3793 1.61688 -0.189986 0
M  V30 46 O 7.5683 1.72864 -0.445014 0
M  V30 47 C 4.6683 3.25611 -0.939713 0
M  V30 48 C 3.8413 3.82385 -2.12369 0
M  V30 49 C 2.9003 4.95732 -1.76456 0
M  V30 50 O 1.9263 5.12047 -2.48589 0
M  V30 51 N 3.1283 5.76258 -0.700492 0
M  V30 52 H 5.8933 1.99376 -2.23762 0
M  V30 53 H 3.4543 0.964041 -1.30069 0
M  V30 54 H 5.4463 3.98937 -0.680554 0
M  V30 55 H 4.0163 3.12538 -0.0624074 0
M  V30 56 H 3.2363 3.01001 -2.54543 0
M  V30 57 H 4.5243 4.17047 -2.9146 0
M  V30 58 H 3.9223 5.65609 -0.101624 0
M  V30 59 H 2.4793 6.4987 -0.501165 0
M  V30 60 N 5.9124 1.20967 1.01018 0
M  V30 61 C 7.1894 0.93264 1.71934 0
M  V30 62 C 7.5694 -0.55692 2.03621 0
M  V30 63 O 6.9174 -1.52035 1.7058 0
M  V30 64 C 7.1274 1.81233 2.98254 0
M  V30 65 C 8.4754 2.05804 3.71389 0
M  V30 66 O 9.4994 1.78539 3.08225 0
M  V30 67 O 8.3584 2.51888 4.84989 0
M  V30 68 H 5.4524 0.349272 0.749625 0
M  V30 69 H 7.9984 1.31871 1.06808 0
M  V30 70 H 6.7704 2.82067 2.71208 0
M  V30 71 H 6.3934 1.42674 3.7112 0
M  V30 72 N 7.3905 -1.2043 1.01659 0
M  V30 73 C 8.6155 -1.94318 0.724942 0
M  V30 74 C 9.0405 -1.74266 -0.708034 0
M  V30 75 O 8.3985 -1.03694 -1.48719 0
M  V30 76 C 8.4465 -3.44486 1.06591 0
M  V30 77 O 7.5505 -4.12017 0.177599 0
M  V30 78 H 6.8915 -0.60708 0.26898 0
M  V30 79 H 9.4215 -1.52861 1.35995 0
M  V30 80 H 9.4315 -3.95106 1.01762 0
M  V30 81 H 8.1065 -3.58404 2.10997 0
M  V30 82 H 6.6835 -3.71821 0.283421 0
M  V30 83 N 8.8686 -0.792821 -1.36206 0
M  V30 84 C 9.7786 -0.194808 -2.3379 0
M  V30 85 C 10.7946 0.654869 -1.61206 0
M  V30 86 O 11.9706 0.569856 -1.9317 0
M  V30 87 C 9.0356 0.657721 -3.40404 0
M  V30 88 C 8.0966 -0.210849 -4.28782 0
M  V30 89 C 7.3296 0.601086 -5.30304 0
M  V30 90 O 7.5526 1.83682 -5.40016 0
M  V30 91 O 6.4866 -0.000808277 -6.019 0
M  V30 92 H 10.3126 -1.00172 -2.86704 0
M  V30 93 H 7.8976 -0.554341 -1.38735 0
M  V30 94 H 9.7796 1.14375 -4.05581 0
M  V30 95 H 8.4546 1.44247 -2.89784 0
M  V30 96 H 7.3616 -0.743714 -3.66633 0
M  V30 97 H 8.6946 -0.959195 -4.82763 0
M  V30 98 N 10.3467 1.47872 -0.545128 0
M  V30 99 C 11.5927 2.02793 -0.0166104 0
M  V30 100 C 11.9257 1.41987 1.32489 0
M  V30 101 O 11.2007 0.571045 1.85928 0
M  V30 102 C 11.4837 3.59989 0.0893294 0
M  V30 103 C 11.3367 4.3125 -1.27841 0
M  V30 104 C 12.6557 4.32606 0.808724 0
M  V30 105 H 9.7747 0.736962 -0.00751035 0
M  V30 106 H 12.4167 1.76433 -0.705085 0
M  V30 107 H 10.5667 3.82579 0.675681 0
M  V30 108 H 12.2387 4.20035 -1.90704 0
M  V30 109 H 10.4817 3.92076 -1.85632 0
M  V30 110 H 11.1527 5.39736 -1.15713 0
M  V30 111 H 13.6287 4.14936 0.310992 0
M  V30 112 H 12.5047 5.42251 0.851782 0
M  V30 113 H 12.7657 4.00963 1.86229 0
M  V30 114 N 11.8248 0.280983 1.55075 0
M  V30 115 C 12.7878 -0.590896 2.21452 0
M  V30 116 C 13.7878 -1.07682 1.19421 0
M  V30 117 O 14.9778 -0.97605 1.44288 0
M  V30 118 C 12.1098 -1.81587 2.88511 0
M  V30 119 H 13.3028 -0.0112554 2.99898 0
M  V30 120 H 10.8558 0.0316438 1.56268 0
M  V30 121 H 11.5908 -2.43587 2.14093 0
M  V30 122 H 11.3758 -1.4753 3.63287 0
M  V30 123 H 12.8658 -2.43575 3.39206 0
M  V30 124 N 13.3029 -1.57598 0.00835791 0
M  V30 125 C 14.2329 -2.1198 -0.979113 0
M  V30 126 C 15.2139 -1.03091 -1.35301 0
M  V30 127 O 16.3989 -1.30818 -1.43528 0
M  V30 128 C 13.5289 -2.62995 -2.26828 0
M  V30 129 C 12.4829 -3.76485 -2.03576 0
M  V30 130 C 11.8089 -4.13846 -3.38579 0
M  V30 131 C 13.1089 -5.0342 -1.39161 0
M  V30 132 H 14.8029 -2.94738 -0.526281 0
M  V30 133 H 12.3489 -1.41783 -0.251704 0
M  V30 134 H 14.3019 -2.99669 -2.96271 0
M  V30 135 H 13.0259 -1.7737 -2.7424 0
M  V30 136 H 11.6849 -3.40217 -1.36557 0
M  V30 137 H 11.3329 -3.25232 -3.83709 0
M  V30 138 H 11.0329 -4.90312 -3.23834 0
M  V30 139 H 12.5569 -4.53086 -4.09323 0
M  V30 140 H 13.9709 -5.37812 -1.98573 0
M  V30 141 H 12.3679 -5.84746 -1.34878 0
M  V30 142 H 13.4379 -4.83548 -0.361868 0
M  V30 143 N 14.781 0.264519 -1.55364 0
M  V30 144 C 16.027 0.99646 -1.76631 0
M  V30 145 C 16.36 1.85632 -0.570478 0
M  V30 146 O 15.635 1.89647 0.43175 0
M  V30 147 C 15.918 1.87187 -3.07625 0
M  V30 148 C 15.771 1.04138 -4.37579 0
M  V30 149 C 17.09 2.85749 -3.34717 0
M  V30 150 H 14.209 0.360841 -0.642622 0
M  V30 151 H 16.851 0.268218 -1.88097 0
M  V30 152 H 15.001 2.49279 -2.9798 0
M  V30 153 H 16.673 0.440517 -4.59192 0
M  V30 154 H 14.916 0.345115 -4.32425 0
M  V30 155 H 15.587 1.68729 -5.2558 0
M  V30 156 H 18.063 2.33793 -3.4421 0
M  V30 157 H 16.939 3.44136 -4.27623 0
M  V30 158 H 17.2 3.61311 -2.54768 0
M  V30 159 N 16.2591 1.48442 0.529413 0
M  V30 160 C 17.4871 1.60151 1.30994 0
M  V30 161 C 17.9021 0.261985 1.86973 0
M  V30 162 O 17.2591 -0.748805 1.66431 0
M  V30 163 C 17.3101 2.64854 2.46038 0
M  V30 164 O 17.0311 3.93608 1.92365 0
M  V30 165 C 18.5321 2.87007 3.37849 0
M  V30 166 H 15.7521 0.539971 0.398338 0
M  V30 167 H 18.2961 1.94273 0.638597 0
M  V30 168 H 16.4511 2.33589 3.09055 0
M  V30 169 H 16.8651 4.51055 2.67675 0
M  V30 170 H 18.3391 3.64068 4.14919 0
M  V30 171 H 18.8161 1.95852 3.93114 0
M  V30 172 H 19.4221 3.19579 2.80623 0
M  V30 173 N 17.7372 -0.778329 1.37039 0
M  V30 174 C 18.9852 -1.53361 1.31623 0
M  V30 175 C 19.3062 -1.94739 -0.100831 0
M  V30 176 O 18.5762 -1.65797 -1.04347 0
M  V30 177 H 17.1562 -0.568794 0.484234 0
M  V30 178 H 19.8182 -0.926742 1.71457 0
M  V30 179 H 18.9142 -2.43606 1.95096 0
M  V30 180 N 19.2153 -1.21501 -1.00376 0
M  V30 181 C 20.1783 -0.976927 -2.07337 0
M  V30 182 C 21.1783 0.0525322 -1.60714 0
M  V30 183 O 22.3683 -0.184869 -1.73216 0
M  V30 184 C 19.5003 -0.473423 -3.37597 0
M  V30 185 H 20.6933 -1.92587 -2.29892 0
M  V30 186 H 18.2463 -1.03217 -1.17371 0
M  V30 187 H 18.9813 0.480379 -3.20722 0
M  V30 188 H 18.7663 -1.216 -3.72768 0
M  V30 189 H 20.2563 -0.32675 -4.1632 0
M  V30 190 N 20.6934 1.19889 -1.02296 0
M  V30 191 C 21.9214 1.9339 -0.735399 0
M  V30 192 C 22.3364 1.75148 0.704887 0
M  V30 193 O 21.6934 1.06954 1.47875 0
M  V30 194 C 21.7444 3.45313 -1.06962 0
M  V30 195 O 21.4654 3.62964 -2.45334 0
M  V30 196 C 22.9664 4.35948 -0.804021 0
M  V30 197 H 20.1864 0.61448 -0.269546 0
M  V30 198 H 22.7304 1.522 -1.36585 0
M  V30 199 H 20.8854 3.84359 -0.484455 0
M  V30 200 H 21.2994 4.56886 -2.57595 0
M  V30 201 H 22.7734 5.41174 -1.0879 0
M  V30 202 H 23.2504 4.3842 0.261691 0
M  V30 203 H 23.8564 4.02574 -1.37164 0
M  V30 204 N 22.1715 0.800033 1.35784 0
M  V30 205 C 23.3965 0.388511 2.03729 0
M  V30 206 C 23.8215 -0.990481 1.5991 0
M  V30 207 O 23.1795 -1.64013 0.772612 0
M  V30 208 C 23.2275 0.4726 3.5749 0
M  V30 209 O 22.3315 -0.51646 4.09153 0
M  V30 210 H 21.6725 0.163271 0.643614 0
M  V30 211 H 24.2025 1.0841 1.73518 0
M  V30 212 H 24.2125 0.34003 4.06581 0
M  V30 213 H 22.8875 1.47848 3.88734 0
M  V30 214 H 21.4645 -0.344673 3.71304 0
M  V30 215 N 23.6496 -1.47581 0.552962 0
M  V30 216 C 24.8976 -2.02082 0.0272703 0
M  V30 217 C 25.2186 -1.4301 -1.32563 0
M  V30 218 O 24.4886 -0.603745 -1.86365 0
M  V30 219 H 23.0686 -0.746966 0.00709182 0
M  V30 220 H 25.7306 -1.81033 0.722008 0
M  V30 221 H 24.8266 -3.12034 -0.0639951 0
M  V30 222 N 25.1277 -0.289203 -1.54924 0
M  V30 223 C 26.3767 0.324231 -1.99077 0
M  V30 224 C 26.6897 1.5591 -1.18117 0
M  V30 225 O 27.8957 2.24637 -1.52481 0
M  V30 226 C 26.3517 0.628209 -3.54375 0
M  V30 227 C 25.9597 -0.587647 -4.44129 0
M  V30 228 C 27.7037 1.20349 -4.07083 0
M  V30 229 C 25.6107 -0.257475 -5.90839 0
M  V30 230 H 24.5407 0.124924 -0.743579 0
M  V30 231 H 27.1917 -0.396063 -1.79175 0
M  V30 232 H 25.5737 1.40778 -3.70132 0
M  V30 233 H 26.7477 -1.36418 -4.40144 0
M  V30 234 H 25.0627 -1.08074 -4.0213 0
M  V30 235 H 27.6597 1.46456 -5.14252 0
M  V30 236 H 28.0027 2.14195 -3.56968 0
M  V30 237 H 28.5357 0.485889 -3.94821 0
M  V30 238 H 25.2747 -1.16419 -6.45079 0
M  V30 239 H 24.7947 0.482018 -5.9786 0
M  V30 240 H 26.4737 0.145238 -6.46837 0
M  V30 241 N 26.6058 1.57591 -0.0167156 0
M  V30 242 C 27.8538 1.90906 0.663285 0
M  V30 243 C 28.1748 0.892509 1.73376 0
M  V30 244 O 27.4448 -0.0677623 1.95783 0
M  V30 245 H 26.0248 0.704637 0.247983 0
M  V30 246 H 28.6868 1.94803 -0.0615909 0
M  V30 247 H 27.7828 2.9116 1.12393 0
M  V30 248 N 28.0839 -0.256276 1.55502 0
M  V30 249 C 29.0139 -1.32102 1.92539 0
M  V30 250 C 29.9949 -1.50684 0.789194 0
M  V30 251 O 31.1799 -1.63449 1.04872 0
M  V30 252 C 28.3099 -2.67752 2.21192 0
M  V30 253 C 27.2639 -2.63878 3.36975 0
M  V30 254 C 26.5899 -4.03236 3.51147 0
M  V30 255 C 27.8899 -2.21682 4.72921 0
M  V30 256 H 29.5839 -1.01351 2.81724 0
M  V30 257 H 27.1299 -0.486105 1.35547 0
M  V30 258 H 29.0829 -3.42365 2.45691 0
M  V30 259 H 27.8069 -3.0012 1.28824 0
M  V30 260 H 26.4659 -1.91722 3.12471 0
M  V30 261 H 26.1139 -4.32854 2.56216 0
M  V30 262 H 25.8139 -4.01535 4.29003 0
M  V30 263 H 27.3379 -4.79563 3.77957 0
M  V30 264 H 28.7519 -2.86023 4.96854 0
M  V30 265 H 27.1489 -2.3111 5.53812 0
M  V30 266 H 28.2189 -1.16833 4.70615 0
M  V30 267 N 29.562 -1.4872 -0.521534 0
M  V30 268 C 30.472 -1.66569 -1.65203 0
M  V30 269 C 31.488 -0.548197 -1.65139 0
M  V30 270 O 32.664 -0.820339 -1.83936 0
M  V30 271 C 29.729 -1.70917 -3.01642 0
M  V30 272 C 28.79 -2.94356 -3.12495 0
M  V30 273 C 28.023 -2.98487 -4.42426 0
M  V30 274 O 28.246 -2.10786 -5.30024 0
M  V30 275 O 27.18 -3.90746 -4.57822 0
M  V30 276 H 31.006 -2.62298 -1.5308 0
M  V30 277 H 28.591 -1.3222 -0.695565 0
M  V30 278 H 30.473 -1.7625 -3.82771 0
M  V30 279 H 29.148 -0.783633 -3.14071 0
M  V30 280 H 28.055 -2.94552 -2.3063 0
M  V30 281 H 29.388 -3.86322 -3.04986 0
M  V30 282 N 31.0401 0.771051 -1.3745 0
M  V30 283 C 32.2891 1.52491 -1.3202 0
M  V30 284 C 32.6021 1.9538 0.0927347 0
M  V30 285 O 33.8081 2.70159 0.269503 0
M  V30 286 C 32.2641 2.75366 -2.31736 0
M  V30 287 C 31.8721 2.39573 -3.78562 0
M  V30 288 C 33.6161 3.53307 -2.35318 0
M  V30 289 C 31.5231 3.58954 -4.70007 0
M  V30 290 H 30.4531 0.572506 -0.490666 0
M  V30 291 H 33.1041 0.844474 -1.62914 0
M  V30 292 H 31.4861 3.45303 -1.93861 0
M  V30 293 H 32.6601 1.77415 -4.25277 0
M  V30 294 H 30.9751 1.74805 -3.77932 0
M  V30 295 H 33.5721 4.42039 -3.00842 0
M  V30 296 H 33.9151 3.93217 -1.36698 0
M  V30 297 H 34.4481 2.90367 -2.71904 0
M  V30 298 H 31.1871 3.24125 -5.69757 0
M  V30 299 H 30.7071 4.20214 -4.27996 0
M  V30 300 H 32.3861 4.25758 -4.87175 0
M  V30 301 N 32.5182 1.22032 0.997298 0
M  V30 302 C 33.4812 0.987909 2.06816 0
M  V30 303 C 34.4812 -0.0440084 1.6074 0
M  V30 304 O 35.6712 0.194053 1.73116 0
M  V30 305 C 32.8032 0.49132 3.37341 0
M  V30 306 H 33.9962 1.93803 2.28868 0
M  V30 307 H 31.5492 1.03838 1.16822 0
M  V30 308 H 32.2842 -0.463364 3.20973 0
M  V30 309 H 32.0692 1.23575 3.72118 0
M  V30 310 H 33.5592 0.348824 4.16141 0
M  V30 311 N 33.9963 -1.19345 1.0293 0
M  V30 312 C 35.4123 -1.41069 0.746446 0
M  V30 313 C 35.6123 -1.90078 -0.668776 0
M  V30 314 O 34.6683 -2.0778 -1.4347 0
M  V30 315 C 35.9813 -2.42141 1.78292 0
M  V30 316 C 37.5293 -2.55887 1.80252 0
M  V30 317 C 38.0043 -3.60214 2.8286 0
M  V30 318 N 39.4953 -3.67711 2.81679 0
M  V30 319 C 40.2303 -4.48128 3.57727 0
M  V30 320 N 39.7263 -5.32248 4.43491 0
M  V30 321 N 41.5193 -4.42782 3.46267 0
M  V30 322 H 33.6703 -0.858536 1.94275 0
M  V30 323 H 35.9333 -0.439541 0.839945 0
M  V30 324 H 35.6393 -2.13155 2.79746 0
M  V30 325 H 35.5133 -3.41323 1.60557 0
M  V30 326 H 37.9003 -2.84196 0.794757 0
M  V30 327 H 37.9813 -1.56858 2.02062 0
M  V30 328 H 37.6253 -3.32647 3.83807 0
M  V30 329 H 37.5553 -4.58895 2.58307 0
M  V30 330 H 40.0463 -3.07634 2.19476 0
M  V30 331 H 40.3593 -5.90729 4.98256 0
M  V30 332 H 38.7043 -5.31707 4.47564 0
M  V30 333 H 41.8953 -3.76107 2.78677 0
M  V30 334 H 42.0683 -5.05215 4.05785 0
M  V30 335 N 35.4744 -0.807222 -1.35358 0
M  V30 336 C 36.8904 -0.491038 -1.51858 0
M  V30 337 C 37.0904 0.987648 -1.75635 0
M  V30 338 O 36.1464 1.77265 -1.79815 0
M  V30 339 C 37.4594 -1.33695 -2.69344 0
M  V30 340 C 39.0074 -1.33246 -2.83222 0
M  V30 341 C 39.4824 -2.1625 -4.03733 0
M  V30 342 N 40.9734 -2.1379 -4.10911 0
M  V30 343 C 41.7084 -2.74772 -5.03277 0
M  V30 344 N 41.2044 -3.44684 -6.0097 0
M  V30 345 N 42.9974 -2.6441 -4.96028 0
M  V30 346 H 35.1484 -1.76485 -1.18181 0
M  V30 347 H 37.4114 -0.751199 -0.578276 0
M  V30 348 H 37.1174 -2.38634 -2.58354 0
M  V30 349 H 36.9914 -0.990618 -3.6396 0
M  V30 350 H 39.3784 -0.290911 -2.93663 0
M  V30 351 H 39.4594 -1.71866 -1.89461 0
M  V30 352 H 39.1034 -3.20445 -3.94052 0
M  V30 353 H 39.0334 -1.74989 -4.96675 0
M  V30 354 H 41.5244 -1.62923 -3.40976 0
M  V30 355 H 41.8374 -3.88501 -6.68047 0
M  V30 356 H 40.1824 -3.48788 -6.01142 0
M  V30 357 H 43.3734 -2.0938 -4.18662 0
M  V30 358 H 43.5464 -3.12225 -5.6782 0
M  V30 359 N 36.9525 1.47285 -0.560781 0
M  V30 360 C 37.8825 2.32857 0.173105 0
M  V30 361 C 38.8635 1.44009 0.905281 0
M  V30 362 O 40.0485 1.7286 0.885046 0
M  V30 363 C 37.1785 3.25861 1.20133 0
M  V30 364 C 36.1325 4.23978 0.585388 0
M  V30 365 C 35.4585 5.06332 1.7185 0
M  V30 366 C 36.7585 5.20242 -0.463178 0
M  V30 367 H 38.4525 2.94466 -0.541307 0
M  V30 368 H 35.9985 1.41601 -0.261764 0
M  V30 369 H 37.9515 3.84569 1.72293 0
M  V30 370 H 36.6755 2.62315 1.94573 0
M  V30 371 H 35.3345 3.66501 0.085054 0
M  V30 372 H 34.9825 4.39186 2.45203 0
M  V30 373 H 34.6825 5.72762 1.31213 0
M  V30 374 H 36.2065 5.67899 2.24329 0
M  V30 375 H 37.6205 5.73293 -0.027502 0
M  V30 376 H 36.0175 5.94896 -0.788627 0
M  V30 377 H 37.0875 4.65504 -1.35773 0
M  V30 378 N 38.4306 0.297415 1.54768 0
M  V30 379 C 39.6786 -0.312295 1.99673 0
M  V30 380 C 39.9996 -1.54686 1.18732 0
M  V30 381 O 39.2696 -1.93854 0.282382 0
M  V30 382 H 37.8496 -0.118381 0.73756 0
M  V30 383 H 40.5116 0.407915 1.90583 0
M  V30 384 H 39.6076 -0.586813 3.06534 0
M  V30 385 N 39.9087 -1.5758 0.0250728 0
M  V30 386 C 40.8557 -2.09973 -0.958129 0
M  V30 387 C 41.8257 -1.00085 -1.3256 0
M  V30 388 O 43.0107 -1.27481 -1.41962 0
M  V30 389 C 40.1507 -2.62812 -2.2366 0
M  V30 390 C 39.2637 -3.86693 -1.92594 0
M  V30 391 C 38.3987 -4.27941 -3.14707 0
M  V30 392 C 37.4377 -5.44591 -2.79442 0
M  V30 393 N 36.5747 -5.81014 -3.94167 0
M  V30 394 H 41.4147 -2.937 -0.504428 0
M  V30 395 H 38.9517 -1.45172 -0.237392 0
M  V30 396 H 40.9097 -2.91536 -2.98434 0
M  V30 397 H 39.5397 -1.81922 -2.66654 0
M  V30 398 H 38.5917 -3.64723 -1.0808 0
M  V30 399 H 39.9037 -4.71547 -1.62619 0
M  V30 400 H 39.0577 -4.58079 -3.97804 0
M  V30 401 H 37.7967 -3.41845 -3.4784 0
M  V30 402 H 36.8017 -5.1415 -1.94755 0
M  V30 403 H 38.0267 -6.32382 -2.47528 0
M  V30 404 H 35.9727 -4.97874 -4.2715 0
M  V30 405 H 35.8897 -6.60498 -3.67801 0
M  V30 406 H 37.1577 -6.15756 -4.7798 0
M  V30 407 N 41.3868 0.248026 -1.55636 0
M  V30 408 C 42.2968 1.32859 -1.93354 0
M  V30 409 C 43.3128 1.52719 -0.833838 0
M  V30 410 O 44.4888 1.66363 -1.13513 0
M  V30 411 C 41.5538 2.66337 -2.21958 0
M  V30 412 C 40.6148 2.55008 -3.45354 0
M  V30 413 C 39.8478 3.82121 -3.72584 0
M  V30 414 O 40.0708 4.83951 -3.01907 0
M  V30 415 O 39.0048 3.80822 -4.6611 0
M  V30 416 H 42.8308 1.03862 -2.85388 0
M  V30 417 H 40.4158 0.448686 -1.42503 0
M  V30 418 H 42.2978 3.45216 -2.4167 0
M  V30 419 H 40.9728 2.95068 -1.33103 0
M  V30 420 H 39.8798 1.7442 -3.30951 0
M  V30 421 H 41.2128 2.31222 -4.34508 0
M  V30 422 N 42.8649 1.48995 0.513639 0
M  V30 423 C 44.1129 1.57531 1.26604 0
M  V30 424 C 44.4339 0.258236 1.93283 0
M  V30 425 O 43.7039 -0.721502 1.8213 0
M  V30 426 H 42.2839 0.580387 0.470276 0
M  V30 427 H 44.9459 1.85552 0.596373 0
M  V30 428 H 44.0419 2.36486 2.03669 0
M  V30 429 N 44.343 -0.763751 1.37857 0
M  V30 430 C 45.273 -1.89103 1.36975 0
M  V30 431 C 46.254 -1.68439 0.237152 0
M  V30 432 O 47.439 -1.8918 0.438713 0
M  V30 433 C 44.569 -3.26496 1.18395 0
M  V30 434 C 43.523 -3.61741 2.28751 0
M  V30 435 C 42.849 -4.97762 1.95286 0
M  V30 436 C 44.149 -3.67665 3.70972 0
M  V30 437 H 45.843 -1.90099 2.31307 0
M  V30 438 H 43.389 -0.91319 1.11341 0
M  V30 439 H 45.342 -4.05003 1.16406 0
M  V30 440 H 44.066 -3.25955 0.205215 0
M  V30 441 H 42.725 -2.85547 2.29909 0
M  V30 442 H 42.373 -4.93769 0.959221 0
M  V30 443 H 42.073 -5.22313 2.69189 0
M  V30 444 H 43.597 -5.7866 1.94898 0
M  V30 445 H 45.011 -4.36307 3.719 0
M  V30 446 H 43.408 -4.03718 4.43995 0
M  V30 447 H 44.478 -2.68134 4.0402 0
M  V30 448 N 45.8211 -1.22559 -0.990812 0
M  V30 449 C 47.2371 -0.985996 -1.255 0
M  V30 450 C 47.4371 0.319173 -1.98956 0
M  V30 451 O 46.4931 1.04127 -2.3003 0
M  V30 452 C 47.8061 -2.18607 -2.06474 0
M  V30 453 C 49.3541 -2.22985 -2.19651 0
M  V30 454 C 49.8291 -3.4255 -3.04012 0
M  V30 455 N 51.3201 -3.42725 -3.11599 0
M  V30 456 C 52.0551 -4.31892 -3.7717 0
M  V30 457 N 51.5511 -5.31279 -4.44651 0
M  V30 458 N 53.3441 -4.19662 -3.73952 0
M  V30 459 H 45.4951 -2.06469 -0.49841 0
M  V30 460 H 47.7581 -0.904853 -0.282747 0
M  V30 461 H 47.4641 -3.13267 -1.59865 0
M  V30 462 H 47.3381 -2.18838 -3.07229 0
M  V30 463 H 49.7251 -1.28871 -2.65474 0
M  V30 464 H 49.8061 -2.26791 -1.18319 0
M  V30 465 H 49.4501 -4.36965 -2.58889 0
M  V30 466 H 49.3801 -3.35984 -4.0549 0
M  V30 467 H 51.8711 -2.70807 -2.63575 0
M  V30 468 H 52.1841 -5.95593 -4.92431 0
M  V30 469 H 50.5291 -5.3519 -4.43392 0
M  V30 470 H 53.7201 -3.41268 -3.20396 0
M  V30 471 H 53.8931 -4.89358 -4.24774 0
M  V30 472 N 47.2992 1.18797 -1.03562 0
M  V30 473 C 48.5452 1.8893 -0.737113 0
M  V30 474 C 48.8782 1.79837 0.732956 0
M  V30 475 O 48.1532 1.19525 1.5344 0
M  V30 476 C 48.4362 3.39607 -1.19745 0
M  V30 477 C 48.2892 3.57537 -2.72924 0
M  V30 478 C 49.6082 4.33069 -0.783526 0
M  V30 479 H 46.7272 0.686057 -0.269249 0
M  V30 480 H 49.3692 1.39797 -1.28673 0
M  V30 481 H 47.5192 3.81583 -0.729855 0
M  V30 482 H 49.1912 3.24688 -3.27682 0
M  V30 483 H 47.4342 3.00363 -3.12993 0
M  V30 484 H 48.1052 4.63238 -3.00191 0
M  V30 485 H 50.5812 3.98846 -1.18581 0
M  V30 486 H 49.4572 5.3707 -1.13343 0
M  V30 487 H 49.7182 4.40986 0.313681 0
M  V30 488 N 48.7773 0.814389 1.34928 0
M  V30 489 C 50.0243 0.398423 1.98542 0
M  V30 490 C 50.3523 -1.03638 1.64589 0
M  V30 491 O 49.6073 -1.73509 0.90516 0
M  V30 492 C 49.9063 0.537781 3.53331 0
M  V30 493 C 49.5723 1.93704 4.07172 0
M  V30 494 C 48.2343 2.31984 4.21589 0
M  V30 495 C 50.5863 2.85213 4.36237 0
M  V30 496 C 47.9143 3.61125 4.62391 0
M  V30 497 C 50.2663 4.13809 4.78482 0
M  V30 498 C 48.9303 4.52077 4.91104 0
M  V30 499 H 48.2003 0.145793 0.726516 0
M  V30 500 H 50.8473 1.03669 1.61012 0
M  V30 501 H 49.1523 -0.183906 3.91368 0
M  V30 502 H 50.8493 0.196588 4.00518 0
M  V30 503 H 47.4393 1.62966 3.96409 0
M  V30 504 H 51.6233 2.56885 4.24645 0
M  V30 505 H 46.8793 3.90612 4.70353 0
M  V30 506 H 51.0533 4.84811 4.99932 0
M  V30 507 H 48.6803 5.52196 5.22478 0
M  V30 508 N 50.2554 -1.46986 0.568584 0
M  V30 509 C 51.5014 -2.02741 0.0488709 0
M  V30 510 C 51.8344 -1.44077 -1.30214 0
M  V30 511 O 51.1094 -0.600552 -1.84996 0
M  V30 512 C 51.3924 -3.60086 -0.032047 0
M  V30 513 C 51.2454 -4.29162 1.34686 0
M  V30 514 C 52.5644 -4.33838 -0.739798 0
M  V30 515 H 49.6834 -0.736749 0.0192338 0
M  V30 516 H 52.3254 -1.75289 0.733065 0
M  V30 517 H 50.4754 -3.83606 -0.61473 0
M  V30 518 H 52.1474 -4.16948 1.97362 0
M  V30 519 H 50.3904 -3.89073 1.91846 0
M  V30 520 H 51.0614 -5.37826 1.24285 0
M  V30 521 H 53.5374 -4.15378 -0.244939 0
M  V30 522 H 52.4134 -5.43537 -0.765406 0
M  V30 523 H 52.6744 -4.03875 -1.79827 0
M  V30 524 N 51.7335 -0.305618 -1.54608 0
M  V30 525 C 52.9735 0.303114 -2.0214 0
M  V30 526 C 53.3375 1.50737 -1.18921 0
M  V30 527 O 54.5385 2.18778 -1.56172 0
M  V30 528 C 52.8095 0.646332 -3.51507 0
M  V30 529 S 54.3685 1.23727 -4.20995 0
M  V30 530 H 51.1865 0.0927643 -0.704923 0
M  V30 531 H 53.7885 -0.434566 -1.90609 0
M  V30 532 H 52.4925 -0.238541 -4.09706 0
M  V30 533 H 52.0235 1.41468 -3.67084 0
M  V30 534 H 54.0385 2.52489 -4.27158 0
M  V30 535 N 53.2116 1.57565 -0.0334293 0
M  V30 536 C 54.1746 2.09393 0.932048 0
M  V30 537 C 55.1746 1.00986 1.25134 0
M  V30 538 O 56.3646 1.27129 1.19096 0
M  V30 539 C 53.4966 2.56338 2.2473 0
M  V30 540 H 54.6896 2.95984 0.483085 0
M  V30 541 H 52.2426 1.54819 0.21468 0
M  V30 542 H 52.9776 1.7309 2.74245 0
M  V30 543 H 52.7626 3.35542 2.02865 0
M  V30 544 H 54.2526 2.96646 2.93923 0
M  V30 545 N 54.6897 -0.239769 1.55765 0
M  V30 546 C 56.1057 -0.588624 1.48349 0
M  V30 547 C 56.3057 -1.88005 0.72502 0
M  V30 548 O 55.3617 -2.51186 0.257269 0
M  V30 549 C 56.6747 -0.68474 2.928 0
M  V30 550 C 58.2227 -0.77659 3.03213 0
M  V30 551 C 58.6977 -0.904207 4.48986 0
M  V30 552 N 60.1887 -0.968896 4.52953 0
M  V30 553 C 60.9237 -1.08703 5.63002 0
M  V30 554 N 60.4197 -1.17026 6.82845 0
M  V30 555 N 62.2127 -1.12074 5.50814 0
M  V30 556 H 54.3637 0.607911 2.03515 0
M  V30 557 H 56.6267 0.21083 0.924259 0
M  V30 558 H 56.3327 0.194284 3.51163 0
M  V30 559 H 56.2067 -1.55435 3.43686 0
M  V30 560 H 58.5937 -1.64606 2.44926 0
M  V30 561 H 58.6747 0.118315 2.55526 0
M  V30 562 H 58.3187 -0.0392633 5.07885 0
M  V30 563 H 58.2487 -1.81426 4.9436 0
M  V30 564 H 60.7397 -0.915633 3.6664 0
M  V30 565 H 61.0527 -1.25966 7.62465 0
M  V30 566 H 59.3977 -1.13971 6.85591 0
M  V30 567 H 62.5887 -1.05226 4.5612 0
M  V30 568 H 62.7617 -1.20936 6.36615 0
M  V30 569 N 56.1678 -1.49265 -0.50573 0
M  V30 570 C 57.4158 -1.582 -1.25766 0
M  V30 571 C 57.7368 -0.268482 -1.93143 0
M  V30 572 O 57.0068 0.711833 -1.8251 0
M  V30 573 H 55.5868 -0.582873 -0.467191 0
M  V30 574 H 58.2488 -1.85865 -0.586525 0
M  V30 575 H 57.3448 -2.37563 -2.02412 0
M  V30 576 N 57.6459 0.756429 -1.3826 0
M  V30 577 C 58.5559 1.9009 -1.37488 0
M  V30 578 C 59.5719 1.71855 -0.272366 0
M  V30 579 O 60.7479 1.94827 -0.510318 0
M  V30 580 C 57.8129 3.25421 -1.19592 0
M  V30 581 C 56.8739 3.56202 -2.39622 0
M  V30 582 C 56.1069 4.85075 -2.2257 0
M  V30 583 O 56.3299 5.57246 -1.21793 0
M  V30 584 O 55.2639 5.15269 -3.11098 0
M  V30 585 H 59.0899 1.93695 -2.33914 0
M  V30 586 H 56.6749 0.901313 -1.1915 0
M  V30 587 H 58.5569 4.06337 -1.11661 0
M  V30 588 H 57.2319 3.22634 -0.262486 0
M  V30 589 H 56.1389 2.75458 -2.53128 0
M  V30 590 H 57.4719 3.63747 -3.31586 0
M  V30 591 N 59.124 1.23083 0.984299 0
M  V30 592 C 60.034 1.02515 2.11016 0
M  V30 593 C 61.05 -0.0291702 1.73976 0
M  V30 594 O 62.226 0.165434 2.00719 0
M  V30 595 C 59.291 0.614673 3.41208 0
M  V30 596 C 58.352 1.74359 3.92297 0
M  V30 597 C 57.585 1.35261 5.16275 0
M  V30 598 O 57.808 0.235136 5.69915 0
M  V30 599 O 56.742 2.17227 5.61334 0
M  V30 600 H 60.568 1.96862 2.31255 0
M  V30 601 H 58.153 1.01753 1.09392 0
M  V30 602 H 60.035 0.396518 4.1953 0
M  V30 603 H 58.71 -0.299851 3.22308 0
M  V30 604 H 57.617 2.01635 3.1511 0
M  V30 605 H 58.95 2.63629 4.15645 0
M  V30 606 N 60.6021 -1.18246 1.0419 0
M  V30 607 C 61.8501 -1.87886 0.744543 0
M  V30 608 C 62.1711 -1.8082 -0.730006 0
M  V30 609 O 61.4411 -1.22736 -1.52685 0
M  V30 610 H 60.0211 -0.695556 0.272417 0
M  V30 611 H 62.6831 -1.43494 1.31892 0
M  V30 612 H 61.7791 -2.9389 1.05049 0
M  V30 613 N 62.0802 -0.821533 -1.34494 0
M  V30 614 C 63.0102 -0.257138 -2.3208 0
M  V30 615 C 63.9912 0.625645 -1.58176 0
M  V30 616 O 65.1762 0.552811 -1.86166 0
M  V30 617 C 62.3062 0.582958 -3.42372 0
M  V30 618 C 61.2602 -0.202571 -4.2752 0
M  V30 619 C 60.5862 0.760179 -5.29269 0
M  V30 620 C 61.8862 -1.40998 -5.02908 0
M  V30 621 H 63.5802 -1.07247 -2.79532 0
M  V30 622 H 61.1262 -0.517163 -1.34393 0
M  V30 623 H 63.0792 0.987972 -4.09655 0
M  V30 624 H 61.8032 1.43133 -2.93565 0
M  V30 625 H 60.4622 -0.588936 -3.61838 0
M  V30 626 H 60.1102 1.60447 -4.76724 0
M  V30 627 H 59.8102 0.238809 -5.87115 0
M  V30 628 H 61.3342 1.16308 -5.9942 0
M  V30 629 H 62.7482 -1.07905 -5.63054 0
M  V30 630 H 61.1452 -1.86689 -5.70322 0
M  V30 631 H 62.2152 -2.1889 -4.32684 0
M  V30 632 N 63.5583 1.46682 -0.576371 0
M  V30 633 C 64.9743 1.57822 -0.237562 0
M  V30 634 C 65.1743 1.57237 1.26011 0
M  V30 635 O 64.2303 1.48596 2.04146 0
M  V30 636 C 65.5433 2.87499 -0.881168 0
M  V30 637 C 67.0913 3.01119 -0.85417 0
M  V30 638 C 67.5663 4.33524 -1.4772 0
M  V30 639 N 69.0573 4.40207 -1.44125 0
M  V30 640 C 69.7923 5.4126 -1.89276 0
M  V30 641 N 69.2883 6.49021 -2.42371 0
M  V30 642 N 71.0813 5.32422 -1.80231 0
M  V30 643 H 63.2323 1.45306 -1.54919 0
M  V30 644 H 65.4953 0.692733 -0.647167 0
M  V30 645 H 65.2013 2.9372 -1.93447 0
M  V30 646 H 65.0753 3.75224 -0.385592 0
M  V30 647 H 67.4623 2.94485 0.190491 0
M  V30 648 H 67.5433 2.14887 -1.3877 0
M  V30 649 H 67.1873 4.40916 -2.52103 0
M  V30 650 H 67.1173 5.1852 -0.918947 0
M  V30 651 H 69.6083 3.62931 -1.05307 0
M  V30 652 H 69.9213 7.2233 -2.74698 0
M  V30 653 H 68.2663 6.49858 -2.46393 0
M  V30 654 H 71.4573 4.47137 -1.38514 0
M  V30 655 H 71.6303 6.11034 -2.15735 0
M  V30 656 N 65.0364 0.313813 1.54444 0
M  V30 657 C 66.2644 -0.293918 2.04802 0
M  V30 658 C 66.6794 -1.46537 1.19047 0
M  V30 659 O 66.0364 -1.81182 0.218939 0
M  V30 660 C 66.0874 -0.737806 3.53891 0
M  V30 661 O 65.8084 0.387038 4.36387 0
M  V30 662 C 67.3094 -1.40936 4.203 0
M  V30 663 H 64.5294 -0.0620057 0.668129 0
M  V30 664 H 67.0734 0.457169 1.99324 0
M  V30 665 H 65.2284 -1.43889 3.59687 0
M  V30 666 H 65.6424 0.0391274 5.24485 0
M  V30 667 H 67.1164 -1.67099 5.26101 0
M  V30 668 H 67.5934 -2.35355 3.70816 0
M  V30 669 H 68.1994 -0.751117 4.18615 0
M  V30 670 N 66.5145 -1.57545 0.0417849 0
M  V30 671 C 67.7425 -1.96624 -0.643928 0
M  V30 672 C 68.1575 -0.918897 -1.64929 0
M  V30 673 O 67.5145 0.0979323 -1.82237 0
M  V30 674 C 67.5655 -3.35781 -1.33914 0
M  V30 675 O 67.2865 -4.365 -0.374048 0
M  V30 676 C 68.7875 -3.89566 -2.1155 0
M  V30 677 H 66.0075 -0.647316 -0.176702 0
M  V30 678 H 68.5515 -2.04229 0.105304 0
M  V30 679 H 66.7065 -3.29357 -2.03968 0
M  V30 680 H 67.1205 -5.17248 -0.869179 0
M  V30 681 H 68.5945 -4.89242 -2.55628 0
M  V30 682 H 69.0715 -3.24488 -2.9598 0
M  V30 683 H 69.6775 -3.99298 -1.46427 0
M  V30 684 N 67.9926 0.231505 -1.5589 0
M  V30 685 C 68.9226 1.29022 -1.94617 0
M  V30 686 C 69.9036 1.4941 -0.813067 0
M  V30 687 O 71.0886 1.6176 -1.07459 0
M  V30 688 C 68.2186 2.64199 -2.25424 0
M  V30 689 C 67.1726 2.58484 -3.41131 0
M  V30 690 C 66.4986 3.97599 -3.57518 0
M  V30 691 C 67.7986 2.1413 -4.76388 0
M  V30 692 H 69.4926 0.968563 -2.83301 0
M  V30 693 H 67.0386 0.464479 -1.36303 0
M  V30 694 H 68.9916 3.38413 -2.51107 0
M  V30 695 H 67.7156 2.98032 -1.33583 0
M  V30 696 H 66.3746 1.86727 -3.15481 0
M  V30 697 H 66.0226 4.28723 -2.6307 0
M  V30 698 H 65.7226 3.94659 -4.35337 0
M  V30 699 H 67.2466 4.7349 -3.85538 0
M  V30 700 H 68.6606 2.78083 -5.01341 0
M  V30 701 H 67.0576 2.2227 -5.57419 0
M  V30 702 H 68.1276 1.09331 -4.72414 0
M  V30 703 N 69.4707 1.49531 0.497807 0
M  V30 704 C 70.4177 1.66436 1.59899 0
M  V30 705 C 71.3877 0.505793 1.58212 0
M  V30 706 O 72.5727 0.733202 1.7615 0
M  V30 707 C 69.7127 1.7399 2.98029 0
M  V30 708 C 68.8257 3.01172 3.09708 0
M  V30 709 C 67.9607 2.99686 4.38591 0
M  V30 710 C 66.9997 4.21434 4.43914 0
M  V30 711 N 66.1367 4.1784 5.64229 0
M  V30 712 H 70.9767 2.60459 1.44793 0
M  V30 713 H 68.5137 1.29137 0.704423 0
M  V30 714 H 70.4717 1.76352 3.78095 0
M  V30 715 H 69.1017 0.834301 3.11832 0
M  V30 716 H 68.1537 3.08408 2.22685 0
M  V30 717 H 69.4657 3.91165 3.09502 0
M  V30 718 H 68.6197 3.00628 5.2698 0
M  V30 719 H 67.3587 2.07477 4.41367 0
M  V30 720 H 66.3637 4.20733 3.53926 0
M  V30 721 H 67.5887 5.14839 4.42851 0
M  V30 722 H 65.5347 3.28469 5.67841 0
M  V30 723 H 65.4517 5.01571 5.65652 0
M  V30 724 H 66.7197 4.22889 6.54817 0
M  V30 725 N 70.9488 -0.749086 1.3866 0
M  V30 726 C 71.8588 -1.89358 1.38494 0
M  V30 727 C 72.8748 -1.71708 0.281476 0
M  V30 728 O 74.0508 -1.94554 0.520643 0
M  V30 729 C 71.1158 -3.24782 1.21316 0
M  V30 730 C 70.1768 -3.54926 2.41508 0
M  V30 731 C 69.4098 -4.83888 2.2514 0
M  V30 732 O 69.6328 -5.56592 1.24746 0
M  V30 733 O 68.5668 -5.13612 3.13826 0
M  V30 734 H 72.3928 -1.92452 2.34938 0
M  V30 735 H 69.9778 -0.894981 1.19626 0
M  V30 736 H 71.8598 -4.05739 1.13814 0
M  V30 737 H 70.5348 -3.2249 0.279592 0
M  V30 738 H 69.4418 -2.74112 2.54585 0
M  V30 739 H 70.7748 -3.61983 3.3351 0
M  V30 740 N 72.4269 -1.23603 -0.977757 0
M  V30 741 C 73.3569 -1.04401 -2.0886 0
M  V30 742 C 74.3379 0.0399052 -1.70053 0
M  V30 743 O 75.5229 -0.125246 -1.93796 0
M  V30 744 C 72.6529 -0.637269 -3.41403 0
M  V30 745 C 71.6069 -1.66883 -3.94124 0
M  V30 746 C 70.9329 -1.11745 -5.22893 0
M  V30 747 C 72.2329 -3.06247 -4.23096 0
M  V30 748 H 73.9269 -1.97316 -2.25182 0
M  V30 749 H 71.4729 -0.950096 -1.08209 0
M  V30 750 H 73.4259 -0.48998 -4.18542 0
M  V30 751 H 72.1499 0.327557 -3.24953 0
M  V30 752 H 70.8089 -1.80416 -3.19133 0
M  V30 753 H 70.4569 -0.143527 -5.02795 0
M  V30 754 H 70.1569 -1.80672 -5.59134 0
M  V30 755 H 71.6809 -0.982067 -6.02651 0
M  V30 756 H 73.0949 -2.96001 -4.90975 0
M  V30 757 H 71.4919 -3.72436 -4.70544 0
M  V30 758 H 72.5619 -3.55041 -3.30263 0
M  V30 759 N 73.905 1.17692 -1.04816 0
M  V30 760 C 75.321 1.39863 -0.768794 0
M  V30 761 C 75.521 1.91118 0.638451 0
M  V30 762 O 74.577 2.10036 1.40146 0
M  V30 763 C 75.89 2.39274 -1.82122 0
M  V30 764 C 77.438 2.52987 -1.843 0
M  V30 765 C 77.913 3.55669 -2.88555 0
M  V30 766 N 79.404 3.63183 -2.87493 0
M  V30 767 C 80.139 4.42381 -3.64811 0
M  V30 768 N 79.635 5.25125 -4.51903 0
M  V30 769 N 81.428 4.37217 -3.53267 0
M  V30 770 H 73.579 0.82752 -1.95617 0
M  V30 771 H 75.842 0.426123 -0.846831 0
M  V30 772 H 75.548 2.08678 -2.83102 0
M  V30 773 H 75.422 3.38725 -1.65967 0
M  V30 774 H 77.809 2.82896 -0.839869 0
M  V30 775 H 77.89 1.53623 -2.04532 0
M  V30 776 H 77.534 3.26499 -3.89051 0
M  V30 777 H 77.464 4.54728 -2.65575 0
M  V30 778 H 79.955 3.04103 -2.24343 0
M  V30 779 H 80.268 5.82728 -5.07591 0
M  V30 780 H 78.613 5.24519 -4.55966 0
M  V30 781 H 81.804 3.71626 -2.84625 0
M  V30 782 H 81.977 4.98696 -4.13771 0
M  V30 783 N 75.3831 0.828654 1.34056 0
M  V30 784 C 76.2931 0.256725 2.33191 0
M  V30 785 C 77.3091 -0.611898 1.62886 0
M  V30 786 O 78.4851 -0.51844 1.94613 0
M  V30 787 C 75.5501 -0.567238 3.42028 0
M  V30 788 C 74.6111 0.324458 4.28072 0
M  V30 789 C 73.8441 -0.460274 5.31712 0
M  V30 790 O 74.0671 -1.693 5.44696 0
M  V30 791 O 73.0011 0.160391 6.01686 0
M  V30 792 H 76.8271 1.07739 2.83947 0
M  V30 793 H 74.4121 0.59093 1.37217 0
M  V30 794 H 76.2941 -1.03582 4.08471 0
M  V30 795 H 74.9691 -1.36513 2.93506 0
M  V30 796 H 73.8761 0.840659 3.64532 0
M  V30 797 H 75.2091 1.08685 4.8005 0
M  V30 798 N 76.8612 -1.46375 0.584142 0
M  V30 799 C 77.8242 -2.28784 -0.138108 0
M  V30 800 C 78.8242 -1.38471 -0.817462 0
M  V30 801 O 80.0142 -1.60833 -0.669199 0
M  V30 802 C 77.1462 -3.18892 -1.20503 0
M  V30 803 H 78.3392 -2.94117 0.586127 0
M  V30 804 H 75.8922 -1.52509 0.342171 0
M  V30 805 H 76.6272 -2.58309 -1.96079 0
M  V30 806 H 76.4122 -3.85388 -0.722384 0
M  V30 807 H 77.9022 -3.80914 -1.71155 0
M  V30 808 N 78.3393 -0.321999 -1.54275 0
M  V30 809 C 79.5873 0.280489 -2.00144 0
M  V30 810 C 79.9083 1.52777 -1.21178 0
M  V30 811 O 79.1783 1.9338 -0.313187 0
M  V30 812 H 77.7583 0.106632 -0.73935 0
M  V30 813 H 80.4203 -0.438184 -1.8991 0
M  V30 814 H 79.5163 0.537972 -3.07428 0
M  V30 815 N 79.8174 1.5752 -0.0501392 0
M  V30 816 C 81.0634 1.92936 0.624798 0
M  V30 817 C 81.3964 0.928685 1.70555 0
M  V30 818 O 80.6714 -0.0454779 1.94447 0
M  V30 819 C 80.9544 3.38737 1.22185 0
M  V30 820 C 80.8074 4.49552 0.149218 0
M  V30 821 C 82.1264 3.84913 2.13378 0
M  V30 822 H 79.2454 0.701604 0.225657 0
M  V30 823 H 81.8874 1.89671 -0.111693 0
M  V30 824 H 80.0374 3.4165 1.84953 0
M  V30 825 H 81.7094 4.58768 -0.482648 0
M  V30 826 H 79.9524 4.30638 -0.522841 0
M  V30 827 H 80.6234 5.48653 0.606966 0
M  V30 828 H 83.0994 3.8387 1.60572 0
M  V30 829 H 81.9754 4.87584 2.52097 0
M  V30 830 H 82.2364 3.21611 3.03346 0
M  V30 831 N 81.2955 -0.223234 1.56011 0
M  V30 832 C 82.2055 -1.29766 1.95443 0
M  V30 833 C 83.2215 -1.51373 0.858028 0
M  V30 834 O 84.3975 -1.64536 1.16146 0
M  V30 835 C 81.4625 -2.62772 2.26167 0
M  V30 836 C 80.5235 -2.49482 3.49367 0
M  V30 837 C 79.7565 -3.76145 3.78616 0
M  V30 838 O 79.9795 -4.79087 3.09568 0
M  V30 839 O 78.9135 -3.73358 4.72109 0
M  V30 840 H 82.7395 -0.99309 2.87004 0
M  V30 841 H 80.3245 -0.425958 1.43199 0
M  V30 842 H 82.2065 -3.41327 2.47131 0
M  V30 843 H 80.8815 -2.92913 1.37781 0
M  V30 844 H 79.7885 -1.69133 3.33684 0
M  V30 845 H 81.1215 -2.2428 4.38131 0
M  V30 846 N 82.7736 -1.49793 -0.48987 0
M  V30 847 C 83.7366 -1.66752 -1.57246 0
M  V30 848 C 84.7366 -0.538867 -1.51502 0
M  V30 849 O 85.9266 -0.805545 -1.54456 0
M  V30 850 C 83.0586 -1.67528 -2.96896 0
M  V30 851 H 84.2516 -2.63321 -1.43534 0
M  V30 852 H 81.8046 -1.38992 -0.714914 0
M  V30 853 H 82.5396 -0.725837 -3.16073 0
M  V30 854 H 82.3246 -2.49504 -3.02473 0
M  V30 855 H 83.8146 -1.82667 -3.7553 0
M  V30 856 N 84.2517 0.741722 -1.39055 0
M  V30 857 C 85.5287 1.49252 -1.26425 0
M  V30 858 C 85.9087 2.10705 0.129144 0
M  V30 859 O 85.2567 1.98045 1.13976 0
M  V30 860 C 85.4667 2.54934 -2.38347 0
M  V30 861 C 86.8147 3.21506 -2.77343 0
M  V30 862 O 87.8387 2.65245 -2.37747 0
M  V30 863 O 86.6977 4.23294 -3.45665 0
M  V30 864 H 83.7917 0.662451 -0.495064 0
M  V30 865 H 86.3377 0.776121 -1.50912 0
M  V30 866 H 85.1097 2.07857 -3.31529 0
M  V30 867 H 84.7327 3.34141 -2.15489 0
M  V30 868 N 85.7298 1.2412 0.971189 0
M  V30 869 C 86.9778 1.07668 1.71032 0
M  V30 870 C 87.2988 -0.385797 1.91146 0
M  V30 871 O 86.5688 -1.27569 1.4867 0
M  V30 872 H 85.1488 0.395429 0.633755 0
M  V30 873 H 87.8108 1.55984 1.16855 0
M  V30 874 H 86.9068 1.57195 2.69622 0
M  V30 875 N 87.2079 -1.17134 1.05439 0
M  V30 876 C 88.6239 -1.39454 0.776201 0
M  V30 877 C 88.8239 -1.91454 -0.628307 0
M  V30 878 O 87.8799 -2.10777 -1.39031 0
M  V30 879 C 89.1929 -2.38305 1.83388 0
M  V30 880 C 90.7409 -2.52006 1.85639 0
M  V30 881 C 91.2159 -3.54133 2.90437 0
M  V30 882 N 92.7069 -3.61653 2.89415 0
M  V30 883 C 93.4419 -4.4044 3.67152 0
M  V30 884 N 92.9379 -5.22721 4.54681 0
M  V30 885 N 94.7309 -4.35337 3.55581 0
M  V30 886 H 86.8819 -0.817134 1.96053 0
M  V30 887 H 89.1449 -0.421626 0.849079 0
M  V30 888 H 88.8509 -2.07173 2.84204 0
M  V30 889 H 88.7249 -3.37841 1.67761 0
M  V30 890 H 91.1119 -2.82447 0.85486 0
M  V30 891 H 91.1929 -1.52537 2.05344 0
M  V30 892 H 90.8369 -3.24431 3.90777 0
M  V30 893 H 90.7669 -4.53313 2.67983 0
M  V30 894 H 93.2579 -3.02909 2.25952 0
M  V30 895 H 93.5709 -5.80027 5.10674 0
M  V30 896 H 91.9159 -5.22093 4.58741 0
M  V30 897 H 95.1069 -3.70112 2.86592 0
M  V30 898 H 95.2799 -4.96494 4.1641 0
M  V30 899 N 88.686 -0.835752 -1.33615 0
M  V30 900 C 89.914 -0.443344 -2.02094 0
M  V30 901 C 90.329 0.954522 -1.62894 0
M  V30 902 O 89.686 1.61982 -0.840723 0
M  V30 903 C 89.737 -0.550775 -3.5728 0
M  V30 904 O 89.458 -1.89356 -3.95065 0
M  V30 905 C 90.959 -0.154919 -4.43029 0
M  V30 906 H 88.179 -0.176359 -0.647409 0
M  V30 907 H 90.723 -1.12746 -1.70612 0
M  V30 908 H 88.878 0.0853997 -3.87306 0
M  V30 909 H 89.292 -1.87687 -4.89769 0
M  V30 910 H 90.766 -0.281144 -5.51284 0
M  V30 911 H 91.243 0.902863 -4.2982 0
M  V30 912 H 91.849 -0.765404 -4.18356 0
M  V30 913 N 90.1641 1.46063 -0.591896 0
M  V30 914 C 91.4041 2.04228 -0.0838014 0
M  V30 915 C 91.7681 1.45231 1.25587 0
M  V30 916 O 92.9691 1.94653 1.85375 0
M  V30 917 C 91.2401 3.57389 -0.0286282 0
M  V30 918 S 92.7991 4.3678 0.420557 0
M  V30 919 H 89.6171 0.709762 -0.0419319 0
M  V30 920 H 92.2191 1.78983 -0.786465 0
M  V30 921 H 90.9231 3.97843 -1.00743 0
M  V30 922 H 90.4541 3.87185 0.69652 0
M  V30 923 H 92.4691 4.67131 1.67341 0
M  V30 924 N 91.6422 0.330177 1.54103 0
M  V30 925 C 92.9192 -0.325007 1.92881 0
M  V30 926 C 93.2992 -1.6934 1.26045 0
M  V30 927 O 92.6472 -2.24855 0.406526 0
M  V30 928 C 92.8572 -0.410634 3.46576 0
M  V30 929 C 94.2052 -0.667801 4.19316 0
M  V30 930 O 95.2292 -0.49329 3.52768 0
M  V30 931 O 94.0882 -1.00491 5.37181 0
M  V30 932 H 91.1822 -0.186873 0.80561 0
M  V30 933 H 93.7282 0.380376 1.65382 0
M  V30 934 H 92.5002 0.550164 3.87413 0
M  V30 935 H 92.1232 -1.16333 3.802 0
M  V30 936 N 93.1203 -1.57491 0.0584922 0
M  V30 937 C 94.3663 -1.93264 -0.614558 0
M  V30 938 C 94.6993 -0.937717 -1.7006 0
M  V30 939 O 93.9743 0.0351652 -1.94468 0
M  V30 940 C 94.2573 -3.3938 -1.20386 0
M  V30 941 C 94.1103 -4.49625 -0.125375 0
M  V30 942 C 95.4293 -3.86039 -2.11334 0
M  V30 943 H 92.5483 -0.702791 -0.221933 0
M  V30 944 H 95.1903 -1.8961 0.12175 0
M  V30 945 H 93.3403 -3.42626 -1.83139 0
M  V30 946 H 95.0123 -4.58506 0.506971 0
M  V30 947 H 93.2553 -4.30354 0.545672 0
M  V30 948 H 93.9263 -5.48967 -0.577861 0
M  V30 949 H 96.4023 -3.84716 -1.58534 0
M  V30 950 H 95.2783 -4.88914 -2.49507 0
M  V30 951 H 95.5393 -3.23215 -3.01636 0
M  V30 952 N 94.5984 0.214957 -1.56127 0
M  V30 953 C 96.0144 0.564948 -1.49267 0
M  V30 954 C 96.2144 1.86827 -0.754838 0
M  V30 955 O 95.2704 2.50745 -0.297198 0
M  V30 956 C 96.5834 0.638071 -2.93852 0
M  V30 957 C 98.1314 0.728253 -3.0441 0
M  V30 958 C 98.6064 0.832663 -4.50367 0
M  V30 959 N 100.097 0.896712 -4.54437 0
M  V30 960 C 100.832 0.997324 -5.6466 0
M  V30 961 N 100.328 1.06147 -6.8462 0
M  V30 962 N 102.121 1.03297 -5.52527 0
M  V30 963 H 94.2724 -0.640211 -2.02522 0
M  V30 964 H 96.5354 -0.225507 -0.920788 0
M  V30 965 H 96.2414 -0.250126 -3.50809 0
M  V30 966 H 96.1154 1.49947 -3.46115 0
M  V30 967 H 98.5024 1.60689 -2.47514 0
M  V30 968 H 98.5834 -0.158952 -2.55306 0
M  V30 969 H 98.2274 -0.0415417 -5.07883 0
M  V30 970 H 98.1574 1.73538 -4.97184 0
M  V30 971 H 100.648 0.857188 -3.6805 0
M  V30 972 H 100.961 1.1382 -7.64372 0
M  V30 973 H 99.3064 1.03049 -6.87318 0
M  V30 974 H 102.497 0.979558 -4.57736 0
M  V30 975 H 102.67 1.10793 -6.38458 0
M  V30 976 N 96.0765 1.50051 0.48192 0
M  V30 977 C 97.3015 1.64508 1.26301 0
M  V30 978 C 97.7265 0.323851 1.85291 0
M  V30 979 O 97.0845 -0.710969 1.66778 0
M  V30 980 C 97.1325 2.7305 2.35533 0
M  V30 981 O 96.2365 2.3355 3.39895 0
M  V30 982 H 95.5775 0.549978 0.372048 0
M  V30 983 H 98.1075 1.9636 0.574786 0
M  V30 984 H 98.1175 2.95799 2.8101 0
M  V30 985 H 96.7925 3.68946 1.91967 0
M  V30 986 H 95.3695 2.21205 3.00204 0
M  V30 987 N 97.5546 -0.734337 1.39446 0
M  V30 988 C 98.8006 -1.49613 1.36908 0
M  V30 989 C 99.1336 -1.94169 -0.0347829 0
M  V30 990 O 98.4086 -1.66833 -0.999847 0
M  V30 991 C 98.6916 -2.73534 2.34203 0
M  V30 992 C 98.5446 -2.34993 3.83534 0
M  V30 993 C 99.8636 -3.75635 2.29317 0
M  V30 994 H 96.9826 -0.542714 0.498629 0
M  V30 995 H 99.6246 -0.839597 1.70443 0
M  V30 996 H 97.7746 -3.29553 2.05736 0
M  V30 997 H 99.4466 -1.84601 4.22753 0
M  V30 998 H 97.6896 -1.67213 4.00278 0
M  V30 999 H 98.3606 -3.23738 4.47099 0
M  V30 1000 H 100.837 -3.29203 2.54489 0
M  V30 1001 H 99.7126 -4.60008 2.99472 0
M  V30 1002 H 99.9736 -4.22603 1.29842 0
M  V30 1003 N 99.0327 -1.24633 -0.964593 0
M  V30 1004 C 100.444 -1.08045 -1.5226 0
M  V30 1005 C 100.795 0.347116 -1.93105 0
M  V30 1006 O 99.9197 1.23588 -1.77637 0
M  V30 1007 C 100.515 -1.95514 -2.76695 0
M  V30 1008 C 99.0737 -1.8314 -3.28841 0
M  V30 1009 C 98.2207 -1.90262 -2.01732 0
M  V30 1010 H 101.172 -1.38064 -0.782553 0
M  V30 1011 H 101.193 -1.48925 -3.50145 0
M  V30 1012 H 100.705 -2.99407 -2.46936 0
M  V30 1013 H 98.8057 -0.82092 -3.63444 0
M  V30 1014 H 98.9187 -2.67406 -3.97531 0
M  V30 1015 H 97.2827 -1.34027 -2.16584 0
M  V30 1016 H 98.0657 -2.9574 -1.74334 0
M  V30 1017 N 100.511 1.16574 -1.06058 0
M  V30 1018 C 101.421 2.2452 -0.680282 0
M  V30 1019 C 102.437 1.71348 0.302604 0
M  V30 1020 O 103.613 2.00822 0.152513 0
M  V30 1021 C 100.678 3.46629 -0.0700315 0
M  V30 1022 C 99.7388 4.14849 -1.10448 0
M  V30 1023 C 98.9718 5.31129 -0.523256 0
M  V30 1024 O 99.1948 5.66514 0.664709 0
M  V30 1025 O 98.1288 5.88526 -1.26179 0
M  V30 1026 H 101.955 2.59355 -1.58015 0
M  V30 1027 H 99.5398 1.24043 -0.832694 0
M  V30 1028 H 101.422 4.20543 0.268667 0
M  V30 1029 H 100.097 3.13573 0.803353 0
M  V30 1030 H 99.0038 3.42916 -1.49532 0
M  V30 1031 H 100.337 4.51954 -1.94931 0
M  V30 1032 N 101.989 0.842826 1.3317 0
M  V30 1033 C 103.238 0.436738 1.96915 0
M  V30 1034 C 103.551 -1.01025 1.67491 0
M  V30 1035 O 104.757 -1.5212 2.24881 0
M  V30 1036 C 103.213 0.730021 3.52418 0
M  V30 1037 C 102.821 2.19195 3.90714 0
M  V30 1038 C 104.565 0.391076 4.22695 0
M  V30 1039 C 102.472 2.42907 5.39212 0
M  V30 1040 H 101.402 0.15958 0.736919 0
M  V30 1041 H 104.053 1.03196 1.51733 0
M  V30 1042 H 102.435 0.0643755 3.95948 0
M  V30 1043 H 103.609 2.8984 3.58231 0
M  V30 1044 H 101.924 2.49425 3.33431 0
M  V30 1045 H 104.521 0.545817 5.31907 0
M  V30 1046 H 104.864 -0.666294 4.10933 0
M  V30 1047 H 105.397 1.01212 3.84709 0
M  V30 1048 H 102.136 3.47224 5.55982 0
M  V30 1049 H 101.656 1.76827 5.73142 0
M  V30 1050 H 103.335 2.2626 6.06148 0
M  V30 1051 N 103.467 -1.45747 0.599634 0
M  V30 1052 C 104.377 -2.34262 -0.125888 0
M  V30 1053 C 105.393 -1.50768 -0.868625 0
M  V30 1054 O 106.569 -1.83592 -0.828003 0
M  V30 1055 C 103.634 -3.28252 -1.11587 0
M  V30 1056 C 102.695 -4.27651 -0.375956 0
M  V30 1057 C 101.928 -5.1715 -1.31877 0
M  V30 1058 O 102.151 -5.09916 -2.55621 0
M  V30 1059 O 101.085 -5.96286 -0.820157 0
M  V30 1060 H 104.911 -2.97688 0.601315 0
M  V30 1061 H 102.496 -1.44999 0.359934 0
M  V30 1062 H 104.378 -3.86191 -1.68626 0
M  V30 1063 H 103.053 -2.67401 -1.82424 0
M  V30 1064 H 101.96 -3.7335 0.236698 0
M  V30 1065 H 103.293 -4.91334 0.29177 0
M  V30 1066 N 104.945 -0.338344 -1.53925 0
M  V30 1067 C 105.908 0.508299 -2.23493 0
M  V30 1068 C 106.908 1.03175 -1.23335 0
M  V30 1069 O 108.098 0.921826 -1.47811 0
M  V30 1070 C 105.23 1.70754 -2.95052 0
M  V30 1071 H 106.423 -0.100058 -2.99733 0
M  V30 1072 H 103.976 -0.0896198 -1.56043 0
M  V30 1073 H 104.711 2.35474 -2.22986 0
M  V30 1074 H 104.496 1.33946 -3.68512 0
M  V30 1075 H 105.986 2.30818 -3.48013 0
M  V30 1076 N 106.423 1.57458 -0.0668435 0
M  V30 1077 C 107.353 2.15468 0.899764 0
M  V30 1078 C 108.334 1.08042 1.31381 0
M  V30 1079 O 109.519 1.36054 1.38574 0
M  V30 1080 C 106.649 2.71232 2.16911 0
M  V30 1081 C 105.603 3.83781 1.89463 0
M  V30 1082 C 104.929 4.26127 3.22986 0
M  V30 1083 C 106.229 5.08238 1.20381 0
M  V30 1084 H 107.923 2.96488 0.416529 0
M  V30 1085 H 105.469 1.4262 0.198908 0
M  V30 1086 H 107.422 3.10458 2.84945 0
M  V30 1087 H 106.146 1.87426 2.67468 0
M  V30 1088 H 104.805 3.45051 1.23836 0
M  V30 1089 H 104.453 3.39249 3.71374 0
M  V30 1090 H 104.153 5.01993 3.05413 0
M  V30 1091 H 105.677 4.67966 3.92225 0
M  V30 1092 H 107.091 5.44811 1.78475 0
M  V30 1093 H 105.488 5.89349 1.13083 0
M  V30 1094 H 106.558 4.84558 0.182153 0
M  V30 1095 N 107.901 -0.206675 1.56239 0
M  V30 1096 C 109.147 -0.930218 1.80208 0
M  V30 1097 C 109.48 -1.83387 0.638981 0
M  V30 1098 O 108.755 -1.91119 -0.361066 0
M  V30 1099 C 109.038 -1.75641 3.1436 0
M  V30 1100 C 108.891 -0.878257 4.41142 0
M  V30 1101 C 110.21 -2.73129 3.45092 0
M  V30 1102 H 107.329 -0.336742 0.655571 0
M  V30 1103 H 109.971 -0.198222 1.88963 0
M  V30 1104 H 108.121 -2.38048 3.07027 0
M  V30 1105 H 109.793 -0.269787 4.6051 0
M  V30 1106 H 108.036 -0.184385 4.33408 0
M  V30 1107 H 108.707 -1.49106 5.3148 0
M  V30 1108 H 111.183 -2.20856 3.52649 0
M  V30 1109 H 110.059 -3.28028 4.40101 0
M  V30 1110 H 110.32 -3.51606 2.68003 0
M  V30 1111 N 109.379 -1.50304 -0.473955 0
M  V30 1112 C 110.342 -1.6841 -1.55469 0
M  V30 1113 C 111.342 -0.554905 -1.50922 0
M  V30 1114 O 112.532 -0.821882 -1.53593 0
M  V30 1115 C 109.664 -1.70667 -2.95102 0
M  V30 1116 H 110.857 -2.64828 -1.40733 0
M  V30 1117 H 108.41 -1.39742 -0.700132 0
M  V30 1118 H 109.145 -0.75932 -3.15285 0
M  V30 1119 H 108.93 -2.52698 -2.9981 0
M  V30 1120 H 110.42 -1.8664 -3.73571 0
M  V30 1121 N 110.857 0.726932 -1.39834 0
M  V30 1122 C 111.82 1.82269 -1.38962 0
M  V30 1123 C 112.82 1.58248 -0.285334 0
M  V30 1124 O 114.01 1.65499 -0.54366 0
M  V30 1125 C 111.142 3.20186 -1.17019 0
M  V30 1126 H 112.335 1.84443 -2.36476 0
M  V30 1127 H 109.888 0.931416 -1.25516 0
M  V30 1128 H 110.623 3.23669 -0.202204 0
M  V30 1129 H 110.408 3.3902 -1.96998 0
M  V30 1130 H 111.898 4.00235 -1.1917 0
M  V30 1131 N 112.336 1.25143 0.95797 0
M  V30 1132 C 113.582 1.09855 1.70469 0
M  V30 1133 C 113.915 -0.360187 1.90831 0
M  V30 1134 O 113.19 -1.26568 1.47685 0
M  V30 1135 C 113.473 1.8497 3.08963 0
M  V30 1136 C 113.326 3.38652 2.96032 0
M  V30 1137 C 114.645 1.63016 4.08795 0
M  V30 1138 H 111.764 0.400465 0.618706 0
M  V30 1139 H 114.406 1.53933 1.11376 0
M  V30 1140 H 112.556 1.47505 3.59409 0
M  V30 1141 H 114.228 3.85772 2.52938 0
M  V30 1142 H 112.471 3.66534 2.32025 0
M  V30 1143 H 113.142 3.8642 3.94187 0
M  V30 1144 H 115.618 1.95625 3.67247 0
M  V30 1145 H 114.494 2.18015 5.03747 0
M  V30 1146 H 114.755 0.570692 4.38401 0
M  V30 1147 N 113.814 -1.1601 1.06675 0
M  V30 1148 C 115.06 -1.86909 0.786945 0
M  V30 1149 C 115.393 -1.81717 -0.685018 0
M  V30 1150 O 114.668 -1.23551 -1.50218 0
M  V30 1151 C 114.951 -3.36313 1.28707 0
M  V30 1152 C 114.804 -3.50175 2.82308 0
M  V30 1153 C 116.123 -4.3084 0.898071 0
M  V30 1154 H 113.242 -0.678677 0.287343 0
M  V30 1155 H 115.884 -1.36336 1.32334 0
M  V30 1156 H 114.034 -3.79513 0.830768 0
M  V30 1157 H 115.706 -3.15886 3.36175 0
M  V30 1158 H 113.949 -2.91959 3.20847 0
M  V30 1159 H 114.62 -4.55116 3.12368 0
M  V30 1160 H 117.096 -3.95561 1.29114 0
M  V30 1161 H 115.972 -5.33876 1.27543 0
M  V30 1162 H 116.233 -4.41662 -0.196651 0
M  V30 1163 N 115.292 -0.849877 -1.32721 0
M  V30 1164 C 116.202 -0.293791 -2.32753 0
M  V30 1165 C 117.218 0.585906 -1.63839 0
M  V30 1166 O 118.394 0.487413 -1.95413 0
M  V30 1167 C 115.459 0.512752 -3.42887 0
M  V30 1168 C 114.52 -0.39252 -4.27502 0
M  V30 1169 C 113.753 0.375625 -5.32377 0
M  V30 1170 O 113.976 1.60613 -5.4732 0
M  V30 1171 O 112.91 -0.256094 -6.01355 0
M  V30 1172 H 116.736 -1.12242 -2.82197 0
M  V30 1173 H 114.321 -0.612685 -1.36259 0
M  V30 1174 H 116.203 0.970704 -4.10067 0
M  V30 1175 H 114.878 1.31826 -2.95641 0
M  V30 1176 H 113.785 -0.898547 -3.63149 0
M  V30 1177 H 115.118 -1.16309 -4.7826 0
M  V30 1178 N 116.77 1.45427 -0.607355 0
M  V30 1179 C 118.186 1.57283 -0.270985 0
M  V30 1180 C 118.386 1.59875 1.22647 0
M  V30 1181 O 117.442 1.52893 2.00948 0
M  V30 1182 C 118.755 2.85566 -0.941952 0
M  V30 1183 C 120.303 2.9924 -0.917849 0
M  V30 1184 C 120.778 4.30293 -1.56882 0
M  V30 1185 N 122.269 4.37051 -1.5343 0
M  V30 1186 C 123.004 5.37123 -2.00715 0
M  V30 1187 N 122.5 6.43734 -2.56084 0
M  V30 1188 N 124.293 5.28479 -1.91484 0
M  V30 1189 H 116.444 1.41988 -1.57966 0
M  V30 1190 H 118.707 0.67885 -0.661715 0
M  V30 1191 H 118.413 2.8955 -1.99633 0
M  V30 1192 H 118.287 3.74322 -0.465096 0
M  V30 1193 H 120.674 2.94822 0.127984 0
M  V30 1194 H 120.755 2.11895 -1.43297 0
M  V30 1195 H 120.399 4.35469 -2.61398 0
M  V30 1196 H 120.329 5.16454 -1.02873 0
M  V30 1197 H 122.82 3.60615 -1.12982 0
M  V30 1198 H 123.133 7.16341 -2.89958 0
M  V30 1199 H 121.478 6.44485 -2.60122 0
M  V30 1200 H 124.669 4.44098 -1.47967 0
M  V30 1201 H 124.842 6.0632 -2.28648 0
M  V30 1202 N 118.248 0.346503 1.53744 0
M  V30 1203 C 119.478 -0.250047 2.05081 0
M  V30 1204 C 119.886 -1.44529 1.22098 0
M  V30 1205 O 119.229 -1.81992 0.249917 0
M  V30 1206 C 119.291 -0.725934 3.52094 0
M  V30 1207 C 118.955 0.350053 4.55657 0
M  V30 1208 C 119.952 1.19372 5.0601 0
M  V30 1209 C 117.637 0.504827 4.99757 0
M  V30 1210 C 119.631 2.17768 5.99046 0
M  V30 1211 C 117.318 1.49218 5.92602 0
M  V30 1212 C 118.316 2.32706 6.42135 0
M  V30 1213 O 118.004 3.2976 7.33153 0
M  V30 1214 H 117.736 -0.0515469 0.674032 0
M  V30 1215 H 120.29 0.497559 1.99282 0
M  V30 1216 H 118.52 -1.52483 3.55367 0
M  V30 1217 H 120.209 -1.24336 3.86388 0
M  V30 1218 H 120.975 1.08525 4.72702 0
M  V30 1219 H 116.854 -0.135178 4.60802 0
M  V30 1220 H 120.398 2.82971 6.37631 0
M  V30 1221 H 116.295 1.6012 6.25325 0
M  V30 1222 H 117.063 3.25265 7.51096 0
M  V30 1223 N 119.726 -1.57421 0.075193 0
M  V30 1224 C 120.974 -1.93236 -0.591974 0
M  V30 1225 C 121.295 -0.956241 -1.69944 0
M  V30 1226 O 120.565 -0.00494792 -1.95899 0
M  V30 1227 H 119.145 -0.713355 -0.22166 0
M  V30 1228 H 121.807 -1.9444 0.133848 0
M  V30 1229 H 120.903 -2.95131 -1.01509 0
M  V30 1230 N 121.204 0.198386 -1.56346 0
M  V30 1231 C 122.615 0.763358 -1.70381 0
M  V30 1232 C 122.966 1.83995 -0.681203 0
M  V30 1233 O 122.091 2.15785 0.16305 0
M  V30 1234 C 122.686 1.39143 -3.08909 0
M  V30 1235 C 121.245 1.90352 -3.2472 0
M  V30 1236 C 120.392 0.772233 -2.6633 0
M  V30 1237 H 123.343 -0.0266377 -1.58678 0
M  V30 1238 H 123.364 2.26076 -3.06055 0
M  V30 1239 H 122.876 0.607638 -3.83314 0
M  V30 1240 H 120.977 2.71461 -2.55225 0
M  V30 1241 H 121.09 2.06757 -4.3219 0
M  V30 1242 H 119.454 1.18566 -2.2542 0
M  V30 1243 H 120.237 0.00073556 -3.433 0
M  V30 1244 N 122.682 1.50554 0.465978 0
M  V30 1245 C 123.928 1.62038 1.21949 0
M  V30 1246 C 124.261 0.322116 1.9151 0
M  V30 1247 O 123.536 -0.676723 1.82348 0
M  V30 1248 C 123.819 2.80421 2.25912 0
M  V30 1249 C 123.672 4.20144 1.60622 0
M  V30 1250 C 124.991 2.94354 3.27176 0
M  V30 1251 H 122.11 0.589752 0.441998 0
M  V30 1252 H 124.752 1.82956 0.51257 0
M  V30 1253 H 122.902 2.62717 2.86203 0
M  V30 1254 H 124.574 4.49449 1.03889 0
M  V30 1255 H 122.817 4.24165 0.909211 0
M  V30 1256 H 123.488 4.98914 2.36196 0
M  V30 1257 H 125.964 3.10578 2.76913 0
M  V30 1258 H 124.84 3.788 3.97242 0
M  V30 1259 H 125.101 2.05186 3.916 0
M  V30 1260 N 124.16 -0.719506 1.40217 0
M  V30 1261 C 125.437 -1.47221 1.28784 0
M  V30 1262 C 125.817 -2.10883 -0.0956067 0
M  V30 1263 O 125.165 -1.99833 -1.10811 0
M  V30 1264 C 125.375 -2.5111 2.42373 0
M  V30 1265 C 126.723 -3.17053 2.82423 0
M  V30 1266 O 127.747 -2.61429 2.41937 0
M  V30 1267 O 126.606 -4.17742 3.52355 0
M  V30 1268 H 123.7 -0.654491 0.50554 0
M  V30 1269 H 126.246 -0.752014 1.52128 0
M  V30 1270 H 125.018 -2.02556 3.34793 0
M  V30 1271 H 124.641 -3.3067 2.20778 0
M  V30 1272 N 125.638 -1.25649 -0.95132 0
M  V30 1273 C 126.884 -1.10757 -1.69884 0
M  V30 1274 C 127.217 0.350061 -1.91019 0
M  V30 1275 O 126.492 1.25783 -1.48354 0
M  V30 1276 C 126.775 -1.86606 -3.07978 0
M  V30 1277 C 126.628 -3.40217 -2.94232 0
M  V30 1278 C 127.947 -1.65182 -4.07925 0
M  V30 1279 H 125.066 -0.40374 -0.616574 0
M  V30 1280 H 127.708 -1.54521 -1.10558 0
M  V30 1281 H 125.858 -1.49409 -3.58621 0
M  V30 1282 H 127.53 -3.87108 -2.50889 0
M  V30 1283 H 125.773 -3.67759 -2.30078 0
M  V30 1284 H 126.444 -3.88505 -3.92133 0
M  V30 1285 H 128.92 -1.9757 -3.66204 0
M  V30 1286 H 127.796 -2.20683 -5.02583 0
M  V30 1287 H 128.057 -0.593933 -4.38092 0
M  V30 1288 N 127.117 1.15442 -1.07289 0
M  V30 1289 C 128.047 2.22312 -0.714107 0
M  V30 1290 C 129.028 1.67467 0.298155 0
M  V30 1291 O 130.213 1.93445 0.171048 0
M  V30 1292 C 127.343 3.47124 -0.110448 0
M  V30 1293 C 126.297 4.14926 -1.04979 0
M  V30 1294 C 125.623 5.33807 -0.308924 0
M  V30 1295 C 126.923 4.64762 -2.38314 0
M  V30 1296 H 128.617 2.5258 -1.6076 0
M  V30 1297 H 126.163 1.21404 -0.77441 0
M  V30 1298 H 128.116 4.21124 0.152482 0
M  V30 1299 H 126.84 3.16187 0.81812 0
M  V30 1300 H 125.499 3.42866 -1.29764 0
M  V30 1301 H 125.147 4.99126 0.623084 0
M  V30 1302 H 124.847 5.80113 -0.935036 0
M  V30 1303 H 126.371 6.10576 -0.0537771 0
M  V30 1304 H 127.785 5.30292 -2.1786 0
M  V30 1305 H 126.182 5.21728 -2.96514 0
M  V30 1306 H 127.252 3.80434 -3.00663 0
M  V30 1307 N 128.595 0.856903 1.32268 0
M  V30 1308 C 129.841 0.462069 1.97466 0
M  V30 1309 C 130.174 -0.980298 1.67642 0
M  V30 1310 O 129.449 -1.68824 0.965858 0
M  V30 1311 C 129.732 0.704336 3.53145 0
M  V30 1312 C 129.585 2.19529 3.9259 0
M  V30 1313 C 130.904 0.1622 4.39801 0
M  V30 1314 H 128.023 0.169357 0.717278 0
M  V30 1315 H 130.665 1.07574 1.56614 0
M  V30 1316 H 128.815 0.181999 3.88073 0
M  V30 1317 H 130.487 2.78387 3.67829 0
M  V30 1318 H 128.73 2.67292 3.41668 0
M  V30 1319 H 129.401 2.31549 5.01088 0
M  V30 1320 H 131.877 0.608905 4.11621 0
M  V30 1321 H 130.753 0.361265 5.4771 0
M  V30 1322 H 131.014 -0.935158 4.32096 0
M  V30 1323 N 130.073 -1.45103 0.615059 0
M  V30 1324 C 131.021 -2.32331 -0.111791 0
M  V30 1325 C 132.015 -1.46409 -0.852102 0
M  V30 1326 O 133.221 -1.62849 -0.766821 0
M  V30 1327 H 129.596 -0.749993 -0.0549072 0
M  V30 1328 H 131.567 -2.91407 0.642225 0
M  V30 1329 C 130.316 -3.3015 -1.09071 0
M  V30 1330 H 129.639 -3.96265 -0.530485 0
M  V30 1331 H 131.079 -3.93898 -1.56908 0
M  V30 1332 C 129.538 -2.57875 -2.168 0
M  V30 1333 O 130.068 -2.36567 -3.24652 0
M  V30 1334 N 128.274 -2.17884 -1.92289 0
M  V30 1335 H 127.821 -2.35413 -1.04587 0
M  V30 1336 H 127.779 -1.6985 -2.64572 0
M  V30 1337 N 131.551 -0.354651 -1.53558 0
M  V30 1338 C 132.499 0.512195 -2.26891 0
M  V30 1339 C 133.493 1.09263 -1.29452 0
M  V30 1340 O 134.699 1.03709 -1.47121 0
M  V30 1341 H 131.074 0.183878 -0.729173 0
M  V30 1342 H 133.045 -0.128202 -2.98124 0
M  V30 1343 C 131.794 1.64563 -3.06291 0
M  V30 1344 H 131.117 1.20829 -3.81104 0
M  V30 1345 H 132.557 2.22711 -3.60799 0
M  V30 1346 C 131.016 2.58158 -2.16462 0
M  V30 1347 O 131.546 3.60695 -1.76811 0
M  V30 1348 N 129.752 2.27096 -1.81317 0
M  V30 1349 H 129.299 1.43751 -2.1376 0
M  V30 1350 H 129.257 2.89975 -1.21498 0
M  V30 1351 N 133.029 1.57378 -0.0835403 0
M  V30 1352 C 133.992 2.12252 0.864959 0
M  V30 1353 C 134.992 1.04916 1.21858 0
M  V30 1354 O 136.182 1.30853 1.14991 0
M  V30 1355 C 133.314 2.63358 2.16461 0
M  V30 1356 H 134.507 2.97371 0.388676 0
M  V30 1357 H 132.06 1.55423 0.165317 0
M  V30 1358 H 132.795 1.81727 2.686 0
M  V30 1359 H 132.58 3.41826 1.92087 0
M  V30 1360 H 134.07 3.05847 2.84337 0
M  V30 1361 N 134.507 -0.190092 1.56449 0
M  V30 1362 C 135.755 -0.907908 1.80559 0
M  V30 1363 C 136.076 -1.83583 0.657438 0
M  V30 1364 O 135.346 -1.93203 -0.323924 0
M  V30 1365 H 133.926 -0.338247 0.666032 0
M  V30 1366 H 136.588 -0.194403 1.93928 0
M  V30 1367 H 135.684 -1.49604 2.73907 0
M  V30 1368 N 135.985 -1.50799 -0.457987 0
M  V30 1369 C 137.401 -1.38515 -0.792819 0
M  V30 1370 C 137.601 -0.451409 -1.96379 0
M  V30 1371 O 136.657 0.10112 -2.52297 0
M  V30 1372 C 137.97 -2.80149 -1.09258 0
M  V30 1373 C 139.518 -2.89156 -1.19825 0
M  V30 1374 C 139.993 -4.31651 -1.53106 0
M  V30 1375 N 141.484 -4.34662 -1.60072 0
M  V30 1376 C 142.219 -5.41928 -1.87354 0
M  V30 1377 N 141.715 -6.59384 -2.12568 0
M  V30 1378 N 143.508 -5.29385 -1.88965 0
M  V30 1379 H 135.659 -2.10073 0.313511 0
M  V30 1380 H 137.922 -0.944803 0.0777862 0
M  V30 1381 H 137.628 -3.50374 -0.305084 0
M  V30 1382 H 137.502 -3.18204 -2.02549 0
M  V30 1383 H 139.889 -2.19141 -1.97639 0
M  V30 1384 H 139.97 -2.54626 -0.244821 0
M  V30 1385 H 139.614 -5.02208 -0.758266 0
M  V30 1386 H 139.544 -4.63678 -2.49621 0
M  V30 1387 H 142.035 -3.49973 -1.42573 0
M  V30 1388 H 142.348 -7.36934 -2.32696 0
M  V30 1389 H 140.693 -6.62535 -2.09933 0
M  V30 1390 H 143.884 -4.36616 -1.68772 0
M  V30 1391 H 144.057 -6.13066 -2.09891 0
M  V30 1392 N 137.463 0.71206 -1.40597 0
M  V30 1393 C 138.874 1.29135 -1.34837 0
M  V30 1394 C 139.225 1.96186 -0.0235395 0
M  V30 1395 O 138.35 1.97768 0.878444 0
M  V30 1396 C 138.945 2.34827 -2.44217 0
M  V30 1397 C 137.504 2.88371 -2.41907 0
M  V30 1398 C 136.651 1.62202 -2.24913 0
M  V30 1399 H 139.602 0.507944 -1.50352 0
M  V30 1400 H 139.623 3.15749 -2.12327 0
M  V30 1401 H 139.135 1.85996 -3.40627 0
M  V30 1402 H 137.236 3.41422 -1.49204 0
M  V30 1403 H 137.349 3.39925 -3.37621 0
M  V30 1404 H 135.713 1.874 -1.72492 0
M  V30 1405 H 136.496 1.15391 -3.23326 0
M  V30 1406 N 138.941 1.26152 0.944643 0
M  V30 1407 C 140.189 1.11271 1.6871 0
M  V30 1408 C 140.51 -0.345166 1.91921 0
M  V30 1409 O 139.78 -1.24387 1.51343 0
M  V30 1410 H 138.36 0.408783 0.625224 0
M  V30 1411 H 141.022 1.58427 1.1352 0
M  V30 1412 H 140.118 1.62879 2.66227 0
M  V30 1413 N 140.419 -1.14872 1.07899 0
M  V30 1414 C 141.667 -1.85422 0.803941 0
M  V30 1415 C 141.988 -1.83051 -0.67211 0
M  V30 1416 O 141.258 -1.27532 -1.48703 0
M  V30 1417 H 139.838 -0.686537 0.294408 0
M  V30 1418 H 142.5 -1.39226 1.3639 0
M  V30 1419 H 141.596 -2.90399 1.14346 0
M  V30 1420 N 141.898 -0.863906 -1.31812 0
M  V30 1421 C 143.146 -0.470904 -1.96537 0
M  V30 1422 C 143.467 0.978771 -1.68657 0
M  V30 1423 O 142.737 1.6853 -0.998717 0
M  V30 1424 H 141.317 -0.171148 -0.72713 0
M  V30 1425 H 143.979 -1.10236 -1.60729 0
M  V30 1426 H 143.075 -0.623616 -3.05806 0
M  V30 1427 N 143.376 1.44774 -0.622745 0
M  V30 1428 C 144.339 2.29069 0.0774015 0
M  V30 1429 C 145.339 1.4059 0.780461 0
M  V30 1430 O 146.529 1.62551 0.626322 0
M  V30 1431 C 143.661 3.21974 1.12006 0
M  V30 1432 H 144.854 2.92459 -0.663901 0
M  V30 1433 H 142.407 1.51548 -0.382486 0
M  V30 1434 H 143.142 2.63417 1.89162 0
M  V30 1435 H 142.927 3.87168 0.619951 0
M  V30 1436 H 144.417 3.85318 1.60995 0
M  V30 1437 N 144.854 0.36279 1.53368 0
M  V30 1438 C 146.082 -0.228613 2.05633 0
M  V30 1439 C 146.497 -1.42676 1.23649 0
M  V30 1440 O 145.854 -1.80394 0.27647 0
M  V30 1441 C 145.905 -0.624845 3.56059 0
M  V30 1442 O 145.626 0.525675 4.34935 0
M  V30 1443 C 147.127 -1.27493 4.24571 0
M  V30 1444 H 144.347 -0.0407183 0.669763 0
M  V30 1445 H 146.891 0.520352 1.97769 0
M  V30 1446 H 145.046 -1.32373 3.64083 0
M  V30 1447 H 145.46 0.205969 5.24095 0
M  V30 1448 H 146.934 -1.50277 5.31151 0
M  V30 1449 H 147.411 -2.23439 3.78116 0
M  V30 1450 H 148.017 -0.617558 4.20792 0
M  V30 1451 N 146.332 -1.57332 0.0918853 0
M  V30 1452 C 147.295 -2.12708 -0.85369 0
M  V30 1453 C 148.295 -1.05561 -1.213 0
M  V30 1454 O 149.485 -1.31461 -1.14296 0
M  V30 1455 C 146.617 -2.64503 -2.15061 0
M  V30 1456 H 147.81 -2.97573 -0.3729 0
M  V30 1457 H 145.363 -1.55509 -0.157072 0
M  V30 1458 H 146.098 -1.83149 -2.67632 0
M  V30 1459 H 145.883 -3.4284 -1.90272 0
M  V30 1460 H 147.373 -3.07351 -2.82711 0
M  V30 1461 N 147.81 0.181792 -1.56548 0
M  V30 1462 C 148.72 1.24538 -1.98815 0
M  V30 1463 C 149.736 1.49045 -0.897861 0
M  V30 1464 O 150.912 1.61399 -1.20467 0
M  V30 1465 C 147.977 2.56683 -2.33055 0
M  V30 1466 C 147.038 2.40131 -3.55859 0
M  V30 1467 C 146.271 3.65975 -3.88456 0
M  V30 1468 O 146.494 4.70711 -3.22161 0
M  V30 1469 O 145.428 3.6071 -4.81842 0
M  V30 1470 H 149.254 0.916647 -2.89536 0
M  V30 1471 H 146.839 0.387842 -1.44278 0
M  V30 1472 H 148.721 3.34655 -2.56094 0
M  V30 1473 H 147.396 2.89157 -1.45498 0
M  V30 1474 H 146.303 1.60226 -3.38051 0
M  V30 1475 H 147.636 2.12585 -4.43924 0
M  V30 1476 N 149.288 1.51039 0.449983 0
M  V30 1477 C 150.218 1.74379 1.55288 0
M  V30 1478 C 151.199 0.593236 1.5942 0
M  V30 1479 O 152.384 0.834625 1.7535 0
M  V30 1480 C 149.514 1.85728 2.93466 0
M  V30 1481 C 148.468 3.01078 3.04197 0
M  V30 1482 C 147.794 2.97595 4.44231 0
M  V30 1483 C 149.094 4.41254 2.7945 0
M  V30 1484 H 150.788 2.66725 1.36008 0
M  V30 1485 H 148.334 1.2835 0.652864 0
M  V30 1486 H 150.287 2.0064 3.70569 0
M  V30 1487 H 149.011 0.900207 3.13949 0
M  V30 1488 H 147.67 2.85851 2.29531 0
M  V30 1489 H 147.318 1.99691 4.61663 0
M  V30 1490 H 147.018 3.75046 4.52343 0
M  V30 1491 H 148.542 3.14583 5.23326 0
M  V30 1492 H 149.956 4.56897 3.46292 0
M  V30 1493 H 148.353 5.20315 2.98985 0
M  V30 1494 H 149.423 4.52164 1.75144 0
M  V30 1495 N 150.766 -0.704594 1.40972 0
M  V30 1496 C 151.729 -1.80035 1.41845 0
M  V30 1497 C 152.729 -1.57774 0.310474 0
M  V30 1498 O 153.919 -1.64613 0.56992 0
M  V30 1499 C 151.051 -3.18284 1.22098 0
M  V30 1500 H 152.244 -1.80658 2.3938 0
M  V30 1501 H 149.797 -0.911329 1.26982 0
M  V30 1502 H 150.532 -3.23306 0.253672 0
M  V30 1503 H 150.317 -3.35843 2.02366 0
M  V30 1504 H 151.807 -3.98289 1.25522 0
M  V30 1505 N 152.244 -1.26651 -0.937939 0
M  V30 1506 C 153.521 -1.0313 -1.66204 0
M  V30 1507 C 153.901 0.437256 -2.06522 0
M  V30 1508 O 153.249 1.41831 -1.79154 0
M  V30 1509 C 153.459 -1.98314 -2.87181 0
M  V30 1510 C 154.807 -2.27107 -3.58758 0
M  V30 1511 O 155.831 -1.96205 -2.97291 0
M  V30 1512 O 154.69 -2.79736 -4.69479 0
M  V30 1513 H 151.784 -0.392384 -0.727986 0
M  V30 1514 H 154.33 -1.37874 -0.989382 0
M  V30 1515 H 153.102 -2.97399 -2.54302 0
M  V30 1516 H 152.725 -1.64068 -3.6217 0
M  V30 1517 N 153.722 1.14298 -1.08507 0
M  V30 1518 C 154.632 2.23027 -0.727753 0
M  V30 1519 C 155.648 1.71952 0.26619 0
M  V30 1520 O 156.824 2.011 0.109882 0
M  V30 1521 C 153.889 3.46403 -0.143541 0
M  V30 1522 C 152.95 4.12413 -1.19223 0
M  V30 1523 C 152.183 5.29899 -0.635798 0
M  V30 1524 O 152.406 5.67796 0.544393 0
M  V30 1525 O 151.34 5.85717 -1.38634 0
M  V30 1526 H 155.166 2.55945 -1.63481 0
M  V30 1527 H 152.751 1.22248 -0.858817 0
M  V30 1528 H 154.633 4.21018 0.179404 0
M  V30 1529 H 153.308 3.15206 0.736659 0
M  V30 1530 H 152.215 3.39667 -1.56772 0
M  V30 1531 H 153.548 4.47718 -2.04474 0
M  V30 1532 N 155.201 0.870884 1.31352 0
M  V30 1533 C 156.131 0.343096 2.30966 0
M  V30 1534 C 157.112 -0.566507 1.60389 0
M  V30 1535 O 158.297 -0.483336 1.88089 0
M  V30 1536 C 155.427 -0.455487 3.443 0
M  V30 1537 C 154.381 0.361103 4.26474 0
M  V30 1538 C 153.707 -0.563221 5.31725 0
M  V30 1539 C 155.007 1.59566 4.97329 0
M  V30 1540 H 156.701 1.17548 2.75359 0
M  V30 1541 H 154.247 0.566686 1.32381 0
M  V30 1542 H 156.2 -0.83525 4.13039 0
M  V30 1543 H 154.924 -1.32139 2.98675 0
M  V30 1544 H 153.583 0.722825 3.59403 0
M  V30 1545 H 153.231 -1.42643 4.82351 0
M  V30 1546 H 152.931 -0.0207409 5.87596 0
M  V30 1547 H 154.455 -0.939808 6.03324 0
M  V30 1548 H 155.869 1.28728 5.58661 0
M  V30 1549 H 154.266 2.07728 5.63 0
M  V30 1550 H 155.336 2.34798 4.24262 0
M  V30 1551 N 156.679 -1.44442 0.630414 0
M  V30 1552 C 157.925 -2.02894 0.143332 0
M  V30 1553 C 158.28 -1.48697 -1.22094 0
M  V30 1554 O 157.573 -0.661171 -1.79831 0
M  V30 1555 C 157.767 -3.57332 0.0697835 0
M  V30 1556 C 157.596 -4.26512 1.42539 0
M  V30 1557 C 156.366 -4.63516 2.01198 0
M  V30 1558 C 158.564 -4.57004 2.35907 0
M  V30 1559 N 156.546 -5.17661 3.30001 0
M  V30 1560 C 157.917 -5.12223 3.49324 0
M  V30 1561 C 159.972 -4.38955 2.34995 0
M  V30 1562 C 158.675 -5.51295 4.62024 0
M  V30 1563 C 160.701 -4.79075 3.46758 0
M  V30 1564 C 160.063 -5.34407 4.58899 0
M  V30 1565 H 156.162 -0.776041 0.0963523 0
M  V30 1566 H 158.746 -1.75945 0.833752 0
M  V30 1567 H 156.917 -3.83894 -0.589915 0
M  V30 1568 H 158.649 -4.02451 -0.42606 0
M  V30 1569 H 155.404 -4.47811 1.54151 0
M  V30 1570 H 155.828 -5.4921 3.95851 0
M  V30 1571 H 160.47 -3.95469 1.49545 0
M  V30 1572 H 158.188 -5.93736 5.48182 0
M  V30 1573 H 161.774 -4.66824 3.47227 0
M  V30 1574 H 160.654 -5.64878 5.4395 0
M  V30 1575 N 158.157 -0.370918 -1.53173 0
M  V30 1576 C 159.087 0.464847 -2.28826 0
M  V30 1577 C 160.068 1.07936 -1.31468 0
M  V30 1578 O 161.253 1.0956 -1.60344 0
M  V30 1579 C 158.383 1.60196 -3.08147 0
M  V30 1580 C 157.337 1.11443 -4.13237 0
M  V30 1581 C 156.663 2.3422 -4.80672 0
M  V30 1582 C 157.963 0.195384 -5.21934 0
M  V30 1583 H 159.657 -0.166329 -2.98938 0
M  V30 1584 H 157.203 -0.0814359 -1.4377 0
M  V30 1585 H 159.156 2.19332 -3.59822 0
M  V30 1586 H 157.88 2.26045 -2.35735 0
M  V30 1587 H 156.539 0.545727 -3.62515 0
M  V30 1588 H 156.187 2.98537 -4.04827 0
M  V30 1589 H 155.887 2.02269 -5.51689 0
M  V30 1590 H 157.411 2.94032 -5.35143 0
M  V30 1591 H 158.825 0.694375 -5.69079 0
M  V30 1592 H 157.222 -0.0335027 -6.00091 0
M  V30 1593 H 158.292 -0.760961 -4.78892 0
M  V30 1594 N 159.635 1.57281 -0.100228 0
M  V30 1595 C 160.912 1.86014 0.604812 0
M  V30 1596 C 161.292 0.998025 1.86018 0
M  V30 1597 O 160.64 0.0718184 2.28387 0
M  V30 1598 C 160.85 3.36784 0.915278 0
M  V30 1599 C 162.198 4.04957 1.27651 0
M  V30 1600 O 163.222 3.41695 1.00613 0
M  V30 1601 O 162.081 5.16593 1.7831 0
M  V30 1602 H 159.175 0.76942 0.303185 0
M  V30 1603 H 161.721 1.69176 -0.133313 0
M  V30 1604 H 160.493 3.91292 0.0248896 0
M  V30 1605 H 160.116 3.58987 1.70921 0
M  V30 1606 N 161.113 -0.173488 1.56642 0
M  V30 1607 C 162.359 -0.891784 1.8214 0
M  V30 1608 C 162.692 -1.8199 0.677736 0
M  V30 1609 O 161.967 -1.91842 -0.320446 0
M  V30 1610 C 162.25 -1.68933 3.18015 0
M  V30 1611 C 162.103 -0.784487 4.42906 0
M  V30 1612 C 163.422 -2.65748 3.50808 0
M  V30 1613 H 160.541 -0.322761 0.662567 0
M  V30 1614 H 163.183 -0.158095 1.89341 0
M  V30 1615 H 161.333 -2.31482 3.12007 0
M  V30 1616 H 163.005 -0.172046 4.60979 0
M  V30 1617 H 161.248 -0.0924117 4.33702 0
M  V30 1618 H 161.919 -1.37799 5.34524 0
M  V30 1619 H 164.395 -2.13327 3.57255 0
M  V30 1620 H 163.271 -3.18619 4.4696 0
M  V30 1621 H 163.532 -3.45842 2.75401 0
M  V30 1622 N 162.591 -1.51276 -0.441967 0
M  V30 1623 C 163.837 -1.63958 -1.19355 0
M  V30 1624 C 164.17 -0.352543 -1.90973 0
M  V30 1625 O 163.445 0.647627 -1.83401 0
M  V30 1626 C 163.728 -2.83979 -2.21422 0
M  V30 1627 C 163.581 -4.22646 -1.53918 0
M  V30 1628 C 164.9 -2.99521 -3.22451 0
M  V30 1629 H 162.019 -0.596709 -0.432559 0
M  V30 1630 H 164.661 -1.83748 -0.483398 0
M  V30 1631 H 162.811 -2.67237 -2.81987 0
M  V30 1632 H 164.483 -4.51045 -0.967256 0
M  V30 1633 H 162.726 -4.25558 -0.841615 0
M  V30 1634 H 163.397 -5.02609 -2.28229 0
M  V30 1635 H 165.873 -3.14944 -2.71937 0
M  V30 1636 H 164.749 -3.85072 -3.91166 0
M  V30 1637 H 165.01 -2.11391 -3.88287 0
M  V30 1638 N 164.069 0.697108 -1.41344 0
M  V30 1639 C 164.979 1.84088 -1.45427 0
M  V30 1640 C 165.995 1.70545 -0.34501 0
M  V30 1641 O 167.171 1.92488 -0.592492 0
M  V30 1642 C 164.236 3.20056 -1.33286 0
M  V30 1643 C 163.297 3.45718 -2.54514 0
M  V30 1644 C 162.53 4.75199 -2.42944 0
M  V30 1645 O 162.753 5.51579 -1.45318 0
M  V30 1646 O 161.687 5.0161 -3.32672 0
M  V30 1647 H 165.513 1.836 -2.41919 0
M  V30 1648 H 163.098 0.849966 -1.22866 0
M  V30 1649 H 164.98 4.01236 -1.28794 0
M  V30 1650 H 163.655 3.2123 -0.39909 0
M  V30 1651 H 162.562 2.64474 -2.64583 0
M  V30 1652 H 163.895 3.49356 -3.46715 0
M  V30 1653 N 165.547 1.27147 0.931209 0
M  V30 1654 C 166.775 1.16082 1.71267 0
M  V30 1655 C 167.19 -0.282772 1.8667 0
M  V30 1656 O 166.547 -1.19283 1.38122 0
M  V30 1657 C 166.598 1.8358 3.11417 0
M  V30 1658 O 166.319 3.22299 2.96741 0
M  V30 1659 C 167.82 1.78597 4.05732 0
M  V30 1660 H 165.04 0.403758 0.535929 0
M  V30 1661 H 167.584 1.67953 1.16671 0
M  V30 1662 H 165.739 1.35623 3.62885 0
M  V30 1663 H 166.153 3.55851 3.85319 0
M  V30 1664 H 167.627 2.30444 5.01597 0
M  V30 1665 H 168.104 0.754564 4.3267 0
M  V30 1666 H 168.71 2.26152 3.60188 0
M  V30 1667 N 167.025 -1.13721 1.09112 0
M  V30 1668 C 167.973 -2.21103 0.722219 0
M  V30 1669 C 168.967 -1.67147 -0.275374 0
M  V30 1670 O 170.173 -1.79477 -0.137176 0
M  V30 1671 H 166.548 -0.720445 0.215553 0
M  V30 1672 H 168.519 -2.49483 1.63709 0
M  V30 1673 C 167.268 -3.47352 0.15543 0
M  V30 1674 H 166.591 -3.89206 0.914246 0
M  V30 1675 H 168.031 -4.2395 -0.0647967 0
M  V30 1676 C 166.49 -3.1814 -1.10852 0
M  V30 1677 O 167.02 -3.36604 -2.19227 0
M  V30 1678 N 165.226 -2.72045 -1.02176 0
M  V30 1679 H 164.773 -2.57221 -0.139764 0
M  V30 1680 H 164.731 -2.52875 -1.8682 0
M  V30 1681 N 168.503 -0.877838 -1.30888 0
M  V30 1682 C 169.433 -0.35534 -2.3078 0
M  V30 1683 C 170.414 0.557994 -1.60687 0
M  V30 1684 O 171.599 0.473355 -1.88343 0
M  V30 1685 C 168.729 0.437221 -3.44537 0
M  V30 1686 C 167.683 -0.383715 -4.26276 0
M  V30 1687 C 167.009 0.535014 -5.32017 0
M  V30 1688 C 168.309 -1.62201 -4.96476 0
M  V30 1689 H 170.003 -1.19007 -2.74732 0
M  V30 1690 H 167.549 -0.573698 -1.32078 0
M  V30 1691 H 169.502 0.813334 -4.13477 0
M  V30 1692 H 168.226 1.30553 -2.99372 0
M  V30 1693 H 166.885 -0.741874 -3.59015 0
M  V30 1694 H 166.533 1.40083 -4.831 0
M  V30 1695 H 166.233 -0.0104211 -5.87599 0
M  V30 1696 H 167.757 0.907799 -6.03814 0
M  V30 1697 H 169.171 -1.31689 -5.5797 0
M  V30 1698 H 167.568 -2.10711 -5.61891 0
M  V30 1699 H 168.638 -2.37044 -4.23011 0
M  V30 1700 N 169.982 1.44106 -0.638065 0
M  V30 1701 C 171.21 2.06336 -0.152615 0
M  V30 1702 C 171.625 1.47731 1.17563 0
M  V30 1703 O 170.982 0.602806 1.72257 0
M  V30 1704 C 171.033 3.61479 -0.0391491 0
M  V30 1705 O 170.754 4.17903 -1.31487 0
M  V30 1706 C 172.255 4.40757 0.474176 0
M  V30 1707 H 169.475 0.665862 -0.0828776 0
M  V30 1708 H 172.019 1.84862 -0.87443 0
M  V30 1709 H 170.174 3.82191 0.633142 0
M  V30 1710 H 170.588 5.11416 -1.16421 0
M  V30 1711 H 172.062 5.49707 0.502562 0
M  V30 1712 H 172.539 4.12697 1.50258 0
M  V30 1713 H 173.145 4.24979 -0.165102 0
M  V30 1714 N 171.46 0.379036 1.52974 0
M  V30 1715 C 172.708 -0.206014 2.01047 0
M  V30 1716 C 173.029 -1.48175 1.26765 0
M  V30 1717 O 172.299 -1.92085 0.384743 0
M  V30 1718 H 170.879 -0.0791184 0.742798 0
M  V30 1719 H 173.541 0.508366 1.88153 0
M  V30 1720 H 172.637 -0.423501 3.09213 0
M  V30 1721 N 172.938 -1.57226 0.108567 0
M  V30 1722 C 174.184 -1.95121 -0.552761 0
M  V30 1723 C 174.517 -0.991345 -1.66991 0
M  V30 1724 O 173.792 -0.0267211 -1.94482 0
M  V30 1725 C 174.075 -3.43039 -1.09528 0
M  V30 1726 C 173.928 -4.49797 0.0177332 0
M  V30 1727 C 175.247 -3.92567 -1.98945 0
M  V30 1728 H 172.366 -0.709496 -0.199461 0
M  V30 1729 H 175.008 -1.89126 0.182011 0
M  V30 1730 H 173.158 -3.48279 -1.72146 0
M  V30 1731 H 174.83 -4.56661 0.652584 0
M  V30 1732 H 173.073 -4.284 0.682309 0
M  V30 1733 H 173.744 -5.50528 -0.402919 0
M  V30 1734 H 176.22 -3.89565 -1.46214 0
M  V30 1735 H 175.096 -4.96605 -2.33827 0
M  V30 1736 H 175.357 -3.32648 -2.91201 0
M  V30 1737 N 174.416 0.165178 -1.56732 0
M  V30 1738 C 175.663 0.880807 -1.8234 0
M  V30 1739 C 175.991 1.81977 -0.686621 0
M  V30 1740 O 175.246 1.92971 0.325697 0
M  V30 1741 C 175.545 1.70405 -3.1416 0
M  V30 1742 C 175.211 0.913475 -4.4155 0
M  V30 1743 C 173.873 0.695303 -4.7615 0
M  V30 1744 C 176.225 0.359349 -5.1996 0
M  V30 1745 C 173.553 -0.0879947 -5.86634 0
M  V30 1746 C 175.905 -0.410893 -6.31264 0
M  V30 1747 C 174.569 -0.639808 -6.64427 0
M  V30 1748 H 173.839 0.32231 -0.667231 0
M  V30 1749 H 176.486 0.145402 -1.90947 0
M  V30 1750 H 174.791 2.50903 -3.00923 0
M  V30 1751 H 176.488 2.26091 -3.31186 0
M  V30 1752 H 173.078 1.09357 -4.14414 0
M  V30 1753 H 177.262 0.515228 -4.93618 0
M  V30 1754 H 172.518 -0.27503 -6.10781 0
M  V30 1755 H 176.692 -0.847494 -6.91224 0
M  V30 1756 H 174.319 -1.24864 -7.49875 0
M  V30 1757 N 175.894 1.51508 0.433938 0
M  V30 1758 C 177.31 1.39759 0.770682 0
M  V30 1759 C 177.51 0.482594 1.95636 0
M  V30 1760 O 176.566 -0.0609691 2.52426 0
M  V30 1761 C 177.879 2.81851 1.04787 0
M  V30 1762 C 179.427 2.91025 1.1521 0
M  V30 1763 C 179.902 4.34032 1.46219 0
M  V30 1764 N 181.393 4.37154 1.53136 0
M  V30 1765 C 182.128 5.4484 1.78709 0
M  V30 1766 N 181.624 6.62682 2.02051 0
M  V30 1767 N 183.417 5.32324 1.80519 0
M  V30 1768 H 175.568 2.09548 -0.346892 0
M  V30 1769 H 177.831 0.943446 -0.0928074 0
M  V30 1770 H 177.537 3.50815 0.249304 0
M  V30 1771 H 177.411 3.21386 1.97461 0
M  V30 1772 H 179.798 2.22257 1.94128 0
M  V30 1773 H 179.879 2.54983 0.204281 0
M  V30 1774 H 179.523 5.03351 0.678274 0
M  V30 1775 H 179.453 4.6759 2.42212 0
M  V30 1776 H 181.944 3.52197 1.36987 0
M  V30 1777 H 182.257 7.40543 2.20943 0
M  V30 1778 H 180.602 6.65791 1.99366 0
M  V30 1779 H 183.793 4.39246 1.61805 0
M  V30 1780 H 183.966 6.16328 2.00111 0
M  V30 1781 N 177.372 -0.689602 1.41712 0
M  V30 1782 C 178.618 -1.45181 1.41599 0
M  V30 1783 C 178.951 -1.94181 0.0270081 0
M  V30 1784 O 178.226 -1.6993 -0.946265 0
M  V30 1785 C 178.509 -2.65945 2.42787 0
M  V30 1786 C 178.362 -2.22672 3.90816 0
M  V30 1787 C 179.681 -3.68149 2.41151 0
M  V30 1788 H 176.8 -0.526576 0.515642 0
M  V30 1789 H 179.442 -0.784947 1.73028 0
M  V30 1790 H 177.592 -3.2284 2.16116 0
M  V30 1791 H 179.264 -1.71058 4.28412 0
M  V30 1792 H 177.507 -1.54394 4.05395 0
M  V30 1793 H 178.178 -3.0935 4.57172 0
M  V30 1794 H 180.654 -3.2094 2.64834 0
M  V30 1795 H 179.53 -4.50248 3.13955 0
M  V30 1796 H 179.791 -4.18259 1.43221 0
M  V30 1797 N 178.85 -1.27639 -0.924453 0
M  V30 1798 C 180.078 -1.16989 -1.70649 0
M  V30 1799 C 180.493 0.272869 -1.86818 0
M  V30 1800 O 179.85 1.18549 -1.38753 0
M  V30 1801 C 179.901 -1.85229 -3.10439 0
M  V30 1802 O 179.622 -3.23868 -2.95028 0
M  V30 1803 C 181.123 -1.80746 -4.04779 0
M  V30 1804 H 178.343 -0.406595 -0.53378 0
M  V30 1805 H 180.887 -1.68569 -1.15778 0
M  V30 1806 H 179.042 -1.37545 -3.6216 0
M  V30 1807 H 179.456 -3.57889 -3.83426 0
M  V30 1808 H 180.93 -2.33101 -5.00368 0
M  V30 1809 H 181.407 -0.777499 -4.32263 0
M  V30 1810 H 182.013 -2.28059 -3.58984 0
M  V30 1811 N 180.328 1.1314 -1.09713 0
M  V30 1812 C 181.275 2.18642 -0.739196 0
M  V30 1813 C 182.245 1.63706 0.280978 0
M  V30 1814 O 183.43 1.90111 0.161946 0
M  V30 1815 C 180.57 3.44685 -0.169102 0
M  V30 1816 C 179.683 4.13711 -1.24367 0
M  V30 1817 C 178.818 5.27379 -0.636019 0
M  V30 1818 C 177.857 5.88259 -1.69169 0
M  V30 1819 N 176.994 6.93352 -1.10485 0
M  V30 1820 H 181.834 2.48607 -1.64312 0
M  V30 1821 H 179.371 1.22066 -0.820875 0
M  V30 1822 H 181.329 4.16815 0.179256 0
M  V30 1823 H 179.959 3.15161 0.698079 0
M  V30 1824 H 179.011 3.39835 -1.70927 0
M  V30 1825 H 180.323 4.55037 -2.04311 0
M  V30 1826 H 179.477 6.06238 -0.236677 0
M  V30 1827 H 178.216 4.8731 0.194928 0
M  V30 1828 H 177.221 5.08092 -2.10055 0
M  V30 1829 H 178.446 6.30399 -2.52536 0
M  V30 1830 H 176.392 6.55335 -0.295234 0
M  V30 1831 H 176.309 7.33236 -1.84121 0
M  V30 1832 H 177.577 7.76057 -0.73181 0
M  V30 1833 N 181.806 0.884767 1.30421 0
M  V30 1834 C 182.738 0.308655 2.27112 0
M  V30 1835 C 183.751 -0.536655 1.53701 0
M  V30 1836 O 184.94 -0.35624 1.74909 0
M  V30 1837 C 182.04 -0.579782 3.33904 0
M  V30 1838 C 181.213 0.236417 4.36761 0
M  V30 1839 C 180.272 -0.582482 5.22966 0
M  V30 1840 O 179.298 -0.00525502 5.692 0
M  V30 1841 N 180.5 -1.89163 5.48815 0
M  V30 1842 H 183.265 1.13964 2.77186 0
M  V30 1843 H 180.826 0.747731 1.43599 0
M  V30 1844 H 182.818 -1.13366 3.88497 0
M  V30 1845 H 181.388 -1.31144 2.83761 0
M  V30 1846 H 180.608 0.97174 3.82035 0
M  V30 1847 H 181.896 0.795924 5.02536 0
M  V30 1848 H 181.294 -2.38352 5.13035 0
M  V30 1849 H 179.851 -2.39296 6.06284 0
M  V30 1850 N 183.284 -1.43765 0.645699 0
M  V30 1851 C 184.53 -2.02197 0.156271 0
M  V30 1852 C 184.863 -1.50776 -1.22393 0
M  V30 1853 O 184.138 -0.697771 -1.81553 0
M  V30 1854 C 184.421 -3.59749 0.158872 0
M  V30 1855 C 184.274 -4.21419 1.57245 0
M  V30 1856 C 185.593 -4.37149 -0.50879 0
M  V30 1857 H 182.712 -0.734694 0.0582602 0
M  V30 1858 H 185.354 -1.71157 0.824951 0
M  V30 1859 H 183.504 -3.86325 -0.410525 0
M  V30 1860 H 185.176 -4.059 2.19186 0
M  V30 1861 H 183.419 -3.78356 2.122 0
M  V30 1862 H 184.09 -5.30482 1.52619 0
M  V30 1863 H 186.566 -4.16093 -0.024412 0
M  V30 1864 H 185.442 -5.4683 -0.476213 0
M  V30 1865 H 185.703 -4.12839 -1.58165 0
M  V30 1866 N 184.763 -0.387143 -1.52771 0
M  V30 1867 C 185.693 0.440551 -2.29306 0
M  V30 1868 C 186.674 1.06535 -1.32606 0
M  V30 1869 O 187.859 1.07853 -1.61497 0
M  V30 1870 C 184.989 1.56919 -3.09829 0
M  V30 1871 C 183.943 1.07054 -4.14395 0
M  V30 1872 C 183.269 2.29109 -4.83129 0
M  V30 1873 C 184.569 0.140015 -5.22112 0
M  V30 1874 H 186.263 -0.198026 -2.98744 0
M  V30 1875 H 183.809 -0.09668 -1.43675 0
M  V30 1876 H 185.762 2.15503 -3.62128 0
M  V30 1877 H 184.486 2.23532 -2.3812 0
M  V30 1878 H 183.145 0.507247 -3.63074 0
M  V30 1879 H 182.793 2.94227 -4.0797 0
M  V30 1880 H 182.493 1.96406 -5.53804 0
M  V30 1881 H 184.017 2.88339 -5.38231 0
M  V30 1882 H 185.431 0.633978 -5.69784 0
M  V30 1883 H 183.828 -0.0971485 -6.00021 0
M  V30 1884 H 184.898 -0.811711 -4.78058 0
M  V30 1885 N 186.241 1.57166 -0.116904 0
M  V30 1886 C 187.188 2.15202 0.83408 0
M  V30 1887 C 188.158 1.07644 1.26499 0
M  V30 1888 O 189.343 1.35541 1.34288 0
M  V30 1889 C 186.483 2.75405 2.07957 0
M  V30 1890 C 185.596 3.97264 1.69721 0
M  V30 1891 C 184.731 4.45561 2.89221 0
M  V30 1892 C 183.77 5.59956 2.47215 0
M  V30 1893 N 182.907 6.03006 3.59622 0
M  V30 1894 H 187.747 2.96141 0.332335 0
M  V30 1895 H 185.284 1.46309 0.152349 0
M  V30 1896 H 187.242 3.08439 2.80929 0
M  V30 1897 H 185.872 1.97159 2.55594 0
M  V30 1898 H 184.924 3.70404 0.866316 0
M  V30 1899 H 186.236 4.80226 1.34849 0
M  V30 1900 H 185.39 4.80493 3.7042 0
M  V30 1901 H 184.129 3.61544 3.27318 0
M  V30 1902 H 183.134 5.2463 1.64448 0
M  V30 1903 H 184.359 6.45738 2.10238 0
M  V30 1904 H 182.305 5.21931 3.97396 0
M  V30 1905 H 182.222 6.80819 3.28667 0
M  V30 1906 H 183.49 6.42576 4.41267 0
M  V30 1907 N 187.719 -0.156864 1.56817 0
M  V30 1908 C 188.682 -1.17781 1.96622 0
M  V30 1909 C 189.682 -1.36401 0.851555 0
M  V30 1910 O 190.872 -1.33561 1.11836 0
M  V30 1911 C 188.004 -2.54008 2.27361 0
M  V30 1912 H 189.197 -0.836564 2.87996 0
M  V30 1913 H 186.75 -0.39985 1.51099 0
M  V30 1914 H 187.485 -2.9312 1.38748 0
M  V30 1915 H 187.27 -2.41856 3.08623 0
M  V30 1916 H 188.76 -3.27558 2.59029 0
M  V30 1917 N 189.197 -1.51736 -0.425897 0
M  V30 1918 C 190.445 -1.64644 -1.17204 0
M  V30 1919 C 190.766 -0.370486 -1.91448 0
M  V30 1920 O 190.036 0.614088 -1.86026 0
M  V30 1921 H 188.616 -0.606819 -0.435638 0
M  V30 1922 H 191.278 -1.88713 -0.487177 0
M  V30 1923 H 190.374 -2.47958 -1.89534 0
M  V30 1924 N 190.675 0.682077 -1.42076 0
M  V30 1925 C 191.923 1.4393 -1.41876 0
M  V30 1926 C 192.244 1.94971 -0.0335599 0
M  V30 1927 O 191.514 1.72591 0.926773 0
M  V30 1928 H 190.094 0.534085 -0.522267 0
M  V30 1929 H 192.756 0.806427 -1.77434 0
M  V30 1930 H 191.852 2.29588 -2.11414 0
M  V30 1931 N 192.153 1.28127 0.917671 0
M  V30 1932 C 193.086 1.06039 2.02067 0
M  V30 1933 C 194.064 -0.0223285 1.62585 0
M  V30 1934 O 195.248 0.124823 1.88086 0
M  V30 1935 C 192.375 0.610596 3.33151 0
M  V30 1936 C 191.421 1.68937 3.91615 0
M  V30 1937 S 192.254 3.28437 4.22953 0
M  V30 1938 C 193.41 2.85283 5.57103 0
M  V30 1939 H 193.643 1.99425 2.20493 0
M  V30 1940 H 191.176 1.12071 1.06205 0
M  V30 1941 H 193.134 0.357778 4.08938 0
M  V30 1942 H 191.795 -0.303364 3.12632 0
M  V30 1943 H 190.988 1.32619 4.86239 0
M  V30 1944 H 190.59 1.89478 3.2245 0
M  V30 1945 H 192.882 2.3121 6.36827 0
M  V30 1946 H 193.825 3.7869 5.98331 0
M  V30 1947 H 194.233 2.24118 5.18104 0
M  V30 1948 N 193.631 -1.12557 1.10312 0
M  V30 1949 C 194.561 -2.20341 0.772798 0
M  V30 1950 C 195.542 -1.68198 -0.25365 0
M  V30 1951 O 196.727 -1.93831 -0.119699 0
M  V30 1952 C 193.857 -3.46709 0.202443 0
M  V30 1953 C 192.811 -4.11996 1.15943 0
M  V30 1954 C 192.137 -5.328 0.450345 0
M  V30 1955 C 193.437 -4.5828 2.50552 0
M  V30 1956 H 195.131 -2.48229 1.674 0
M  V30 1957 H 192.677 -1.19308 0.806326 0
M  V30 1958 H 194.63 -4.2138 -0.0407752 0
M  V30 1959 H 193.354 -3.18245 -0.734001 0
M  V30 1960 H 192.013 -3.39305 1.38808 0
M  V30 1961 H 191.661 -5.00602 -0.490531 0
M  V30 1962 H 191.361 -5.7743 1.08851 0
M  V30 1963 H 192.885 -6.10219 0.215642 0
M  V30 1964 H 194.299 -5.2433 2.31843 0
M  V30 1965 H 192.696 -5.13683 3.10242 0
M  V30 1966 H 193.766 -3.72329 3.10643 0
M  V30 1967 N 195.109 -0.891671 -1.2995 0
M  V30 1968 C 196.019 -0.367691 -2.31701 0
M  V30 1969 C 197.035 0.533486 -1.6562 0
M  V30 1970 O 198.211 0.424997 -1.96865 0
M  V30 1971 C 195.276 0.403406 -3.44345 0
M  V30 1972 C 194.337 -0.528328 -4.26037 0
M  V30 1973 C 193.57 0.206063 -5.33302 0
M  V30 1974 O 193.793 1.43119 -5.52153 0
M  V30 1975 O 192.727 -0.447281 -6.00236 0
M  V30 1976 H 196.553 -1.21163 -2.78484 0
M  V30 1977 H 194.138 -0.655725 -1.34241 0
M  V30 1978 H 196.02 0.839753 -4.12948 0
M  V30 1979 H 194.695 1.22354 -2.99685 0
M  V30 1980 H 193.602 -1.01362 -3.60106 0
M  V30 1981 H 194.935 -1.31465 -4.74318 0
M  V30 1982 N 196.587 1.43421 -0.653314 0
M  V30 1983 C 198.003 1.56341 -0.320886 0
M  V30 1984 C 198.203 1.63696 1.17499 0
M  V30 1985 O 197.259 1.59208 1.95982 0
M  V30 1986 C 198.572 2.82424 -1.03233 0
M  V30 1987 C 200.12 2.96168 -1.01259 0
M  V30 1988 C 200.595 4.25084 -1.70492 0
M  V30 1989 N 202.086 4.31948 -1.67257 0
M  V30 1990 C 202.821 5.30466 -2.17701 0
M  V30 1991 N 202.317 6.35261 -2.76434 0
M  V30 1992 N 204.11 5.2212 -2.082 0
M  V30 1993 H 196.261 1.3689 -1.62403 0
M  V30 1994 H 198.524 0.657455 -0.682977 0
M  V30 1995 H 198.23 2.83053 -2.08744 0
M  V30 1996 H 198.104 3.72653 -0.583948 0
M  V30 1997 H 200.491 2.9508 0.0341235 0
M  V30 1998 H 200.572 2.07229 -1.49966 0
M  V30 1999 H 200.216 4.26932 -2.7512 0
M  V30 2000 H 200.146 5.1292 -1.19251 0
M  V30 2001 H 202.637 3.56838 -1.24398 0
M  V30 2002 H 202.95 7.06754 -3.12601 0
M  V30 2003 H 201.295 6.35884 -2.80495 0
M  V30 2004 H 204.486 4.39166 -1.62021 0
M  V30 2005 H 204.659 5.98739 -2.47822 0
M  V30 2006 N 198.065 0.39524 1.52563 0
M  V30 2007 C 199.313 -0.184678 2.01254 0
M  V30 2008 C 199.634 -1.46822 1.28329 0
M  V30 2009 O 198.904 -1.91666 0.405094 0
M  V30 2010 H 197.484 -0.0712355 0.743596 0
M  V30 2011 H 200.146 0.528293 1.87603 0
M  V30 2012 H 199.242 -0.390681 3.09645 0
M  V30 2013 N 199.544 -1.57102 0.125237 0
M  V30 2014 C 200.772 -1.99761 -0.538797 0
M  V30 2015 C 201.187 -1.00503 -1.59827 0
M  V30 2016 O 200.544 0.00119474 -1.825 0
M  V30 2017 C 200.595 -3.42408 -1.15927 0
M  V30 2018 O 200.316 -4.37869 -0.142143 0
M  V30 2019 C 201.817 -4.00232 -1.90602 0
M  V30 2020 H 199.037 -0.655772 -0.14214 0
M  V30 2021 H 201.581 -2.03383 0.213413 0
M  V30 2022 H 199.736 -3.39706 -1.86223 0
M  V30 2023 H 200.15 -5.21128 -0.593775 0
M  V30 2024 H 201.624 -5.02105 -2.29335 0
M  V30 2025 H 202.101 -3.39721 -2.78363 0
M  V30 2026 H 202.707 -4.06499 -1.25055 0
M  V30 2027 N 201.022 0.148545 -1.56898 0
M  V30 2028 C 202.27 0.859717 -1.82902 0
M  V30 2029 C 202.591 1.81775 -0.70588 0
M  V30 2030 O 201.861 1.93994 0.272586 0
M  V30 2031 H 200.441 0.320469 -0.674766 0
M  V30 2032 H 203.103 0.142918 -1.94375 0
M  V30 2033 H 202.199 1.4229 -2.77777 0
M  V30 2034 N 202.5 1.5196 0.417844 0
M  V30 2035 C 203.916 1.40569 0.755816 0
M  V30 2036 C 204.116 0.503316 1.95113 0
M  V30 2037 O 203.172 -0.0341925 2.52477 0
M  V30 2038 C 204.485 2.82947 1.01791 0
M  V30 2039 C 206.033 2.92231 1.12116 0
M  V30 2040 C 206.508 4.35559 1.41608 0
M  V30 2041 N 207.999 4.38753 1.48491 0
M  V30 2042 C 208.734 5.46705 1.7292 0
M  V30 2043 N 208.23 6.64788 1.95011 0
M  V30 2044 N 210.023 5.34209 1.74863 0
M  V30 2045 H 202.174 2.09168 -0.369098 0
M  V30 2046 H 204.437 0.942409 -0.102809 0
M  V30 2047 H 204.143 3.5106 0.212081 0
M  V30 2048 H 204.017 3.23462 1.94042 0
M  V30 2049 H 206.404 2.24304 1.9176 0
M  V30 2050 H 206.485 2.55185 0.177225 0
M  V30 2051 H 206.129 5.04042 0.624848 0
M  V30 2052 H 206.059 4.70133 2.37239 0
M  V30 2053 H 208.55 3.5363 1.33244 0
M  V30 2054 H 208.863 7.42845 2.13076 0
M  V30 2055 H 207.208 6.67869 1.92293 0
M  V30 2056 H 210.399 4.40937 1.57137 0
M  V30 2057 H 210.572 6.18415 1.93563 0
M  V30 2058 N 203.978 -0.674533 1.42435 0
M  V30 2059 C 205.227 -1.43034 1.42212 0
M  V30 2060 C 205.54 -1.95555 0.0420788 0
M  V30 2061 O 206.746 -2.71374 -0.0827558 0
M  V30 2062 C 205.202 -2.58748 2.50155 0
M  V30 2063 C 204.81 -2.12925 3.94166 0
M  V30 2064 C 206.554 -3.36257 2.59098 0
M  V30 2065 C 204.461 -3.25723 4.93618 0
M  V30 2066 H 203.391 -0.537345 0.528939 0
M  V30 2067 H 206.042 -0.73024 1.68344 0
M  V30 2068 H 204.424 -3.31128 2.17188 0
M  V30 2069 H 205.598 -1.47697 4.36488 0
M  V30 2070 H 203.913 -1.48354 3.89076 0
M  V30 2071 H 206.51 -4.20264 3.30578 0
M  V30 2072 H 206.853 -3.82866 1.63461 0
M  V30 2073 H 207.386 -2.70947 2.9126 0
M  V30 2074 H 204.125 -2.84105 5.90732 0
M  V30 2075 H 203.645 -3.89732 4.55926 0
M  V30 2076 H 205.324 -3.91186 5.15347 0
M  V30 2077 N 205.456 -1.28612 -0.910864 0
M  V30 2078 C 206.702 -1.16106 -1.66274 0
M  V30 2079 C 207.035 0.289113 -1.92036 0
M  V30 2080 O 206.31 1.21 -1.52281 0
M  V30 2081 C 206.593 -1.96309 -3.01885 0
M  V30 2082 C 206.446 -3.49405 -2.8326 0
M  V30 2083 C 207.765 -1.78076 -4.02463 0
M  V30 2084 H 204.884 -0.423152 -0.603417 0
M  V30 2085 H 207.526 -1.57961 -1.05586 0
M  V30 2086 H 205.676 -1.60742 -3.53687 0
M  V30 2087 H 207.348 -3.94894 -2.38446 0
M  V30 2088 H 205.591 -3.74893 -2.18261 0
M  V30 2089 H 206.262 -4.00784 -3.79574 0
M  V30 2090 H 208.738 -2.0912 -3.59733 0
M  V30 2091 H 207.614 -2.36561 -4.95308 0
M  V30 2092 H 207.875 -0.733008 -4.35981 0
M  V30 2093 N 206.934 1.1197 -1.10907 0
M  V30 2094 C 207.882 2.19927 -0.757303 0
M  V30 2095 C 208.876 1.67564 0.248747 0
M  V30 2096 O 210.082 1.79672 0.108605 0
M  V30 2097 H 206.457 0.716925 -0.226987 0
M  V30 2098 H 208.428 2.46847 -1.67658 0
M  V30 2099 C 207.177 3.47061 -0.210671 0
M  V30 2100 H 206.5 3.87703 -0.976049 0
M  V30 2101 H 207.94 4.24 -0.0026584 0
M  V30 2102 C 206.399 3.19864 1.05777 0
M  V30 2103 O 206.929 3.40049 2.13845 0
M  V30 2104 N 205.135 2.73636 0.978349 0
M  V30 2105 H 204.682 2.5741 0.0988246 0
M  V30 2106 H 204.64 2.55815 1.82773 0
M  V30 2107 N 208.412 0.89855 1.29475 0
M  V30 2108 C 209.661 0.519863 1.94885 0
M  V30 2109 C 209.974 -0.9383 1.71625 0
M  V30 2110 O 211.18 -1.42445 2.31131 0
M  V30 2111 C 209.636 0.878836 3.49005 0
M  V30 2112 C 209.244 2.35569 3.81066 0
M  V30 2113 C 210.988 0.570004 4.20656 0
M  V30 2114 C 208.895 2.65558 5.28425 0
M  V30 2115 H 207.825 0.190692 0.729488 0
M  V30 2116 H 210.476 1.09539 1.47219 0
M  V30 2117 H 208.858 0.232253 3.95318 0
M  V30 2118 H 210.032 3.04773 3.45616 0
M  V30 2119 H 208.347 2.63343 3.22552 0
M  V30 2120 H 210.944 0.770925 5.29113 0
M  V30 2121 H 211.287 -0.491404 4.1339 0
M  V30 2122 H 211.82 1.17438 3.8007 0
M  V30 2123 H 208.559 3.70493 5.40754 0
M  V30 2124 H 208.079 2.00977 5.65127 0
M  V30 2125 H 209.758 2.51765 5.96006 0
M  V30 2126 N 209.89 -1.43072 0.660911 0
M  V30 2127 C 210.853 -2.29194 -0.0166406 0
M  V30 2128 C 211.853 -1.42609 -0.742912 0
M  V30 2129 O 213.043 -1.64155 -0.583004 0
M  V30 2130 C 210.175 -3.24831 -1.0343 0
M  V30 2131 H 211.368 -2.90596 0.741208 0
M  V30 2132 H 208.921 -1.5048 0.422532 0
M  V30 2133 H 209.656 -2.68339 -1.82111 0
M  V30 2134 H 209.441 -3.88676 -0.517082 0
M  V30 2135 H 210.931 -3.89451 -1.50723 0
M  V30 2136 N 211.368 -0.403325 -1.52352 0
M  V30 2137 C 212.593 0.176499 -2.06648 0
M  V30 2138 C 213.018 1.38577 -1.27193 0
M  V30 2139 O 212.376 1.7879 -0.300637 0
M  V30 2140 C 212.424 0.511061 -3.5696 0
M  V30 2141 O 211.528 1.60294 -3.79973 0
M  V30 2142 H 210.869 0.0167337 -0.663789 0
M  V30 2143 H 213.399 -0.574848 -1.96359 0
M  V30 2144 H 213.409 0.771362 -4.00642 0
M  V30 2145 H 212.084 -0.37296 -4.14224 0
M  V30 2146 H 210.661 1.33526 -3.48174 0
M  V30 2147 N 212.846 1.57033 -0.133567 0
M  V30 2148 C 214.074 2.00044 0.528195 0
M  V30 2149 C 214.489 1.01349 1.59291 0
M  V30 2150 O 213.846 0.00848369 1.82498 0
M  V30 2151 C 213.897 3.43018 1.1411 0
M  V30 2152 O 213.618 4.37939 0.11892 0
M  V30 2153 C 215.119 4.01237 1.88477 0
M  V30 2154 H 212.339 0.656517 0.138661 0
M  V30 2155 H 214.883 2.03267 -0.224196 0
M  V30 2156 H 213.038 3.40688 1.84418 0
M  V30 2157 H 213.452 5.21436 0.56613 0
M  V30 2158 H 214.926 5.03314 2.26669 0
M  V30 2159 H 215.403 3.41193 2.76558 0
M  V30 2160 H 216.009 4.07156 1.22898 0
M  V30 2161 N 214.325 -0.140222 1.56975 0
M  V30 2162 C 215.573 -0.850005 1.83356 0
M  V30 2163 C 215.894 -1.81399 0.71551 0
M  V30 2164 O 215.164 -1.94136 -0.262294 0
M  V30 2165 H 213.744 -0.316886 0.676456 0
M  V30 2166 H 216.406 -0.132608 1.94448 0
M  V30 2167 H 215.502 -1.40814 2.78528 0
M  V30 2168 N 215.803 -1.52179 -0.40978 0
M  V30 2169 C 217.051 -1.65878 -1.15451 0
M  V30 2170 C 217.372 -0.390771 -1.91044 0
M  V30 2171 O 216.642 0.594323 -1.86667 0
M  V30 2172 H 215.222 -0.611405 -0.429177 0
M  V30 2173 H 217.884 -1.89219 -0.467134 0
M  V30 2174 H 216.98 -2.49954 -1.86894 0
M  V30 2175 N 217.281 0.66697 -1.42791 0
M  V30 2176 C 218.228 1.7803 -1.4688 0
M  V30 2177 C 219.198 1.6299 -0.319919 0
M  V30 2178 O 220.383 1.83432 -0.525118 0
M  V30 2179 C 217.523 3.1611 -1.38451 0
M  V30 2180 C 216.636 3.42381 -2.63437 0
M  V30 2181 C 215.771 4.70232 -2.47094 0
M  V30 2182 C 214.81 4.89564 -3.67415 0
M  V30 2183 N 213.947 6.08661 -3.49966 0
M  V30 2184 H 218.787 1.7387 -2.42019 0
M  V30 2185 H 216.324 0.84868 -1.20149 0
M  V30 2186 H 218.282 3.95914 -1.31561 0
M  V30 2187 H 216.912 3.19374 -0.469033 0
M  V30 2188 H 215.964 2.56774 -2.80662 0
M  V30 2189 H 217.276 3.52557 -3.52853 0
M  V30 2190 H 216.43 5.5814 -2.37834 0
M  V30 2191 H 215.169 4.62353 -1.5518 0
M  V30 2192 H 214.174 4.00096 -3.77099 0
M  V30 2193 H 215.399 4.99282 -4.6032 0
M  V30 2194 H 213.345 6.0194 -2.60776 0
M  V30 2195 H 213.262 6.19733 -4.32975 0
M  V30 2196 H 214.53 6.99226 -3.44532 0
M  V30 2197 N 218.759 1.29093 0.90403 0
M  V30 2198 C 219.691 1.09658 2.01266 0
M  V30 2199 C 220.704 0.0453729 1.62737 0
M  V30 2200 O 221.893 0.289446 1.76138 0
M  V30 2201 C 218.993 0.646278 3.32681 0
M  V30 2202 C 218.166 1.77505 3.99763 0
M  V30 2203 C 217.225 1.31649 5.09465 0
M  V30 2204 O 216.251 2.02045 5.32134 0
M  V30 2205 N 217.453 0.184997 5.80205 0
M  V30 2206 H 220.218 2.05135 2.18494 0
M  V30 2207 H 217.779 1.20975 1.07594 0
M  V30 2208 H 219.771 0.322906 4.0341 0
M  V30 2209 H 218.341 -0.215916 3.11853 0
M  V30 2210 H 217.561 2.26752 3.22455 0
M  V30 2211 H 218.849 2.53198 4.41325 0
M  V30 2212 H 218.247 -0.402021 5.6427 0
M  V30 2213 H 216.804 -0.0790358 6.51752 0
M  V30 2214 N 220.237 -1.11381 1.11499 0
M  V30 2215 C 221.485 -1.8277 0.862524 0
M  V30 2216 C 221.806 -1.85097 -0.613534 0
M  V30 2217 O 221.076 -1.32198 -1.4457 0
M  V30 2218 H 219.656 -0.676823 0.316101 0
M  V30 2219 H 222.318 -1.34816 1.4075 0
M  V30 2220 H 221.414 -2.86614 1.23527 0
M  V30 2221 N 221.715 -0.905404 -1.28997 0
M  V30 2222 C 222.961 -0.535039 -1.95615 0
M  V30 2223 C 223.294 0.917404 -1.71165 0
M  V30 2224 O 222.569 1.65123 -1.02785 0
M  V30 2225 C 222.852 -0.834918 -3.50287 0
M  V30 2226 C 222.705 -2.33948 -3.84172 0
M  V30 2227 C 224.024 -0.325318 -4.38896 0
M  V30 2228 H 221.143 -0.195861 -0.710498 0
M  V30 2229 H 223.785 -1.13313 -1.52513 0
M  V30 2230 H 221.935 -0.325904 -3.87131 0
M  V30 2231 H 223.607 -2.91847 -3.57243 0
M  V30 2232 H 221.85 -2.79789 -3.31513 0
M  V30 2233 H 222.521 -2.49987 -4.92149 0
M  V30 2234 H 224.997 -0.761256 -4.09077 0
M  V30 2235 H 223.873 -0.564295 -5.45992 0
M  V30 2236 H 224.134 0.774144 -4.35269 0
M  V30 2237 N 223.193 1.4272 -0.668489 0
M  V30 2238 C 224.439 2.01923 -0.188419 0
M  V30 2239 C 224.772 1.52704 1.19979 0
M  V30 2240 O 224.047 0.726566 1.8042 0
M  V30 2241 C 224.33 3.59451 -0.216085 0
M  V30 2242 C 224.183 4.18864 -1.6393 0
M  V30 2243 C 225.502 4.37903 0.439179 0
M  V30 2244 H 222.621 0.733674 -0.0699412 0
M  V30 2245 H 225.263 1.69822 -0.852076 0
M  V30 2246 H 223.413 3.86929 0.349012 0
M  V30 2247 H 225.085 4.02362 -2.25616 0
M  V30 2248 H 223.328 3.74933 -2.18193 0
M  V30 2249 H 223.999 5.27987 -1.61039 0
M  V30 2250 H 226.475 4.16079 -0.0417878 0
M  V30 2251 H 225.351 5.47519 0.389157 0
M  V30 2252 H 225.612 4.15303 1.51577 0
M  V30 2253 N 224.671 0.411399 1.52136 0
M  V30 2254 C 225.621 -0.430376 2.23901 0
M  V30 2255 C 226.605 -1.0116 1.25121 0
M  V30 2256 O 227.797 -0.934044 1.50348 0
M  V30 2257 C 224.926 -1.54527 3.06556 0
M  V30 2258 C 224.012 -0.9747 4.12747 0
M  V30 2259 N 224.403 -0.130991 5.0563 0
M  V30 2260 C 222.701 -1.24497 4.28271 0
M  V30 2261 C 223.402 0.186689 5.814 0
M  V30 2262 N 222.378 -0.42304 5.41951 0
M  V30 2263 H 226.18 0.220509 2.93072 0
M  V30 2264 H 223.694 0.221952 1.60876 0
M  V30 2265 H 225.691 -2.16093 3.56524 0
M  V30 2266 H 224.351 -2.19875 2.38925 0
M  V30 2267 H 225.362 0.23349 5.17373 0
M  V30 2268 H 222.039 -1.89787 3.7187 0
M  V30 2269 H 223.429 0.871673 6.66222 0
M  V30 2270 N 226.149 -1.5696 0.141893 0
M  V30 2271 C 227.112 -2.15316 -0.785587 0
M  V30 2272 C 228.112 -1.09366 -1.1788 0
M  V30 2273 O 229.302 -1.35031 -1.10056 0
M  V30 2274 C 226.434 -2.71211 -2.06537 0
M  V30 2275 H 227.627 -2.98608 -0.278041 0
M  V30 2276 H 225.18 -1.5593 -0.107519 0
M  V30 2277 H 225.915 -1.91571 -2.6167 0
M  V30 2278 H 225.7 -3.4872 -1.79268 0
M  V30 2279 H 227.19 -3.16189 -2.72789 0
M  V30 2280 N 227.627 0.131896 -1.57047 0
M  V30 2281 C 228.59 1.14638 -1.98471 0
M  V30 2282 C 229.59 1.35029 -0.873148 0
M  V30 2283 O 230.78 1.31764 -1.13946 0
M  V30 2284 C 227.912 2.50358 -2.31373 0
M  V30 2285 H 229.105 0.79064 -2.8929 0
M  V30 2286 H 226.658 0.375761 -1.51716 0
M  V30 2287 H 227.393 2.90876 -1.43393 0
M  V30 2288 H 227.178 2.36915 -3.12432 0
M  V30 2289 H 228.668 3.23395 -2.64207 0
M  V30 2290 N 229.106 1.52395 0.401703 0
M  V30 2291 C 230.517 1.58899 0.980202 0
M  V30 2292 C 230.868 0.434032 1.91339 0
M  V30 2293 O 229.993 -0.444619 2.11783 0
M  V30 2294 C 230.588 2.87994 1.78451 0
M  V30 2295 C 229.147 2.96953 2.31292 0
M  V30 2296 C 228.294 2.53903 1.11483 0
M  V30 2297 H 231.245 1.57657 0.18168 0
M  V30 2298 H 231.266 2.73765 2.64259 0
M  V30 2299 H 230.778 3.72035 1.10506 0
M  V30 2300 H 228.879 2.17422 3.02586 0
M  V30 2301 H 228.992 4.01344 2.61649 0
M  V30 2302 H 227.356 2.07925 1.47104 0
M  V30 2303 H 228.139 3.40326 0.450928 0
M  V30 2304 N 230.584 -0.659388 1.43143 0
M  V30 2305 C 231.814 -1.44513 1.47646 0
M  V30 2306 C 232.222 -1.88981 0.0910095 0
M  V30 2307 O 231.565 -1.59702 -0.907789 0
M  V30 2308 C 231.627 -2.71663 2.35456 0
M  V30 2309 C 231.291 -2.49175 3.83094 0
M  V30 2310 C 232.288 -2.1279 4.74359 0
M  V30 2311 C 229.973 -2.63691 4.27519 0
M  V30 2312 C 231.967 -1.9121 6.08044 0
M  V30 2313 C 229.654 -2.41726 5.61259 0
M  V30 2314 C 230.652 -2.0554 6.51339 0
M  V30 2315 O 230.34 -1.838 7.82606 0
M  V30 2316 H 230.072 -0.45064 0.503884 0
M  V30 2317 H 232.626 -0.816248 1.88485 0
M  V30 2318 H 230.856 -3.37089 1.89493 0
M  V30 2319 H 232.545 -3.33595 2.31235 0
M  V30 2320 H 233.311 -2.01157 4.41317 0
M  V30 2321 H 229.19 -2.90832 3.57684 0
M  V30 2322 H 232.734 -1.62889 6.78316 0
M  V30 2323 H 228.631 -2.52959 5.9387 0
M  V30 2324 H 229.399 -1.98275 7.94122 0
M  V30 2325 N 232.062 -1.29571 -0.897171 0
M  V30 2326 C 233.287 -1.20705 -1.68656 0
M  V30 2327 C 233.712 0.228582 -1.86706 0
M  V30 2328 O 233.07 1.16494 -1.3892 0
M  V30 2329 C 233.118 -1.9282 -3.04717 0
M  V30 2330 O 232.222 -1.24697 -3.93096 0
M  V30 2331 H 231.563 -0.418126 -0.515816 0
M  V30 2332 H 234.093 -1.71183 -1.12061 0
M  V30 2333 H 234.103 -2.01372 -3.54843 0
M  V30 2334 H 232.778 -2.97239 -2.90899 0
M  V30 2335 H 231.355 -1.2442 -3.51531 0
M  V30 2336 N 233.54 1.10788 -1.12088 0
M  V30 2337 C 234.503 2.15207 -0.788577 0
M  V30 2338 C 235.503 1.59609 0.195317 0
M  V30 2339 O 236.693 1.74174 -0.0300193 0
M  V30 2340 C 233.825 3.4047 -0.171174 0
M  V30 2341 H 235.018 2.46116 -1.71368 0
M  V30 2342 H 232.571 1.26089 -0.923652 0
M  V30 2343 H 233.306 3.15176 0.763832 0
M  V30 2344 H 233.091 3.82109 -0.879514 0
M  V30 2345 H 234.581 4.17576 0.04496 0
M  V30 2346 N 235.018 0.912232 1.28515 0
M  V30 2347 C 236.243 0.559774 1.99703 0
M  V30 2348 C 236.668 -0.851393 1.67729 0
M  V30 2349 O 236.026 -1.56875 0.908834 0
M  V30 2350 C 236.074 0.773874 3.52198 0
M  V30 2351 O 235.178 -0.167842 4.12058 0
M  V30 2352 H 234.519 0.21723 0.627461 0
M  V30 2353 H 237.049 1.22725 1.63706 0
M  V30 2354 H 237.059 0.683386 4.02236 0
M  V30 2355 H 235.734 1.80261 3.74805 0
M  V30 2356 H 234.311 -0.0287509 3.72889 0
M  V30 2357 N 236.496 -1.42363 0.676048 0
M  V30 2358 C 237.443 -2.308 -0.00150904 0
M  V30 2359 C 238.413 -1.46032 -0.791444 0
M  V30 2360 O 239.598 -1.74861 -0.76344 0
M  V30 2361 C 236.738 -3.31883 -0.945919 0
M  V30 2362 C 235.851 -4.31741 -0.149675 0
M  V30 2363 C 234.986 -5.19898 -1.08995 0
M  V30 2364 C 234.025 -6.11434 -0.285465 0
M  V30 2365 N 233.162 -6.92138 -1.17851 0
M  V30 2366 H 238.002 -2.88187 0.758455 0
M  V30 2367 H 235.539 -1.41952 0.38576 0
M  V30 2368 H 237.497 -3.89019 -1.50731 0
M  V30 2369 H 236.127 -2.76093 -1.6725 0
M  V30 2370 H 235.179 -3.76713 0.528359 0
M  V30 2371 H 236.491 -4.96534 0.474866 0
M  V30 2372 H 235.645 -5.81772 -1.72123 0
M  V30 2373 H 234.384 -4.55284 -1.74837 0
M  V30 2374 H 233.389 -5.48627 0.359018 0
M  V30 2375 H 234.614 -6.78097 0.368883 0
M  V30 2376 H 232.56 -6.30152 -1.82332 0
M  V30 2377 H 232.477 -7.53542 -0.609082 0
M  V30 2378 H 233.745 -7.58499 -1.79722 0
M  V30 2379 N 237.974 -0.419461 -1.51915 0
M  V30 2380 C 238.924 0.418496 -2.24126 0
M  V30 2381 C 239.908 1.00495 -1.25656 0
M  V30 2382 O 241.1 0.926058 -1.50842 0
M  V30 2383 C 238.229 1.52899 -3.07371 0
M  V30 2384 C 237.315 0.952797 -4.13258 0
M  V30 2385 N 237.706 0.104175 -5.05693 0
M  V30 2386 C 236.004 1.22224 -4.28926 0
M  V30 2387 C 236.705 -0.21752 -5.81293 0
M  V30 2388 N 235.681 0.394293 -5.42168 0
M  V30 2389 H 239.483 -0.236048 -2.92951 0
M  V30 2390 H 236.997 -0.230481 -1.60756 0
M  V30 2391 H 238.994 2.14199 -3.57665 0
M  V30 2392 H 237.654 2.18605 -2.40088 0
M  V30 2393 H 238.665 -0.260924 -5.17242 0
M  V30 2394 H 235.342 1.87812 -3.72871 0
M  V30 2395 H 236.732 -0.906992 -6.6575 0
M  V30 2396 N 239.452 1.56882 -0.150215 0
M  V30 2397 C 240.7 1.9584 0.499105 0
M  V30 2398 C 241.021 1.03623 1.65188 0
M  V30 2399 O 240.291 0.0984084 1.95653 0
M  V30 2400 H 238.871 0.723119 0.187373 0
M  V30 2401 H 241.533 1.9358 -0.226466 0
M  V30 2402 H 240.629 2.99638 0.873122 0
M  V30 2403 N 240.93 -0.123565 1.57115 0
M  V30 2404 C 242.176 -0.833386 1.84885 0
M  V30 2405 C 242.509 -1.79742 0.735292 0
M  V30 2406 O 241.784 -1.92764 -0.25925 0
M  V30 2407 C 242.067 -1.5873 3.23228 0
M  V30 2408 C 241.92 -0.643183 4.45178 0
M  V30 2409 C 243.239 -2.54453 3.59085 0
M  V30 2410 H 240.358 -0.301518 0.6725 0
M  V30 2411 H 243 -0.097778 1.89748 0
M  V30 2412 H 241.15 -2.21438 3.19214 0
M  V30 2413 H 242.822 -0.0253015 4.61293 0
M  V30 2414 H 241.065 0.0456139 4.33776 0
M  V30 2415 H 241.736 -1.20724 5.38637 0
M  V30 2416 H 244.212 -2.01853 3.63861 0
M  V30 2417 H 243.088 -3.04238 4.5687 0
M  V30 2418 H 243.349 -3.36906 2.86264 0
M  V30 2419 N 242.408 -1.52605 -0.393616 0
M  V30 2420 C 243.654 -1.67672 -1.14079 0
M  V30 2421 C 243.987 -0.413121 -1.89755 0
M  V30 2422 O 243.262 0.588952 -1.85369 0
M  V30 2423 C 243.545 -2.9088 -2.12276 0
M  V30 2424 C 243.398 -4.27329 -1.40394 0
M  V30 2425 C 244.717 -3.09628 -3.12759 0
M  V30 2426 H 241.836 -0.610168 -0.413356 0
M  V30 2427 H 244.478 -1.85193 -0.424696 0
M  V30 2428 H 242.628 -2.76073 -2.73342 0
M  V30 2429 H 244.3 -4.53894 -0.82327 0
M  V30 2430 H 242.543 -4.2802 -0.705801 0
M  V30 2431 H 243.214 -5.09615 -2.12123 0
M  V30 2432 H 245.69 -3.23436 -2.61779 0
M  V30 2433 H 244.566 -3.97322 -3.78717 0
M  V30 2434 H 244.827 -2.23637 -3.81365 0
M  V30 2435 N 243.887 0.651787 -1.4349 0
M  V30 2436 C 245.135 1.40888 -1.44897 0
M  V30 2437 C 245.456 1.94856 -0.0749086 0
M  V30 2438 O 244.726 1.74518 0.889956 0
M  V30 2439 H 243.306 0.522887 -0.533478 0
M  V30 2440 H 245.968 0.768609 -1.79104 0
M  V30 2441 H 245.064 2.25052 -2.16236 0
M  V30 2442 N 245.365 1.30045 0.890287 0
M  V30 2443 C 246.612 1.18561 1.64163 0
M  V30 2444 C 246.94 -0.260852 1.92743 0
M  V30 2445 O 246.195 -1.20376 1.54299 0
M  V30 2446 C 246.494 1.95409 2.99249 0
M  V30 2447 C 246.16 3.45066 2.90242 0
M  V30 2448 C 244.822 3.85878 2.87492 0
M  V30 2449 C 247.174 4.4039 2.78758 0
M  V30 2450 C 244.502 5.20314 2.7109 0
M  V30 2451 C 246.854 5.74928 2.63894 0
M  V30 2452 C 245.518 6.14986 2.59516 0
M  V30 2453 H 244.788 0.433846 0.600715 0
M  V30 2454 H 247.435 1.61088 1.03552 0
M  V30 2455 H 245.74 1.45501 3.63781 0
M  V30 2456 H 247.437 1.8392 3.56334 0
M  V30 2457 H 244.027 3.12631 2.93189 0
M  V30 2458 H 248.211 4.09806 2.79952 0
M  V30 2459 H 243.467 5.50449 2.66112 0
M  V30 2460 H 247.641 6.48434 2.53981 0
M  V30 2461 H 245.268 7.19104 2.46565 0
M  V30 2462 N 246.843 -1.10192 1.12674 0
M  V30 2463 C 248.071 -1.85983 0.906527 0
M  V30 2464 C 248.486 -1.80783 -0.544333 0
M  V30 2465 O 247.843 -1.19834 -1.37645 0
M  V30 2466 C 247.894 -3.34281 1.37618 0
M  V30 2467 O 247.615 -3.39401 2.77017 0
M  V30 2468 C 249.116 -4.26938 1.19325 0
M  V30 2469 H 246.336 -0.587716 0.323775 0
M  V30 2470 H 248.88 -1.39284 1.49734 0
M  V30 2471 H 247.035 -3.78436 0.828539 0
M  V30 2472 H 247.449 -4.31838 2.97684 0
M  V30 2473 H 248.923 -5.29181 1.57071 0
M  V30 2474 H 249.4 -4.38995 0.134097 0
M  V30 2475 H 250.006 -3.8859 1.72852 0
M  V30 2476 N 248.321 -0.919034 -1.28029 0
M  V30 2477 C 249.268 -0.410005 -2.27129 0
M  V30 2478 C 250.238 0.518405 -1.57803 0
M  V30 2479 O 251.423 0.439451 -1.8567 0
M  V30 2480 C 248.563 0.339054 -3.4343 0
M  V30 2481 C 247.676 -0.622468 -4.27492 0
M  V30 2482 C 246.811 0.145567 -5.31001 0
M  V30 2483 C 245.85 -0.809226 -6.06727 0
M  V30 2484 N 244.987 -0.0743728 -7.02061 0
M  V30 2485 H 249.827 -1.26011 -2.70047 0
M  V30 2486 H 247.364 -0.632663 -1.328 0
M  V30 2487 H 249.322 0.789586 -4.0966 0
M  V30 2488 H 247.952 1.15346 -3.01488 0
M  V30 2489 H 247.004 -1.19153 -3.61257 0
M  V30 2490 H 248.316 -1.35252 -4.80113 0
M  V30 2491 H 247.47 0.656417 -6.03139 0
M  V30 2492 H 246.209 0.908643 -4.79161 0
M  V30 2493 H 245.214 -1.3314 -5.33436 0
M  V30 2494 H 246.439 -1.57194 -6.60656 0
M  V30 2495 H 244.385 0.670616 -6.52563 0
M  V30 2496 H 244.302 -0.744157 -7.52329 0
M  V30 2497 H 245.57 0.416109 -7.78389 0
M  V30 2498 N 249.799 1.42003 -0.683588 0
M  V30 2499 C 250.762 2.29191 -0.0198243 0
M  V30 2500 C 251.762 1.43773 0.72013 0
M  V30 2501 O 252.952 1.65061 0.556815 0
M  V30 2502 C 250.084 3.26435 0.982487 0
M  V30 2503 H 251.277 2.8938 -0.787345 0
M  V30 2504 H 248.83 1.49789 -0.446418 0
M  V30 2505 H 249.565 2.71203 1.77819 0
M  V30 2506 H 249.35 3.89449 0.455182 0
M  V30 2507 H 250.84 3.918 1.44508 0
M  V30 2508 N 251.277 0.427512 1.51691 0
M  V30 2509 C 252.207 -0.3796 2.30394 0
M  V30 2510 C 253.188 -1.02982 1.35384 0
M  V30 2511 O 254.373 -1.03534 1.643 0
M  V30 2512 C 251.503 -1.48649 3.1388 0
M  V30 2513 C 250.457 -0.960294 4.17088 0
M  V30 2514 C 249.783 -2.16219 4.89033 0
M  V30 2515 C 251.083 -0.00153679 5.223 0
M  V30 2516 H 252.777 0.277164 2.98114 0
M  V30 2517 H 250.323 0.134739 1.43368 0
M  V30 2518 H 252.276 -2.05826 3.67714 0
M  V30 2519 H 251 -2.1714 2.43962 0
M  V30 2520 H 249.659 -0.410806 3.64291 0
M  V30 2521 H 249.307 -2.83307 4.15628 0
M  V30 2522 H 249.007 -1.81654 5.58816 0
M  V30 2523 H 250.531 -2.73968 5.45687 0
M  V30 2524 H 251.945 -0.482687 5.71264 0
M  V30 2525 H 250.342 0.256199 5.99553 0
M  V30 2526 H 251.412 0.938174 4.75738 0
M  V30 2527 N 252.755 -1.56801 0.158532 0
M  V30 2528 C 254.003 -1.96102 -0.488712 0
M  V30 2529 C 254.324 -1.04498 -1.64636 0
M  V30 2530 O 253.594 -0.108783 -1.95598 0
M  V30 2531 H 252.174 -0.724102 -0.183535 0
M  V30 2532 H 254.836 -1.93457 0.236728 0
M  V30 2533 H 253.932 -3.00097 -0.857219 0
M  V30 2534 N 254.233 0.115231 -1.57178 0
M  V30 2535 C 255.163 1.1423 -2.03651 0
M  V30 2536 C 256.144 1.42967 -0.921655 0
M  V30 2537 O 257.329 1.53343 -1.19162 0
M  V30 2538 C 254.459 2.4675 -2.44401 0
M  V30 2539 C 253.413 2.32467 -3.59365 0
M  V30 2540 C 252.739 3.69984 -3.86026 0
M  V30 2541 C 254.039 1.78203 -4.90959 0
M  V30 2542 H 255.733 0.755749 -2.89705 0
M  V30 2543 H 253.279 0.362093 -1.39373 0
M  V30 2544 H 255.232 3.18854 -2.75517 0
M  V30 2545 H 253.956 2.87302 -1.55322 0
M  V30 2546 H 252.615 1.62811 -3.28463 0
M  V30 2547 H 252.263 4.08028 -2.94147 0
M  V30 2548 H 251.963 3.61279 -4.63412 0
M  V30 2549 H 253.487 4.43587 -4.19599 0
M  V30 2550 H 254.901 2.40128 -5.20587 0
M  V30 2551 H 253.298 1.8031 -5.72371 0
M  V30 2552 H 254.368 0.739876 -4.79222 0
M  V30 2553 N 255.711 1.52812 0.385517 0
M  V30 2554 C 256.621 1.80766 1.49535 0
M  V30 2555 C 257.637 0.694651 1.59532 0
M  V30 2556 O 258.813 0.982611 1.75803 0
M  V30 2557 C 255.878 1.97381 2.85029 0
M  V30 2558 C 254.939 3.21295 2.84724 0
M  V30 2559 C 254.172 3.37108 4.13756 0
M  V30 2560 O 254.395 2.5765 5.08893 0
M  V30 2561 O 253.329 4.30378 4.20783 0
M  V30 2562 H 257.155 2.75015 1.28842 0
M  V30 2563 H 254.74 1.37946 0.573697 0
M  V30 2564 H 256.622 2.09996 3.65349 0
M  V30 2565 H 255.297 1.06322 3.05741 0
M  V30 2566 H 254.204 3.1412 2.03174 0
M  V30 2567 H 255.537 4.12212 2.68965 0
M  V30 2568 N 257.189 -0.644168 1.43834 0
M  V30 2569 C 258.119 -1.76814 1.52509 0
M  V30 2570 C 259.1 -1.65823 0.379052 0
M  V30 2571 O 260.285 -1.84781 0.597466 0
M  V30 2572 C 257.415 -3.15288 1.4564 0
M  V30 2573 C 256.369 -3.41053 2.58586 0
M  V30 2574 C 255.695 -4.79421 2.36769 0
M  V30 2575 C 256.995 -3.34902 4.00797 0
M  V30 2576 H 258.689 -1.69812 2.46586 0
M  V30 2577 H 256.235 -0.815542 1.1868 0
M  V30 2578 H 258.188 -3.93681 1.50311 0
M  V30 2579 H 256.912 -3.23043 0.480725 0
M  V30 2580 H 255.571 -2.65035 2.53282 0
M  V30 2581 H 255.219 -4.83863 1.37424 0
M  V30 2582 H 254.919 -4.9762 3.12487 0
M  V30 2583 H 256.443 -5.6006 2.43238 0
M  V30 2584 H 257.857 -4.03218 4.07539 0
M  V30 2585 H 256.254 -3.64637 4.76613 0
M  V30 2586 H 257.324 -2.32928 4.25291 0
M  V30 2587 N 258.668 -1.30515 -0.883378 0
M  V30 2588 C 259.631 -1.1701 -1.97082 0
M  V30 2589 C 260.631 -0.10089 -1.60483 0
M  V30 2590 O 261.821 -0.349127 -1.70666 0
M  V30 2591 C 258.953 -0.793045 -3.31547 0
M  V30 2592 H 260.146 -2.13622 -2.10489 0
M  V30 2593 H 257.699 -1.13935 -1.06998 0
M  V30 2594 H 258.434 0.172499 -3.23841 0
M  V30 2595 H 258.219 -1.56576 -3.5948 0
M  V30 2596 H 259.709 -0.722073 -4.1131 0
M  V30 2597 N 260.146 1.09593 -1.13257 0
M  V30 2598 C 261.562 1.33775 -0.870423 0
M  V30 2599 C 261.762 1.95327 0.494926 0
M  V30 2600 O 260.818 2.19853 1.2418 0
M  V30 2601 C 262.131 2.25106 -1.99369 0
M  V30 2602 C 263.679 2.3862 -2.02558 0
M  V30 2603 C 264.154 3.33285 -3.14142 0
M  V30 2604 N 265.645 3.40857 -3.13641 0
M  V30 2605 C 266.38 4.14101 -3.96621 0
M  V30 2606 N 265.876 4.90157 -4.8961 0
M  V30 2607 N 267.669 4.09808 -3.84726 0
M  V30 2608 H 259.82 0.680136 -2.01216 0
M  V30 2609 H 262.083 0.362133 -0.876107 0
M  V30 2610 H 261.789 1.87103 -2.97801 0
M  V30 2611 H 261.663 3.25481 -1.90635 0
M  V30 2612 H 264.05 2.75887 -1.0474 0
M  V30 2613 H 264.131 1.38028 -2.15364 0
M  V30 2614 H 263.775 2.96741 -4.12198 0
M  V30 2615 H 263.705 4.33776 -2.98574 0
M  V30 2616 H 266.196 2.86624 -2.46282 0
M  V30 2617 H 266.509 5.4347 -5.49418 0
M  V30 2618 H 264.854 4.89251 -4.93617 0
M  V30 2619 H 268.045 3.4949 -3.11408 0
M  V30 2620 H 268.218 4.66629 -4.49623 0
M  V30 2621 N 261.624 0.925811 1.2754 0
M  V30 2622 C 262.852 0.581509 1.9856 0
M  V30 2623 C 263.267 -0.840041 1.69082 0
M  V30 2624 O 262.624 -1.55805 0.950312 0
M  V30 2625 C 262.675 0.795589 3.52637 0
M  V30 2626 O 262.396 2.16121 3.81082 0
M  V30 2627 C 263.897 0.459744 4.4091 0
M  V30 2628 H 261.117 0.220538 0.633722 0
M  V30 2629 H 263.661 1.24232 1.6244 0
M  V30 2630 H 261.816 0.18161 3.86974 0
M  V30 2631 H 262.23 2.2098 4.75676 0
M  V30 2632 H 263.704 0.660244 5.48037 0
M  V30 2633 H 264.181 -0.604625 4.35018 0
M  V30 2634 H 264.787 1.05178 4.12089 0
M  V30 2635 N 263.102 -1.41638 0.69111 0
M  V30 2636 C 264.35 -2.00902 0.219758 0
M  V30 2637 C 264.671 -1.54994 -1.18329 0
M  V30 2638 O 263.941 -0.778628 -1.79762 0
M  V30 2639 H 262.521 -0.74289 0.0782558 0
M  V30 2640 H 265.183 -1.73327 0.891271 0
M  V30 2641 H 264.279 -3.11224 0.233708 0
M  V30 2642 N 264.58 -0.43555 -1.51462 0
M  V30 2643 C 265.829 0.133007 -2.01261 0
M  V30 2644 C 266.142 1.43942 -1.32439 0
M  V30 2645 O 267.348 2.09081 -1.73198 0
M  V30 2646 C 265.804 0.287581 -3.58749 0
M  V30 2647 C 265.412 -1.00829 -4.36506 0
M  V30 2648 C 267.156 0.810004 -4.167 0
M  V30 2649 C 265.063 -0.819454 -5.85695 0
M  V30 2650 H 263.993 0.0534822 -0.752101 0
M  V30 2651 H 266.644 -0.565038 -1.74584 0
M  V30 2652 H 265.026 1.04859 -3.81865 0
M  V30 2653 H 266.2 -1.77749 -4.25138 0
M  V30 2654 H 264.515 -1.45911 -3.89999 0
M  V30 2655 H 267.112 0.967743 -5.2587 0
M  V30 2656 H 267.455 1.79196 -3.75758 0
M  V30 2657 H 267.988 0.107357 -3.97655 0
M  V30 2658 H 264.727 -1.77374 -6.31046 0
M  V30 2659 H 264.247 -0.0900208 -5.99732 0
M  V30 2660 H 265.926 -0.471949 -6.45276 0
M  V30 2661 N 266.058 1.56714 -0.166846 0
M  V30 2662 C 267.286 2.0112 0.485644 0
M  V30 2663 C 267.701 1.04705 1.57106 0
M  V30 2664 O 267.058 0.0471923 1.82439 0
M  V30 2665 C 267.109 3.45361 1.06808 0
M  V30 2666 O 266.83 4.38092 0.0259995 0
M  V30 2667 C 268.331 4.05145 1.79924 0
M  V30 2668 H 265.551 0.65931 0.124704 0
M  V30 2669 H 268.095 2.02746 -0.267262 0
M  V30 2670 H 266.25 3.44524 1.7715 0
M  V30 2671 H 266.664 5.22519 0.455398 0
M  V30 2672 H 268.138 5.08009 2.15942 0
M  V30 2673 H 268.615 3.46982 2.69258 0
M  V30 2674 H 269.221 4.09672 1.14234 0
M  V30 2675 N 267.536 -0.106894 1.57237 0
M  V30 2676 C 268.782 -0.81373 1.85759 0
M  V30 2677 C 269.115 -1.78952 0.754315 0
M  V30 2678 O 268.39 -1.93029 -0.23879 0
M  V30 2679 C 268.673 -1.55293 3.24894 0
M  V30 2680 C 268.526 -0.595929 4.45835 0
M  V30 2681 C 269.845 -2.5063 3.61763 0
M  V30 2682 H 266.964 -0.294369 0.67566 0
M  V30 2683 H 269.606 -0.0776472 1.89841 0
M  V30 2684 H 267.756 -2.1804 3.21544 0
M  V30 2685 H 269.428 0.0236262 4.61294 0
M  V30 2686 H 267.671 0.0916191 4.33703 0
M  V30 2687 H 268.342 -1.15004 5.39887 0
M  V30 2688 H 270.818 -1.97982 3.65981 0
M  V30 2689 H 269.694 -2.99376 4.60071 0
M  V30 2690 H 269.955 -3.3385 2.89821 0
M  V30 2691 N 269.014 -1.53014 -0.377408 0
M  V30 2692 C 269.962 -1.7927 -1.48206 0
M  V30 2693 C 270.956 -0.661195 -1.55963 0
M  V30 2694 O 272.162 -0.843908 -1.58991 0
M  V30 2695 H 268.537 -0.567425 -0.493491 0
M  V30 2696 H 270.508 -2.71753 -1.2326 0
M  V30 2697 C 269.257 -1.98894 -2.85196 0
M  V30 2698 H 268.58 -2.85395 -2.79981 0
M  V30 2699 H 270.02 -2.21249 -3.61698 0
M  V30 2700 C 268.479 -0.764691 -3.28107 0
M  V30 2701 O 269.009 0.0523226 -4.01666 0
M  V30 2702 N 267.215 -0.591493 -2.84517 0
M  V30 2703 H 266.762 -1.25749 -2.24822 0
M  V30 2704 H 266.72 0.226253 -3.13585 0
M  V30 2705 N 270.492 0.636531 -1.44174 0
M  V30 2706 C 271.455 1.73063 -1.50273 0
M  V30 2707 C 272.455 1.56113 -0.385397 0
M  V30 2708 O 273.645 1.61707 -0.64781 0
M  V30 2709 C 270.777 3.12096 -1.37145 0
M  V30 2710 H 271.97 1.69031 -2.47727 0
M  V30 2711 H 269.523 0.849706 -1.31186 0
M  V30 2712 H 270.258 3.21728 -0.407636 0
M  V30 2713 H 270.043 3.25805 -2.18159 0
M  V30 2714 H 271.533 3.91846 -1.44382 0
M  V30 2715 N 271.97 1.30982 0.876444 0
M  V30 2716 C 273.216 1.20474 1.63138 0
M  V30 2717 C 273.549 -0.238096 1.92735 0
M  V30 2718 O 272.824 -1.1692 1.55435 0
M  V30 2719 C 273.107 2.04244 2.96574 0
M  V30 2720 C 272.96 3.56793 2.73896 0
M  V30 2721 C 274.279 1.88684 3.97601 0
M  V30 2722 H 271.398 0.439001 0.591985 0
M  V30 2723 H 274.04 1.60704 1.01361 0
M  V30 2724 H 272.19 1.70063 3.493 0
M  V30 2725 H 273.862 4.01077 2.27892 0
M  V30 2726 H 272.105 3.80548 2.08245 0
M  V30 2727 H 272.776 4.10706 3.68815 0
M  V30 2728 H 275.252 2.18584 3.54062 0
M  V30 2729 H 274.128 2.4961 4.88862 0
M  V30 2730 H 274.389 0.848343 4.33884 0
M  V30 2731 N 273.449 -1.08991 1.13837 0
M  V30 2732 C 274.689 -1.82867 0.913183 0
M  V30 2733 C 275.053 -1.83936 -0.550604 0
M  V30 2734 O 276.254 -2.53515 -0.893515 0
M  V30 2735 C 274.525 -3.24843 1.49036 0
M  V30 2736 S 276.084 -4.15669 1.40588 0
M  V30 2737 H 272.902 -0.630278 0.329046 0
M  V30 2738 H 275.504 -1.31049 1.45073 0
M  V30 2739 H 274.208 -3.21644 2.54899 0
M  V30 2740 H 273.739 -3.81734 0.950947 0
M  V30 2741 H 275.754 -4.94686 0.387353 0
M  V30 2742 N 274.927 -0.932562 -1.27047 0
M  V30 2743 C 276.338 -0.619451 -1.76124 0
M  V30 2744 C 276.689 0.865397 -1.76083 0
M  V30 2745 O 275.814 1.67722 -1.36742 0
M  V30 2746 C 276.409 -1.11771 -3.19832 0
M  V30 2747 C 274.968 -0.855174 -3.66557 0
M  V30 2748 C 274.115 -1.27362 -2.46321 0
M  V30 2749 H 277.066 -1.11181 -1.13245 0
M  V30 2750 H 277.087 -0.46759 -3.77616 0
M  V30 2751 H 276.599 -2.19842 -3.1983 0
M  V30 2752 H 274.7 0.211524 -3.71999 0
M  V30 2753 H 274.813 -1.47613 -4.55793 0
M  V30 2754 H 273.177 -0.692119 -2.45116 0
M  V30 2755 H 273.96 -2.36307 -2.49025 0
M  V30 2756 N 276.405 1.4127 -0.698611 0
M  V30 2757 C 277.653 2.00782 -0.230409 0
M  V30 2758 C 277.974 1.5562 1.17505 0
M  V30 2759 O 277.244 0.78815 1.79346 0
M  V30 2760 H 275.824 0.742464 -0.0821944 0
M  V30 2761 H 278.486 1.72852 -0.90045 0
M  V30 2762 H 277.582 3.11095 -0.25021 0
M  V30 2763 N 277.883 0.443576 1.51229 0
M  V30 2764 C 279.13 -0.120796 2.02139 0
M  V30 2765 C 279.458 -1.42166 1.32736 0
M  V30 2766 O 278.713 -1.90849 0.43301 0
M  V30 2767 C 279.012 -0.380579 3.55368 0
M  V30 2768 C 278.678 0.83523 4.43097 0
M  V30 2769 C 277.34 1.16864 4.66794 0
M  V30 2770 C 279.692 1.64601 4.94526 0
M  V30 2771 C 277.02 2.31339 5.39165 0
M  V30 2772 C 279.372 2.78181 5.68153 0
M  V30 2773 C 278.036 3.11969 5.90112 0
M  V30 2774 H 277.306 -0.0442023 0.73968 0
M  V30 2775 H 279.953 0.592046 1.82118 0
M  V30 2776 H 278.258 -1.17538 3.73754 0
M  V30 2777 H 279.955 -0.830777 3.923 0
M  V30 2778 H 276.545 0.565437 4.24854 0
M  V30 2779 H 280.729 1.40163 4.76097 0
M  V30 2780 H 275.985 2.57823 5.5438 0
M  V30 2781 H 280.159 3.41371 6.06992 0
M  V30 2782 H 277.786 4.00784 6.45969 0
M  V30 2783 N 279.361 -1.56624 0.175154 0
M  V30 2784 C 280.607 -1.9729 -0.469506 0
M  V30 2785 C 280.94 -1.06128 -1.62636 0
M  V30 2786 O 280.215 -0.109183 -1.94193 0
M  V30 2787 C 280.498 -3.47375 -0.948804 0
M  V30 2788 C 280.351 -4.49317 0.208491 0
M  V30 2789 C 281.67 -4.00652 -1.82116 0
M  V30 2790 H 278.789 -0.717317 -0.16919 0
M  V30 2791 H 281.431 -1.88184 0.262062 0
M  V30 2792 H 279.581 -3.55267 -1.57219 0
M  V30 2793 H 281.253 -4.53482 0.845682 0
M  V30 2794 H 279.496 -4.25121 0.863395 0
M  V30 2795 H 280.167 -5.51741 -0.169059 0
M  V30 2796 H 282.643 -3.95416 -1.2956 0
M  V30 2797 H 281.519 -5.06075 -2.12554 0
M  V30 2798 H 281.78 -3.44699 -2.7683 0
M  V30 2799 N 280.839 0.0985539 -1.57292 0
M  V30 2800 C 281.749 1.13824 -2.05137 0
M  V30 2801 C 282.765 1.44076 -0.975604 0
M  V30 2802 O 283.941 1.54786 -1.28853 0
M  V30 2803 C 281.006 2.43969 -2.46333 0
M  V30 2804 C 280.067 2.2093 -3.68087 0
M  V30 2805 C 279.3 3.44869 -4.0731 0
M  V30 2806 O 279.523 4.52972 -3.46659 0
M  V30 2807 O 278.457 3.34661 -5.00285 0
M  V30 2808 H 282.283 0.761881 -2.93988 0
M  V30 2809 H 279.868 0.310818 -1.46131 0
M  V30 2810 H 281.75 3.20609 -2.73473 0
M  V30 2811 H 280.425 2.81038 -1.60621 0
M  V30 2812 H 279.332 1.42081 -3.46069 0
M  V30 2813 H 280.665 1.88755 -4.54568 0
M  V30 2814 N 282.317 1.53212 0.369288 0
M  V30 2815 C 283.545 1.73119 1.13303 0
M  V30 2816 C 283.96 0.458455 1.83149 0
M  V30 2817 O 283.317 -0.568403 1.73423 0
M  V30 2818 C 283.368 2.89413 2.16616 0
M  V30 2819 O 283.089 4.11761 1.49614 0
M  V30 2820 C 284.59 3.21161 3.05566 0
M  V30 2821 H 281.81 0.579107 0.338934 0
M  V30 2822 H 284.354 1.99942 0.429338 0
M  V30 2823 H 282.509 2.64994 2.82589 0
M  V30 2824 H 282.923 4.76858 2.18419 0
M  V30 2825 H 284.397 4.05949 3.74045 0
M  V30 2826 H 284.874 2.36369 3.70171 0
M  V30 2827 H 285.48 3.47492 2.45213 0
M  V30 2828 N 283.795 -0.628877 1.44509 0
M  V30 2829 C 285.206 -1.21054 1.42137 0
M  V30 2830 C 285.557 -1.95715 0.137881 0
M  V30 2831 O 284.682 -2.02554 -0.761645 0
M  V30 2832 C 285.277 -2.20189 2.57493 0
M  V30 2833 C 283.836 -2.73777 2.58308 0
M  V30 2834 C 282.983 -1.48813 2.33987 0
M  V30 2835 H 285.934 -0.41942 1.53057 0
M  V30 2836 H 285.955 -3.02833 2.30375 0
M  V30 2837 H 285.467 -1.6582 3.50892 0
M  V30 2838 H 283.568 -3.32142 1.68856 0
M  V30 2839 H 283.681 -3.19662 3.56865 0
M  V30 2840 H 282.045 -1.77024 1.83124 0
M  V30 2841 H 282.828 -0.963442 3.29504 0
M  V30 2842 N 285.273 -1.31445 -0.869486 0
M  V30 2843 C 286.206 -1.13465 -1.97992 0
M  V30 2844 C 287.184 -0.0380291 -1.62556 0
M  V30 2845 O 288.368 -0.194544 -1.87493 0
M  V30 2846 C 285.495 -0.733822 -3.30655 0
M  V30 2847 C 284.541 -1.83356 -3.85075 0
M  V30 2848 S 285.374 -3.43909 -4.10472 0
M  V30 2849 C 286.53 -3.05763 -5.46132 0
M  V30 2850 H 286.763 -2.07471 -2.1294 0
M  V30 2851 H 284.296 -1.15936 -1.01972 0
M  V30 2852 H 286.254 -0.509306 -4.07328 0
M  V30 2853 H 284.915 0.187123 -3.13542 0
M  V30 2854 H 284.108 -1.50574 -4.80982 0
M  V30 2855 H 283.71 -2.01315 -3.15195 0
M  V30 2856 H 286.002 -2.54686 -6.27807 0
M  V30 2857 H 286.945 -4.00635 -5.83864 0
M  V30 2858 H 287.353 -2.43192 -5.09429 0
M  V30 2859 N 286.751 1.08385 -1.14413 0
M  V30 2860 C 287.714 2.13486 -0.834048 0
M  V30 2861 C 288.714 1.59988 0.161418 0
M  V30 2862 O 289.904 1.74071 -0.0669575 0
M  V30 2863 C 287.036 3.4003 -0.243354 0
M  V30 2864 H 288.229 2.42425 -1.7655 0
M  V30 2865 H 285.782 1.24101 -0.950189 0
M  V30 2866 H 286.517 3.16726 0.696807 0
M  V30 2867 H 286.302 3.80157 -0.960367 0
M  V30 2868 H 287.792 4.17577 -0.0436242 0
M  V30 2869 N 288.23 0.939286 1.26551 0
M  V30 2870 C 289.193 0.451987 2.24699 0
M  V30 2871 C 290.193 -0.435869 1.5478 0
M  V30 2872 O 291.383 -0.235314 1.72603 0
M  V30 2873 C 288.515 -0.348801 3.39111 0
M  V30 2874 H 289.708 1.3193 2.69322 0
M  V30 2875 H 287.261 0.721072 1.38673 0
M  V30 2876 H 287.996 -1.23444 2.99887 0
M  V30 2877 H 287.781 0.287945 3.91041 0
M  V30 2878 H 289.271 -0.679726 4.12031 0
M  V30 2879 N 289.708 -1.40897 0.706093 0
M  V30 2880 C 290.933 -2.05895 0.249435 0
M  V30 2881 C 291.358 -1.52823 -1.09666 0
M  V30 2882 O 290.716 -0.659589 -1.68876 0
M  V30 2883 C 290.764 -3.59872 0.22904 0
M  V30 2884 O 289.868 -4.04708 -0.792784 0
M  V30 2885 H 289.209 -0.653206 0.119241 0
M  V30 2886 H 291.739 -1.80471 0.96391 0
M  V30 2887 H 291.749 -4.07951 0.0634791 0
M  V30 2888 H 290.424 -3.97866 1.21141 0
M  V30 2889 H 289.001 -3.68111 -0.59572 0
M  V30 2890 N 291.186 -0.45159 -1.50991 0
M  V30 2891 C 292.432 0.110237 -2.025 0
M  V30 2892 C 292.765 1.41109 -1.33424 0
M  V30 2893 O 292.04 1.89135 -0.453659 0
M  V30 2894 C 292.323 0.314271 -3.58726 0
M  V30 2895 C 292.176 -1.00623 -4.38401 0
M  V30 2896 C 293.495 1.07767 -4.26702 0
M  V30 2897 H 290.614 0.0385897 -0.735989 0
M  V30 2898 H 293.256 -0.593374 -1.80497 0
M  V30 2899 H 291.406 0.913601 -3.77605 0
M  V30 2900 H 293.078 -1.64064 -4.31139 0
M  V30 2901 H 291.321 -1.6075 -4.02917 0
M  V30 2902 H 291.992 -0.817341 -5.45915 0
M  V30 2903 H 294.468 0.56986 -4.12179 0
M  V30 2904 H 293.344 1.18921 -5.35863 0
M  V30 2905 H 293.605 2.10939 -3.88532 0
M  V30 2906 N 292.664 1.56529 -0.183458 0
M  V30 2907 C 294.08 1.58664 0.172554 0
M  V30 2908 C 294.28 1.19925 1.61926 0
M  V30 2909 O 293.336 0.916534 2.35278 0
M  V30 2910 C 294.649 3.00463 -0.119262 0
M  V30 2911 C 296.197 3.12945 -0.0584396 0
M  V30 2912 C 296.672 4.56857 -0.323408 0
M  V30 2913 N 298.163 4.62403 -0.271612 0
M  V30 2914 C 298.898 5.71626 -0.450639 0
M  V30 2915 N 298.394 6.89362 -0.689384 0
M  V30 2916 N 300.187 5.60775 -0.385701 0
M  V30 2917 H 292.338 1.79994 -1.12765 0
M  V30 2918 H 294.601 0.834808 -0.449222 0
M  V30 2919 H 294.307 3.33326 -1.12192 0
M  V30 2920 H 294.181 3.72659 0.583544 0
M  V30 2921 H 296.568 2.79902 0.934805 0
M  V30 2922 H 296.649 2.4316 -0.794144 0
M  V30 2923 H 296.293 4.9061 -1.31392 0
M  V30 2924 H 296.223 5.24816 0.43305 0
M  V30 2925 H 298.714 3.77785 -0.0932256 0
M  V30 2926 H 299.027 7.68489 -0.815113 0
M  V30 2927 H 297.372 6.91196 -0.726142 0
M  V30 2928 H 300.563 4.67674 -0.199687 0
M  V30 2929 H 300.736 6.4584 -0.528646 0
M  V30 2930 N 294.142 -0.090211 1.57342 0
M  V30 2931 C 295.052 -1.12735 2.05738 0
M  V30 2932 C 296.068 -1.43557 0.983231 0
M  V30 2933 O 297.244 -1.54101 1.29672 0
M  V30 2934 C 294.309 -2.42659 2.47624 0
M  V30 2935 C 293.37 -2.18975 3.69254 0
M  V30 2936 C 292.603 -3.42704 4.09133 0
M  V30 2937 O 292.826 -4.51127 3.49057 0
M  V30 2938 O 291.76 -3.32003 5.02053 0
M  V30 2939 H 295.586 -0.746279 2.94388 0
M  V30 2940 H 293.171 -0.303064 1.46294 0
M  V30 2941 H 295.053 -3.19155 2.7517 0
M  V30 2942 H 293.728 -2.80182 1.62109 0
M  V30 2943 H 292.635 -1.40244 3.46818 0
M  V30 2944 H 293.968 -1.86342 4.55563 0
M  V30 2945 N 295.62 -1.53406 -0.361157 0
M  V30 2946 C 296.57 -1.76536 -1.44287 0
M  V30 2947 C 297.554 -0.620019 -1.48474 0
M  V30 2948 O 298.746 -0.878834 -1.53641 0
M  V30 2949 C 295.875 -1.96266 -2.81664 0
M  V30 2950 C 294.961 -3.16815 -2.81938 0
M  V30 2951 N 295.352 -4.38637 -2.51855 0
M  V30 2952 C 293.65 -3.17627 -3.13096 0
M  V30 2953 C 294.351 -5.20401 -2.59919 0
M  V30 2954 N 293.327 -4.56712 -2.94814 0
M  V30 2955 H 297.129 -2.68331 -1.19899 0
M  V30 2956 H 294.643 -1.52091 -0.56938 0
M  V30 2957 H 296.64 -2.10966 -3.59582 0
M  V30 2958 H 295.3 -1.05702 -3.07013 0
M  V30 2959 H 296.311 -4.66293 -2.25369 0
M  V30 2960 H 292.988 -2.36971 -3.43731 0
M  V30 2961 H 294.378 -6.27586 -2.39969 0
M  V30 2962 N 297.098 0.621204 -1.44841 0
M  V30 2963 C 298.328 1.40548 -1.51426 0
M  V30 2964 C 298.736 1.88673 -0.141083 0
M  V30 2965 O 298.079 1.62053 0.865128 0
M  V30 2966 C 298.141 2.65325 -2.42576 0
M  V30 2967 C 297.805 2.3893 -3.89566 0
M  V30 2968 C 298.802 2.00138 -4.79834 0
M  V30 2969 C 296.487 2.52263 -4.3436 0
M  V30 2970 C 298.481 1.75021 -6.129 0
M  V30 2971 C 296.168 2.2676 -5.67471 0
M  V30 2972 C 297.166 1.88199 -6.56559 0
M  V30 2973 O 296.854 1.62986 -7.87204 0
M  V30 2974 H 296.586 0.437122 -0.515655 0
M  V30 2975 H 299.14 0.765987 -1.90583 0
M  V30 2976 H 297.37 3.31947 -1.98364 0
M  V30 2977 H 299.059 3.27347 -2.39998 0
M  V30 2978 H 299.825 1.89386 -4.46495 0
M  V30 2979 H 295.704 2.81246 -3.65269 0
M  V30 2980 H 299.248 1.44848 -6.82396 0
M  V30 2981 H 295.145 2.37125 -6.00368 0
M  V30 2982 H 295.913 1.7715 -7.991 0
M  V30 2983 N 298.576 1.31904 0.862503 0
M  V30 2984 C 299.801 1.25135 1.65397 0
M  V30 2985 C 300.226 -0.179 1.87246 0
M  V30 2986 O 299.584 -1.1277 1.4196 0
M  V30 2987 C 299.632 2.00832 2.99498 0
M  V30 2988 O 298.736 1.35075 3.89652 0
M  V30 2989 H 298.077 0.431655 0.504549 0
M  V30 2990 H 300.607 1.74094 1.07483 0
M  V30 2991 H 300.617 2.10709 3.49379 0
M  V30 2992 H 299.292 3.04847 2.82916 0
M  V30 2993 H 297.869 1.33696 3.48109 0
M  V30 2994 N 300.054 -1.07777 1.14986 0
M  V30 2995 C 301.331 -1.7699 0.832695 0
M  V30 2996 C 301.711 -2.001 -0.672561 0
M  V30 2997 O 301.059 -1.61598 -1.6155 0
M  V30 2998 C 301.269 -3.08139 1.63863 0
M  V30 2999 C 302.617 -3.8256 1.84208 0
M  V30 3000 O 303.641 -3.17939 1.60603 0
M  V30 3001 O 302.5 -4.98612 2.23714 0
M  V30 3002 H 299.594 -0.768389 0.305791 0
M  V30 3003 H 302.14 -1.14182 1.25541 0
M  V30 3004 H 300.912 -2.86909 2.6608 0
M  V30 3005 H 300.535 -3.78678 1.21197 0
M  V30 3006 N 301.532 -0.945985 -1.26051 0
M  V30 3007 C 302.781 -0.591836 -1.92822 0
M  V30 3008 C 303.094 0.873956 -1.7499 0
M  V30 3009 O 304.3 1.33769 -2.36259 0
M  V30 3010 C 302.756 -1.00776 -3.45503 0
M  V30 3011 C 302.364 -2.4955 -3.7206 0
M  V30 3012 C 304.108 -0.725735 -4.1825 0
M  V30 3013 C 302.015 -2.84988 -5.18205 0
M  V30 3014 H 300.945 -0.217635 -0.721908 0
M  V30 3015 H 303.596 -1.14927 -1.43052 0
M  V30 3016 H 301.978 -0.378812 -3.94184 0
M  V30 3017 H 303.152 -3.1739 -3.34066 0
M  V30 3018 H 301.467 -2.75133 -3.12555 0
M  V30 3019 H 304.064 -0.966771 -5.25887 0
M  V30 3020 H 304.407 0.337639 -4.14929 0
M  V30 3021 H 304.94 -1.31463 -3.7545 0
M  V30 3022 H 301.679 -3.90307 -5.26631 0
M  V30 3023 H 301.199 -2.21813 -5.57278 0
M  V30 3024 H 302.878 -2.73712 -5.86252 0
M  V30 3025 N 303.011 1.40521 -0.713556 0
M  V30 3026 C 304.257 2.01714 -0.261382 0
M  V30 3027 C 304.612 1.55562 1.13217 0
M  V30 3028 O 303.905 0.764893 1.7567 0
M  V30 3029 C 304.099 3.56317 -0.278 0
M  V30 3030 C 303.928 4.17476 -1.67163 0
M  V30 3031 C 302.698 4.50998 -2.2788 0
M  V30 3032 C 304.896 4.42472 -2.6215 0
M  V30 3033 N 302.878 4.9754 -3.5962 0
M  V30 3034 C 304.249 4.90985 -3.78594 0
M  V30 3035 C 306.304 4.24508 -2.60188 0
M  V30 3036 C 305.007 5.2342 -4.9338 0
M  V30 3037 C 307.033 4.58043 -3.741 0
M  V30 3038 C 306.395 5.06743 -4.89276 0
M  V30 3039 H 302.494 0.769104 -0.141434 0
M  V30 3040 H 305.078 1.70785 -0.934915 0
M  V30 3041 H 303.249 3.8668 0.36509 0
M  V30 3042 H 304.981 4.0425 0.190695 0
M  V30 3043 H 301.736 4.38062 -1.79997 0
M  V30 3044 H 302.16 5.25196 -4.27198 0
M  V30 3045 H 306.802 3.86078 -1.72348 0
M  V30 3046 H 304.52 5.60765 -5.81866 0
M  V30 3047 H 308.106 4.45785 -3.73854 0
M  V30 3048 H 306.986 5.32204 -5.75959 0
M  V30 3049 N 304.489 0.459591 1.5075 0
M  V30 3050 C 305.399 -0.34613 2.32033 0
M  V30 3051 C 306.415 -1.00686 1.41909 0
M  V30 3052 O 307.591 -0.997361 1.7497 0
M  V30 3053 C 304.656 -1.42029 3.16273 0
M  V30 3054 C 303.717 -0.777362 4.22203 0
M  V30 3055 C 302.95 -1.80034 5.02418 0
M  V30 3056 O 303.173 -3.02544 4.83553 0
M  V30 3057 O 302.107 -1.37853 5.85901 0
M  V30 3058 H 305.933 0.318054 3.0203 0
M  V30 3059 H 303.518 0.221663 1.47746 0
M  V30 3060 H 305.4 -2.04275 3.68578 0
M  V30 3061 H 304.075 -2.06815 2.49016 0
M  V30 3062 H 302.982 -0.116256 3.73919 0
M  V30 3063 H 304.315 -0.172634 4.91897 0
M  V30 3064 N 305.967 -1.56429 0.191757 0
M  V30 3065 C 307.213 -1.97777 -0.448554 0
M  V30 3066 C 307.546 -1.07847 -1.61501 0
M  V30 3067 O 306.821 -0.129774 -1.94067 0
M  V30 3068 C 307.104 -3.48362 -0.911906 0
M  V30 3069 C 306.957 -4.4907 0.256136 0
M  V30 3070 C 308.276 -4.02561 -1.77857 0
M  V30 3071 H 305.395 -0.719071 -0.161572 0
M  V30 3072 H 308.037 -1.87896 0.282007 0
M  V30 3073 H 306.187 -3.56914 -1.53442 0
M  V30 3074 H 307.859 -4.5256 0.893733 0
M  V30 3075 H 306.102 -4.24181 0.908436 0
M  V30 3076 H 306.773 -5.51889 -0.11053 0
M  V30 3077 H 309.249 -3.96767 -1.25359 0
M  V30 3078 H 308.125 -5.08301 -2.07174 0
M  V30 3079 H 308.386 -3.47616 -2.73158 0
M  V30 3080 N 307.445 0.0818655 -1.57387 0
M  V30 3081 C 308.67 0.799946 -1.91352 0
M  V30 3082 C 309.095 1.70833 -0.787258 0
M  V30 3083 O 308.453 1.79419 0.26048 0
M  V30 3084 C 308.501 1.57812 -3.24234 0
M  V30 3085 O 307.605 2.68806 -3.12757 0
M  V30 3086 H 306.946 0.21891 -0.626877 0
M  V30 3087 H 309.476 0.0531256 -2.04531 0
M  V30 3088 H 309.486 1.95952 -3.57864 0
M  V30 3089 H 308.161 0.911548 -4.05788 0
M  V30 3090 H 306.738 2.33597 -2.90666 0
M  V30 3091 N 308.923 1.53595 0.353017 0
M  V30 3092 C 310.151 1.74311 1.1146 0
M  V30 3093 C 310.566 0.477854 1.82653 0
M  V30 3094 O 309.923 -0.549977 1.74016 0
M  V30 3095 C 309.974 2.91694 2.13534 0
M  V30 3096 O 309.695 4.13325 1.45238 0
M  V30 3097 C 311.196 3.24384 3.02142 0
M  V30 3098 H 308.416 0.582669 0.332773 0
M  V30 3099 H 310.96 2.00386 0.408107 0
M  V30 3100 H 309.115 2.67977 2.79763 0
M  V30 3101 H 309.529 4.79148 2.13349 0
M  V30 3102 H 311.003 4.09893 3.69718 0
M  V30 3103 H 311.48 2.40282 3.67643 0
M  V30 3104 H 312.086 3.50073 2.41514 0
M  V30 3105 N 310.401 -0.613514 1.45168 0
M  V30 3106 C 311.311 -1.75296 1.55912 0
M  V30 3107 C 312.327 -1.68244 0.443856 0
M  V30 3108 O 313.503 -1.88706 0.70371 0
M  V30 3109 C 310.568 -3.1174 1.5172 0
M  V30 3110 C 309.629 -3.30291 2.74238 0
M  V30 3111 C 308.862 -4.60226 2.70236 0
M  V30 3112 O 309.085 -5.42168 1.77229 0
M  V30 3113 O 308.019 -4.81361 3.61352 0
M  V30 3114 H 311.845 -1.69183 2.52212 0
M  V30 3115 H 309.43 -0.776886 1.27612 0
M  V30 3116 H 311.312 -3.93044 1.51968 0
M  V30 3117 H 309.987 -3.18357 0.585697 0
M  V30 3118 H 308.894 -2.48598 2.79553 0
M  V30 3119 H 310.227 -3.28547 3.66494 0
M  V30 3120 N 311.879 -1.3236 -0.855495 0
M  V30 3121 C 312.789 -1.23221 -1.99634 0
M  V30 3122 C 313.805 -0.145983 -1.73387 0
M  V30 3123 O 314.981 -0.366502 -1.98037 0
M  V30 3124 C 312.046 -0.954782 -3.33294 0
M  V30 3125 C 311.107 -2.12937 -3.72769 0
M  V30 3126 C 310.34 -1.86508 -5.00051 0
M  V30 3127 O 310.563 -0.807231 -5.64659 0
M  V30 3128 O 309.497 -2.72591 -5.36636 0
M  V30 3129 H 313.323 -2.19126 -2.1028 0
M  V30 3130 H 310.908 -1.12241 -0.986018 0
M  V30 3131 H 312.79 -0.816519 -4.13414 0
M  V30 3132 H 311.465 -0.0258854 -3.2369 0
M  V30 3133 H 310.372 -2.3231 -2.93228 0
M  V30 3134 H 311.705 -3.04102 -3.87018 0
M  V30 3135 N 313.357 1.07166 -1.15556 0
M  V30 3136 C 314.32 2.12589 -0.856644 0
M  V30 3137 C 315.32 1.6015 0.14444 0
M  V30 3138 O 316.51 1.7399 -0.0854163 0
M  V30 3139 C 313.642 3.39753 -0.279405 0
M  V30 3140 H 314.835 2.40539 -1.79112 0
M  V30 3141 H 312.388 1.23086 -0.963298 0
M  V30 3142 H 313.123 3.17447 0.663174 0
M  V30 3143 H 312.908 3.79117 -1.00063 0
M  V30 3144 H 314.398 4.17507 -0.0879113 0
M  V30 3145 N 314.835 0.952656 1.25548 0
M  V30 3146 C 316.082 0.606373 1.93208 0
M  V30 3147 C 316.41 -0.85631 1.74636 0
M  V30 3148 O 315.665 -1.62951 1.08376 0
M  V30 3149 C 315.964 0.908818 3.45652 0
M  V30 3150 C 315.63 2.35722 3.84378 0
M  V30 3151 C 314.292 2.75312 3.9466 0
M  V30 3152 C 316.644 3.29793 4.03591 0
M  V30 3153 C 313.972 4.08047 4.21562 0
M  V30 3154 C 316.324 4.62138 4.31985 0
M  V30 3155 C 314.988 5.01528 4.40484 0
M  V30 3156 H 314.258 0.221888 0.706998 0
M  V30 3157 H 316.905 1.20132 1.49133 0
M  V30 3158 H 315.21 0.231456 3.91116 0
M  V30 3159 H 316.907 0.619498 3.96186 0
M  V30 3160 H 313.497 2.04017 3.76928 0
M  V30 3161 H 317.681 3.00397 3.95064 0
M  V30 3162 H 312.937 4.38212 4.26357 0
M  V30 3163 H 317.111 5.35012 4.45797 0
M  V30 3164 H 314.738 6.04406 4.61083 0
M  V30 3165 N 316.313 -1.40141 0.720998 0
M  V30 3166 C 317.59 -1.94677 0.189757 0
M  V30 3167 C 317.97 -1.65879 -1.30566 0
M  V30 3168 O 317.318 -0.979391 -2.06447 0
M  V30 3169 C 317.528 -3.45279 0.508304 0
M  V30 3170 C 318.876 -4.22209 0.449934 0
M  V30 3171 O 319.9 -3.53413 0.444677 0
M  V30 3172 O 318.759 -5.44788 0.432189 0
M  V30 3173 H 315.853 -0.826459 0.0299026 0
M  V30 3174 H 318.399 -1.49719 0.7989 0
M  V30 3175 H 317.171 -3.59619 1.54239 0
M  V30 3176 H 316.794 -3.97386 -0.130525 0
M  V30 3177 N 317.792 -0.46758 -1.50504 0
M  V30 3178 C 319.208 -0.121533 -1.59137 0
M  V30 3179 C 319.408 1.3717 -1.47603 0
M  V30 3180 O 318.464 2.14464 -1.33272 0
M  V30 3181 C 319.777 -0.6686 -2.93173 0
M  V30 3182 C 321.325 -0.631716 -3.06559 0
M  V30 3183 C 321.8 -1.15627 -4.43164 0
M  V30 3184 N 323.291 -1.11553 -4.49567 0
M  V30 3185 C 324.026 -1.49195 -5.5365 0
M  V30 3186 N 323.522 -1.94269 -6.65005 0
M  V30 3187 N 325.315 -1.4082 -5.44175 0
M  V30 3188 H 317.466 -1.4388 -1.56245 0
M  V30 3189 H 319.729 -0.594784 -0.738198 0
M  V30 3190 H 319.435 -1.71453 -3.07078 0
M  V30 3191 H 319.309 -0.11021 -3.77039 0
M  V30 3192 H 321.696 0.405297 -2.92304 0
M  V30 3193 H 321.777 -1.22687 -2.24458 0
M  V30 3194 H 321.421 -2.1919 -4.58168 0
M  V30 3195 H 321.351 -0.537365 -5.23851 0
M  V30 3196 H 323.842 -0.784895 -3.69659 0
M  V30 3197 H 324.155 -2.21148 -7.40482 0
M  V30 3198 H 322.5 -1.98219 -6.66134 0
M  V30 3199 H 325.691 -1.0545 -4.56068 0
M  V30 3200 H 325.864 -1.70481 -6.25172 0
M  V30 3201 N 319.27 1.56325 -0.20005 0
M  V30 3202 C 320.519 1.96895 0.437652 0
M  V30 3203 C 320.832 1.08999 1.62415 0
M  V30 3204 O 322.038 1.39372 2.32997 0
M  V30 3205 C 320.494 3.50198 0.830025 0
M  V30 3206 C 320.102 4.46765 -0.332461 0
M  V30 3207 C 321.846 3.99526 1.43453 0
M  V30 3208 C 319.753 5.91344 0.0811468 0
M  V30 3209 H 318.683 0.735209 0.167282 0
M  V30 3210 H 321.334 1.81148 -0.292853 0
M  V30 3211 H 319.716 3.61467 1.61734 0
M  V30 3212 H 320.89 4.47231 -1.11 0
M  V30 3213 H 319.205 4.07657 -0.848789 0
M  V30 3214 H 321.802 5.05025 1.75652 0
M  V30 3215 H 322.145 3.44122 2.34277 0
M  V30 3216 H 322.678 3.91393 0.71109 0
M  V30 3217 H 319.417 6.50685 -0.793033 0
M  V30 3218 H 318.937 5.94121 0.823445 0
M  V30 3219 H 320.616 6.44945 0.515252 0
M  V30 3220 N 320.748 -0.0735177 1.57428 0
M  V30 3221 C 321.976 -0.785969 1.9139 0
M  V30 3222 C 322.391 -1.71207 0.795847 0
M  V30 3223 O 321.748 -1.81033 -0.230915 0
M  V30 3224 C 321.799 -1.58107 3.25091 0
M  V30 3225 O 321.52 -0.6922 4.32597 0
M  V30 3226 C 323.021 -2.39467 3.73055 0
M  V30 3227 H 320.241 -0.223558 0.632663 0
M  V30 3228 H 322.785 -0.044302 2.04452 0
M  V30 3229 H 320.94 -2.27503 3.13562 0
M  V30 3230 H 321.354 -1.24504 5.09508 0
M  V30 3231 H 322.828 -2.90716 4.69242 0
M  V30 3232 H 323.305 -3.18913 3.01979 0
M  V30 3233 H 323.911 -1.7523 3.87523 0
M  V30 3234 N 322.226 -1.5378 -0.344866 0
M  V30 3235 C 323.189 -1.80981 -1.40637 0
M  V30 3236 C 324.189 -0.680816 -1.45676 0
M  V30 3237 O 325.379 -0.949095 -1.46075 0
M  V30 3238 C 322.511 -1.95063 -2.79577 0
M  V30 3239 H 323.704 -2.75803 -1.17783 0
M  V30 3240 H 321.257 -1.45173 -0.579181 0
M  V30 3241 H 321.992 -1.02379 -3.07716 0
M  V30 3242 H 321.777 -2.77198 -2.77315 0
M  V30 3243 H 323.267 -2.17629 -3.56409 0
M  V30 3244 N 323.704 0.605807 -1.45491 0
M  V30 3245 C 325.12 0.926751 -1.29936 0
M  V30 3246 C 325.32 1.99896 -0.253706 0
M  V30 3247 O 324.376 2.50038 0.351737 0
M  V30 3248 C 325.689 1.36599 -2.67883 0
M  V30 3249 C 327.237 1.4801 -2.75793 0
M  V30 3250 C 327.712 1.95309 -4.14268 0
M  V30 3251 N 329.203 2.0254 -4.16571 0
M  V30 3252 C 329.938 2.40363 -5.20589 0
M  V30 3253 N 329.434 2.77143 -6.34952 0
M  V30 3254 N 331.227 2.40718 -5.07948 0
M  V30 3255 H 323.378 -0.102862 -2.12151 0
M  V30 3256 H 325.641 0.016639 -0.947854 0
M  V30 3257 H 325.347 0.652306 -3.45598 0
M  V30 3258 H 325.221 2.33215 -2.96463 0
M  V30 3259 H 327.608 2.1847 -1.98381 0
M  V30 3260 H 327.689 0.497041 -2.50925 0
M  V30 3261 H 327.333 1.25436 -4.92167 0
M  V30 3262 H 327.263 2.94532 -4.3653 0
M  V30 3263 H 329.754 1.76699 -3.34045 0
M  V30 3264 H 330.067 3.0489 -7.10114 0
M  V30 3265 H 328.412 2.74834 -6.3835 0
M  V30 3266 H 331.603 2.11392 -4.1765 0
M  V30 3267 H 331.776 2.69869 -5.89131 0
M  V30 3268 N 325.182 1.32811 0.848464 0
M  V30 3269 C 326.428 1.23907 1.60546 0
M  V30 3270 C 326.761 -0.197161 1.93197 0
M  V30 3271 O 326.036 -1.13596 1.5788 0
M  V30 3272 C 326.319 2.10489 2.92175 0
M  V30 3273 C 326.172 3.62522 2.66266 0
M  V30 3274 C 327.491 1.97075 3.93509 0
M  V30 3275 H 324.61 0.451459 0.58254 0
M  V30 3276 H 327.252 1.62818 0.979296 0
M  V30 3277 H 325.402 1.77434 3.45614 0
M  V30 3278 H 327.074 4.05821 2.19334 0
M  V30 3279 H 325.317 3.84879 2.00126 0
M  V30 3280 H 325.988 4.18437 3.6002 0
M  V30 3281 H 328.464 2.26045 3.49346 0
M  V30 3282 H 327.34 2.59923 4.83457 0
M  V30 3283 H 327.601 0.940186 4.31987 0
M  V30 3284 N 326.66 -1.06551 1.16123 0
M  V30 3285 C 328.071 -1.60768 0.949232 0
M  V30 3286 C 328.422 -1.89523 -0.507508 0
M  V30 3287 O 327.547 -1.66671 -1.38021 0
M  V30 3288 C 328.142 -2.92086 1.71671 0
M  V30 3289 C 326.701 -3.43015 1.54977 0
M  V30 3290 C 325.848 -2.16947 1.72711 0
M  V30 3291 H 328.799 -0.895354 1.31031 0
M  V30 3292 H 328.82 -3.6138 1.19099 0
M  V30 3293 H 328.332 -2.71127 2.7769 0
M  V30 3294 H 326.433 -3.69039 0.513873 0
M  V30 3295 H 326.546 -4.18516 2.33198 0
M  V30 3296 H 324.91 -2.27041 1.15431 0
M  V30 3297 H 325.693 -1.98473 2.80113 0
M  V30 3298 N 328.138 -0.959301 -1.25041 0
M  V30 3299 C 329.387 -0.612254 -1.92183 0
M  V30 3300 C 329.7 0.855347 -1.75907 0
M  V30 3301 O 330.906 1.31256 -2.37664 0
M  V30 3302 C 329.362 -1.04435 -3.44414 0
M  V30 3303 C 328.97 -2.53482 -3.69393 0
M  V30 3304 C 330.714 -0.770055 -4.17457 0
M  V30 3305 C 328.621 -2.90468 -5.15153 0
M  V30 3306 H 327.551 -0.225279 -0.719559 0
M  V30 3307 H 330.202 -1.16438 -1.41825 0
M  V30 3308 H 328.584 -0.4206 -3.9376 0
M  V30 3309 H 329.758 -3.20916 -3.30681 0
M  V30 3310 H 328.073 -2.78432 -3.0962 0
M  V30 3311 H 330.67 -1.02249 -5.24832 0
M  V30 3312 H 331.013 0.293611 -4.15263 0
M  V30 3313 H 331.546 -1.35437 -3.74034 0
M  V30 3314 H 328.285 -3.95871 -5.22462 0
M  V30 3315 H 327.805 -2.27711 -5.54894 0
M  V30 3316 H 329.484 -2.79914 -5.83315 0
M  V30 3317 N 329.616 1.39756 -0.72842 0
M  V30 3318 C 330.864 2.00248 -0.272946 0
M  V30 3319 C 331.185 1.58077 1.14178 0
M  V30 3320 O 330.455 0.826014 1.77634 0
M  V30 3321 H 329.035 0.740554 -0.0979247 0
M  V30 3322 H 331.697 1.70903 -0.936912 0
M  V30 3323 H 330.793 3.10495 -0.316142 0
M  V30 3324 N 331.094 0.475555 1.50254 0
M  V30 3325 C 332.51 0.12997 1.5907 0
M  V30 3326 C 332.71 -1.36385 1.48328 0
M  V30 3327 O 331.766 -2.13754 1.34407 0
M  V30 3328 C 333.079 0.684139 2.92814 0
M  V30 3329 C 334.627 0.647965 3.0622 0
M  V30 3330 C 335.102 1.17975 4.42545 0
M  V30 3331 N 336.593 1.13936 4.48969 0
M  V30 3332 C 337.328 1.52129 5.52851 0
M  V30 3333 N 336.824 1.97793 6.63965 0
M  V30 3334 N 338.617 1.43704 5.4342 0
M  V30 3335 H 330.768 1.44706 1.55479 0
M  V30 3336 H 333.031 0.598691 0.735033 0
M  V30 3337 H 332.737 1.73079 3.06164 0
M  V30 3338 H 332.611 0.130204 3.76975 0
M  V30 3339 H 334.998 -0.38979 2.92514 0
M  V30 3340 H 335.079 1.23876 2.23805 0
M  V30 3341 H 334.723 2.21616 4.57 0
M  V30 3342 H 334.653 0.565138 5.23559 0
M  V30 3343 H 337.144 0.804488 3.69238 0
M  V30 3344 H 337.457 2.25072 7.39299 0
M  V30 3345 H 335.802 2.01749 6.65073 0
M  V30 3346 H 338.993 1.07867 4.55502 0
M  V30 3347 H 339.166 1.73794 6.24259 0
M  V30 3348 N 332.573 -1.56217 0.208337 0
M  V30 3349 C 333.803 -2.02043 -0.431523 0
M  V30 3350 C 334.211 -1.08755 -1.54819 0
M  V30 3351 O 333.554 -0.0870009 -1.83494 0
M  V30 3352 C 333.616 -3.44239 -1.03633 0
M  V30 3353 C 333.28 -4.56965 -0.0567502 0
M  V30 3354 C 334.277 -5.14624 0.738773 0
M  V30 3355 C 331.962 -5.02266 0.0581736 0
M  V30 3356 C 333.956 -6.16045 1.63605 0
M  V30 3357 C 331.643 -6.03528 0.959001 0
M  V30 3358 C 332.641 -6.60293 1.7465 0
M  V30 3359 O 332.329 -7.59586 2.6322 0
M  V30 3360 H 332.061 -0.666772 -0.111313 0
M  V30 3361 H 334.615 -2.02919 0.318277 0
M  V30 3362 H 332.845 -3.40391 -1.83497 0
M  V30 3363 H 334.534 -3.73793 -1.58221 0
M  V30 3364 H 335.3 -4.80483 0.660364 0
M  V30 3365 H 331.179 -4.57771 -0.544633 0
M  V30 3366 H 334.723 -6.60279 2.25116 0
M  V30 3367 H 330.62 -6.37092 1.03848 0
M  V30 3368 H 331.388 -7.77057 2.57148 0
M  V30 3369 N 334.051 0.0651679 -1.57465 0
M  V30 3370 C 335.297 0.764193 -1.87851 0
M  V30 3371 C 335.63 1.76889 -0.801495 0
M  V30 3372 O 334.905 1.93594 0.187528 0
M  V30 3373 C 335.188 1.46625 -3.28897 0
M  V30 3374 C 335.041 0.477515 -4.47258 0
M  V30 3375 C 336.36 2.4095 -3.68281 0
M  V30 3376 H 333.479 0.276351 -0.683227 0
M  V30 3377 H 336.121 0.0272868 -1.8998 0
M  V30 3378 H 334.271 2.09438 -3.27212 0
M  V30 3379 H 335.943 -0.145922 -4.61069 0
M  V30 3380 H 334.186 -0.206576 -4.33308 0
M  V30 3381 H 334.857 1.0065 -5.42746 0
M  V30 3382 H 337.333 1.88209 -3.71102 0
M  V30 3383 H 336.209 2.87072 -4.67847 0
M  V30 3384 H 336.47 3.26049 -2.98571 0
M  V30 3385 N 335.529 1.53961 0.336706 0
M  V30 3386 C 336.461 1.78751 1.4346 0
M  V30 3387 C 337.474 0.669019 1.48418 0
M  V30 3388 O 338.663 0.945884 1.51378 0
M  V30 3389 C 335.763 1.87844 2.82078 0
M  V30 3390 C 334.936 3.17854 3.00479 0
M  V30 3391 C 333.995 3.17816 4.19379 0
M  V30 3392 O 333.021 3.91511 4.13168 0
M  V30 3393 N 334.223 2.40669 5.2826 0
M  V30 3394 H 336.988 2.73493 1.22563 0
M  V30 3395 H 334.549 1.53096 0.526625 0
M  V30 3396 H 336.541 1.85261 3.59806 0
M  V30 3397 H 335.111 1.00257 2.96086 0
M  V30 3398 H 334.331 3.33504 2.10163 0
M  V30 3399 H 335.619 4.03718 3.0966 0
M  V30 3400 H 335.017 1.8036 5.36178 0
M  V30 3401 H 333.574 2.43877 6.04456 0
M  V30 3402 N 337.007 -0.598083 1.45811 0
M  V30 3403 C 338.418 -1.18011 1.44673 0
M  V30 3404 C 338.769 -1.95378 0.179364 0
M  V30 3405 O 337.894 -2.04124 -0.718509 0
M  V30 3406 C 338.489 -2.14677 2.62105 0
M  V30 3407 C 337.048 -2.68236 2.64057 0
M  V30 3408 C 336.195 -1.43816 2.37091 0
M  V30 3409 H 339.146 -0.38686 1.53913 0
M  V30 3410 H 339.167 -2.97878 2.36746 0
M  V30 3411 H 338.679 -1.5834 3.5433 0
M  V30 3412 H 336.78 -3.28486 1.75864 0
M  V30 3413 H 336.893 -3.12021 3.63566 0
M  V30 3414 H 335.257 -1.731 1.86838 0
M  V30 3415 H 336.04 -0.893333 3.31473 0
M  V30 3416 N 338.485 -1.33259 -0.841409 0
M  V30 3417 C 339.71 -1.2775 -1.63385 0
M  V30 3418 C 340.135 0.149188 -1.87507 0
M  V30 3419 O 339.493 1.10498 -1.43736 0
M  V30 3420 C 339.541 -2.05571 -2.96265 0
M  V30 3421 O 338.645 -1.41257 -3.87453 0
M  V30 3422 H 337.986 -0.439627 -0.497618 0
M  V30 3423 H 340.516 -1.75782 -1.04699 0
M  V30 3424 H 340.526 -2.16241 -3.45982 0
M  V30 3425 H 339.201 -3.09309 -2.7803 0
M  V30 3426 H 337.778 -1.39217 -3.45938 0
M  V30 3427 N 339.963 1.05934 -1.16686 0
M  V30 3428 C 340.873 2.17014 -0.891183 0
M  V30 3429 C 341.889 1.73453 0.137907 0
M  V30 3430 O 343.065 2.01361 -0.039592 0
M  V30 3431 C 340.13 3.44384 -0.400099 0
M  V30 3432 C 339.191 4.02433 -1.49486 0
M  V30 3433 C 338.424 5.23723 -1.02711 0
M  V30 3434 O 338.647 5.7027 0.121716 0
M  V30 3435 O 337.581 5.7382 -1.81699 0
M  V30 3436 H 341.407 2.43113 -1.82015 0
M  V30 3437 H 338.992 1.15541 -0.947132 0
M  V30 3438 H 340.874 4.21189 -0.133392 0
M  V30 3439 H 339.549 3.19802 0.500817 0
M  V30 3440 H 338.456 3.27102 -1.81535 0
M  V30 3441 H 339.789 4.31317 -2.37121 0
M  V30 3442 N 341.441 0.965919 1.2453 0
M  V30 3443 C 342.687 0.62776 1.92839 0
M  V30 3444 C 343.02 -0.834694 1.75347 0
M  V30 3445 O 342.295 -1.60031 1.10546 0
M  V30 3446 C 342.578 1.00109 3.45905 0
M  V30 3447 C 342.431 2.52011 3.72573 0
M  V30 3448 C 343.75 0.53435 4.36844 0
M  V30 3449 H 340.869 0.229537 0.700344 0
M  V30 3450 H 343.511 1.2046 1.46933 0
M  V30 3451 H 341.661 0.510238 3.85135 0
M  V30 3452 H 343.333 3.08559 3.42912 0
M  V30 3453 H 341.576 2.95287 3.17786 0
M  V30 3454 H 342.247 2.73183 4.79661 0
M  V30 3455 H 344.723 0.955565 4.04979 0
M  V30 3456 H 343.599 0.824152 5.42678 0
M  V30 3457 H 343.86 -0.565589 4.38467 0
M  V30 3458 N 342.919 -1.39368 0.735821 0
M  V30 3459 C 343.882 -2.2896 0.104874 0
M  V30 3460 C 344.882 -1.46347 -0.666274 0
M  V30 3461 O 346.072 -1.67014 -0.49517 0
M  V30 3462 C 343.204 -3.29857 -0.860656 0
M  V30 3463 H 344.397 -2.86259 0.894205 0
M  V30 3464 H 341.95 -1.48029 0.501704 0
M  V30 3465 H 342.685 -2.77615 -1.67631 0
M  V30 3466 H 342.47 -3.9087 -0.310327 0
M  V30 3467 H 343.96 -3.96893 -1.29867 0
M  V30 3468 N 344.397 -0.483516 -1.5 0
M  V30 3469 C 345.307 0.309172 -2.32554 0
M  V30 3470 C 346.323 0.984159 -1.43493 0
M  V30 3471 O 347.499 0.969399 -1.76535 0
M  V30 3472 C 344.564 1.36979 -3.18493 0
M  V30 3473 C 343.625 0.710095 -4.23387 0
M  V30 3474 C 342.858 1.72018 -5.05218 0
M  V30 3475 O 343.081 2.94813 -4.88305 0
M  V30 3476 O 342.015 1.28515 -5.8802 0
M  V30 3477 H 345.841 -0.366064 -3.01486 0
M  V30 3478 H 343.426 -0.24514 -1.47375 0
M  V30 3479 H 345.308 1.98385 -3.71781 0
M  V30 3480 H 343.983 2.02828 -2.52275 0
M  V30 3481 H 342.89 0.0567539 -3.74057 0
M  V30 3482 H 344.223 0.0943557 -4.9211 0
M  V30 3483 N 345.875 1.56104 -0.216619 0
M  V30 3484 C 346.808 2.16026 0.735395 0
M  V30 3485 C 347.786 1.1032 1.1945 0
M  V30 3486 O 348.97 1.38549 1.27814 0
M  V30 3487 C 346.097 2.73656 1.99575 0
M  V30 3488 C 345.143 3.92146 1.67702 0
M  V30 3489 S 345.976 5.29397 0.806145 0
M  V30 3490 C 347.132 5.90463 2.07617 0
M  V30 3491 H 347.365 2.96439 0.226072 0
M  V30 3492 H 344.898 1.544 -0.00136639 0
M  V30 3493 H 346.856 3.075 2.71945 0
M  V30 3494 H 345.517 1.93245 2.47619 0
M  V30 3495 H 344.71 4.30954 2.61332 0
M  V30 3496 H 344.312 3.59423 1.03398 0
M  V30 3497 H 346.604 6.06136 3.02664 0
M  V30 3498 H 347.547 6.86589 1.73207 0
M  V30 3499 H 347.955 5.19252 2.21445 0
M  V30 3500 N 347.353 -0.0568162 1.57498 0
M  V30 3501 C 348.599 -0.75422 1.88253 0
M  V30 3502 C 348.932 -1.76461 0.810865 0
M  V30 3503 O 348.207 -1.93691 -0.177259 0
M  V30 3504 C 348.49 -1.44878 3.2967 0
M  V30 3505 C 348.343 -0.453789 4.47505 0
M  V30 3506 C 349.662 -2.38994 3.69554 0
M  V30 3507 H 346.781 -0.272724 0.684683 0
M  V30 3508 H 349.423 -0.0172113 1.89992 0
M  V30 3509 H 347.573 -2.077 3.28318 0
M  V30 3510 H 349.245 0.170371 4.60985 0
M  V30 3511 H 347.488 0.229552 4.33192 0
M  V30 3512 H 348.159 -0.977699 5.43273 0
M  V30 3513 H 350.635 -1.86239 3.72095 0
M  V30 3514 H 349.511 -2.84587 4.69363 0
M  V30 3515 H 349.772 -3.24461 3.00296 0
M  V30 3516 N 348.832 -1.54138 -0.328536 0
M  V30 3517 C 349.795 -1.82462 -1.38709 0
M  V30 3518 C 350.795 -0.696229 -1.44946 0
M  V30 3519 O 351.985 -0.964535 -1.4506 0
M  V30 3520 C 349.117 -1.98018 -2.77492 0
M  V30 3521 H 350.31 -2.77037 -1.14851 0
M  V30 3522 H 347.863 -1.45779 -0.563751 0
M  V30 3523 H 348.598 -1.05637 -3.06613 0
M  V30 3524 H 348.383 -2.80124 -2.74359 0
M  V30 3525 H 349.873 -2.21396 -3.54081 0
M  V30 3526 N 350.31 0.590341 -1.46126 0
M  V30 3527 C 351.54 1.37304 -1.54373 0
M  V30 3528 C 351.948 1.88332 -0.181071 0
M  V30 3529 O 351.291 1.63852 0.830559 0
M  V30 3530 C 351.353 2.6012 -2.48149 0
M  V30 3531 C 351.017 2.30613 -3.94546 0
M  V30 3532 C 352.014 1.89915 -4.83971 0
M  V30 3533 C 349.699 2.42993 -4.39613 0
M  V30 3534 C 351.693 1.61981 -6.16475 0
M  V30 3535 C 349.38 2.14672 -5.72153 0
M  V30 3536 C 350.378 1.7423 -6.60404 0
M  V30 3537 O 350.066 1.46251 -7.90485 0
M  V30 3538 H 349.798 0.426086 -0.524811 0
M  V30 3539 H 352.352 0.72539 -1.92165 0
M  V30 3540 H 350.582 3.27664 -2.05361 0
M  V30 3541 H 352.271 3.22182 -2.46887 0
M  V30 3542 H 353.037 1.79872 -4.50412 0
M  V30 3543 H 348.916 2.73435 -3.71153 0
M  V30 3544 H 352.46 1.30341 -6.85315 0
M  V30 3545 H 348.357 2.24337 -6.05263 0
M  V30 3546 H 349.125 1.6016 -8.02677 0
M  V30 3547 N 351.788 1.33704 0.83433 0
M  V30 3548 C 352.718 1.26967 1.95963 0
M  V30 3549 C 353.699 0.149337 1.69443 0
M  V30 3550 O 354.884 0.339852 1.91203 0
M  V30 3551 C 352.014 1.01275 3.32206 0
M  V30 3552 C 350.968 2.09652 3.73136 0
M  V30 3553 C 350.294 1.69166 5.07235 0
M  V30 3554 C 351.594 3.51372 3.86439 0
M  V30 3555 H 353.288 2.2112 2.01857 0
M  V30 3556 H 350.834 1.06447 0.969793 0
M  V30 3557 H 352.787 0.952106 4.10503 0
M  V30 3558 H 351.511 0.0356203 3.26581 0
M  V30 3559 H 350.17 2.14766 2.97104 0
M  V30 3560 H 349.818 0.701437 4.98085 0
M  V30 3561 H 349.518 2.41694 5.35591 0
M  V30 3562 H 351.042 1.64576 5.88003 0
M  V30 3563 H 352.456 3.48734 4.55036 0
M  V30 3564 H 350.853 4.22425 4.26236 0
M  V30 3565 H 351.923 3.89546 2.88759 0
M  V30 3566 N 353.266 -1.05314 1.17247 0
M  V30 3567 C 354.515 -1.77685 0.954521 0
M  V30 3568 C 354.828 -1.88616 -0.518025 0
M  V30 3569 O 356.034 -2.57714 -0.854144 0
M  V30 3570 C 354.49 -3.19402 1.65863 0
M  V30 3571 C 354.098 -3.16605 3.16963 0
M  V30 3572 C 355.842 -3.96237 1.52303 0
M  V30 3573 C 353.749 -4.53103 3.80068 0
M  V30 3574 H 352.679 -0.666 0.353496 0
M  V30 3575 H 355.33 -1.1805 1.40486 0
M  V30 3576 H 353.712 -3.79355 1.13602 0
M  V30 3577 H 354.886 -2.66176 3.76148 0
M  V30 3578 H 353.201 -2.53268 3.30521 0
M  V30 3579 H 355.798 -4.97157 1.96822 0
M  V30 3580 H 356.141 -4.136 0.473401 0
M  V30 3581 H 356.674 -3.42829 2.01775 0
M  V30 3582 H 353.413 -4.40946 4.85023 0
M  V30 3583 H 352.933 -5.03686 3.2567 0
M  V30 3584 H 354.612 -5.22045 3.82202 0
M  V30 3585 N 354.744 -0.972509 -1.24016 0
M  V30 3586 C 355.992 -0.635776 -1.91839 0
M  V30 3587 C 356.313 0.832312 -1.76345 0
M  V30 3588 O 355.583 1.5946 -1.13795 0
M  V30 3589 H 354.163 -0.232157 -0.710009 0
M  V30 3590 H 356.825 -1.23462 -1.50809 0
M  V30 3591 H 355.921 -0.880545 -2.99421 0
M  V30 3592 N 356.222 1.38976 -0.743202 0
M  V30 3593 C 357.633 1.83123 -0.363732 0
M  V30 3594 C 357.984 1.6205 1.10609 0
M  V30 3595 O 357.109 1.11606 1.854 0
M  V30 3596 C 357.704 3.32439 -0.653408 0
M  V30 3597 C 356.263 3.74974 -0.327338 0
M  V30 3598 C 355.41 2.61878 -0.911875 0
M  V30 3599 H 358.361 1.27852 -0.940191 0
M  V30 3600 H 358.382 3.80432 0.0720031 0
M  V30 3601 H 357.894 3.47745 -1.72323 0
M  V30 3602 H 355.995 3.65252 0.736314 0
M  V30 3603 H 356.108 4.72106 -0.815631 0
M  V30 3604 H 354.472 2.52448 -0.337944 0
M  V30 3605 H 355.255 2.79987 -1.98651 0
M  V30 3606 N 357.7 0.491464 1.49741 0
M  V30 3607 C 358.948 -0.0563141 2.02022 0
M  V30 3608 C 359.269 -1.38363 1.37407 0
M  V30 3609 O 358.539 -1.88702 0.526166 0
M  V30 3610 H 357.119 -0.0238014 0.746621 0
M  V30 3611 H 359.781 0.646533 1.83864 0
M  V30 3612 H 358.877 -0.192967 3.11503 0
M  V30 3613 N 359.178 -1.55987 0.224894 0
M  V30 3614 C 360.141 -2.19178 -0.670348 0
M  V30 3615 C 361.141 -1.15461 -1.11917 0
M  V30 3616 O 362.331 -1.40675 -1.02743 0
M  V30 3617 C 359.463 -2.81777 -1.9187 0
M  V30 3618 H 360.656 -2.99662 -0.119364 0
M  V30 3619 H 358.209 -1.5628 -0.0247128 0
M  V30 3620 H 358.944 -2.05172 -2.51147 0
M  V30 3621 H 358.729 -3.57732 -1.60531 0
M  V30 3622 H 360.219 -3.30205 -2.55645 0
M  V30 3623 N 360.656 0.0484629 -1.57525 0
M  V30 3624 C 361.619 1.03956 -2.04269 0
M  V30 3625 C 362.619 1.30211 -0.943496 0
M  V30 3626 O 363.809 1.25539 -1.20771 0
M  V30 3627 C 360.941 2.37742 -2.44319 0
M  V30 3628 H 362.134 0.636182 -2.93075 0
M  V30 3629 H 359.687 0.294811 -1.53494 0
M  V30 3630 H 360.422 2.82866 -1.5861 0
M  V30 3631 H 360.207 2.20021 -3.24551 0
M  V30 3632 H 361.697 3.08936 -2.80978 0
M  V30 3633 N 362.134 1.5431 0.320358 0
M  V30 3634 C 363.097 1.83195 1.3774 0
M  V30 3635 C 364.097 0.703906 1.44575 0
M  V30 3636 O 365.287 0.972214 1.44546 0
M  V30 3637 C 362.419 1.99487 2.76438 0
M  V30 3638 H 363.612 2.77642 1.1338 0
M  V30 3639 H 361.165 1.46076 0.556012 0
M  V30 3640 H 361.9 1.07262 3.06048 0
M  V30 3641 H 361.685 2.81575 2.7287 0
M  V30 3642 H 363.175 2.23271 3.52902 0
M  V30 3643 N 363.613 -0.582584 1.46437 0
M  V30 3644 C 364.859 -1.34278 1.51978 0
M  V30 3645 C 365.192 -1.93446 0.170973 0
M  V30 3646 O 364.467 -1.76481 -0.817608 0
M  V30 3647 C 364.75 -2.47203 2.61845 0
M  V30 3648 C 364.603 -1.93069 4.06257 0
M  V30 3649 C 365.922 -3.49247 2.67795 0
M  V30 3650 H 363.041 -0.486876 0.553282 0
M  V30 3651 H 365.683 -0.654437 1.78374 0
M  V30 3652 H 363.833 -3.0592 2.39469 0
M  V30 3653 H 365.505 -1.38808 4.3992 0
M  V30 3654 H 363.748 -1.23898 4.1573 0
M  V30 3655 H 364.419 -2.74586 4.7886 0
M  V30 3656 H 366.895 -3.00411 2.8791 0
M  V30 3657 H 365.771 -4.25719 3.46489 0
M  V30 3658 H 366.032 -4.06482 1.73852 0
M  V30 3659 N 365.091 -1.34144 -0.827227 0
M  V30 3660 C 366.319 -1.29325 -1.61501 0
M  V30 3661 C 366.734 0.13354 -1.88327 0
M  V30 3662 O 366.091 1.0793 -1.47164 0
M  V30 3663 C 366.142 -2.07746 -2.95844 0
M  V30 3664 O 365.863 -3.4486 -2.70191 0
M  V30 3665 C 367.364 -2.10273 -3.90256 0
M  V30 3666 H 364.584 -0.445069 -0.50215 0
M  V30 3667 H 367.128 -1.76693 -1.02955 0
M  V30 3668 H 365.283 -1.6403 -3.5096 0
M  V30 3669 H 365.697 -3.85345 -3.55822 0
M  V30 3670 H 367.171 -2.69575 -4.81698 0
M  V30 3671 H 367.648 -1.096 -4.25305 0
M  V30 3672 H 368.254 -2.54059 -3.41078 0
M  V30 3673 N 366.569 1.04691 -1.17803 0
M  V30 3674 C 367.532 2.10724 -0.901545 0
M  V30 3675 C 368.532 1.6042 0.110437 0
M  V30 3676 O 369.722 1.7377 -0.122303 0
M  V30 3677 C 366.854 3.39084 -0.351409 0
M  V30 3678 H 368.047 2.36686 -1.84174 0
M  V30 3679 H 365.6 1.21015 -0.98919 0
M  V30 3680 H 366.335 3.18782 0.59569 0
M  V30 3681 H 366.12 3.76909 -1.08083 0
M  V30 3682 H 367.61 4.17227 -0.176451 0
M  V30 3683 N 368.047 0.979072 1.23499 0
M  V30 3684 C 368.979 0.476271 2.24197 0
M  V30 3685 C 369.992 -0.421166 1.57258 0
M  V30 3686 O 371.181 -0.225515 1.7707 0
M  V30 3687 C 368.281 -0.330503 3.37285 0
M  V30 3688 C 367.454 0.559744 4.33804 0
M  V30 3689 C 366.513 -0.192954 5.25846 0
M  V30 3690 O 365.539 0.416978 5.67671 0
M  V30 3691 N 366.741 -1.47932 5.61334 0
M  V30 3692 H 369.506 1.34211 2.67969 0
M  V30 3693 H 367.067 0.852189 1.37657 0
M  V30 3694 H 369.059 -0.842361 3.95836 0
M  V30 3695 H 367.629 -1.09734 2.92707 0
M  V30 3696 H 366.849 1.25245 3.73775 0
M  V30 3697 H 368.137 1.1665 4.95248 0
M  V30 3698 H 367.535 -1.9964 5.29302 0
M  V30 3699 H 366.092 -1.93664 6.22364 0
M  V30 3700 N 369.525 -1.3858 0.750561 0
M  V30 3701 C 370.488 -2.28836 0.129152 0
M  V30 3702 C 371.488 -1.47045 -0.650714 0
M  V30 3703 O 372.678 -1.6753 -0.477428 0
M  V30 3704 C 369.81 -3.30751 -0.825622 0
M  V30 3705 H 371.003 -2.85294 0.924516 0
M  V30 3706 H 368.556 -1.47489 0.517376 0
M  V30 3707 H 369.291 -2.79378 -1.64677 0
M  V30 3708 H 369.076 -3.91177 -0.268852 0
M  V30 3709 H 370.566 -3.98249 -1.2565 0
M  V30 3710 N 371.003 -0.499398 -1.49478 0
M  V30 3711 C 371.933 0.269244 -2.31943 0
M  V30 3712 C 372.914 0.964054 -1.40143 0
M  V30 3713 O 374.099 0.955767 -1.69052 0
M  V30 3714 C 371.229 1.33504 -3.20615 0
M  V30 3715 C 370.183 0.760202 -4.21195 0
M  V30 3716 C 369.509 1.9264 -4.98792 0
M  V30 3717 C 370.809 -0.247661 -5.21712 0
M  V30 3718 H 372.503 -0.419082 -2.96452 0
M  V30 3719 H 370.049 -0.202988 -1.42562 0
M  V30 3720 H 372.002 1.88048 -3.77115 0
M  V30 3721 H 370.726 2.05253 -2.54045 0
M  V30 3722 H 369.385 0.23653 -3.65836 0
M  V30 3723 H 369.033 2.63154 -4.28671 0
M  V30 3724 H 368.733 1.54785 -5.66847 0
M  V30 3725 H 370.257 2.4762 -5.58137 0
M  V30 3726 H 371.671 0.209579 -5.72917 0
M  V30 3727 H 370.068 -0.541962 -5.97648 0
M  V30 3728 H 371.138 -1.16409 -4.7072 0
M  V30 3729 N 372.481 1.55866 -0.233164 0
M  V30 3730 C 373.429 2.22176 0.68851 0
M  V30 3731 C 374.423 1.20487 1.19076 0
M  V30 3732 O 375.629 1.38536 1.14925 0
M  V30 3733 H 372.004 0.712511 0.240483 0
M  V30 3734 H 373.975 2.98212 0.105935 0
M  V30 3735 C 372.724 2.92446 1.88071 0
M  V30 3736 H 372.047 3.70458 1.50337 0
M  V30 3737 H 373.487 3.42226 2.50314 0
M  V30 3738 C 371.946 1.95555 2.74335 0
M  V30 3739 O 372.476 1.47986 3.73447 0
M  V30 3740 N 370.682 1.62953 2.40613 0
M  V30 3741 H 370.229 2.01831 1.60069 0
M  V30 3742 H 370.187 0.983886 2.98609 0
M  V30 3743 N 373.959 -0.0401083 1.57549 0
M  V30 3744 C 375.205 -0.734211 1.89043 0
M  V30 3745 C 375.538 -1.75591 0.829535 0
M  V30 3746 O 374.813 -1.93868 -0.156706 0
M  V30 3747 C 375.096 -1.41374 3.31188 0
M  V30 3748 C 374.949 -0.406299 4.47961 0
M  V30 3749 C 376.268 -2.35061 3.72068 0
M  V30 3750 H 373.387 -0.265447 0.687537 0
M  V30 3751 H 376.029 0.00294087 1.9 0
M  V30 3752 H 374.179 -2.04206 3.30503 0
M  V30 3753 H 375.851 0.219255 4.60779 0
M  V30 3754 H 374.094 0.275485 4.32924 0
M  V30 3755 H 374.765 -0.920022 5.44279 0
M  V30 3756 H 377.241 -1.82282 3.74049 0
M  V30 3757 H 376.117 -2.79593 4.72355 0
M  V30 3758 H 376.378 -3.21258 3.0372 0
M  V30 3759 N 375.437 -1.54477 -0.31217 0
M  V30 3760 C 376.677 -1.74958 -1.05684 0
M  V30 3761 C 377.041 -0.518414 -1.84869 0
M  V30 3762 O 378.242 -0.600759 -2.62001 0
M  V30 3763 C 376.513 -2.99656 -1.94785 0
M  V30 3764 S 378.072 -3.4109 -2.76049 0
M  V30 3765 H 374.89 -0.615104 -0.356606 0
M  V30 3766 H 377.492 -1.92669 -0.331514 0
M  V30 3767 H 376.196 -3.87397 -1.35468 0
M  V30 3768 H 375.727 -2.845 -2.71704 0
M  V30 3769 H 377.742 -2.97283 -3.97287 0
M  V30 3770 N 376.915 0.57481 -1.46744 0
M  V30 3771 C 378.163 1.33009 -1.52161 0
M  V30 3772 C 378.484 1.94185 -0.178092 0
M  V30 3773 O 377.754 1.7899 0.796196 0
M  V30 3774 H 376.334 0.493873 -0.560445 0
M  V30 3775 H 378.996 0.672589 -1.82927 0
M  V30 3776 H 378.092 2.13273 -2.27862 0
M  V30 3777 N 378.394 1.34581 0.820102 0
M  V30 3778 C 379.642 1.26845 1.57336 0
M  V30 3779 C 379.963 -0.160667 1.94337 0
M  V30 3780 O 379.233 -1.09396 1.6251 0
M  V30 3781 H 377.813 0.466514 0.583415 0
M  V30 3782 H 380.475 1.68526 0.979027 0
M  V30 3783 H 379.571 1.87513 2.4949 0
M  V30 3784 N 379.872 -1.04064 1.18357 0
M  V30 3785 C 380.802 -2.14001 0.934113 0
M  V30 3786 C 381.783 -1.69616 -0.128186 0
M  V30 3787 O 382.968 -1.94185 0.0244093 0
M  V30 3788 C 380.098 -3.44253 0.459066 0
M  V30 3789 C 379.052 -4.02261 1.46185 0
M  V30 3790 C 378.378 -5.27992 0.844322 0
M  V30 3791 C 379.678 -4.38432 2.83856 0
M  V30 3792 H 381.372 -2.35127 1.85352 0
M  V30 3793 H 378.918 -1.12998 0.892604 0
M  V30 3794 H 380.871 -4.20522 0.271907 0
M  V30 3795 H 379.595 -3.22813 -0.495912 0
M  V30 3796 H 378.254 -3.28074 1.63595 0
M  V30 3797 H 377.902 -5.02862 -0.117845 0
M  V30 3798 H 377.602 -5.67765 1.51384 0
M  V30 3799 H 379.126 -6.06938 0.667693 0
M  V30 3800 H 380.54 -5.05688 2.70098 0
M  V30 3801 H 378.937 -4.89254 3.47491 0
M  V30 3802 H 380.007 -3.4826 3.37406 0
M  V30 3803 N 381.35 -0.985608 -1.22978 0
M  V30 3804 C 382.598 -0.656087 -1.91154 0
M  V30 3805 C 382.919 0.813561 -1.77218 0
M  V30 3806 O 382.189 1.58244 -1.1548 0
M  V30 3807 H 380.769 -0.239674 -0.707506 0
M  V30 3808 H 383.431 -1.25054 -1.49491 0
M  V30 3809 H 382.527 -0.912253 -2.9847 0
M  V30 3810 N 382.828 1.3818 -0.7579 0
M  V30 3811 C 383.776 2.32277 -0.122482 0
M  V30 3812 C 384.77 1.54238 0.700505 0
M  V30 3813 O 385.976 1.69737 0.599119 0
M  V30 3814 H 382.351 0.751712 -0.0208143 0
M  V30 3815 H 384.322 2.83469 -0.932099 0
M  V30 3816 C 383.071 3.39447 0.753076 0
M  V30 3817 H 382.394 3.99591 0.129184 0
M  V30 3818 H 383.834 4.07684 1.16489 0
M  V30 3819 C 382.293 2.78375 1.8976 0
M  V30 3820 O 382.823 2.68025 2.99208 0
M  V30 3821 N 381.029 2.36121 1.69397 0
M  V30 3822 H 380.576 2.4474 0.803762 0
M  V30 3823 H 380.534 1.95602 2.46145 0
M  V30 3824 N 384.306 0.507319 1.49211 0
M  V30 3825 C 385.536 -0.0315292 2.06576 0
M  V30 3826 C 385.944 -1.30791 1.36713 0
M  V30 3827 O 385.287 -1.78324 0.441181 0
M  V30 3828 C 385.349 -0.349104 3.57801 0
M  V30 3829 C 385.013 0.830475 4.49391 0
M  V30 3830 C 386.01 1.72271 4.90529 0
M  V30 3831 C 383.695 1.03107 4.91604 0
M  V30 3832 C 385.689 2.79964 5.72625 0
M  V30 3833 C 383.376 2.11116 5.73475 0
M  V30 3834 C 384.374 2.99379 6.1389 0
M  V30 3835 O 384.062 4.05523 6.94123 0
M  V30 3836 H 383.794 0.0201002 0.675701 0
M  V30 3837 H 386.348 0.705737 1.92895 0
M  V30 3838 H 384.578 -1.14005 3.69513 0
M  V30 3839 H 386.267 -0.827319 3.97379 0
M  V30 3840 H 387.033 1.57958 4.58557 0
M  V30 3841 H 382.912 0.353417 4.59643 0
M  V30 3842 H 386.456 3.48884 6.04091 0
M  V30 3843 H 382.353 2.25421 6.0486 0
M  V30 3844 H 383.121 4.02953 7.1244 0
M  V30 3845 O 385.823 -1.56889 0.38316 0
M  V30 3846 H 386.514 -1.93009 -0.163415 0
M  V30 END ATOM
M  V30 BEGIN BOND
M  V30 END BOND
M  V30 END CTAB
M  END
$$$$
