drugbank_target|P60900 Proteasome subunit alpha type-6 (DB08515)
 OpenBabel12092120433D

  0  0  0     0  0            999 V3000
M  V30 BEGIN CTAB
M  V30 COUNTS 3847 3881 0 0 0
M  V30 BEGIN ATOM
M  V30 1 H -0.908 1.98254 -0.117106 0
M  V30 2 N 0 1.576 0 0
M  V30 3 C 0.933 2.03868 1.02534 0
M  V30 4 C 1.911 0.928543 1.3348 0
M  V30 5 O 3.095 1.19667 1.45644 0
M  V30 6 C 0.222 2.43627 2.35294 0
M  V30 7 C -0.732 3.65373 2.2001 0
M  V30 8 S 0.101 5.13292 1.52614 0
M  V30 9 C 1.257 5.56322 2.86805 0
M  V30 10 H 1.49 2.90518 0.631377 0
M  V30 11 H -0.977 1.52953 0.210867 0
M  V30 12 H 0.981 2.67203 3.11629 0
M  V30 13 H -0.358 1.57376 2.7183 0
M  V30 14 H -1.165 3.90944 3.18086 0
M  V30 15 H -1.563 3.418 1.51819 0
M  V30 16 H 0.729 5.58782 3.83104 0
M  V30 17 H 1.672 6.56266 2.65933 0
M  V30 18 H 2.08 4.83886 2.90714 0
M  V30 19 N 1.4781 -0.272755 1.55222 0
M  V30 20 C 2.7031 -1.02683 1.80197 0
M  V30 21 C 3.1281 -1.79142 0.573551 0
M  V30 22 O 2.4861 -1.74917 -0.476849 0
M  V30 23 C 2.5341 -1.9609 3.02624 0
M  V30 24 O 1.6381 -3.04863 2.77727 0
M  V30 25 H 0.9791 -0.293557 0.595584 0
M  V30 26 H 3.5091 -0.30159 2.02365 0
M  V30 27 H 3.5191 -2.38039 3.31363 0
M  V30 28 H 2.1941 -1.39851 3.91682 0
M  V30 29 H 0.7711 -2.67228 2.60084 0
M  V30 30 N 2.9562 -1.48159 -0.537278 0
M  V30 31 C 4.3722 -1.34118 -0.865129 0
M  V30 32 C 4.5722 -0.346678 -1.98495 0
M  V30 33 O 3.6282 0.234715 -2.51407 0
M  V30 34 C 4.9412 -2.73963 -1.23954 0
M  V30 35 C 6.4892 -2.82397 -1.34984 0
M  V30 36 C 6.9642 -4.22928 -1.75772 0
M  V30 37 N 8.4552 -4.25566 -1.82887 0
M  V30 38 C 9.1902 -5.31235 -2.15817 0
M  V30 39 N 8.6862 -6.47189 -2.47222 0
M  V30 40 N 10.4792 -5.18624 -2.16761 0
M  V30 41 H 2.6302 -2.1144 0.201715 0
M  V30 42 H 4.8932 -0.947598 0.0275949 0
M  V30 43 H 4.5992 -3.48264 -0.490381 0
M  V30 44 H 4.4732 -3.0702 -2.19132 0
M  V30 45 H 6.8602 -2.08356 -2.08978 0
M  V30 46 H 6.9412 -2.5297 -0.379448 0
M  V30 47 H 6.5852 -4.97482 -1.02341 0
M  V30 48 H 6.5152 -4.49794 -2.73848 0
M  V30 49 H 9.0062 -3.41924 -1.60924 0
M  V30 50 H 9.3192 -7.23564 -2.71433 0
M  V30 51 H 7.6642 -6.50476 -2.44757 0
M  V30 52 H 10.8552 -4.27056 -1.91679 0
M  V30 53 H 11.0282 -6.01078 -2.42093 0
M  V30 54 N 4.4343 0.785586 -1.36625 0
M  V30 55 C 5.6823 1.54057 -1.30808 0
M  V30 56 C 6.0033 1.94683 0.111157 0
M  V30 57 O 5.2733 1.65241 1.05224 0
M  V30 58 H 3.8533 0.571354 -0.481211 0
M  V30 59 H 6.5153 0.935821 -1.70963 0
M  V30 60 H 5.6113 2.44637 -1.93801 0
M  V30 61 N 5.9124 1.20967 1.01018 0
M  V30 62 C 7.1374 1.0503 1.78839 0
M  V30 63 C 7.5624 -0.395752 1.8389 0
M  V30 64 O 6.9204 -1.28529 1.27867 0
M  V30 65 C 6.9684 1.64602 3.2084 0
M  V30 66 O 6.0724 0.887988 4.02726 0
M  V30 67 H 5.4134 0.369987 0.551367 0
M  V30 68 H 7.9434 1.60399 1.27018 0
M  V30 69 H 7.9534 1.68607 3.71532 0
M  V30 70 H 6.6284 2.69841 3.16479 0
M  V30 71 H 5.2054 0.922648 3.61305 0
M  V30 72 N 7.3905 -1.2043 1.01659 0
M  V30 73 C 8.6155 -1.94318 0.724942 0
M  V30 74 C 9.0405 -1.74266 -0.708034 0
M  V30 75 O 8.3985 -1.03694 -1.48719 0
M  V30 76 C 8.4465 -3.44486 1.06591 0
M  V30 77 O 7.5505 -4.12017 0.177599 0
M  V30 78 H 6.8915 -0.60708 0.26898 0
M  V30 79 H 9.4215 -1.52861 1.35995 0
M  V30 80 H 9.4315 -3.95106 1.01762 0
M  V30 81 H 8.1065 -3.58404 2.10997 0
M  V30 82 H 6.6835 -3.71821 0.283421 0
M  V30 83 N 8.8686 -0.792821 -1.36206 0
M  V30 84 C 9.8316 -0.199459 -2.2833 0
M  V30 85 C 10.8316 0.605189 -1.48977 0
M  V30 86 O 12.0216 0.425685 -1.68919 0
M  V30 87 C 9.1536 0.723523 -3.33134 0
M  V30 88 H 10.3466 -1.01181 -2.82316 0
M  V30 89 H 7.8996 -0.562485 -1.45828 0
M  V30 90 H 8.6346 1.56008 -2.84309 0
M  V30 91 H 8.4196 0.148436 -3.91819 0
M  V30 92 H 9.9096 1.13344 -4.01924 0
M  V30 93 N 10.3467 1.47872 -0.545128 0
M  V30 94 C 11.5947 2.02093 -0.016553 0
M  V30 95 C 11.9157 1.42305 1.3332 0
M  V30 96 O 11.1857 0.593853 1.86682 0
M  V30 97 H 9.7657 0.746993 -0.00313038 0
M  V30 98 H 12.4277 1.81414 -0.712397 0
M  V30 99 H 11.5237 3.11996 0.0805422 0
M  V30 100 N 11.8248 0.280983 1.55075 0
M  V30 101 C 13.0718 -0.334115 1.99725 0
M  V30 102 C 13.3998 -1.5542 1.1694 0
M  V30 103 O 12.6548 -1.94361 0.228531 0
M  V30 104 C 12.9538 -0.754656 3.49342 0
M  V30 105 C 12.6198 0.361445 4.49449 0
M  V30 106 C 11.2818 0.667893 4.76542 0
M  V30 107 C 13.6338 1.11322 5.09173 0
M  V30 108 C 10.9618 1.7296 5.60626 0
M  V30 109 C 13.3138 2.1647 5.9441 0
M  V30 110 C 11.9778 2.47742 6.19822 0
M  V30 111 H 11.2478 -0.122261 0.730844 0
M  V30 112 H 13.8948 0.395917 1.87363 0
M  V30 113 H 12.1998 -1.56446 3.5921 0
M  V30 114 H 13.8968 -1.24142 3.813 0
M  V30 115 H 10.4868 0.112481 4.28452 0
M  V30 116 H 14.6708 0.88973 4.8826 0
M  V30 117 H 9.9268 1.97684 5.78559 0
M  V30 118 H 14.1008 2.75193 6.3972 0
M  V30 119 H 11.7278 3.30145 6.84769 0
M  V30 120 N 13.3029 -1.57598 0.00835791 0
M  V30 121 C 14.5799 -1.82172 -0.712235 0
M  V30 122 C 14.9599 -0.887873 -1.9152 0
M  V30 123 O 14.3079 0.06146 -2.28417 0
M  V30 124 C 14.5179 -3.30875 -1.11008 0
M  V30 125 C 15.8659 -3.96826 -1.51044 0
M  V30 126 O 16.8899 -3.35248 -1.20364 0
M  V30 127 O 15.7489 -5.05318 -2.08125 0
M  V30 128 H 12.8429 -0.750435 -0.347529 0
M  V30 129 H 15.3889 -1.69665 0.0344523 0
M  V30 130 H 14.1609 -3.90481 -0.252982 0
M  V30 131 H 13.7839 -3.48412 -1.9156 0
M  V30 132 N 14.781 0.264519 -1.55364 0
M  V30 133 C 16.197 0.61215 -1.47394 0
M  V30 134 C 16.397 1.89134 -0.695018 0
M  V30 135 O 15.453 2.51563 -0.217275 0
M  V30 136 C 16.766 0.731235 -2.91674 0
M  V30 137 C 18.314 0.82473 -3.01939 0
M  V30 138 C 18.789 0.975522 -4.4749 0
M  V30 139 N 20.28 1.04083 -4.51354 0
M  V30 140 C 21.015 1.17646 -5.61201 0
M  V30 141 N 20.511 1.27874 -6.80896 0
M  V30 142 N 22.304 1.20823 -5.48961 0
M  V30 143 H 14.455 -0.575456 -2.04456 0
M  V30 144 H 16.718 -0.196099 -0.927496 0
M  V30 145 H 16.424 -0.138392 -3.51428 0
M  V30 146 H 16.298 1.60883 -3.41169 0
M  V30 147 H 18.685 1.68482 -2.42276 0
M  V30 148 H 18.766 -0.0776479 -2.55682 0
M  V30 149 H 18.41 0.120058 -5.07758 0
M  V30 150 H 18.34 1.89268 -4.91412 0
M  V30 151 H 20.831 0.973846 -3.65136 0
M  V30 152 H 21.144 1.38081 -7.60364 0
M  V30 153 H 19.489 1.24863 -6.83692 0
M  V30 154 H 22.68 1.12469 -4.54388 0
M  V30 155 H 22.853 1.31049 -6.3461 0
M  V30 156 N 16.2591 1.48442 0.529413 0
M  V30 157 C 17.2091 1.59407 1.63014 0
M  V30 158 C 18.1931 0.451166 1.54445 0
M  V30 159 O 19.3851 0.702635 1.62456 0
M  V30 160 C 16.5141 1.63746 3.01732 0
M  V30 161 C 15.6001 2.83518 3.15402 0
M  V30 162 N 15.9911 4.07929 2.99045 0
M  V30 163 C 14.2891 2.80862 3.46457 0
M  V30 164 C 14.9901 4.8829 3.16146 0
M  V30 165 N 13.9661 4.21117 3.43746 0
M  V30 166 H 17.7681 2.53343 1.48978 0
M  V30 167 H 15.2821 1.44821 0.734885 0
M  V30 168 H 17.2791 1.69695 3.80801 0
M  V30 169 H 15.9391 0.709264 3.16859 0
M  V30 170 H 16.9501 4.38357 2.75796 0
M  V30 171 H 13.6271 1.97301 3.67938 0
M  V30 172 H 15.0171 5.97028 3.08232 0
M  V30 173 N 17.7372 -0.778329 1.37039 0
M  V30 174 C 18.9862 -1.53189 1.3121 0
M  V30 175 C 19.2992 -1.95328 -0.103095 0
M  V30 176 O 20.5052 -2.70012 -0.283826 0
M  V30 177 C 18.9612 -2.76591 2.30272 0
M  V30 178 C 18.5692 -2.41577 3.77286 0
M  V30 179 C 20.3132 -3.5455 2.33441 0
M  V30 180 C 18.2202 -3.61441 4.68096 0
M  V30 181 H 17.1502 -0.5751 0.487622 0
M  V30 182 H 19.8012 -0.853101 1.62464 0
M  V30 183 H 18.1832 -3.46326 1.92027 0
M  V30 184 H 19.3572 -1.79668 4.2433 0
M  V30 185 H 17.6722 -1.76806 3.76999 0
M  V30 186 H 20.2692 -4.43628 2.98493 0
M  V30 187 H 20.6122 -3.93936 1.34611 0
M  V30 188 H 21.1452 -2.91805 2.7036 0
M  V30 189 H 17.8842 -3.27142 5.6803 0
M  V30 190 H 17.4042 -4.22478 4.25761 0
M  V30 191 H 19.0832 -4.28335 4.8491 0
M  V30 192 N 19.2153 -1.21501 -1.00376 0
M  V30 193 C 20.4433 -1.059 -1.77744 0
M  V30 194 C 20.8583 0.391125 -1.84704 0
M  V30 195 O 20.2153 1.27133 -1.30933 0
M  V30 196 C 20.2663 -1.65111 -3.21591 0
M  V30 197 O 19.9873 -3.0445 -3.15027 0
M  V30 198 C 21.4883 -1.54637 -4.15454 0
M  V30 199 H 18.7083 -0.371825 -0.558558 0
M  V30 200 H 21.2523 -1.60865 -1.26264 0
M  V30 201 H 19.4073 -1.14235 -3.70175 0
M  V30 202 H 19.8213 -3.3278 -4.0541 0
M  V30 203 H 21.2953 -2.00808 -5.14179 0
M  V30 204 H 21.7723 -0.501022 -4.36333 0
M  V30 205 H 22.3783 -2.04767 -3.72761 0
M  V30 206 N 20.6934 1.19889 -1.02296 0
M  V30 207 C 21.9424 1.88743 -0.711257 0
M  V30 208 C 22.2554 1.80112 0.762817 0
M  V30 209 O 23.4614 2.44161 1.18733 0
M  V30 210 C 21.9174 3.38525 -1.22185 0
M  V30 211 C 21.5254 3.55727 -2.72328 0
M  V30 212 C 23.2694 4.12893 -0.985864 0
M  V30 213 C 21.1764 4.99369 -3.16835 0
M  V30 214 H 20.1064 0.706885 -0.262353 0
M  V30 215 H 22.7574 1.35586 -1.23648 0
M  V30 216 H 21.1394 3.91044 -0.624571 0
M  V30 217 H 22.3134 3.13564 -3.3766 0
M  V30 218 H 20.6284 2.94739 -2.9414 0
M  V30 219 H 23.2254 5.18813 -1.29374 0
M  V30 220 H 23.5684 4.16228 0.0775055 0
M  V30 221 H 24.1014 3.66494 -1.54684 0
M  V30 222 H 20.8404 5.01193 -4.22476 0
M  V30 223 H 20.3604 5.42317 -2.56228 0
M  V30 224 H 22.0394 5.67988 -3.09837 0
M  V30 225 N 22.1715 0.800033 1.35784 0
M  V30 226 C 23.4185 0.377342 1.98953 0
M  V30 227 C 23.7465 -1.05378 1.6348 0
M  V30 228 O 23.0015 -1.74459 0.886707 0
M  V30 229 C 23.3005 0.500276 3.53881 0
M  V30 230 C 22.9665 1.89375 4.09204 0
M  V30 231 C 21.6285 2.27499 4.24025 0
M  V30 232 C 23.9805 2.8057 4.39238 0
M  V30 233 C 21.3085 3.562 4.66195 0
M  V30 234 C 23.6605 4.0871 4.82844 0
M  V30 235 C 22.3245 4.46843 4.95871 0
M  V30 236 H 21.5945 0.138079 0.728021 0
M  V30 237 H 24.2415 1.01955 1.62103 0
M  V30 238 H 22.5465 -0.225405 3.91151 0
M  V30 239 H 24.2435 0.154097 4.00704 0
M  V30 240 H 20.8335 1.58753 3.98115 0
M  V30 241 H 25.0175 2.52367 4.27346 0
M  V30 242 H 20.2735 3.85602 4.74469 0
M  V30 243 H 24.4475 4.79481 5.05046 0
M  V30 244 H 22.0745 5.46623 5.28306 0
M  V30 245 N 23.6496 -1.47581 0.552962 0
M  V30 246 C 24.8746 -2.07378 0.0300593 0
M  V30 247 C 25.2996 -1.40355 -1.25229 0
M  V30 248 O 24.6576 -0.477099 -1.7491 0
M  V30 249 C 24.7056 -3.60274 -0.153231 0
M  V30 250 O 23.8096 -3.94041 -1.21678 0
M  V30 251 H 23.1506 -0.662158 0.0494182 0
M  V30 252 H 25.6806 -1.89662 0.767434 0
M  V30 253 H 25.6906 -4.0633 -0.368761 0
M  V30 254 H 24.3656 -4.08455 0.783397 0
M  V30 255 H 22.9426 -3.59735 -0.982079 0
M  V30 256 N 25.1277 -0.289203 -1.54924 0
M  V30 257 C 26.5387 0.205791 -1.85562 0
M  V30 258 C 26.8897 1.54351 -1.2112 0
M  V30 259 O 26.0147 2.10435 -0.504601 0
M  V30 260 C 26.6097 0.380177 -3.3666 0
M  V30 261 C 25.1687 0.819395 -3.67373 0
M  V30 262 C 24.3157 -0.079159 -2.77187 0
M  V30 263 H 27.2667 -0.510577 -1.50262 0
M  V30 264 H 27.2877 1.21659 -3.60526 0
M  V30 265 H 26.7997 -0.593589 -3.83534 0
M  V30 266 H 24.9007 1.80413 -3.26009 0
M  V30 267 H 25.0137 0.646957 -4.74712 0
M  V30 268 H 23.3777 0.439565 -2.50878 0
M  V30 269 H 24.1607 -1.04906 -3.26878 0
M  V30 270 N 26.6058 1.57591 -0.0167156 0
M  V30 271 C 27.5158 2.1291 0.98521 0
M  V30 272 C 28.5318 1.07834 1.36557 0
M  V30 273 O 29.7078 1.39826 1.44951 0
M  V30 274 C 26.7728 2.63512 2.25305 0
M  V30 275 C 25.8338 3.83256 1.93426 0
M  V30 276 C 25.0668 4.31435 3.14165 0
M  V30 277 O 25.2898 3.78851 4.26413 0
M  V30 278 O 24.2238 5.23416 2.97186 0
M  V30 279 H 28.0498 2.98772 0.544888 0
M  V30 280 H 25.6348 1.48012 0.203141 0
M  V30 281 H 27.5168 2.96183 2.99756 0
M  V30 282 H 26.1918 1.8074 2.68542 0
M  V30 283 H 25.0988 3.55531 1.16398 0
M  V30 284 H 26.4318 4.67153 1.55013 0
M  V30 285 N 28.0839 -0.256276 1.55502 0
M  V30 286 C 29.3319 -0.983672 1.76545 0
M  V30 287 C 29.6529 -1.86206 0.578982 0
M  V30 288 O 28.9229 -1.91656 -0.405577 0
M  V30 289 H 27.5029 -0.366191 0.651086 0
M  V30 290 H 30.1649 -0.276479 1.92929 0
M  V30 291 H 29.2609 -1.61087 2.67315 0
M  V30 292 N 29.562 -1.4872 -0.521534 0
M  V30 293 C 30.978 -1.35028 -0.850855 0
M  V30 294 C 31.178 -0.367712 -1.98116 0
M  V30 295 O 30.234 0.208037 -2.51642 0
M  V30 296 C 31.547 -2.75263 -1.21041 0
M  V30 297 C 33.095 -2.83813 -1.31981 0
M  V30 298 C 33.57 -4.24769 -1.71276 0
M  V30 299 N 35.061 -4.27482 -1.78363 0
M  V30 300 C 35.796 -5.33494 -2.1017 0
M  V30 301 N 35.292 -6.49775 -2.40343 0
M  V30 302 N 37.085 -5.20894 -2.11248 0
M  V30 303 H 29.236 -2.11214 0.22413 0
M  V30 304 H 31.499 -0.947252 0.0376439 0
M  V30 305 H 31.205 -3.48765 -0.453415 0
M  V30 306 H 31.079 -3.09327 -2.15863 0
M  V30 307 H 33.466 -2.10561 -2.06756 0
M  V30 308 H 33.547 -2.53358 -0.352596 0
M  V30 309 H 33.191 -4.9854 -0.970588 0
M  V30 310 H 33.121 -4.52673 -2.69062 0
M  V30 311 H 35.612 -3.43611 -1.57288 0
M  V30 312 H 35.925 -7.26402 -2.63743 0
M  V30 313 H 34.27 -6.53035 -2.37844 0
M  V30 314 H 37.461 -4.29065 -1.87139 0
M  V30 315 H 37.634 -6.03612 -2.35704 0
M  V30 316 N 31.0401 0.771051 -1.3745 0
M  V30 317 C 31.9701 1.89827 -1.3597 0
M  V30 318 C 32.9511 1.68562 -0.228216 0
M  V30 319 O 34.1361 1.8941 -0.428675 0
M  V30 320 C 31.2661 3.2712 -1.16662 0
M  V30 321 C 30.2201 3.6295 -2.2683 0
M  V30 322 C 29.5461 4.98791 -1.92644 0
M  V30 323 C 30.8461 3.69627 -3.69017 0
M  V30 324 H 32.5401 1.91323 -2.30295 0
M  V30 325 H 30.0861 0.919082 -1.10855 0
M  V30 326 H 32.0391 4.05615 -1.14256 0
M  V30 327 H 30.7631 3.26059 -0.187926 0
M  V30 328 H 29.4221 2.86763 -2.28392 0
M  V30 329 H 29.0701 4.94271 -0.933021 0
M  V30 330 H 28.7701 5.23733 -2.66416 0
M  V30 331 H 30.2941 5.79685 -1.91826 0
M  V30 332 H 31.7081 4.38273 -3.69581 0
M  V30 333 H 30.1051 4.06067 -4.41848 0
M  V30 334 H 31.1751 2.70273 -4.02592 0
M  V30 335 N 32.5182 1.22032 0.997298 0
M  V30 336 C 33.7482 1.06686 1.76923 0
M  V30 337 C 34.1562 -0.385838 1.85224 0
M  V30 338 O 33.4992 -1.27929 1.31833 0
M  V30 339 C 33.5612 1.59802 3.22031 0
M  V30 340 C 33.2252 3.08362 3.37286 0
M  V30 341 C 34.2222 4.05835 3.24952 0
M  V30 342 C 31.9072 3.47727 3.6248 0
M  V30 343 C 33.9012 5.4066 3.37588 0
M  V30 344 C 31.5882 4.82701 3.74757 0
M  V30 345 C 32.5862 5.78977 3.62319 0
M  V30 346 O 32.2742 7.11502 3.74193 0
M  V30 347 H 32.0062 0.374767 0.562606 0
M  V30 348 H 34.5602 1.61991 1.26286 0
M  V30 349 H 32.7902 0.989003 3.73839 0
M  V30 350 H 34.4792 1.40184 3.80924 0
M  V30 351 H 35.2452 3.76766 3.05405 0
M  V30 352 H 31.1242 2.73317 3.7124 0
M  V30 353 H 34.6682 6.15788 3.27796 0
M  V30 354 H 30.5652 5.11453 3.9381 0
M  V30 355 H 31.3332 7.19019 3.91093 0
M  V30 356 N 33.9963 -1.19345 1.0293 0
M  V30 357 C 34.9283 -2.22036 0.56857 0
M  V30 358 C 35.9413 -1.58865 -0.355779 0
M  V30 359 O 37.1303 -1.77851 -0.152103 0
M  V30 360 C 34.2303 -3.38363 -0.190752 0
M  V30 361 C 33.4033 -4.31118 0.738643 0
M  V30 362 C 32.4623 -5.26194 0.0246497 0
M  V30 363 O 31.4883 -5.65461 0.651354 0
M  V30 364 N 32.6903 -5.66971 -1.24594 0
M  V30 365 H 35.4553 -2.6219 1.45177 0
M  V30 366 H 33.0163 -1.34015 0.908381 0
M  V30 367 H 35.0083 -3.98981 -0.677961 0
M  V30 368 H 33.5783 -2.96994 -0.975366 0
M  V30 369 H 32.7983 -3.68276 1.40593 0
M  V30 370 H 34.0863 -4.90001 1.37029 0
M  V30 371 H 33.4843 -5.37104 -1.77583 0
M  V30 372 H 32.0413 -6.2984 -1.67764 0
M  V30 373 N 35.4744 -0.807222 -1.35358 0
M  V30 374 C 36.7204 -0.388463 -1.99045 0
M  V30 375 C 37.0534 1.04184 -1.63888 0
M  V30 376 O 36.3284 1.72292 -0.902535 0
M  V30 377 C 36.6114 -0.572783 -3.55515 0
M  V30 378 C 36.4644 -2.04807 -4.00468 0
M  V30 379 C 37.7834 0.00114064 -4.401 0
M  V30 380 H 34.9024 -0.142619 -0.723069 0
M  V30 381 H 37.5444 -1.01687 -1.60498 0
M  V30 382 H 35.6944 -0.0378425 -3.88482 0
M  V30 383 H 37.3664 -2.64544 -3.77908 0
M  V30 384 H 35.6094 -2.54427 -3.51353 0
M  V30 385 H 36.2804 -2.12792 -5.09337 0
M  V30 386 H 38.7564 -0.455716 -4.13597 0
M  V30 387 H 37.6324 -0.157737 -5.48673 0
M  V30 388 H 37.8934 1.09488 -4.28328 0
M  V30 389 N 36.9525 1.47285 -0.560781 0
M  V30 390 C 37.8625 2.33846 0.187954 0
M  V30 391 C 38.8785 1.48412 0.908293 0
M  V30 392 O 40.0545 1.81332 0.876388 0
M  V30 393 C 37.1195 3.25178 1.2025 0
M  V30 394 C 36.1805 4.26504 0.489208 0
M  V30 395 C 35.4135 5.13472 1.45542 0
M  V30 396 O 35.6365 5.02959 2.6905 0
M  V30 397 O 34.5705 5.93902 0.977963 0
M  V30 398 H 38.3965 2.99177 -0.522177 0
M  V30 399 H 35.9815 1.45903 -0.321364 0
M  V30 400 H 37.8635 3.81584 1.78805 0
M  V30 401 H 36.5385 2.6247 1.89449 0
M  V30 402 H 35.4455 3.73847 -0.137627 0
M  V30 403 H 36.7785 4.91935 -0.161399 0
M  V30 404 N 38.4306 0.297415 1.54768 0
M  V30 405 C 39.6606 -0.315165 2.04182 0
M  V30 406 C 40.0686 -1.4834 1.17439 0
M  V30 407 O 39.4116 -1.82695 0.191891 0
M  V30 408 C 39.4736 -0.837583 3.49607 0
M  V30 409 C 39.1376 0.204912 4.5654 0
M  V30 410 C 40.1346 1.03214 5.09552 0
M  V30 411 C 37.8196 0.345578 5.0111 0
M  V30 412 C 39.8136 1.986 6.05671 0
M  V30 413 C 37.5006 1.30289 5.97049 0
M  V30 414 C 38.4986 2.12159 6.49213 0
M  V30 415 O 38.1866 3.06268 7.43273 0
M  V30 416 H 37.9186 -0.0729646 0.672051 0
M  V30 417 H 40.4726 0.433907 2.00765 0
M  V30 418 H 38.7026 -1.63712 3.50336 0
M  V30 419 H 40.3916 -1.36566 3.82236 0
M  V30 420 H 41.1576 0.934312 4.75916 0
M  V30 421 H 37.0366 -0.28171 4.60138 0
M  V30 422 H 40.5806 2.62542 6.46311 0
M  V30 423 H 36.4776 1.40145 6.30103 0
M  V30 424 H 37.2456 3.01205 7.61064 0
M  V30 425 N 39.9087 -1.5758 0.0250728 0
M  V30 426 C 40.8717 -2.08896 -0.943139 0
M  V30 427 C 41.8717 -1.00321 -1.25668 0
M  V30 428 O 43.0617 -1.26495 -1.19769 0
M  V30 429 C 40.1937 -2.55143 -2.26086 0
M  V30 430 H 41.3867 -2.95723 -0.498775 0
M  V30 431 H 38.9397 -1.54703 -0.222888 0
M  V30 432 H 39.6747 -1.71633 -2.75159 0
M  V30 433 H 39.4597 -3.34461 -2.04641 0
M  V30 434 H 40.9497 -2.95083 -2.95492 0
M  V30 435 N 41.3868 0.248026 -1.55636 0
M  V30 436 C 42.6338 0.976224 -1.77415 0
M  V30 437 C 42.9618 1.85361 -0.589193 0
M  V30 438 O 42.2168 1.90973 0.427529 0
M  V30 439 C 42.5158 1.86819 -3.04686 0
M  V30 440 C 42.1818 1.14625 -4.36087 0
M  V30 441 C 40.8438 0.946723 -4.71795 0
M  V30 442 C 43.1958 0.634463 -5.17324 0
M  V30 443 C 40.5238 0.223091 -5.86276 0
M  V30 444 C 42.8758 -0.0756959 -6.32555 0
M  V30 445 C 41.5398 -0.286711 -6.66884 0
M  V30 446 H 40.8098 0.357226 -0.649208 0
M  V30 447 H 43.4568 0.246415 -1.89908 0
M  V30 448 H 41.7618 2.66502 -2.872 0
M  V30 449 H 43.4588 2.43329 -3.18735 0
M  V30 450 H 40.0488 1.3117 -4.08035 0
M  V30 451 H 44.2328 0.77616 -4.90193 0
M  V30 452 H 39.4888 0.0491185 -6.1138 0
M  V30 453 H 43.6628 -0.479899 -6.94745 0
M  V30 454 H 41.2898 -0.849389 -7.5544 0
M  V30 455 N 42.8649 1.48995 0.513639 0
M  V30 456 C 43.8119 1.6473 1.61656 0
M  V30 457 C 44.7819 0.488984 1.58739 0
M  V30 458 O 45.9669 0.714478 1.76918 0
M  V30 459 C 43.1069 1.7082 2.99858 0
M  V30 460 C 42.2199 2.9787 3.12885 0
M  V30 461 C 41.3549 2.95017 4.41744 0
M  V30 462 C 40.3939 4.16702 4.48359 0
M  V30 463 N 39.5309 4.11832 5.68629 0
M  V30 464 H 44.3709 2.58909 1.47547 0
M  V30 465 H 41.9079 1.28382 0.71808 0
M  V30 466 H 43.8659 1.72331 3.79944 0
M  V30 467 H 42.4959 0.801181 3.12699 0
M  V30 468 H 41.5479 3.06029 2.25944 0
M  V30 469 H 42.8599 3.8786 3.13633 0
M  V30 470 H 42.0139 2.95021 5.30139 0
M  V30 471 H 40.7529 2.02784 4.43542 0
M  V30 472 H 39.7579 4.16955 3.58369 0
M  V30 473 H 40.9829 5.10113 4.48287 0
M  V30 474 H 38.9289 3.22428 5.71293 0
M  V30 475 H 38.8459 4.95543 5.7094 0
M  V30 476 H 40.1139 4.1592 6.59266 0
M  V30 477 N 44.343 -0.763751 1.37857 0
M  V30 478 C 45.306 -1.85889 1.34081 0
M  V30 479 C 46.306 -1.58949 0.243277 0
M  V30 480 O 47.496 -1.66882 0.499589 0
M  V30 481 C 44.628 -3.23176 1.08489 0
M  V30 482 H 45.821 -1.90648 2.31502 0
M  V30 483 H 43.374 -0.964367 1.23003 0
M  V30 484 H 44.109 -3.24091 0.116318 0
M  V30 485 H 43.894 -3.44124 1.8794 0
M  V30 486 H 45.384 -4.03254 1.08517 0
M  V30 487 N 45.8211 -1.22559 -0.990812 0
M  V30 488 C 47.0701 -1.04553 -1.72486 0
M  V30 489 C 47.3831 0.419349 -1.91052 0
M  V30 490 O 48.5891 0.719121 -2.61803 0
M  V30 491 C 47.0451 -1.82231 -3.10355 0
M  V30 492 C 46.6531 -3.32981 -2.99713 0
M  V30 493 C 48.3971 -1.7268 -3.87791 0
M  V30 494 C 46.3041 -4.03091 -4.32748 0
M  V30 495 H 45.2341 -0.387614 -0.646739 0
M  V30 496 H 47.8851 -1.46429 -1.10593 0
M  V30 497 H 46.2671 -1.33155 -3.72942 0
M  V30 498 H 47.4411 -3.89466 -2.46278 0
M  V30 499 H 45.7561 -3.43231 -2.35758 0
M  V30 500 H 48.3531 -2.22381 -4.86262 0
M  V30 501 H 48.6961 -0.687607 -4.10582 0
M  V30 502 H 49.2291 -2.1931 -3.31885 0
M  V30 503 H 45.9681 -5.07273 -4.15156 0
M  V30 504 H 45.4881 -3.51394 -4.86089 0
M  V30 505 H 47.1671 -4.08804 -5.01486 0
M  V30 506 N 47.2992 1.18797 -1.03562 0
M  V30 507 C 48.2472 2.24297 -0.615905 0
M  V30 508 C 49.2412 1.65643 0.354808 0
M  V30 509 O 50.4472 1.78618 0.22265 0
M  V30 510 H 46.8222 0.729909 -0.180934 0
M  V30 511 H 48.7932 2.5701 -1.5162 0
M  V30 512 C 47.5422 3.47698 0.0104735 0
M  V30 513 H 46.8652 3.93125 -0.727509 0
M  V30 514 H 48.3052 4.23159 0.266995 0
M  V30 515 C 46.7642 3.12489 1.25905 0
M  V30 516 O 47.2942 3.25761 2.35038 0
M  V30 517 N 45.5002 2.6686 1.15039 0
M  V30 518 H 45.0472 2.56261 0.262328 0
M  V30 519 H 45.0052 2.43674 1.98672 0
M  V30 520 N 48.7773 0.814389 1.34928 0
M  V30 521 C 49.7093 0.187834 2.28429 0
M  V30 522 C 50.7223 -0.617374 1.5064 0
M  V30 523 O 51.9113 -0.448454 1.72775 0
M  V30 524 C 49.0113 -0.755962 3.30361 0
M  V30 525 C 48.1843 0.00456686 4.374 0
M  V30 526 C 47.2433 -0.858876 5.19143 0
M  V30 527 O 46.2693 -0.306968 5.68372 0
M  V30 528 N 47.4713 -2.17988 5.38016 0
M  V30 529 H 50.2363 0.991105 2.82838 0
M  V30 530 H 47.7973 0.670561 1.4736 0
M  V30 531 H 49.7893 -1.338 3.81942 0
M  V30 532 H 48.3593 -1.46001 2.7641 0
M  V30 533 H 47.5793 0.767865 3.86649 0
M  V30 534 H 48.8673 0.528422 5.06049 0
M  V30 535 H 48.2653 -2.65212 4.99679 0
M  V30 536 H 46.8223 -2.71098 5.92747 0
M  V30 537 N 50.2554 -1.46986 0.568584 0
M  V30 538 C 51.5034 -2.02041 0.0487022 0
M  V30 539 C 51.8244 -1.44408 -1.31039 0
M  V30 540 O 51.0944 -0.623477 -1.85714 0
M  V30 541 H 49.6744 -0.746849 0.015014 0
M  V30 542 H 52.3364 -1.80257 0.741168 0
M  V30 543 H 51.4324 -3.12085 -0.0308961 0
M  V30 544 N 51.7335 -0.305618 -1.54608 0
M  V30 545 C 52.9815 0.301701 -1.99835 0
M  V30 546 C 53.3025 1.54054 -1.19551 0
M  V30 547 O 52.5725 1.93702 -0.292658 0
M  V30 548 H 51.1525 0.114468 -0.738178 0
M  V30 549 H 53.8145 -0.418016 -1.90364 0
M  V30 550 H 52.9105 0.570548 -3.06841 0
M  V30 551 N 53.2116 1.57565 -0.0334293 0
M  V30 552 C 54.1416 2.13511 0.945265 0
M  V30 553 C 55.1226 1.05231 1.33643 0
M  V30 554 O 56.3076 1.33084 1.41429 0
M  V30 555 C 53.4376 2.6657 2.22616 0
M  V30 556 C 52.3916 3.79676 1.97561 0
M  V30 557 C 51.7176 4.1918 3.31952 0
M  V30 558 C 53.0176 5.0557 1.31135 0
M  V30 559 H 54.7116 2.95538 0.479325 0
M  V30 560 H 52.2576 1.42166 0.229115 0
M  V30 561 H 54.2106 3.04344 2.91466 0
M  V30 562 H 52.9346 1.8171 2.71384 0
M  V30 563 H 51.5936 3.42347 1.31127 0
M  V30 564 H 51.2416 3.31296 3.78487 0
M  V30 565 H 50.9416 4.95402 3.15992 0
M  V30 566 H 52.4656 4.59541 4.02063 0
M  V30 567 H 53.8796 5.40903 1.89992 0
M  V30 568 H 52.2766 5.86818 1.25559 0
M  V30 569 H 53.3466 4.84062 0.284894 0
M  V30 570 N 54.6897 -0.239769 1.55765 0
M  V30 571 C 55.9177 -0.98417 1.81994 0
M  V30 572 C 56.3327 -1.7867 0.610124 0
M  V30 573 O 55.6897 -1.77571 -0.421271 0
M  V30 574 C 55.7407 -1.91635 3.06526 0
M  V30 575 O 55.4617 -1.14629 4.22838 0
M  V30 576 C 56.9627 -2.77616 3.45607 0
M  V30 577 H 54.1827 -0.28928 0.605441 0
M  V30 578 H 56.7267 -0.260499 2.02834 0
M  V30 579 H 54.8817 -2.5942 2.87715 0
M  V30 580 H 55.2957 -1.77745 4.93464 0
M  V30 581 H 56.7697 -3.38759 4.35828 0
M  V30 582 H 57.2467 -3.4909 2.6652 0
M  V30 583 H 57.8527 -2.15271 3.66795 0
M  V30 584 N 56.1678 -1.49265 -0.50573 0
M  V30 585 C 57.3928 -1.62478 -1.28902 0
M  V30 586 C 57.8178 -0.294332 -1.85783 0
M  V30 587 O 57.1758 0.737412 -1.65626 0
M  V30 588 C 57.2238 -2.69268 -2.39848 0
M  V30 589 O 56.3278 -2.28113 -3.43567 0
M  V30 590 H 55.6688 -0.54399 -0.380751 0
M  V30 591 H 58.1988 -1.95421 -0.605952 0
M  V30 592 H 58.2088 -2.91291 -2.85681 0
M  V30 593 H 56.8838 -3.65846 -1.97812 0
M  V30 594 H 55.4608 -2.16401 -3.03685 0
M  V30 595 N 57.6459 0.756429 -1.3826 0
M  V30 596 C 58.8919 1.51772 -1.34511 0
M  V30 597 C 59.2249 1.94089 0.0656691 0
M  V30 598 O 58.4999 1.65221 1.02626 0
M  V30 599 C 58.7829 2.77226 -2.29821 0
M  V30 600 C 58.6359 2.41065 -3.79747 0
M  V30 601 C 59.9549 3.79236 -2.23312 0
M  V30 602 H 57.0739 0.550578 -0.489931 0
M  V30 603 H 59.7159 0.866607 -1.69086 0
M  V30 604 H 57.8659 3.32784 -2.00467 0
M  V30 605 H 59.5379 1.91303 -4.19763 0
M  V30 606 H 57.7809 1.7356 -3.97567 0
M  V30 607 H 58.4519 3.3081 -4.41892 0
M  V30 608 H 60.9279 3.3321 -2.49219 0
M  V30 609 H 59.8039 4.64714 -2.92116 0
M  V30 610 H 60.0649 4.24615 -1.23102 0
M  V30 611 N 59.124 1.23083 0.984299 0
M  V30 612 C 60.087 1.00979 2.05757 0
M  V30 613 C 61.087 -0.0269573 1.60777 0
M  V30 614 O 62.277 0.212403 1.729 0
M  V30 615 C 59.409 0.527072 3.36801 0
M  V30 616 H 60.602 1.9622 2.26799 0
M  V30 617 H 58.155 1.05072 1.15714 0
M  V30 618 H 58.89 -0.429294 3.21446 0
M  V30 619 H 58.675 1.27515 3.70786 0
M  V30 620 H 60.165 0.392942 4.15747 0
M  V30 621 N 60.6021 -1.18246 1.0419 0
M  V30 622 C 61.8481 -1.88536 0.747122 0
M  V30 623 C 62.1811 -1.80223 -0.723409 0
M  V30 624 O 61.4561 -1.20337 -1.52804 0
M  V30 625 C 61.7391 -3.38968 1.21544 0
M  V30 626 C 61.5921 -3.56084 2.74816 0
M  V30 627 C 62.9111 -4.32648 0.806482 0
M  V30 628 H 60.0301 -0.684619 0.272883 0
M  V30 629 H 62.6721 -1.39113 1.29413 0
M  V30 630 H 60.8221 -3.8119 0.750081 0
M  V30 631 H 62.4941 -3.22946 3.29399 0
M  V30 632 H 60.7371 -2.98699 3.14582 0
M  V30 633 H 61.4081 -4.61639 3.02644 0
M  V30 634 H 63.8841 -3.98211 1.20695 0
M  V30 635 H 62.7601 -5.36462 1.1619 0
M  V30 636 H 63.0211 -4.41146 -0.29029 0
M  V30 637 N 62.0802 -0.821533 -1.34494 0
M  V30 638 C 63.4962 -0.507117 -1.51329 0
M  V30 639 C 63.6962 0.968964 -1.76673 0
M  V30 640 O 62.7522 1.75348 -1.81685 0
M  V30 641 C 64.0652 -1.36544 -2.67911 0
M  V30 642 C 65.6132 -1.36242 -2.81793 0
M  V30 643 C 66.0882 -2.2052 -4.01416 0
M  V30 644 N 67.5792 -2.18136 -4.08621 0
M  V30 645 C 68.3142 -2.80095 -5.00334 0
M  V30 646 N 67.8102 -3.51039 -5.9728 0
M  V30 647 N 69.6032 -2.69656 -4.93196 0
M  V30 648 H 61.7542 -1.77729 -1.16302 0
M  V30 649 H 64.0172 -0.757291 -0.570276 0
M  V30 650 H 63.7232 -2.41361 -2.55808 0
M  V30 651 H 63.5972 -1.02917 -3.62888 0
M  V30 652 H 65.9842 -0.322041 -2.93338 0
M  V30 653 H 66.0652 -1.73866 -1.87628 0
M  V30 654 H 65.7092 -3.24607 -3.90631 0
M  V30 655 H 65.6392 -1.80247 -4.94791 0
M  V30 656 H 68.1302 -1.6653 -3.39229 0
M  V30 657 H 68.4432 -3.95565 -6.63889 0
M  V30 658 H 66.7882 -3.55145 -5.97409 0
M  V30 659 H 69.9792 -2.13808 -4.16418 0
M  V30 660 H 70.1522 -3.1823 -5.64476 0
M  V30 661 N 63.5583 1.46682 -0.576371 0
M  V30 662 C 64.8063 2.02013 -0.0594163 0
M  V30 663 C 65.1273 1.45101 1.30271 0
M  V30 664 O 64.3973 0.633317 1.8538 0
M  V30 665 H 62.9773 0.746759 -0.0189745 0
M  V30 666 H 65.6393 1.79862 -0.750717 0
M  V30 667 H 64.7353 3.12097 0.014345 0
M  V30 668 N 65.0364 0.313813 1.54444 0
M  V30 669 C 65.9834 -0.55655 2.23989 0
M  V30 670 C 66.9534 -1.11943 1.22711 0
M  V30 671 O 68.1384 -1.16158 1.51367 0
M  V30 672 C 65.2784 -1.71635 2.99392 0
M  V30 673 C 64.3914 -1.18364 4.15468 0
M  V30 674 C 63.5264 -2.30834 4.78424 0
M  V30 675 C 62.5654 -1.74762 5.86622 0
M  V30 676 N 61.7024 -2.80855 6.43479 0
M  V30 677 H 66.5424 0.0430893 2.97969 0
M  V30 678 H 64.0794 0.0330359 1.47063 0
M  V30 679 H 66.0374 -2.39868 3.41349 0
M  V30 680 H 64.6674 -2.28742 2.27765 0
M  V30 681 H 63.7194 -0.393163 3.78363 0
M  V30 682 H 65.0314 -0.733262 4.93381 0
M  V30 683 H 64.1854 -3.0699 5.23299 0
M  V30 684 H 62.9244 -2.79204 3.99871 0
M  V30 685 H 61.9294 -0.970995 5.41158 0
M  V30 686 H 63.1544 -1.2728 6.67066 0
M  V30 687 H 61.1004 -3.28535 5.67804 0
M  V30 688 H 61.0174 -2.40351 7.16776 0
M  V30 689 H 62.2854 -3.5687 6.93011 0
M  V30 690 N 66.5145 -1.57545 0.0417849 0
M  V30 691 C 67.7915 -1.83642 -0.673433 0
M  V30 692 C 68.1715 -0.928298 -1.89594 0
M  V30 693 O 67.5195 0.0129955 -2.28496 0
M  V30 694 C 67.7295 -3.33155 -1.03964 0
M  V30 695 C 69.0775 -3.99941 -1.42592 0
M  V30 696 O 70.1015 -3.37725 -1.13226 0
M  V30 697 O 68.9605 -5.09619 -1.9736 0
M  V30 698 H 66.0545 -0.757638 -0.331533 0
M  V30 699 H 68.6005 -1.69554 0.070433 0
M  V30 700 H 67.3725 -3.9093 -0.170098 0
M  V30 701 H 66.9955 -3.52396 -1.84126 0
M  V30 702 N 67.9926 0.231505 -1.5589 0
M  V30 703 C 69.2326 0.964533 -1.80211 0
M  V30 704 C 69.5966 1.81926 -0.613744 0
M  V30 705 O 70.7976 2.58526 -0.736045 0
M  V30 706 C 69.0686 1.78956 -3.09369 0
M  V30 707 S 70.6276 2.57959 -3.54969 0
M  V30 708 H 67.4456 0.324173 -0.632798 0
M  V30 709 H 70.0476 0.230985 -1.94131 0
M  V30 710 H 68.7516 1.15161 -3.93911 0
M  V30 711 H 68.2826 2.56559 -2.9823 0
M  V30 712 H 70.2976 3.81309 -3.17519 0
M  V30 713 N 69.4707 1.49531 0.497807 0
M  V30 714 C 70.4337 1.65916 1.58128 0
M  V30 715 C 71.4337 0.530825 1.51786 0
M  V30 716 O 72.6237 0.797342 1.54881 0
M  V30 717 C 69.7557 1.65951 2.9778 0
M  V30 718 H 70.9487 2.62556 1.44929 0
M  V30 719 H 68.5017 1.38611 0.722275 0
M  V30 720 H 69.2367 0.709065 3.16453 0
M  V30 721 H 69.0217 2.47897 3.03792 0
M  V30 722 H 70.5117 1.80673 3.76493 0
M  V30 723 N 70.9488 -0.749086 1.3866 0
M  V30 724 C 72.1948 -1.51056 1.35314 0
M  V30 725 C 72.5278 -1.94121 -0.0553751 0
M  V30 726 O 71.8028 -1.65763 -1.01749 0
M  V30 727 C 72.0858 -2.76003 2.31288 0
M  V30 728 C 71.9388 -2.39047 3.8102 0
M  V30 729 C 73.2578 -3.78046 2.2532 0
M  V30 730 H 70.3768 -0.547972 0.492844 0
M  V30 731 H 73.0188 -0.857628 1.69543 0
M  V30 732 H 71.1688 -3.31716 2.02229 0
M  V30 733 H 72.8408 -1.89074 4.20771 0
M  V30 734 H 71.0838 -1.71449 3.98482 0
M  V30 735 H 71.7548 -3.28462 4.4364 0
M  V30 736 H 74.2308 -3.31884 2.50983 0
M  V30 737 H 73.1068 -4.63159 2.94576 0
M  V30 738 H 73.3678 -4.23957 1.25352 0
M  V30 739 N 72.4269 -1.23603 -0.977757 0
M  V30 740 C 73.6759 -1.06377 -1.71368 0
M  V30 741 C 73.9889 0.399062 -1.91486 0
M  V30 742 O 75.1949 0.691312 -2.62551 0
M  V30 743 C 73.6509 -1.85512 -3.08404 0
M  V30 744 C 73.2589 -3.36141 -2.96164 0
M  V30 745 C 75.0029 -1.76783 -3.85938 0
M  V30 746 C 72.9099 -4.07659 -4.28449 0
M  V30 747 H 71.8399 -0.394452 -0.642591 0
M  V30 748 H 74.4909 -1.47594 -1.09034 0
M  V30 749 H 72.8729 -1.37103 -3.71509 0
M  V30 750 H 74.0469 -3.92056 -2.42133 0
M  V30 751 H 72.3619 -3.45712 -2.32104 0
M  V30 752 H 74.9589 -2.27526 -4.83876 0
M  V30 753 H 75.3019 -0.731116 -4.0983 0
M  V30 754 H 75.8349 -2.22818 -3.2954 0
M  V30 755 H 72.5739 -5.11648 -4.09752 0
M  V30 756 H 72.0939 -3.5653 -4.82334 0
M  V30 757 H 73.7729 -4.141 -4.97122 0
M  V30 758 N 73.905 1.17692 -1.04816 0
M  V30 759 C 75.151 1.88137 -0.75711 0
M  V30 760 C 75.484 1.80604 0.713841 0
M  V30 761 O 74.759 1.21146 1.52164 0
M  V30 762 C 75.042 3.38318 -1.2334 0
M  V30 763 C 74.895 3.54622 -2.76701 0
M  V30 764 C 76.214 4.32214 -0.829415 0
M  V30 765 H 73.333 0.683163 -0.27651 0
M  V30 766 H 75.975 1.38424 -1.30149 0
M  V30 767 H 74.125 3.80787 -0.770286 0
M  V30 768 H 75.797 3.21194 -3.31107 0
M  V30 769 H 74.04 2.97026 -3.16161 0
M  V30 770 H 74.711 4.60028 -3.05088 0
M  V30 771 H 77.187 3.97565 -1.22805 0
M  V30 772 H 76.063 5.35838 -1.19033 0
M  V30 773 H 76.324 4.41294 0.266891 0
M  V30 774 N 75.3831 0.828654 1.34056 0
M  V30 775 C 76.6111 0.43262 2.02326 0
M  V30 776 C 77.0261 -0.963147 1.62385 0
M  V30 777 O 76.3831 -1.62425 0.832121 0
M  V30 778 C 76.4341 0.53182 3.57567 0
M  V30 779 O 76.1551 1.87258 3.96063 0
M  V30 780 C 77.6561 0.131422 4.43105 0
M  V30 781 H 74.8761 0.172923 0.648335 0
M  V30 782 H 77.4201 1.1184 1.71208 0
M  V30 783 H 75.5751 -0.105938 3.87255 0
M  V30 784 H 75.9891 1.85087 4.90758 0
M  V30 785 H 77.4631 0.251904 5.51425 0
M  V30 786 H 77.9401 -0.925645 4.29335 0
M  V30 787 H 78.5461 0.743207 4.18756 0
M  V30 788 N 76.8612 -1.46375 0.584142 0
M  V30 789 C 77.7932 -2.28443 -0.186119 0
M  V30 790 C 78.8062 -1.38596 -0.854115 0
M  V30 791 O 79.9952 -1.63183 -0.723438 0
M  V30 792 C 77.0952 -3.13671 -1.28311 0
M  V30 793 C 76.2682 -4.31652 -0.706758 0
M  V30 794 C 75.3272 -4.98267 -1.69163 0
M  V30 795 O 74.3532 -5.55815 -1.22712 0
M  V30 796 N 75.5552 -4.95408 -3.02575 0
M  V30 797 H 78.3202 -2.9519 0.517986 0
M  V30 798 H 75.8812 -1.56303 0.42201 0
M  V30 799 H 77.8732 -3.55101 -1.94128 0
M  V30 800 H 76.4432 -2.48989 -1.89005 0
M  V30 801 H 75.6632 -3.93989 0.128908 0
M  V30 802 H 76.9512 -5.07906 -0.301506 0
M  V30 803 H 76.3492 -4.49902 -3.42936 0
M  V30 804 H 74.9062 -5.40774 -3.63877 0
M  V30 805 N 78.3393 -0.321999 -1.54275 0
M  V30 806 C 79.2863 0.544664 -2.24281 0
M  V30 807 C 80.2563 1.1129 -1.23303 0
M  V30 808 O 81.4413 1.15354 -1.51981 0
M  V30 809 C 78.5813 1.70045 -3.00298 0
M  V30 810 C 77.6943 1.16159 -4.1609 0
M  V30 811 C 76.8293 2.28293 -4.79641 0
M  V30 812 C 75.8683 1.71648 -5.8754 0
M  V30 813 N 75.0053 2.77438 -6.44959 0
M  V30 814 H 79.8453 -0.0588907 -2.97942 0
M  V30 815 H 77.3823 -0.0408345 -1.47043 0
M  V30 816 H 79.3403 2.38054 -3.42616 0
M  V30 817 H 77.9703 2.27531 -2.28975 0
M  V30 818 H 77.0223 0.373092 -3.78566 0
M  V30 819 H 78.3343 0.707087 -4.93763 0
M  V30 820 H 77.4883 3.0421 -5.2492 0
M  V30 821 H 76.2273 2.77079 -4.01346 0
M  V30 822 H 75.2323 0.942282 -5.41665 0
M  V30 823 H 76.4573 1.23741 -6.67731 0
M  V30 824 H 74.4033 3.25519 -5.69538 0
M  V30 825 H 74.3203 2.36547 -7.1804 0
M  V30 826 H 75.5883 3.53189 -6.94894 0
M  V30 827 N 79.8174 1.5752 -0.0501392 0
M  V30 828 C 80.7644 2.1147 0.924603 0
M  V30 829 C 81.7344 1.02182 1.30951 0
M  V30 830 O 82.9194 1.29723 1.39916 0
M  V30 831 C 80.0594 2.66337 2.19451 0
M  V30 832 C 79.1724 3.89708 1.86418 0
M  V30 833 C 78.3074 4.32893 3.07859 0
M  V30 834 C 77.3464 5.48967 2.70742 0
M  V30 835 N 76.4834 5.87211 3.84874 0
M  V30 836 H 81.3234 2.94465 0.457639 0
M  V30 837 H 78.8604 1.45531 0.214266 0
M  V30 838 H 80.8184 2.96247 2.93758 0
M  V30 839 H 79.4484 1.86141 2.63726 0
M  V30 840 H 78.5004 3.66396 1.02264 0
M  V30 841 H 79.8124 4.74074 1.55096 0
M  V30 842 H 78.9664 4.6435 3.90466 0
M  V30 843 H 77.7054 3.47336 3.42358 0
M  V30 844 H 76.7104 5.17183 1.86551 0
M  V30 845 H 77.9354 6.3624 2.37436 0
M  V30 846 H 75.8814 5.04607 4.19175 0
M  V30 847 H 75.7984 6.66266 3.57247 0
M  V30 848 H 77.0664 6.23282 4.68123 0
M  V30 849 N 81.2955 -0.223234 1.56011 0
M  V30 850 C 82.5415 -0.949279 1.79211 0
M  V30 851 C 82.8745 -1.84054 0.619494 0
M  V30 852 O 82.1495 -1.90726 -0.381317 0
M  V30 853 C 82.4325 -1.78965 3.12479 0
M  V30 854 C 82.2855 -0.924997 4.40186 0
M  V30 855 C 83.6045 -2.76774 3.42175 0
M  V30 856 H 80.7235 -0.343676 0.651963 0
M  V30 857 H 83.3655 -0.218253 1.88742 0
M  V30 858 H 81.5155 -2.41291 3.04485 0
M  V30 859 H 83.1875 -0.318615 4.60198 0
M  V30 860 H 81.4305 -0.230344 4.33188 0
M  V30 861 H 82.1015 -1.54735 5.29869 0
M  V30 862 H 84.5775 -2.24584 3.50287 0
M  V30 863 H 83.4535 -3.32678 4.36597 0
M  V30 864 H 83.7145 -3.54429 2.64258 0
M  V30 865 N 82.7736 -1.49793 -0.48987 0
M  V30 866 C 84.1846 -1.52914 -1.07118 0
M  V30 867 C 84.5356 -0.321738 -1.93544 0
M  V30 868 O 83.6606 0.567338 -2.08831 0
M  V30 869 C 84.2556 -2.771 -1.94938 0
M  V30 870 C 82.8146 -2.82963 -2.48212 0
M  V30 871 C 81.9616 -2.46972 -1.26096 0
M  V30 872 H 84.9126 -1.56329 -0.273289 0
M  V30 873 H 84.9336 -2.57892 -2.79771 0
M  V30 874 H 84.4456 -3.64959 -1.32009 0
M  V30 875 H 82.5466 -1.99411 -3.14748 0
M  V30 876 H 82.6596 -3.85406 -2.84603 0
M  V30 877 H 81.0236 -1.98994 -1.58976 0
M  V30 878 H 81.8066 -3.37118 -0.648581 0
M  V30 879 N 84.2517 0.741722 -1.39055 0
M  V30 880 C 85.5287 1.49252 -1.26425 0
M  V30 881 C 85.9087 2.10705 0.129144 0
M  V30 882 O 85.2567 1.98045 1.13976 0
M  V30 883 C 85.4667 2.54934 -2.38347 0
M  V30 884 C 86.8147 3.21506 -2.77343 0
M  V30 885 O 87.8387 2.65245 -2.37747 0
M  V30 886 O 86.6977 4.23294 -3.45665 0
M  V30 887 H 83.7917 0.662451 -0.495064 0
M  V30 888 H 86.3377 0.776121 -1.50912 0
M  V30 889 H 85.1097 2.07857 -3.31529 0
M  V30 890 H 84.7327 3.34141 -2.15489 0
M  V30 891 N 85.7298 1.2412 0.971189 0
M  V30 892 C 86.6768 1.0305 2.06517 0
M  V30 893 C 87.6468 -0.0550666 1.66009 0
M  V30 894 O 88.8318 0.0988688 1.90544 0
M  V30 895 C 85.9718 0.637653 3.39158 0
M  V30 896 C 85.0848 1.79633 3.92882 0
M  V30 897 C 84.2198 1.34939 5.13775 0
M  V30 898 C 83.2588 2.47823 5.59687 0
M  V30 899 N 82.3958 2.04022 6.71803 0
M  V30 900 H 87.2358 1.96685 2.23873 0
M  V30 901 H 84.7728 0.979694 1.09729 0
M  V30 902 H 86.7308 0.390931 4.15364 0
M  V30 903 H 85.3608 -0.261693 3.21737 0
M  V30 904 H 84.4128 2.15681 3.13346 0
M  V30 905 H 85.7248 2.64466 4.22918 0
M  V30 906 H 84.8788 1.06134 5.97345 0
M  V30 907 H 83.6178 0.471557 4.85415 0
M  V30 908 H 82.6228 2.77392 4.74693 0
M  V30 909 H 83.8478 3.36158 5.90063 0
M  V30 910 H 81.7938 1.18632 6.45184 0
M  V30 911 H 81.7108 2.82409 7.01271 0
M  V30 912 H 82.9788 1.78347 7.58823 0
M  V30 913 N 87.2079 -1.17134 1.05439 0
M  V30 914 C 88.1379 -2.2342 0.678649 0
M  V30 915 C 89.1189 -1.66971 -0.32476 0
M  V30 916 O 90.3039 -1.93149 -0.201802 0
M  V30 917 C 87.4339 -3.47256 0.0552099 0
M  V30 918 C 86.3879 -4.16543 0.98365 0
M  V30 919 C 85.7139 -5.34231 0.223961 0
M  V30 920 C 87.0139 -4.68495 2.3089 0
M  V30 921 H 88.7079 -2.55105 1.56722 0
M  V30 922 H 86.2539 -1.2262 0.754998 0
M  V30 923 H 88.2069 -4.20828 -0.21946 0
M  V30 924 H 86.9309 -3.14846 -0.868319 0
M  V30 925 H 85.5899 -3.44887 1.24293 0
M  V30 926 H 85.2379 -4.98071 -0.702412 0
M  V30 927 H 84.9379 -5.81527 0.842627 0
M  V30 928 H 86.4619 -6.10585 -0.0433671 0
M  V30 929 H 87.8759 -5.33691 2.09396 0
M  V30 930 H 86.2729 -5.26379 2.88176 0
M  V30 931 H 87.3429 -3.85169 2.94572 0
M  V30 932 N 88.686 -0.835752 -1.33615 0
M  V30 933 C 89.616 -0.281739 -2.31794 0
M  V30 934 C 90.597 0.608833 -1.58831 0
M  V30 935 O 91.782 0.533035 -1.86741 0
M  V30 936 C 88.912 0.546612 -3.42971 0
M  V30 937 C 87.866 -0.247904 -4.27281 0
M  V30 938 C 87.192 0.704001 -5.30045 0
M  V30 939 C 88.492 -1.46324 -5.01385 0
M  V30 940 H 90.186 -1.10206 -2.78379 0
M  V30 941 H 87.732 -0.531388 -1.33837 0
M  V30 942 H 89.685 0.944467 -4.1068 0
M  V30 943 H 88.409 1.40011 -2.95067 0
M  V30 944 H 87.068 -0.627281 -3.61194 0
M  V30 945 H 86.716 1.55381 -4.78399 0
M  V30 946 H 86.416 0.176524 -5.87335 0
M  V30 947 H 87.94 1.09944 -6.0062 0
M  V30 948 H 89.354 -1.13871 -5.61877 0
M  V30 949 H 87.751 -1.92728 -5.6831 0
M  V30 950 H 88.821 -2.23467 -4.30338 0
M  V30 951 N 90.1641 1.46063 -0.591896 0
M  V30 952 C 91.4411 1.95595 -0.0137119 0
M  V30 953 C 91.8211 1.5345 1.4497 0
M  V30 954 O 91.1691 0.789543 2.14426 0
M  V30 955 C 91.3791 3.48453 -0.195373 0
M  V30 956 C 92.7271 4.24546 -0.0679765 0
M  V30 957 O 93.7511 3.55982 -0.124681 0
M  V30 958 O 92.6101 5.46467 0.0600579 0
M  V30 959 H 89.7041 0.825795 0.0446279 0
M  V30 960 H 92.2501 1.56303 -0.660859 0
M  V30 961 H 91.0221 3.72045 -1.21235 0
M  V30 962 H 90.6451 3.94597 0.487775 0
M  V30 963 N 91.6422 0.330177 1.54103 0
M  V30 964 C 92.8672 -0.274893 2.0557 0
M  V30 965 C 93.2922 -1.44487 1.20437 0
M  V30 966 O 92.6502 -1.80021 0.214991 0
M  V30 967 C 92.6982 -0.68079 3.54115 0
M  V30 968 O 91.8022 -1.7824 3.71893 0
M  V30 969 H 91.1432 -0.0483849 0.662235 0
M  V30 970 H 93.6732 0.480508 1.98878 0
M  V30 971 H 93.6832 -0.961635 3.96505 0
M  V30 972 H 92.3582 0.174903 4.15532 0
M  V30 973 H 90.9352 -1.49985 3.41407 0
M  V30 974 N 93.1203 -1.57491 0.0584922 0
M  V30 975 C 94.3453 -1.97711 -0.62652 0
M  V30 976 C 94.7703 -0.936132 -1.63151 0
M  V30 977 O 94.1283 0.099811 -1.81025 0
M  V30 978 C 94.1763 -3.36989 -1.28338 0
M  V30 979 O 93.2803 -3.35433 -2.39913 0
M  V30 980 H 92.6213 -0.643868 -0.162266 0
M  V30 981 H 95.1513 -2.04193 0.129064 0
M  V30 982 H 95.1613 -3.73879 -1.63335 0
M  V30 983 H 93.8363 -4.12289 -0.546889 0
M  V30 984 H 92.4133 -3.10298 -2.06809 0
M  V30 985 N 94.5984 0.214957 -1.56127 0
M  V30 986 C 95.8264 0.955092 -1.83536 0
M  V30 987 C 96.2414 1.77677 -0.638472 0
M  V30 988 O 95.5984 1.78219 0.392968 0
M  V30 989 C 95.6494 1.86734 -3.09536 0
M  V30 990 O 95.3704 1.07887 -4.24608 0
M  V30 991 C 96.8714 2.72082 -3.4998 0
M  V30 992 H 94.0914 0.279611 -0.609966 0
M  V30 993 H 96.6354 0.228197 -2.03223 0
M  V30 994 H 94.7904 2.5481 -2.91806 0
M  V30 995 H 95.2044 1.69872 -4.9623 0
M  V30 996 H 96.6784 3.31782 -4.41163 0
M  V30 997 H 97.1554 3.44806 -2.7204 0
M  V30 998 H 97.7614 2.09409 -3.70173 0
M  V30 999 N 96.0765 1.50051 0.48192 0
M  V30 1000 C 97.3225 1.60736 1.2366 0
M  V30 1001 C 97.6555 0.301786 1.91841 0
M  V30 1002 O 96.9305 -0.696025 1.8162 0
M  V30 1003 C 97.2135 2.78009 2.28874 0
M  V30 1004 C 97.0665 4.18416 1.65069 0
M  V30 1005 C 98.3855 2.90867 3.30279 0
M  V30 1006 H 95.5045 0.585031 0.448228 0
M  V30 1007 H 98.1465 1.82402 0.531946 0
M  V30 1008 H 96.2965 2.59667 2.88973 0
M  V30 1009 H 97.9685 4.48322 1.0865 0
M  V30 1010 H 96.2115 4.23177 0.954148 0
M  V30 1011 H 96.8825 4.96381 2.41474 0
M  V30 1012 H 99.3585 3.07623 2.80191 0
M  V30 1013 H 98.2345 3.74566 4.01238 0
M  V30 1014 H 98.4955 2.01021 3.93755 0
M  V30 1015 N 97.5546 -0.734337 1.39446 0
M  V30 1016 C 98.7826 -1.52358 1.39981 0
M  V30 1017 C 99.1976 -1.88799 -0.0054975 0
M  V30 1018 O 98.5546 -1.54146 -0.976998 0
M  V30 1019 C 98.6056 -2.81072 2.27333 0
M  V30 1020 O 98.3266 -2.46178 3.62392 0
M  V30 1021 C 99.8276 -3.75096 2.36259 0
M  V30 1022 H 97.0476 -0.470806 0.478103 0
M  V30 1023 H 99.5916 -0.907339 1.83269 0
M  V30 1024 H 97.7466 -3.39026 1.87457 0
M  V30 1025 H 98.1606 -3.28866 4.08592 0
M  V30 1026 H 99.6346 -4.62305 3.01626 0
M  V30 1027 H 100.112 -4.16892 1.38194 0
M  V30 1028 H 100.718 -3.23061 2.76608 0
M  V30 1029 N 99.0327 -1.24633 -0.964593 0
M  V30 1030 C 99.9827 -1.00841 -2.04487 0
M  V30 1031 C 100.967 0.0512468 -1.60818 0
M  V30 1032 O 102.159 -0.162865 -1.76249 0
M  V30 1033 C 99.2877 -0.618474 -3.37683 0
M  V30 1034 C 98.3737 -1.71437 -3.87905 0
M  V30 1035 N 98.7647 -2.9477 -4.11029 0
M  V30 1036 C 97.0627 -1.5926 -4.16596 0
M  V30 1037 C 97.7637 -3.65834 -4.52261 0
M  V30 1038 N 96.7397 -2.9341 -4.57615 0
M  V30 1039 H 100.542 -1.94487 -2.20345 0
M  V30 1040 H 98.0557 -1.14805 -1.14863 0
M  V30 1041 H 100.053 -0.429247 -4.14684 0
M  V30 1042 H 98.7127 0.310766 -3.23209 0
M  V30 1043 H 99.7237 -3.30917 -3.9839 0
M  V30 1044 H 96.4007 -0.731606 -4.1104 0
M  V30 1045 H 97.7907 -4.71646 -4.78539 0
M  V30 1046 N 100.511 1.16574 -1.06058 0
M  V30 1047 C 101.441 2.23057 -0.690488 0
M  V30 1048 C 102.422 1.67141 0.315901 0
M  V30 1049 O 103.607 1.93253 0.191556 0
M  V30 1050 C 100.737 3.47222 -0.073625 0
M  V30 1051 C 99.6908 4.16016 -1.00573 0
M  V30 1052 C 99.0168 5.34104 -0.252289 0
M  V30 1053 C 100.317 4.67264 -2.33371 0
M  V30 1054 H 102.011 2.54271 -1.58072 0
M  V30 1055 H 99.5568 1.22218 -0.76149 0
M  V30 1056 H 101.51 4.20939 0.19714 0
M  V30 1057 H 100.234 3.15302 0.85161 0
M  V30 1058 H 98.8928 3.44223 -1.2612 0
M  V30 1059 H 98.5408 4.98437 0.675988 0
M  V30 1060 H 98.2408 5.81072 -0.873455 0
M  V30 1061 H 99.7648 6.10599 0.0109857 0
M  V30 1062 H 101.179 5.32573 -2.12223 0
M  V30 1063 H 99.5758 5.24843 -2.90963 0
M  V30 1064 H 100.646 3.83602 -2.96611 0
M  V30 1065 N 101.989 0.842826 1.3317 0
M  V30 1066 C 103.236 0.440447 1.97652 0
M  V30 1067 C 103.564 -1.00123 1.6675 0
M  V30 1068 O 102.819 -1.7155 0.941761 0
M  V30 1069 C 103.118 0.612607 3.52111 0
M  V30 1070 C 102.784 2.02297 4.02972 0
M  V30 1071 C 101.446 2.40874 4.16573 0
M  V30 1072 C 103.798 2.94402 4.30089 0
M  V30 1073 C 101.126 3.70852 4.54627 0
M  V30 1074 C 103.478 4.23865 4.69597 0
M  V30 1075 C 102.142 4.62392 4.81404 0
M  V30 1076 H 101.412 0.161171 0.72326 0
M  V30 1077 H 104.059 1.07061 1.58777 0
M  V30 1078 H 102.364 -0.100849 3.9167 0
M  V30 1079 H 104.061 0.2815 4.00011 0
M  V30 1080 H 100.651 1.71338 3.92863 0
M  V30 1081 H 104.835 2.65835 4.19101 0
M  V30 1082 H 100.091 4.00501 4.61962 0
M  V30 1083 H 104.265 4.95306 4.89536 0
M  V30 1084 H 101.892 5.63154 5.10648 0
M  V30 1085 N 103.467 -1.45747 0.599634 0
M  V30 1086 C 104.414 -2.30467 -0.123849 0
M  V30 1087 C 105.384 -1.41632 -0.86774 0
M  V30 1088 O 106.569 -1.70568 -0.855056 0
M  V30 1089 C 103.709 -3.26402 -1.12051 0
M  V30 1090 C 102.822 -4.3034 -0.37832 0
M  V30 1091 C 101.957 -5.13389 -1.364 0
M  V30 1092 C 100.996 -6.09061 -0.609171 0
M  V30 1093 N 100.133 -6.84918 -1.54374 0
M  V30 1094 H 104.973 -2.91802 0.604627 0
M  V30 1095 H 102.51 -1.43797 0.309972 0
M  V30 1096 H 104.468 -3.80482 -1.7114 0
M  V30 1097 H 103.098 -2.66839 -1.8165 0
M  V30 1098 H 102.15 -3.78984 0.327929 0
M  V30 1099 H 103.462 -4.98354 0.210997 0
M  V30 1100 H 102.616 -5.7183 -2.02719 0
M  V30 1101 H 101.355 -4.45376 -1.98725 0
M  V30 1102 H 100.36 -5.49758 0.0676979 0
M  V30 1103 H 101.585 -6.79099 0.00891991 0
M  V30 1104 H 99.531 -6.19601 -2.15478 0
M  V30 1105 H 99.448 -7.49254 -1.00766 0
M  V30 1106 H 100.716 -7.47906 -2.19676 0
M  V30 1107 N 104.945 -0.338344 -1.53925 0
M  V30 1108 C 106.194 0.260732 -2.00008 0
M  V30 1109 C 106.507 1.52073 -1.23017 0
M  V30 1110 O 107.713 2.19672 -1.5955 0
M  V30 1111 C 106.169 0.51515 -3.56194 0
M  V30 1112 C 105.777 -0.728645 -4.42035 0
M  V30 1113 C 107.521 1.07337 -4.10706 0
M  V30 1114 C 105.428 -0.445315 -5.89721 0
M  V30 1115 H 104.358 0.101205 -0.747177 0
M  V30 1116 H 107.009 -0.452866 -1.77824 0
M  V30 1117 H 105.391 1.28932 -3.74423 0
M  V30 1118 H 106.565 -1.50352 -4.35581 0
M  V30 1119 H 104.88 -1.20813 -3.98489 0
M  V30 1120 H 107.477 1.30022 -5.18651 0
M  V30 1121 H 107.82 2.0273 -3.63602 0
M  V30 1122 H 108.353 0.360034 -3.96167 0
M  V30 1123 H 105.092 -1.36883 -6.41049 0
M  V30 1124 H 104.612 0.291569 -5.99091 0
M  V30 1125 H 106.291 -0.0606218 -6.46972 0
M  V30 1126 N 106.423 1.57458 -0.0668435 0
M  V30 1127 C 107.651 1.97624 0.612565 0
M  V30 1128 C 108.066 0.94502 1.63447 0
M  V30 1129 O 107.423 -0.0689276 1.8237 0
M  V30 1130 C 107.474 3.37869 1.28555 0
M  V30 1131 O 107.195 4.3704 0.304557 0
M  V30 1132 C 108.696 3.92882 2.05325 0
M  V30 1133 H 105.916 0.650045 0.166381 0
M  V30 1134 H 108.46 2.04035 -0.137782 0
M  V30 1135 H 106.615 3.3256 1.98702 0
M  V30 1136 H 107.029 5.18565 0.786779 0
M  V30 1137 H 108.503 4.93247 2.47812 0
M  V30 1138 H 108.98 3.29156 2.9078 0
M  V30 1139 H 109.586 4.01577 1.40056 0
M  V30 1140 N 107.901 -0.206675 1.56239 0
M  V30 1141 C 108.811 -1.27686 1.96808 0
M  V30 1142 C 109.827 -1.50455 0.874035 0
M  V30 1143 O 111.003 -1.63295 1.17884 0
M  V30 1144 C 108.068 -2.60358 2.28942 0
M  V30 1145 C 107.129 -2.45762 3.51994 0
M  V30 1146 C 106.362 -3.72108 3.82585 0
M  V30 1147 O 106.585 -4.75776 3.14631 0
M  V30 1148 O 105.519 -3.6833 4.76043 0
M  V30 1149 H 109.345 -0.962593 2.88041 0
M  V30 1150 H 106.93 -0.410746 1.43643 0
M  V30 1151 H 108.812 -3.38687 2.50737 0
M  V30 1152 H 107.487 -2.91435 1.4088 0
M  V30 1153 H 106.394 -1.65584 3.35459 0
M  V30 1154 H 107.727 -2.19621 4.40486 0
M  V30 1155 N 109.379 -1.50304 -0.473955 0
M  V30 1156 C 110.327 -1.69482 -1.59307 0
M  V30 1157 C 111.321 -0.560669 -1.59853 0
M  V30 1158 O 112.527 -0.741087 -1.64036 0
M  V30 1159 H 108.902 -0.534892 -0.528578 0
M  V30 1160 H 110.873 -2.63364 -1.40293 0
M  V30 1161 C 109.622 -1.80354 -2.97267 0
M  V30 1162 H 108.945 -2.67012 -2.97564 0
M  V30 1163 H 110.385 -1.97798 -3.75036 0
M  V30 1164 C 108.844 -0.55448 -3.32306 0
M  V30 1165 O 109.374 0.307661 -4.0052 0
M  V30 1166 N 107.58 -0.409354 -2.87702 0
M  V30 1167 H 107.127 -1.11196 -2.32364 0
M  V30 1168 H 107.085 0.425223 -3.11511 0
M  V30 1169 N 110.857 0.726932 -1.39834 0
M  V30 1170 C 112.106 1.48214 -1.36805 0
M  V30 1171 C 112.419 1.95576 0.0305291 0
M  V30 1172 O 113.625 2.7088 0.183417 0
M  V30 1173 C 112.081 2.67854 -2.40379 0
M  V30 1174 C 111.689 2.27408 -3.85992 0
M  V30 1175 C 113.433 3.45641 -2.46439 0
M  V30 1176 C 111.34 3.43819 -4.81189 0
M  V30 1177 H 110.27 0.556606 -0.508631 0
M  V30 1178 H 112.921 0.792216 -1.65518 0
M  V30 1179 H 111.303 3.3896 -2.04749 0
M  V30 1180 H 112.477 1.63795 -4.30706 0
M  V30 1181 H 110.792 1.62692 -3.83302 0
M  V30 1182 H 113.389 4.32244 -3.14753 0
M  V30 1183 H 113.732 3.88669 -1.49139 0
M  V30 1184 H 114.265 2.8157 -2.81004 0
M  V30 1185 H 111.004 3.05834 -5.79781 0
M  V30 1186 H 110.524 4.06385 -4.41148 0
M  V30 1187 H 112.203 4.10043 -5.00474 0
M  V30 1188 N 112.336 1.25143 0.95797 0
M  V30 1189 C 113.584 1.09476 1.69881 0
M  V30 1190 C 113.905 -0.365502 1.91544 0
M  V30 1191 O 113.175 -1.25985 1.50015 0
M  V30 1192 H 111.755 0.402128 0.629525 0
M  V30 1193 H 114.417 1.57214 1.15194 0
M  V30 1194 H 113.513 1.60046 2.6794 0
M  V30 1195 N 113.814 -1.1601 1.06675 0
M  V30 1196 C 115.054 -1.88304 0.795037 0
M  V30 1197 C 115.418 -1.80062 -0.666466 0
M  V30 1198 O 116.619 -2.47319 -1.05293 0
M  V30 1199 C 114.89 -3.33664 1.28076 0
M  V30 1200 S 116.449 -4.23768 1.13868 0
M  V30 1201 H 113.267 -0.649928 0.288296 0
M  V30 1202 H 115.869 -1.4001 1.36445 0
M  V30 1203 H 114.573 -3.37203 2.33927 0
M  V30 1204 H 114.104 -3.87009 0.706253 0
M  V30 1205 H 116.119 -4.96148 0.0719668 0
M  V30 1206 N 115.292 -0.849877 -1.32721 0
M  V30 1207 C 116.538 -0.451591 -1.97708 0
M  V30 1208 C 116.871 0.989175 -1.6712 0
M  V30 1209 O 116.146 1.69334 -0.956891 0
M  V30 1210 C 116.429 -0.685598 -3.53513 0
M  V30 1211 C 116.282 -2.17444 -3.93749 0
M  V30 1212 C 117.601 -0.138874 -4.39881 0
M  V30 1213 H 114.72 -0.16555 -0.718166 0
M  V30 1214 H 117.362 -1.06742 -1.57182 0
M  V30 1215 H 115.512 -0.161416 -3.88165 0
M  V30 1216 H 117.184 -2.76433 -3.693 0
M  V30 1217 H 115.427 -2.65476 -3.43081 0
M  V30 1218 H 116.098 -2.28888 -5.02309 0
M  V30 1219 H 118.574 -0.587068 -4.11938 0
M  V30 1220 H 117.45 -0.332213 -5.47894 0
M  V30 1221 H 117.711 0.95806 -4.31594 0
M  V30 1222 N 116.77 1.45427 -0.607355 0
M  V30 1223 C 117.703 2.27635 0.160482 0
M  V30 1224 C 118.681 1.37122 0.873857 0
M  V30 1225 O 119.865 1.66551 0.882775 0
M  V30 1226 C 116.992 3.15486 1.23231 0
M  V30 1227 C 116.038 4.21939 0.622097 0
M  V30 1228 S 116.871 5.32459 -0.569852 0
M  V30 1229 C 118.027 6.23879 0.502577 0
M  V30 1230 H 118.26 2.9241 -0.536983 0
M  V30 1231 H 115.793 1.49265 -0.394868 0
M  V30 1232 H 117.751 3.66659 1.84585 0
M  V30 1233 H 116.412 2.49977 1.90185 0
M  V30 1234 H 115.605 4.8333 1.42856 0
M  V30 1235 H 115.207 3.73906 0.0837063 0
M  V30 1236 H 117.499 6.63261 1.38171 0
M  V30 1237 H 118.442 7.0806 -0.0751759 0
M  V30 1238 H 118.85 5.58545 0.8178 0
M  V30 1239 N 118.248 0.346503 1.53744 0
M  V30 1240 C 119.476 -0.25041 2.05379 0
M  V30 1241 C 119.891 -1.43979 1.22129 0
M  V30 1242 O 119.248 -1.80677 0.257321 0
M  V30 1243 C 119.299 -0.662575 3.55376 0
M  V30 1244 O 119.02 0.479515 4.35468 0
M  V30 1245 C 120.521 -1.31989 4.23195 0
M  V30 1246 H 117.741 -0.0478198 0.669294 0
M  V30 1247 H 120.285 0.499346 1.9831 0
M  V30 1248 H 118.44 -1.36227 3.62658 0
M  V30 1249 H 118.854 0.15037 5.24284 0
M  V30 1250 H 120.328 -1.55902 5.29527 0
M  V30 1251 H 120.805 -2.27436 3.75725 0
M  V30 1252 H 121.411 -0.662154 4.20114 0
M  V30 1253 N 119.726 -1.57421 0.075193 0
M  V30 1254 C 120.974 -1.93236 -0.591974 0
M  V30 1255 C 121.295 -0.956241 -1.69944 0
M  V30 1256 O 120.565 -0.00494792 -1.95899 0
M  V30 1257 H 119.145 -0.713355 -0.22166 0
M  V30 1258 H 121.807 -1.9444 0.133848 0
M  V30 1259 H 120.903 -2.95131 -1.01509 0
M  V30 1260 N 121.204 0.198386 -1.56346 0
M  V30 1261 C 122.137 1.27381 -1.89339 0
M  V30 1262 C 123.115 1.44106 -0.753134 0
M  V30 1263 O 124.299 1.59549 -1.00381 0
M  V30 1264 C 121.426 2.6409 -2.12071 0
M  V30 1265 C 120.472 2.64253 -3.34772 0
M  V30 1266 S 121.305 2.16013 -4.89999 0
M  V30 1267 C 122.461 3.54553 -5.15794 0
M  V30 1268 H 122.694 0.992058 -2.8026 0
M  V30 1269 H 120.227 0.401726 -1.49082 0
M  V30 1270 H 122.185 3.42786 -2.2585 0
M  V30 1271 H 120.846 2.89478 -1.21906 0
M  V30 1272 H 120.039 3.64768 -3.47794 0
M  V30 1273 H 119.641 1.93637 -3.1997 0
M  V30 1274 H 121.933 4.50396 -5.06112 0
M  V30 1275 H 122.876 3.46428 -6.1757 0
M  V30 1276 H 123.284 3.49313 -4.43442 0
M  V30 1277 N 122.682 1.50554 0.465978 0
M  V30 1278 C 123.91 1.65563 1.24083 0
M  V30 1279 C 124.325 0.341051 1.85694 0
M  V30 1280 O 123.682 -0.677543 1.69457 0
M  V30 1281 C 123.733 2.75051 2.34583 0
M  V30 1282 O 123.454 4.01413 1.75497 0
M  V30 1283 C 124.955 3.01078 3.25372 0
M  V30 1284 H 122.175 0.55638 0.375077 0
M  V30 1285 H 124.719 1.96807 0.555624 0
M  V30 1286 H 122.874 2.46486 2.9887 0
M  V30 1287 H 123.288 4.62002 2.48303 0
M  V30 1288 H 124.762 3.81339 3.99105 0
M  V30 1289 H 125.239 2.12349 3.84453 0
M  V30 1290 H 125.845 3.31194 2.66816 0
M  V30 1291 N 124.16 -0.719506 1.40217 0
M  V30 1292 C 125.123 -1.8153 1.39927 0
M  V30 1293 C 126.123 -1.58095 0.293723 0
M  V30 1294 O 127.313 -1.65209 0.552429 0
M  V30 1295 C 124.445 -3.19561 1.18716 0
M  V30 1296 H 125.638 -1.83186 2.37451 0
M  V30 1297 H 123.191 -0.924746 1.26008 0
M  V30 1298 H 123.926 -3.23557 0.219366 0
M  V30 1299 H 123.711 -3.3797 1.98793 0
M  V30 1300 H 125.201 -3.99598 1.21291 0
M  V30 1301 N 125.638 -1.25649 -0.95132 0
M  V30 1302 C 126.915 -1.01361 -1.67288 0
M  V30 1303 C 127.295 0.459135 -2.06046 0
M  V30 1304 O 126.643 1.43723 -1.7764 0
M  V30 1305 C 126.853 -1.95256 -2.89268 0
M  V30 1306 C 128.201 -2.23289 -3.61147 0
M  V30 1307 O 129.225 -1.93041 -2.99355 0
M  V30 1308 O 128.084 -2.74741 -4.72419 0
M  V30 1309 H 125.178 -0.38464 -0.732107 0
M  V30 1310 H 127.724 -1.36817 -1.00395 0
M  V30 1311 H 126.496 -2.94685 -2.57442 0
M  V30 1312 H 126.119 -1.60218 -3.6389 0
M  V30 1313 N 127.117 1.15442 -1.07289 0
M  V30 1314 C 128.342 1.90638 -0.816828 0
M  V30 1315 C 128.767 1.77445 0.624083 0
M  V30 1316 O 128.125 1.10671 1.43602 0
M  V30 1317 C 128.173 3.39008 -1.22906 0
M  V30 1318 O 127.277 4.10701 -0.373975 0
M  V30 1319 H 126.618 0.593555 -0.297638 0
M  V30 1320 H 129.148 1.46198 -1.43134 0
M  V30 1321 H 129.158 3.89801 -1.20497 0
M  V30 1322 H 127.833 3.47929 -2.27856 0
M  V30 1323 H 126.41 3.70046 -0.460499 0
M  V30 1324 N 128.595 0.856903 1.32268 0
M  V30 1325 C 130.011 0.547061 1.49931 0
M  V30 1326 C 130.211 -0.921781 1.7918 0
M  V30 1327 O 129.267 -1.70469 1.8627 0
M  V30 1328 C 130.58 1.43599 2.64196 0
M  V30 1329 C 132.128 1.43665 2.78081 0
M  V30 1330 C 132.603 2.31085 3.95428 0
M  V30 1331 N 134.094 2.28893 4.02694 0
M  V30 1332 C 134.829 2.93262 4.92732 0
M  V30 1333 N 134.325 3.66751 5.87763 0
M  V30 1334 N 136.118 2.82638 4.85873 0
M  V30 1335 H 128.269 1.8075 1.11549 0
M  V30 1336 H 130.532 0.772144 0.549997 0
M  V30 1337 H 130.238 2.48058 2.49319 0
M  V30 1338 H 130.112 1.12502 3.60032 0
M  V30 1339 H 132.499 0.399701 2.92381 0
M  V30 1340 H 132.58 1.7878 1.82952 0
M  V30 1341 H 132.224 3.34849 3.81888 0
M  V30 1342 H 132.154 1.93302 4.89839 0
M  V30 1343 H 134.645 1.75466 3.34694 0
M  V30 1344 H 134.958 4.13027 6.53168 0
M  V30 1345 H 133.303 3.70859 5.87783 0
M  V30 1346 H 136.494 2.24774 4.10602 0
M  V30 1347 H 136.667 3.33084 5.55841 0
M  V30 1348 N 130.073 -1.45103 0.615059 0
M  V30 1349 C 131.298 -2.07064 0.117988 0
M  V30 1350 C 131.723 -1.4554 -1.19163 0
M  V30 1351 O 131.081 -0.550855 -1.72729 0
M  V30 1352 C 131.129 -3.606 -0.000288387 0
M  V30 1353 O 130.233 -3.98847 -1.04856 0
M  V30 1354 H 129.574 -0.659467 0.0774581 0
M  V30 1355 H 132.104 -1.86236 0.847186 0
M  V30 1356 H 132.114 -4.07529 -0.196091 0
M  V30 1357 H 130.789 -4.04765 0.955932 0
M  V30 1358 H 129.366 -3.63577 -0.828619 0
M  V30 1359 N 131.551 -0.354651 -1.53558 0
M  V30 1360 C 132.483 0.5315 -2.22952 0
M  V30 1361 C 133.496 1.05503 -1.23988 0
M  V30 1362 O 134.685 0.963279 -1.50277 0
M  V30 1363 C 131.785 1.74538 -2.90499 0
M  V30 1364 C 130.958 1.35524 -4.15875 0
M  V30 1365 C 130.017 2.42999 -4.66731 0
M  V30 1366 O 129.043 2.05844 -5.30676 0
M  V30 1367 N 130.245 3.74423 -4.43608 0
M  V30 1368 H 133.01 -0.0628615 -2.99634 0
M  V30 1369 H 130.571 -0.179302 -1.60904 0
M  V30 1370 H 132.563 2.45892 -3.21433 0
M  V30 1371 H 131.133 2.24686 -2.17336 0
M  V30 1372 H 130.353 0.471998 -3.91364 0
M  V30 1373 H 131.641 1.07071 -4.97406 0
M  V30 1374 H 131.039 4.07391 -3.92491 0
M  V30 1375 H 129.596 4.41913 -4.7912 0
M  V30 1376 N 133.029 1.57378 -0.0835403 0
M  V30 1377 C 134.275 1.94217 0.583733 0
M  V30 1378 C 134.608 0.964653 1.68547 0
M  V30 1379 O 133.883 -0.00422258 1.945 0
M  V30 1380 C 134.166 3.41253 1.14972 0
M  V30 1381 C 134.019 4.49768 0.0538277 0
M  V30 1382 C 135.338 3.89352 2.05166 0
M  V30 1383 H 132.457 0.706233 0.210724 0
M  V30 1384 H 135.099 1.89392 -0.1519 0
M  V30 1385 H 133.249 3.45496 1.77665 0
M  V30 1386 H 134.921 4.57641 -0.579851 0
M  V30 1387 H 133.164 4.29432 -0.614068 0
M  V30 1388 H 133.835 5.49817 0.490452 0
M  V30 1389 H 136.311 3.87189 1.52393 0
M  V30 1390 H 135.187 4.92822 2.41698 0
M  V30 1391 H 135.448 3.27973 2.96456 0
M  V30 1392 N 134.507 -0.190092 1.56449 0
M  V30 1393 C 135.439 -1.25973 1.91477 0
M  V30 1394 C 136.452 -1.41452 0.805931 0
M  V30 1395 O 137.641 -1.41789 1.08435 0
M  V30 1396 C 134.741 -2.63117 2.13594 0
M  V30 1397 C 133.914 -2.69182 3.4476 0
M  V30 1398 C 132.973 -3.87557 3.5593 0
M  V30 1399 O 131.999 -3.74427 4.28711 0
M  V30 1400 N 133.201 -5.03224 2.89388 0
M  V30 1401 H 135.966 -0.962394 2.83828 0
M  V30 1402 H 133.527 -0.379981 1.57378 0
M  V30 1403 H 135.519 -3.40742 2.1835 0
M  V30 1404 H 134.089 -2.85319 1.27719 0
M  V30 1405 H 133.309 -1.77793 3.51828 0
M  V30 1406 H 134.597 -2.70229 4.31107 0
M  V30 1407 H 133.995 -5.16791 2.30094 0
M  V30 1408 H 132.552 -5.78778 2.99764 0
M  V30 1409 N 135.985 -1.50799 -0.457987 0
M  V30 1410 C 137.401 -1.38515 -0.792819 0
M  V30 1411 C 137.601 -0.451409 -1.96379 0
M  V30 1412 O 136.657 0.10112 -2.52297 0
M  V30 1413 C 137.97 -2.80149 -1.09258 0
M  V30 1414 C 139.518 -2.89156 -1.19825 0
M  V30 1415 C 139.993 -4.31651 -1.53106 0
M  V30 1416 N 141.484 -4.34662 -1.60072 0
M  V30 1417 C 142.219 -5.41928 -1.87354 0
M  V30 1418 N 141.715 -6.59384 -2.12568 0
M  V30 1419 N 143.508 -5.29385 -1.88965 0
M  V30 1420 H 135.659 -2.10073 0.313511 0
M  V30 1421 H 137.922 -0.944803 0.0777862 0
M  V30 1422 H 137.628 -3.50374 -0.305084 0
M  V30 1423 H 137.502 -3.18204 -2.02549 0
M  V30 1424 H 139.889 -2.19141 -1.97639 0
M  V30 1425 H 139.97 -2.54626 -0.244821 0
M  V30 1426 H 139.614 -5.02208 -0.758266 0
M  V30 1427 H 139.544 -4.63678 -2.49621 0
M  V30 1428 H 142.035 -3.49973 -1.42573 0
M  V30 1429 H 142.348 -7.36934 -2.32696 0
M  V30 1430 H 140.693 -6.62535 -2.09933 0
M  V30 1431 H 143.884 -4.36616 -1.68772 0
M  V30 1432 H 144.057 -6.13066 -2.09891 0
M  V30 1433 N 137.463 0.71206 -1.40597 0
M  V30 1434 C 138.426 1.80785 -1.40888 0
M  V30 1435 C 139.426 1.57937 -0.302103 0
M  V30 1436 O 140.616 1.64913 -0.561182 0
M  V30 1437 C 137.748 3.18927 -1.20409 0
M  V30 1438 H 138.941 1.81924 -2.38419 0
M  V30 1439 H 136.494 0.91805 -1.26497 0
M  V30 1440 H 137.229 3.23436 -0.236522 0
M  V30 1441 H 137.014 3.36911 -2.00582 0
M  V30 1442 H 138.504 3.98949 -1.23408 0
M  V30 1443 N 138.941 1.26152 0.944643 0
M  V30 1444 C 140.357 1.03189 1.21754 0
M  V30 1445 C 140.557 -0.245112 2.00004 0
M  V30 1446 O 139.613 -0.955176 2.33736 0
M  V30 1447 C 140.926 2.26119 1.98219 0
M  V30 1448 C 142.474 2.30984 2.11224 0
M  V30 1449 C 142.949 3.53597 2.91089 0
M  V30 1450 N 144.44 3.54053 2.98664 0
M  V30 1451 C 145.175 4.45593 3.60881 0
M  V30 1452 N 144.671 5.47416 4.24626 0
M  V30 1453 N 146.464 4.33252 3.58119 0
M  V30 1454 H 138.615 2.08177 0.421437 0
M  V30 1455 H 140.878 0.914723 0.248969 0
M  V30 1456 H 140.584 3.18984 1.48128 0
M  V30 1457 H 140.458 2.3009 2.98895 0
M  V30 1458 H 142.845 1.38635 2.60508 0
M  V30 1459 H 142.926 2.31026 1.09821 0
M  V30 1460 H 142.57 4.46273 2.42493 0
M  V30 1461 H 142.5 3.50802 3.92741 0
M  V30 1462 H 144.991 2.80403 2.53343 0
M  V30 1463 H 145.304 6.13459 4.69987 0
M  V30 1464 H 143.649 5.51278 4.23223 0
M  V30 1465 H 146.84 3.52924 3.0751 0
M  V30 1466 H 147.013 5.04786 4.06319 0
M  V30 1467 N 140.419 -1.14872 1.07899 0
M  V30 1468 C 141.649 -1.89386 0.825631 0
M  V30 1469 C 142.057 -1.78565 -0.625406 0
M  V30 1470 O 141.4 -1.13918 -1.44113 0
M  V30 1471 C 141.462 -3.40206 1.16191 0
M  V30 1472 C 141.126 -3.74812 2.61467 0
M  V30 1473 C 142.123 -3.75367 3.59716 0
M  V30 1474 C 139.808 -4.0495 2.97189 0
M  V30 1475 C 141.802 -4.05574 4.9172 0
M  V30 1476 C 139.489 -4.34821 4.29388 0
M  V30 1477 C 140.487 -4.35116 5.26463 0
M  V30 1478 O 140.175 -4.64267 6.56286 0
M  V30 1479 H 139.907 -0.606894 0.297751 0
M  V30 1480 H 142.461 -1.46438 1.44031 0
M  V30 1481 H 140.691 -3.8358 0.490214 0
M  V30 1482 H 142.38 -3.96018 0.890193 0
M  V30 1483 H 143.146 -3.52176 3.33462 0
M  V30 1484 H 139.025 -4.03876 2.22273 0
M  V30 1485 H 142.569 -4.05719 5.67484 0
M  V30 1486 H 138.466 -4.5748 4.55392 0
M  V30 1487 H 139.234 -4.82007 6.61522 0
M  V30 1488 N 141.898 -0.863906 -1.31812 0
M  V30 1489 C 142.808 -0.318461 -2.32428 0
M  V30 1490 C 143.824 0.568496 -1.64451 0
M  V30 1491 O 145 0.46666 -1.95919 0
M  V30 1492 C 142.065 0.476355 -3.43412 0
M  V30 1493 C 141.126 -0.43784 -4.27061 0
M  V30 1494 C 140.359 0.319138 -5.32745 0
M  V30 1495 O 140.582 1.54799 -5.48993 0
M  V30 1496 O 139.516 -0.319861 -6.01049 0
M  V30 1497 H 143.342 -1.15229 -2.80991 0
M  V30 1498 H 140.927 -0.627103 -1.35602 0
M  V30 1499 H 142.809 0.927156 -4.11074 0
M  V30 1500 H 141.484 1.28683 -2.97022 0
M  V30 1501 H 140.391 -0.937013 -3.62175 0
M  V30 1502 H 141.724 -1.21375 -4.77 0
M  V30 1503 N 143.376 1.44774 -0.622745 0
M  V30 1504 C 144.339 2.29069 0.0774015 0
M  V30 1505 C 145.339 1.4059 0.780461 0
M  V30 1506 O 146.529 1.62551 0.626322 0
M  V30 1507 C 143.661 3.21974 1.12006 0
M  V30 1508 H 144.854 2.92459 -0.663901 0
M  V30 1509 H 142.407 1.51548 -0.382486 0
M  V30 1510 H 143.142 2.63417 1.89162 0
M  V30 1511 H 142.927 3.87168 0.619951 0
M  V30 1512 H 144.417 3.85318 1.60995 0
M  V30 1513 N 144.854 0.36279 1.53368 0
M  V30 1514 C 145.817 -0.472679 2.24273 0
M  V30 1515 C 146.817 -1.012 1.24961 0
M  V30 1516 O 148.007 -0.898194 1.49259 0
M  V30 1517 C 145.139 -1.66039 2.97731 0
M  V30 1518 H 146.332 0.14773 2.99536 0
M  V30 1519 H 143.885 0.114434 1.55881 0
M  V30 1520 H 144.62 -2.31896 2.26704 0
M  V30 1521 H 144.405 -1.28066 3.70596 0
M  V30 1522 H 145.895 -2.25252 3.51641 0
M  V30 1523 N 146.332 -1.57332 0.0918853 0
M  V30 1524 C 147.28 -2.15075 -0.885747 0
M  V30 1525 C 148.274 -1.09277 -1.29441 0
M  V30 1526 O 149.48 -1.27627 -1.26931 0
M  V30 1527 H 145.855 -0.687966 -0.303656 0
M  V30 1528 H 147.826 -2.96047 -0.373995 0
M  V30 1529 C 146.575 -2.74325 -2.13638 0
M  V30 1530 H 145.898 -3.55418 -1.8308 0
M  V30 1531 H 147.338 -3.183 -2.80109 0
M  V30 1532 C 145.797 -1.70062 -2.90827 0
M  V30 1533 O 146.327 -1.13763 -3.85254 0
M  V30 1534 N 144.533 -1.40628 -2.54307 0
M  V30 1535 H 144.08 -1.866 -1.7759 0
M  V30 1536 H 144.038 -0.711043 -3.06254 0
M  V30 1537 N 147.81 0.181792 -1.56548 0
M  V30 1538 C 149.056 0.896803 -1.82562 0
M  V30 1539 C 149.411 1.80324 -0.670908 0
M  V30 1540 O 148.704 1.8868 0.333235 0
M  V30 1541 C 148.898 1.73728 -3.12335 0
M  V30 1542 C 148.727 0.913714 -4.4032 0
M  V30 1543 C 147.497 0.592903 -5.01809 0
M  V30 1544 C 149.695 0.260164 -5.13642 0
M  V30 1545 N 147.677 -0.247901 -6.13399 0
M  V30 1546 C 149.048 -0.442256 -6.18421 0
M  V30 1547 C 151.103 0.177253 -4.97584 0
M  V30 1548 C 149.806 -1.21971 -7.08883 0
M  V30 1549 C 151.832 -0.586839 -5.88481 0
M  V30 1550 C 151.194 -1.27766 -6.92716 0
M  V30 1551 H 147.293 0.307122 -0.719166 0
M  V30 1552 H 149.877 0.164535 -1.94004 0
M  V30 1553 H 148.048 2.44105 -3.02105 0
M  V30 1554 H 149.78 2.39279 -3.26386 0
M  V30 1555 H 146.535 0.920502 -4.64568 0
M  V30 1556 H 146.959 -0.658304 -6.73792 0
M  V30 1557 H 151.601 0.696993 -4.17015 0
M  V30 1558 H 149.319 -1.75083 -7.88905 0
M  V30 1559 H 152.905 -0.652522 -5.78129 0
M  V30 1560 H 151.785 -1.85943 -7.61836 0
M  V30 1561 N 149.288 1.51039 0.449983 0
M  V30 1562 C 150.235 1.71439 1.54523 0
M  V30 1563 C 151.205 0.555871 1.56522 0
M  V30 1564 O 152.39 0.788871 1.73728 0
M  V30 1565 C 149.53 1.83384 2.92343 0
M  V30 1566 C 148.643 3.10873 2.9997 0
M  V30 1567 C 147.778 3.13488 4.28834 0
M  V30 1568 C 146.817 4.35343 4.30282 0
M  V30 1569 N 145.954 4.35579 5.5065 0
M  V30 1570 H 150.794 2.64934 1.36433 0
M  V30 1571 H 148.331 1.31312 0.662982 0
M  V30 1572 H 150.289 1.88291 3.72293 0
M  V30 1573 H 148.919 0.933086 3.0902 0
M  V30 1574 H 147.971 3.15336 2.12761 0
M  V30 1575 H 149.283 4.00814 2.96901 0
M  V30 1576 H 148.437 3.17241 5.17149 0
M  V30 1577 H 147.176 2.21414 4.34543 0
M  V30 1578 H 146.181 4.3178 3.40362 0
M  V30 1579 H 147.406 5.28668 4.26248 0
M  V30 1580 H 145.352 3.46369 5.57104 0
M  V30 1581 H 145.269 5.19313 5.49409 0
M  V30 1582 H 146.537 4.43507 6.41032 0
M  V30 1583 N 150.766 -0.704594 1.40972 0
M  V30 1584 C 151.996 -1.49138 1.42974 0
M  V30 1585 C 152.404 -1.89175 0.0308406 0
M  V30 1586 O 151.747 -1.56734 -0.958138 0
M  V30 1587 C 151.809 -2.79016 2.26694 0
M  V30 1588 C 151.473 -2.61236 3.74973 0
M  V30 1589 C 152.47 -2.27773 4.67349 0
M  V30 1590 C 150.155 -2.77158 4.18914 0
M  V30 1591 C 152.149 -2.10457 6.01653 0
M  V30 1592 C 149.836 -2.59459 5.53285 0
M  V30 1593 C 150.834 -2.26158 6.4447 0
M  V30 1594 O 150.522 -2.08605 7.76363 0
M  V30 1595 H 150.254 -0.466443 0.489292 0
M  V30 1596 H 152.808 -0.8758 1.85793 0
M  V30 1597 H 151.038 -3.42947 1.78673 0
M  V30 1598 H 152.727 -3.40782 2.20504 0
M  V30 1599 H 153.493 -2.15095 4.34694 0
M  V30 1600 H 149.372 -3.02064 3.48251 0
M  V30 1601 H 152.916 -1.84387 6.72791 0
M  V30 1602 H 148.813 -2.71725 5.85522 0
M  V30 1603 H 149.581 -2.23439 7.87412 0
M  V30 1604 N 152.244 -1.26651 -0.937939 0
M  V30 1605 C 153.191 -1.0849 -2.03712 0
M  V30 1606 C 154.161 0.011033 -1.66096 0
M  V30 1607 O 155.346 -0.149353 -1.90215 0
M  V30 1608 C 152.486 -0.72735 -3.37348 0
M  V30 1609 C 151.599 -1.89986 -3.87981 0
M  V30 1610 C 150.734 -1.48513 -5.10017 0
M  V30 1611 C 149.773 -2.62575 -5.5292 0
M  V30 1612 N 148.91 -2.21762 -6.66158 0
M  V30 1613 H 153.75 -2.02551 -2.18579 0
M  V30 1614 H 151.287 -1.00844 -1.07093 0
M  V30 1615 H 153.245 -0.50092 -4.14182 0
M  V30 1616 H 151.875 0.176298 -3.22318 0
M  V30 1617 H 150.927 -2.23913 -3.07518 0
M  V30 1618 H 152.239 -2.75586 -4.15757 0
M  V30 1619 H 151.393 -1.21934 -5.94321 0
M  V30 1620 H 150.132 -0.60009 -4.83994 0
M  V30 1621 H 149.137 -2.8988 -4.67172 0
M  V30 1622 H 150.362 -3.51685 -5.80943 0
M  V30 1623 H 148.308 -1.35696 -6.41812 0
M  V30 1624 H 148.225 -3.00903 -6.93537 0
M  V30 1625 H 149.493 -1.98403 -7.53828 0
M  V30 1626 N 153.722 1.14298 -1.08507 0
M  V30 1627 C 154.952 1.88945 -0.835663 0
M  V30 1628 C 155.36 1.78894 0.615928 0
M  V30 1629 O 154.703 1.1468 1.43506 0
M  V30 1630 C 154.765 3.39585 -1.17994 0
M  V30 1631 C 154.429 3.7342 -2.63451 0
M  V30 1632 C 155.426 3.73454 -3.61702 0
M  V30 1633 C 153.111 4.03368 -2.99332 0
M  V30 1634 C 155.105 4.02961 -4.93864 0
M  V30 1635 C 152.792 4.32538 -4.31687 0
M  V30 1636 C 153.79 4.32318 -5.28763 0
M  V30 1637 O 153.478 4.6078 -6.58739 0
M  V30 1638 H 153.21 0.605307 -0.300965 0
M  V30 1639 H 155.764 1.45673 -1.44806 0
M  V30 1640 H 153.994 3.83315 -0.51055 0
M  V30 1641 H 155.683 3.9554 -0.911182 0
M  V30 1642 H 156.449 3.50403 -3.35325 0
M  V30 1643 H 152.328 4.02692 -2.24411 0
M  V30 1644 H 155.872 4.02704 -5.69627 0
M  V30 1645 H 151.769 4.55059 -4.57812 0
M  V30 1646 H 152.537 4.78492 -6.64069 0
M  V30 1647 N 155.201 0.870884 1.31352 0
M  V30 1648 C 156.449 0.48132 1.96285 0
M  V30 1649 C 156.77 -0.969813 1.69173 0
M  V30 1650 O 156.04 -1.67998 1.00764 0
M  V30 1651 H 154.62 0.175002 0.726212 0
M  V30 1652 H 157.282 1.11087 1.60143 0
M  V30 1653 H 156.378 0.639825 3.05471 0
M  V30 1654 N 156.679 -1.44442 0.630414 0
M  V30 1655 C 157.909 -2.06115 0.141465 0
M  V30 1656 C 158.317 -1.47179 -1.1889 0
M  V30 1657 O 157.66 -0.588873 -1.74006 0
M  V30 1658 C 157.722 -3.59467 -0.0484355 0
M  V30 1659 C 157.386 -4.40864 1.20366 0
M  V30 1660 C 158.383 -4.74391 2.12719 0
M  V30 1661 C 156.068 -4.8125 1.43887 0
M  V30 1662 C 158.062 -5.47186 3.26904 0
M  V30 1663 C 155.749 -5.53795 2.5837 0
M  V30 1664 C 156.747 -5.86682 3.49705 0
M  V30 1665 O 156.435 -6.57749 4.62191 0
M  V30 1666 H 156.167 -0.671648 0.0765792 0
M  V30 1667 H 158.721 -1.86312 0.864695 0
M  V30 1668 H 156.951 -3.77758 -0.826803 0
M  V30 1669 H 158.64 -4.02909 -0.491849 0
M  V30 1670 H 159.406 -4.43728 1.95781 0
M  V30 1671 H 155.285 -4.55073 0.736853 0
M  V30 1672 H 158.829 -5.72773 3.98217 0
M  V30 1673 H 154.726 -5.83872 2.75251 0
M  V30 1674 H 155.494 -6.76217 4.61164 0
M  V30 1675 N 158.157 -0.370918 -1.53173 0
M  V30 1676 C 159.067 0.480823 -2.2962 0
M  V30 1677 C 160.083 1.08789 -1.35798 0
M  V30 1678 O 161.259 1.09768 -1.68858 0
M  V30 1679 C 158.324 1.60227 -3.07454 0
M  V30 1680 C 157.385 1.0222 -4.16953 0
M  V30 1681 C 156.618 2.0902 -4.91066 0
M  V30 1682 O 156.841 3.30222 -4.65091 0
M  V30 1683 O 155.775 1.71778 -5.76867 0
M  V30 1684 H 159.601 -0.141421 -3.03371 0
M  V30 1685 H 157.186 -0.135146 -1.48787 0
M  V30 1686 H 159.068 2.25417 -3.56041 0
M  V30 1687 H 157.743 2.20982 -2.36535 0
M  V30 1688 H 156.65 0.334064 -3.72605 0
M  V30 1689 H 157.983 0.459131 -4.90054 0
M  V30 1690 N 159.635 1.57281 -0.100228 0
M  V30 1691 C 160.884 1.93713 0.561984 0
M  V30 1692 C 161.197 0.984492 1.69018 0
M  V30 1693 O 162.403 1.24273 2.41389 0
M  V30 1694 C 160.859 3.4421 1.05106 0
M  V30 1695 C 160.467 4.47975 -0.0476628 0
M  V30 1696 C 162.211 3.89595 1.68571 0
M  V30 1697 C 160.118 5.89631 0.457055 0
M  V30 1698 H 159.048 0.723082 0.2137 0
M  V30 1699 H 161.699 1.82644 -0.177057 0
M  V30 1700 H 160.081 3.50449 1.84395 0
M  V30 1701 H 161.255 4.53385 -0.823333 0
M  V30 1702 H 159.57 4.1223 -0.587816 0
M  V30 1703 H 162.167 4.92832 2.07414 0
M  V30 1704 H 162.51 3.28526 2.55688 0
M  V30 1705 H 163.043 3.86078 0.958562 0
M  V30 1706 H 159.782 6.54411 -0.377616 0
M  V30 1707 H 159.302 5.87681 1.19962 0
M  V30 1708 H 160.981 6.40363 0.92437 0
M  V30 1709 N 161.113 -0.173488 1.56642 0
M  V30 1710 C 162.524 -0.736155 1.71574 0
M  V30 1711 C 162.875 -1.82888 0.710389 0
M  V30 1712 O 162 -2.16017 -0.1287 0
M  V30 1713 C 162.595 -1.34211 3.11083 0
M  V30 1714 C 161.154 -1.85162 3.27707 0
M  V30 1715 C 160.301 -0.729765 2.67525 0
M  V30 1716 H 163.252 0.0518786 1.58615 0
M  V30 1717 H 163.273 -2.21178 3.09613 0
M  V30 1718 H 162.785 -0.546579 3.84232 0
M  V30 1719 H 160.886 -2.67366 2.59512 0
M  V30 1720 H 160.999 -1.99855 4.35425 0
M  V30 1721 H 159.363 -1.14965 2.27278 0
M  V30 1722 H 160.146 0.0538806 3.43258 0
M  V30 1723 N 162.591 -1.51276 -0.441967 0
M  V30 1724 C 163.837 -1.63958 -1.19355 0
M  V30 1725 C 164.17 -0.352543 -1.90973 0
M  V30 1726 O 163.445 0.647627 -1.83401 0
M  V30 1727 C 163.728 -2.83979 -2.21422 0
M  V30 1728 C 163.581 -4.22646 -1.53918 0
M  V30 1729 C 164.9 -2.99521 -3.22451 0
M  V30 1730 H 162.019 -0.596709 -0.432559 0
M  V30 1731 H 164.661 -1.83748 -0.483398 0
M  V30 1732 H 162.811 -2.67237 -2.81987 0
M  V30 1733 H 164.483 -4.51045 -0.967256 0
M  V30 1734 H 162.726 -4.25558 -0.841615 0
M  V30 1735 H 163.397 -5.02609 -2.28229 0
M  V30 1736 H 165.873 -3.14944 -2.71937 0
M  V30 1737 H 164.749 -3.85072 -3.91166 0
M  V30 1738 H 165.01 -2.11391 -3.88287 0
M  V30 1739 N 164.069 0.697108 -1.41344 0
M  V30 1740 C 165.346 1.45154 -1.31109 0
M  V30 1741 C 165.726 2.11009 0.0620449 0
M  V30 1742 O 165.074 2.01571 1.07618 0
M  V30 1743 C 165.284 2.47223 -2.46337 0
M  V30 1744 C 166.632 3.1252 -2.87431 0
M  V30 1745 O 167.656 2.57547 -2.46065 0
M  V30 1746 O 166.515 4.12083 -3.58957 0
M  V30 1747 H 163.609 0.646365 -0.515889 0
M  V30 1748 H 166.155 0.727716 -1.53305 0
M  V30 1749 H 164.927 1.97204 -3.37974 0
M  V30 1750 H 164.55 3.27116 -2.2601 0
M  V30 1751 N 165.547 1.27147 0.931209 0
M  V30 1752 C 166.48 1.0389 2.0318 0
M  V30 1753 C 167.458 -0.0395716 1.62552 0
M  V30 1754 O 168.642 0.104867 1.88208 0
M  V30 1755 C 165.769 0.575227 3.3378 0
M  V30 1756 C 164.815 1.64774 3.93385 0
M  V30 1757 S 165.648 3.23933 4.26413 0
M  V30 1758 C 166.804 2.79358 5.60098 0
M  V30 1759 H 167.037 1.97075 2.22596 0
M  V30 1760 H 164.57 1.10938 1.07387 0
M  V30 1761 H 166.528 0.314385 4.09294 0
M  V30 1762 H 165.189 -0.336505 3.12292 0
M  V30 1763 H 164.382 1.27454 4.87618 0
M  V30 1764 H 163.984 1.86048 3.24441 0
M  V30 1765 H 166.276 2.24443 6.39243 0
M  V30 1766 H 167.219 3.72322 6.02314 0
M  V30 1767 H 167.627 2.1861 5.20452 0
M  V30 1768 N 167.025 -1.13721 1.09112 0
M  V30 1769 C 167.955 -2.21148 0.749385 0
M  V30 1770 C 168.936 -1.6792 -0.271475 0
M  V30 1771 O 170.121 -1.93693 -0.140251 0
M  V30 1772 C 167.251 -3.46905 0.165659 0
M  V30 1773 C 166.205 -4.13203 1.11567 0
M  V30 1774 C 165.531 -5.33248 0.393809 0
M  V30 1775 C 166.831 -4.60912 2.45678 0
M  V30 1776 H 168.525 -2.4999 1.64758 0
M  V30 1777 H 166.071 -1.20156 0.793626 0
M  V30 1778 H 168.024 -4.21313 -0.085466 0
M  V30 1779 H 166.748 -3.17449 -0.767714 0
M  V30 1780 H 165.407 -3.40758 1.35202 0
M  V30 1781 H 165.055 -5.00054 -0.543599 0
M  V30 1782 H 164.755 -5.78552 1.02721 0
M  V30 1783 H 166.279 -6.10413 0.150908 0
M  V30 1784 H 167.693 -5.26759 2.26269 0
M  V30 1785 H 166.09 -5.16944 3.04776 0
M  V30 1786 H 167.16 -3.75603 3.06677 0
M  V30 1787 N 168.503 -0.877838 -1.30888 0
M  V30 1788 C 169.743 -0.499301 -1.98208 0
M  V30 1789 C 170.107 0.932649 -1.67826 0
M  V30 1790 O 171.308 1.41694 -2.28421 0
M  V30 1791 C 169.579 -0.758221 -3.49265 0
M  V30 1792 S 171.138 -0.480719 -4.36159 0
M  V30 1793 H 167.956 -0.186062 -0.686223 0
M  V30 1794 H 170.558 -1.13556 -1.59139 0
M  V30 1795 H 169.262 -1.79903 -3.68867 0
M  V30 1796 H 168.793 -0.109247 -3.93248 0
M  V30 1797 H 170.808 0.683698 -4.91467 0
M  V30 1798 N 169.982 1.44106 -0.638065 0
M  V30 1799 C 170.929 2.30715 0.062701 0
M  V30 1800 C 171.899 1.43882 0.829883 0
M  V30 1801 O 173.084 1.72775 0.809532 0
M  V30 1802 C 170.224 3.29258 1.03358 0
M  V30 1803 C 169.337 4.31192 0.26409 0
M  V30 1804 C 168.472 5.16825 1.22741 0
M  V30 1805 C 167.511 6.10462 0.447475 0
M  V30 1806 N 166.648 6.8877 1.36161 0
M  V30 1807 H 171.488 2.90096 -0.681781 0
M  V30 1808 H 169.025 1.42925 -0.347988 0
M  V30 1809 H 170.983 3.84886 1.60992 0
M  V30 1810 H 169.613 2.71562 1.74511 0
M  V30 1811 H 168.665 3.77981 -0.428295 0
M  V30 1812 H 169.977 4.97619 -0.343052 0
M  V30 1813 H 169.131 5.77004 1.87487 0
M  V30 1814 H 167.87 4.50488 1.86847 0
M  V30 1815 H 166.875 5.49386 -0.213433 0
M  V30 1816 H 168.1 6.78837 -0.188968 0
M  V30 1817 H 166.046 6.25096 1.98975 0
M  V30 1818 H 165.963 7.51663 0.808656 0
M  V30 1819 H 167.231 7.53467 1.99769 0
M  V30 1820 N 171.46 0.379036 1.52974 0
M  V30 1821 C 172.876 0.0285448 1.59574 0
M  V30 1822 C 173.076 -1.45542 1.39355 0
M  V30 1823 O 172.132 -2.2187 1.20541 0
M  V30 1824 C 173.445 0.496535 2.96572 0
M  V30 1825 C 174.993 0.451909 3.0972 0
M  V30 1826 C 175.468 0.895924 4.49152 0
M  V30 1827 N 176.959 0.851522 4.55306 0
M  V30 1828 C 177.694 1.16661 5.61407 0
M  V30 1829 N 177.19 1.55166 6.752 0
M  V30 1830 N 178.983 1.08853 5.51459 0
M  V30 1831 H 171.134 1.34525 1.64367 0
M  V30 1832 H 173.397 0.550733 0.771619 0
M  V30 1833 H 173.103 1.53258 3.16552 0
M  V30 1834 H 172.977 -0.109802 3.7704 0
M  V30 1835 H 175.364 -0.575029 2.89443 0
M  V30 1836 H 175.445 1.09392 2.3123 0
M  V30 1837 H 175.089 1.92104 4.70168 0
M  V30 1838 H 175.019 0.23103 5.26093 0
M  V30 1839 H 177.51 0.568038 3.73606 0
M  V30 1840 H 177.823 1.776 7.52116 0
M  V30 1841 H 176.168 1.59044 6.76557 0
M  V30 1842 H 179.359 0.786803 4.6144 0
M  V30 1843 H 179.532 1.33742 6.34048 0
M  V30 1844 N 172.938 -1.57226 0.108567 0
M  V30 1845 C 174.187 -1.94008 -0.551703 0
M  V30 1846 C 174.5 -0.993442 -1.68494 0
M  V30 1847 O 175.706 -1.25551 -2.40726 0
M  V30 1848 C 174.162 -3.44763 -1.03279 0
M  V30 1849 C 173.77 -4.47943 0.0714193 0
M  V30 1850 C 175.514 -3.90483 -1.66503 0
M  V30 1851 C 173.421 -5.89865 -0.425779 0
M  V30 1852 H 172.351 -0.724206 -0.209863 0
M  V30 1853 H 175.002 -1.82547 0.186741 0
M  V30 1854 H 173.384 -3.51422 -1.82533 0
M  V30 1855 H 174.558 -4.52942 0.847365 0
M  V30 1856 H 172.873 -4.11913 0.609669 0
M  V30 1857 H 175.47 -4.93925 -2.04798 0
M  V30 1858 H 175.813 -3.29877 -2.53942 0
M  V30 1859 H 176.346 -3.86581 -0.938074 0
M  V30 1860 H 173.085 -6.54202 0.412316 0
M  V30 1861 H 172.605 -5.88309 -1.16843 0
M  V30 1862 H 174.284 -6.40844 -0.890397 0
M  V30 1863 N 174.416 0.165178 -1.56732 0
M  V30 1864 C 175.379 1.18822 -1.95995 0
M  V30 1865 C 176.379 1.3685 -0.84431 0
M  V30 1866 O 177.569 1.34152 -1.11126 0
M  V30 1867 C 174.701 2.5521 -2.26011 0
M  V30 1868 H 175.894 0.851825 -2.87548 0
M  V30 1869 H 173.447 0.407857 -1.50885 0
M  V30 1870 H 174.182 2.93852 -1.37191 0
M  V30 1871 H 173.967 2.43489 -3.07336 0
M  V30 1872 H 175.457 3.28927 -2.57288 0
M  V30 1873 N 175.894 1.51508 0.433938 0
M  V30 1874 C 177.171 1.54888 1.19453 0
M  V30 1875 C 177.551 0.315154 2.08734 0
M  V30 1876 O 176.899 -0.699558 2.17528 0
M  V30 1877 C 177.109 2.86467 1.99342 0
M  V30 1878 C 178.457 3.38545 2.56267 0
M  V30 1879 O 179.481 2.88041 2.0955 0
M  V30 1880 O 178.34 4.26675 3.41483 0
M  V30 1881 H 175.434 0.622863 0.544032 0
M  V30 1882 H 177.98 1.63823 0.442732 0
M  V30 1883 H 176.752 3.67718 1.33788 0
M  V30 1884 H 176.375 2.8071 2.8158 0
M  V30 1885 N 177.372 -0.689602 1.41712 0
M  V30 1886 C 178.621 -1.44534 1.40686 0
M  V30 1887 C 178.934 -1.95588 0.0213352 0
M  V30 1888 O 180.14 -2.71271 -0.111534 0
M  V30 1889 C 178.596 -2.61387 2.47396 0
M  V30 1890 C 178.204 -2.17094 3.91885 0
M  V30 1891 C 179.948 -3.38986 2.55517 0
M  V30 1892 C 177.855 -3.3094 4.90135 0
M  V30 1893 H 176.785 -0.542925 0.52321 0
M  V30 1894 H 179.436 -0.748054 1.6756 0
M  V30 1895 H 177.818 -3.33412 2.13664 0
M  V30 1896 H 178.992 -1.52318 4.34897 0
M  V30 1897 H 177.307 -1.52473 3.8748 0
M  V30 1898 H 179.904 -4.23747 3.26102 0
M  V30 1899 H 180.247 -3.84578 1.59391 0
M  V30 1900 H 180.78 -2.74021 2.8837 0
M  V30 1901 H 177.519 -2.90355 5.87685 0
M  V30 1902 H 177.039 -3.94546 4.51767 0
M  V30 1903 H 178.718 -3.9663 5.11169 0
M  V30 1904 N 178.85 -1.27639 -0.924453 0
M  V30 1905 C 180.075 -1.17101 -1.71179 0
M  V30 1906 C 180.5 0.268134 -1.86179 0
M  V30 1907 O 179.858 1.19415 -1.36418 0
M  V30 1908 C 179.906 -1.86313 -3.08739 0
M  V30 1909 O 179.01 -1.16331 -3.95652 0
M  V30 1910 H 178.351 -0.407091 -0.524569 0
M  V30 1911 H 180.881 -1.68767 -1.15666 0
M  V30 1912 H 180.891 -1.938 -3.59034 0
M  V30 1913 H 179.566 -2.91001 -2.97138 0
M  V30 1914 H 178.143 -1.16935 -3.54091 0
M  V30 1915 N 180.328 1.1314 -1.09713 0
M  V30 1916 C 181.26 2.18343 -0.697056 0
M  V30 1917 C 182.273 1.60669 0.262551 0
M  V30 1918 O 183.462 1.78435 0.0481527 0
M  V30 1919 C 180.562 3.38899 -0.00684728 0
M  V30 1920 C 179.735 4.26078 -0.988741 0
M  V30 1921 C 178.794 5.25155 -0.331394 0
M  V30 1922 O 177.82 5.60701 -0.979926 0
M  V30 1923 N 179.022 5.73271 0.913261 0
M  V30 1924 H 181.787 2.5328 -1.60216 0
M  V30 1925 H 179.348 1.28491 -0.984971 0
M  V30 1926 H 181.34 4.02255 0.444191 0
M  V30 1927 H 179.91 3.02175 0.800551 0
M  V30 1928 H 179.13 3.59453 -1.61826 0
M  V30 1929 H 180.418 4.81178 -1.65364 0
M  V30 1930 H 179.816 5.46544 1.45966 0
M  V30 1931 H 178.373 6.3855 1.30757 0
M  V30 1932 N 181.806 0.884767 1.30421 0
M  V30 1933 C 183.052 0.503851 1.96441 0
M  V30 1934 C 183.385 -0.944518 1.69684 0
M  V30 1935 O 182.66 -1.66737 1.00145 0
M  V30 1936 C 182.943 0.779085 3.51571 0
M  V30 1937 C 182.796 2.27807 3.87846 0
M  V30 1938 C 184.115 0.255452 4.39358 0
M  V30 1939 H 181.234 0.184533 0.713524 0
M  V30 1940 H 183.876 1.10872 1.54297 0
M  V30 1941 H 182.026 0.264274 3.876 0
M  V30 1942 H 183.698 2.86127 3.61841 0
M  V30 1943 H 181.941 2.74479 3.35922 0
M  V30 1944 H 182.612 2.42125 4.96064 0
M  V30 1945 H 185.088 0.696079 4.10236 0
M  V30 1946 H 183.964 0.477361 5.4682 0
M  V30 1947 H 184.225 -0.843293 4.33983 0
M  V30 1948 N 183.284 -1.43765 0.645699 0
M  V30 1949 C 184.514 -2.05953 0.163318 0
M  V30 1950 C 184.922 -1.48432 -1.17322 0
M  V30 1951 O 184.265 -0.607295 -1.73371 0
M  V30 1952 C 184.327 -3.59499 -0.0103065 0
M  V30 1953 C 183.991 -4.39563 1.25035 0
M  V30 1954 C 184.988 -4.72108 2.17739 0
M  V30 1955 C 182.673 -4.79697 1.48983 0
M  V30 1956 C 184.667 -5.43688 3.3269 0
M  V30 1957 C 182.354 -5.51023 2.64229 0
M  V30 1958 C 183.352 -5.8294 3.55908 0
M  V30 1959 O 183.04 -6.5281 4.69142 0
M  V30 1960 H 182.772 -0.670798 0.0836986 0
M  V30 1961 H 185.326 -1.85384 0.884407 0
M  V30 1962 H 183.556 -3.78613 -0.78669 0
M  V30 1963 H 185.245 -4.03408 -0.449087 0
M  V30 1964 H 186.011 -4.41627 2.00476 0
M  V30 1965 H 181.89 -4.54266 0.785078 0
M  V30 1966 H 185.434 -5.68517 4.04269 0
M  V30 1967 H 181.331 -5.8092 2.81429 0
M  V30 1968 H 182.099 -6.71288 4.6831 0
M  V30 1969 N 184.763 -0.387143 -1.52771 0
M  V30 1970 C 185.991 0.195869 -2.05971 0
M  V30 1971 C 186.406 1.40691 -1.25903 0
M  V30 1972 O 185.763 1.79931 -0.305134 0
M  V30 1973 C 185.814 0.56812 -3.57008 0
M  V30 1974 O 185.535 -0.594803 -4.34043 0
M  V30 1975 C 187.036 1.20723 -4.26545 0
M  V30 1976 H 184.256 0.0300578 -0.670326 0
M  V30 1977 H 186.8 -0.551749 -1.96916 0
M  V30 1978 H 184.955 1.26564 -3.66143 0
M  V30 1979 H 185.369 -0.289322 -5.23701 0
M  V30 1980 H 186.843 1.41807 -5.33474 0
M  V30 1981 H 187.32 2.17395 -3.81623 0
M  V30 1982 H 187.926 0.550535 -4.21722 0
M  V30 1983 N 186.241 1.57166 -0.116904 0
M  V30 1984 C 187.173 2.12271 0.864507 0
M  V30 1985 C 188.186 1.06494 1.23138 0
M  V30 1986 O 189.375 1.33873 1.18069 0
M  V30 1987 C 186.475 2.60564 2.16702 0
M  V30 1988 C 185.648 3.90416 1.97216 0
M  V30 1989 C 184.707 4.24329 3.11178 0
M  V30 1990 O 183.733 4.93182 2.84184 0
M  V30 1991 N 184.935 3.8148 4.37554 0
M  V30 1992 H 187.7 2.97102 0.393726 0
M  V30 1993 H 185.261 1.61759 0.0675805 0
M  V30 1994 H 187.253 2.80282 2.91932 0
M  V30 1995 H 185.823 1.80623 2.55135 0
M  V30 1996 H 185.043 3.79627 1.06192 0
M  V30 1997 H 186.331 4.75327 1.81499 0
M  V30 1998 H 185.729 3.25943 4.62361 0
M  V30 1999 H 184.286 4.06311 5.09661 0
M  V30 2000 N 187.719 -0.156864 1.56817 0
M  V30 2001 C 188.667 -1.21319 1.98455 0
M  V30 2002 C 189.661 -1.45025 0.875444 0
M  V30 2003 O 190.867 -1.45435 1.0606 0
M  V30 2004 H 187.242 -0.408142 0.631605 0
M  V30 2005 H 189.213 -0.835244 2.86472 0
M  V30 2006 C 187.962 -2.54148 2.37285 0
M  V30 2007 H 187.285 -2.36733 3.22176 0
M  V30 2008 H 188.725 -3.26712 2.70251 0
M  V30 2009 C 187.184 -3.13967 1.22173 0
M  V30 2010 O 187.714 -3.98357 0.517149 0
M  V30 2011 N 185.92 -2.7327 0.988536 0
M  V30 2012 H 185.467 -2.04744 1.56326 0
M  V30 2013 H 185.425 -3.13628 0.220209 0
M  V30 2014 N 189.197 -1.51736 -0.425897 0
M  V30 2015 C 190.16 -1.73271 -1.50032 0
M  V30 2016 C 191.16 -0.602639 -1.4908 0
M  V30 2017 O 192.35 -0.87033 -1.509 0
M  V30 2018 C 189.482 -1.79969 -2.89523 0
M  V30 2019 H 190.675 -2.69172 -1.32237 0
M  V30 2020 H 188.228 -1.41899 -0.65532 0
M  V30 2021 H 188.963 -0.859241 -3.1271 0
M  V30 2022 H 188.748 -2.62109 -2.91619 0
M  V30 2023 H 190.238 -1.9843 -3.67444 0
M  V30 2024 N 190.675 0.682077 -1.42076 0
M  V30 2025 C 191.585 1.82535 -1.47371 0
M  V30 2026 C 192.601 1.7017 -0.363079 0
M  V30 2027 O 193.777 1.91848 -0.612875 0
M  V30 2028 C 190.842 3.18624 -1.36674 0
M  V30 2029 C 189.903 3.42999 -2.58167 0
M  V30 2030 C 189.136 4.72595 -2.4797 0
M  V30 2031 O 189.359 5.50006 -1.5116 0
M  V30 2032 O 188.293 4.98054 -3.37974 0
M  V30 2033 H 192.119 1.81023 -2.43853 0
M  V30 2034 H 189.704 0.836887 -1.2376 0
M  V30 2035 H 191.586 3.99847 -1.33043 0
M  V30 2036 H 190.261 3.20789 -0.433138 0
M  V30 2037 H 189.168 2.61653 -2.67373 0
M  V30 2038 H 190.501 3.45659 -3.50401 0
M  V30 2039 N 192.153 1.28127 0.917671 0
M  V30 2040 C 193.086 1.06039 2.02067 0
M  V30 2041 C 194.064 -0.0223285 1.62585 0
M  V30 2042 O 195.248 0.124823 1.88086 0
M  V30 2043 C 192.375 0.610596 3.33151 0
M  V30 2044 C 191.421 1.68937 3.91615 0
M  V30 2045 S 192.254 3.28437 4.22953 0
M  V30 2046 C 193.41 2.85283 5.57103 0
M  V30 2047 H 193.643 1.99425 2.20493 0
M  V30 2048 H 191.176 1.12071 1.06205 0
M  V30 2049 H 193.134 0.357778 4.08938 0
M  V30 2050 H 191.795 -0.303364 3.12632 0
M  V30 2051 H 190.988 1.32619 4.86239 0
M  V30 2052 H 190.59 1.89478 3.2245 0
M  V30 2053 H 192.882 2.3121 6.36827 0
M  V30 2054 H 193.825 3.7869 5.98331 0
M  V30 2055 H 194.233 2.24118 5.18104 0
M  V30 2056 N 193.631 -1.12557 1.10312 0
M  V30 2057 C 195.047 -1.36036 0.834649 0
M  V30 2058 C 195.247 -1.93946 -0.546539 0
M  V30 2059 O 194.303 -2.16484 -1.29966 0
M  V30 2060 C 195.616 -2.30312 1.9333 0
M  V30 2061 C 197.164 -2.43906 1.9616 0
M  V30 2062 C 197.639 -3.41496 3.05195 0
M  V30 2063 N 199.13 -3.49053 3.04494 0
M  V30 2064 C 199.865 -4.24471 3.85502 0
M  V30 2065 N 199.361 -5.02966 4.76442 0
M  V30 2066 N 201.154 -4.19864 3.73725 0
M  V30 2067 H 193.305 -0.733246 1.99342 0
M  V30 2068 H 195.568 -0.385234 0.866198 0
M  V30 2069 H 195.274 -1.94933 2.92735 0
M  V30 2070 H 195.148 -3.30421 1.81939 0
M  V30 2071 H 197.535 -2.78567 0.973886 0
M  V30 2072 H 197.616 -1.4369 2.11629 0
M  V30 2073 H 197.26 -3.07565 4.04186 0
M  V30 2074 H 197.19 -4.41539 2.86968 0
M  V30 2075 H 199.681 -2.93053 2.38596 0
M  V30 2076 H 199.994 -5.57846 5.34815 0
M  V30 2077 H 198.339 -5.02167 4.80472 0
M  V30 2078 H 201.53 -3.57623 3.02032 0
M  V30 2079 H 201.703 -4.78386 4.37093 0
M  V30 2080 N 195.109 -0.891671 -1.2995 0
M  V30 2081 C 196.52 -0.563104 -1.78006 0
M  V30 2082 C 196.871 0.920978 -1.73241 0
M  V30 2083 O 195.996 1.71987 -1.31337 0
M  V30 2084 C 196.591 -1.01539 -3.23226 0
M  V30 2085 C 195.15 -0.738124 -3.69092 0
M  V30 2086 C 194.297 -1.19461 -2.50249 0
M  V30 2087 H 197.248 -1.07522 -1.16725 0
M  V30 2088 H 197.269 -0.347217 -3.78912 0
M  V30 2089 H 196.781 -2.09555 -3.26662 0
M  V30 2090 H 194.882 0.329766 -3.71138 0
M  V30 2091 H 194.995 -1.33037 -4.60259 0
M  V30 2092 H 193.359 -0.613787 -2.47194 0
M  V30 2093 H 194.142 -2.28265 -2.56417 0
M  V30 2094 N 196.587 1.43421 -0.653314 0
M  V30 2095 C 197.517 2.33487 0.0246656 0
M  V30 2096 C 198.498 1.49475 0.811863 0
M  V30 2097 O 199.683 1.78139 0.773322 0
M  V30 2098 C 196.813 3.32841 0.99166 0
M  V30 2099 C 195.767 4.26842 0.314568 0
M  V30 2100 C 195.093 5.16236 1.39302 0
M  V30 2101 C 196.393 5.16243 -0.793095 0
M  V30 2102 H 198.087 2.90427 -0.727481 0
M  V30 2103 H 195.633 1.39649 -0.351287 0
M  V30 2104 H 197.586 3.94747 1.47487 0
M  V30 2105 H 196.31 2.74158 1.77497 0
M  V30 2106 H 194.969 3.663 -0.148199 0
M  V30 2107 H 194.617 4.53891 2.16776 0
M  V30 2108 H 194.317 5.79948 0.945223 0
M  V30 2109 H 195.841 5.81015 1.87759 0
M  V30 2110 H 197.255 5.71958 -0.392039 0
M  V30 2111 H 195.652 5.88676 -1.16536 0
M  V30 2112 H 196.722 4.55927 -1.65103 0
M  V30 2113 N 198.065 0.39524 1.52563 0
M  V30 2114 C 199.313 -0.184678 2.01254 0
M  V30 2115 C 199.634 -1.46822 1.28329 0
M  V30 2116 O 198.904 -1.91666 0.405094 0
M  V30 2117 H 197.484 -0.0712355 0.743596 0
M  V30 2118 H 200.146 0.528293 1.87603 0
M  V30 2119 H 199.242 -0.390681 3.09645 0
M  V30 2120 N 199.544 -1.57102 0.125237 0
M  V30 2121 C 200.784 -1.97294 -0.534259 0
M  V30 2122 C 201.148 -1.0074 -1.63449 0
M  V30 2123 O 202.349 -1.29893 -2.35332 0
M  V30 2124 C 200.62 -3.41705 -1.04748 0
M  V30 2125 S 202.179 -4.03913 -1.71463 0
M  V30 2126 H 198.997 -0.689517 -0.173458 0
M  V30 2127 H 201.599 -1.94349 0.211797 0
M  V30 2128 H 200.303 -4.09723 -0.235649 0
M  V30 2129 H 199.834 -3.48315 -1.82867 0
M  V30 2130 H 201.849 -3.95182 -3.00077 0
M  V30 2131 N 201.022 0.148545 -1.56898 0
M  V30 2132 C 202.262 0.86765 -1.85071 0
M  V30 2133 C 202.626 1.78417 -0.709317 0
M  V30 2134 O 203.827 2.54261 -0.872049 0
M  V30 2135 C 202.098 1.62306 -3.1842 0
M  V30 2136 S 203.657 2.3878 -3.68143 0
M  V30 2137 H 200.475 0.290174 -0.649092 0
M  V30 2138 H 203.077 0.127755 -1.95082 0
M  V30 2139 H 201.781 0.941192 -3.99462 0
M  V30 2140 H 201.312 2.4039 -3.1141 0
M  V30 2141 H 203.327 3.63942 -3.37285 0
M  V30 2142 N 202.5 1.5196 0.417844 0
M  V30 2143 C 203.433 1.69387 1.52916 0
M  V30 2144 C 204.411 0.541419 1.53321 0
M  V30 2145 O 205.595 0.767695 1.72159 0
M  V30 2146 C 202.722 1.72525 2.91467 0
M  V30 2147 C 201.768 2.93967 3.09008 0
M  V30 2148 S 202.601 4.54461 2.83242 0
M  V30 2149 C 203.757 4.60372 4.24038 0
M  V30 2150 H 203.99 2.63382 1.37903 0
M  V30 2151 H 201.523 1.41889 0.608845 0
M  V30 2152 H 203.481 1.75018 3.7132 0
M  V30 2153 H 202.142 0.796733 3.03827 0
M  V30 2154 H 201.335 2.92619 4.10353 0
M  V30 2155 H 200.937 2.89316 2.37007 0
M  V30 2156 H 203.229 4.37213 5.17544 0
M  V30 2157 H 204.172 5.62273 4.30412 0
M  V30 2158 H 204.58 3.89492 4.08602 0
M  V30 2159 N 203.978 -0.674533 1.42435 0
M  V30 2160 C 205.227 -1.43034 1.42212 0
M  V30 2161 C 205.54 -1.95555 0.0420788 0
M  V30 2162 O 206.746 -2.71374 -0.0827558 0
M  V30 2163 C 205.202 -2.58748 2.50155 0
M  V30 2164 C 204.81 -2.12925 3.94166 0
M  V30 2165 C 206.554 -3.36257 2.59098 0
M  V30 2166 C 204.461 -3.25723 4.93618 0
M  V30 2167 H 203.391 -0.537345 0.528939 0
M  V30 2168 H 206.042 -0.73024 1.68344 0
M  V30 2169 H 204.424 -3.31128 2.17188 0
M  V30 2170 H 205.598 -1.47697 4.36488 0
M  V30 2171 H 203.913 -1.48354 3.89076 0
M  V30 2172 H 206.51 -4.20264 3.30578 0
M  V30 2173 H 206.853 -3.82866 1.63461 0
M  V30 2174 H 207.386 -2.70947 2.9126 0
M  V30 2175 H 204.125 -2.84105 5.90732 0
M  V30 2176 H 203.645 -3.89732 4.55926 0
M  V30 2177 H 205.324 -3.91186 5.15347 0
M  V30 2178 N 205.456 -1.28612 -0.910864 0
M  V30 2179 C 206.386 -1.15326 -2.03032 0
M  V30 2180 C 207.367 -0.0502924 -1.70026 0
M  V30 2181 O 208.552 -0.227797 -1.92859 0
M  V30 2182 C 205.682 -0.817343 -3.37545 0
M  V30 2183 C 204.636 -1.8754 -3.84724 0
M  V30 2184 C 203.962 -1.39305 -5.16235 0
M  V30 2185 C 205.262 -3.28244 -4.06267 0
M  V30 2186 H 206.956 -2.08975 -2.14406 0
M  V30 2187 H 204.502 -1.00612 -1.03021 0
M  V30 2188 H 206.455 -0.711151 -4.15356 0
M  V30 2189 H 205.179 0.154846 -3.26233 0
M  V30 2190 H 203.838 -1.97079 -3.09121 0
M  V30 2191 H 203.486 -0.409846 -5.01328 0
M  V30 2192 H 203.186 -2.10057 -5.48771 0
M  V30 2193 H 204.71 -1.30014 -5.96598 0
M  V30 2194 H 206.124 -3.21611 -4.74594 0
M  V30 2195 H 204.521 -3.96855 -4.5014 0
M  V30 2196 H 205.591 -3.72048 -3.10979 0
M  V30 2197 N 206.934 1.1197 -1.10907 0
M  V30 2198 C 208.183 1.82947 -0.849302 0
M  V30 2199 C 208.496 1.85275 0.627112 0
M  V30 2200 O 209.702 2.52296 1.00295 0
M  V30 2201 C 208.158 3.28529 -1.46959 0
M  V30 2202 C 207.766 3.34546 -2.97965 0
M  V30 2203 C 209.51 4.04443 -1.28942 0
M  V30 2204 C 207.417 4.74491 -3.53004 0
M  V30 2205 H 206.347 0.685477 -0.314065 0
M  V30 2206 H 208.998 1.2604 -1.33365 0
M  V30 2207 H 207.38 3.85333 -0.912917 0
M  V30 2208 H 208.554 2.87654 -3.59989 0
M  V30 2209 H 206.869 2.72108 -3.15192 0
M  V30 2210 H 209.466 5.07787 -1.67502 0
M  V30 2211 H 209.809 4.15656 -0.231456 0
M  V30 2212 H 210.342 3.5401 -1.81443 0
M  V30 2213 H 207.081 4.68474 -4.58489 0
M  V30 2214 H 206.601 5.21816 -2.9575 0
M  V30 2215 H 208.28 5.4344 -3.51115 0
M  V30 2216 N 208.412 0.89855 1.29475 0
M  V30 2217 C 209.66 0.522847 1.9522 0
M  V30 2218 C 209.981 -0.93371 1.71192 0
M  V30 2219 O 209.251 -1.65823 1.04305 0
M  V30 2220 H 207.831 0.190366 0.722336 0
M  V30 2221 H 210.493 1.14459 1.5775 0
M  V30 2222 H 209.589 0.704476 3.04045 0
M  V30 2223 N 209.89 -1.43072 0.660911 0
M  V30 2224 C 211.139 -2.00942 0.174735 0
M  V30 2225 C 211.452 -1.52797 -1.22117 0
M  V30 2226 O 212.658 -2.02991 -1.80297 0
M  V30 2227 C 211.114 -3.58948 0.261559 0
M  V30 2228 C 210.722 -4.16085 1.66064 0
M  V30 2229 C 212.466 -4.24173 -0.166617 0
M  V30 2230 C 210.373 -5.6641 1.70098 0
M  V30 2231 H 209.303 -0.751483 0.0615631 0
M  V30 2232 H 211.954 -1.63955 0.824069 0
M  V30 2233 H 210.336 -3.93372 -0.455421 0
M  V30 2234 H 211.51 -3.93147 2.40359 0
M  V30 2235 H 209.825 -3.6326 2.03546 0
M  V30 2236 H 212.422 -5.34471 -0.156433 0
M  V30 2237 H 212.765 -3.98647 -1.19943 0
M  V30 2238 H 213.298 -3.94659 0.498875 0
M  V30 2239 H 210.037 -5.96715 2.71315 0
M  V30 2240 H 209.557 -5.91382 1.00139 0
M  V30 2241 H 211.236 -6.30585 1.44816 0
M  V30 2242 N 211.368 -0.403325 -1.52352 0
M  V30 2243 C 212.645 0.232611 -1.94212 0
M  V30 2244 C 213.025 1.63133 -1.33981 0
M  V30 2245 O 212.373 2.22659 -0.513344 0
M  V30 2246 C 212.583 0.244811 -3.4814 0
M  V30 2247 C 213.931 0.46698 -4.22024 0
M  V30 2248 O 214.955 0.324419 -3.5472 0
M  V30 2249 O 213.814 0.74747 -5.41364 0
M  V30 2250 H 210.908 0.148223 -0.813609 0
M  V30 2251 H 213.454 -0.458848 -1.63379 0
M  V30 2252 H 212.226 -0.734378 -3.84347 0
M  V30 2253 H 211.849 0.980611 -3.85318 0
M  V30 2254 N 212.846 1.57033 -0.133567 0
M  V30 2255 C 213.756 2.19632 0.824564 0
M  V30 2256 C 214.772 1.17666 1.28182 0
M  V30 2257 O 215.948 1.50193 1.3418 0
M  V30 2258 C 213.013 2.79499 2.05137 0
M  V30 2259 C 212.074 3.96548 1.64464 0
M  V30 2260 C 211.307 4.5355 2.81297 0
M  V30 2261 O 211.53 4.09438 3.97136 0
M  V30 2262 O 210.464 5.44018 2.57542 0
M  V30 2263 H 214.29 3.01991 0.321766 0
M  V30 2264 H 211.875 1.49112 0.0927889 0
M  V30 2265 H 213.757 3.17602 2.7696 0
M  V30 2266 H 212.432 2.00162 2.54395 0
M  V30 2267 H 211.339 3.63186 0.897048 0
M  V30 2268 H 212.672 4.77364 1.19934 0
M  V30 2269 N 214.325 -0.140222 1.56975 0
M  V30 2270 C 215.235 -1.19223 2.02047 0
M  V30 2271 C 216.251 -1.46612 0.937062 0
M  V30 2272 O 217.427 -1.58148 1.24704 0
M  V30 2273 C 214.492 -2.50414 2.39778 0
M  V30 2274 C 213.553 -2.30612 3.621 0
M  V30 2275 C 212.786 -3.55547 3.98023 0
M  V30 2276 O 213.009 -4.62004 3.34528 0
M  V30 2277 O 211.943 -3.47808 4.91237 0
M  V30 2278 H 215.769 -0.839559 2.91865 0
M  V30 2279 H 213.354 -0.349453 1.45256 0
M  V30 2280 H 215.236 -3.27747 2.64877 0
M  V30 2281 H 213.911 -2.85198 1.53114 0
M  V30 2282 H 212.818 -1.51207 3.4218 0
M  V30 2283 H 214.151 -2.00741 4.49404 0
M  V30 2284 N 215.803 -1.52179 -0.40978 0
M  V30 2285 C 216.735 -1.71703 -1.51825 0
M  V30 2286 C 217.748 -0.597445 -1.51441 0
M  V30 2287 O 218.937 -0.872582 -1.55719 0
M  V30 2288 C 216.037 -1.74171 -2.90719 0
M  V30 2289 C 215.21 -3.03156 -3.15302 0
M  V30 2290 C 214.269 -2.97445 -4.34065 0
M  V30 2291 O 213.295 -3.71352 -4.31377 0
M  V30 2292 N 214.497 -2.15191 -5.39141 0
M  V30 2293 H 217.262 -2.67334 -1.35472 0
M  V30 2294 H 214.823 -1.50409 -0.599069 0
M  V30 2295 H 216.815 -1.67884 -3.68235 0
M  V30 2296 H 215.385 -0.860166 -3.00533 0
M  V30 2297 H 214.605 -3.23097 -2.25836 0
M  V30 2298 H 215.893 -3.88484 -3.28569 0
M  V30 2299 H 215.291 -1.54573 -5.44173 0
M  V30 2300 H 213.848 -2.1476 -6.15403 0
M  V30 2301 N 217.281 0.66697 -1.42791 0
M  V30 2302 C 218.529 1.42417 -1.43394 0
M  V30 2303 C 218.85 1.94925 -0.0542373 0
M  V30 2304 O 218.12 1.73564 0.908415 0
M  V30 2305 H 216.7 0.528515 -0.527902 0
M  V30 2306 H 219.362 0.787562 -1.78279 0
M  V30 2307 H 218.458 2.27333 -2.13837 0
M  V30 2308 N 218.759 1.29093 0.90403 0
M  V30 2309 C 220.17 1.15186 1.46932 0
M  V30 2310 C 220.521 -0.254587 1.94541 0
M  V30 2311 O 219.646 -1.14972 1.83332 0
M  V30 2312 C 220.241 2.08492 2.67051 0
M  V30 2313 C 218.8 1.98621 3.19729 0
M  V30 2314 C 217.947 1.9967 1.92425 0
M  V30 2315 H 220.898 1.41641 0.715789 0
M  V30 2316 H 220.919 1.65461 3.42641 0
M  V30 2317 H 220.431 3.10847 2.3237 0
M  V30 2318 H 218.532 0.993389 3.59114 0
M  V30 2319 H 218.645 2.86068 3.8432 0
M  V30 2320 H 217.009 1.44208 2.09943 0
M  V30 2321 H 217.792 3.03721 1.60026 0
M  V30 2322 N 220.237 -1.11381 1.11499 0
M  V30 2323 C 221.169 -2.17207 0.731704 0
M  V30 2324 C 222.182 -1.61066 -0.236957 0
M  V30 2325 O 223.371 -1.78489 -0.0197591 0
M  V30 2326 C 220.471 -3.38846 0.0607624 0
M  V30 2327 C 219.644 -4.24451 1.0564 0
M  V30 2328 C 218.703 -5.24562 0.4149 0
M  V30 2329 O 217.729 -5.59071 1.069 0
M  V30 2330 N 218.931 -5.74651 -0.821943 0
M  V30 2331 H 221.696 -2.50699 1.64225 0
M  V30 2332 H 219.257 -1.26908 1.00529 0
M  V30 2333 H 221.249 -4.02911 -0.380139 0
M  V30 2334 H 219.819 -3.03411 -0.752376 0
M  V30 2335 H 219.039 -3.56833 1.67524 0
M  V30 2336 H 220.327 -4.78486 1.72998 0
M  V30 2337 H 219.725 -5.48797 -1.37252 0
M  V30 2338 H 218.282 -6.40549 -1.20582 0
M  V30 2339 N 221.715 -0.905404 -1.28997 0
M  V30 2340 C 222.961 -0.535039 -1.95615 0
M  V30 2341 C 223.294 0.917404 -1.71165 0
M  V30 2342 O 222.569 1.65123 -1.02785 0
M  V30 2343 C 222.852 -0.834918 -3.50287 0
M  V30 2344 C 222.705 -2.33948 -3.84172 0
M  V30 2345 C 224.024 -0.325318 -4.38896 0
M  V30 2346 H 221.143 -0.195861 -0.710498 0
M  V30 2347 H 223.785 -1.13313 -1.52513 0
M  V30 2348 H 221.935 -0.325904 -3.87131 0
M  V30 2349 H 223.607 -2.91847 -3.57243 0
M  V30 2350 H 221.85 -2.79789 -3.31513 0
M  V30 2351 H 222.521 -2.49987 -4.92149 0
M  V30 2352 H 224.997 -0.761256 -4.09077 0
M  V30 2353 H 223.873 -0.564295 -5.45992 0
M  V30 2354 H 224.134 0.774144 -4.35269 0
M  V30 2355 N 223.193 1.4272 -0.668489 0
M  V30 2356 C 224.423 2.05668 -0.196063 0
M  V30 2357 C 224.831 1.5028 1.14946 0
M  V30 2358 O 224.174 0.6348 1.72383 0
M  V30 2359 C 224.236 3.59469 -0.0468879 0
M  V30 2360 C 223.9 4.37518 -1.32012 0
M  V30 2361 C 224.897 4.68584 -2.25222 0
M  V30 2362 C 222.582 4.77266 -1.56596 0
M  V30 2363 C 224.576 5.38326 -3.41297 0
M  V30 2364 C 222.263 5.4675 -2.72962 0
M  V30 2365 C 223.261 5.77204 -3.65137 0
M  V30 2366 O 222.949 6.45264 -4.79468 0
M  V30 2367 H 222.681 0.669382 -0.0943599 0
M  V30 2368 H 225.235 1.83954 -0.913788 0
M  V30 2369 H 223.465 3.79817 0.726357 0
M  V30 2370 H 225.154 4.04071 0.384852 0
M  V30 2371 H 225.92 4.38382 -2.07477 0
M  V30 2372 H 221.799 4.52959 -0.857249 0
M  V30 2373 H 225.343 5.62014 -4.13263 0
M  V30 2374 H 221.24 5.76369 -2.90635 0
M  V30 2375 H 222.008 6.63753 -4.78931 0
M  V30 2376 N 224.671 0.411399 1.52136 0
M  V30 2377 C 225.618 -0.412975 2.27075 0
M  V30 2378 C 226.588 -1.03912 1.29582 0
M  V30 2379 O 227.773 -1.06296 1.58448 0
M  V30 2380 C 224.913 -1.52247 3.09701 0
M  V30 2381 C 224.026 -0.917021 4.22155 0
M  V30 2382 C 223.161 -1.9994 4.92135 0
M  V30 2383 C 222.2 -1.37101 5.96548 0
M  V30 2384 N 221.337 -2.39364 6.60038 0
M  V30 2385 H 226.177 0.232499 2.97092 0
M  V30 2386 H 223.714 0.126496 1.46555 0
M  V30 2387 H 225.672 -2.17674 3.55913 0
M  V30 2388 H 224.302 -2.13794 2.41851 0
M  V30 2389 H 223.354 -0.151742 3.80097 0
M  V30 2390 H 224.666 -0.418006 4.97045 0
M  V30 2391 H 223.82 -2.73088 5.41763 0
M  V30 2392 H 222.559 -2.53208 4.16818 0
M  V30 2393 H 221.564 -0.624873 5.46237 0
M  V30 2394 H 222.789 -0.845998 6.7381 0
M  V30 2395 H 220.735 -2.91759 5.87548 0
M  V30 2396 H 220.652 -1.9428 7.3061 0
M  V30 2397 H 221.92 -3.12074 7.14304 0
M  V30 2398 N 226.149 -1.5696 0.141893 0
M  V30 2399 C 227.389 -1.9785 -0.513304 0
M  V30 2400 C 227.753 -1.02467 -1.62371 0
M  V30 2401 O 228.954 -1.32382 -2.33941 0
M  V30 2402 C 227.225 -3.42797 -1.01118 0
M  V30 2403 S 228.784 -4.05709 -1.67169 0
M  V30 2404 H 225.602 -0.691318 -0.166135 0
M  V30 2405 H 228.204 -1.94114 0.232398 0
M  V30 2406 H 226.908 -4.0995 -0.192179 0
M  V30 2407 H 226.439 -3.50235 -1.79162 0
M  V30 2408 H 228.454 -3.98342 -2.95868 0
M  V30 2409 N 227.627 0.131896 -1.57047 0
M  V30 2410 C 228.904 0.871495 -1.75112 0
M  V30 2411 C 229.284 1.9866 -0.713949 0
M  V30 2412 O 228.632 2.26965 0.264447 0
M  V30 2413 C 228.842 1.40007 -3.19686 0
M  V30 2414 C 230.19 1.85752 -3.81813 0
M  V30 2415 O 231.214 1.49715 -3.23209 0
M  V30 2416 O 230.073 2.5226 -4.84796 0
M  V30 2417 H 227.167 0.412919 -0.716538 0
M  V30 2418 H 229.713 0.116641 -1.69299 0
M  V30 2419 H 228.485 0.599404 -3.86682 0
M  V30 2420 H 228.108 2.218 -3.29986 0
M  V30 2421 N 229.106 1.52395 0.401703 0
M  V30 2422 C 230.517 1.58899 0.980202 0
M  V30 2423 C 230.868 0.434032 1.91339 0
M  V30 2424 O 229.993 -0.444619 2.11783 0
M  V30 2425 C 230.588 2.87994 1.78451 0
M  V30 2426 C 229.147 2.96953 2.31292 0
M  V30 2427 C 228.294 2.53903 1.11483 0
M  V30 2428 H 231.245 1.57657 0.18168 0
M  V30 2429 H 231.266 2.73765 2.64259 0
M  V30 2430 H 230.778 3.72035 1.10506 0
M  V30 2431 H 228.879 2.17422 3.02586 0
M  V30 2432 H 228.992 4.01344 2.61649 0
M  V30 2433 H 227.356 2.07925 1.47104 0
M  V30 2434 H 228.139 3.40326 0.450928 0
M  V30 2435 N 230.584 -0.659388 1.43143 0
M  V30 2436 C 231.547 -1.75432 1.47501 0
M  V30 2437 C 232.547 -1.56707 0.360512 0
M  V30 2438 O 233.737 -1.62717 0.622002 0
M  V30 2439 C 230.869 -3.14239 1.32162 0
M  V30 2440 H 232.062 -1.7295 2.45006 0
M  V30 2441 H 229.615 -0.870469 1.29817 0
M  V30 2442 H 230.35 -3.22336 0.356401 0
M  V30 2443 H 230.135 -3.29235 2.12948 0
M  V30 2444 H 231.625 -3.94094 1.3813 0
M  V30 2445 N 232.062 -1.29571 -0.897171 0
M  V30 2446 C 233.31 -1.17456 -1.64464 0
M  V30 2447 C 233.631 0.273698 -1.9307 0
M  V30 2448 O 232.901 1.18684 -1.55855 0
M  V30 2449 H 231.481 -0.431706 -0.609622 0
M  V30 2450 H 234.143 -1.62531 -1.07562 0
M  V30 2451 H 233.239 -1.72648 -2.59998 0
M  V30 2452 N 233.54 1.10788 -1.12088 0
M  V30 2453 C 234.77 1.86191 -0.895351 0
M  V30 2454 C 235.178 1.80763 0.558702 0
M  V30 2455 O 234.521 1.19188 1.39785 0
M  V30 2456 C 234.583 3.35659 -1.28737 0
M  V30 2457 C 234.247 3.64849 -2.75198 0
M  V30 2458 C 235.244 3.61757 -3.734 0
M  V30 2459 C 232.929 3.93641 -3.12013 0
M  V30 2460 C 234.923 3.87045 -5.06434 0
M  V30 2461 C 232.61 4.18585 -4.4523 0
M  V30 2462 C 233.608 4.15277 -5.42249 0
M  V30 2463 O 233.296 4.3959 -6.73065 0
M  V30 2464 H 233.028 0.595425 -0.32007 0
M  V30 2465 H 235.582 1.40992 -1.49367 0
M  V30 2466 H 233.812 3.81497 -0.63224 0
M  V30 2467 H 235.501 3.92441 -1.03656 0
M  V30 2468 H 236.267 3.39557 -3.46303 0
M  V30 2469 H 232.146 3.95348 -2.37109 0
M  V30 2470 H 235.69 3.84378 -5.82151 0
M  V30 2471 H 231.587 4.40264 -4.72057 0
M  V30 2472 H 232.355 4.57123 -6.78956 0
M  V30 2473 N 235.018 0.912232 1.28515 0
M  V30 2474 C 236.248 0.559604 1.98877 0
M  V30 2475 C 236.656 -0.863113 1.68366 0
M  V30 2476 O 235.999 -1.58304 0.931969 0
M  V30 2477 C 236.061 0.68703 3.52874 0
M  V30 2478 C 235.725 2.07901 4.06972 0
M  V30 2479 C 236.722 3.05157 4.20922 0
M  V30 2480 C 234.407 2.39178 4.417 0
M  V30 2481 C 236.401 4.31806 4.68852 0
M  V30 2482 C 234.088 3.66068 4.89324 0
M  V30 2483 C 235.086 4.62195 5.02856 0
M  V30 2484 O 234.774 5.86829 5.49442 0
M  V30 2485 H 234.506 0.212191 0.641834 0
M  V30 2486 H 237.06 1.22712 1.64715 0
M  V30 2487 H 235.29 -0.0375486 3.86682 0
M  V30 2488 H 236.979 0.341727 4.04459 0
M  V30 2489 H 237.745 2.82311 3.94367 0
M  V30 2490 H 233.624 1.65109 4.30418 0
M  V30 2491 H 237.168 5.06842 4.79329 0
M  V30 2492 H 233.065 3.88739 5.15318 0
M  V30 2493 H 233.833 5.89597 5.6773 0
M  V30 2494 N 236.496 -1.42363 0.676048 0
M  V30 2495 C 237.736 -2.03392 0.20273 0
M  V30 2496 C 238.1 -1.52306 -1.16906 0
M  V30 2497 O 239.301 -2.05129 -1.73711 0
M  V30 2498 C 237.572 -3.56614 0.236947 0
M  V30 2499 S 239.131 -4.38489 -0.165186 0
M  V30 2500 H 235.949 -0.70611 0.0832418 0
M  V30 2501 H 238.551 -1.74093 0.88948 0
M  V30 2502 H 237.255 -3.91293 1.23767 0
M  V30 2503 H 236.786 -3.90587 -0.469596 0
M  V30 2504 H 238.801 -4.76093 -1.39822 0
M  V30 2505 N 237.974 -0.419461 -1.51915 0
M  V30 2506 C 239.222 0.152637 -2.01523 0
M  V30 2507 C 239.543 1.44762 -1.30649 0
M  V30 2508 O 238.813 1.90997 -0.435535 0
M  V30 2509 H 237.393 0.0593966 -0.744635 0
M  V30 2510 H 240.055 -0.558073 -1.86739 0
M  V30 2511 H 239.151 0.341369 -3.10227 0
M  V30 2512 N 239.452 1.56882 -0.150215 0
M  V30 2513 C 240.699 1.96228 0.500093 0
M  V30 2514 C 241.027 1.03522 1.64661 0
M  V30 2515 O 240.282 0.0650683 1.95592 0
M  V30 2516 C 240.581 3.41801 1.04437 0
M  V30 2517 C 240.247 4.50897 0.0159671 0
M  V30 2518 C 238.909 4.8046 -0.266731 0
M  V30 2519 C 241.261 5.16703 -0.683192 0
M  V30 2520 C 238.589 5.73135 -1.25434 0
M  V30 2521 C 240.941 6.10441 -1.65964 0
M  V30 2522 C 239.605 6.38382 -1.95 0
M  V30 2523 H 238.875 0.718048 0.182997 0
M  V30 2524 H 241.522 1.90019 -0.237724 0
M  V30 2525 H 239.827 3.44857 1.85959 0
M  V30 2526 H 241.524 3.69573 1.55618 0
M  V30 2527 H 238.114 4.27891 0.246485 0
M  V30 2528 H 242.298 4.93993 -0.477983 0
M  V30 2529 H 237.554 5.93074 -1.48571 0
M  V30 2530 H 241.728 6.60507 -2.20689 0
M  V30 2531 H 239.355 7.09996 -2.71679 0
M  V30 2532 N 240.93 -0.123565 1.57115 0
M  V30 2533 C 241.877 -1.15177 2.00007 0
M  V30 2534 C 242.847 -1.41403 0.871454 0
M  V30 2535 O 244.032 -1.53346 1.13533 0
M  V30 2536 C 241.172 -2.47436 2.40561 0
M  V30 2537 C 240.285 -2.28184 3.66819 0
M  V30 2538 C 239.42 -3.53641 3.96373 0
M  V30 2539 C 238.459 -3.29528 5.15827 0
M  V30 2540 N 237.596 -4.47175 5.41275 0
M  V30 2541 H 242.436 -0.779008 2.87638 0
M  V30 2542 H 239.973 -0.373166 1.42288 0
M  V30 2543 H 241.931 -3.24584 2.62109 0
M  V30 2544 H 240.561 -2.82614 1.55978 0
M  V30 2545 H 239.613 -1.41976 3.52912 0
M  V30 2546 H 240.925 -2.0634 4.5412 0
M  V30 2547 H 240.079 -4.39209 4.18545 0
M  V30 2548 H 238.818 -3.78512 3.07538 0
M  V30 2549 H 237.823 -2.42349 4.93505 0
M  V30 2550 H 239.048 -3.06031 6.06236 0
M  V30 2551 H 236.994 -4.72175 4.55397 0
M  V30 2552 H 236.911 -4.28419 6.22891 0
M  V30 2553 H 238.179 -5.3389 5.67963 0
M  V30 2554 N 242.408 -1.52605 -0.393616 0
M  V30 2555 C 243.371 -1.76415 -1.46323 0
M  V30 2556 C 244.371 -0.634126 -1.47768 0
M  V30 2557 O 245.561 -0.902142 -1.4902 0
M  V30 2558 C 242.693 -1.8607 -2.85641 0
M  V30 2559 H 243.886 -2.71916 -1.26498 0
M  V30 2560 H 241.439 -1.43257 -0.625073 0
M  V30 2561 H 242.174 -0.925378 -3.10817 0
M  V30 2562 H 241.959 -2.68235 -2.85993 0
M  V30 2563 H 243.449 -2.06179 -3.63153 0
M  V30 2564 N 243.887 0.651787 -1.4349 0
M  V30 2565 C 245.115 1.43937 -1.48626 0
M  V30 2566 C 245.53 1.8851 -0.104587 0
M  V30 2567 O 244.887 1.5958 0.885464 0
M  V30 2568 C 244.938 2.6734 -2.43334 0
M  V30 2569 O 244.659 2.24631 -3.76128 0
M  V30 2570 C 246.16 3.60683 -2.57726 0
M  V30 2571 H 243.38 0.44213 -0.504739 0
M  V30 2572 H 245.924 0.798944 -1.88248 0
M  V30 2573 H 244.079 3.2752 -2.06904 0
M  V30 2574 H 244.493 3.04485 -4.2707 0
M  V30 2575 H 245.967 4.43933 -3.28067 0
M  V30 2576 H 246.444 4.08126 -1.62265 0
M  V30 2577 H 247.05 3.06384 -2.94973 0
M  V30 2578 N 245.365 1.30045 0.890287 0
M  V30 2579 C 246.328 1.15963 1.977 0
M  V30 2580 C 247.328 0.0923777 1.60534 0
M  V30 2581 O 248.518 0.340071 1.70848 0
M  V30 2582 C 245.65 0.775451 3.31963 0
M  V30 2583 H 246.843 2.12502 2.11619 0
M  V30 2584 H 244.396 1.13366 1.07601 0
M  V30 2585 H 245.131 -0.189671 3.23745 0
M  V30 2586 H 244.916 1.54668 3.60306 0
M  V30 2587 H 246.406 0.700251 4.11687 0
M  V30 2588 N 246.843 -1.10192 1.12674 0
M  V30 2589 C 247.806 -2.14786 0.799979 0
M  V30 2590 C 248.806 -1.59711 -0.18685 0
M  V30 2591 O 249.996 -1.74156 0.0392558 0
M  V30 2592 C 247.128 -3.40374 0.189228 0
M  V30 2593 H 248.321 -2.45203 1.72671 0
M  V30 2594 H 245.874 -1.25597 0.930326 0
M  V30 2595 H 246.609 -3.15577 -0.747107 0
M  V30 2596 H 246.394 -3.81637 0.899766 0
M  V30 2597 H 247.884 -4.17594 -0.0228143 0
M  V30 2598 N 248.321 -0.919034 -1.28029 0
M  V30 2599 C 249.569 -0.553838 -1.94363 0
M  V30 2600 C 249.89 0.906357 -1.72656 0
M  V30 2601 O 249.16 1.64143 -1.0693 0
M  V30 2602 H 247.74 -0.201834 -0.719216 0
M  V30 2603 H 250.402 -1.16954 -1.55909 0
M  V30 2604 H 249.498 -0.752758 -3.02886 0
M  V30 2605 N 249.799 1.42003 -0.683588 0
M  V30 2606 C 251.045 2.01712 -0.209825 0
M  V30 2607 C 251.378 1.53968 1.18353 0
M  V30 2608 O 250.653 0.745661 1.79639 0
M  V30 2609 C 250.936 3.59202 -0.254197 0
M  V30 2610 C 250.789 4.17102 -1.68363 0
M  V30 2611 C 252.108 4.38344 0.392709 0
M  V30 2612 H 249.227 0.732891 -0.0777189 0
M  V30 2613 H 251.869 1.68909 -0.87004 0
M  V30 2614 H 250.019 3.87278 0.307954 0
M  V30 2615 H 251.691 3.99946 -2.29871 0
M  V30 2616 H 249.934 3.72597 -2.22157 0
M  V30 2617 H 250.605 5.26249 -1.6663 0
M  V30 2618 H 253.081 4.16011 -0.0859162 0
M  V30 2619 H 251.957 5.47901 0.331063 0
M  V30 2620 H 252.218 4.16887 1.47164 0
M  V30 2621 N 251.277 0.427512 1.51691 0
M  V30 2622 C 252.224 -0.388867 2.275 0
M  V30 2623 C 253.194 -1.02532 1.30677 0
M  V30 2624 O 254.379 -1.0461 1.59566 0
M  V30 2625 C 251.519 -1.48954 3.11298 0
M  V30 2626 C 250.632 -0.872194 4.23104 0
M  V30 2627 C 249.767 -1.94709 4.94228 0
M  V30 2628 C 248.806 -1.30766 5.97969 0
M  V30 2629 N 247.943 -2.32349 6.62539 0
M  V30 2630 H 252.783 0.263997 2.96828 0
M  V30 2631 H 250.32 0.142033 1.46413 0
M  V30 2632 H 252.278 -2.13887 3.58201 0
M  V30 2633 H 250.908 -2.11217 2.44105 0
M  V30 2634 H 249.96 -0.111419 3.80237 0
M  V30 2635 H 251.272 -0.365264 4.97461 0
M  V30 2636 H 250.426 -2.67327 5.44629 0
M  V30 2637 H 249.165 -2.48773 4.1948 0
M  V30 2638 H 248.17 -0.566902 5.4687 0
M  V30 2639 H 249.395 -0.774483 6.74669 0
M  V30 2640 H 247.341 -2.85511 5.90609 0
M  V30 2641 H 247.258 -1.8652 7.3263 0
M  V30 2642 H 248.526 -3.04481 7.17574 0
M  V30 2643 N 252.755 -1.56801 0.158532 0
M  V30 2644 C 253.687 -2.14488 -0.807923 0
M  V30 2645 C 254.7 -1.09721 -1.20271 0
M  V30 2646 O 255.889 -1.36956 -1.14478 0
M  V30 2647 C 252.989 -2.66217 -2.09718 0
M  V30 2648 C 252.162 -3.95507 -1.86796 0
M  V30 2649 C 251.221 -4.3243 -2.99818 0
M  V30 2650 O 250.247 -5.00543 -2.71008 0
M  V30 2651 N 251.449 -3.92947 -4.27285 0
M  V30 2652 H 254.214 -2.98042 -0.314816 0
M  V30 2653 H 251.775 -1.61881 -0.0246692 0
M  V30 2654 H 253.767 -2.87924 -2.84398 0
M  V30 2655 H 252.337 -1.87324 -2.50257 0
M  V30 2656 H 251.557 -3.82309 -0.96089 0
M  V30 2657 H 252.845 -4.79972 -1.68833 0
M  V30 2658 H 252.243 -3.38087 -4.53557 0
M  V30 2659 H 250.8 -4.19681 -4.9871 0
M  V30 2660 N 254.233 0.115231 -1.57178 0
M  V30 2661 C 255.461 0.836437 -1.89239 0
M  V30 2662 C 255.876 1.73256 -0.750175 0
M  V30 2663 O 255.233 1.80357 0.278832 0
M  V30 2664 C 255.284 1.66671 -3.20785 0
M  V30 2665 O 255.005 0.806652 -4.3061 0
M  V30 2666 C 256.506 2.49274 -3.66575 0
M  V30 2667 H 253.726 0.240253 -0.626514 0
M  V30 2668 H 256.27 0.0984932 -2.04263 0
M  V30 2669 H 254.425 2.35737 -3.0742 0
M  V30 2670 H 254.839 1.37969 -5.06028 0
M  V30 2671 H 256.313 3.03055 -4.6137 0
M  V30 2672 H 256.79 3.26807 -2.93417 0
M  V30 2673 H 257.396 1.85443 -3.82741 0
M  V30 2674 N 255.711 1.52812 0.385517 0
M  V30 2675 C 256.621 1.80766 1.49535 0
M  V30 2676 C 257.637 0.694651 1.59532 0
M  V30 2677 O 258.813 0.982611 1.75803 0
M  V30 2678 C 255.878 1.97381 2.85029 0
M  V30 2679 C 254.939 3.21295 2.84724 0
M  V30 2680 C 254.172 3.37108 4.13756 0
M  V30 2681 O 254.395 2.5765 5.08893 0
M  V30 2682 O 253.329 4.30378 4.20783 0
M  V30 2683 H 257.155 2.75015 1.28842 0
M  V30 2684 H 254.74 1.37946 0.573697 0
M  V30 2685 H 256.622 2.09996 3.65349 0
M  V30 2686 H 255.297 1.06322 3.05741 0
M  V30 2687 H 254.204 3.1412 2.03174 0
M  V30 2688 H 255.537 4.12212 2.68965 0
M  V30 2689 N 257.189 -0.644168 1.43834 0
M  V30 2690 C 258.414 -1.43642 1.49605 0
M  V30 2691 C 258.839 -1.8773 0.117913 0
M  V30 2692 O 258.197 -1.57938 -0.890239 0
M  V30 2693 C 258.245 -2.6416 2.45463 0
M  V30 2694 O 257.349 -3.63538 1.94714 0
M  V30 2695 H 256.69 -0.430329 0.50568 0
M  V30 2696 H 259.22 -0.787448 1.8884 0
M  V30 2697 H 259.23 -3.11864 2.63068 0
M  V30 2698 H 257.905 -2.31414 3.45572 0
M  V30 2699 H 256.482 -3.2273 1.86814 0
M  V30 2700 N 258.668 -1.30515 -0.883378 0
M  V30 2701 C 259.896 -1.22359 -1.66841 0
M  V30 2702 C 260.311 0.213296 -1.87591 0
M  V30 2703 O 259.668 1.14075 -1.42454 0
M  V30 2704 C 259.719 -1.95011 -3.04389 0
M  V30 2705 O 259.44 -3.3309 -2.84575 0
M  V30 2706 C 260.941 -1.93532 -3.98824 0
M  V30 2707 H 258.161 -0.423371 -0.520575 0
M  V30 2708 H 260.705 -1.72167 -1.10357 0
M  V30 2709 H 258.86 -1.48997 -3.57601 0
M  V30 2710 H 259.274 -3.69907 -3.71846 0
M  V30 2711 H 260.748 -2.48902 -4.92699 0
M  V30 2712 H 261.225 -0.914627 -4.29571 0
M  V30 2713 H 261.831 -2.39364 -3.51547 0
M  V30 2714 N 260.146 1.09593 -1.13257 0
M  V30 2715 C 261.371 1.8604 -0.916732 0
M  V30 2716 C 261.796 1.80504 0.529146 0
M  V30 2717 O 261.154 1.18127 1.37534 0
M  V30 2718 C 261.202 3.32017 -1.40703 0
M  V30 2719 O 260.306 4.08141 -0.591153 0
M  V30 2720 H 259.647 0.576943 -0.328683 0
M  V30 2721 H 262.177 1.38405 -1.50682 0
M  V30 2722 H 262.187 3.82865 -1.4099 0
M  V30 2723 H 260.862 3.35361 -2.45979 0
M  V30 2724 H 259.439 3.67084 -0.656005 0
M  V30 2725 N 261.624 0.925811 1.2754 0
M  V30 2726 C 262.871 0.565255 1.94451 0
M  V30 2727 C 263.199 -0.89316 1.7278 0
M  V30 2728 O 262.454 -1.65213 1.04895 0
M  V30 2729 C 262.753 0.835296 3.47502 0
M  V30 2730 C 262.419 2.27515 3.89291 0
M  V30 2731 C 261.081 2.66879 4.00411 0
M  V30 2732 C 263.433 3.21158 4.10496 0
M  V30 2733 C 260.761 3.99014 4.30122 0
M  V30 2734 C 263.113 4.52871 4.4169 0
M  V30 2735 C 261.777 4.92072 4.51023 0
M  V30 2736 H 261.047 0.206841 0.711546 0
M  V30 2737 H 263.694 1.16942 1.51647 0
M  V30 2738 H 261.999 0.148442 3.91519 0
M  V30 2739 H 263.696 0.535322 3.97411 0
M  V30 2740 H 260.286 1.95976 3.81171 0
M  V30 2741 H 264.47 2.9195 4.01346 0
M  V30 2742 H 259.726 4.2907 4.35556 0
M  V30 2743 H 263.9 5.25436 4.57045 0
M  V30 2744 H 261.527 5.9449 4.738 0
M  V30 2745 N 263.102 -1.41638 0.69111 0
M  V30 2746 C 264.032 -2.3347 0.037248 0
M  V30 2747 C 265.013 -1.51575 -0.771947 0
M  V30 2748 O 266.198 -1.80126 -0.72582 0
M  V30 2749 C 263.328 -3.35354 -0.903064 0
M  V30 2750 C 262.282 -4.27526 -0.201288 0
M  V30 2751 C 261.608 -5.19747 -1.25565 0
M  V30 2752 C 262.908 -5.13959 0.929689 0
M  V30 2753 H 264.602 -2.88397 0.804227 0
M  V30 2754 H 262.148 -1.38669 0.388189 0
M  V30 2755 H 264.101 -3.98519 -1.36969 0
M  V30 2756 H 262.825 -2.78767 -1.70166 0
M  V30 2757 H 261.484 -3.65779 0.245265 0
M  V30 2758 H 261.132 -4.59479 -2.04666 0
M  V30 2759 H 260.832 -5.8225 -0.791128 0
M  V30 2760 H 262.356 -5.85789 -1.72288 0
M  V30 2761 H 263.77 -5.70718 0.543546 0
M  V30 2762 H 262.167 -5.85379 1.32103 0
M  V30 2763 H 263.237 -4.51389 1.77133 0
M  V30 2764 N 264.58 -0.43555 -1.51462 0
M  V30 2765 C 265.49 0.383001 -2.31453 0
M  V30 2766 C 266.506 1.02931 -1.4029 0
M  V30 2767 O 267.682 1.02507 -1.73362 0
M  V30 2768 C 264.747 1.47043 -3.13973 0
M  V30 2769 C 263.808 0.844433 -4.20913 0
M  V30 2770 C 263.041 1.88004 -4.9949 0
M  V30 2771 O 263.264 3.10199 -4.78678 0
M  V30 2772 O 262.198 1.47157 -5.83634 0
M  V30 2773 H 266.024 -0.269964 -3.02498 0
M  V30 2774 H 263.609 -0.19813 -1.4808 0
M  V30 2775 H 265.491 2.10113 -3.65281 0
M  V30 2776 H 264.166 2.10751 -2.45695 0
M  V30 2777 H 263.073 0.175729 -3.73687 0
M  V30 2778 H 264.406 0.250869 -4.9156 0
M  V30 2779 N 266.058 1.56714 -0.166846 0
M  V30 2780 C 267.005 2.17746 0.765193 0
M  V30 2781 C 267.975 1.11614 1.23011 0
M  V30 2782 O 269.16 1.39745 1.29908 0
M  V30 2783 C 266.3 2.81882 1.9909 0
M  V30 2784 C 265.413 4.02462 1.56997 0
M  V30 2785 C 264.548 4.54537 2.749 0
M  V30 2786 C 263.587 5.67538 2.29275 0
M  V30 2787 N 262.724 6.14142 3.40255 0
M  V30 2788 H 267.564 2.97048 0.237952 0
M  V30 2789 H 265.101 1.4672 0.105725 0
M  V30 2790 H 267.059 3.17221 2.70974 0
M  V30 2791 H 265.689 2.05191 2.49192 0
M  V30 2792 H 264.741 3.72973 0.748037 0
M  V30 2793 H 266.053 4.84273 1.19503 0
M  V30 2794 H 265.207 4.92035 3.54946 0
M  V30 2795 H 263.946 3.71774 3.1565 0
M  V30 2796 H 262.951 5.29597 1.47674 0
M  V30 2797 H 264.176 6.52099 1.89588 0
M  V30 2798 H 262.122 5.3431 3.8059 0
M  V30 2799 H 262.039 6.9093 3.06841 0
M  V30 2800 H 263.307 6.56289 4.206 0
M  V30 2801 N 267.536 -0.106894 1.57237 0
M  V30 2802 C 268.483 -1.13049 2.01217 0
M  V30 2803 C 269.453 -1.40471 0.886403 0
M  V30 2804 O 270.638 -1.52133 1.15153 0
M  V30 2805 C 267.778 -2.4487 2.43172 0
M  V30 2806 C 266.891 -2.24281 3.69218 0
M  V30 2807 C 266.026 -3.49417 4.00101 0
M  V30 2808 C 265.065 -3.24038 5.19294 0
M  V30 2809 N 264.202 -4.41409 5.45988 0
M  V30 2810 H 269.042 -0.748456 2.88448 0
M  V30 2811 H 266.579 -0.358054 1.42676 0
M  V30 2812 H 268.537 -3.21786 2.65537 0
M  V30 2813 H 267.167 -2.80944 1.58967 0
M  V30 2814 H 266.219 -1.38224 3.54398 0
M  V30 2815 H 267.531 -2.01512 4.56283 0
M  V30 2816 H 266.685 -4.34746 4.2318 0
M  V30 2817 H 265.424 -3.75229 3.11535 0
M  V30 2818 H 264.429 -2.37102 4.96047 0
M  V30 2819 H 265.654 -2.99584 6.09447 0
M  V30 2820 H 263.6 -4.67319 4.60379 0
M  V30 2821 H 263.517 -4.21788 6.274 0
M  V30 2822 H 264.785 -5.27836 5.73593 0
M  V30 2823 N 269.014 -1.53014 -0.377408 0
M  V30 2824 C 270.26 -1.68872 -1.12294 0
M  V30 2825 C 270.593 -0.433224 -1.89306 0
M  V30 2826 O 269.868 0.569258 -1.85983 0
M  V30 2827 C 270.151 -2.93115 -2.09179 0
M  V30 2828 C 270.004 -4.28794 -1.35853 0
M  V30 2829 C 271.323 -3.12928 -3.09458 0
M  V30 2830 H 268.442 -0.614518 -0.406862 0
M  V30 2831 H 271.084 -1.85633 -0.40503 0
M  V30 2832 H 269.234 -2.78956 -2.70399 0
M  V30 2833 H 270.906 -4.54742 -0.775082 0
M  V30 2834 H 269.149 -4.28744 -0.660364 0
M  V30 2835 H 269.82 -5.11837 -2.06706 0
M  V30 2836 H 272.296 -3.26194 -2.58334 0
M  V30 2837 H 271.172 -4.01316 -3.74482 0
M  V30 2838 H 271.433 -2.27669 -3.78971 0
M  V30 2839 N 270.492 0.636531 -1.44174 0
M  V30 2840 C 271.439 1.74875 -1.50624 0
M  V30 2841 C 272.409 1.62275 -0.35442 0
M  V30 2842 O 273.594 1.82276 -0.563908 0
M  V30 2843 C 270.734 3.13102 -1.45125 0
M  V30 2844 C 269.847 3.36717 -2.7064 0
M  V30 2845 C 268.982 4.64885 -2.57013 0
M  V30 2846 C 268.021 4.8166 -3.77717 0
M  V30 2847 N 267.158 6.01101 -3.62798 0
M  V30 2848 H 271.998 1.68697 -2.45653 0
M  V30 2849 H 269.535 0.823004 -1.21922 0
M  V30 2850 H 271.493 3.93034 -1.39929 0
M  V30 2851 H 270.123 3.18308 -0.536671 0
M  V30 2852 H 269.175 2.50763 -2.86046 0
M  V30 2853 H 270.487 3.44993 -3.60252 0
M  V30 2854 H 269.641 5.52969 -2.49619 0
M  V30 2855 H 268.38 4.58957 -1.64953 0
M  V30 2856 H 267.385 3.92007 -3.85501 0
M  V30 2857 H 268.61 4.89406 -4.70807 0
M  V30 2858 H 266.556 5.96273 -2.73486 0
M  V30 2859 H 266.473 6.10409 -4.46023 0
M  V30 2860 H 267.741 6.91761 -3.59286 0
M  V30 2861 N 271.97 1.30982 0.876444 0
M  V30 2862 C 272.917 1.18085 1.98304 0
M  V30 2863 C 273.887 0.0682263 1.6596 0
M  V30 2864 O 275.072 0.239937 1.89285 0
M  V30 2865 C 272.212 0.887475 3.33493 0
M  V30 2866 C 271.325 2.08281 3.78475 0
M  V30 2867 C 270.46 1.72678 5.0235 0
M  V30 2868 C 269.499 2.88657 5.39762 0
M  V30 2869 N 268.636 2.53292 6.54819 0
M  V30 2870 H 273.476 2.1275 2.08666 0
M  V30 2871 H 271.013 1.05839 1.02159 0
M  V30 2872 H 272.971 0.697961 4.1132 0
M  V30 2873 H 271.601 -0.022315 3.22792 0
M  V30 2874 H 270.653 2.3833 2.96484 0
M  V30 2875 H 271.965 2.95108 4.02135 0
M  V30 2876 H 271.119 1.50151 5.87826 0
M  V30 2877 H 269.858 0.830327 4.8058 0
M  V30 2878 H 268.863 3.1184 4.52809 0
M  V30 2879 H 270.088 3.79002 5.63502 0
M  V30 2880 H 268.034 1.66163 6.34607 0
M  V30 2881 H 267.951 3.3365 6.7839 0
M  V30 2882 H 269.219 2.34143 7.43503 0
M  V30 2883 N 273.449 -1.08991 1.13837 0
M  V30 2884 C 274.396 -2.15748 0.819835 0
M  V30 2885 C 275.366 -1.64636 -0.220026 0
M  V30 2886 O 276.551 -1.90582 -0.0912757 0
M  V30 2887 C 273.691 -3.4382 0.296913 0
M  V30 2888 C 272.804 -4.0881 1.39636 0
M  V30 2889 C 271.939 -5.24655 0.831314 0
M  V30 2890 C 270.978 -5.81575 1.90886 0
M  V30 2891 N 270.115 -6.88774 1.36142 0
M  V30 2892 H 274.955 -2.42338 1.73426 0
M  V30 2893 H 272.492 -1.18935 0.865613 0
M  V30 2894 H 274.45 -4.17193 -0.0244339 0
M  V30 2895 H 273.08 -3.17535 -0.580628 0
M  V30 2896 H 272.132 -3.33258 1.83422 0
M  V30 2897 H 273.444 -4.47141 2.21058 0
M  V30 2898 H 272.598 -6.04942 0.461515 0
M  V30 2899 H 271.337 -4.87698 -0.013932 0
M  V30 2900 H 270.342 -4.99946 2.28767 0
M  V30 2901 H 271.567 -6.20592 2.75758 0
M  V30 2902 H 269.513 -6.53788 0.538254 0
M  V30 2903 H 269.43 -7.25898 2.11208 0
M  V30 2904 H 270.698 -7.72806 1.01933 0
M  V30 2905 N 274.927 -0.932562 -1.27047 0
M  V30 2906 C 276.174 -0.575559 -1.94148 0
M  V30 2907 C 276.502 0.883984 -1.73251 0
M  V30 2908 O 275.757 1.64655 -1.0577 0
M  V30 2909 C 276.056 -0.853713 -3.47054 0
M  V30 2910 C 275.722 -2.29577 -3.88079 0
M  V30 2911 C 274.384 -2.68999 -3.9899 0
M  V30 2912 C 276.736 -3.23331 -4.08787 0
M  V30 2913 C 274.064 -4.01289 -4.28 0
M  V30 2914 C 276.416 -4.55207 -4.39282 0
M  V30 2915 C 275.08 -4.94457 -4.48407 0
M  V30 2916 H 274.35 -0.210612 -0.710439 0
M  V30 2917 H 276.997 -1.17744 -1.51025 0
M  V30 2918 H 275.302 -0.169204 -3.91434 0
M  V30 2919 H 276.999 -0.55639 -3.97121 0
M  V30 2920 H 273.589 -1.97994 -3.80127 0
M  V30 2921 H 277.773 -2.94074 -3.99793 0
M  V30 2922 H 273.029 -4.31374 -4.33275 0
M  V30 2923 H 277.203 -5.27852 -4.54252 0
M  V30 2924 H 274.83 -5.96994 -4.7064 0
M  V30 2925 N 276.405 1.4127 -0.698611 0
M  V30 2926 C 277.682 1.94955 -0.158762 0
M  V30 2927 C 278.062 1.63781 1.33188 0
M  V30 2928 O 277.41 0.946423 2.07979 0
M  V30 2929 C 277.62 3.46044 -0.453309 0
M  V30 2930 C 278.968 4.22872 -0.382707 0
M  V30 2931 O 279.992 3.54076 -0.388396 0
M  V30 2932 O 278.851 5.45407 -0.345463 0
M  V30 2933 H 275.945 0.82683 -0.0167505 0
M  V30 2934 H 278.491 1.50971 -0.77498 0
M  V30 2935 H 277.263 3.62028 -1.48498 0
M  V30 2936 H 276.886 3.97128 0.19373 0
M  V30 2937 N 277.883 0.443576 1.51229 0
M  V30 2938 C 279.129 -0.11321 2.03085 0
M  V30 2939 C 279.484 -1.39841 1.32145 0
M  V30 2940 O 278.777 -1.86723 0.429542 0
M  V30 2941 C 278.971 -0.380579 3.55368 0
M  V30 2942 C 278.8 0.877157 4.41062 0
M  V30 2943 C 277.57 1.4125 4.85156 0
M  V30 2944 C 279.768 1.76503 4.83064 0
M  V30 2945 N 277.75 2.62213 5.55083 0
M  V30 2946 C 279.121 2.82067 5.52122 0
M  V30 2947 C 281.176 1.7787 4.65045 0
M  V30 2948 C 279.879 3.88952 6.05069 0
M  V30 2949 C 281.905 2.83694 5.18914 0
M  V30 2950 C 281.267 3.87978 5.87922 0
M  V30 2951 H 277.366 -0.00210178 0.781997 0
M  V30 2952 H 279.95 0.605641 1.85041 0
M  V30 2953 H 278.121 -1.06847 3.73414 0
M  V30 2954 H 279.853 -0.929274 3.93887 0
M  V30 2955 H 276.608 0.965542 4.63653 0
M  V30 2956 H 277.032 3.23568 5.9467 0
M  V30 2957 H 281.674 0.985744 4.11148 0
M  V30 2958 H 279.392 4.69082 6.58018 0
M  V30 2959 H 282.978 2.85702 5.06819 0
M  V30 2960 H 281.858 4.68517 6.28857 0
M  V30 2961 N 279.361 -1.56624 0.175154 0
M  V30 2962 C 280.589 -2.01374 -0.474971 0
M  V30 2963 C 281.004 -1.05537 -1.56548 0
M  V30 2964 O 280.361 -0.0568668 -1.82411 0
M  V30 2965 C 280.412 -3.45923 -1.04975 0
M  V30 2966 O 280.133 -4.381 -0.00276605 0
M  V30 2967 C 281.634 -4.06093 -1.77773 0
M  V30 2968 H 278.854 -0.659962 -0.121206 0
M  V30 2969 H 281.398 -2.02601 0.27801 0
M  V30 2970 H 279.553 -3.45458 -1.75321 0
M  V30 2971 H 279.967 -5.22753 -0.427681 0
M  V30 2972 H 281.441 -5.09147 -2.13245 0
M  V30 2973 H 281.918 -3.48405 -2.67414 0
M  V30 2974 H 282.524 -4.10272 -1.12059 0
M  V30 2975 N 280.839 0.0985539 -1.57292 0
M  V30 2976 C 282.086 0.802678 -1.85912 0
M  V30 2977 C 282.414 1.78901 -0.763186 0
M  V30 2978 O 281.669 1.94178 0.243559 0
M  V30 2979 C 281.968 1.56927 -3.21105 0
M  V30 2980 C 281.634 0.725376 -4.45027 0
M  V30 2981 C 280.296 0.492726 -4.78671 0
M  V30 2982 C 282.648 0.138493 -5.21016 0
M  V30 2983 C 279.976 -0.336727 -5.85733 0
M  V30 2984 C 282.328 -0.678264 -6.28953 0
M  V30 2985 C 280.992 -0.921039 -6.61115 0
M  V30 2986 H 280.262 0.293721 -0.680301 0
M  V30 2987 H 282.909 0.0642841 -1.91392 0
M  V30 2988 H 281.214 2.37914 -3.11294 0
M  V30 2989 H 282.911 2.11841 -3.40477 0
M  V30 2990 H 279.501 0.916815 -4.18679 0
M  V30 2991 H 283.685 0.305404 -4.95359 0
M  V30 2992 H 278.941 -0.533836 -6.09065 0
M  V30 2993 H 283.115 -1.1399 -6.87007 0
M  V30 2994 H 280.742 -1.56556 -7.43905 0
M  V30 2995 N 282.317 1.53212 0.369288 0
M  V30 2996 C 283.227 1.82342 1.47609 0
M  V30 2997 C 284.243 0.711532 1.58787 0
M  V30 2998 O 285.419 1.0012 1.74751 0
M  V30 2999 C 282.484 2.00393 2.8292 0
M  V30 3000 C 281.545 3.24297 2.81301 0
M  V30 3001 C 280.778 3.41478 4.10157 0
M  V30 3002 O 281.001 2.63033 5.06132 0
M  V30 3003 O 279.935 4.34817 4.16194 0
M  V30 3004 H 283.761 2.76366 1.25918 0
M  V30 3005 H 281.346 1.38547 0.559034 0
M  V30 3006 H 283.228 2.13859 3.63101 0
M  V30 3007 H 281.903 1.09559 3.04596 0
M  V30 3008 H 280.81 3.16257 1.99831 0
M  V30 3009 H 282.143 4.15041 2.64578 0
M  V30 3010 N 283.795 -0.628877 1.44509 0
M  V30 3011 C 284.727 -1.754 1.47538 0
M  V30 3012 C 285.74 -1.58575 0.368506 0
M  V30 3013 O 286.929 -1.66847 0.634376 0
M  V30 3014 C 284.029 -3.1315 1.29577 0
M  V30 3015 C 283.202 -3.56413 2.53551 0
M  V30 3016 C 282.261 -4.7305 2.30457 0
M  V30 3017 O 281.287 -4.81247 3.03957 0
M  V30 3018 N 282.489 -5.64903 1.3366 0
M  V30 3019 H 285.254 -1.73272 2.44534 0
M  V30 3020 H 282.815 -0.813512 1.39977 0
M  V30 3021 H 284.807 -3.88902 1.11971 0
M  V30 3022 H 283.377 -3.09908 0.409371 0
M  V30 3023 H 282.597 -2.70847 2.86419 0
M  V30 3024 H 283.885 -3.82071 3.36005 0
M  V30 3025 H 283.283 -5.60975 0.729604 0
M  V30 3026 H 281.84 -6.40275 1.22032 0
M  V30 3027 N 285.273 -1.31445 -0.869486 0
M  V30 3028 C 286.501 -1.24122 -1.65534 0
M  V30 3029 C 286.916 0.193387 -1.87807 0
M  V30 3030 O 286.273 1.12557 -1.43656 0
M  V30 3031 C 286.324 -1.98229 -3.02304 0
M  V30 3032 O 286.045 -3.3609 -2.81026 0
M  V30 3033 C 287.546 -1.97751 -3.96749 0
M  V30 3034 H 284.766 -0.428868 -0.516055 0
M  V30 3035 H 287.31 -1.73328 -1.08525 0
M  V30 3036 H 285.465 -1.52782 -3.56001 0
M  V30 3037 H 285.879 -3.7383 -3.67902 0
M  V30 3038 H 287.353 -2.54114 -4.90031 0
M  V30 3039 H 287.83 -0.960137 -4.28577 0
M  V30 3040 H 288.436 -2.43079 -3.48988 0
M  V30 3041 N 286.751 1.08385 -1.14413 0
M  V30 3042 C 287.997 1.81044 -0.913834 0
M  V30 3043 C 288.33 1.86004 0.558209 0
M  V30 3044 O 287.605 1.33606 1.4135 0
M  V30 3045 C 287.888 3.26648 -1.51569 0
M  V30 3046 C 287.741 3.29895 -3.0576 0
M  V30 3047 C 289.06 4.23629 -1.19273 0
M  V30 3048 H 286.179 0.65727 -0.333414 0
M  V30 3049 H 288.821 1.26896 -1.41412 0
M  V30 3050 H 286.971 3.72889 -1.09023 0
M  V30 3051 H 288.643 2.91977 -3.57137 0
M  V30 3052 H 286.886 2.69163 -3.40197 0
M  V30 3053 H 287.557 4.32516 -3.42977 0
M  V30 3054 H 290.033 3.85727 -1.56057 0
M  V30 3055 H 288.909 5.23822 -1.64017 0
M  V30 3056 H 289.17 4.41968 -0.108068 0
M  V30 3057 N 288.23 0.939286 1.26551 0
M  V30 3058 C 289.14 0.453432 2.30176 0
M  V30 3059 C 290.156 -0.471649 1.67486 0
M  V30 3060 O 291.332 -0.35164 1.98306 0
M  V30 3061 C 288.397 -0.275326 3.45605 0
M  V30 3062 C 287.458 0.686084 4.23782 0
M  V30 3063 C 286.691 -0.00798994 5.33699 0
M  V30 3064 O 286.914 -1.22528 5.57085 0
M  V30 3065 O 285.848 0.669746 5.98162 0
M  V30 3066 H 289.674 1.31416 2.73795 0
M  V30 3067 H 287.259 0.705095 1.31715 0
M  V30 3068 H 289.141 -0.685911 4.1578 0
M  V30 3069 H 287.816 -1.11147 3.0402 0
M  V30 3070 H 286.723 1.14658 3.56096 0
M  V30 3071 H 288.056 1.48979 4.69112 0
M  V30 3072 N 289.708 -1.40897 0.706093 0
M  V30 3073 C 290.936 -2.05373 0.250887 0
M  V30 3074 C 291.351 -1.53172 -1.10381 0
M  V30 3075 O 290.708 -0.684305 -1.69185 0
M  V30 3076 C 290.759 -3.6088 0.211571 0
M  V30 3077 O 290.48 -4.11153 1.51276 0
M  V30 3078 C 291.981 -4.42517 -0.263346 0
M  V30 3079 H 289.201 -0.66115 0.114552 0
M  V30 3080 H 291.745 -1.80479 0.961635 0
M  V30 3081 H 289.9 -3.84777 -0.450073 0
M  V30 3082 H 290.314 -5.05279 1.40689 0
M  V30 3083 H 291.788 -5.51479 -0.239718 0
M  V30 3084 H 292.265 -4.19396 -1.30397 0
M  V30 3085 H 292.871 -4.23708 0.367677 0
M  V30 3086 N 291.186 -0.45159 -1.50991 0
M  V30 3087 C 292.149 0.341117 -2.26647 0
M  V30 3088 C 293.149 0.937422 -1.30649 0
M  V30 3089 O 294.339 0.809644 -1.54241 0
M  V30 3090 C 291.471 1.48398 -3.06905 0
M  V30 3091 H 292.664 -0.322117 -2.98165 0
M  V30 3092 H 290.217 -0.205122 -1.54948 0
M  V30 3093 H 290.952 2.18284 -2.39838 0
M  V30 3094 H 290.737 1.06241 -3.77432 0
M  V30 3095 H 292.227 2.04367 -3.64176 0
M  V30 3096 N 292.664 1.56529 -0.183458 0
M  V30 3097 C 293.913 1.96419 0.458511 0
M  V30 3098 C 294.226 1.0727 1.63562 0
M  V30 3099 O 295.432 1.36893 2.34462 0
M  V30 3100 C 293.888 3.49298 0.867122 0
M  V30 3101 C 293.496 4.47092 -0.285057 0
M  V30 3102 C 295.24 3.97983 1.47683 0
M  V30 3103 C 293.147 5.91225 0.143862 0
M  V30 3104 H 292.077 0.733394 0.175071 0
M  V30 3105 H 294.728 1.81448 -0.273624 0
M  V30 3106 H 293.11 3.59731 1.65559 0
M  V30 3107 H 294.284 4.48383 -1.0625 0
M  V30 3108 H 292.599 4.08535 -0.805503 0
M  V30 3109 H 295.196 5.03134 1.80999 0
M  V30 3110 H 295.539 3.41618 2.37914 0
M  V30 3111 H 296.072 3.90617 0.752562 0
M  V30 3112 H 292.811 6.5149 -0.723974 0
M  V30 3113 H 292.331 5.93214 0.886413 0
M  V30 3114 H 294.01 6.44362 0.583628 0
M  V30 3115 N 294.142 -0.090211 1.57342 0
M  V30 3116 C 295.37 -0.806224 1.90546 0
M  V30 3117 C 295.785 -1.72041 0.777644 0
M  V30 3118 O 295.142 -1.80778 -0.250103 0
M  V30 3119 C 295.193 -1.61546 3.23396 0
M  V30 3120 O 294.914 -0.738043 4.31839 0
M  V30 3121 C 296.415 -2.4341 3.70495 0
M  V30 3122 H 293.635 -0.230256 0.630257 0
M  V30 3123 H 296.179 -0.0659843 2.04394 0
M  V30 3124 H 294.334 -2.30816 3.11131 0
M  V30 3125 H 294.748 -1.29901 5.08159 0
M  V30 3126 H 296.222 -2.95676 4.66133 0
M  V30 3127 H 296.699 -3.22098 2.98579 0
M  V30 3128 H 297.305 -1.79331 3.85643 0
M  V30 3129 N 295.62 -1.53406 -0.361157 0
M  V30 3130 C 296.86 -1.71507 -1.11197 0
M  V30 3131 C 297.224 -0.459337 -1.86425 0
M  V30 3132 O 298.425 -0.517102 -2.63779 0
M  V30 3133 C 296.696 -2.93307 -2.0422 0
M  V30 3134 S 298.255 -3.32135 -2.86761 0
M  V30 3135 H 295.073 -0.603448 -0.375995 0
M  V30 3136 H 297.675 -1.91516 -0.392642 0
M  V30 3137 H 296.379 -3.82891 -1.47724 0
M  V30 3138 H 295.91 -2.75712 -2.80618 0
M  V30 3139 H 297.925 -2.84493 -4.06544 0
M  V30 3140 N 297.098 0.621204 -1.44841 0
M  V30 3141 C 298.028 1.74366 -1.55303 0
M  V30 3142 C 299.009 1.65199 -0.405385 0
M  V30 3143 O 300.194 1.83807 -0.626787 0
M  V30 3144 C 297.324 3.12931 -1.50637 0
M  V30 3145 C 296.278 3.36896 -2.63979 0
M  V30 3146 C 295.604 4.75594 -2.44366 0
M  V30 3147 C 296.904 3.28483 -4.06074 0
M  V30 3148 H 298.598 1.65867 -2.49256 0
M  V30 3149 H 296.144 0.796558 -1.19962 0
M  V30 3150 H 298.097 3.9124 -1.56555 0
M  V30 3151 H 296.821 3.22237 -0.532057 0
M  V30 3152 H 295.48 2.60972 -2.57467 0
M  V30 3153 H 295.128 4.81616 -1.45105 0
M  V30 3154 H 294.828 4.92586 -3.20364 0
M  V30 3155 H 296.352 5.5612 -2.52117 0
M  V30 3156 H 297.766 3.96684 -4.13902 0
M  V30 3157 H 296.163 3.57008 -4.82354 0
M  V30 3158 H 297.233 2.26133 -4.28943 0
M  V30 3159 N 298.576 1.31904 0.862503 0
M  V30 3160 C 299.801 1.25135 1.65397 0
M  V30 3161 C 300.226 -0.179 1.87246 0
M  V30 3162 O 299.584 -1.1277 1.4196 0
M  V30 3163 C 299.632 2.00832 2.99498 0
M  V30 3164 O 298.736 1.35075 3.89652 0
M  V30 3165 H 298.077 0.431655 0.504549 0
M  V30 3166 H 300.607 1.74094 1.07483 0
M  V30 3167 H 300.617 2.10709 3.49379 0
M  V30 3168 H 299.292 3.04847 2.82916 0
M  V30 3169 H 297.869 1.33696 3.48109 0
M  V30 3170 N 300.054 -1.07777 1.14986 0
M  V30 3171 C 301.282 -1.84018 0.945773 0
M  V30 3172 C 301.697 -1.81897 -0.505863 0
M  V30 3173 O 301.054 -1.22726 -1.35072 0
M  V30 3174 C 301.105 -3.31287 1.44677 0
M  V30 3175 O 300.826 -3.33449 2.84154 0
M  V30 3176 C 302.327 -4.24311 1.28355 0
M  V30 3177 H 299.547 -0.580716 0.336169 0
M  V30 3178 H 302.091 -1.36077 1.52654 0
M  V30 3179 H 300.246 -3.76594 0.908625 0
M  V30 3180 H 300.66 -4.25427 3.06777 0
M  V30 3181 H 302.134 -5.2573 1.68261 0
M  V30 3182 H 302.611 -4.38612 0.227184 0
M  V30 3183 H 303.217 -3.84836 1.81056 0
M  V30 3184 N 301.532 -0.945985 -1.26051 0
M  V30 3185 C 302.778 -0.597002 -1.93814 0
M  V30 3186 C 303.111 0.862484 -1.73997 0
M  V30 3187 O 302.386 1.61769 -1.07986 0
M  V30 3188 C 302.669 -0.945937 -3.47454 0
M  V30 3189 C 302.522 -2.46052 -3.76535 0
M  V30 3190 C 303.841 -0.464785 -4.37639 0
M  V30 3191 H 300.96 -0.218366 -0.703907 0
M  V30 3192 H 303.602 -1.18107 -1.48831 0
M  V30 3193 H 301.752 -0.448902 -3.85898 0
M  V30 3194 H 303.424 -3.03065 -3.47778 0
M  V30 3195 H 301.667 -2.90194 -3.22444 0
M  V30 3196 H 302.338 -2.65517 -4.83947 0
M  V30 3197 H 304.814 -0.891016 -4.06448 0
M  V30 3198 H 303.69 -0.737712 -5.4392 0
M  V30 3199 H 303.951 0.635274 -4.37512 0
M  V30 3200 N 303.011 1.40521 -0.713556 0
M  V30 3201 C 303.941 2.33381 -0.0743864 0
M  V30 3202 C 304.922 1.52784 0.747735 0
M  V30 3203 O 306.107 1.81258 0.697071 0
M  V30 3204 C 303.237 3.36748 0.849598 0
M  V30 3205 C 302.191 4.27793 0.133247 0
M  V30 3206 C 301.517 5.21679 1.17281 0
M  V30 3207 C 302.817 5.12415 -1.01134 0
M  V30 3208 H 304.511 2.87081 -0.850007 0
M  V30 3209 H 302.057 1.38034 -0.410201 0
M  V30 3210 H 304.01 4.00648 1.30612 0
M  V30 3211 H 302.734 2.81439 1.65709 0
M  V30 3212 H 301.393 3.65342 -0.303426 0
M  V30 3213 H 301.041 4.62677 1.9733 0
M  V30 3214 H 300.741 5.83435 0.698397 0
M  V30 3215 H 302.265 5.88456 1.62947 0
M  V30 3216 H 303.679 5.69781 -0.634274 0
M  V30 3217 H 302.076 5.83203 -1.41399 0
M  V30 3218 H 303.146 4.48514 -1.84292 0
M  V30 3219 N 304.489 0.459591 1.5075 0
M  V30 3220 C 305.714 -0.0996819 2.0716 0
M  V30 3221 C 306.139 -1.33761 1.32249 0
M  V30 3222 O 305.497 -1.77551 0.366786 0
M  V30 3223 C 305.545 -0.378226 3.58611 0
M  V30 3224 O 304.649 -1.46081 3.85661 0
M  V30 3225 H 303.99 0.00791392 0.663953 0
M  V30 3226 H 306.52 0.647329 1.9409 0
M  V30 3227 H 306.53 -0.622135 4.03229 0
M  V30 3228 H 305.205 0.526439 4.12555 0
M  V30 3229 H 303.782 -1.20511 3.5289 0
M  V30 3230 N 305.967 -1.56429 0.191757 0
M  V30 3231 C 307.216 -1.9666 -0.448088 0
M  V30 3232 C 307.529 -1.08136 -1.62991 0
M  V30 3233 O 308.735 -1.38135 -2.33733 0
M  V30 3234 C 307.191 -3.49753 -0.848585 0
M  V30 3235 C 306.799 -4.46935 0.308764 0
M  V30 3236 C 308.543 -3.9876 -1.4557 0
M  V30 3237 C 306.45 -5.91293 -0.112506 0
M  V30 3238 H 305.38 -0.734312 -0.171179 0
M  V30 3239 H 308.031 -1.81301 0.283242 0
M  V30 3240 H 306.413 -3.60604 -1.63649 0
M  V30 3241 H 307.587 -4.47813 1.08627 0
M  V30 3242 H 305.902 -4.08102 0.827158 0
M  V30 3243 H 308.499 -5.04086 -1.78328 0
M  V30 3244 H 308.842 -3.42875 -2.36099 0
M  V30 3245 H 309.375 -3.9101 -0.731836 0
M  V30 3246 H 306.114 -6.51097 0.758514 0
M  V30 3247 H 305.634 -5.93676 -0.854941 0
M  V30 3248 H 307.313 -6.44663 -0.549448 0
M  V30 3249 N 307.445 0.0818655 -1.57387 0
M  V30 3250 C 308.722 0.815343 -1.77796 0
M  V30 3251 C 309.102 1.96289 -0.77679 0
M  V30 3252 O 308.45 2.27691 0.192106 0
M  V30 3253 C 308.66 1.29765 -3.23978 0
M  V30 3254 C 310.008 1.7351 -3.8753 0
M  V30 3255 O 311.032 1.39356 -3.27808 0
M  V30 3256 O 309.891 2.36708 -4.92576 0
M  V30 3257 H 306.985 0.389914 -0.729312 0
M  V30 3258 H 309.531 0.0627213 -1.69584 0
M  V30 3259 H 308.303 0.47608 -3.88393 0
M  V30 3260 H 307.926 2.11189 -3.36875 0
M  V30 3261 N 308.923 1.53595 0.353017 0
M  V30 3262 C 310.17 1.70385 1.09431 0
M  V30 3263 C 310.498 0.462113 1.88931 0
M  V30 3264 O 309.753 -0.556074 1.87633 0
M  V30 3265 C 310.052 2.91313 2.07054 0
M  V30 3266 C 309.718 4.27308 1.43939 0
M  V30 3267 C 308.38 4.64287 1.26454 0
M  V30 3268 C 310.732 5.11829 0.983883 0
M  V30 3269 C 308.06 5.83412 0.620226 0
M  V30 3270 C 310.412 6.31611 0.353516 0
M  V30 3271 C 309.076 6.67293 0.166272 0
M  V30 3272 H 308.346 0.623484 0.400436 0
M  V30 3273 H 310.993 1.87799 0.374655 0
M  V30 3274 H 309.298 2.68463 2.85368 0
M  V30 3275 H 310.995 3.01497 2.64387 0
M  V30 3276 H 307.585 3.98198 1.58543 0
M  V30 3277 H 311.769 4.838 1.10685 0
M  V30 3278 H 307.025 6.09639 0.463681 0
M  V30 3279 H 311.199 6.964 -0.00757555 0
M  V30 3280 H 308.826 7.59461 -0.335047 0
M  V30 3281 N 310.401 -0.613514 1.45168 0
M  V30 3282 C 311.348 -1.72456 1.53387 0
M  V30 3283 C 312.318 -1.6169 0.380191 0
M  V30 3284 O 313.503 -1.81356 0.592836 0
M  V30 3285 C 310.643 -3.10753 1.50088 0
M  V30 3286 C 309.756 -3.32368 2.75963 0
M  V30 3287 C 308.891 -4.60737 2.64376 0
M  V30 3288 C 307.93 -4.7559 3.85332 0
M  V30 3289 N 307.067 -5.95253 3.72315 0
M  V30 3290 H 311.907 -1.64768 2.48305 0
M  V30 3291 H 309.444 -0.803503 1.23216 0
M  V30 3292 H 311.402 -3.90758 1.46164 0
M  V30 3293 H 310.032 -3.17413 0.587243 0
M  V30 3294 H 309.084 -2.4618 2.89999 0
M  V30 3295 H 310.396 -3.39218 3.65695 0
M  V30 3296 H 309.55 -5.48928 2.58385 0
M  V30 3297 H 308.289 -4.56275 1.72233 0
M  V30 3298 H 307.294 -3.85824 3.91688 0
M  V30 3299 H 308.519 -4.81854 4.78533 0
M  V30 3300 H 306.465 -5.91847 2.82937 0
M  V30 3301 H 306.382 -6.03236 4.55677 0
M  V30 3302 H 307.65 -6.85958 3.70246 0
M  V30 3303 N 311.879 -1.3236 -0.855495 0
M  V30 3304 C 313.29 -1.2056 -1.42556 0
M  V30 3305 C 313.641 0.182209 -1.95352 0
M  V30 3306 O 312.766 1.08088 -1.87472 0
M  V30 3307 C 313.361 -2.1826 -2.59129 0
M  V30 3308 C 311.92 -2.10351 -3.12137 0
M  V30 3309 C 311.067 -2.06674 -1.84882 0
M  V30 3310 H 314.018 -1.442 -0.662727 0
M  V30 3311 H 314.039 -1.78064 -3.36264 0
M  V30 3312 H 313.551 -3.19257 -2.20673 0
M  V30 3313 H 311.652 -1.12599 -3.55179 0
M  V30 3314 H 311.765 -3.00135 -3.73438 0
M  V30 3315 H 310.129 -1.51901 -2.04446 0
M  V30 3316 H 310.912 -3.09451 -1.48643 0
M  V30 3317 N 313.357 1.07166 -1.15556 0
M  V30 3318 C 314.582 1.84053 -0.955988 0
M  V30 3319 C 315.007 1.81586 0.490739 0
M  V30 3320 O 314.365 1.21018 1.34997 0
M  V30 3321 C 314.413 3.28957 -1.47714 0
M  V30 3322 O 313.517 4.06795 -0.677593 0
M  V30 3323 H 312.858 0.569842 -0.340847 0
M  V30 3324 H 315.388 1.35178 -1.53584 0
M  V30 3325 H 315.398 3.79788 -1.4908 0
M  V30 3326 H 314.073 3.30068 -2.53037 0
M  V30 3327 H 312.65 3.6561 -0.733721 0
M  V30 3328 N 314.835 0.952656 1.25548 0
M  V30 3329 C 315.745 0.47782 2.29682 0
M  V30 3330 C 316.761 -0.453859 1.67977 0
M  V30 3331 O 317.937 -0.330587 1.98668 0
M  V30 3332 C 315.002 -0.238655 3.45878 0
M  V30 3333 C 314.063 0.730994 4.23031 0
M  V30 3334 C 313.296 0.0486165 5.33678 0
M  V30 3335 O 313.519 -1.16612 5.58353 0
M  V30 3336 O 312.453 0.733152 5.97418 0
M  V30 3337 H 316.279 1.34312 2.72386 0
M  V30 3338 H 313.864 0.719026 1.30959 0
M  V30 3339 H 315.746 -0.641774 4.16484 0
M  V30 3340 H 314.421 -1.07916 3.05181 0
M  V30 3341 H 313.328 1.18428 3.5486 0
M  V30 3342 H 314.661 1.53946 4.67506 0
M  V30 3343 N 316.313 -1.40141 0.720998 0
M  V30 3344 C 317.562 -2.0002 0.259804 0
M  V30 3345 C 317.875 -1.57839 -1.15526 0
M  V30 3346 O 319.081 -2.10455 -1.71525 0
M  V30 3347 C 317.537 -3.57516 0.413566 0
M  V30 3348 C 317.145 -4.08667 1.83562 0
M  V30 3349 C 318.889 -4.24498 0.0134387 0
M  V30 3350 C 316.796 -5.58686 1.93968 0
M  V30 3351 H 315.726 -0.748195 0.0933806 0
M  V30 3352 H 318.377 -1.60313 0.892866 0
M  V30 3353 H 316.759 -3.9495 -0.288169 0
M  V30 3354 H 317.933 -3.82598 2.56817 0
M  V30 3355 H 316.248 -3.543 2.1877 0
M  V30 3356 H 318.845 -5.34654 0.0703954 0
M  V30 3357 H 319.188 -4.03375 -1.02927 0
M  V30 3358 H 319.721 -3.92188 0.665815 0
M  V30 3359 H 316.46 -5.8467 2.96379 0
M  V30 3360 H 315.98 -5.86602 1.25131 0
M  V30 3361 H 317.659 -6.23875 1.71431 0
M  V30 3362 N 317.792 -0.46758 -1.50504 0
M  V30 3363 C 318.702 0.33382 -2.32213 0
M  V30 3364 C 319.718 0.999323 -1.42441 0
M  V30 3365 O 320.894 0.988068 -1.75497 0
M  V30 3366 C 317.959 1.4035 -3.17022 0
M  V30 3367 C 317.02 0.754961 -4.2261 0
M  V30 3368 C 316.253 1.77367 -5.03365 0
M  V30 3369 O 316.476 2.99976 -4.8515 0
M  V30 3370 O 315.41 1.34744 -5.86624 0
M  V30 3371 H 319.236 -0.334067 -3.01857 0
M  V30 3372 H 316.821 -0.229496 -1.47627 0
M  V30 3373 H 318.703 2.02318 -3.69656 0
M  V30 3374 H 317.378 2.05492 -2.5011 0
M  V30 3375 H 316.285 0.0964244 -3.73976 0
M  V30 3376 H 317.618 0.146545 -4.91982 0
M  V30 3377 N 319.27 1.56325 -0.20005 0
M  V30 3378 C 320.516 1.98012 0.438059 0
M  V30 3379 C 320.849 1.08702 1.60927 0
M  V30 3380 O 320.124 0.140064 1.93995 0
M  V30 3381 C 320.407 3.48841 0.893419 0
M  V30 3382 C 320.26 4.48928 -0.279947 0
M  V30 3383 C 321.579 4.03498 1.75719 0
M  V30 3384 H 318.698 0.719918 0.157757 0
M  V30 3385 H 321.34 1.87743 -0.291968 0
M  V30 3386 H 319.49 3.57723 1.51547 0
M  V30 3387 H 321.162 4.52079 -0.91772 0
M  V30 3388 H 319.405 4.23694 -0.930919 0
M  V30 3389 H 320.076 5.5194 0.0812601 0
M  V30 3390 H 322.552 3.97427 1.23253 0
M  V30 3391 H 321.428 5.09393 2.04476 0
M  V30 3392 H 321.689 3.4906 2.71311 0
M  V30 3393 N 320.748 -0.0735177 1.57428 0
M  V30 3394 C 321.996 -0.771472 1.86796 0
M  V30 3395 C 322.317 -1.78201 0.791804 0
M  V30 3396 O 321.587 -1.95074 -0.179718 0
M  V30 3397 H 320.167 -0.28791 0.689287 0
M  V30 3398 H 322.829 -0.0500161 1.94836 0
M  V30 3399 H 321.925 -1.28874 2.8425 0
M  V30 3400 N 322.226 -1.5378 -0.344866 0
M  V30 3401 C 323.472 -1.71216 -1.08687 0
M  V30 3402 C 323.805 -0.473281 -1.88345 0
M  V30 3403 O 323.08 0.52968 -1.87149 0
M  V30 3404 C 323.363 -2.97486 -2.02914 0
M  V30 3405 C 323.216 -4.31579 -1.26727 0
M  V30 3406 C 324.535 -3.19422 -3.0275 0
M  V30 3407 H 321.654 -0.62301 -0.393735 0
M  V30 3408 H 324.296 -1.8645 -0.365563 0
M  V30 3409 H 322.446 -2.84629 -2.64421 0
M  V30 3410 H 324.118 -4.56284 -0.67845 0
M  V30 3411 H 322.361 -4.30049 -0.569273 0
M  V30 3412 H 323.032 -5.16106 -1.95803 0
M  V30 3413 H 325.508 -3.316 -2.51357 0
M  V30 3414 H 324.384 -4.09169 -3.65885 0
M  V30 3415 H 324.645 -2.35656 -3.74057 0
M  V30 3416 N 323.704 0.605807 -1.45491 0
M  V30 3417 C 324.95 1.36679 -1.49823 0
M  V30 3418 C 325.283 1.93693 -0.140175 0
M  V30 3419 O 324.558 1.75158 0.845581 0
M  V30 3420 C 324.841 2.51337 -2.57879 0
M  V30 3421 C 324.694 1.99508 -4.03134 0
M  V30 3422 C 326.013 3.53463 -2.62205 0
M  V30 3423 H 323.132 0.495617 -0.545466 0
M  V30 3424 H 325.774 0.682732 -1.7731 0
M  V30 3425 H 323.924 3.09691 -2.34571 0
M  V30 3426 H 325.596 1.45789 -4.37656 0
M  V30 3427 H 323.839 1.30496 -4.13707 0
M  V30 3428 H 324.51 2.82169 -4.74431 0
M  V30 3429 H 326.986 3.04953 -2.83095 0
M  V30 3430 H 325.862 4.31178 -3.39672 0
M  V30 3431 H 326.123 4.09197 -1.67363 0
M  V30 3432 N 325.182 1.32811 0.848464 0
M  V30 3433 C 326.41 1.26739 1.63538 0
M  V30 3434 C 326.825 -0.163484 1.88091 0
M  V30 3435 O 326.182 -1.10258 1.45429 0
M  V30 3436 C 326.233 2.03013 2.99112 0
M  V30 3437 O 325.954 3.40518 2.75643 0
M  V30 3438 C 327.455 2.04038 3.93552 0
M  V30 3439 H 324.675 0.437024 0.509167 0
M  V30 3440 H 327.219 1.75033 1.05753 0
M  V30 3441 H 325.374 1.58426 3.53525 0
M  V30 3442 H 325.788 3.79635 3.61908 0
M  V30 3443 H 327.262 2.61877 4.85926 0
M  V30 3444 H 327.739 1.0282 4.26995 0
M  V30 3445 H 328.345 2.486 3.45077 0
M  V30 3446 N 326.66 -1.06551 1.16123 0
M  V30 3447 C 327.906 -1.79567 0.94252 0
M  V30 3448 C 328.239 -1.86869 -0.528547 0
M  V30 3449 O 327.514 -1.35838 -1.39206 0
M  V30 3450 C 327.797 -3.24195 1.56747 0
M  V30 3451 C 327.65 -3.24989 3.10969 0
M  V30 3452 C 328.969 -4.21678 1.25998 0
M  V30 3453 H 326.088 -0.651883 0.343828 0
M  V30 3454 H 328.73 -1.2463 1.43413 0
M  V30 3455 H 326.88 -3.71107 1.14942 0
M  V30 3456 H 328.552 -2.86258 3.61737 0
M  V30 3457 H 326.795 -2.63716 3.44436 0
M  V30 3458 H 327.466 -4.27005 3.49815 0
M  V30 3459 H 329.942 -3.83196 1.62174 0
M  V30 3460 H 328.818 -5.21146 1.7233 0
M  V30 3461 H 329.079 -4.4174 0.178367 0
M  V30 3462 N 328.138 -0.959301 -1.25041 0
M  V30 3463 C 329.048 -0.489994 -2.29426 0
M  V30 3464 C 330.064 0.444944 -1.68215 0
M  V30 3465 O 331.24 0.320046 -1.98841 0
M  V30 3466 C 328.305 0.220309 -3.45999 0
M  V30 3467 C 327.366 -0.753418 -4.22637 0
M  V30 3468 C 326.599 -0.076918 -5.33645 0
M  V30 3469 O 326.822 1.13649 -5.58963 0
M  V30 3470 O 325.756 -0.764824 -5.97021 0
M  V30 3471 H 329.582 -1.35755 -2.71669 0
M  V30 3472 H 327.167 -0.725961 -1.30576 0
M  V30 3473 H 329.049 0.619677 -4.16819 0
M  V30 3474 H 327.724 1.06296 -3.0575 0
M  V30 3475 H 326.631 -1.20308 -3.54227 0
M  V30 3476 H 327.964 -1.56423 -4.66683 0
M  V30 3477 N 329.616 1.39756 -0.72842 0
M  V30 3478 C 330.564 2.32485 -0.0731849 0
M  V30 3479 C 331.558 1.52717 0.733063 0
M  V30 3480 O 332.764 1.68428 0.634988 0
M  V30 3481 H 329.139 0.751984 -0.00486469 0
M  V30 3482 H 331.11 2.85382 -0.871761 0
M  V30 3483 C 329.859 3.37773 0.824908 0
M  V30 3484 H 329.182 3.99227 0.213915 0
M  V30 3485 H 330.622 4.05121 1.25111 0
M  V30 3486 C 329.081 2.74287 1.95622 0
M  V30 3487 O 329.611 2.61618 3.04826 0
M  V30 3488 N 327.817 2.32475 1.74367 0
M  V30 3489 H 327.364 2.4298 0.855494 0
M  V30 3490 H 327.322 1.90337 2.50238 0
M  V30 3491 N 331.094 0.475555 1.50254 0
M  V30 3492 C 332.505 0.0215174 1.86688 0
M  V30 3493 C 332.856 -1.38467 1.39001 0
M  V30 3494 O 331.981 -2.02732 0.756894 0
M  V30 3495 C 332.576 0.0322715 3.38785 0
M  V30 3496 C 331.135 -0.366314 3.74613 0
M  V30 3497 C 330.282 0.415832 2.74164 0
M  V30 3498 H 333.233 0.689612 1.42934 0
M  V30 3499 H 333.254 -0.76889 3.7265 0
M  V30 3500 H 332.766 1.05584 3.73462 0
M  V30 3501 H 330.867 -1.39406 3.45538 0
M  V30 3502 H 330.98 -0.064555 4.79057 0
M  V30 3503 H 329.344 -0.131048 2.54363 0
M  V30 3504 H 330.127 1.43899 3.11686 0
M  V30 3505 N 332.573 -1.56217 0.208337 0
M  V30 3506 C 333.52 -2.19699 -0.707192 0
M  V30 3507 C 334.49 -1.14836 -1.20008 0
M  V30 3508 O 335.675 -1.4314 -1.26157 0
M  V30 3509 C 332.815 -2.87061 -1.91546 0
M  V30 3510 C 331.928 -4.06483 -1.46271 0
M  V30 3511 C 331.063 -4.61665 -2.62752 0
M  V30 3512 C 330.102 -5.73417 -2.14147 0
M  V30 3513 N 329.239 -6.22948 -3.23853 0
M  V30 3514 H 334.079 -2.97575 -0.159111 0
M  V30 3515 H 331.616 -1.46948 -0.0667874 0
M  V30 3516 H 333.574 -3.24294 -2.62468 0
M  V30 3517 H 332.204 -2.11725 -2.43664 0
M  V30 3518 H 331.256 -3.74825 -0.648886 0
M  V30 3519 H 332.568 -4.87271 -1.06622 0
M  V30 3520 H 331.722 -5.01272 -3.41776 0
M  V30 3521 H 330.461 -3.80013 -3.05682 0
M  V30 3522 H 329.466 -5.33326 -1.33581 0
M  V30 3523 H 330.691 -6.56897 -1.72232 0
M  V30 3524 H 328.637 -5.44213 -3.6629 0
M  V30 3525 H 328.554 -6.98823 -2.88414 0
M  V30 3526 H 329.822 -6.6721 -4.03052 0
M  V30 3527 N 334.051 0.0651679 -1.57465 0
M  V30 3528 C 335.298 0.763063 -1.87573 0
M  V30 3529 C 335.626 1.77242 -0.800961 0
M  V30 3530 O 334.881 1.94651 0.202316 0
M  V30 3531 C 335.18 1.50081 -3.24362 0
M  V30 3532 C 334.846 0.630816 -4.46466 0
M  V30 3533 C 333.508 0.391082 -4.79608 0
M  V30 3534 C 335.86 0.0279465 -5.21193 0
M  V30 3535 C 333.188 -0.460894 -5.84887 0
M  V30 3536 C 335.54 -0.811522 -6.27373 0
M  V30 3537 C 334.204 -1.06106 -6.59013 0
M  V30 3538 H 333.474 0.279224 -0.686378 0
M  V30 3539 H 336.121 0.0236726 -1.91485 0
M  V30 3540 H 334.426 2.31258 -3.16271 0
M  V30 3541 H 336.123 2.04571 -3.44894 0
M  V30 3542 H 332.713 0.8278 -4.2053 0
M  V30 3543 H 336.897 0.200262 -4.95896 0
M  V30 3544 H 332.153 -0.662907 -6.07796 0
M  V30 3545 H 336.327 -1.28537 -6.84435 0
M  V30 3546 H 333.954 -1.723 -7.40417 0
M  V30 3547 N 335.529 1.53961 0.336706 0
M  V30 3548 C 336.945 1.44378 0.680241 0
M  V30 3549 C 337.145 0.606034 1.9217 0
M  V30 3550 O 336.201 0.099688 2.52303 0
M  V30 3551 C 337.514 2.87945 0.8665 0
M  V30 3552 C 339.062 2.97763 0.964682 0
M  V30 3553 C 339.537 4.42453 1.18321 0
M  V30 3554 N 341.028 4.46008 1.25025 0
M  V30 3555 C 341.763 5.55102 1.43697 0
M  V30 3556 N 341.259 6.7419 1.59498 0
M  V30 3557 N 343.052 5.42727 1.463 0
M  V30 3558 H 335.203 2.06918 -0.479455 0
M  V30 3559 H 337.466 0.935634 -0.152619 0
M  V30 3560 H 337.172 3.51691 0.0256937 0
M  V30 3561 H 337.046 3.33293 1.76623 0
M  V30 3562 H 339.433 2.34153 1.796 0
M  V30 3563 H 339.514 2.55766 0.041708 0
M  V30 3564 H 339.158 5.06645 0.356788 0
M  V30 3565 H 339.088 4.82048 2.11985 0
M  V30 3566 H 341.579 3.60196 1.14312 0
M  V30 3567 H 341.892 7.53095 1.734 0
M  V30 3568 H 340.237 6.77123 1.56621 0
M  V30 3569 H 343.428 4.48647 1.33543 0
M  V30 3570 H 343.601 6.27806 1.6051 0
M  V30 3571 N 337.007 -0.598083 1.45811 0
M  V30 3572 C 338.256 -1.35295 1.49594 0
M  V30 3573 C 338.569 -1.95057 0.145679 0
M  V30 3574 O 339.775 -2.71431 0.0612099 0
M  V30 3575 C 338.231 -2.45124 2.63519 0
M  V30 3576 C 337.839 -1.91732 4.04899 0
M  V30 3577 C 339.583 -3.2205 2.76558 0
M  V30 3578 C 337.49 -2.991 5.1019 0
M  V30 3579 H 336.42 -0.508552 0.556679 0
M  V30 3580 H 339.071 -0.639977 1.71978 0
M  V30 3581 H 337.453 -3.19149 2.34435 0
M  V30 3582 H 338.627 -1.24352 4.43704 0
M  V30 3583 H 336.942 -1.27522 3.96393 0
M  V30 3584 H 339.539 -4.0215 3.52391 0
M  V30 3585 H 339.882 -3.73663 1.83526 0
M  V30 3586 H 340.415 -2.55127 3.05213 0
M  V30 3587 H 337.154 -2.52393 6.04961 0
M  V30 3588 H 336.674 -3.65017 4.75944 0
M  V30 3589 H 338.353 -3.63318 5.35359 0
M  V30 3590 N 338.485 -1.33259 -0.841409 0
M  V30 3591 C 339.415 -1.25926 -1.96634 0
M  V30 3592 C 340.396 -0.140349 -1.6952 0
M  V30 3593 O 341.581 -0.329707 -1.91381 0
M  V30 3594 C 338.711 -0.99512 -3.32738 0
M  V30 3595 C 337.665 -2.0767 -3.74242 0
M  V30 3596 C 336.991 -1.66474 -5.08125 0
M  V30 3597 C 338.291 -3.49318 -3.88297 0
M  V30 3598 H 339.985 -2.20046 -2.03027 0
M  V30 3599 H 337.531 -1.05931 -0.975425 0
M  V30 3600 H 339.484 -0.930323 -4.11002 0
M  V30 3601 H 338.208 -0.0183004 -3.26595 0
M  V30 3602 H 336.867 -2.13187 -2.98239 0
M  V30 3603 H 336.515 -0.675012 -4.9845 0
M  V30 3604 H 336.215 -2.3885 -5.36865 0
M  V30 3605 H 337.739 -1.61455 -5.88867 0
M  V30 3606 H 339.153 -3.46316 -4.56879 0
M  V30 3607 H 337.55 -4.20158 -4.28471 0
M  V30 3608 H 338.62 -3.8801 -2.9082 0
M  V30 3609 N 339.963 1.05934 -1.16686 0
M  V30 3610 C 341.191 1.8249 -0.974929 0
M  V30 3611 C 341.606 1.82679 0.476861 0
M  V30 3612 O 340.963 1.2486 1.33103 0
M  V30 3613 C 341.014 3.28943 -1.49929 0
M  V30 3614 O 340.735 3.28886 -2.89423 0
M  V30 3615 C 342.236 4.22215 -1.35089 0
M  V30 3616 H 339.456 0.575295 -0.345365 0
M  V30 3617 H 342 1.33631 -1.548 0
M  V30 3618 H 340.155 3.751 -0.968423 0
M  V30 3619 H 340.569 4.20493 -3.13506 0
M  V30 3620 H 342.043 5.22987 -1.76603 0
M  V30 3621 H 342.52 4.38195 -0.296935 0
M  V30 3622 H 343.126 3.81907 -1.87155 0
M  V30 3623 N 341.441 0.965919 1.2453 0
M  V30 3624 C 342.351 0.502154 2.29163 0
M  V30 3625 C 343.367 -0.436017 1.68448 0
M  V30 3626 O 344.543 -0.309497 1.99008 0
M  V30 3627 C 341.608 -0.201956 3.46111 0
M  V30 3628 C 340.669 0.775821 4.22232 0
M  V30 3629 C 339.902 0.105217 5.33596 0
M  V30 3630 O 340.125 -1.10683 5.59558 0
M  V30 3631 O 339.059 0.796475 5.96607 0
M  V30 3632 H 342.885 1.37194 2.70946 0
M  V30 3633 H 340.47 0.732875 1.30189 0
M  V30 3634 H 342.352 -0.597564 4.17142 0
M  V30 3635 H 341.027 -1.04673 3.06309 0
M  V30 3636 H 339.934 1.22185 3.53584 0
M  V30 3637 H 341.267 1.58896 4.65846 0
M  V30 3638 N 342.919 -1.39368 0.735821 0
M  V30 3639 C 343.882 -2.2896 0.104874 0
M  V30 3640 C 344.882 -1.46347 -0.666274 0
M  V30 3641 O 346.072 -1.67014 -0.49517 0
M  V30 3642 C 343.204 -3.29857 -0.860656 0
M  V30 3643 H 344.397 -2.86259 0.894205 0
M  V30 3644 H 341.95 -1.48029 0.501704 0
M  V30 3645 H 342.685 -2.77615 -1.67631 0
M  V30 3646 H 342.47 -3.9087 -0.310327 0
M  V30 3647 H 343.96 -3.96893 -1.29867 0
M  V30 3648 N 344.397 -0.483516 -1.5 0
M  V30 3649 C 345.307 0.309172 -2.32554 0
M  V30 3650 C 346.323 0.984159 -1.43493 0
M  V30 3651 O 347.499 0.969399 -1.76535 0
M  V30 3652 C 344.564 1.36979 -3.18493 0
M  V30 3653 C 343.625 0.710095 -4.23387 0
M  V30 3654 C 342.858 1.72018 -5.05218 0
M  V30 3655 O 343.081 2.94813 -4.88305 0
M  V30 3656 O 342.015 1.28515 -5.8802 0
M  V30 3657 H 345.841 -0.366064 -3.01486 0
M  V30 3658 H 343.426 -0.24514 -1.47375 0
M  V30 3659 H 345.308 1.98385 -3.71781 0
M  V30 3660 H 343.983 2.02828 -2.52275 0
M  V30 3661 H 342.89 0.0567539 -3.74057 0
M  V30 3662 H 344.223 0.0943557 -4.9211 0
M  V30 3663 N 345.875 1.56104 -0.216619 0
M  V30 3664 C 347.124 1.97348 0.416744 0
M  V30 3665 C 347.437 1.10715 1.6125 0
M  V30 3666 O 348.643 1.41836 2.31506 0
M  V30 3667 C 347.099 3.51059 0.792835 0
M  V30 3668 C 346.707 4.46387 -0.379828 0
M  V30 3669 C 348.451 4.01026 1.39208 0
M  V30 3670 C 346.358 5.91397 0.0184223 0
M  V30 3671 H 345.288 0.736942 0.159475 0
M  V30 3672 H 347.939 1.80827 -0.31205 0
M  V30 3673 H 346.321 3.63162 1.57891 0
M  V30 3674 H 347.495 4.46029 -1.15737 0
M  V30 3675 H 345.81 4.06734 -0.891979 0
M  V30 3676 H 348.407 5.0686 1.70286 0
M  V30 3677 H 348.75 3.46587 2.30614 0
M  V30 3678 H 349.283 3.92125 0.669537 0
M  V30 3679 H 346.022 6.49807 -0.862002 0
M  V30 3680 H 345.542 5.94961 0.760384 0
M  V30 3681 H 347.221 6.45455 0.446818 0
M  V30 3682 N 347.353 -0.0568162 1.57498 0
M  V30 3683 C 348.63 -0.786954 1.79071 0
M  V30 3684 C 349.01 -1.95028 0.80792 0
M  V30 3685 O 348.358 -2.27968 -0.155858 0
M  V30 3686 C 348.568 -1.24594 3.26002 0
M  V30 3687 C 349.916 -1.67323 3.90241 0
M  V30 3688 O 350.94 -1.34124 3.29984 0
M  V30 3689 O 349.799 -2.28842 4.9628 0
M  V30 3690 H 346.893 -0.378262 0.735423 0
M  V30 3691 H 349.439 -0.035734 1.69662 0
M  V30 3692 H 348.211 -0.41423 3.89101 0
M  V30 3693 H 347.834 -2.05803 3.40192 0
M  V30 3694 N 348.832 -1.54138 -0.328536 0
M  V30 3695 C 349.795 -1.82462 -1.38709 0
M  V30 3696 C 350.795 -0.696229 -1.44946 0
M  V30 3697 O 351.985 -0.964535 -1.4506 0
M  V30 3698 C 349.117 -1.98018 -2.77492 0
M  V30 3699 H 350.31 -2.77037 -1.14851 0
M  V30 3700 H 347.863 -1.45779 -0.563751 0
M  V30 3701 H 348.598 -1.05637 -3.06613 0
M  V30 3702 H 348.383 -2.80124 -2.74359 0
M  V30 3703 H 349.873 -2.21396 -3.54081 0
M  V30 3704 N 350.31 0.590341 -1.46126 0
M  V30 3705 C 351.26 1.69466 -1.5253 0
M  V30 3706 C 352.244 1.56179 -0.386917 0
M  V30 3707 O 353.436 1.65223 -0.634858 0
M  V30 3708 C 350.565 3.08245 -1.5113 0
M  V30 3709 C 349.651 3.26856 -2.70233 0
M  V30 3710 N 350.042 3.15657 -3.95214 0
M  V30 3711 C 348.34 3.57775 -2.66296 0
M  V30 3712 C 349.041 3.36066 -4.74799 0
M  V30 3713 N 348.017 3.60865 -4.06543 0
M  V30 3714 H 351.819 1.59326 -2.46966 0
M  V30 3715 H 349.333 0.79414 -1.41659 0
M  V30 3716 H 351.33 3.87492 -1.53804 0
M  V30 3717 H 349.99 3.19521 -0.577636 0
M  V30 3718 H 351.001 2.93686 -4.26578 0
M  V30 3719 H 347.678 3.75782 -1.81918 0
M  V30 3720 H 349.068 3.32655 -5.83772 0
M  V30 3721 N 351.788 1.33704 0.83433 0
M  V30 3722 C 352.718 1.26967 1.95963 0
M  V30 3723 C 353.699 0.149337 1.69443 0
M  V30 3724 O 354.884 0.339852 1.91203 0
M  V30 3725 C 352.014 1.01275 3.32206 0
M  V30 3726 C 350.968 2.09652 3.73136 0
M  V30 3727 C 350.294 1.69166 5.07235 0
M  V30 3728 C 351.594 3.51372 3.86439 0
M  V30 3729 H 353.288 2.2112 2.01857 0
M  V30 3730 H 350.834 1.06447 0.969793 0
M  V30 3731 H 352.787 0.952106 4.10503 0
M  V30 3732 H 351.511 0.0356203 3.26581 0
M  V30 3733 H 350.17 2.14766 2.97104 0
M  V30 3734 H 349.818 0.701437 4.98085 0
M  V30 3735 H 349.518 2.41694 5.35591 0
M  V30 3736 H 351.042 1.64576 5.88003 0
M  V30 3737 H 352.456 3.48734 4.55036 0
M  V30 3738 H 350.853 4.22425 4.26236 0
M  V30 3739 H 351.923 3.89546 2.88759 0
M  V30 3740 N 353.266 -1.05314 1.17247 0
M  V30 3741 C 354.512 -1.78557 0.961513 0
M  V30 3742 C 354.845 -1.87419 -0.508697 0
M  V30 3743 O 354.12 -1.37307 -1.37757 0
M  V30 3744 C 354.403 -3.22514 1.60176 0
M  V30 3745 C 354.256 -3.21673 3.14399 0
M  V30 3746 C 355.575 -4.20318 1.30463 0
M  V30 3747 H 352.694 -0.6482 0.350723 0
M  V30 3748 H 355.336 -1.23102 1.44727 0
M  V30 3749 H 353.486 -3.69867 1.18871 0
M  V30 3750 H 355.158 -2.82405 3.64753 0
M  V30 3751 H 353.401 -2.60048 3.47214 0
M  V30 3752 H 354.072 -4.23271 3.54324 0
M  V30 3753 H 356.548 -3.81454 1.66229 0
M  V30 3754 H 355.424 -5.19289 1.77848 0
M  V30 3755 H 355.685 -4.41526 0.22521 0
M  V30 3756 N 354.744 -0.972509 -1.24016 0
M  V30 3757 C 355.707 -0.511403 -2.23422 0
M  V30 3758 C 356.707 0.394679 -1.55881 0
M  V30 3759 O 357.897 0.189469 -1.73167 0
M  V30 3760 C 355.029 0.258769 -3.39916 0
M  V30 3761 H 356.222 -1.39024 -2.6573 0
M  V30 3762 H 353.775 -0.757585 -1.36713 0
M  V30 3763 H 354.51 1.1545 -3.03054 0
M  V30 3764 H 354.295 -0.391522 -3.9014 0
M  V30 3765 H 355.785 0.570244 -4.13688 0
M  V30 3766 N 356.222 1.38976 -0.743202 0
M  V30 3767 C 357.152 2.33171 -0.123873 0
M  V30 3768 C 358.133 1.54336 0.71516 0
M  V30 3769 O 359.318 1.82696 0.658467 0
M  V30 3770 C 356.448 3.38474 0.777978 0
M  V30 3771 C 355.402 4.27979 0.0424758 0
M  V30 3772 C 354.728 5.2405 1.06189 0
M  V30 3773 C 356.028 5.10155 -1.1198 0
M  V30 3774 H 357.722 2.85213 -0.910709 0
M  V30 3775 H 355.268 1.37133 -0.439388 0
M  V30 3776 H 357.221 4.03328 1.22084 0
M  V30 3777 H 355.945 2.84891 1.59702 0
M  V30 3778 H 354.604 3.64616 -0.380853 0
M  V30 3779 H 354.252 4.66758 1.87472 0
M  V30 3780 H 353.952 5.84785 0.574485 0
M  V30 3781 H 355.476 5.9178 1.50428 0
M  V30 3782 H 356.89 5.68307 -0.75499 0
M  V30 3783 H 355.287 5.80073 -1.53738 0
M  V30 3784 H 356.357 4.44504 -1.93764 0
M  V30 3785 N 357.7 0.491464 1.49741 0
M  V30 3786 C 358.663 -0.280906 2.27472 0
M  V30 3787 C 359.663 -0.902454 1.33088 0
M  V30 3788 O 360.853 -0.768465 1.56334 0
M  V30 3789 C 357.985 -1.40209 3.10732 0
M  V30 3790 H 359.178 0.401056 2.97206 0
M  V30 3791 H 356.731 0.246131 1.5435 0
M  V30 3792 H 357.466 -2.11849 2.45541 0
M  V30 3793 H 357.251 -0.961969 3.80117 0
M  V30 3794 H 358.741 -1.9464 3.69466 0
M  V30 3795 N 359.178 -1.55987 0.224894 0
M  V30 3796 C 360.088 -2.24066 -0.69511 0
M  V30 3797 C 361.104 -1.24939 -1.21104 0
M  V30 3798 O 362.28 -1.5776 -1.25195 0
M  V30 3799 C 359.345 -2.90983 -1.88493 0
M  V30 3800 C 358.406 -4.05462 -1.41064 0
M  V30 3801 C 357.639 -4.69179 -2.54375 0
M  V30 3802 O 357.862 -4.31895 -3.72589 0
M  V30 3803 O 356.796 -5.58108 -2.25386 0
M  V30 3804 H 360.622 -3.03353 -0.145149 0
M  V30 3805 H 358.207 -1.49399 -0.00569476 0
M  V30 3806 H 360.089 -3.33209 -2.57972 0
M  V30 3807 H 358.764 -2.14653 -2.42293 0
M  V30 3808 H 357.671 -3.67798 -0.683774 0
M  V30 3809 H 359.004 -4.83545 -0.918985 0
M  V30 3810 N 360.656 0.0484629 -1.57525 0
M  V30 3811 C 362.072 0.40375 -1.54409 0
M  V30 3812 C 362.272 1.77786 -0.948384 0
M  V30 3813 O 361.328 2.46189 -0.560983 0
M  V30 3814 C 362.641 0.323394 -2.98956 0
M  V30 3815 C 364.189 0.401892 -3.10409 0
M  V30 3816 C 364.664 0.351195 -4.56652 0
M  V30 3817 N 366.155 0.410576 -4.61377 0
M  V30 3818 C 366.89 0.393933 -5.72045 0
M  V30 3819 N 366.386 0.330724 -6.9201 0
M  V30 3820 N 368.179 0.442227 -5.60358 0
M  V30 3821 H 360.33 -0.851016 -1.94606 0
M  V30 3822 H 362.593 -0.321721 -0.89174 0
M  V30 3823 H 362.299 -0.62011 -3.4619 0
M  V30 3824 H 362.173 1.12463 -3.60044 0
M  V30 3825 H 364.56 1.33582 -2.63134 0
M  V30 3826 H 364.641 -0.428342 -2.52188 0
M  V30 3827 H 364.285 -0.578987 -5.04589 0
M  V30 3828 H 364.215 1.19928 -5.12762 0
M  V30 3829 H 366.706 0.462729 -3.75056 0
M  V30 3830 H 367.019 0.322592 -7.72126 0
M  V30 3831 H 365.364 0.29706 -6.94365 0
M  V30 3832 H 368.555 0.489464 -4.65534 0
M  V30 3833 H 368.728 0.425788 -6.466 0
M  V30 3834 N 362.134 1.5431 0.320358 0
M  V30 3835 C 363.411 1.63322 1.07635 0
M  V30 3836 C 363.791 0.46912 2.05821 0
M  V30 3837 O 363.139 -0.536274 2.22118 0
M  V30 3838 C 363.349 3.00465 1.77544 0
M  V30 3839 C 364.697 3.56621 2.30449 0
M  V30 3840 O 365.721 3.02791 1.87606 0
M  V30 3841 O 364.58 4.5083 3.08892 0
M  V30 3842 H 361.674 0.661502 0.496331 0
M  V30 3843 H 364.22 1.66656 0.319992 0
M  V30 3844 H 362.992 3.76629 1.06143 0
M  V30 3845 H 362.615 3.00824 2.59982 0
M  V30 3846 O 363.651 -0.466303 1.54622 0
M  V30 3847 H 364.342 -1.12058 1.57996 0
M  V30 END ATOM
M  V30 BEGIN BOND
M  V30 END BOND
M  V30 END CTAB
M  END
$$$$
