drugbank_drug|DB09035 Heavy Chain Sequence
 OpenBabel12092119133D

  0  0  0     0  0            999 V3000
M  V30 BEGIN CTAB
M  V30 COUNTS 6747 6837 0 0 0
M  V30 BEGIN ATOM
M  V30 1 H -0.908 1.98254 -0.117106 0
M  V30 2 N 0 1.576 0 0
M  V30 3 C 0.932 2.05273 1.01958 0
M  V30 4 C 1.945 0.970662 1.30698 0
M  V30 5 O 3.134 1.24746 1.27674 0
M  V30 6 C 0.234 2.43771 2.35433 0
M  V30 7 C -0.593 3.74711 2.25633 0
M  V30 8 C -1.534 4.00077 3.41796 0
M  V30 9 O -2.508 4.70743 3.19984 0
M  V30 10 N -1.306 3.47973 4.64645 0
M  V30 11 H 1.459 2.93363 0.613025 0
M  V30 12 H -0.98 1.60812 0.187383 0
M  V30 13 H 1.012 2.57855 3.11918 0
M  V30 14 H -0.418 1.612 2.67831 0
M  V30 15 H -1.198 3.70705 1.34059 0
M  V30 16 H 0.09 4.60554 2.16258 0
M  V30 17 H -0.512 2.90748 4.85265 0
M  V30 18 H -1.955 3.67386 5.38396 0
M  V30 19 N 1.4781 -0.272755 1.55222 0
M  V30 20 C 2.7241 -1.00581 1.761 0
M  V30 21 C 3.0571 -1.85932 0.560625 0
M  V30 22 O 2.3321 -1.89416 -0.441801 0
M  V30 23 C 2.6151 -1.88816 3.06628 0
M  V30 24 C 2.4681 -1.06457 4.37021 0
M  V30 25 C 3.7871 -2.8752 3.33197 0
M  V30 26 H 0.9061 -0.364244 0.640699 0
M  V30 27 H 3.5481 -0.278189 1.87952 0
M  V30 28 H 1.6981 -2.50856 2.96654 0
M  V30 29 H 3.3701 -0.464863 4.58952 0
M  V30 30 H 1.6131 -0.368043 4.32236 0
M  V30 31 H 2.2841 -1.71514 5.24678 0
M  V30 32 H 4.7601 -2.35615 3.42965 0
M  V30 33 H 3.6361 -3.46399 4.25792 0
M  V30 34 H 3.8971 -3.62657 2.52849 0
M  V30 35 N 2.9562 -1.48159 -0.537278 0
M  V30 36 C 3.8882 -1.58218 -1.65831 0
M  V30 37 C 4.9012 -0.466948 -1.5596 0
M  V30 38 O 6.0902 -0.73747 -1.62553 0
M  V30 39 C 3.1902 -1.48906 -3.04434 0
M  V30 40 C 2.3632 -2.75343 -3.3986 0
M  V30 41 C 1.4222 -2.59588 -4.57712 0
M  V30 42 O 0.4482 -3.33457 -4.61297 0
M  V30 43 N 1.6502 -1.68724 -5.55439 0
M  V30 44 H 4.4152 -2.54891 -1.57641 0
M  V30 45 H 1.9762 -1.4479 -0.724386 0
M  V30 46 H 3.9682 -1.36072 -3.81139 0
M  V30 47 H 2.5382 -0.602368 -3.06741 0
M  V30 48 H 1.7582 -3.02795 -2.52406 0
M  V30 49 H 3.0462 -3.5924 -3.60311 0
M  V30 50 H 2.4442 -1.07898 -5.55315 0
M  V30 51 H 1.0012 -1.61832 -6.3139 0
M  V30 52 N 4.4343 0.785586 -1.36625 0
M  V30 53 C 5.3643 1.91259 -1.33949 0
M  V30 54 C 6.3453 1.68795 -0.210325 0
M  V30 55 O 7.5303 1.89854 -0.408561 0
M  V30 56 C 4.6603 3.28339 -1.13186 0
M  V30 57 C 3.6143 3.65335 -2.22967 0
M  V30 58 C 2.9403 5.00806 -1.87342 0
M  V30 59 C 4.2403 3.7352 -3.65075 0
M  V30 60 H 5.9343 1.93755 -2.28253 0
M  V30 61 H 3.4803 0.930788 -1.09874 0
M  V30 62 H 5.4333 4.06804 -1.09948 0
M  V30 63 H 4.1573 3.2624 -0.153332 0
M  V30 64 H 2.8163 2.89169 -2.25337 0
M  V30 65 H 2.4643 4.95233 -0.880545 0
M  V30 66 H 2.1643 5.26529 -2.60846 0
M  V30 67 H 3.6883 5.81687 -1.85667 0
M  V30 68 H 5.1023 4.42168 -3.64911 0
M  V30 69 H 3.4993 4.10731 -4.37516 0
M  V30 70 H 4.5693 2.74527 -3.99703 0
M  V30 71 N 5.9124 1.20967 1.01018 0
M  V30 72 C 7.1584 1.02526 1.74975 0
M  V30 73 C 7.4914 -0.4408 1.89131 0
M  V30 74 O 6.7664 -1.32718 1.42184 0
M  V30 75 C 7.0494 1.71699 3.1653 0
M  V30 76 C 6.9024 3.25791 3.10129 0
M  V30 77 C 8.2214 1.45531 4.15342 0
M  V30 78 H 5.3404 0.373863 0.635134 0
M  V30 79 H 7.9824 1.49071 1.17805 0
M  V30 80 H 6.1324 1.32128 3.65341 0
M  V30 81 H 7.8044 3.74697 2.69072 0
M  V30 82 H 6.0474 3.56363 2.47362 0
M  V30 83 H 6.7184 3.69353 4.10222 0
M  V30 84 H 9.1944 1.79872 3.75213 0
M  V30 85 H 8.0704 1.96453 5.1254 0
M  V30 86 H 8.3314 0.384237 4.40427 0
M  V30 87 N 7.3905 -1.2043 1.01659 0
M  V30 88 C 8.3005 -2.2689 0.596484 0
M  V30 89 C 9.3165 -1.70107 -0.36599 0
M  V30 90 O 10.4925 -2.00117 -0.226942 0
M  V30 91 C 7.5575 -3.4665 -0.0586659 0
M  V30 92 C 6.6185 -4.18662 0.949751 0
M  V30 93 C 5.8515 -5.32705 0.32577 0
M  V30 94 O 6.0745 -5.63656 -0.874509 0
M  V30 95 O 5.0085 -5.92803 1.04249 0
M  V30 96 H 8.8345 -2.65041 1.4828 0
M  V30 97 H 6.4195 -1.27048 0.786082 0
M  V30 98 H 8.3015 -4.19256 -0.424564 0
M  V30 99 H 6.9765 -3.10375 -0.91918 0
M  V30 100 H 5.8835 -3.48229 1.36702 0
M  V30 101 H 7.2165 -4.58878 1.78023 0
M  V30 102 N 8.8686 -0.792821 -1.36206 0
M  V30 103 C 10.0936 -0.377701 -2.03932 0
M  V30 104 C 10.5186 0.998947 -1.59382 0
M  V30 105 O 9.8766 1.64421 -0.763903 0
M  V30 106 C 9.9246 -0.453635 -3.57735 0
M  V30 107 O 9.0286 0.538151 -4.08874 0
M  V30 108 H 8.3696 -0.159855 -0.644471 0
M  V30 109 H 10.8996 -1.07488 -1.7409 0
M  V30 110 H 10.9096 -0.318464 -4.06755 0
M  V30 111 H 9.5846 -1.45784 -3.89512 0
M  V30 112 H 8.1616 0.364359 -3.71116 0
M  V30 113 N 10.3467 1.47872 -0.545128 0
M  V30 114 C 11.5947 2.02093 -0.016553 0
M  V30 115 C 11.9157 1.42305 1.3332 0
M  V30 116 O 11.1857 0.593853 1.86682 0
M  V30 117 H 9.7657 0.746993 -0.00313038 0
M  V30 118 H 12.4277 1.81414 -0.712397 0
M  V30 119 H 11.5237 3.11996 0.0805422 0
M  V30 120 N 11.8248 0.280983 1.55075 0
M  V30 121 C 13.0728 -0.333455 1.9933 0
M  V30 122 C 13.3938 -1.55937 1.17085 0
M  V30 123 O 12.6638 -1.94143 0.261805 0
M  V30 124 H 11.2438 -0.126197 0.736263 0
M  V30 125 H 13.9058 0.387678 1.91005 0
M  V30 126 H 13.0018 -0.619292 3.05894 0
M  V30 127 N 13.3029 -1.57598 0.00835791 0
M  V30 128 C 14.5509 -1.90551 -0.6734 0
M  V30 129 C 14.8719 -0.883301 -1.73847 0
M  V30 130 O 14.1419 0.0781442 -1.95744 0
M  V30 131 H 12.7219 -0.703312 -0.251717 0
M  V30 132 H 15.3839 -1.94833 0.0512592 0
M  V30 133 H 14.4799 -2.9056 -1.13935 0
M  V30 134 N 14.781 0.264519 -1.55364 0
M  V30 135 C 16.027 0.99646 -1.76631 0
M  V30 136 C 16.36 1.85632 -0.570478 0
M  V30 137 O 15.635 1.89647 0.43175 0
M  V30 138 C 15.918 1.87187 -3.07625 0
M  V30 139 C 15.771 1.04138 -4.37579 0
M  V30 140 C 17.09 2.85749 -3.34717 0
M  V30 141 H 14.209 0.360841 -0.642622 0
M  V30 142 H 16.851 0.268218 -1.88097 0
M  V30 143 H 15.001 2.49279 -2.9798 0
M  V30 144 H 16.673 0.440517 -4.59192 0
M  V30 145 H 14.916 0.345115 -4.32425 0
M  V30 146 H 15.587 1.68729 -5.2558 0
M  V30 147 H 18.063 2.33793 -3.4421 0
M  V30 148 H 16.939 3.44136 -4.27623 0
M  V30 149 H 17.2 3.61311 -2.54768 0
M  V30 150 N 16.2591 1.48442 0.529413 0
M  V30 151 C 17.5051 1.5672 1.28711 0
M  V30 152 C 17.8381 0.2406 1.92704 0
M  V30 153 O 17.1131 -0.753454 1.79313 0
M  V30 154 C 17.3961 2.70587 2.37603 0
M  V30 155 C 17.2491 4.12953 1.78297 0
M  V30 156 C 18.5681 2.80212 3.39366 0
M  V30 157 H 15.6871 0.570474 0.466613 0
M  V30 158 H 18.3291 1.80617 0.589706 0
M  V30 159 H 16.4791 2.50342 2.97088 0
M  V30 160 H 18.1511 4.44639 1.22858 0
M  V30 161 H 16.3941 4.19927 1.0883 0
M  V30 162 H 17.0651 4.88448 2.57144 0
M  V30 163 H 19.5411 2.98553 2.89836 0
M  V30 164 H 18.4171 3.61611 4.12951 0
M  V30 165 H 18.6781 1.88393 3.99951 0
M  V30 166 N 17.7372 -0.778329 1.37039 0
M  V30 167 C 18.6692 -1.90034 1.2814 0
M  V30 168 C 19.6822 -1.61585 0.198558 0
M  V30 169 O 20.8712 -1.72625 0.454175 0
M  V30 170 C 17.9712 -3.25108 0.956968 0
M  V30 171 C 17.1442 -3.81253 2.14394 0
M  V30 172 C 16.2032 -4.94789 1.79082 0
M  V30 173 O 15.2292 -5.10721 2.51301 0
M  V30 174 N 16.4312 -5.75878 0.731043 0
M  V30 175 H 19.1962 -1.98186 2.24816 0
M  V30 176 H 16.7572 -0.957129 1.30578 0
M  V30 177 H 18.7492 -3.9857 0.701701 0
M  V30 178 H 17.3192 -3.125 0.0789812 0
M  V30 179 H 16.5392 -2.99647 2.56135 0
M  V30 180 H 17.8272 -4.15495 2.93668 0
M  V30 181 H 17.2252 -5.65547 0.131618 0
M  V30 182 H 15.7822 -6.49596 0.535622 0
M  V30 183 N 19.2153 -1.21501 -1.00376 0
M  V30 184 C 20.6263 -1.03146 -1.55621 0
M  V30 185 C 20.9773 0.408375 -1.91903 0
M  V30 186 O 20.1023 1.29177 -1.73616 0
M  V30 187 C 20.6973 -1.86612 -2.82775 0
M  V30 188 C 19.2563 -1.72586 -3.34501 0
M  V30 189 C 18.4033 -1.83747 -2.07683 0
M  V30 190 H 21.3543 -1.35505 -0.826081 0
M  V30 191 H 21.3753 -1.3771 -3.54706 0
M  V30 192 H 20.8873 -2.91399 -2.56336 0
M  V30 193 H 18.9883 -0.704877 -3.65872 0
M  V30 194 H 19.1013 -2.54623 -4.05837 0
M  V30 195 H 17.4653 -1.27069 -2.20739 0
M  V30 196 H 18.2483 -2.90044 -1.83655 0
M  V30 197 N 20.6934 1.19889 -1.02296 0
M  V30 198 C 21.9414 1.89046 -0.714558 0
M  V30 199 C 22.2624 1.79636 0.758681 0
M  V30 200 O 21.5324 1.20292 1.54618 0
M  V30 201 H 20.1124 0.699802 -0.261317 0
M  V30 202 H 22.7744 1.45574 -1.29592 0
M  V30 203 H 21.8704 2.95524 -1.0036 0
M  V30 204 N 22.1715 0.800033 1.35784 0
M  V30 205 C 23.5875 0.482977 1.52117 0
M  V30 206 C 23.7875 -0.996948 1.75109 0
M  V30 207 O 22.8435 -1.78216 1.78872 0
M  V30 208 C 24.1565 1.32264 2.70049 0
M  V30 209 C 25.7045 1.31742 2.83924 0
M  V30 210 C 26.1795 2.14106 4.04874 0
M  V30 211 N 27.6705 2.11607 4.12039 0
M  V30 212 C 28.4055 2.72099 5.04727 0
M  V30 213 N 27.9015 3.41492 6.02789 0
M  V30 214 N 29.6945 2.61776 4.97423 0
M  V30 215 H 21.8455 1.75856 1.19115 0
M  V30 216 H 24.1085 0.748122 0.582252 0
M  V30 217 H 23.8145 2.37261 2.59616 0
M  V30 218 H 23.6885 0.971303 3.6448 0
M  V30 219 H 26.0755 0.275333 2.93813 0
M  V30 220 H 26.1565 1.70859 1.9037 0
M  V30 221 H 25.8005 3.18351 3.95746 0
M  V30 222 H 25.7305 1.72353 4.97596 0
M  V30 223 H 28.2215 1.61112 3.41835 0
M  V30 224 H 28.5345 3.84953 6.70098 0
M  V30 225 H 26.8795 3.45596 6.02983 0
M  V30 226 H 30.0705 2.07157 4.19766 0
M  V30 227 H 30.2435 3.0921 5.69468 0
M  V30 228 N 23.6496 -1.47581 0.552962 0
M  V30 229 C 24.8746 -2.07378 0.0300593 0
M  V30 230 C 25.2996 -1.40355 -1.25229 0
M  V30 231 O 24.6576 -0.477099 -1.7491 0
M  V30 232 C 24.7056 -3.60274 -0.153231 0
M  V30 233 O 23.8096 -3.94041 -1.21678 0
M  V30 234 H 23.1506 -0.662158 0.0494182 0
M  V30 235 H 25.6806 -1.89662 0.767434 0
M  V30 236 H 25.6906 -4.0633 -0.368761 0
M  V30 237 H 24.3656 -4.08455 0.783397 0
M  V30 238 H 22.9426 -3.59735 -0.982079 0
M  V30 239 N 25.1277 -0.289203 -1.54924 0
M  V30 240 C 26.0577 0.58549 -2.2604 0
M  V30 241 C 27.0387 1.14753 -1.25562 0
M  V30 242 O 28.2237 1.17906 -1.54311 0
M  V30 243 C 25.3537 1.76305 -2.99222 0
M  V30 244 C 24.3077 1.33191 -4.06748 0
M  V30 245 C 23.6337 2.5937 -4.6758 0
M  V30 246 C 24.9337 0.471775 -5.20165 0
M  V30 247 H 26.6277 -0.00763532 -2.99399 0
M  V30 248 H 24.1737 -0.00511229 -1.43999 0
M  V30 249 H 26.1267 2.38097 -3.47689 0
M  V30 250 H 24.8507 2.38223 -2.23422 0
M  V30 251 H 23.5097 0.737121 -3.59113 0
M  V30 252 H 23.1577 3.19576 -3.88433 0
M  V30 253 H 22.8577 2.31228 -5.40192 0
M  V30 254 H 24.3817 3.21985 -5.18804 0
M  V30 255 H 25.7957 0.995056 -5.64599 0
M  V30 256 H 24.1927 0.284639 -5.99425 0
M  V30 257 H 25.2627 -0.506041 -4.82252 0
M  V30 258 N 26.6058 1.57591 -0.0167156 0
M  V30 259 C 28.0218 1.55946 0.339557 0
M  V30 260 C 28.2218 1.02109 1.73713 0
M  V30 261 O 27.2778 0.662303 2.43659 0
M  V30 262 C 28.5908 3.00037 0.199499 0
M  V30 263 C 30.1388 3.11805 0.273193 0
M  V30 264 C 30.6138 4.57713 0.162068 0
M  V30 265 N 32.1048 4.6268 0.219444 0
M  V30 266 C 32.8398 5.73185 0.157054 0
M  V30 267 N 32.3358 6.92786 0.0442936 0
M  V30 268 N 34.1288 5.61707 0.21014 0
M  V30 269 H 26.2798 1.90921 -0.930758 0
M  V30 270 H 28.5428 0.877674 -0.358319 0
M  V30 271 H 28.2488 3.4333 -0.76273 0
M  V30 272 H 28.1228 3.64387 0.974786 0
M  V30 273 H 30.5098 2.68433 1.22587 0
M  V30 274 H 30.5908 2.50201 -0.532256 0
M  V30 275 H 30.2348 5.01763 -0.78714 0
M  V30 276 H 30.1648 5.17283 0.986222 0
M  V30 277 H 32.6558 3.76649 0.307246 0
M  V30 278 H 32.9688 7.728 0.00304069 0
M  V30 279 H 31.3138 6.94999 0.00968457 0
M  V30 280 H 34.5048 4.6716 0.296546 0
M  V30 281 H 34.6778 6.47807 0.158054 0
M  V30 282 N 28.0839 -0.256276 1.55502 0
M  V30 283 C 29.0139 -1.32102 1.92539 0
M  V30 284 C 29.9949 -1.50684 0.789194 0
M  V30 285 O 31.1799 -1.63449 1.04872 0
M  V30 286 C 28.3099 -2.67752 2.21192 0
M  V30 287 C 27.2639 -2.63878 3.36975 0
M  V30 288 C 26.5899 -4.03236 3.51147 0
M  V30 289 C 27.8899 -2.21682 4.72921 0
M  V30 290 H 29.5839 -1.01351 2.81724 0
M  V30 291 H 27.1299 -0.486105 1.35547 0
M  V30 292 H 29.0829 -3.42365 2.45691 0
M  V30 293 H 27.8069 -3.0012 1.28824 0
M  V30 294 H 26.4659 -1.91722 3.12471 0
M  V30 295 H 26.1139 -4.32854 2.56216 0
M  V30 296 H 25.8139 -4.01535 4.29003 0
M  V30 297 H 27.3379 -4.79563 3.77957 0
M  V30 298 H 28.7519 -2.86023 4.96854 0
M  V30 299 H 27.1489 -2.3111 5.53812 0
M  V30 300 H 28.2189 -1.16833 4.70615 0
M  V30 301 N 29.562 -1.4872 -0.521534 0
M  V30 302 C 30.839 -1.4766 -1.2828 0
M  V30 303 C 31.219 -0.19292 -2.10217 0
M  V30 304 O 30.567 0.825193 -2.13079 0
M  V30 305 C 30.777 -2.74358 -2.15705 0
M  V30 306 C 32.125 -3.23028 -2.75569 0
M  V30 307 O 33.149 -2.75333 -2.25987 0
M  V30 308 O 32.008 -4.0604 -3.65778 0
M  V30 309 H 29.102 -0.590085 -0.579421 0
M  V30 310 H 31.648 -1.60963 -0.537492 0
M  V30 311 H 30.42 -3.59292 -1.54999 0
M  V30 312 H 30.043 -2.63816 -2.97467 0
M  V30 313 N 31.0401 0.771051 -1.3745 0
M  V30 314 C 32.2801 1.54264 -1.34096 0
M  V30 315 C 32.6441 1.91858 0.0737639 0
M  V30 316 O 33.8451 2.67797 0.23203 0
M  V30 317 C 32.1161 2.77326 -2.25445 0
M  V30 318 S 33.6751 3.67383 -2.39948 0
M  V30 319 H 30.4931 0.528122 -0.476034 0
M  V30 320 H 33.0951 0.906633 -1.73206 0
M  V30 321 H 31.7991 2.47788 -3.27153 0
M  V30 322 H 31.3301 3.45886 -1.87421 0
M  V30 323 H 33.3451 4.69334 -1.61059 0
M  V30 324 N 32.5182 1.22032 0.997298 0
M  V30 325 C 33.4652 0.986467 2.08656 0
M  V30 326 C 34.4352 -0.0902671 1.65855 0
M  V30 327 O 35.6202 0.0584294 1.90711 0
M  V30 328 C 32.7602 0.565569 3.40434 0
M  V30 329 C 31.8732 1.71259 3.96604 0
M  V30 330 C 31.0082 1.24011 5.16522 0
M  V30 331 C 30.0472 2.35896 5.64818 0
M  V30 332 N 29.1842 1.89726 6.7598 0
M  V30 333 H 34.0242 1.91892 2.27994 0
M  V30 334 H 31.5612 0.956199 1.11782 0
M  V30 335 H 33.5192 0.302738 4.161 0
M  V30 336 H 32.1492 -0.329879 3.2111 0
M  V30 337 H 31.2012 2.08986 3.17851 0
M  V30 338 H 32.5132 2.55436 4.28432 0
M  V30 339 H 31.6672 0.934395 5.99461 0
M  V30 340 H 30.4062 0.368487 4.86306 0
M  V30 341 H 29.4112 2.67261 4.8047 0
M  V30 342 H 30.6362 3.23567 5.97061 0
M  V30 343 H 28.5822 1.0492 6.47555 0
M  V30 344 H 28.4992 2.67471 7.07103 0
M  V30 345 H 29.7672 1.62211 7.62435 0
M  V30 346 N 33.9963 -1.19345 1.0293 0
M  V30 347 C 34.9593 -2.20793 0.615069 0
M  V30 348 C 35.9593 -1.57553 -0.321533 0
M  V30 349 O 37.1493 -1.73862 -0.108483 0
M  V30 350 C 34.2813 -3.40754 -0.0999222 0
M  V30 351 H 35.4743 -2.58955 1.51269 0
M  V30 352 H 33.0273 -1.3303 0.820534 0
M  V30 353 H 33.7623 -3.0811 -1.01187 0
M  V30 354 H 33.5473 -3.87889 0.57309 0
M  V30 355 H 35.0373 -4.15898 -0.376645 0
M  V30 356 N 35.4744 -0.807222 -1.35358 0
M  V30 357 C 36.6994 -0.399309 -2.0352 0
M  V30 358 C 37.1244 0.981986 -1.60433 0
M  V30 359 O 36.4824 1.63601 -0.781299 0
M  V30 360 C 36.5304 -0.491552 -3.57234 0
M  V30 361 O 35.6344 0.494754 -4.09421 0
M  V30 362 H 34.9754 -0.166682 -0.642739 0
M  V30 363 H 37.5054 -1.09328 -1.72941 0
M  V30 364 H 37.5154 -0.361588 -4.06395 0
M  V30 365 H 36.1904 -1.49907 -3.87944 0
M  V30 366 H 34.7674 0.324977 -3.71481 0
M  V30 367 N 36.9525 1.47285 -0.560781 0
M  V30 368 C 38.2005 2.02064 -0.0379868 0
M  V30 369 C 38.5215 1.43711 1.31803 0
M  V30 370 O 37.7915 0.61362 1.86042 0
M  V30 371 H 36.3715 0.746918 -0.0110531 0
M  V30 372 H 39.0335 1.80648 -0.731598 0
M  V30 373 H 38.1295 3.12064 0.0474463 0
M  V30 374 N 38.4306 0.297415 1.54768 0
M  V30 375 C 39.6796 -0.313669 1.99246 0
M  V30 376 C 39.9926 -1.55281 1.18942 0
M  V30 377 O 41.1986 -2.23825 1.5367 0
M  V30 378 C 39.6546 -0.609407 3.54703 0
M  V30 379 C 39.2626 0.611192 4.43811 0
M  V30 380 C 41.0066 -1.18188 4.07715 0
M  V30 381 C 38.9136 0.288805 5.90694 0
M  V30 382 H 37.8436 -0.120979 0.744231 0
M  V30 383 H 40.4946 0.40556 1.78962 0
M  V30 384 H 38.8766 -1.38813 3.70873 0
M  V30 385 H 40.0506 1.3875 4.39414 0
M  V30 386 H 38.3656 1.10205 4.01552 0
M  V30 387 H 40.9626 -1.43727 5.15021 0
M  V30 388 H 41.3056 -2.12299 3.58099 0
M  V30 389 H 41.8386 -0.464944 3.95074 0
M  V30 390 H 38.5776 1.19838 6.44453 0
M  V30 391 H 38.0976 -0.450305 5.98107 0
M  V30 392 H 39.7766 -0.110933 6.46905 0
M  V30 393 N 39.9087 -1.5758 0.0250728 0
M  V30 394 C 41.1367 -1.9593 -0.664747 0
M  V30 395 C 41.5517 -0.901352 -1.65895 0
M  V30 396 O 40.9087 0.117255 -1.82123 0
M  V30 397 C 40.9597 -3.34342 -1.37468 0
M  V30 398 O 40.6807 -4.36079 -0.420324 0
M  V30 399 C 42.1817 -3.873 -2.1567 0
M  V30 400 H 39.4017 -0.645405 -0.183557 0
M  V30 401 H 41.9457 -2.04329 0.0836372 0
M  V30 402 H 40.1007 -3.27175 -2.0745 0
M  V30 403 H 40.5147 -5.16297 -0.923991 0
M  V30 404 H 41.9887 -4.86504 -2.60803 0
M  V30 405 H 42.4657 -3.21331 -2.99405 0
M  V30 406 H 43.0717 -3.97723 -1.50654 0
M  V30 407 N 41.3868 0.248026 -1.55636 0
M  V30 408 C 42.6338 0.976224 -1.77415 0
M  V30 409 C 42.9618 1.85361 -0.589193 0
M  V30 410 O 42.2168 1.90973 0.427529 0
M  V30 411 C 42.5158 1.86819 -3.04686 0
M  V30 412 C 42.1818 1.14625 -4.36087 0
M  V30 413 C 40.8438 0.946723 -4.71795 0
M  V30 414 C 43.1958 0.634463 -5.17324 0
M  V30 415 C 40.5238 0.223091 -5.86276 0
M  V30 416 C 42.8758 -0.0756959 -6.32555 0
M  V30 417 C 41.5398 -0.286711 -6.66884 0
M  V30 418 H 40.8098 0.357226 -0.649208 0
M  V30 419 H 43.4568 0.246415 -1.89908 0
M  V30 420 H 41.7618 2.66502 -2.872 0
M  V30 421 H 43.4588 2.43329 -3.18735 0
M  V30 422 H 40.0488 1.3117 -4.08035 0
M  V30 423 H 44.2328 0.77616 -4.90193 0
M  V30 424 H 39.4888 0.0491185 -6.1138 0
M  V30 425 H 43.6628 -0.479899 -6.94745 0
M  V30 426 H 41.2898 -0.849389 -7.5544 0
M  V30 427 N 42.8649 1.48995 0.513639 0
M  V30 428 C 44.0899 1.61792 1.29762 0
M  V30 429 C 44.5149 0.284475 1.85936 0
M  V30 430 O 43.8729 -0.746185 1.65232 0
M  V30 431 C 43.9209 2.67993 2.41272 0
M  V30 432 O 43.0249 2.26287 3.44772 0
M  V30 433 H 42.3659 0.541963 0.38363 0
M  V30 434 H 44.8959 1.95097 0.616307 0
M  V30 435 H 44.9059 2.89772 2.87221 0
M  V30 436 H 43.5809 3.64791 1.9975 0
M  V30 437 H 42.1579 2.14788 3.04829 0
M  V30 438 N 44.343 -0.763751 1.37857 0
M  V30 439 C 45.291 -1.89864 1.34367 0
M  V30 440 C 46.285 -1.67816 0.231143 0
M  V30 441 O 47.491 -1.75508 0.399617 0
M  V30 442 H 43.866 -0.624501 0.41893 0
M  V30 443 H 45.837 -1.89925 2.30155 0
M  V30 444 C 44.586 -3.27227 1.1755 0
M  V30 445 H 43.909 -3.44773 2.02414 0
M  V30 446 H 45.349 -4.06911 1.1916 0
M  V30 447 C 43.808 -3.36692 -0.118311 0
M  V30 448 O 44.338 -3.86374 -1.09902 0
M  V30 449 N 42.544 -2.90092 -0.171717 0
M  V30 450 H 42.091 -2.49853 0.627012 0
M  V30 451 H 42.049 -2.96806 -1.03699 0
M  V30 452 N 45.8211 -1.22559 -0.990812 0
M  V30 453 C 47.0461 -1.07862 -1.77145 0
M  V30 454 C 47.4711 0.366447 -1.84496 0
M  V30 455 O 46.8291 1.26478 -1.29896 0
M  V30 456 C 46.8771 -1.69686 -3.18181 0
M  V30 457 O 45.9811 -0.951946 -4.01263 0
M  V30 458 H 45.3221 -0.378712 -0.545411 0
M  V30 459 H 47.8521 -1.62399 -1.2445 0
M  V30 460 H 47.8621 -1.74496 -3.68802 0
M  V30 461 H 46.5371 -2.74841 -3.12146 0
M  V30 462 H 45.1141 -0.980011 -3.59792 0
M  V30 463 N 47.2992 1.18797 -1.03562 0
M  V30 464 C 48.5472 1.88278 -0.734569 0
M  V30 465 C 48.8682 1.8043 0.739586 0
M  V30 466 O 48.1382 1.21925 1.53333 0
M  V30 467 H 46.7182 0.696991 -0.268725 0
M  V30 468 H 49.3802 1.44192 -1.31129 0
M  V30 469 H 48.4762 2.94443 -1.03489 0
M  V30 470 N 48.7773 0.814389 1.34928 0
M  V30 471 C 49.7103 0.175641 2.27523 0
M  V30 472 C 50.6883 -0.662953 1.48471 0
M  V30 473 O 51.8723 -0.628545 1.77712 0
M  V30 474 C 48.9993 -0.755516 3.30166 0
M  V30 475 C 48.0453 0.00445305 4.265 0
M  V30 476 S 48.8783 1.34582 5.18313 0
M  V30 477 C 50.0343 0.419315 6.24494 0
M  V30 478 H 50.2673 0.960691 2.8135 0
M  V30 479 H 47.8003 0.609846 1.41846 0
M  V30 480 H 49.7583 -1.28723 3.89796 0
M  V30 481 H 48.4193 -1.51402 2.75202 0
M  V30 482 H 47.6123 -0.703077 4.99072 0
M  V30 483 H 47.2143 0.466447 3.7108 0
M  V30 484 H 49.5063 -0.392432 6.76362 0
M  V30 485 H 50.4493 1.11446 6.99275 0
M  V30 486 H 50.8573 0.0115389 5.64499 0
M  V30 487 N 50.2554 -1.46986 0.568584 0
M  V30 488 C 51.2054 -2.27179 -0.193339 0
M  V30 489 C 52.1894 -1.35035 -0.874895 0
M  V30 490 O 53.3814 -1.5931 -0.771322 0
M  V30 491 C 50.5104 -3.21063 -1.21546 0
M  V30 492 C 49.5964 -4.2069 -0.536738 0
M  V30 493 N 49.9874 -5.04218 0.399673 0
M  V30 494 C 48.2854 -4.38961 -0.789254 0
M  V30 495 C 48.9864 -5.76242 0.795017 0
M  V30 496 N 47.9624 -5.434 0.1473 0
M  V30 497 H 51.7644 -2.89146 0.526458 0
M  V30 498 H 49.2784 -1.57664 0.389342 0
M  V30 499 H 51.2754 -3.77209 -1.77536 0
M  V30 500 H 49.9354 -2.60654 -1.93623 0
M  V30 501 H 50.9464 -5.12077 0.774454 0
M  V30 502 H 47.6234 -3.89713 -1.49767 0
M  V30 503 H 49.0134 -6.53417 1.56513 0
M  V30 504 N 51.7335 -0.305618 -1.54608 0
M  V30 505 C 52.9795 0.295595 -2.01241 0
M  V30 506 C 53.3345 1.51171 -1.19018 0
M  V30 507 O 52.6275 1.89832 -0.259684 0
M  V30 508 C 52.8215 0.698983 -3.50498 0
M  V30 509 C 52.6505 -0.476491 -4.47168 0
M  V30 510 C 51.4205 -0.969963 -4.95903 0
M  V30 511 C 53.6185 -1.32294 -4.96994 0
M  V30 512 N 51.6005 -2.11172 -5.76437 0
M  V30 513 C 52.9715 -2.31212 -5.75275 0
M  V30 514 C 55.0265 -1.35278 -4.7917 0
M  V30 515 C 53.7295 -3.32896 -6.37631 0
M  V30 516 C 55.7555 -2.35823 -5.42348 0
M  V30 517 C 55.1175 -3.33469 -6.20466 0
M  V30 518 H 51.2165 0.0724992 -0.778632 0
M  V30 519 H 53.8005 -0.436583 -1.89742 0
M  V30 520 H 51.9715 1.40032 -3.62278 0
M  V30 521 H 53.7035 1.28013 -3.8392 0
M  V30 522 H 50.4585 -0.544178 -4.70463 0
M  V30 523 H 50.8825 -2.68714 -6.21387 0
M  V30 524 H 55.5245 -0.61157 -4.18354 0
M  V30 525 H 53.2425 -4.07933 -6.97579 0
M  V30 526 H 56.8285 -2.38911 -5.30484 0
M  V30 527 H 55.7085 -4.09996 -6.68485 0
M  V30 528 N 53.2116 1.57565 -0.0334293 0
M  V30 529 C 54.4576 1.92262 0.645226 0
M  V30 530 C 54.7906 0.910543 1.71531 0
M  V30 531 O 54.0656 -0.066099 1.94388 0
M  V30 532 C 54.3486 3.37422 1.2577 0
M  V30 533 C 54.2016 4.49369 0.196891 0
M  V30 534 C 55.5206 3.82628 2.17449 0
M  V30 535 H 52.6396 0.699171 0.233085 0
M  V30 536 H 55.2816 1.89779 -0.0915694 0
M  V30 537 H 53.4316 3.39669 1.88566 0
M  V30 538 H 55.1036 4.59254 -0.433962 0
M  V30 539 H 53.3466 4.31168 -0.477137 0
M  V30 540 H 54.0176 5.47978 0.665124 0
M  V30 541 H 56.4936 3.82145 1.64634 0
M  V30 542 H 55.3696 4.84883 2.57254 0
M  V30 543 H 55.6306 3.18376 3.0674 0
M  V30 544 N 54.6897 -0.239769 1.55765 0
M  V30 545 C 56.1057 -0.588624 1.48349 0
M  V30 546 C 56.3057 -1.88005 0.72502 0
M  V30 547 O 55.3617 -2.51186 0.257269 0
M  V30 548 C 56.6747 -0.68474 2.928 0
M  V30 549 C 58.2227 -0.77659 3.03213 0
M  V30 550 C 58.6977 -0.904207 4.48986 0
M  V30 551 N 60.1887 -0.968896 4.52953 0
M  V30 552 C 60.9237 -1.08703 5.63002 0
M  V30 553 N 60.4197 -1.17026 6.82845 0
M  V30 554 N 62.2127 -1.12074 5.50814 0
M  V30 555 H 54.3637 0.607911 2.03515 0
M  V30 556 H 56.6267 0.21083 0.924259 0
M  V30 557 H 56.3327 0.194284 3.51163 0
M  V30 558 H 56.2067 -1.55435 3.43686 0
M  V30 559 H 58.5937 -1.64606 2.44926 0
M  V30 560 H 58.6747 0.118315 2.55526 0
M  V30 561 H 58.3187 -0.0392633 5.07885 0
M  V30 562 H 58.2487 -1.81426 4.9436 0
M  V30 563 H 60.7397 -0.915633 3.6664 0
M  V30 564 H 61.0527 -1.25966 7.62465 0
M  V30 565 H 59.3977 -1.13971 6.85591 0
M  V30 566 H 62.5887 -1.05226 4.5612 0
M  V30 567 H 62.7617 -1.20936 6.36615 0
M  V30 568 N 56.1678 -1.49265 -0.50573 0
M  V30 569 C 57.0998 -1.617 -1.62437 0
M  V30 570 C 58.1128 -0.499924 -1.54934 0
M  V30 571 O 59.3018 -0.771785 -1.60953 0
M  V30 572 C 56.4018 -1.5533 -3.01207 0
M  V30 573 C 55.5748 -2.8249 -3.33943 0
M  V30 574 C 54.6338 -2.69238 -4.52103 0
M  V30 575 O 53.6598 -3.43167 -4.5412 0
M  V30 576 N 54.8618 -1.80468 -5.51735 0
M  V30 577 H 57.6268 -2.58177 -1.52199 0
M  V30 578 H 55.1878 -1.46294 -0.693511 0
M  V30 579 H 57.1798 -1.44125 -3.78167 0
M  V30 580 H 55.7498 -0.667297 -3.05395 0
M  V30 581 H 54.9698 -3.08081 -2.45926 0
M  V30 582 H 56.2578 -3.66802 -3.5261 0
M  V30 583 H 55.6558 -1.19653 -5.52901 0
M  V30 584 H 54.2128 -1.75188 -6.27816 0
M  V30 585 N 57.6459 0.756429 -1.3826 0
M  V30 586 C 58.6089 1.85176 -1.35065 0
M  V30 587 C 59.6089 1.58818 -0.251703 0
M  V30 588 O 60.7989 1.66615 -0.508433 0
M  V30 589 C 57.9309 3.22596 -1.10201 0
M  V30 590 H 59.1239 1.89417 -2.3251 0
M  V30 591 H 56.6769 0.95783 -1.23512 0
M  V30 592 H 57.4119 3.24025 -0.133504 0
M  V30 593 H 57.1969 3.43122 -1.89762 0
M  V30 594 H 58.6869 4.02673 -1.10654 0
M  V30 595 N 59.124 1.23083 0.984299 0
M  V30 596 C 60.535 1.05609 1.5396 0
M  V30 597 C 60.886 -0.377793 1.92528 0
M  V30 598 O 60.011 -1.26398 1.75649 0
M  V30 599 C 60.606 1.91087 2.7977 0
M  V30 600 C 59.165 1.77885 3.31713 0
M  V30 601 C 58.312 1.87028 2.04733 0
M  V30 602 H 61.263 1.36802 0.804419 0
M  V30 603 H 61.284 1.43336 3.5247 0
M  V30 604 H 60.796 2.9544 2.51668 0
M  V30 605 H 58.897 0.762995 3.64704 0
M  V30 606 H 59.01 2.61047 4.01735 0
M  V30 607 H 57.374 1.30565 2.18689 0
M  V30 608 H 58.157 2.92929 1.79017 0
M  V30 609 N 60.6021 -1.18246 1.0419 0
M  V30 610 C 61.8501 -1.87886 0.744543 0
M  V30 611 C 62.1711 -1.8082 -0.730006 0
M  V30 612 O 61.4411 -1.22736 -1.52685 0
M  V30 613 H 60.0211 -0.695556 0.272417 0
M  V30 614 H 62.6831 -1.43494 1.31892 0
M  V30 615 H 61.7791 -2.9389 1.05049 0
M  V30 616 N 62.0802 -0.821533 -1.34494 0
M  V30 617 C 63.0272 -0.240397 -2.29545 0
M  V30 618 C 63.9972 0.634031 -1.53523 0
M  V30 619 O 65.1822 0.575966 -1.81899 0
M  V30 620 C 62.3222 0.592869 -3.39969 0
M  V30 621 C 61.4352 -0.30365 -4.30932 0
M  V30 622 C 60.5702 0.539049 -5.28458 0
M  V30 623 C 59.6092 -0.356942 -6.11058 0
M  V30 624 N 58.7462 0.446603 -7.00678 0
M  V30 625 H 63.5862 -1.05632 -2.7865 0
M  V30 626 H 61.1232 -0.532413 -1.37127 0
M  V30 627 H 63.0812 1.09129 -4.02675 0
M  V30 628 H 61.7112 1.37392 -2.92102 0
M  V30 629 H 60.7632 -0.920276 -3.691 0
M  V30 630 H 62.0752 -0.992661 -4.88823 0
M  V30 631 H 61.2292 1.102 -5.96608 0
M  V30 632 H 59.9682 1.26157 -4.71101 0
M  V30 633 H 58.9732 -0.932047 -5.41842 0
M  V30 634 H 60.1982 -1.07755 -6.70497 0
M  V30 635 H 58.1442 1.15282 -6.45791 0
M  V30 636 H 58.0612 -0.184048 -7.55776 0
M  V30 637 H 59.3292 0.992352 -7.73158 0
M  V30 638 N 63.5583 1.46682 -0.576371 0
M  V30 639 C 64.8063 2.02013 -0.0594163 0
M  V30 640 C 65.1273 1.45101 1.30271 0
M  V30 641 O 64.3973 0.633317 1.8538 0
M  V30 642 H 62.9773 0.746759 -0.0189745 0
M  V30 643 H 65.6393 1.79862 -0.750717 0
M  V30 644 H 64.7353 3.12097 0.014345 0
M  V30 645 N 65.0364 0.313813 1.54444 0
M  V30 646 C 65.9664 -0.549454 2.26943 0
M  V30 647 C 66.9474 -1.12741 1.27372 0
M  V30 648 O 68.1324 -1.15436 1.56167 0
M  V30 649 C 65.2624 -1.71523 3.01989 0
M  V30 650 C 64.2164 -1.26703 4.08816 0
M  V30 651 C 63.5424 -2.51898 4.71647 0
M  V30 652 C 64.8424 -0.388962 5.2085 0
M  V30 653 H 66.5364 0.0552661 2.99349 0
M  V30 654 H 64.0824 0.0280207 1.43973 0
M  V30 655 H 66.0354 -2.32535 3.51433 0
M  V30 656 H 64.7594 -2.34639 2.27183 0
M  V30 657 H 63.4184 -0.679896 3.6024 0
M  V30 658 H 63.0664 -3.13356 3.93468 0
M  V30 659 H 62.7664 -2.22605 5.43802 0
M  V30 660 H 64.2904 -3.1369 5.23861 0
M  V30 661 H 65.7044 -0.905107 5.6611 0
M  V30 662 H 64.1014 -0.18924 5.99802 0
M  V30 663 H 65.1714 0.582699 4.81386 0
M  V30 664 N 66.5145 -1.57545 0.0417849 0
M  V30 665 C 67.4245 -2.14451 -0.951213 0
M  V30 666 C 68.4405 -1.09992 -1.34825 0
M  V30 667 O 69.6165 -1.42114 -1.42708 0
M  V30 668 C 66.6815 -2.67063 -2.21084 0
M  V30 669 C 65.7425 -3.86284 -1.87304 0
M  V30 670 C 64.9755 -4.36378 -3.07261 0
M  V30 671 O 65.1985 -3.85587 -4.20332 0
M  V30 672 O 64.1325 -5.28077 -2.88822 0
M  V30 673 H 67.9585 -2.99601 -0.497287 0
M  V30 674 H 65.5435 -1.48317 -0.179567 0
M  V30 675 H 67.4255 -3.00914 -2.95006 0
M  V30 676 H 66.1005 -1.84989 -2.65633 0
M  V30 677 H 65.0075 -3.57338 -1.10727 0
M  V30 678 H 66.3405 -4.6956 -1.47562 0
M  V30 679 N 67.9926 0.231505 -1.5589 0
M  V30 680 C 69.2386 0.954429 -1.79617 0
M  V30 681 C 69.5936 1.82367 -0.613199 0
M  V30 682 O 68.8866 1.87524 0.393094 0
M  V30 683 C 69.0806 1.83577 -3.0665 0
M  V30 684 C 68.9096 1.05334 -4.3719 0
M  V30 685 C 67.6796 0.75225 -4.99669 0
M  V30 686 C 69.8776 0.423444 -5.12554 0
M  V30 687 N 67.8596 -0.052627 -6.13877 0
M  V30 688 C 69.2306 -0.245287 -6.19515 0
M  V30 689 C 71.2856 0.335466 -4.96769 0
M  V30 690 C 69.9886 -0.993566 -7.12405 0
M  V30 691 C 72.0146 -0.399321 -5.9005 0
M  V30 692 C 71.3766 -1.05663 -6.9643 0
M  V30 693 H 67.4756 0.329846 -0.709031 0
M  V30 694 H 70.0596 0.226172 -1.93382 0
M  V30 695 H 68.2306 2.53592 -2.94186 0
M  V30 696 H 69.9626 2.49541 -3.18608 0
M  V30 697 H 66.7176 1.06783 -4.61405 0
M  V30 698 H 67.1416 -0.443609 -6.75545 0
M  V30 699 H 71.7836 0.829311 -4.14587 0
M  V30 700 H 69.5016 -1.49896 -7.94076 0
M  V30 701 H 73.0876 -0.468265 -5.79913 0
M  V30 702 H 71.9676 -1.61612 -7.67366 0
M  V30 703 N 69.4707 1.49531 0.497807 0
M  V30 704 C 70.7167 1.59415 1.25358 0
M  V30 705 C 71.0497 0.281422 1.9215 0
M  V30 706 O 70.3247 -0.715249 1.80871 0
M  V30 707 C 70.6077 2.75566 2.3181 0
M  V30 708 C 70.4607 4.16642 1.69498 0
M  V30 709 C 71.7797 2.87347 3.33346 0
M  V30 710 H 68.8987 0.580244 0.454408 0
M  V30 711 H 71.5407 1.81827 0.551262 0
M  V30 712 H 69.6907 2.56587 2.91711 0
M  V30 713 H 71.3627 4.47145 1.13399 0
M  V30 714 H 69.6057 4.22141 0.998978 0
M  V30 715 H 70.2767 4.93792 2.46725 0
M  V30 716 H 72.7527 3.04634 2.83438 0
M  V30 717 H 71.6287 3.70289 4.05188 0
M  V30 718 H 71.8897 1.96834 3.95865 0
M  V30 719 N 70.9488 -0.749086 1.3866 0
M  V30 720 C 71.9118 -1.84457 1.36045 0
M  V30 721 C 72.9118 -1.58682 0.260122 0
M  V30 722 O 74.1018 -1.66343 0.517261 0
M  V30 723 C 71.2338 -3.22008 1.11911 0
M  V30 724 H 72.4268 -1.88182 2.33512 0
M  V30 725 H 69.9798 -0.951266 1.24019 0
M  V30 726 H 70.7148 -3.2395 0.150686 0
M  V30 727 H 70.4998 -3.42111 1.91579 0
M  V30 728 H 71.9898 -4.0208 1.12788 0
M  V30 729 N 72.4269 -1.23603 -0.977757 0
M  V30 730 C 73.6729 -1.07129 -1.72195 0
M  V30 731 C 74.0059 0.390501 -1.90233 0
M  V30 732 O 73.2809 1.28902 -1.45653 0
M  V30 733 C 73.5639 -1.80031 -3.11867 0
M  V30 734 C 73.4169 -3.33899 -3.01383 0
M  V30 735 C 74.7359 -1.56492 -4.11337 0
M  V30 736 H 71.8549 -0.390571 -0.624999 0
M  V30 737 H 74.4969 -1.52142 -1.13811 0
M  V30 738 H 72.6469 -1.41768 -3.6171 0
M  V30 739 H 74.3189 -3.81699 -2.59043 0
M  V30 740 H 72.5619 -3.62796 -2.37827 0
M  V30 741 H 73.2329 -3.801 -4.00285 0
M  V30 742 H 75.7089 -1.89757 -3.70313 0
M  V30 743 H 74.5849 -2.09973 -5.07151 0
M  V30 744 H 74.8459 -0.500874 -4.39254 0
M  V30 745 N 73.905 1.17692 -1.04816 0
M  V30 746 C 75.154 1.87192 -0.751132 0
M  V30 747 C 75.467 1.8169 0.724441 0
M  V30 748 O 76.673 2.46625 1.13527 0
M  V30 749 C 75.129 3.35857 -1.29338 0
M  V30 750 C 74.737 3.4987 -2.79812 0
M  V30 751 C 76.481 4.10709 -1.07322 0
M  V30 752 C 74.388 4.92536 -3.27356 0
M  V30 753 H 73.318 0.701162 -0.277288 0
M  V30 754 H 75.969 1.32932 -1.26496 0
M  V30 755 H 74.351 3.89631 -0.707376 0
M  V30 756 H 75.525 3.06332 -3.44235 0
M  V30 757 H 73.84 2.88433 -3.00325 0
M  V30 758 H 76.437 5.15952 -1.4035 0
M  V30 759 H 76.78 4.16299 -0.0108001 0
M  V30 760 H 77.313 3.6313 -1.62423 0
M  V30 761 H 74.052 4.92119 -4.33012 0
M  V30 762 H 73.572 5.3676 -2.67673 0
M  V30 763 H 75.251 5.61288 -3.21815 0
M  V30 764 N 75.3831 0.828654 1.34056 0
M  V30 765 C 76.6291 0.429279 1.98818 0
M  V30 766 C 76.9841 -0.998011 1.64492 0
M  V30 767 O 76.2771 -1.68652 0.909228 0
M  V30 768 C 76.4711 0.575226 3.52741 0
M  V30 769 C 76.3001 2.01515 4.02022 0
M  V30 770 C 75.0701 2.64825 4.30344 0
M  V30 771 C 77.2681 2.98261 4.18981 0
M  V30 772 N 75.2501 3.99998 4.65698 0
M  V30 773 C 76.6211 4.18356 4.57578 0
M  V30 774 C 78.6761 2.94802 4.01243 0
M  V30 775 C 77.3791 5.35454 4.80293 0
M  V30 776 C 79.4051 4.11121 4.25128 0
M  V30 777 C 78.7671 5.29969 4.64018 0
M  V30 778 H 74.8661 0.205304 0.754569 0
M  V30 779 H 77.4501 1.07457 1.62361 0
M  V30 780 H 75.6211 -0.0401962 3.88379 0
M  V30 781 H 77.3531 0.148292 4.04428 0
M  V30 782 H 74.1081 2.16027 4.21461 0
M  V30 783 H 74.5321 4.69653 4.87601 0
M  V30 784 H 79.1741 2.04054 3.70299 0
M  V30 785 H 76.8921 6.26755 5.10102 0
M  V30 786 H 80.4781 4.0985 4.12934 0
M  V30 787 H 79.3581 6.18479 4.82134 0
M  V30 788 N 76.8612 -1.46375 0.584142 0
M  V30 789 C 78.0912 -2.06461 0.0758195 0
M  V30 790 C 78.4992 -1.43322 -1.23512 0
M  V30 791 O 77.8422 -0.533216 -1.75791 0
M  V30 792 C 77.9042 -3.59131 -0.162773 0
M  V30 793 C 77.5682 -4.4447 1.06279 0
M  V30 794 C 78.5652 -4.80918 1.97519 0
M  V30 795 C 76.2502 -4.85584 1.28504 0
M  V30 796 C 78.2442 -5.57309 3.09331 0
M  V30 797 C 75.9312 -5.61734 2.4062 0
M  V30 798 C 76.9292 -5.9751 3.30863 0
M  V30 799 O 76.6172 -6.72121 4.41032 0
M  V30 800 H 76.3492 -0.673745 0.0551725 0
M  V30 801 H 78.9032 -1.88969 0.804984 0
M  V30 802 H 77.1332 -3.74936 -0.946565 0
M  V30 803 H 78.8222 -4.0114 -0.619782 0
M  V30 804 H 79.5882 -4.49732 1.81565 0
M  V30 805 H 75.4672 -4.57187 0.591702 0
M  V30 806 H 79.0112 -5.85152 3.79793 0
M  V30 807 H 74.9082 -5.92334 2.56537 0
M  V30 808 H 75.6762 -6.90547 4.39417 0
M  V30 809 N 78.3393 -0.321999 -1.54275 0
M  V30 810 C 79.6163 0.335232 -1.92706 0
M  V30 811 C 79.9963 1.70006 -1.25145 0
M  V30 812 O 79.3443 2.25067 -0.394596 0
M  V30 813 C 79.5543 0.429008 -3.46353 0
M  V30 814 C 80.9023 0.690029 -4.18956 0
M  V30 815 O 81.9263 0.511992 -3.52501 0
M  V30 816 O 80.7853 1.03338 -5.36641 0
M  V30 817 H 77.8793 0.191143 -0.804608 0
M  V30 818 H 80.4253 -0.3716 -1.65581 0
M  V30 819 H 79.1973 -0.529611 -3.87699 0
M  V30 820 H 78.8203 1.18348 -3.79578 0
M  V30 821 N 79.8174 1.5752 -0.0501392 0
M  V30 822 C 81.0654 1.9227 0.622642 0
M  V30 823 C 81.3864 0.929083 1.71444 0
M  V30 824 O 80.6564 -0.0262186 1.95882 0
M  V30 825 H 79.2364 0.709739 0.232981 0
M  V30 826 H 81.8984 1.94628 -0.102898 0
M  V30 827 H 80.9944 2.93479 1.06191 0
M  V30 828 N 81.2955 -0.223234 1.56011 0
M  V30 829 C 82.5205 -0.968978 1.83373 0
M  V30 830 C 82.9455 -1.77227 0.630254 0
M  V30 831 O 82.3035 -1.76345 -0.420959 0
M  V30 832 C 82.3515 -1.86363 3.08709 0
M  V30 833 O 81.4555 -2.95873 2.87285 0
M  V30 834 H 80.7965 -0.274461 0.604622 0
M  V30 835 H 83.3265 -0.237056 2.03222 0
M  V30 836 H 83.3365 -2.27376 3.38768 0
M  V30 837 H 82.0115 -1.27319 3.95933 0
M  V30 838 H 80.5885 -2.58818 2.68454 0
M  V30 839 N 82.7736 -1.49793 -0.48987 0
M  V30 840 C 83.7206 -1.67281 -1.59014 0
M  V30 841 C 84.6906 -0.514177 -1.57941 0
M  V30 842 O 85.8756 -0.742533 -1.75759 0
M  V30 843 C 83.0156 -1.75569 -2.97102 0
M  V30 844 C 82.1286 -3.0281 -3.08107 0
M  V30 845 C 81.2636 -3.02008 -4.36995 0
M  V30 846 C 80.3026 -4.23782 -4.41673 0
M  V30 847 N 79.4396 -4.20826 -5.62005 0
M  V30 848 H 84.2796 -2.61224 -1.43409 0
M  V30 849 H 81.8166 -1.29508 -0.697565 0
M  V30 850 H 83.7746 -1.78354 -3.77155 0
M  V30 851 H 82.4046 -0.850827 -3.11385 0
M  V30 852 H 81.4566 -3.09584 -2.21047 0
M  V30 853 H 82.7686 -3.92801 -3.07423 0
M  V30 854 H 81.9226 -3.03418 -5.25378 0
M  V30 855 H 80.6616 -2.09815 -4.4026 0
M  V30 856 H 79.6666 -4.22604 -3.5169 0
M  V30 857 H 80.8916 -5.17181 -4.40115 0
M  V30 858 H 78.8376 -3.31476 -5.66091 0
M  V30 859 H 78.7546 -5.04564 -5.62984 0
M  V30 860 H 80.0226 -4.26355 -6.52565 0
M  V30 861 N 84.2517 0.741722 -1.39055 0
M  V30 862 C 85.6677 1.04638 -1.20512 0
M  V30 863 C 85.8677 2.01405 -0.0620218 0
M  V30 864 O 84.9237 2.45547 0.588457 0
M  V30 865 C 86.2367 1.6151 -2.53643 0
M  V30 866 C 87.7847 1.73623 -2.6043 0
M  V30 867 C 88.2597 2.33906 -3.93767 0
M  V30 868 N 89.7507 2.41323 -3.9537 0
M  V30 869 C 90.4857 2.88888 -4.95309 0
M  V30 870 N 89.9817 3.36401 -6.05645 0
M  V30 871 N 91.7747 2.88037 -4.82692 0
M  V30 872 H 83.9257 0.0998155 -2.12165 0
M  V30 873 H 86.1887 0.106907 -0.941953 0
M  V30 874 H 85.8947 0.978739 -3.37807 0
M  V30 875 H 85.7687 2.60411 -2.72885 0
M  V30 876 H 88.1557 2.36384 -1.76655 0
M  V30 877 H 88.2367 0.733945 -2.45045 0
M  V30 878 H 87.8807 1.71776 -4.7797 0
M  V30 879 H 87.8107 3.34799 -4.06469 0
M  V30 880 H 90.3017 2.07734 -3.15682 0
M  V30 881 H 90.6147 3.71186 -6.77821 0
M  V30 882 H 88.9597 3.34427 -6.09248 0
M  V30 883 H 92.1507 2.50237 -3.95599 0
M  V30 884 H 92.3237 3.24792 -5.60726 0
M  V30 885 N 85.7298 1.2412 0.971189 0
M  V30 886 C 86.9598 1.10415 1.7462 0
M  V30 887 C 87.3678 -0.346462 1.86001 0
M  V30 888 O 86.7108 -1.25104 1.34517 0
M  V30 889 C 86.7728 1.66596 3.18568 0
M  V30 890 C 86.4368 3.15446 3.3067 0
M  V30 891 C 87.4338 4.12636 3.16271 0
M  V30 892 C 85.1188 3.55337 3.55022 0
M  V30 893 C 87.1128 5.47699 3.26044 0
M  V30 894 C 84.7998 4.90542 3.64434 0
M  V30 895 C 85.7978 5.86532 3.49956 0
M  V30 896 O 85.4858 7.19279 3.59017 0
M  V30 897 H 85.2178 0.386616 0.55453 0
M  V30 898 H 87.7718 1.64633 1.22821 0
M  V30 899 H 86.0018 1.06808 3.71657 0
M  V30 900 H 87.6908 1.48232 3.77865 0
M  V30 901 H 88.4568 3.8316 2.97344 0
M  V30 902 H 84.3358 2.8113 3.65359 0
M  V30 903 H 87.8798 6.22603 3.14661 0
M  V30 904 H 83.7768 5.19691 3.82873 0
M  V30 905 H 84.5448 7.27153 3.75754 0
M  V30 906 N 87.2079 -1.17134 1.05439 0
M  V30 907 C 88.4379 -1.91094 0.785274 0
M  V30 908 C 88.8459 -1.77198 -0.663142 0
M  V30 909 O 88.1889 -1.10835 -1.46497 0
M  V30 910 C 88.2509 -3.42594 1.08949 0
M  V30 911 C 87.9149 -3.80274 2.53458 0
M  V30 912 C 88.9119 -3.82912 3.51673 0
M  V30 913 C 86.5969 -4.11162 2.88532 0
M  V30 914 C 88.5909 -4.15913 4.83006 0
M  V30 915 C 86.2779 -4.43831 4.20068 0
M  V30 916 C 87.2759 -4.46185 5.17115 0
M  V30 917 O 86.9639 -4.78083 6.46291 0
M  V30 918 H 86.6959 -0.613073 0.284811 0
M  V30 919 H 89.2499 -1.49461 1.40893 0
M  V30 920 H 87.4799 -3.84534 0.408741 0
M  V30 921 H 89.1689 -3.97817 0.805991 0
M  V30 922 H 89.9349 -3.5917 3.25917 0
M  V30 923 H 85.8139 -4.085 2.13656 0
M  V30 924 H 89.3579 -4.17665 5.5875 0
M  V30 925 H 85.2549 -4.67037 4.45586 0
M  V30 926 H 86.0229 -4.9593 6.51149 0
M  V30 927 N 88.686 -0.835752 -1.33615 0
M  V30 928 C 89.649 -0.272 -2.2758 0
M  V30 929 C 90.649 0.557487 -1.50827 0
M  V30 930 O 91.839 0.37173 -1.70188 0
M  V30 931 C 88.971 0.617173 -3.35267 0
M  V30 932 H 90.164 -1.10111 -2.78954 0
M  V30 933 H 87.717 -0.608594 -1.43965 0
M  V30 934 H 88.452 1.46884 -2.89129 0
M  V30 935 H 88.237 0.0237066 -3.92093 0
M  V30 936 H 89.727 1.005 -4.05326 0
M  V30 937 N 90.1641 1.46063 -0.591896 0
M  V30 938 C 91.4411 1.95595 -0.0137119 0
M  V30 939 C 91.8211 1.5345 1.4497 0
M  V30 940 O 91.1691 0.789543 2.14426 0
M  V30 941 C 91.3791 3.48453 -0.195373 0
M  V30 942 C 92.7271 4.24546 -0.0679765 0
M  V30 943 O 93.7511 3.55982 -0.124681 0
M  V30 944 O 92.6101 5.46467 0.0600579 0
M  V30 945 H 89.7041 0.825795 0.0446279 0
M  V30 946 H 92.2501 1.56303 -0.660859 0
M  V30 947 H 91.0221 3.72045 -1.21235 0
M  V30 948 H 90.6451 3.94597 0.487775 0
M  V30 949 N 91.6422 0.330177 1.54103 0
M  V30 950 C 92.8672 -0.274893 2.0557 0
M  V30 951 C 93.2922 -1.44487 1.20437 0
M  V30 952 O 92.6502 -1.80021 0.214991 0
M  V30 953 C 92.6982 -0.68079 3.54115 0
M  V30 954 O 91.8022 -1.7824 3.71893 0
M  V30 955 H 91.1432 -0.0483849 0.662235 0
M  V30 956 H 93.6732 0.480508 1.98878 0
M  V30 957 H 93.6832 -0.961635 3.96505 0
M  V30 958 H 92.3582 0.174903 4.15532 0
M  V30 959 H 90.9352 -1.49985 3.41407 0
M  V30 960 N 93.1203 -1.57491 0.0584922 0
M  V30 961 C 94.3663 -1.93264 -0.614558 0
M  V30 962 C 94.6993 -0.937717 -1.7006 0
M  V30 963 O 93.9743 0.0351652 -1.94468 0
M  V30 964 C 94.2573 -3.3938 -1.20386 0
M  V30 965 C 94.1103 -4.49625 -0.125375 0
M  V30 966 C 95.4293 -3.86039 -2.11334 0
M  V30 967 H 92.5483 -0.702791 -0.221933 0
M  V30 968 H 95.1903 -1.8961 0.12175 0
M  V30 969 H 93.3403 -3.42626 -1.83139 0
M  V30 970 H 95.0123 -4.58506 0.506971 0
M  V30 971 H 93.2553 -4.30354 0.545672 0
M  V30 972 H 93.9263 -5.48967 -0.577861 0
M  V30 973 H 96.4023 -3.84716 -1.58534 0
M  V30 974 H 95.2783 -4.88914 -2.49507 0
M  V30 975 H 95.5393 -3.23215 -3.01636 0
M  V30 976 N 94.5984 0.214957 -1.56127 0
M  V30 977 C 95.5454 1.26642 -1.92952 0
M  V30 978 C 96.5154 1.46244 -0.78753 0
M  V30 979 O 97.7004 1.59704 -1.04399 0
M  V30 980 C 94.8404 2.6104 -2.25726 0
M  V30 981 C 93.9534 2.49183 -3.52891 0
M  V30 982 C 93.0884 3.76149 -3.7508 0
M  V30 983 C 92.1274 3.59041 -4.95738 0
M  V30 984 N 91.2644 4.77972 -5.14283 0
M  V30 985 H 96.1044 0.945384 -2.82607 0
M  V30 986 H 93.6414 0.455489 -1.3987 0
M  V30 987 H 95.5994 3.39313 -2.42739 0
M  V30 988 H 94.2294 2.91227 -1.39236 0
M  V30 989 H 93.2814 1.6231 -3.44034 0
M  V30 990 H 94.5934 2.32466 -4.41318 0
M  V30 991 H 93.7474 4.62865 -3.92226 0
M  V30 992 H 92.4864 3.95799 -2.84947 0
M  V30 993 H 91.4914 2.7071 -4.78535 0
M  V30 994 H 92.7164 3.40856 -5.87362 0
M  V30 995 H 90.6624 4.97923 -4.27093 0
M  V30 996 H 90.5794 4.64006 -5.96853 0
M  V30 997 H 91.8474 5.66096 -5.35869 0
M  V30 998 N 96.0765 1.50051 0.48192 0
M  V30 999 C 97.3245 1.60181 1.23234 0
M  V30 1000 C 97.6455 0.299176 1.92691 0
M  V30 1001 O 96.9155 -0.682708 1.83619 0
M  V30 1002 H 95.4955 0.590232 0.457859 0
M  V30 1003 H 98.1575 1.86775 0.556881 0
M  V30 1004 H 97.2535 2.40753 1.98607 0
M  V30 1005 N 97.5546 -0.734337 1.39446 0
M  V30 1006 C 98.9706 -1.03997 1.21065 0
M  V30 1007 C 99.1706 -2.01369 0.0727019 0
M  V30 1008 O 98.2266 -2.45856 -0.575426 0
M  V30 1009 C 99.5396 -1.60163 2.54496 0
M  V30 1010 C 101.088 -1.7224 2.61347 0
M  V30 1011 C 101.563 -2.31814 3.95002 0
M  V30 1012 N 103.054 -2.39223 3.96644 0
M  V30 1013 C 103.789 -2.86258 4.96834 0
M  V30 1014 N 103.285 -3.33184 6.07421 0
M  V30 1015 N 105.078 -2.85473 4.84213 0
M  V30 1016 H 97.2286 -0.0885624 2.12215 0
M  V30 1017 H 99.4916 -0.10191 0.942506 0
M  V30 1018 H 99.1976 -0.960811 3.38321 0
M  V30 1019 H 99.0716 -2.5896 2.74262 0
M  V30 1020 H 101.459 -2.35443 1.77906 0
M  V30 1021 H 101.54 -0.720939 2.4543 0
M  V30 1022 H 101.184 -1.69238 4.78875 0
M  V30 1023 H 101.114 -3.32638 4.08239 0
M  V30 1024 H 103.605 -2.06057 3.16779 0
M  V30 1025 H 103.918 -3.67586 6.7978 0
M  V30 1026 H 102.263 -3.31191 6.11013 0
M  V30 1027 H 105.454 -2.48136 3.96921 0
M  V30 1028 H 105.627 -3.21814 5.62441 0
M  V30 1029 N 99.0327 -1.24633 -0.964593 0
M  V30 1030 C 100.28 -1.08788 -1.70796 0
M  V30 1031 C 100.608 0.372783 -1.90894 0
M  V30 1032 O 99.8627 1.29167 -1.47018 0
M  V30 1033 C 100.162 -1.7763 -3.10133 0
M  V30 1034 C 99.8277 -3.27557 -3.09866 0
M  V30 1035 C 98.4897 -3.6846 -3.09501 0
M  V30 1036 C 100.842 -4.23389 -3.03959 0
M  V30 1037 C 98.1697 -5.03624 -3.00965 0
M  V30 1038 C 100.522 -5.58565 -2.96965 0
M  V30 1039 C 99.1857 -5.98809 -2.9493 0
M  V30 1040 H 98.4557 -0.398084 -0.624988 0
M  V30 1041 H 101.103 -1.54777 -1.12767 0
M  V30 1042 H 99.4077 -1.24044 -3.71645 0
M  V30 1043 H 101.105 -1.62832 -3.66451 0
M  V30 1044 H 97.6947 -2.95006 -3.10917 0
M  V30 1045 H 101.879 -3.92787 -3.03368 0
M  V30 1046 H 97.1347 -5.33998 -2.97752 0
M  V30 1047 H 101.309 -6.32523 -2.91354 0
M  V30 1048 H 98.9357 -7.03505 -2.88071 0
M  V30 1049 N 100.511 1.16574 -1.06058 0
M  V30 1050 C 101.739 1.90952 -0.796552 0
M  V30 1051 C 102.154 1.77302 0.648808 0
M  V30 1052 O 101.511 1.11605 1.44397 0
M  V30 1053 C 101.562 3.41736 -1.17894 0
M  V30 1054 O 101.283 3.54975 -2.56758 0
M  V30 1055 C 102.784 4.33169 -0.942308 0
M  V30 1056 H 100.004 0.605594 -0.288959 0
M  V30 1057 H 102.548 1.47777 -1.41358 0
M  V30 1058 H 100.703 3.82623 -0.606491 0
M  V30 1059 H 101.117 4.4846 -2.72 0
M  V30 1060 H 102.591 5.37439 -1.25952 0
M  V30 1061 H 103.068 4.3903 0.122078 0
M  V30 1062 H 103.674 3.98007 -1.49902 0
M  V30 1063 N 101.989 0.842826 1.3317 0
M  V30 1064 C 103.238 0.436738 1.96915 0
M  V30 1065 C 103.551 -1.01025 1.67491 0
M  V30 1066 O 104.757 -1.5212 2.24881 0
M  V30 1067 C 103.213 0.730021 3.52418 0
M  V30 1068 C 102.821 2.19195 3.90714 0
M  V30 1069 C 104.565 0.391076 4.22695 0
M  V30 1070 C 102.472 2.42907 5.39212 0
M  V30 1071 H 101.402 0.15958 0.736919 0
M  V30 1072 H 104.053 1.03196 1.51733 0
M  V30 1073 H 102.435 0.0643755 3.95948 0
M  V30 1074 H 103.609 2.8984 3.58231 0
M  V30 1075 H 101.924 2.49425 3.33431 0
M  V30 1076 H 104.521 0.545817 5.31907 0
M  V30 1077 H 104.864 -0.666294 4.10933 0
M  V30 1078 H 105.397 1.01212 3.84709 0
M  V30 1079 H 102.136 3.47224 5.55982 0
M  V30 1080 H 101.656 1.76827 5.73142 0
M  V30 1081 H 103.335 2.2626 6.06148 0
M  V30 1082 N 103.467 -1.45747 0.599634 0
M  V30 1083 C 104.692 -2.07178 0.0960198 0
M  V30 1084 C 105.117 -1.44268 -1.207 0
M  V30 1085 O 104.475 -0.532503 -1.73303 0
M  V30 1086 C 104.523 -3.60579 -0.0385348 0
M  V30 1087 O 103.627 -3.97713 -1.0908 0
M  V30 1088 H 102.968 -0.660251 0.0704593 0
M  V30 1089 H 105.498 -1.87124 0.827385 0
M  V30 1090 H 105.508 -4.07298 -0.239304 0
M  V30 1091 H 104.183 -4.05756 0.912947 0
M  V30 1092 H 102.76 -3.62678 -0.867135 0
M  V30 1093 N 104.945 -0.338344 -1.53925 0
M  V30 1094 C 106.361 0.0137736 -1.59594 0
M  V30 1095 C 106.561 1.49186 -1.35447 0
M  V30 1096 O 105.617 2.24987 -1.14616 0
M  V30 1097 C 106.93 -0.41773 -2.97784 0
M  V30 1098 C 108.478 -0.369633 -3.1081 0
M  V30 1099 C 108.953 -0.776524 -4.51369 0
M  V30 1100 N 110.444 -0.730506 -4.57403 0
M  V30 1101 C 111.179 -1.01736 -5.64303 0
M  V30 1102 N 110.675 -1.3721 -6.79077 0
M  V30 1103 N 112.468 -0.941942 -5.54151 0
M  V30 1104 H 104.619 -1.3012 -1.67876 0
M  V30 1105 H 106.882 -0.530082 -0.78595 0
M  V30 1106 H 106.588 -1.44811 -3.20504 0
M  V30 1107 H 106.462 0.209729 -3.76616 0
M  V30 1108 H 108.849 0.651568 -2.87817 0
M  V30 1109 H 108.93 -1.03223 -2.34049 0
M  V30 1110 H 108.574 -1.79571 -4.75096 0
M  V30 1111 H 108.504 -0.0914649 -5.26521 0
M  V30 1112 H 110.995 -0.468783 -3.74981 0
M  V30 1113 H 111.308 -1.57597 -7.5656 0
M  V30 1114 H 109.653 -1.4105 -6.80536 0
M  V30 1115 H 112.844 -0.664184 -4.63364 0
M  V30 1116 H 113.017 -1.16884 -6.37371 0
M  V30 1117 N 106.423 1.57458 -0.0668435 0
M  V30 1118 C 107.7 1.8469 0.644132 0
M  V30 1119 C 108.08 0.958343 1.88093 0
M  V30 1120 O 107.428 0.0233579 2.28488 0
M  V30 1121 C 107.638 3.34767 0.986509 0
M  V30 1122 C 108.986 4.02159 1.36212 0
M  V30 1123 O 110.01 3.39484 1.07839 0
M  V30 1124 O 108.869 5.12694 1.89227 0
M  V30 1125 H 105.963 0.762816 0.319437 0
M  V30 1126 H 108.509 1.6942 -0.0973986 0
M  V30 1127 H 107.281 3.91151 0.107883 0
M  V30 1128 H 106.904 3.55281 1.78497 0
M  V30 1129 N 107.901 -0.206675 1.56239 0
M  V30 1130 C 108.849 -1.27571 1.94495 0
M  V30 1131 C 109.843 -1.47737 0.828862 0
M  V30 1132 O 111.049 -1.48735 1.0138 0
M  V30 1133 H 107.424 -0.428029 0.6183 0
M  V30 1134 H 109.395 -0.925961 2.8367 0
M  V30 1135 C 108.144 -2.61568 2.29079 0
M  V30 1136 H 107.467 -2.46863 3.14482 0
M  V30 1137 H 108.907 -3.35144 2.5972 0
M  V30 1138 C 107.366 -3.17695 1.12123 0
M  V30 1139 O 107.896 -3.99801 0.390153 0
M  V30 1140 N 106.102 -2.76276 0.901097 0
M  V30 1141 H 105.649 -2.09613 1.49733 0
M  V30 1142 H 105.607 -3.1417 0.120319 0
M  V30 1143 N 109.379 -1.50304 -0.473955 0
M  V30 1144 C 110.604 -1.65175 -1.25427 0
M  V30 1145 C 111.029 -0.333673 -1.85117 0
M  V30 1146 O 110.387 0.702114 -1.67153 0
M  V30 1147 C 110.435 -2.74295 -2.34082 0
M  V30 1148 O 109.539 -2.35349 -3.38651 0
M  V30 1149 H 108.88 -0.551944 -0.369126 0
M  V30 1150 H 111.41 -1.96662 -0.564364 0
M  V30 1151 H 111.42 -2.97285 -2.79438 0
M  V30 1152 H 110.095 -3.69959 -1.90008 0
M  V30 1153 H 108.672 -2.22794 -2.99027 0
M  V30 1154 N 110.857 0.726932 -1.39834 0
M  V30 1155 C 111.804 1.841 -1.39197 0
M  V30 1156 C 112.774 1.642 -0.250502 0
M  V30 1157 O 113.959 1.85494 -0.446846 0
M  V30 1158 C 111.099 3.21697 -1.24919 0
M  V30 1159 C 110.212 3.53247 -2.48678 0
M  V30 1160 C 109.347 4.80289 -2.26928 0
M  V30 1161 C 108.386 5.04707 -3.4632 0
M  V30 1162 N 107.523 6.22956 -3.23836 0
M  V30 1163 H 112.363 1.83979 -2.34427 0
M  V30 1164 H 109.9 0.898876 -1.16442 0
M  V30 1165 H 111.858 4.01137 -1.1465 0
M  V30 1166 H 110.488 3.21076 -0.333153 0
M  V30 1167 H 109.54 2.68447 -2.69519 0
M  V30 1168 H 110.852 3.67205 -3.37582 0
M  V30 1169 H 110.006 5.67725 -2.13947 0
M  V30 1170 H 108.745 4.68519 -1.35431 0
M  V30 1171 H 107.75 4.1573 -3.5979 0
M  V30 1172 H 108.975 5.18357 -4.38729 0
M  V30 1173 H 106.921 6.12459 -2.35011 0
M  V30 1174 H 106.838 6.37539 -4.063 0
M  V30 1175 H 108.106 7.1321 -3.14566 0
M  V30 1176 N 112.336 1.25143 0.95797 0
M  V30 1177 C 113.284 1.05019 2.07542 0
M  V30 1178 C 114.278 -0.0178751 1.69391 0
M  V30 1179 O 115.484 0.137472 1.79474 0
M  V30 1180 H 111.859 0.32265 0.679265 0
M  V30 1181 H 113.83 1.99759 2.21673 0
M  V30 1182 C 112.579 0.682074 3.40944 0
M  V30 1183 H 111.902 1.49573 3.70767 0
M  V30 1184 H 113.342 0.580945 4.20001 0
M  V30 1185 C 111.801 -0.611608 3.31302 0
M  V30 1186 O 112.331 -1.65465 3.66038 0
M  V30 1187 N 110.537 -0.595982 2.84423 0
M  V30 1188 H 110.084 0.253192 2.56353 0
M  V30 1189 H 110.042 -1.46173 2.78354 0
M  V30 1190 N 113.814 -1.1601 1.06675 0
M  V30 1191 C 115.042 -1.90527 0.806667 0
M  V30 1192 C 115.457 -1.77643 -0.639396 0
M  V30 1193 O 114.814 -1.12369 -1.43803 0
M  V30 1194 C 114.865 -3.41106 1.19705 0
M  V30 1195 O 114.586 -3.53608 2.58636 0
M  V30 1196 C 116.087 -4.32663 0.965266 0
M  V30 1197 H 113.307 -0.604053 0.292166 0
M  V30 1198 H 115.851 -1.47026 1.4214 0
M  V30 1199 H 114.006 -3.82296 0.626774 0
M  V30 1200 H 114.42 -4.47011 2.74375 0
M  V30 1201 H 115.894 -5.36763 1.288 0
M  V30 1202 H 116.371 -4.39089 -0.0987936 0
M  V30 1203 H 116.977 -3.97206 1.52011 0
M  V30 1204 N 115.292 -0.849877 -1.32721 0
M  V30 1205 C 116.222 -0.306308 -2.31482 0
M  V30 1206 C 117.203 0.591952 -1.59468 0
M  V30 1207 O 118.388 0.513199 -1.87296 0
M  V30 1208 C 115.518 0.510204 -3.43532 0
M  V30 1209 C 114.472 -0.293209 -4.26994 0
M  V30 1210 C 113.798 0.647743 -5.30762 0
M  V30 1211 C 115.098 -1.51634 -4.99804 0
M  V30 1212 H 116.792 -1.13153 -2.77195 0
M  V30 1213 H 114.338 -0.545553 -1.33266 0
M  V30 1214 H 116.291 0.900856 -4.11658 0
M  V30 1215 H 115.015 1.36874 -2.96535 0
M  V30 1216 H 113.674 -0.665555 -3.60508 0
M  V30 1217 H 113.322 1.50299 -4.8002 0
M  V30 1218 H 113.022 0.11422 -5.87489 0
M  V30 1219 H 114.546 1.03567 -6.01753 0
M  V30 1220 H 115.96 -1.19824 -5.60638 0
M  V30 1221 H 114.357 -1.98745 -5.66234 0
M  V30 1222 H 115.427 -2.28018 -4.27943 0
M  V30 1223 N 116.77 1.45427 -0.607355 0
M  V30 1224 C 118.017 2.02241 -0.102455 0
M  V30 1225 C 118.345 1.4758 1.26691 0
M  V30 1226 O 117.6 0.640468 1.84923 0
M  V30 1227 C 117.899 3.57398 -0.0129263 0
M  V30 1228 C 117.565 4.3121 -1.31792 0
M  V30 1229 C 116.227 4.51092 -1.67539 0
M  V30 1230 C 118.579 4.73401 -2.18039 0
M  V30 1231 C 115.907 5.10422 -2.89285 0
M  V30 1232 C 118.259 5.34078 -3.39034 0
M  V30 1233 C 116.923 5.52184 -3.75033 0
M  V30 1234 H 116.193 0.740051 -0.037491 0
M  V30 1235 H 118.84 1.74494 -0.788926 0
M  V30 1236 H 117.145 3.84421 0.756806 0
M  V30 1237 H 118.842 3.99061 0.393881 0
M  V30 1238 H 115.432 4.16047 -1.02968 0
M  V30 1239 H 119.616 4.57774 -1.91721 0
M  V30 1240 H 114.872 5.22629 -3.17283 0
M  V30 1241 H 119.046 5.65724 -4.06115 0
M  V30 1242 H 116.673 5.97925 -4.69457 0
M  V30 1243 N 118.248 0.346503 1.53744 0
M  V30 1244 C 119.178 -0.501193 2.28058 0
M  V30 1245 C 120.159 -1.10014 1.29734 0
M  V30 1246 O 121.344 -1.12097 1.58581 0
M  V30 1247 C 118.474 -1.65078 3.05559 0
M  V30 1248 C 117.428 -1.18003 4.11411 0
M  V30 1249 C 116.754 -2.41837 4.76884 0
M  V30 1250 C 118.054 -0.278394 5.21558 0
M  V30 1251 H 119.748 0.11875 2.99164 0
M  V30 1252 H 117.294 0.0585531 1.43881 0
M  V30 1253 H 119.247 -2.25028 3.56287 0
M  V30 1254 H 117.971 -2.29767 2.32109 0
M  V30 1255 H 116.63 -0.603331 3.61601 0
M  V30 1256 H 116.278 -3.0494 4.00026 0
M  V30 1257 H 115.978 -2.1102 5.48402 0
M  V30 1258 H 117.502 -3.02508 5.30397 0
M  V30 1259 H 118.916 -0.784823 5.67903 0
M  V30 1260 H 117.313 -0.0619707 6.00068 0
M  V30 1261 H 118.383 0.684677 4.80042 0
M  V30 1262 N 119.726 -1.57421 0.075193 0
M  V30 1263 C 120.658 -2.09904 -0.920483 0
M  V30 1264 C 121.671 -1.03191 -1.25918 0
M  V30 1265 O 122.86 -1.30695 -1.21577 0
M  V30 1266 C 119.96 -2.54726 -2.23534 0
M  V30 1267 C 119.133 -3.8505 -2.07498 0
M  V30 1268 C 118.192 -4.15929 -3.22319 0
M  V30 1269 O 117.218 -4.85474 -2.9716 0
M  V30 1270 N 118.42 -3.69745 -4.47514 0
M  V30 1271 H 121.185 -2.95954 -0.472359 0
M  V30 1272 H 118.746 -1.61523 -0.110444 0
M  V30 1273 H 120.738 -2.72443 -2.9926 0
M  V30 1274 H 119.308 -1.73795 -2.59835 0
M  V30 1275 H 118.528 -3.76679 -1.16219 0
M  V30 1276 H 119.816 -4.70348 -1.94038 0
M  V30 1277 H 119.214 -3.13569 -4.7084 0
M  V30 1278 H 117.771 -3.92655 -5.20255 0
M  V30 1279 N 121.204 0.198386 -1.56346 0
M  V30 1280 C 122.137 1.27381 -1.89339 0
M  V30 1281 C 123.115 1.44106 -0.753134 0
M  V30 1282 O 124.299 1.59549 -1.00381 0
M  V30 1283 C 121.426 2.6409 -2.12071 0
M  V30 1284 C 120.472 2.64253 -3.34772 0
M  V30 1285 S 121.305 2.16013 -4.89999 0
M  V30 1286 C 122.461 3.54553 -5.15794 0
M  V30 1287 H 122.694 0.992058 -2.8026 0
M  V30 1288 H 120.227 0.401726 -1.49082 0
M  V30 1289 H 122.185 3.42786 -2.2585 0
M  V30 1290 H 120.846 2.89478 -1.21906 0
M  V30 1291 H 120.039 3.64768 -3.47794 0
M  V30 1292 H 119.641 1.93637 -3.1997 0
M  V30 1293 H 121.933 4.50396 -5.06112 0
M  V30 1294 H 122.876 3.46428 -6.1757 0
M  V30 1295 H 123.284 3.49313 -4.43442 0
M  V30 1296 N 122.682 1.50554 0.465978 0
M  V30 1297 C 123.63 1.70324 1.58406 0
M  V30 1298 C 124.624 0.569139 1.59553 0
M  V30 1299 O 125.83 0.749776 1.63641 0
M  V30 1300 H 122.205 0.537688 0.525734 0
M  V30 1301 H 124.176 2.64104 1.38894 0
M  V30 1302 C 122.925 1.81928 2.96307 0
M  V30 1303 H 122.248 2.68586 2.96144 0
M  V30 1304 H 123.688 1.99784 3.73982 0
M  V30 1305 C 122.147 0.572095 3.32007 0
M  V30 1306 O 122.677 -0.286416 4.00678 0
M  V30 1307 N 120.883 0.424606 2.87481 0
M  V30 1308 H 120.43 1.12427 2.31771 0
M  V30 1309 H 120.388 -0.408697 3.11732 0
M  V30 1310 N 124.16 -0.719506 1.40217 0
M  V30 1311 C 125.385 -1.51371 1.4178 0
M  V30 1312 C 125.81 -1.88091 0.0182355 0
M  V30 1313 O 125.168 -1.52997 -0.972707 0
M  V30 1314 C 125.216 -2.768 2.31115 0
M  V30 1315 O 124.32 -3.73349 1.7517 0
M  V30 1316 H 123.661 -0.456529 0.482159 0
M  V30 1317 H 126.191 -0.88644 1.844 0
M  V30 1318 H 126.201 -3.25371 2.46167 0
M  V30 1319 H 124.876 -2.49407 3.3282 0
M  V30 1320 H 123.453 -3.32179 1.69444 0
M  V30 1321 N 125.638 -1.25649 -0.95132 0
M  V30 1322 C 126.568 -1.08808 -2.06599 0
M  V30 1323 C 127.549 0.00382547 -1.701 0
M  V30 1324 O 128.734 -0.166325 -1.93486 0
M  V30 1325 C 125.864 -0.709542 -3.39975 0
M  V30 1326 C 124.818 -1.75206 -3.90496 0
M  V30 1327 C 124.144 -1.22811 -5.20405 0
M  V30 1328 C 125.444 -3.15153 -4.16504 0
M  V30 1329 H 127.138 -2.02048 -2.20946 0
M  V30 1330 H 124.684 -0.972835 -1.06169 0
M  V30 1331 H 126.637 -0.578649 -4.17408 0
M  V30 1332 H 125.361 0.258556 -3.25575 0
M  V30 1333 H 124.02 -1.87145 -3.15234 0
M  V30 1334 H 123.668 -0.250145 -5.02378 0
M  V30 1335 H 123.368 -1.92492 -5.55176 0
M  V30 1336 H 124.892 -1.10968 -6.00432 0
M  V30 1337 H 126.306 -3.06349 -4.84586 0
M  V30 1338 H 124.703 -3.82333 -4.62538 0
M  V30 1339 H 125.773 -3.61966 -3.22658 0
M  V30 1340 N 127.117 1.15442 -1.07289 0
M  V30 1341 C 128.533 1.38201 -0.798288 0
M  V30 1342 C 128.733 1.92429 0.597769 0
M  V30 1343 O 127.789 2.12962 1.3566 0
M  V30 1344 C 129.102 2.35357 -1.87156 0
M  V30 1345 C 130.65 2.49021 -1.89624 0
M  V30 1346 C 131.125 3.49468 -2.96034 0
M  V30 1347 N 132.616 3.57003 -2.95132 0
M  V30 1348 C 133.351 4.34543 -3.74112 0
M  V30 1349 N 132.847 5.15421 -4.6294 0
M  V30 1350 N 134.64 4.29625 -3.62462 0
M  V30 1351 H 126.791 0.78584 -1.97328 0
M  V30 1352 H 129.054 0.408065 -0.855679 0
M  V30 1353 H 128.76 2.02626 -2.87464 0
M  V30 1354 H 128.634 3.35129 -1.73114 0
M  V30 1355 H 131.021 2.81051 -0.899687 0
M  V30 1356 H 131.102 1.4925 -2.07745 0
M  V30 1357 H 130.746 3.18173 -3.95889 0
M  V30 1358 H 130.676 4.48992 -2.75161 0
M  V30 1359 H 133.167 2.99276 -2.30743 0
M  V30 1360 H 133.48 5.7183 -5.19837 0
M  V30 1361 H 131.825 5.14729 -4.66989 0
M  V30 1362 H 135.016 3.65505 -2.92444 0
M  V30 1363 H 135.189 4.89807 -4.24256 0
M  V30 1364 N 128.595 0.856903 1.32268 0
M  V30 1365 C 129.558 0.308171 2.27119 0
M  V30 1366 C 130.558 -0.533421 1.51695 0
M  V30 1367 O 131.748 -0.344607 1.70757 0
M  V30 1368 C 128.88 -0.563757 3.36206 0
M  V30 1369 H 130.073 1.14535 2.77167 0
M  V30 1370 H 127.626 0.631421 1.42978 0
M  V30 1371 H 128.361 -1.42266 2.91429 0
M  V30 1372 H 128.146 0.0386749 3.92081 0
M  V30 1373 H 129.636 -0.940386 4.06874 0
M  V30 1374 N 130.073 -1.45103 0.615059 0
M  V30 1375 C 130.983 -2.34382 -0.101034 0
M  V30 1376 C 131.999 -1.51681 -0.852585 0
M  V30 1377 O 133.175 -1.8446 -0.808484 0
M  V30 1378 C 130.24 -3.29417 -1.08099 0
M  V30 1379 C 129.301 -4.28025 -0.330577 0
M  V30 1380 C 128.534 -5.1852 -1.26385 0
M  V30 1381 O 128.757 -5.12598 -2.50198 0
M  V30 1382 O 127.691 -5.97122 -0.756866 0
M  V30 1383 H 131.517 -2.97033 0.632855 0
M  V30 1384 H 129.102 -1.4461 0.375293 0
M  V30 1385 H 130.984 -3.87958 -1.6452 0
M  V30 1386 H 129.659 -2.69321 -1.79577 0
M  V30 1387 H 128.566 -3.73078 0.276283 0
M  V30 1388 H 129.899 -4.90997 0.343866 0
M  V30 1389 N 131.551 -0.354651 -1.53558 0
M  V30 1390 C 132.828 0.294281 -1.93374 0
M  V30 1391 C 133.208 1.67313 -1.28723 0
M  V30 1392 O 132.556 2.24179 -0.442247 0
M  V30 1393 C 132.766 0.355445 -3.47185 0
M  V30 1394 C 134.114 0.601007 -4.20325 0
M  V30 1395 O 135.138 0.437106 -3.53508 0
M  V30 1396 O 133.997 0.919322 -5.38712 0
M  V30 1397 H 131.091 0.174033 -0.808481 0
M  V30 1398 H 133.637 -0.406638 -1.64756 0
M  V30 1399 H 132.409 -0.611729 -3.86489 0
M  V30 1400 H 132.032 1.1027 -3.82003 0
M  V30 1401 N 133.029 1.57378 -0.0835403 0
M  V30 1402 C 134.257 1.98263 0.59157 0
M  V30 1403 C 134.672 0.962302 1.62435 0
M  V30 1404 O 134.029 -0.049581 1.82433 0
M  V30 1405 C 134.08 3.39214 1.24965 0
M  V30 1406 O 133.801 4.37339 0.258186 0
M  V30 1407 C 135.302 3.95038 2.01147 0
M  V30 1408 H 132.522 0.651773 0.159477 0
M  V30 1409 H 135.066 2.03878 -0.159415 0
M  V30 1410 H 133.221 3.34649 1.95164 0
M  V30 1411 H 133.635 5.19371 0.731734 0
M  V30 1412 H 135.109 4.95848 2.42567 0
M  V30 1413 H 135.586 3.32222 2.87272 0
M  V30 1414 H 136.192 4.0304 1.35789 0
M  V30 1415 N 134.507 -0.190092 1.56449 0
M  V30 1416 C 135.47 -1.21925 1.9408 0
M  V30 1417 C 136.47 -1.38176 0.822431 0
M  V30 1418 O 137.66 -1.35903 1.08977 0
M  V30 1419 C 134.792 -2.58773 2.21922 0
M  V30 1420 H 135.985 -0.897464 2.86157 0
M  V30 1421 H 133.538 -0.43181 1.50217 0
M  V30 1422 H 134.273 -2.95998 1.32499 0
M  V30 1423 H 134.058 -2.48348 3.03424 0
M  V30 1424 H 135.548 -3.32978 2.52022 0
M  V30 1425 N 135.985 -1.50799 -0.457987 0
M  V30 1426 C 137.231 -1.62683 -1.21088 0
M  V30 1427 C 137.564 -0.332268 -1.91336 0
M  V30 1428 O 136.839 0.667043 -1.82704 0
M  V30 1429 C 137.122 -2.81615 -2.24422 0
M  V30 1430 C 136.975 -4.20989 -1.58392 0
M  V30 1431 C 138.294 -2.96085 -3.2561 0
M  V30 1432 H 135.413 -0.592087 -0.438864 0
M  V30 1433 H 138.055 -1.83225 -0.50286 0
M  V30 1434 H 136.205 -2.64231 -2.84806 0
M  V30 1435 H 137.877 -4.49994 -1.01504 0
M  V30 1436 H 136.12 -4.24641 -0.886704 0
M  V30 1437 H 136.791 -5.0016 -2.33547 0
M  V30 1438 H 139.267 -3.12042 -2.75262 0
M  V30 1439 H 138.143 -3.80902 -3.95228 0
M  V30 1440 H 138.404 -2.0726 -3.90507 0
M  V30 1441 N 137.463 0.71206 -1.40597 0
M  V30 1442 C 138.693 1.49894 -1.42181 0
M  V30 1443 C 139.101 1.89189 -0.0208078 0
M  V30 1444 O 138.444 1.56223 0.966436 0
M  V30 1445 C 138.506 2.80215 -2.25211 0
M  V30 1446 C 138.17 2.63221 -3.73582 0
M  V30 1447 C 139.167 2.30249 -4.66135 0
M  V30 1448 C 136.852 2.79376 -4.17438 0
M  V30 1449 C 138.846 2.13645 -6.00529 0
M  V30 1450 C 136.533 2.6239 -5.51901 0
M  V30 1451 C 137.531 2.29573 -6.43262 0
M  V30 1452 O 137.219 2.12719 -7.75246 0
M  V30 1453 H 136.951 0.469031 -0.486812 0
M  V30 1454 H 139.505 0.88564 -1.85326 0
M  V30 1455 H 137.735 3.4389 -1.76852 0
M  V30 1456 H 139.424 3.41947 -2.18694 0
M  V30 1457 H 140.19 2.17398 -4.33547 0
M  V30 1458 H 136.069 3.03906 -3.46644 0
M  V30 1459 H 139.613 1.87953 -6.71803 0
M  V30 1460 H 135.51 2.74826 -5.84073 0
M  V30 1461 H 136.278 2.27611 -7.86216 0
M  V30 1462 N 138.941 1.26152 0.944643 0
M  V30 1463 C 140.171 1.14094 1.72239 0
M  V30 1464 C 140.579 -0.306931 1.86694 0
M  V30 1465 O 139.922 -1.22222 1.3714 0
M  V30 1466 C 139.984 1.73316 3.14963 0
M  V30 1467 C 139.648 3.2239 3.23904 0
M  V30 1468 C 140.645 4.19252 3.07447 0
M  V30 1469 C 138.33 3.62788 3.47405 0
M  V30 1470 C 140.324 5.54491 3.14353 0
M  V30 1471 C 138.011 4.98162 3.53947 0
M  V30 1472 C 139.009 5.93823 3.37436 0
M  V30 1473 O 138.697 7.26732 3.43679 0
M  V30 1474 H 138.429 0.398292 0.546205 0
M  V30 1475 H 140.983 1.67201 1.19301 0
M  V30 1476 H 139.213 1.14667 3.69308 0
M  V30 1477 H 140.902 1.56214 3.74636 0
M  V30 1478 H 141.668 3.8938 2.8915 0
M  V30 1479 H 137.547 2.88816 3.59313 0
M  V30 1480 H 141.091 6.29137 3.01384 0
M  V30 1481 H 136.988 5.27695 3.71763 0
M  V30 1482 H 137.756 7.3496 3.60245 0
M  V30 1483 N 140.419 -1.14872 1.07899 0
M  V30 1484 C 141.659 -1.8745 0.814965 0
M  V30 1485 C 142.023 -1.80758 -0.64733 0
M  V30 1486 O 143.224 -2.48422 -1.02664 0
M  V30 1487 C 141.495 -3.32286 1.31607 0
M  V30 1488 S 143.054 -4.22537 1.18357 0
M  V30 1489 H 139.872 -0.646833 0.295174 0
M  V30 1490 H 142.474 -1.38555 1.37923 0
M  V30 1491 H 141.178 -3.34703 2.37491 0
M  V30 1492 H 140.709 -3.86238 0.747261 0
M  V30 1493 H 142.724 -4.96044 0.124586 0
M  V30 1494 N 141.898 -0.863906 -1.31812 0
M  V30 1495 C 142.861 -0.320212 -2.26952 0
M  V30 1496 C 143.861 0.525369 -1.51975 0
M  V30 1497 O 145.051 0.335547 -1.70938 0
M  V30 1498 C 142.183 0.545919 -3.365 0
M  V30 1499 H 143.376 -1.16004 -2.76556 0
M  V30 1500 H 140.929 -0.638995 -1.42641 0
M  V30 1501 H 141.664 1.40718 -2.92179 0
M  V30 1502 H 141.449 -0.0594674 -3.92055 0
M  V30 1503 H 142.939 0.918796 -4.07367 0
M  V30 1504 N 143.376 1.44774 -0.622745 0
M  V30 1505 C 144.604 2.06487 -0.130722 0
M  V30 1506 C 145.019 1.46476 1.19123 0
M  V30 1507 O 144.376 0.584502 1.72887 0
M  V30 1508 C 144.427 3.615 -0.000807207 0
M  V30 1509 O 144.148 4.19274 -1.27048 0
M  V30 1510 C 145.649 4.40229 0.520898 0
M  V30 1511 H 142.869 0.666704 -0.0758106 0
M  V30 1512 H 145.413 1.85779 -0.854774 0
M  V30 1513 H 143.568 3.81498 0.673643 0
M  V30 1514 H 143.982 5.12622 -1.1099 0
M  V30 1515 H 145.456 5.49144 0.560838 0
M  V30 1516 H 145.933 4.1108 1.54627 0
M  V30 1517 H 146.539 4.25131 -0.120018 0
M  V30 1518 N 144.854 0.36279 1.53368 0
M  V30 1519 C 145.802 -0.500155 2.27159 0
M  V30 1520 C 146.796 -1.08575 1.3003 0
M  V30 1521 O 148.002 -1.02927 1.47668 0
M  V30 1522 H 144.377 -0.180009 0.730138 0
M  V30 1523 H 146.348 0.14401 2.98052 0
M  V30 1524 C 145.097 -1.62937 3.07159 0
M  V30 1525 H 144.42 -1.18806 3.8174 0
M  V30 1526 H 145.86 -2.20795 3.61975 0
M  V30 1527 C 144.319 -2.57007 2.17829 0
M  V30 1528 O 144.849 -3.59752 1.78721 0
M  V30 1529 N 143.055 -2.26131 1.82518 0
M  V30 1530 H 142.602 -1.42616 2.14519 0
M  V30 1531 H 142.56 -2.89327 1.23034 0
M  V30 1532 N 146.332 -1.57332 0.0918853 0
M  V30 1533 C 147.609 -1.85691 -0.614668 0
M  V30 1534 C 147.989 -0.988146 -1.86545 0
M  V30 1535 O 147.337 -0.0597055 -2.28422 0
M  V30 1536 C 147.547 -3.36294 -0.933126 0
M  V30 1537 C 148.895 -4.04275 -1.29796 0
M  V30 1538 O 149.919 -3.41157 -1.02424 0
M  V30 1539 O 148.778 -5.1564 -1.81047 0
M  V30 1540 H 145.872 -0.767802 -0.307261 0
M  V30 1541 H 148.418 -1.69244 0.12434 0
M  V30 1542 H 147.19 -3.91273 -0.0456404 0
M  V30 1543 H 146.813 -3.58076 -1.72822 0
M  V30 1544 N 147.81 0.181792 -1.56548 0
M  V30 1545 C 149.087 0.926765 -1.72251 0
M  V30 1546 C 149.467 2.00831 -0.650386 0
M  V30 1547 O 148.815 2.26008 0.336521 0
M  V30 1548 C 149.025 1.50106 -3.1507 0
M  V30 1549 C 150.373 1.97805 -3.75711 0
M  V30 1550 O 151.397 1.59922 -3.18282 0
M  V30 1551 O 150.256 2.67555 -4.76525 0
M  V30 1552 H 147.35 0.435506 -0.703039 0
M  V30 1553 H 149.896 0.170443 -1.68842 0
M  V30 1554 H 148.668 0.72212 -3.84579 0
M  V30 1555 H 148.291 2.32186 -3.22763 0
M  V30 1556 N 149.288 1.51039 0.449983 0
M  V30 1557 C 150.518 1.66627 1.22143 0
M  V30 1558 C 150.926 0.357776 1.85786 0
M  V30 1559 O 150.269 -0.672424 1.70951 0
M  V30 1560 C 150.331 2.71562 2.35573 0
M  V30 1561 C 149.995 4.14526 1.92399 0
M  V30 1562 C 150.992 4.99717 1.43453 0
M  V30 1563 C 148.677 4.60559 2.00475 0
M  V30 1564 C 150.671 6.28998 1.03155 0
M  V30 1565 C 148.358 5.8984 1.59788 0
M  V30 1566 C 149.356 6.73886 1.11208 0
M  V30 1567 O 149.044 8.0075 0.710935 0
M  V30 1568 H 148.776 0.562635 0.374724 0
M  V30 1569 H 151.33 1.98146 0.541036 0
M  V30 1570 H 149.56 2.3533 3.06849 0
M  V30 1571 H 151.249 2.76156 2.97478 0
M  V30 1572 H 152.015 4.65361 1.36618 0
M  V30 1573 H 147.894 3.95273 2.37235 0
M  V30 1574 H 151.438 6.9455 0.651663 0
M  V30 1575 H 147.335 6.23713 1.66289 0
M  V30 1576 H 148.103 8.142 0.837913 0
M  V30 1577 N 150.766 -0.704594 1.40972 0
M  V30 1578 C 152.012 -1.46546 1.41053 0
M  V30 1579 C 152.367 -1.92393 0.0159714 0
M  V30 1580 O 151.66 -1.66017 -0.956506 0
M  V30 1581 C 151.854 -2.698 2.34399 0
M  V30 1582 C 151.683 -2.36008 3.82793 0
M  V30 1583 C 150.453 -2.26812 4.51536 0
M  V30 1584 C 152.651 -1.99565 4.74003 0
M  V30 1585 N 150.633 -1.8581 5.85105 0
M  V30 1586 C 152.004 -1.69251 5.96451 0
M  V30 1587 C 154.059 -1.86296 4.61734 0
M  V30 1588 C 152.762 -1.27003 7.07999 0
M  V30 1589 C 154.788 -1.45452 5.73234 0
M  V30 1590 C 154.15 -1.16043 6.94776 0
M  V30 1591 H 150.249 -0.533896 0.571383 0
M  V30 1592 H 152.833 -0.816061 1.76773 0
M  V30 1593 H 151.004 -3.32473 2.00789 0
M  V30 1594 H 152.736 -3.36214 2.25261 0
M  V30 1595 H 149.491 -2.44913 4.05357 0
M  V30 1596 H 149.915 -1.67817 6.55871 0
M  V30 1597 H 154.557 -2.0769 3.68273 0
M  V30 1598 H 152.275 -1.04353 8.01334 0
M  V30 1599 H 155.861 -1.35748 5.65742 0
M  V30 1600 H 154.741 -0.84915 7.79589 0
M  V30 1601 N 152.244 -1.26651 -0.937939 0
M  V30 1602 C 153.492 -1.12165 -1.68118 0
M  V30 1603 C 153.813 0.334983 -1.92101 0
M  V30 1604 O 153.083 1.23583 -1.52 0
M  V30 1605 H 151.663 -0.412093 -0.623048 0
M  V30 1606 H 154.325 -1.59027 -1.12678 0
M  V30 1607 H 153.421 -1.64289 -2.6536 0
M  V30 1608 N 153.722 1.14298 -1.08507 0
M  V30 1609 C 154.654 2.1907 -0.673859 0
M  V30 1610 C 155.667 1.60381 0.279577 0
M  V30 1611 O 156.856 1.78374 0.0670754 0
M  V30 1612 C 153.956 3.38888 0.0290979 0
M  V30 1613 C 153.129 4.27103 -0.943494 0
M  V30 1614 C 152.188 5.25477 -0.275676 0
M  V30 1615 O 151.214 5.61709 -0.920401 0
M  V30 1616 N 152.416 5.7227 0.974013 0
M  V30 1617 H 155.181 2.54965 -1.57521 0
M  V30 1618 H 152.742 1.29528 -0.971287 0
M  V30 1619 H 154.734 4.01761 0.48683 0
M  V30 1620 H 153.304 3.01309 0.832555 0
M  V30 1621 H 152.524 3.61149 -1.58004 0
M  V30 1622 H 153.812 4.82905 -1.60251 0
M  V30 1623 H 153.21 5.44965 1.51755 0
M  V30 1624 H 151.767 6.37127 1.37522 0
M  V30 1625 N 155.201 0.870884 1.31352 0
M  V30 1626 C 156.449 0.48132 1.96285 0
M  V30 1627 C 156.77 -0.969813 1.69173 0
M  V30 1628 O 156.04 -1.67998 1.00764 0
M  V30 1629 H 154.62 0.175002 0.726212 0
M  V30 1630 H 157.282 1.11087 1.60143 0
M  V30 1631 H 156.378 0.639825 3.05471 0
M  V30 1632 N 156.679 -1.44442 0.630414 0
M  V30 1633 C 157.907 -2.06414 0.141671 0
M  V30 1634 C 158.322 -1.47105 -1.18345 0
M  V30 1635 O 157.679 -0.593662 -1.72574 0
M  V30 1636 C 157.73 -3.61494 0.0199784 0
M  V30 1637 O 157.451 -4.18594 1.29269 0
M  V30 1638 C 158.952 -4.40499 -0.497544 0
M  V30 1639 H 156.172 -0.666292 0.0793452 0
M  V30 1640 H 158.716 -1.85323 0.864614 0
M  V30 1641 H 156.871 -3.8185 -0.653402 0
M  V30 1642 H 157.285 -5.12026 1.13707 0
M  V30 1643 H 158.759 -5.49433 -0.531708 0
M  V30 1644 H 159.236 -4.11895 -1.52445 0
M  V30 1645 H 159.842 -4.25061 0.142562 0
M  V30 1646 N 158.157 -0.370918 -1.53173 0
M  V30 1647 C 159.087 0.464847 -2.28826 0
M  V30 1648 C 160.068 1.07936 -1.31468 0
M  V30 1649 O 161.253 1.0956 -1.60344 0
M  V30 1650 C 158.383 1.60196 -3.08147 0
M  V30 1651 C 157.337 1.11443 -4.13237 0
M  V30 1652 C 156.663 2.3422 -4.80672 0
M  V30 1653 C 157.963 0.195384 -5.21934 0
M  V30 1654 H 159.657 -0.166329 -2.98938 0
M  V30 1655 H 157.203 -0.0814359 -1.4377 0
M  V30 1656 H 159.156 2.19332 -3.59822 0
M  V30 1657 H 157.88 2.26045 -2.35735 0
M  V30 1658 H 156.539 0.545727 -3.62515 0
M  V30 1659 H 156.187 2.98537 -4.04827 0
M  V30 1660 H 155.887 2.02269 -5.51689 0
M  V30 1661 H 157.411 2.94032 -5.35143 0
M  V30 1662 H 158.825 0.694375 -5.69079 0
M  V30 1663 H 157.222 -0.0335027 -6.00091 0
M  V30 1664 H 158.292 -0.760961 -4.78892 0
M  V30 1665 N 159.635 1.57281 -0.100228 0
M  V30 1666 C 160.881 1.94826 0.563101 0
M  V30 1667 C 161.214 0.982475 1.67514 0
M  V30 1668 O 160.489 0.0164069 1.94493 0
M  V30 1669 C 160.772 3.42453 1.11346 0
M  V30 1670 C 160.625 4.498 0.00612081 0
M  V30 1671 C 161.944 3.91506 2.01024 0
M  V30 1672 H 159.063 0.708428 0.203221 0
M  V30 1673 H 161.705 1.8922 -0.171979 0
M  V30 1674 H 159.855 3.47361 1.7399 0
M  V30 1675 H 161.527 4.57 -0.628357 0
M  V30 1676 H 159.77 4.28756 -0.659581 0
M  V30 1677 H 160.441 5.50306 0.432109 0
M  V30 1678 H 162.917 3.88784 1.48278 0
M  V30 1679 H 161.793 4.95358 2.36457 0
M  V30 1680 H 162.054 3.31099 2.92961 0
M  V30 1681 N 161.113 -0.173488 1.56642 0
M  V30 1682 C 162.341 -0.906095 1.86004 0
M  V30 1683 C 162.756 -1.75921 0.685355 0
M  V30 1684 O 162.113 -1.79198 -0.345578 0
M  V30 1685 C 162.164 -1.78462 3.14378 0
M  V30 1686 O 161.885 -0.965914 4.27319 0
M  V30 1687 C 163.386 -2.62707 3.57071 0
M  V30 1688 H 160.606 -0.263341 0.617165 0
M  V30 1689 H 163.15 -0.174236 2.03756 0
M  V30 1690 H 161.305 -2.46984 2.98459 0
M  V30 1691 H 161.719 -1.56655 5.00559 0
M  V30 1692 H 163.193 -3.19969 4.49804 0
M  V30 1693 H 163.67 -3.37472 2.81086 0
M  V30 1694 H 164.276 -1.99521 3.75595 0
M  V30 1695 N 162.591 -1.51276 -0.441967 0
M  V30 1696 C 163.837 -1.63958 -1.19355 0
M  V30 1697 C 164.17 -0.352543 -1.90973 0
M  V30 1698 O 163.445 0.647627 -1.83401 0
M  V30 1699 C 163.728 -2.83979 -2.21422 0
M  V30 1700 C 163.581 -4.22646 -1.53918 0
M  V30 1701 C 164.9 -2.99521 -3.22451 0
M  V30 1702 H 162.019 -0.596709 -0.432559 0
M  V30 1703 H 164.661 -1.83748 -0.483398 0
M  V30 1704 H 162.811 -2.67237 -2.81987 0
M  V30 1705 H 164.483 -4.51045 -0.967256 0
M  V30 1706 H 162.726 -4.25558 -0.841615 0
M  V30 1707 H 163.397 -5.02609 -2.28229 0
M  V30 1708 H 165.873 -3.14944 -2.71937 0
M  V30 1709 H 164.749 -3.85072 -3.91166 0
M  V30 1710 H 165.01 -2.11391 -3.88287 0
M  V30 1711 N 164.069 0.697108 -1.41344 0
M  V30 1712 C 165.294 1.49096 -1.44171 0
M  V30 1713 C 165.719 1.88038 -0.0481568 0
M  V30 1714 O 165.077 1.54525 0.948243 0
M  V30 1715 C 165.125 2.73088 -2.3549 0
M  V30 1716 O 164.229 3.70514 -1.81088 0
M  V30 1717 H 163.57 0.448801 -0.489361 0
M  V30 1718 H 166.1 0.856992 -1.85787 0
M  V30 1719 H 166.11 3.21413 -2.51312 0
M  V30 1720 H 164.785 2.44081 -3.36745 0
M  V30 1721 H 163.362 3.29441 -1.74708 0
M  V30 1722 N 165.547 1.27147 0.931209 0
M  V30 1723 C 166.772 1.16191 1.71797 0
M  V30 1724 C 167.197 -0.278004 1.86034 0
M  V30 1725 O 166.555 -1.20137 1.35782 0
M  V30 1726 C 166.603 1.84673 3.09723 0
M  V30 1727 O 165.707 1.14231 3.96264 0
M  V30 1728 H 165.048 0.404303 0.526721 0
M  V30 1729 H 167.578 1.68152 1.1656 0
M  V30 1730 H 167.588 1.91893 3.60057 0
M  V30 1731 H 166.263 2.89421 2.98677 0
M  V30 1732 H 164.84 1.15056 3.54706 0
M  V30 1733 N 167.025 -1.13721 1.09112 0
M  V30 1734 C 167.988 -2.17222 0.731241 0
M  V30 1735 C 168.988 -1.59035 -0.237566 0
M  V30 1736 O 170.178 -1.74192 -0.0161704 0
M  V30 1737 C 167.31 -3.40804 0.0808443 0
M  V30 1738 H 168.503 -2.50573 1.64783 0
M  V30 1739 H 166.056 -1.28493 0.889897 0
M  V30 1740 H 166.791 -3.1304 -0.847127 0
M  V30 1741 H 166.576 -3.84306 0.777896 0
M  V30 1742 H 168.066 -4.1731 -0.155657 0
M  V30 1743 N 168.503 -0.877838 -1.30888 0
M  V30 1744 C 169.728 -0.506629 -2.01117 0
M  V30 1745 C 170.153 0.895564 -1.65412 0
M  V30 1746 O 169.511 1.5923 -0.866922 0
M  V30 1747 C 169.559 -0.680223 -3.54126 0
M  V30 1748 O 168.663 0.277033 -4.11468 0
M  V30 1749 H 168.004 -0.200518 -0.633 0
M  V30 1750 H 170.534 -1.18342 -1.66902 0
M  V30 1751 H 170.544 -0.5765 -4.03907 0
M  V30 1752 H 169.219 -1.70261 -3.79452 0
M  V30 1753 H 167.796 0.127606 -3.72682 0
M  V30 1754 N 169.982 1.44106 -0.638065 0
M  V30 1755 C 171.21 2.06336 -0.152615 0
M  V30 1756 C 171.625 1.47731 1.17563 0
M  V30 1757 O 170.982 0.602806 1.72257 0
M  V30 1758 C 171.033 3.61479 -0.0391491 0
M  V30 1759 O 170.754 4.17903 -1.31487 0
M  V30 1760 C 172.255 4.40757 0.474176 0
M  V30 1761 H 169.475 0.665862 -0.0828776 0
M  V30 1762 H 172.019 1.84862 -0.87443 0
M  V30 1763 H 170.174 3.82191 0.633142 0
M  V30 1764 H 170.588 5.11416 -1.16421 0
M  V30 1765 H 172.062 5.49707 0.502562 0
M  V30 1766 H 172.539 4.12697 1.50258 0
M  V30 1767 H 173.145 4.24979 -0.165102 0
M  V30 1768 N 171.46 0.379036 1.52974 0
M  V30 1769 C 172.407 -0.461048 2.26148 0
M  V30 1770 C 173.377 -1.06637 1.27349 0
M  V30 1771 O 174.562 -1.09633 1.56157 0
M  V30 1772 C 171.702 -1.58782 3.06402 0
M  V30 1773 C 170.815 -1.00636 4.20115 0
M  V30 1774 C 169.95 -2.10334 4.87784 0
M  V30 1775 C 168.989 -1.49724 5.93506 0
M  V30 1776 N 168.126 -2.5331 6.54812 0
M  V30 1777 H 172.966 0.169429 2.97518 0
M  V30 1778 H 170.503 0.0953806 1.4679 0
M  V30 1779 H 172.461 -2.25174 3.51215 0
M  V30 1780 H 171.091 -2.18876 2.37261 0
M  V30 1781 H 170.143 -0.232332 3.7969 0
M  V30 1782 H 171.455 -0.523343 4.96047 0
M  V30 1783 H 170.609 -2.84519 5.35849 0
M  V30 1784 H 169.348 -2.61992 4.11353 0
M  V30 1785 H 168.353 -0.740598 5.44789 0
M  V30 1786 H 169.578 -0.988732 6.71864 0
M  V30 1787 H 167.524 -3.04156 5.81227 0
M  V30 1788 H 167.441 -2.09734 7.26325 0
M  V30 1789 H 168.709 -3.27155 7.07524 0
M  V30 1790 N 172.938 -1.57226 0.108567 0
M  V30 1791 C 174.186 -1.94448 -0.550853 0
M  V30 1792 C 174.507 -0.992074 -1.67878 0
M  V30 1793 O 173.777 -0.0465 -1.95845 0
M  V30 1794 H 172.357 -0.717897 -0.206479 0
M  V30 1795 H 175.019 -1.94112 0.175062 0
M  V30 1796 H 174.115 -2.97218 -0.952259 0
M  V30 1797 N 174.416 0.165178 -1.56732 0
M  V30 1798 C 175.827 0.727046 -1.71962 0
M  V30 1799 C 176.178 1.82508 -0.720078 0
M  V30 1800 O 175.303 2.16082 0.117242 0
M  V30 1801 C 175.898 1.32559 -3.11791 0
M  V30 1802 C 174.457 1.83422 -3.28684 0
M  V30 1803 C 173.604 0.715567 -2.67908 0
M  V30 1804 H 176.555 -0.0602896 -1.58585 0
M  V30 1805 H 176.576 2.19533 -3.10782 0
M  V30 1806 H 176.088 0.526195 -3.84516 0
M  V30 1807 H 174.189 2.65986 -2.60926 0
M  V30 1808 H 174.302 1.97543 -4.36478 0
M  V30 1809 H 172.666 1.13758 -2.27884 0
M  V30 1810 H 173.449 -0.0720836 -3.43224 0
M  V30 1811 N 175.894 1.51508 0.433938 0
M  V30 1812 C 177.119 1.68443 1.21003 0
M  V30 1813 C 177.544 0.382636 1.84167 0
M  V30 1814 O 176.902 -0.65755 1.68956 0
M  V30 1815 C 176.95 2.80405 2.26727 0
M  V30 1816 O 176.054 2.44245 3.32292 0
M  V30 1817 H 175.395 0.561536 0.354363 0
M  V30 1818 H 177.925 1.9809 0.512024 0
M  V30 1819 H 177.935 3.0459 2.71457 0
M  V30 1820 H 176.61 3.74867 1.80132 0
M  V30 1821 H 175.187 2.30644 2.93015 0
M  V30 1822 N 177.372 -0.689602 1.41712 0
M  V30 1823 C 178.618 -1.45181 1.41599 0
M  V30 1824 C 178.951 -1.94181 0.0270081 0
M  V30 1825 O 178.226 -1.6993 -0.946265 0
M  V30 1826 C 178.509 -2.65945 2.42787 0
M  V30 1827 C 178.362 -2.22672 3.90816 0
M  V30 1828 C 179.681 -3.68149 2.41151 0
M  V30 1829 H 176.8 -0.526576 0.515642 0
M  V30 1830 H 179.442 -0.784947 1.73028 0
M  V30 1831 H 177.592 -3.2284 2.16116 0
M  V30 1832 H 179.264 -1.71058 4.28412 0
M  V30 1833 H 177.507 -1.54394 4.05395 0
M  V30 1834 H 178.178 -3.0935 4.57172 0
M  V30 1835 H 180.654 -3.2094 2.64834 0
M  V30 1836 H 179.53 -4.50248 3.13955 0
M  V30 1837 H 179.791 -4.18259 1.43221 0
M  V30 1838 N 178.85 -1.27639 -0.924453 0
M  V30 1839 C 180.097 -1.14167 -1.67249 0
M  V30 1840 C 180.425 0.311863 -1.91984 0
M  V30 1841 O 179.68 1.24425 -1.51053 0
M  V30 1842 C 179.979 -1.87407 -3.04325 0
M  V30 1843 C 179.645 -3.37249 -2.99289 0
M  V30 1844 C 178.307 -3.7812 -2.97622 0
M  V30 1845 C 180.659 -4.32845 -2.90336 0
M  V30 1846 C 177.987 -5.12944 -2.8479 0
M  V30 1847 C 180.339 -5.6773 -2.79045 0
M  V30 1848 C 179.003 -6.07889 -2.7573 0
M  V30 1849 H 178.273 -0.417766 -0.612007 0
M  V30 1850 H 180.92 -1.58286 -1.07786 0
M  V30 1851 H 179.225 -1.35805 -3.67511 0
M  V30 1852 H 180.922 -1.74408 -3.61086 0
M  V30 1853 H 177.512 -3.04748 -3.01374 0
M  V30 1854 H 181.696 -4.02239 -2.90719 0
M  V30 1855 H 176.952 -5.432 -2.80612 0
M  V30 1856 H 181.126 -6.41472 -2.71083 0
M  V30 1857 H 178.753 -7.12314 -2.65544 0
M  V30 1858 N 180.328 1.1314 -1.09713 0
M  V30 1859 C 181.739 1.66029 -0.853885 0
M  V30 1860 C 182.09 1.86241 0.617142 0
M  V30 1861 O 181.215 1.5834 1.47503 0
M  V30 1862 C 181.81 3.01599 -1.5435 0
M  V30 1863 C 180.369 3.51467 -1.34714 0
M  V30 1864 C 179.516 2.26648 -1.59769 0
M  V30 1865 H 182.467 0.970226 -1.25588 0
M  V30 1866 H 182.488 3.67709 -0.978267 0
M  V30 1867 H 182 2.86856 -2.6141 0
M  V30 1868 H 180.101 3.71408 -0.297838 0
M  V30 1869 H 180.214 4.314 -2.08401 0
M  V30 1870 H 178.578 2.33385 -1.01998 0
M  V30 1871 H 179.361 2.14467 -2.68065 0
M  V30 1872 N 181.806 0.884767 1.30421 0
M  V30 1873 C 182.736 0.367574 2.30589 0
M  V30 1874 C 183.717 -0.549464 1.60981 0
M  V30 1875 O 184.902 -0.46336 1.88591 0
M  V30 1876 C 182.032 -0.418944 3.44764 0
M  V30 1877 C 180.986 0.406316 4.26067 0
M  V30 1878 C 180.312 -0.506793 5.32293 0
M  V30 1879 C 181.612 1.64832 4.95608 0
M  V30 1880 H 183.306 1.20462 2.74097 0
M  V30 1881 H 180.852 0.580695 1.31772 0
M  V30 1882 H 182.805 -0.791395 4.13902 0
M  V30 1883 H 181.529 -1.28964 3.0006 0
M  V30 1884 H 180.188 0.760903 3.58617 0
M  V30 1885 H 179.836 -1.37519 4.83836 0
M  V30 1886 H 179.536 0.0415828 5.87585 0
M  V30 1887 H 181.06 -0.875764 6.04287 0
M  V30 1888 H 182.474 1.34646 5.57264 0
M  V30 1889 H 180.871 2.13688 5.60765 0
M  V30 1890 H 181.941 2.39284 4.21748 0
M  V30 1891 N 183.284 -1.43765 0.645699 0
M  V30 1892 C 184.247 -2.29163 -0.0409488 0
M  V30 1893 C 185.247 -1.41813 -0.757996 0
M  V30 1894 O 186.437 -1.63527 -0.600382 0
M  V30 1895 C 183.569 -3.23716 -1.06869 0
M  V30 1896 H 184.762 -2.91366 0.710345 0
M  V30 1897 H 182.315 -1.5092 0.406547 0
M  V30 1898 H 183.05 -2.66393 -1.84947 0
M  V30 1899 H 182.835 -3.88105 -0.558277 0
M  V30 1900 H 184.325 -3.87831 -1.54845 0
M  V30 1901 N 184.763 -0.387143 -1.52771 0
M  V30 1902 C 186.174 0.0873634 -1.86495 0
M  V30 1903 C 186.525 1.46336 -1.30691 0
M  V30 1904 O 185.65 2.068 -0.637409 0
M  V30 1905 C 186.245 0.165305 -3.38396 0
M  V30 1906 C 184.804 0.584101 -3.7184 0
M  V30 1907 C 183.951 -0.255279 -2.76122 0
M  V30 1908 H 186.902 -0.605104 -1.46711 0
M  V30 1909 H 186.923 0.984848 -3.67534 0
M  V30 1910 H 186.435 -0.836301 -3.78982 0
M  V30 1911 H 184.536 1.59315 -3.36823 0
M  V30 1912 H 184.649 0.343749 -4.77865 0
M  V30 1913 H 183.013 0.279126 -2.53166 0
M  V30 1914 H 183.796 -1.25482 -3.19545 0
M  V30 1915 N 186.241 1.57166 -0.116904 0
M  V30 1916 C 187.481 1.97008 0.544715 0
M  V30 1917 C 187.845 0.998713 1.63981 0
M  V30 1918 O 189.046 1.28644 2.36018 0
M  V30 1919 C 187.317 3.41145 1.06559 0
M  V30 1920 S 188.876 4.02998 1.73603 0
M  V30 1921 H 185.694 0.688587 0.177112 0
M  V30 1922 H 188.296 1.94459 -0.201487 0
M  V30 1923 H 187 4.09592 0.257374 0
M  V30 1924 H 186.531 3.4734 1.84712 0
M  V30 1925 H 188.546 3.93585 3.02168 0
M  V30 1926 N 187.719 -0.156864 1.56817 0
M  V30 1927 C 188.944 -0.890331 1.87318 0
M  V30 1928 C 189.369 -1.74394 0.704855 0
M  V30 1929 O 188.727 -1.77972 -0.345786 0
M  V30 1930 C 188.775 -1.73102 3.16336 0
M  V30 1931 O 187.879 -2.83422 2.99576 0
M  V30 1932 H 187.22 -0.24857 0.615718 0
M  V30 1933 H 189.75 -0.150649 2.04045 0
M  V30 1934 H 189.76 -2.12803 3.48107 0
M  V30 1935 H 188.435 -1.10412 4.00976 0
M  V30 1936 H 187.012 -2.47199 2.7919 0
M  V30 1937 N 189.197 -1.51736 -0.425897 0
M  V30 1938 C 190.613 -1.40166 -0.76326 0
M  V30 1939 C 190.813 -0.492962 -1.95377 0
M  V30 1940 O 189.869 0.0475815 -2.52455 0
M  V30 1941 C 191.182 -2.82403 -1.03291 0
M  V30 1942 C 192.73 -2.91632 -1.13665 0
M  V30 1943 C 193.205 -4.34801 -1.43916 0
M  V30 1944 N 194.696 -4.3796 -1.50816 0
M  V30 1945 C 195.431 -5.4578 -1.75817 0
M  V30 1946 N 194.927 -6.63744 -1.98534 0
M  V30 1947 N 196.72 -5.33274 -1.77694 0
M  V30 1948 H 188.871 -2.09361 0.358 0
M  V30 1949 H 191.134 -0.942941 0.0978094 0
M  V30 1950 H 190.84 -3.50943 -0.230696 0
M  V30 1951 H 190.714 -3.22428 -1.95754 0
M  V30 1952 H 193.101 -2.23284 -1.92947 0
M  V30 1953 H 193.182 -2.55088 -0.190756 0
M  V30 1954 H 192.826 -5.03703 -0.65157 0
M  V30 1955 H 192.756 -4.68868 -2.39729 0
M  V30 1956 H 195.247 -3.52919 -1.35118 0
M  V30 1957 H 195.56 -7.41704 -2.17013 0
M  V30 1958 H 193.905 -6.66839 -1.95832 0
M  V30 1959 H 197.096 -4.40098 -1.59473 0
M  V30 1960 H 197.269 -6.1738 -1.9684 0
M  V30 1961 N 190.675 0.682077 -1.42076 0
M  V30 1962 C 191.9 1.47558 -1.45744 0
M  V30 1963 C 192.325 1.87977 -0.0680981 0
M  V30 1964 O 191.683 1.55522 0.9318 0
M  V30 1965 C 191.731 2.70575 -2.38373 0
M  V30 1966 O 190.835 3.68573 -1.85007 0
M  V30 1967 H 190.176 0.443585 -0.494093 0
M  V30 1968 H 192.706 0.837238 -1.86686 0
M  V30 1969 H 192.716 3.18729 -2.54707 0
M  V30 1970 H 191.391 2.40495 -3.39315 0
M  V30 1971 H 189.968 3.2757 -1.78192 0
M  V30 1972 N 192.153 1.28127 0.917671 0
M  V30 1973 C 193.381 1.17892 1.70026 0
M  V30 1974 C 193.796 -0.262958 1.8696 0
M  V30 1975 O 193.153 -1.17811 1.3938 0
M  V30 1976 C 193.204 1.86872 3.09453 0
M  V30 1977 O 192.925 3.25428 2.93306 0
M  V30 1978 C 194.426 1.8289 4.03815 0
M  V30 1979 H 191.646 0.40942 0.531617 0
M  V30 1980 H 194.19 1.69181 1.14883 0
M  V30 1981 H 192.345 1.39464 3.61426 0
M  V30 1982 H 192.759 3.59918 3.81523 0
M  V30 1983 H 194.233 2.35751 4.99125 0
M  V30 1984 H 194.71 0.800412 4.31845 0
M  V30 1985 H 195.316 2.29959 3.57769 0
M  V30 1986 N 193.631 -1.12557 1.10312 0
M  V30 1987 C 194.856 -1.88405 0.867085 0
M  V30 1988 C 195.281 -1.79038 -0.576817 0
M  V30 1989 O 194.639 -1.14439 -1.40618 0
M  V30 1990 C 194.687 -3.3563 1.31851 0
M  V30 1991 O 193.791 -4.09565 0.482734 0
M  V30 1992 H 193.132 -0.585455 0.313271 0
M  V30 1993 H 195.662 -1.42352 1.4696 0
M  V30 1994 H 195.672 -3.86469 1.3079 0
M  V30 1995 H 194.347 -3.41765 2.37001 0
M  V30 1996 H 192.924 -3.68695 0.558448 0
M  V30 1997 N 195.109 -0.891671 -1.2995 0
M  V30 1998 C 196.019 -0.367691 -2.31701 0
M  V30 1999 C 197.035 0.533486 -1.6562 0
M  V30 2000 O 198.211 0.424997 -1.96865 0
M  V30 2001 C 195.276 0.403406 -3.44345 0
M  V30 2002 C 194.337 -0.528328 -4.26037 0
M  V30 2003 C 193.57 0.206063 -5.33302 0
M  V30 2004 O 193.793 1.43119 -5.52153 0
M  V30 2005 O 192.727 -0.447281 -6.00236 0
M  V30 2006 H 196.553 -1.21163 -2.78484 0
M  V30 2007 H 194.138 -0.655725 -1.34241 0
M  V30 2008 H 196.02 0.839753 -4.12948 0
M  V30 2009 H 194.695 1.22354 -2.99685 0
M  V30 2010 H 193.602 -1.01362 -3.60106 0
M  V30 2011 H 194.935 -1.31465 -4.74318 0
M  V30 2012 N 196.587 1.43421 -0.653314 0
M  V30 2013 C 197.812 2.06678 -0.172846 0
M  V30 2014 C 198.237 1.48648 1.15262 0
M  V30 2015 O 197.595 0.596457 1.71208 0
M  V30 2016 C 197.643 3.60474 -0.0953184 0
M  V30 2017 O 196.747 4.01487 0.942442 0
M  V30 2018 H 196.088 0.657181 -0.0949155 0
M  V30 2019 H 198.618 1.83925 -0.896265 0
M  V30 2020 H 198.628 4.07905 0.0879728 0
M  V30 2021 H 197.303 4.02088 -1.06291 0
M  V30 2022 H 195.88 3.65646 0.731932 0
M  V30 2023 N 198.065 0.39524 1.52563 0
M  V30 2024 C 199.293 -0.184943 2.06072 0
M  V30 2025 C 199.708 -1.40021 1.26647 0
M  V30 2026 O 199.065 -1.79767 0.314672 0
M  V30 2027 C 199.116 -0.549179 3.57304 0
M  V30 2028 O 198.837 0.617813 4.33722 0
M  V30 2029 C 200.338 -1.18459 4.2718 0
M  V30 2030 H 197.558 -0.0265025 0.670476 0
M  V30 2031 H 200.102 0.562184 1.96621 0
M  V30 2032 H 198.257 -1.2462 3.66809 0
M  V30 2033 H 198.671 0.317091 5.23541 0
M  V30 2034 H 200.145 -1.38976 5.34219 0
M  V30 2035 H 200.622 -2.15368 3.82771 0
M  V30 2036 H 201.228 -0.528163 4.22008 0
M  V30 2037 N 199.544 -1.57102 0.125237 0
M  V30 2038 C 200.507 -2.14471 -0.80838 0
M  V30 2039 C 201.507 -1.0811 -1.19033 0
M  V30 2040 O 202.697 -1.33856 -1.11482 0
M  V30 2041 C 199.829 -2.69005 -2.09402 0
M  V30 2042 H 201.022 -2.98297 -0.309696 0
M  V30 2043 H 198.575 -1.55807 -0.124051 0
M  V30 2044 H 199.31 -1.88785 -2.63687 0
M  V30 2045 H 199.095 -3.46799 -1.82957 0
M  V30 2046 H 200.585 -3.13278 -2.76128 0
M  V30 2047 N 201.022 0.148545 -1.56898 0
M  V30 2048 C 201.985 1.16736 -1.97244 0
M  V30 2049 C 202.985 1.35947 -0.858777 0
M  V30 2050 O 204.175 1.32966 -1.12542 0
M  V30 2051 C 201.307 2.52798 -2.28705 0
M  V30 2052 H 202.5 0.821279 -2.88435 0
M  V30 2053 H 200.053 0.391831 -1.51309 0
M  V30 2054 H 200.788 2.92381 -1.403 0
M  V30 2055 H 200.573 2.40216 -3.09901 0
M  V30 2056 H 202.063 3.26179 -2.60762 0
M  V30 2057 N 202.5 1.5196 0.417844 0
M  V30 2058 C 203.43 1.77634 1.51554 0
M  V30 2059 C 204.411 0.626918 1.58126 0
M  V30 2060 O 205.596 0.871632 1.7354 0
M  V30 2061 C 202.726 1.91911 2.8946 0
M  V30 2062 C 201.68 3.07463 2.97743 0
M  V30 2063 C 201.006 3.06951 4.37819 0
M  V30 2064 C 202.306 4.47082 2.70027 0
M  V30 2065 H 204 2.6955 1.3032 0
M  V30 2066 H 201.546 1.29706 0.625492 0
M  V30 2067 H 203.499 2.08455 3.6623 0
M  V30 2068 H 202.223 0.966598 3.11969 0
M  V30 2069 H 200.882 2.90656 2.23416 0
M  V30 2070 H 200.53 2.09438 4.57323 0
M  V30 2071 H 200.23 3.84556 4.44286 0
M  V30 2072 H 201.754 3.25613 5.16535 0
M  V30 2073 H 203.168 4.6414 3.36522 0
M  V30 2074 H 201.565 5.2654 2.87881 0
M  V30 2075 H 202.635 4.55777 1.65514 0
M  V30 2076 N 203.978 -0.674533 1.42435 0
M  V30 2077 C 205.226 -1.43175 1.42637 0
M  V30 2078 C 205.547 -1.94951 0.0438992 0
M  V30 2079 O 204.817 -1.7308 -0.917607 0
M  V30 2080 H 203.397 -0.531307 0.525092 0
M  V30 2081 H 206.059 -0.797006 1.77859 0
M  V30 2082 H 205.155 -2.28463 2.12629 0
M  V30 2083 N 205.456 -1.28612 -0.910864 0
M  V30 2084 C 206.696 -1.1719 -1.67469 0
M  V30 2085 C 207.06 0.274441 -1.90028 0
M  V30 2086 O 208.261 0.511425 -2.6389 0
M  V30 2087 C 206.532 -1.95137 -2.99427 0
M  V30 2088 S 208.091 -2.00122 -3.90508 0
M  V30 2089 H 204.909 -0.41806 -0.575106 0
M  V30 2090 H 207.511 -1.6275 -1.08317 0
M  V30 2091 H 206.215 -2.99381 -2.80712 0
M  V30 2092 H 205.746 -1.50137 -3.63624 0
M  V30 2093 H 207.761 -1.10981 -4.8363 0
M  V30 2094 N 206.934 1.1197 -1.10907 0
M  V30 2095 C 207.864 2.19928 -0.784473 0
M  V30 2096 C 208.845 1.6833 0.244726 0
M  V30 2097 O 210.03 1.93892 0.109418 0
M  V30 2098 C 207.16 3.46597 -0.220827 0
M  V30 2099 C 206.114 4.11376 -1.18127 0
M  V30 2100 C 205.44 5.32554 -0.478594 0
M  V30 2101 C 206.74 4.56945 -2.52979 0
M  V30 2102 H 208.434 2.47337 -1.68715 0
M  V30 2103 H 205.98 1.18879 -0.812642 0
M  V30 2104 H 207.933 4.21396 0.0184278 0
M  V30 2105 H 206.657 3.1863 0.717113 0
M  V30 2106 H 205.316 3.38564 -1.40606 0
M  V30 2107 H 204.964 5.00856 0.463976 0
M  V30 2108 H 204.664 5.76844 -1.11912 0
M  V30 2109 H 206.188 6.10096 -0.248 0
M  V30 2110 H 207.602 5.23093 -2.3462 0
M  V30 2111 H 205.999 5.1203 -3.12962 0
M  V30 2112 H 207.069 3.70676 -3.12614 0
M  V30 2113 N 208.412 0.89855 1.29475 0
M  V30 2114 C 209.658 0.524658 1.95896 0
M  V30 2115 C 209.991 -0.926468 1.70676 0
M  V30 2116 O 209.266 -1.65665 1.01908 0
M  V30 2117 C 209.549 0.81633 3.50725 0
M  V30 2118 C 209.402 2.31907 3.85408 0
M  V30 2119 C 210.721 0.302038 4.39062 0
M  V30 2120 H 207.84 0.19209 0.711527 0
M  V30 2121 H 210.482 1.12502 1.53112 0
M  V30 2122 H 208.632 0.305369 3.87298 0
M  V30 2123 H 210.304 2.89949 3.58786 0
M  V30 2124 H 208.547 2.78027 3.32992 0
M  V30 2125 H 209.218 2.47373 4.93468 0
M  V30 2126 H 211.694 0.739551 4.09475 0
M  V30 2127 H 210.57 0.535331 5.46283 0
M  V30 2128 H 210.831 -0.797216 4.34853 0
M  V30 2129 N 209.89 -1.43072 0.660911 0
M  V30 2130 C 210.837 -2.30785 -0.0259884 0
M  V30 2131 C 211.807 -1.45184 -0.806888 0
M  V30 2132 O 212.992 -1.74041 -0.781943 0
M  V30 2133 C 210.132 -3.30861 -0.981067 0
M  V30 2134 C 209.245 -4.31558 -0.195458 0
M  V30 2135 C 208.38 -5.18712 -1.14503 0
M  V30 2136 C 207.419 -6.11097 -0.350299 0
M  V30 2137 N 206.556 -6.90849 -1.25186 0
M  V30 2138 H 211.396 -2.88975 0.727846 0
M  V30 2139 H 208.933 -1.42353 0.370682 0
M  V30 2140 H 210.891 -3.87399 -1.54849 0
M  V30 2141 H 209.521 -2.74304 -1.70169 0
M  V30 2142 H 208.573 -3.77252 0.488374 0
M  V30 2143 H 209.885 -4.9701 0.422176 0
M  V30 2144 H 209.039 -5.79914 -1.78284 0
M  V30 2145 H 207.778 -4.53404 -1.79656 0
M  V30 2146 H 206.783 -5.48976 0.300808 0
M  V30 2147 H 208.008 -6.7845 0.296941 0
M  V30 2148 H 205.954 -6.28182 -1.89005 0
M  V30 2149 H 205.871 -7.52854 -0.688971 0
M  V30 2150 H 207.139 -7.5655 -1.87757 0
M  V30 2151 N 211.368 -0.403325 -1.52352 0
M  V30 2152 C 212.645 0.232611 -1.94212 0
M  V30 2153 C 213.025 1.63133 -1.33981 0
M  V30 2154 O 212.373 2.22659 -0.513344 0
M  V30 2155 C 212.583 0.244811 -3.4814 0
M  V30 2156 C 213.931 0.46698 -4.22024 0
M  V30 2157 O 214.955 0.324419 -3.5472 0
M  V30 2158 O 213.814 0.74747 -5.41364 0
M  V30 2159 H 210.908 0.148223 -0.813609 0
M  V30 2160 H 213.454 -0.458848 -1.63379 0
M  V30 2161 H 212.226 -0.734378 -3.84347 0
M  V30 2162 H 211.849 0.980611 -3.85318 0
M  V30 2163 N 212.846 1.57033 -0.133567 0
M  V30 2164 C 214.076 1.99754 0.527429 0
M  V30 2165 C 214.484 1.01245 1.59832 0
M  V30 2166 O 213.827 -0.000645496 1.837 0
M  V30 2167 C 213.889 3.38903 1.19939 0
M  V30 2168 C 213.553 4.56174 0.274709 0
M  V30 2169 C 214.55 5.17563 -0.492398 0
M  V30 2170 C 212.235 5.01972 0.18153 0
M  V30 2171 C 214.229 6.2315 -1.34027 0
M  V30 2172 C 211.916 6.07416 -0.669958 0
M  V30 2173 C 212.914 6.67874 -1.42947 0
M  V30 2174 O 212.602 7.71279 -2.2668 0
M  V30 2175 H 212.334 0.660702 0.142999 0
M  V30 2176 H 214.888 2.04207 -0.221099 0
M  V30 2177 H 213.118 3.31248 1.99528 0
M  V30 2178 H 214.807 3.65818 1.75875 0
M  V30 2179 H 215.573 4.83087 -0.430367 0
M  V30 2180 H 211.452 4.54652 0.762422 0
M  V30 2181 H 214.996 6.70268 -1.93357 0
M  V30 2182 H 210.893 6.41321 -0.73333 0
M  V30 2183 H 211.661 7.88441 -2.1978 0
M  V30 2184 N 214.325 -0.140222 1.56975 0
M  V30 2185 C 215.572 -0.851687 1.83719 0
M  V30 2186 C 215.9 -1.80862 0.715485 0
M  V30 2187 O 215.155 -1.93464 -0.294956 0
M  V30 2188 C 215.454 -1.65386 3.16832 0
M  V30 2189 C 215.12 -0.843112 4.42947 0
M  V30 2190 C 213.782 -0.619464 4.77196 0
M  V30 2191 C 216.134 -0.276582 5.20466 0
M  V30 2192 C 213.462 0.181312 5.8642 0
M  V30 2193 C 215.814 0.51127 6.30531 0
M  V30 2194 C 214.478 0.745432 6.63325 0
M  V30 2195 H 213.748 -0.311654 0.672274 0
M  V30 2196 H 216.395 -0.115006 1.91154 0
M  V30 2197 H 214.7 -2.46084 3.04877 0
M  V30 2198 H 216.397 -2.20793 3.34741 0
M  V30 2199 H 212.987 -1.0275 4.16101 0
M  V30 2200 H 217.171 -0.436632 4.94376 0
M  V30 2201 H 212.427 0.372165 6.10266 0
M  V30 2202 H 216.601 0.957354 6.89788 0
M  V30 2203 H 214.228 1.36778 7.47794 0
M  V30 2204 N 215.803 -1.52179 -0.40978 0
M  V30 2205 C 217.214 -1.58377 -0.988615 0
M  V30 2206 C 217.565 -0.423879 -1.91566 0
M  V30 2207 O 216.69 0.455844 -2.11544 0
M  V30 2208 C 217.285 -2.87044 -1.79976 0
M  V30 2209 C 215.844 -2.95722 -2.32863 0
M  V30 2210 C 214.991 -2.53309 -1.12828 0
M  V30 2211 H 217.942 -1.57558 -0.190039 0
M  V30 2212 H 217.963 -2.7236 -2.65707 0
M  V30 2213 H 217.475 -3.71444 -1.12478 0
M  V30 2214 H 215.576 -2.15814 -3.03735 0
M  V30 2215 H 215.689 -3.99951 -2.63773 0
M  V30 2216 H 214.053 -2.07142 -1.48204 0
M  V30 2217 H 214.836 -3.40082 -0.46897 0
M  V30 2218 N 217.281 0.66697 -1.42791 0
M  V30 2219 C 218.191 1.80962 -1.49299 0
M  V30 2220 C 219.207 1.69775 -0.381108 0
M  V30 2221 O 220.383 1.91188 -0.633188 0
M  V30 2222 C 217.448 3.17156 -1.40045 0
M  V30 2223 C 216.509 3.40242 -2.6179 0
M  V30 2224 C 215.742 4.69939 -2.52969 0
M  V30 2225 O 215.965 5.48372 -1.56985 0
M  V30 2226 O 214.899 4.94441 -3.43237 0
M  V30 2227 H 218.725 1.78427 -2.45759 0
M  V30 2228 H 216.31 0.823713 -1.24641 0
M  V30 2229 H 218.192 3.98413 -1.37276 0
M  V30 2230 H 216.867 3.20312 -0.467138 0
M  V30 2231 H 215.774 2.58802 -2.70134 0
M  V30 2232 H 217.107 3.41923 -3.54047 0
M  V30 2233 N 218.759 1.29093 0.90403 0
M  V30 2234 C 220.17 1.15186 1.46932 0
M  V30 2235 C 220.521 -0.254587 1.94541 0
M  V30 2236 O 219.646 -1.14972 1.83332 0
M  V30 2237 C 220.241 2.08492 2.67051 0
M  V30 2238 C 218.8 1.98621 3.19729 0
M  V30 2239 C 217.947 1.9967 1.92425 0
M  V30 2240 H 220.898 1.41641 0.715789 0
M  V30 2241 H 220.919 1.65461 3.42641 0
M  V30 2242 H 220.431 3.10847 2.3237 0
M  V30 2243 H 218.532 0.993389 3.59114 0
M  V30 2244 H 218.645 2.86068 3.8432 0
M  V30 2245 H 217.009 1.44208 2.09943 0
M  V30 2246 H 217.792 3.03721 1.60026 0
M  V30 2247 N 220.237 -1.11381 1.11499 0
M  V30 2248 C 221.483 -1.83403 0.865512 0
M  V30 2249 C 221.816 -1.84459 -0.607329 0
M  V30 2250 O 221.091 -1.29811 -1.44842 0
M  V30 2251 C 221.374 -3.30552 1.42855 0
M  V30 2252 C 221.227 -3.37886 2.96906 0
M  V30 2253 C 222.546 -4.26643 1.08 0
M  V30 2254 H 219.665 -0.665879 0.31587 0
M  V30 2255 H 222.307 -1.30601 1.37998 0
M  V30 2256 H 220.457 -3.75648 0.990985 0
M  V30 2257 H 222.129 -3.01343 3.49271 0
M  V30 2258 H 220.372 -2.78088 3.32941 0
M  V30 2259 H 221.043 -4.41458 3.31389 0
M  V30 2260 H 223.519 -3.89729 1.45775 0
M  V30 2261 H 222.395 -5.27986 1.50072 0
M  V30 2262 H 222.656 -4.42099 -0.00915037 0
M  V30 2263 N 221.715 -0.905404 -1.28997 0
M  V30 2264 C 222.943 -0.549846 -1.9946 0
M  V30 2265 C 223.358 0.866834 -1.67724 0
M  V30 2266 O 222.715 1.57298 -0.925404 0
M  V30 2267 C 222.766 -0.739387 -3.53858 0
M  V30 2268 O 222.487 -2.10031 -3.84472 0
M  V30 2269 C 223.988 -0.389541 -4.41585 0
M  V30 2270 H 221.208 -0.210429 -0.637151 0
M  V30 2271 H 223.752 -1.21632 -1.64396 0
M  V30 2272 H 221.907 -0.120023 -3.87214 0
M  V30 2273 H 222.321 -2.13385 -4.79132 0
M  V30 2274 H 223.795 -0.572972 -5.49018 0
M  V30 2275 H 224.272 0.673756 -4.34001 0
M  V30 2276 H 224.878 -0.986089 -4.1371 0
M  V30 2277 N 223.193 1.4272 -0.668489 0
M  V30 2278 C 224.439 2.01923 -0.188419 0
M  V30 2279 C 224.772 1.52704 1.19979 0
M  V30 2280 O 224.047 0.726566 1.8042 0
M  V30 2281 C 224.33 3.59451 -0.216085 0
M  V30 2282 C 224.183 4.18864 -1.6393 0
M  V30 2283 C 225.502 4.37903 0.439179 0
M  V30 2284 H 222.621 0.733674 -0.0699412 0
M  V30 2285 H 225.263 1.69822 -0.852076 0
M  V30 2286 H 223.413 3.86929 0.349012 0
M  V30 2287 H 225.085 4.02362 -2.25616 0
M  V30 2288 H 223.328 3.74933 -2.18193 0
M  V30 2289 H 223.999 5.27987 -1.61039 0
M  V30 2290 H 226.475 4.16079 -0.0417878 0
M  V30 2291 H 225.351 5.47519 0.389157 0
M  V30 2292 H 225.612 4.15303 1.51577 0
M  V30 2293 N 224.671 0.411399 1.52136 0
M  V30 2294 C 225.896 -0.165538 2.06738 0
M  V30 2295 C 226.321 -1.379 1.27926 0
M  V30 2296 O 225.679 -1.78628 0.310114 0
M  V30 2297 C 225.727 -0.492124 3.57226 0
M  V30 2298 O 224.831 -1.58276 3.80818 0
M  V30 2299 H 224.172 -0.0132132 0.663869 0
M  V30 2300 H 226.702 0.585253 1.96051 0
M  V30 2301 H 226.712 -0.750104 4.01045 0
M  V30 2302 H 225.387 0.394922 4.14021 0
M  V30 2303 H 223.964 -1.31677 3.48877 0
M  V30 2304 N 226.149 -1.5696 0.141893 0
M  V30 2305 C 227.395 -1.97034 -0.504884 0
M  V30 2306 C 227.75 -1.02518 -1.62812 0
M  V30 2307 O 227.043 -0.0592943 -1.91508 0
M  V30 2308 C 227.237 -3.41242 -1.06249 0
M  V30 2309 C 227.066 -4.497 0.00519653 0
M  V30 2310 C 225.836 -5.03338 0.444873 0
M  V30 2311 C 228.034 -5.08122 0.794767 0
M  V30 2312 N 226.016 -5.95395 1.49593 0
M  V30 2313 C 227.387 -5.96339 1.69645 0
M  V30 2314 C 229.442 -4.9071 0.843122 0
M  V30 2315 C 228.145 -6.69009 2.64233 0
M  V30 2316 C 230.171 -5.64077 1.77681 0
M  V30 2317 C 229.533 -6.51999 2.66603 0
M  V30 2318 H 225.632 -0.766745 -0.153707 0
M  V30 2319 H 228.216 -1.93273 0.235313 0
M  V30 2320 H 226.387 -3.45606 -1.77231 0
M  V30 2321 H 228.119 -3.68389 -1.67546 0
M  V30 2322 H 224.874 -4.73576 0.0480959 0
M  V30 2323 H 225.298 -6.46128 2.02107 0
M  V30 2324 H 229.94 -4.22459 0.169732 0
M  V30 2325 H 227.658 -7.36492 3.32575 0
M  V30 2326 H 231.244 -5.52602 1.81996 0
M  V30 2327 H 230.124 -7.07775 3.37675 0
M  V30 2328 N 227.627 0.131896 -1.57047 0
M  V30 2329 C 228.575 1.18146 -2.0036 0
M  V30 2330 C 229.569 1.43614 -0.898406 0
M  V30 2331 O 230.775 1.43729 -1.08361 0
M  V30 2332 H 227.15 0.398042 -0.638018 0
M  V30 2333 H 229.121 0.789564 -2.87765 0
M  V30 2334 C 227.87 2.50341 -2.41298 0
M  V30 2335 H 227.193 2.31578 -3.25902 0
M  V30 2336 H 228.633 3.22371 -2.75414 0
M  V30 2337 C 227.092 3.11984 -1.27153 0
M  V30 2338 O 227.622 3.97484 -0.580459 0
M  V30 2339 N 225.828 2.71662 -1.03189 0
M  V30 2340 H 225.375 2.02231 -1.59564 0
M  V30 2341 H 225.333 3.13238 -0.270077 0
M  V30 2342 N 229.106 1.52395 0.401703 0
M  V30 2343 C 230.331 1.70972 1.17403 0
M  V30 2344 C 230.756 0.421615 1.83314 0
M  V30 2345 O 230.114 -0.621564 1.70312 0
M  V30 2346 C 230.162 2.85151 2.20728 0
M  V30 2347 O 229.266 2.51238 3.27037 0
M  V30 2348 H 228.607 0.568927 0.342372 0
M  V30 2349 H 231.137 1.99131 0.469891 0
M  V30 2350 H 231.147 3.10279 2.64936 0
M  V30 2351 H 229.822 3.78603 1.7214 0
M  V30 2352 H 228.399 2.36808 2.88057 0
M  V30 2353 N 230.584 -0.659388 1.43143 0
M  V30 2354 C 231.832 -1.41654 1.44147 0
M  V30 2355 C 232.153 -1.94893 0.0645739 0
M  V30 2356 O 231.423 -1.74044 -0.899198 0
M  V30 2357 H 230.003 -0.525708 0.530697 0
M  V30 2358 H 232.665 -0.778097 1.78694 0
M  V30 2359 H 231.761 -2.26195 2.1504 0
M  V30 2360 N 232.062 -1.29571 -0.897171 0
M  V30 2361 C 233.025 -1.14913 -1.98312 0
M  V30 2362 C 234.025 -0.0838629 -1.60581 0
M  V30 2363 O 235.215 -0.331006 -1.71026 0
M  V30 2364 C 232.347 -0.757835 -3.3237 0
M  V30 2365 H 233.54 -2.11377 -2.12743 0
M  V30 2366 H 231.093 -1.12793 -1.08201 0
M  V30 2367 H 231.828 0.206837 -3.2364 0
M  V30 2368 H 231.613 -1.52755 -3.61121 0
M  V30 2369 H 233.103 -0.678408 -4.12053 0
M  V30 2370 N 233.54 1.10788 -1.12088 0
M  V30 2371 C 234.47 2.19083 -0.807755 0
M  V30 2372 C 235.451 1.6858 0.226859 0
M  V30 2373 O 236.636 1.93997 0.0888475 0
M  V30 2374 C 233.766 3.46344 -0.257576 0
M  V30 2375 C 232.72 4.101 -1.22483 0
M  V30 2376 C 232.046 5.32016 -0.535052 0
M  V30 2377 C 233.346 4.54236 -2.57811 0
M  V30 2378 H 235.04 2.45534 -1.71328 0
M  V30 2379 H 232.586 1.1801 -0.825205 0
M  V30 2380 H 234.539 4.21392 -0.0262679 0
M  V30 2381 H 233.263 3.19373 0.683278 0
M  V30 2382 H 231.922 3.37054 -1.44189 0
M  V30 2383 H 231.57 5.01319 0.410827 0
M  V30 2384 H 231.27 5.75625 -1.18024 0
M  V30 2385 H 232.794 6.09799 -0.312695 0
M  V30 2386 H 234.208 5.20575 -2.40155 0
M  V30 2387 H 232.605 5.08682 -3.18375 0
M  V30 2388 H 233.675 3.6734 -3.16528 0
M  V30 2389 N 235.018 0.912232 1.28515 0
M  V30 2390 C 236.246 0.560416 1.99166 0
M  V30 2391 C 236.661 -0.857927 1.68182 0
M  V30 2392 O 236.018 -1.56805 0.933733 0
M  V30 2393 C 236.069 0.758142 3.53461 0
M  V30 2394 O 235.79 2.12067 3.83352 0
M  V30 2395 C 237.291 0.412954 4.41372 0
M  V30 2396 H 234.511 0.213805 0.636026 0
M  V30 2397 H 237.055 1.22502 1.63749 0
M  V30 2398 H 235.21 0.140556 3.87145 0
M  V30 2399 H 235.624 2.15923 4.77993 0
M  V30 2400 H 237.098 0.60208 5.48707 0
M  V30 2401 H 237.575 -0.65073 4.34353 0
M  V30 2402 H 238.181 1.00802 4.13182 0
M  V30 2403 N 236.496 -1.42363 0.676048 0
M  V30 2404 C 237.721 -2.06377 0.205705 0
M  V30 2405 C 238.146 -1.50463 -1.12883 0
M  V30 2406 O 237.504 -0.623619 -1.70237 0
M  V30 2407 C 237.552 -3.60277 0.152655 0
M  V30 2408 O 236.656 -4.02935 -0.87845 0
M  V30 2409 H 235.997 -0.655588 0.105359 0
M  V30 2410 H 238.527 -1.82475 0.925412 0
M  V30 2411 H 238.537 -4.07993 -0.0230675 0
M  V30 2412 H 237.212 -4.00346 1.12675 0
M  V30 2413 H 235.789 -3.66764 -0.673668 0
M  V30 2414 N 237.974 -0.419461 -1.51915 0
M  V30 2415 C 239.222 0.152637 -2.01523 0
M  V30 2416 C 239.543 1.44762 -1.30649 0
M  V30 2417 O 238.813 1.90997 -0.435535 0
M  V30 2418 H 237.393 0.0593966 -0.744635 0
M  V30 2419 H 240.055 -0.558073 -1.86739 0
M  V30 2420 H 239.151 0.341369 -3.10227 0
M  V30 2421 N 239.452 1.56882 -0.150215 0
M  V30 2422 C 240.698 1.96518 0.500834 0
M  V30 2423 C 241.031 1.03527 1.64304 0
M  V30 2424 O 240.306 0.0782751 1.94342 0
M  V30 2425 C 240.589 3.45822 1.00395 0
M  V30 2426 C 240.442 4.49591 -0.136983 0
M  V30 2427 C 241.761 3.97704 1.88467 0
M  V30 2428 H 238.88 0.714535 0.18058 0
M  V30 2429 H 241.522 1.88577 -0.232091 0
M  V30 2430 H 239.672 3.5272 1.62851 0
M  V30 2431 H 241.344 4.5477 -0.77343 0
M  V30 2432 H 239.587 4.26441 -0.795652 0
M  V30 2433 H 240.258 5.51402 0.256815 0
M  V30 2434 H 242.734 3.93304 1.35834 0
M  V30 2435 H 241.61 5.0263 2.20578 0
M  V30 2436 H 241.871 3.40252 2.82279 0
M  V30 2437 N 240.93 -0.123565 1.57115 0
M  V30 2438 C 241.88 -1.1575 1.96433 0
M  V30 2439 C 242.864 -1.37313 0.838686 0
M  V30 2440 O 244.056 -1.38482 1.10235 0
M  V30 2441 C 241.185 -2.48526 2.36833 0
M  V30 2442 C 240.271 -2.30457 3.5602 0
M  V30 2443 N 240.662 -1.8219 4.71848 0
M  V30 2444 C 238.96 -2.61129 3.61563 0
M  V30 2445 C 239.661 -1.77721 5.53886 0
M  V30 2446 N 238.637 -2.21899 4.96248 0
M  V30 2447 H 242.439 -0.776797 2.83449 0
M  V30 2448 H 239.953 -0.331364 1.58983 0
M  V30 2449 H 241.95 -3.233 2.63216 0
M  V30 2450 H 240.61 -2.87358 1.5118 0
M  V30 2451 H 241.621 -1.51805 4.95152 0
M  V30 2452 H 238.298 -3.03678 2.86507 0
M  V30 2453 H 239.688 -1.41697 6.56789 0
M  V30 2454 N 242.408 -1.52605 -0.393616 0
M  V30 2455 C 243.636 -1.71294 -1.16043 0
M  V30 2456 C 244.051 -0.429259 -1.83855 0
M  V30 2457 O 243.408 0.595921 -1.72496 0
M  V30 2458 C 243.459 -2.8593 -2.21193 0
M  V30 2459 O 243.18 -4.09329 -1.56146 0
M  V30 2460 C 244.681 -3.16259 -3.10636 0
M  V30 2461 H 241.901 -0.573641 -0.348104 0
M  V30 2462 H 244.445 -1.99234 -0.461092 0
M  V30 2463 H 242.6 -2.60465 -2.86769 0
M  V30 2464 H 243.014 -4.73323 -2.25978 0
M  V30 2465 H 244.488 -3.99946 -3.80456 0
M  V30 2466 H 244.965 -2.3045 -3.73884 0
M  V30 2467 H 245.571 -3.43547 -2.50711 0
M  V30 2468 N 243.887 0.651787 -1.4349 0
M  V30 2469 C 245.134 1.41167 -1.45183 0
M  V30 2470 C 245.462 1.94349 -0.0766601 0
M  V30 2471 O 244.717 1.72804 0.918555 0
M  V30 2472 C 245.016 2.60914 -2.44251 0
M  V30 2473 C 244.682 2.26142 -3.9009 0
M  V30 2474 C 243.344 2.16371 -4.2981 0
M  V30 2475 C 245.696 1.98334 -4.81989 0
M  V30 2476 C 243.024 1.7695 -5.5938 0
M  V30 2477 C 245.376 1.6041 -6.11924 0
M  V30 2478 C 244.04 1.49166 -6.5062 0
M  V30 2479 H 243.31 0.516566 -0.531263 0
M  V30 2480 H 245.957 0.741099 -1.76579 0
M  V30 2481 H 244.262 3.3311 -2.06265 0
M  V30 2482 H 245.959 3.19127 -2.42815 0
M  V30 2483 H 242.549 2.34658 -3.58655 0
M  V30 2484 H 246.733 2.04803 -4.52072 0
M  V30 2485 H 241.989 1.66831 -5.88198 0
M  V30 2486 H 246.163 1.37925 -6.82605 0
M  V30 2487 H 243.79 1.1839 -7.50925 0
M  V30 2488 N 245.365 1.30045 0.890287 0
M  V30 2489 C 246.776 1.16738 1.45702 0
M  V30 2490 C 247.127 -0.233939 1.948 0
M  V30 2491 O 246.252 -1.13021 1.84541 0
M  V30 2492 C 246.847 2.11313 2.64825 0
M  V30 2493 C 245.406 2.02001 3.17604 0
M  V30 2494 C 244.553 2.01699 1.90296 0
M  V30 2495 H 247.504 1.42392 0.700726 0
M  V30 2496 H 247.525 1.69086 3.40867 0
M  V30 2497 H 247.037 3.13294 2.2906 0
M  V30 2498 H 245.138 1.03142 3.5804 0
M  V30 2499 H 245.251 2.90128 3.81264 0
M  V30 2500 H 243.615 1.46427 2.08402 0
M  V30 2501 H 244.398 3.05402 1.56795 0
M  V30 2502 N 246.843 -1.10192 1.12674 0
M  V30 2503 C 247.806 -2.14786 0.799979 0
M  V30 2504 C 248.806 -1.59711 -0.18685 0
M  V30 2505 O 249.996 -1.74156 0.0392558 0
M  V30 2506 C 247.128 -3.40374 0.189228 0
M  V30 2507 H 248.321 -2.45203 1.72671 0
M  V30 2508 H 245.874 -1.25597 0.930326 0
M  V30 2509 H 246.609 -3.15577 -0.747107 0
M  V30 2510 H 246.394 -3.81637 0.899766 0
M  V30 2511 H 247.884 -4.17594 -0.0228143 0
M  V30 2512 N 248.321 -0.919034 -1.28029 0
M  V30 2513 C 249.567 -0.555757 -1.95036 0
M  V30 2514 C 249.9 0.899198 -1.72128 0
M  V30 2515 O 249.175 1.64023 -1.04531 0
M  V30 2516 C 249.458 -0.872024 -3.49382 0
M  V30 2517 C 249.311 -2.3801 -3.81669 0
M  V30 2518 C 250.63 -0.37185 -4.38526 0
M  V30 2519 H 247.749 -0.203386 -0.708381 0
M  V30 2520 H 250.391 -1.14924 -1.51303 0
M  V30 2521 H 248.541 -0.366946 -3.86763 0
M  V30 2522 H 250.213 -2.9562 -3.54128 0
M  V30 2523 H 248.456 -2.83289 -3.28526 0
M  V30 2524 H 249.127 -2.55192 -4.8947 0
M  V30 2525 H 251.603 -0.804602 -4.08247 0
M  V30 2526 H 250.479 -0.622173 -5.45362 0
M  V30 2527 H 250.74 0.727934 -4.36066 0
M  V30 2528 N 249.799 1.42003 -0.683588 0
M  V30 2529 C 250.729 2.33487 -0.024866 0
M  V30 2530 C 251.71 1.51163 0.779975 0
M  V30 2531 O 252.895 1.79739 0.735362 0
M  V30 2532 C 250.025 3.3487 0.920836 0
M  V30 2533 C 248.979 4.27414 0.223958 0
M  V30 2534 C 248.305 5.19074 1.2832 0
M  V30 2535 C 249.605 5.14445 -0.90242 0
M  V30 2536 H 251.299 2.88819 -0.788921 0
M  V30 2537 H 248.845 1.38873 -0.38083 0
M  V30 2538 H 250.798 3.97787 1.39081 0
M  V30 2539 H 249.522 2.77861 1.71642 0
M  V30 2540 H 248.181 3.65904 -0.225864 0
M  V30 2541 H 247.829 4.58387 2.071 0
M  V30 2542 H 247.529 5.81822 0.821995 0
M  V30 2543 H 249.053 5.84867 1.75392 0
M  V30 2544 H 250.467 5.70998 -0.513272 0
M  V30 2545 H 248.864 5.86072 -1.28997 0
M  V30 2546 H 249.934 4.52322 -1.74737 0
M  V30 2547 N 251.277 0.427512 1.51691 0
M  V30 2548 C 252.209 -0.424521 2.25234 0
M  V30 2549 C 253.222 -0.994671 1.2888 0
M  V30 2550 O 254.411 -0.890483 1.54702 0
M  V30 2551 C 251.511 -1.60479 2.98496 0
M  V30 2552 C 250.684 -1.15527 4.21868 0
M  V30 2553 C 249.743 -2.20454 4.77793 0
M  V30 2554 O 248.769 -1.8029 5.39893 0
M  V30 2555 N 249.971 -3.52831 4.60967 0
M  V30 2556 H 252.736 0.205749 2.98993 0
M  V30 2557 H 250.297 0.255867 1.59865 0
M  V30 2558 H 252.289 -2.30276 3.32799 0
M  V30 2559 H 250.859 -2.14061 2.27809 0
M  V30 2560 H 250.079 -0.284736 3.9317 0
M  V30 2561 H 251.367 -0.832173 5.01949 0
M  V30 2562 H 250.765 -3.88201 4.11481 0
M  V30 2563 H 249.322 -4.18551 4.99658 0
M  V30 2564 N 252.755 -1.56801 0.158532 0
M  V30 2565 C 253.98 -2.01295 -0.499516 0
M  V30 2566 C 254.405 -1.03799 -1.56867 0
M  V30 2567 O 253.763 -0.0155162 -1.81293 0
M  V30 2568 C 253.811 -3.44469 -1.06647 0
M  V30 2569 O 252.915 -3.50012 -2.18095 0
M  V30 2570 H 252.256 -0.652884 -0.12099 0
M  V30 2571 H 254.786 -2.02958 0.258661 0
M  V30 2572 H 254.796 -3.8351 -1.39227 0
M  V30 2573 H 253.471 -4.14932 -0.283581 0
M  V30 2574 H 252.048 -3.22822 -1.86656 0
M  V30 2575 N 254.233 0.115231 -1.57178 0
M  V30 2576 C 255.458 0.840354 -1.89612 0
M  V30 2577 C 255.883 1.72464 -0.750845 0
M  V30 2578 O 255.241 1.78826 0.298478 0
M  V30 2579 C 255.289 1.64654 -3.20814 0
M  V30 2580 O 254.393 2.7538 -3.06985 0
M  V30 2581 H 253.734 0.232158 -0.622092 0
M  V30 2582 H 256.264 0.0964977 -2.04372 0
M  V30 2583 H 256.274 2.03499 -3.53627 0
M  V30 2584 H 254.949 0.997416 -4.03763 0
M  V30 2585 H 253.526 2.3971 -2.85646 0
M  V30 2586 N 255.711 1.52812 0.385517 0
M  V30 2587 C 256.959 1.67694 1.12797 0
M  V30 2588 C 257.28 0.421115 1.90399 0
M  V30 2589 O 256.55 -0.564551 1.87589 0
M  V30 2590 H 255.13 0.618155 0.419396 0
M  V30 2591 H 257.792 1.89938 0.436972 0
M  V30 2592 H 256.888 2.52896 1.82894 0
M  V30 2593 N 257.189 -0.644168 1.43834 0
M  V30 2594 C 258.119 -1.76814 1.52509 0
M  V30 2595 C 259.1 -1.65823 0.379052 0
M  V30 2596 O 260.285 -1.84781 0.597466 0
M  V30 2597 C 257.415 -3.15288 1.4564 0
M  V30 2598 C 256.369 -3.41053 2.58586 0
M  V30 2599 C 255.695 -4.79421 2.36769 0
M  V30 2600 C 256.995 -3.34902 4.00797 0
M  V30 2601 H 258.689 -1.69812 2.46586 0
M  V30 2602 H 256.235 -0.815542 1.1868 0
M  V30 2603 H 258.188 -3.93681 1.50311 0
M  V30 2604 H 256.912 -3.23043 0.480725 0
M  V30 2605 H 255.571 -2.65035 2.53282 0
M  V30 2606 H 255.219 -4.83863 1.37424 0
M  V30 2607 H 254.919 -4.9762 3.12487 0
M  V30 2608 H 256.443 -5.6006 2.43238 0
M  V30 2609 H 257.857 -4.03218 4.07539 0
M  V30 2610 H 256.254 -3.64637 4.76613 0
M  V30 2611 H 257.324 -2.32928 4.25291 0
M  V30 2612 N 258.668 -1.30515 -0.883378 0
M  V30 2613 C 259.898 -1.22182 -1.66599 0
M  V30 2614 C 260.306 0.217507 -1.87946 0
M  V30 2615 O 259.649 1.1554 -1.42815 0
M  V30 2616 C 259.711 -1.88146 -3.06335 0
M  V30 2617 C 259.375 -3.37476 -3.08154 0
M  V30 2618 C 260.372 -4.33443 -2.87094 0
M  V30 2619 C 258.057 -3.7895 -3.29701 0
M  V30 2620 C 260.051 -5.68858 -2.8754 0
M  V30 2621 C 257.738 -5.14482 -3.29776 0
M  V30 2622 C 258.736 -6.09246 -3.0872 0
M  V30 2623 O 258.424 -7.42302 -3.08615 0
M  V30 2624 H 258.156 -0.423898 -0.52658 0
M  V30 2625 H 260.71 -1.72703 -1.11188 0
M  V30 2626 H 258.94 -1.32157 -3.63416 0
M  V30 2627 H 260.629 -1.7391 -3.66756 0
M  V30 2628 H 261.395 -4.02733 -2.70243 0
M  V30 2629 H 257.274 -3.05631 -3.45124 0
M  V30 2630 H 260.818 -6.428 -2.71024 0
M  V30 2631 H 256.715 -5.44832 -3.46163 0
M  V30 2632 H 257.483 -7.5131 -3.24769 0
M  V30 2633 N 260.146 1.09593 -1.13257 0
M  V30 2634 C 261.371 1.8604 -0.916732 0
M  V30 2635 C 261.796 1.80504 0.529146 0
M  V30 2636 O 261.154 1.18127 1.37534 0
M  V30 2637 C 261.202 3.32017 -1.40703 0
M  V30 2638 O 260.306 4.08141 -0.591153 0
M  V30 2639 H 259.647 0.576943 -0.328683 0
M  V30 2640 H 262.177 1.38405 -1.50682 0
M  V30 2641 H 262.187 3.82865 -1.4099 0
M  V30 2642 H 260.862 3.35361 -2.45979 0
M  V30 2643 H 259.439 3.67084 -0.656005 0
M  V30 2644 N 261.624 0.925811 1.2754 0
M  V30 2645 C 262.554 0.440748 2.29303 0
M  V30 2646 C 263.535 -0.497971 1.62648 0
M  V30 2647 O 264.72 -0.403126 1.8997 0
M  V30 2648 C 261.85 -0.309048 3.45922 0
M  V30 2649 C 260.804 0.54166 4.24559 0
M  V30 2650 C 260.13 -0.337191 5.33636 0
M  V30 2651 C 261.43 1.80516 4.90114 0
M  V30 2652 H 263.124 1.29121 2.70126 0
M  V30 2653 H 260.67 0.622323 1.29858 0
M  V30 2654 H 262.623 -0.659315 4.1621 0
M  V30 2655 H 261.347 -1.19352 3.04011 0
M  V30 2656 H 260.006 0.874609 3.56014 0
M  V30 2657 H 259.654 -1.22056 4.87966 0
M  V30 2658 H 259.354 0.228497 5.87156 0
M  V30 2659 H 260.878 -0.683072 6.06767 0
M  V30 2660 H 262.292 1.52307 5.52698 0
M  V30 2661 H 260.689 2.3142 5.53683 0
M  V30 2662 H 261.759 2.52581 4.13921 0
M  V30 2663 N 263.102 -1.41638 0.69111 0
M  V30 2664 C 264.327 -2.06148 0.227583 0
M  V30 2665 C 264.752 -1.51652 -1.11281 0
M  V30 2666 O 264.11 -0.64164 -1.69566 0
M  V30 2667 C 264.158 -3.60095 0.190858 0
M  V30 2668 O 263.262 -4.03845 -0.835664 0
M  V30 2669 H 262.603 -0.654434 0.112306 0
M  V30 2670 H 265.133 -1.81484 0.944714 0
M  V30 2671 H 265.143 -4.07995 0.020207 0
M  V30 2672 H 263.818 -3.99129 1.16915 0
M  V30 2673 H 262.395 -3.67458 -0.63473 0
M  V30 2674 N 264.58 -0.43555 -1.51462 0
M  V30 2675 C 265.805 0.132627 -2.06976 0
M  V30 2676 C 266.23 1.35848 -1.30104 0
M  V30 2677 O 265.588 1.78112 -0.338493 0
M  V30 2678 C 265.636 0.43523 -3.57964 0
M  V30 2679 O 264.74 1.52198 -3.83288 0
M  V30 2680 H 264.081 0.00265 -0.663995 0
M  V30 2681 H 266.611 -0.616369 -1.95095 0
M  V30 2682 H 266.621 0.686206 -4.02188 0
M  V30 2683 H 265.296 -0.460739 -4.1334 0
M  V30 2684 H 263.873 1.2611 -3.50928 0
M  V30 2685 N 266.058 1.56714 -0.166846 0
M  V30 2686 C 267.304 1.97039 0.479962 0
M  V30 2687 C 267.637 1.05264 1.63197 0
M  V30 2688 O 266.912 0.0988833 1.94248 0
M  V30 2689 C 267.195 3.46867 0.967212 0
M  V30 2690 C 267.048 4.49421 -0.18466 0
M  V30 2691 C 268.367 3.9968 1.84238 0
M  V30 2692 H 265.486 0.71641 0.172992 0
M  V30 2693 H 268.128 1.8832 -0.252079 0
M  V30 2694 H 266.278 3.54428 1.59101 0
M  V30 2695 H 267.95 4.53924 -0.821621 0
M  V30 2696 H 266.193 4.25573 -0.840837 0
M  V30 2697 H 266.864 5.51644 0.198317 0
M  V30 2698 H 269.34 3.94723 1.31655 0
M  V30 2699 H 268.216 5.04941 2.15234 0
M  V30 2700 H 268.477 3.43226 2.78654 0
M  V30 2701 N 267.536 -0.106894 1.57237 0
M  V30 2702 C 268.782 -0.81373 1.85759 0
M  V30 2703 C 269.115 -1.78952 0.754315 0
M  V30 2704 O 268.39 -1.93029 -0.23879 0
M  V30 2705 C 268.673 -1.55293 3.24894 0
M  V30 2706 C 268.526 -0.595929 4.45835 0
M  V30 2707 C 269.845 -2.5063 3.61763 0
M  V30 2708 H 266.964 -0.294369 0.67566 0
M  V30 2709 H 269.606 -0.0776472 1.89841 0
M  V30 2710 H 267.756 -2.1804 3.21544 0
M  V30 2711 H 269.428 0.0236262 4.61294 0
M  V30 2712 H 267.671 0.0916191 4.33703 0
M  V30 2713 H 268.342 -1.15004 5.39887 0
M  V30 2714 H 270.818 -1.97982 3.65981 0
M  V30 2715 H 269.694 -2.99376 4.60071 0
M  V30 2716 H 269.955 -3.3385 2.89821 0
M  V30 2717 N 269.014 -1.53014 -0.377408 0
M  V30 2718 C 270.242 -1.72515 -1.14219 0
M  V30 2719 C 270.657 -0.448735 -1.8339 0
M  V30 2720 O 270.014 0.577592 -1.73119 0
M  V30 2721 C 270.065 -2.8826 -2.18148 0
M  V30 2722 O 269.786 -4.10962 -1.51795 0
M  V30 2723 C 271.287 -3.19536 -3.07264 0
M  V30 2724 H 268.507 -0.577301 -0.342001 0
M  V30 2725 H 271.051 -1.99712 -0.439935 0
M  V30 2726 H 269.206 -2.63492 -2.83991 0
M  V30 2727 H 269.62 -4.75693 -2.20945 0
M  V30 2728 H 271.094 -4.03959 -3.76193 0
M  V30 2729 H 271.571 -2.34403 -3.71419 0
M  V30 2730 H 272.177 -3.46186 -2.47053 0
M  V30 2731 N 270.492 0.636531 -1.44174 0
M  V30 2732 C 271.738 1.39826 -1.4689 0
M  V30 2733 C 272.071 1.93947 -0.0990585 0
M  V30 2734 O 271.346 1.73325 0.882544 0
M  V30 2735 C 271.629 2.56751 -2.5249 0
M  V30 2736 C 271.482 2.08014 -3.98811 0
M  V30 2737 C 272.801 3.58946 -2.54649 0
M  V30 2738 H 269.92 0.507075 -0.53483 0
M  V30 2739 H 272.562 0.720188 -1.75822 0
M  V30 2740 H 270.712 3.14597 -2.2795 0
M  V30 2741 H 272.384 1.5504 -4.34466 0
M  V30 2742 H 270.627 1.39242 -4.10846 0
M  V30 2743 H 271.298 2.92169 -4.68339 0
M  V30 2744 H 273.774 3.1089 -2.76563 0
M  V30 2745 H 272.65 4.38286 -3.3045 0
M  V30 2746 H 272.911 4.12655 -1.58646 0
M  V30 2747 N 271.97 1.30982 0.876444 0
M  V30 2748 C 273.381 1.18277 1.44456 0
M  V30 2749 C 273.732 -0.213265 1.95037 0
M  V30 2750 O 272.857 -1.11057 1.85729 0
M  V30 2751 C 273.452 2.1411 2.62569 0
M  V30 2752 C 272.011 2.05358 3.15444 0
M  V30 2753 C 271.158 2.03706 1.88146 0
M  V30 2754 H 274.109 1.43127 0.685584 0
M  V30 2755 H 274.13 1.72692 3.39054 0
M  V30 2756 H 273.642 3.15706 2.25724 0
M  V30 2757 H 271.743 1.06934 3.56926 0
M  V30 2758 H 271.856 2.94156 3.78166 0
M  V30 2759 H 270.22 1.48629 2.06837 0
M  V30 2760 H 271.003 3.07047 1.53547 0
M  V30 2761 N 273.449 -1.08991 1.13837 0
M  V30 2762 C 274.674 -1.85551 0.926585 0
M  V30 2763 C 275.099 -1.80782 -0.519566 0
M  V30 2764 O 274.457 -1.18855 -1.36906 0
M  V30 2765 C 274.505 -3.31266 1.42462 0
M  V30 2766 O 273.609 -4.07822 0.612789 0
M  V30 2767 H 272.95 -0.575192 0.331738 0
M  V30 2768 H 275.48 -1.37604 1.51414 0
M  V30 2769 H 275.49 -3.82112 1.43019 0
M  V30 2770 H 274.165 -3.34052 2.47754 0
M  V30 2771 H 272.742 -3.66731 0.675463 0
M  V30 2772 N 274.927 -0.932562 -1.27047 0
M  V30 2773 C 276.152 -0.591474 -1.98787 0
M  V30 2774 C 276.577 0.824601 -1.69062 0
M  V30 2775 O 275.935 1.5541 -0.933677 0
M  V30 2776 C 275.983 -0.829808 -3.50922 0
M  V30 2777 O 275.087 0.102266 -4.12273 0
M  V30 2778 H 274.428 -0.227185 -0.623926 0
M  V30 2779 H 276.958 -1.25314 -1.61733 0
M  V30 2780 H 276.968 -0.747292 -4.01098 0
M  V30 2781 H 275.643 -1.86201 -3.7189 0
M  V30 2782 H 274.22 -0.0305761 -3.72887 0
M  V30 2783 N 276.405 1.4127 -0.698611 0
M  V30 2784 C 277.63 2.06024 -0.238512 0
M  V30 2785 C 278.055 1.5224 1.10475 0
M  V30 2786 O 277.413 0.650623 1.69223 0
M  V30 2787 C 277.461 3.59988 -0.209952 0
M  V30 2788 O 276.565 4.04282 0.814235 0
M  V30 2789 H 275.906 0.653829 -0.115775 0
M  V30 2790 H 278.436 1.8098 -0.954326 0
M  V30 2791 H 278.446 4.07979 -0.0418436 0
M  V30 2792 H 277.121 3.98503 -1.1903 0
M  V30 2793 H 275.698 3.6779 0.615234 0
M  V30 2794 N 277.883 0.443576 1.51229 0
M  V30 2795 C 278.813 -0.355142 2.30783 0
M  V30 2796 C 279.794 -1.0154 1.36468 0
M  V30 2797 O 280.979 -1.01785 1.65389 0
M  V30 2798 C 278.109 -1.45312 3.15439 0
M  V30 2799 C 277.063 -0.916002 4.18083 0
M  V30 2800 C 276.389 -2.1102 4.91299 0
M  V30 2801 C 277.689 0.0538602 5.22272 0
M  V30 2802 H 279.383 0.308767 2.97804 0
M  V30 2803 H 276.929 0.149937 1.43217 0
M  V30 2804 H 278.882 -2.01914 3.69876 0
M  V30 2805 H 277.606 -2.14541 2.46252 0
M  V30 2806 H 276.265 -0.372145 3.64706 0
M  V30 2807 H 275.913 -2.78882 4.18609 0
M  V30 2808 H 275.613 -1.75717 5.60712 0
M  V30 2809 H 277.137 -2.68164 5.48562 0
M  V30 2810 H 278.551 -0.422069 5.71744 0
M  V30 2811 H 276.948 0.319776 5.99247 0
M  V30 2812 H 278.018 0.98858 4.74716 0
M  V30 2813 N 279.361 -1.56624 0.175154 0
M  V30 2814 C 280.609 -1.96609 -0.467885 0
M  V30 2815 C 280.93 -1.06238 -1.63519 0
M  V30 2816 O 280.2 -0.129523 -1.95471 0
M  V30 2817 H 278.78 -0.726008 -0.175845 0
M  V30 2818 H 281.442 -1.93195 0.257234 0
M  V30 2819 H 280.538 -3.00989 -0.825342 0
M  V30 2820 N 280.839 0.0985539 -1.57292 0
M  V30 2821 C 282.067 0.816318 -1.90115 0
M  V30 2822 C 282.482 1.72451 -0.768509 0
M  V30 2823 O 281.839 1.80643 0.259687 0
M  V30 2824 C 281.89 1.63259 -3.22535 0
M  V30 2825 O 281.611 0.760934 -4.31441 0
M  V30 2826 C 283.112 2.45372 -3.69199 0
M  V30 2827 H 280.332 0.233595 -0.629027 0
M  V30 2828 H 282.876 0.0768229 -2.04356 0
M  V30 2829 H 281.031 2.32463 -3.09903 0
M  V30 2830 H 281.445 1.32595 -5.07463 0
M  V30 2831 H 282.919 2.98144 -4.64558 0
M  V30 2832 H 283.396 3.23677 -2.96867 0
M  V30 2833 H 284.002 1.81373 -3.84687 0
M  V30 2834 N 282.317 1.53212 0.369288 0
M  V30 2835 C 283.264 1.79388 1.45219 0
M  V30 2836 C 284.234 0.638059 1.53356 0
M  V30 2837 O 285.419 0.879852 1.69302 0
M  V30 2838 C 282.559 1.98623 2.82211 0
M  V30 2839 C 281.672 3.26337 2.8307 0
M  V30 2840 C 280.807 3.35779 4.11614 0
M  V30 2841 C 279.846 4.5754 4.06601 0
M  V30 2842 N 278.983 4.64155 5.26787 0
M  V30 2843 H 283.823 2.71794 1.22198 0
M  V30 2844 H 281.36 1.34642 0.592444 0
M  V30 2845 H 283.318 2.07761 3.61789 0
M  V30 2846 H 281.948 1.09558 3.03639 0
M  V30 2847 H 281 3.26171 1.95747 0
M  V30 2848 H 282.312 4.15988 2.75237 0
M  V30 2849 H 281.466 3.44208 4.99606 0
M  V30 2850 H 280.205 2.44137 4.22195 0
M  V30 2851 H 279.21 4.49215 3.16996 0
M  V30 2852 H 280.435 5.50519 3.97625 0
M  V30 2853 H 278.381 3.75413 5.3796 0
M  V30 2854 H 278.298 5.47706 5.21109 0
M  V30 2855 H 279.566 4.76863 6.16621 0
M  V30 2856 N 283.795 -0.628877 1.44509 0
M  V30 2857 C 285.023 -1.41554 1.50897 0
M  V30 2858 C 285.438 -1.8832 0.134564 0
M  V30 2859 O 284.795 -1.60969 -0.859965 0
M  V30 2860 C 284.846 -2.63435 2.47556 0
M  V30 2861 O 284.567 -2.18619 3.79654 0
M  V30 2862 C 286.068 -3.56537 2.63431 0
M  V30 2863 H 283.288 -0.434044 0.511709 0
M  V30 2864 H 285.832 -0.768895 1.89495 0
M  V30 2865 H 283.987 -3.24187 2.12089 0
M  V30 2866 H 284.401 -2.97652 4.31861 0
M  V30 2867 H 285.875 -4.38657 3.35088 0
M  V30 2868 H 286.352 -4.05493 1.68738 0
M  V30 2869 H 286.958 -3.01653 2.9981 0
M  V30 2870 N 285.273 -1.31445 -0.869486 0
M  V30 2871 C 286.503 -1.23942 -1.65294 0
M  V30 2872 C 286.911 0.197561 -1.88166 0
M  V30 2873 O 286.254 1.14019 -1.44033 0
M  V30 2874 C 286.316 -1.91385 -3.04322 0
M  V30 2875 C 285.98 -3.40726 -3.04557 0
M  V30 2876 C 286.977 -4.36464 -2.82481 0
M  V30 2877 C 284.662 -3.82425 -3.25663 0
M  V30 2878 C 286.656 -5.71876 -2.8149 0
M  V30 2879 C 284.343 -5.1795 -3.243 0
M  V30 2880 C 285.341 -6.12486 -3.02241 0
M  V30 2881 O 285.029 -7.45534 -3.00724 0
M  V30 2882 H 284.761 -0.429459 -0.522054 0
M  V30 2883 H 287.315 -1.73873 -1.0935 0
M  V30 2884 H 285.545 -1.36004 -3.61994 0
M  V30 2885 H 287.234 -1.77791 -3.64891 0
M  V30 2886 H 288 -4.05576 -2.65956 0
M  V30 2887 H 283.879 -3.09274 -3.41863 0
M  V30 2888 H 287.423 -6.45638 -2.64191 0
M  V30 2889 H 283.32 -5.48473 -3.40365 0
M  V30 2890 H 284.088 -7.54713 -3.16782 0
M  V30 2891 N 286.751 1.08385 -1.14413 0
M  V30 2892 C 287.979 1.84517 -0.936001 0
M  V30 2893 C 288.394 1.81626 0.515503 0
M  V30 2894 O 287.751 1.22008 1.35721 0
M  V30 2895 C 287.802 3.32049 -1.42918 0
M  V30 2896 O 287.523 3.34951 -2.82381 0
M  V30 2897 C 289.024 4.24986 -1.26103 0
M  V30 2898 H 286.244 0.582491 -0.333084 0
M  V30 2899 H 288.788 1.36885 -1.5193 0
M  V30 2900 H 286.943 3.7707 -0.888641 0
M  V30 2901 H 287.357 4.27048 -3.04517 0
M  V30 2902 H 288.831 5.26615 -1.6547 0
M  V30 2903 H 289.308 4.38726 -0.20392 0
M  V30 2904 H 289.914 3.85791 -1.79012 0
M  V30 2905 N 288.23 0.939286 1.26551 0
M  V30 2906 C 289.47 0.5933 1.956 0
M  V30 2907 C 289.834 -0.851515 1.72085 0
M  V30 2908 O 291.035 -1.30634 2.34921 0
M  V30 2909 C 289.306 0.923996 3.45249 0
M  V30 2910 S 290.865 0.688269 4.33369 0
M  V30 2911 H 287.683 0.218591 0.676564 0
M  V30 2912 H 290.285 1.2102 1.5354 0
M  V30 2913 H 288.989 1.97297 3.59864 0
M  V30 2914 H 288.52 0.296746 3.92279 0
M  V30 2915 H 290.535 -0.448434 4.9417 0
M  V30 2916 N 289.708 -1.40897 0.706093 0
M  V30 2917 C 290.656 -2.32572 0.0361893 0
M  V30 2918 C 291.65 -1.51532 -0.757266 0
M  V30 2919 O 292.856 -1.67396 -0.661703 0
M  V30 2920 H 289.231 -0.751966 -0.00709935 0
M  V30 2921 H 291.202 -2.86733 0.826249 0
M  V30 2922 C 289.951 -3.36418 -0.87854 0
M  V30 2923 H 289.274 -3.98836 -0.277401 0
M  V30 2924 H 290.714 -4.0308 -1.3154 0
M  V30 2925 C 289.173 -2.71141 -1.99961 0
M  V30 2926 O 289.703 -2.56735 -3.0895 0
M  V30 2927 N 287.909 -2.29671 -1.78043 0
M  V30 2928 H 287.456 -2.41588 -0.894042 0
M  V30 2929 H 287.414 -1.86332 -2.53235 0
M  V30 2930 N 291.186 -0.45159 -1.50991 0
M  V30 2931 C 292.432 0.110237 -2.025 0
M  V30 2932 C 292.765 1.41109 -1.33424 0
M  V30 2933 O 292.04 1.89135 -0.453659 0
M  V30 2934 C 292.323 0.314271 -3.58726 0
M  V30 2935 C 292.176 -1.00623 -4.38401 0
M  V30 2936 C 293.495 1.07767 -4.26702 0
M  V30 2937 H 290.614 0.0385897 -0.735989 0
M  V30 2938 H 293.256 -0.593374 -1.80497 0
M  V30 2939 H 291.406 0.913601 -3.77605 0
M  V30 2940 H 293.078 -1.64064 -4.31139 0
M  V30 2941 H 291.321 -1.6075 -4.02917 0
M  V30 2942 H 291.992 -0.817341 -5.45915 0
M  V30 2943 H 294.468 0.56986 -4.12179 0
M  V30 2944 H 293.344 1.18921 -5.35863 0
M  V30 2945 H 293.605 2.10939 -3.88532 0
M  V30 2946 N 292.664 1.56529 -0.183458 0
M  V30 2947 C 293.941 1.88959 0.50536 0
M  V30 2948 C 294.321 1.09523 1.80466 0
M  V30 2949 O 293.669 0.19278 2.27685 0
M  V30 2950 C 293.879 3.41162 0.73547 0
M  V30 2951 C 295.227 4.11155 1.06005 0
M  V30 2952 O 296.251 3.46548 0.823594 0
M  V30 2953 O 295.11 5.25318 1.50675 0
M  V30 2954 H 292.204 0.78441 0.261973 0
M  V30 2955 H 294.75 1.68231 -0.222802 0
M  V30 2956 H 293.522 3.90874 -0.182561 0
M  V30 2957 H 293.145 3.67543 1.51651 0
M  V30 2958 N 294.142 -0.090211 1.57342 0
M  V30 2959 C 295.092 -1.11557 1.98844 0
M  V30 2960 C 296.076 -1.35503 0.867624 0
M  V30 2961 O 297.268 -1.36113 1.13148 0
M  V30 2962 C 294.397 -2.43446 2.42051 0
M  V30 2963 C 293.483 -2.22853 3.60828 0
M  V30 2964 N 293.874 -1.72141 4.75606 0
M  V30 2965 C 292.172 -2.53401 3.67021 0
M  V30 2966 C 292.873 -1.65932 5.57531 0
M  V30 2967 N 291.849 -2.11323 5.00843 0
M  V30 2968 H 295.651 -0.716499 2.85032 0
M  V30 2969 H 293.165 -0.297567 1.59651 0
M  V30 2970 H 295.162 -3.17644 2.70014 0
M  V30 2971 H 293.822 -2.84087 1.57241 0
M  V30 2972 H 294.833 -1.41268 4.98261 0
M  V30 2973 H 291.51 -2.97532 2.92884 0
M  V30 2974 H 292.9 -1.27733 6.59647 0
M  V30 2975 N 295.62 -1.53406 -0.361157 0
M  V30 2976 C 296.567 -1.80156 -1.44265 0
M  V30 2977 C 297.537 -0.646183 -1.53015 0
M  V30 2978 O 298.722 -0.888818 -1.68833 0
M  V30 2979 C 295.862 -2.00116 -2.81154 0
M  V30 2980 C 294.975 -3.27833 -2.81335 0
M  V30 2981 C 294.11 -3.37957 -4.09828 0
M  V30 2982 C 293.149 -4.59689 -4.04168 0
M  V30 2983 N 292.286 -4.66942 -5.24318 0
M  V30 2984 H 297.126 -2.72438 -1.20754 0
M  V30 2985 H 294.663 -1.34954 -0.585296 0
M  V30 2986 H 296.621 -2.09677 -3.60682 0
M  V30 2987 H 295.251 -1.11167 -3.03054 0
M  V30 2988 H 294.303 -3.27204 -1.94014 0
M  V30 2989 H 295.615 -4.17442 -2.73027 0
M  V30 2990 H 294.769 -3.46853 -4.97773 0
M  V30 2991 H 293.508 -2.46372 -4.20894 0
M  V30 2992 H 292.513 -4.50889 -3.14609 0
M  V30 2993 H 293.738 -5.5262 -3.947 0
M  V30 2994 H 291.684 -3.7826 -5.35962 0
M  V30 2995 H 291.601 -5.50462 -5.18197 0
M  V30 2996 H 292.869 -4.80127 -6.14084 0
M  V30 2997 N 297.098 0.621204 -1.44841 0
M  V30 2998 C 298.509 1.20298 -1.42777 0
M  V30 2999 C 298.86 1.95639 -0.148259 0
M  V30 3000 O 297.985 2.02955 0.750892 0
M  V30 3001 C 298.58 2.1882 -2.58657 0
M  V30 3002 C 297.139 2.72403 -2.59756 0
M  V30 3003 C 296.286 1.4757 -2.34773 0
M  V30 3004 H 299.237 0.411297 -1.53278 0
M  V30 3005 H 299.258 3.01607 -2.31977 0
M  V30 3006 H 298.77 1.63957 -3.51766 0
M  V30 3007 H 296.871 3.31242 -1.70615 0
M  V30 3008 H 296.984 3.17765 -3.58556 0
M  V30 3009 H 295.348 1.76051 -1.8406 0
M  V30 3010 H 296.131 0.945954 -3.3001 0
M  V30 3011 N 298.576 1.31904 0.862503 0
M  V30 3012 C 299.801 1.25135 1.65397 0
M  V30 3013 C 300.226 -0.179 1.87246 0
M  V30 3014 O 299.584 -1.1277 1.4196 0
M  V30 3015 C 299.632 2.00832 2.99498 0
M  V30 3016 O 298.736 1.35075 3.89652 0
M  V30 3017 H 298.077 0.431655 0.504549 0
M  V30 3018 H 300.607 1.74094 1.07483 0
M  V30 3019 H 300.617 2.10709 3.49379 0
M  V30 3020 H 299.292 3.04847 2.82916 0
M  V30 3021 H 297.869 1.33696 3.48109 0
M  V30 3022 N 300.054 -1.07777 1.14986 0
M  V30 3023 C 301.002 -2.16964 0.838406 0
M  V30 3024 C 301.996 -1.68372 -0.186386 0
M  V30 3025 O 303.202 -1.79951 -0.0418465 0
M  V30 3026 H 299.577 -0.708006 0.253439 0
M  V30 3027 H 301.548 -2.40454 1.76704 0
M  V30 3028 C 300.297 -3.4604 0.339335 0
M  V30 3029 H 299.62 -3.83813 1.11927 0
M  V30 3030 H 301.06 -4.23698 0.160021 0
M  V30 3031 C 299.519 -3.23569 -0.938325 0
M  V30 3032 O 300.049 -3.47752 -2.01077 0
M  V30 3033 N 298.255 -2.77079 -0.876117 0
M  V30 3034 H 297.802 -2.576 -0.00322037 0
M  V30 3035 H 297.76 -2.62422 -1.73153 0
M  V30 3036 N 301.532 -0.945985 -1.26051 0
M  V30 3037 C 302.76 -0.613025 -1.9761 0
M  V30 3038 C 303.175 0.813035 -1.70397 0
M  V30 3039 O 302.532 1.54274 -0.974979 0
M  V30 3040 C 302.583 -0.85159 -3.51326 0
M  V30 3041 O 302.304 -2.22157 -3.77595 0
M  V30 3042 C 303.805 -0.529831 -4.40122 0
M  V30 3043 H 301.025 -0.230593 -0.630133 0
M  V30 3044 H 303.569 -1.268 -1.60443 0
M  V30 3045 H 301.724 -0.243151 -3.86636 0
M  V30 3046 H 302.138 -2.2852 -4.721 0
M  V30 3047 H 303.612 -0.747348 -5.46917 0
M  V30 3048 H 304.089 0.535341 -4.35925 0
M  V30 3049 H 304.695 -1.11721 -4.10364 0
M  V30 3050 N 303.011 1.40521 -0.713556 0
M  V30 3051 C 303.958 2.30723 -0.059684 0
M  V30 3052 C 304.928 1.48079 0.752448 0
M  V30 3053 O 306.113 1.76823 0.71681 0
M  V30 3054 C 303.253 3.34274 0.857594 0
M  V30 3055 C 302.366 4.31986 0.0351536 0
M  V30 3056 C 301.501 5.22605 0.951724 0
M  V30 3057 C 300.54 6.11976 0.123253 0
M  V30 3058 N 299.677 6.9502 0.99459 0
M  V30 3059 H 304.517 2.86074 -0.834596 0
M  V30 3060 H 302.054 1.40879 -0.42326 0
M  V30 3061 H 304.012 3.92879 1.40364 0
M  V30 3062 H 302.642 2.8043 1.59871 0
M  V30 3063 H 301.694 3.7518 -0.628052 0
M  V30 3064 H 303.006 4.95101 -0.606347 0
M  V30 3065 H 302.16 5.86131 1.56638 0
M  V30 3066 H 300.899 4.59759 1.62705 0
M  V30 3067 H 299.904 5.47482 -0.50435 0
M  V30 3068 H 301.129 6.76881 -0.548539 0
M  V30 3069 H 299.075 6.34764 1.6556 0
M  V30 3070 H 298.992 7.54892 0.40908 0
M  V30 3071 H 300.26 7.62997 1.59549 0
M  V30 3072 N 304.489 0.459591 1.5075 0
M  V30 3073 C 305.735 -0.0994966 2.02556 0
M  V30 3074 C 306.068 -1.40399 1.3417 0
M  V30 3075 O 305.343 -1.88892 0.463683 0
M  V30 3076 C 305.626 -0.295242 3.58888 0
M  V30 3077 C 305.479 1.02947 4.37861 0
M  V30 3078 C 306.798 -1.05502 4.27267 0
M  V30 3079 H 303.917 -0.034686 0.736183 0
M  V30 3080 H 306.559 0.602938 1.8018 0
M  V30 3081 H 304.709 -0.893563 3.78084 0
M  V30 3082 H 306.381 1.66348 4.30263 0
M  V30 3083 H 304.624 1.62885 4.02058 0
M  V30 3084 H 305.295 0.846281 5.45474 0
M  V30 3085 H 307.771 -0.547993 4.12476 0
M  V30 3086 H 306.647 -1.16077 5.36486 0
M  V30 3087 H 306.908 -2.08875 3.89645 0
M  V30 3088 N 305.967 -1.56429 0.191757 0
M  V30 3089 C 307.244 -1.89224 -0.495332 0
M  V30 3090 C 307.624 -1.10478 -1.79883 0
M  V30 3091 O 306.972 -0.204852 -2.2758 0
M  V30 3092 C 307.182 -3.41548 -0.717367 0
M  V30 3093 C 308.53 -4.11711 -1.03823 0
M  V30 3094 O 309.554 -3.4698 -0.805204 0
M  V30 3095 O 308.413 -5.2611 -1.47887 0
M  V30 3096 H 305.507 -0.785788 -0.25781 0
M  V30 3097 H 308.053 -1.68111 0.231721 0
M  V30 3098 H 306.825 -3.90772 0.203287 0
M  V30 3099 H 306.448 -3.68342 -1.497 0
M  V30 3100 N 307.445 0.0818655 -1.57387 0
M  V30 3101 C 308.392 1.09834 -2.0299 0
M  V30 3102 C 309.362 1.39043 -0.908639 0
M  V30 3103 O 310.547 1.50282 -1.17559 0
M  V30 3104 C 307.687 2.40971 -2.47037 0
M  V30 3105 C 306.8 2.18379 -3.7274 0
M  V30 3106 C 305.935 3.43008 -4.0561 0
M  V30 3107 C 304.974 3.15736 -5.24383 0
M  V30 3108 N 304.111 4.32667 -5.52941 0
M  V30 3109 H 308.951 0.702472 -2.89602 0
M  V30 3110 H 306.488 0.33531 -1.43227 0
M  V30 3111 H 308.446 3.1752 -2.70623 0
M  V30 3112 H 307.076 2.78379 -1.63417 0
M  V30 3113 H 306.128 1.32569 -3.56552 0
M  V30 3114 H 307.44 1.94227 -4.59431 0
M  V30 3115 H 306.594 4.27958 -4.30043 0
M  V30 3116 H 305.333 3.70225 -3.17466 0
M  V30 3117 H 304.338 2.2918 -4.99757 0
M  V30 3118 H 305.563 2.8985 -6.14136 0
M  V30 3119 H 303.509 4.59935 -4.67756 0
M  V30 3120 H 303.426 4.11753 -6.34031 0
M  V30 3121 H 304.694 5.18644 -5.81918 0
M  V30 3122 N 308.923 1.53595 0.353017 0
M  V30 3123 C 310.339 1.43648 0.695516 0
M  V30 3124 C 310.539 0.585617 1.92802 0
M  V30 3125 O 309.595 0.0729223 2.52395 0
M  V30 3126 C 310.908 2.8701 0.896991 0
M  V30 3127 C 312.456 2.96723 0.996209 0
M  V30 3128 C 312.931 4.41173 1.23007 0
M  V30 3129 N 314.422 4.44657 1.29749 0
M  V30 3130 C 315.157 5.53547 1.49577 0
M  V30 3131 N 314.653 6.72461 1.66639 0
M  V30 3132 N 316.446 5.41145 1.52048 0
M  V30 3133 H 308.597 2.07415 -0.457481 0
M  V30 3134 H 310.86 0.9372 -0.142687 0
M  V30 3135 H 310.566 3.51644 0.0629938 0
M  V30 3136 H 310.44 3.31401 1.80148 0
M  V30 3137 H 312.827 2.32235 1.82074 0
M  V30 3138 H 312.908 2.55707 0.0688331 0
M  V30 3139 H 312.552 5.06238 0.410505 0
M  V30 3140 H 312.482 4.79772 2.17086 0
M  V30 3141 H 314.973 3.58963 1.18126 0
M  V30 3142 H 315.286 7.51214 1.81378 0
M  V30 3143 H 313.631 6.75423 1.63794 0
M  V30 3144 H 316.822 4.47205 1.38294 0
M  V30 3145 H 316.995 6.26068 1.67159 0
M  V30 3146 N 310.401 -0.613514 1.45168 0
M  V30 3147 C 311.647 -1.37471 1.49096 0
M  V30 3148 C 311.98 -1.93765 0.129901 0
M  V30 3149 O 311.255 -1.74707 -0.854858 0
M  V30 3150 C 311.538 -2.52701 2.56542 0
M  V30 3151 C 311.391 -2.01643 4.0207 0
M  V30 3152 C 312.71 -3.54849 2.60327 0
M  V30 3153 H 309.829 -0.498502 0.54283 0
M  V30 3154 H 312.471 -0.692125 1.76945 0
M  V30 3155 H 310.621 -3.10931 2.32926 0
M  V30 3156 H 312.293 -1.48108 4.36877 0
M  V30 3157 H 310.536 -1.32688 4.13009 0
M  V30 3158 H 311.207 -2.84681 4.72928 0
M  V30 3159 H 313.683 -3.0645 2.81474 0
M  V30 3160 H 312.559 -4.32973 3.37381 0
M  V30 3161 H 312.82 -4.10079 1.6519 0
M  V30 3162 N 311.879 -1.3236 -0.855495 0
M  V30 3163 C 312.789 -1.23221 -1.99634 0
M  V30 3164 C 313.805 -0.145983 -1.73387 0
M  V30 3165 O 314.981 -0.366502 -1.98037 0
M  V30 3166 C 312.046 -0.954782 -3.33294 0
M  V30 3167 C 311.107 -2.12937 -3.72769 0
M  V30 3168 C 310.34 -1.86508 -5.00051 0
M  V30 3169 O 310.563 -0.807231 -5.64659 0
M  V30 3170 O 309.497 -2.72591 -5.36636 0
M  V30 3171 H 313.323 -2.19126 -2.1028 0
M  V30 3172 H 310.908 -1.12241 -0.986018 0
M  V30 3173 H 312.79 -0.816519 -4.13414 0
M  V30 3174 H 311.465 -0.0258854 -3.2369 0
M  V30 3175 H 310.372 -2.3231 -2.93228 0
M  V30 3176 H 311.705 -3.04102 -3.87018 0
M  V30 3177 N 313.357 1.07166 -1.15556 0
M  V30 3178 C 314.582 1.84053 -0.955988 0
M  V30 3179 C 315.007 1.81586 0.490739 0
M  V30 3180 O 314.365 1.21018 1.34997 0
M  V30 3181 C 314.413 3.28957 -1.47714 0
M  V30 3182 O 313.517 4.06795 -0.677593 0
M  V30 3183 H 312.858 0.569842 -0.340847 0
M  V30 3184 H 315.388 1.35178 -1.53584 0
M  V30 3185 H 315.398 3.79788 -1.4908 0
M  V30 3186 H 314.073 3.30068 -2.53037 0
M  V30 3187 H 312.65 3.6561 -0.733721 0
M  V30 3188 N 314.835 0.952656 1.25548 0
M  V30 3189 C 315.782 0.47008 2.25962 0
M  V30 3190 C 316.752 -0.476384 1.59122 0
M  V30 3191 O 317.937 -0.39007 1.8677 0
M  V30 3192 C 315.077 -0.247881 3.44209 0
M  V30 3193 C 314.19 0.735591 4.25691 0
M  V30 3194 C 313.325 -0.0047306 5.312 0
M  V30 3195 C 312.364 0.969805 6.04368 0
M  V30 3196 N 311.501 0.260486 7.01617 0
M  V30 3197 H 316.341 1.33126 2.66611 0
M  V30 3198 H 313.878 0.66765 1.31076 0
M  V30 3199 H 315.836 -0.680695 4.1161 0
M  V30 3200 H 314.466 -1.07312 3.0444 0
M  V30 3201 H 313.518 1.28689 3.57971 0
M  V30 3202 H 314.83 1.47934 4.76358 0
M  V30 3203 H 313.984 -0.496275 6.04667 0
M  V30 3204 H 312.723 -0.781282 4.81401 0
M  V30 3205 H 311.728 1.47237 5.29718 0
M  V30 3206 H 312.953 1.74655 6.56256 0
M  V30 3207 H 310.899 -0.497364 6.54112 0
M  V30 3208 H 310.816 0.943362 7.50091 0
M  V30 3209 H 312.084 -0.209587 7.79218 0
M  V30 3210 N 316.313 -1.40141 0.720998 0
M  V30 3211 C 317.543 -2.04798 0.27226 0
M  V30 3212 C 317.951 -1.54442 -1.09289 0
M  V30 3213 O 317.294 -0.698342 -1.69908 0
M  V30 3214 C 317.356 -3.59048 0.18027 0
M  V30 3215 C 317.02 -4.32317 1.48159 0
M  V30 3216 C 318.017 -4.59902 2.42458 0
M  V30 3217 C 315.702 -4.71125 1.74202 0
M  V30 3218 C 317.696 -5.25288 3.61042 0
M  V30 3219 C 315.383 -5.36242 2.93066 0
M  V30 3220 C 316.381 -5.63254 3.86308 0
M  V30 3221 O 316.069 -6.27024 5.03086 0
M  V30 3222 H 315.801 -0.665419 0.119139 0
M  V30 3223 H 318.355 -1.80436 0.981432 0
M  V30 3224 H 316.585 -3.82251 -0.58489 0
M  V30 3225 H 318.274 -4.05221 -0.234618 0
M  V30 3226 H 319.04 -4.30379 2.23604 0
M  V30 3227 H 314.919 -4.49466 1.02477 0
M  V30 3228 H 318.463 -5.46289 4.33837 0
M  V30 3229 H 314.36 -5.65185 3.11826 0
M  V30 3230 H 315.128 -6.4552 5.03235 0
M  V30 3231 N 317.792 -0.46758 -1.50504 0
M  V30 3232 C 319.04 0.0884469 -2.01906 0
M  V30 3233 C 319.361 1.40532 -1.35188 0
M  V30 3234 O 318.631 1.89515 -0.496079 0
M  V30 3235 H 317.211 0.0356765 -0.746148 0
M  V30 3236 H 319.873 -0.6172 -1.84869 0
M  V30 3237 H 318.969 0.2425 -3.11156 0
M  V30 3238 N 319.27 1.56325 -0.20005 0
M  V30 3239 C 320.681 1.8408 0.31167 0
M  V30 3240 C 321.032 1.12087 1.61031 0
M  V30 3241 O 320.157 0.38332 2.12978 0
M  V30 3242 C 320.752 3.33932 0.57226 0
M  V30 3243 C 319.311 3.6208 1.02834 0
M  V30 3244 C 318.458 2.77186 0.079634 0
M  V30 3245 H 321.409 1.52939 -0.423729 0
M  V30 3246 H 321.43 3.52971 1.42096 0
M  V30 3247 H 320.942 3.86303 -0.37308 0
M  V30 3248 H 319.043 3.15147 1.98778 0
M  V30 3249 H 319.156 4.7023 0.917624 0
M  V30 3250 H 317.52 2.47951 0.582448 0
M  V30 3251 H 318.303 3.32347 -0.860238 0
M  V30 3252 N 320.748 -0.0735177 1.57428 0
M  V30 3253 C 322.159 -0.625551 1.75908 0
M  V30 3254 C 322.51 -1.78 0.825261 0
M  V30 3255 O 321.635 -2.16398 0.00893964 0
M  V30 3256 C 322.23 -1.14155 3.18989 0
M  V30 3257 C 320.789 -1.63946 3.38819 0
M  V30 3258 C 319.936 -0.558151 2.71625 0
M  V30 3259 H 322.887 0.152647 1.57964 0
M  V30 3260 H 322.908 -2.0104 3.23053 0
M  V30 3261 H 322.42 -0.301116 3.8693 0
M  V30 3262 H 320.521 -2.50321 2.7599 0
M  V30 3263 H 320.634 -1.71759 4.47253 0
M  V30 3264 H 318.998 -1.00278 2.34129 0
M  V30 3265 H 319.781 0.272071 3.4222 0
M  V30 3266 N 322.226 -1.5378 -0.344866 0
M  V30 3267 C 323.466 -1.72677 -1.09371 0
M  V30 3268 C 323.83 -0.479084 -1.85927 0
M  V30 3269 O 325.031 -0.54505 -2.63216 0
M  V30 3270 C 323.302 -2.95457 -2.01097 0
M  V30 3271 S 324.861 -3.35158 -2.83222 0
M  V30 3272 H 321.679 -0.607402 -0.369573 0
M  V30 3273 H 324.281 -1.91922 -0.372307 0
M  V30 3274 H 322.985 -3.84437 -1.43655 0
M  V30 3275 H 322.516 -2.78673 -2.77678 0
M  V30 3276 H 324.531 -2.88789 -4.03504 0
M  V30 3277 N 323.704 0.605807 -1.45491 0
M  V30 3278 C 325.115 1.18777 -1.44045 0
M  V30 3279 C 325.466 1.95471 -0.169001 0
M  V30 3280 O 324.591 2.0374 0.729324 0
M  V30 3281 C 325.186 2.16064 -2.60963 0
M  V30 3282 C 323.745 2.69633 -2.62631 0
M  V30 3283 C 322.892 1.45072 -2.36325 0
M  V30 3284 H 325.843 0.395017 -1.53705 0
M  V30 3285 H 325.864 2.9913 -2.35163 0
M  V30 3286 H 325.376 1.60217 -3.53486 0
M  V30 3287 H 323.477 3.29414 -1.74119 0
M  V30 3288 H 323.59 3.13944 -3.61906 0
M  V30 3289 H 321.954 1.74089 -1.85917 0
M  V30 3290 H 322.737 0.910899 -3.30995 0
M  V30 3291 N 325.182 1.32811 0.848464 0
M  V30 3292 C 326.593 1.21315 1.41914 0
M  V30 3293 C 326.944 -0.171847 1.95446 0
M  V30 3294 O 326.069 -1.07093 1.88043 0
M  V30 3295 C 326.664 2.19631 2.57968 0
M  V30 3296 C 325.223 2.12003 3.11017 0
M  V30 3297 C 324.37 2.07651 1.83783 0
M  V30 3298 H 327.321 1.44549 0.655071 0
M  V30 3299 H 327.342 1.79845 3.35315 0
M  V30 3300 H 326.854 3.20423 2.18976 0
M  V30 3301 H 324.955 1.14481 3.54577 0
M  V30 3302 H 325.068 3.02111 3.71841 0
M  V30 3303 H 323.432 1.52983 2.03638 0
M  V30 3304 H 324.215 3.10235 1.47 0
M  V30 3305 N 326.66 -1.06551 1.16123 0
M  V30 3306 C 327.9 -1.80889 0.951766 0
M  V30 3307 C 328.264 -1.85062 -0.511465 0
M  V30 3308 O 329.465 -2.55353 -0.83954 0
M  V30 3309 C 327.736 -3.21609 1.55893 0
M  V30 3310 S 329.295 -4.12593 1.49373 0
M  V30 3311 H 326.113 -0.623156 0.342341 0
M  V30 3312 H 328.715 -1.27943 1.47821 0
M  V30 3313 H 327.419 -3.16165 2.61664 0
M  V30 3314 H 326.95 -3.79631 1.0317 0
M  V30 3315 H 328.965 -4.93753 0.492196 0
M  V30 3316 N 328.138 -0.959301 -1.25041 0
M  V30 3317 C 329.549 -0.65667 -1.74771 0
M  V30 3318 C 329.9 0.827852 -1.77879 0
M  V30 3319 O 329.025 1.64783 -1.40269 0
M  V30 3320 C 329.62 -1.1853 -3.1739 0
M  V30 3321 C 328.179 -0.932734 -3.6466 0
M  V30 3322 C 327.326 -1.32558 -2.43564 0
M  V30 3323 H 330.277 -1.13558 -1.10862 0
M  V30 3324 H 330.298 -0.547582 -3.76539 0
M  V30 3325 H 329.81 -2.26576 -3.15095 0
M  V30 3326 H 327.911 0.13257 -3.72364 0
M  V30 3327 H 328.024 -1.57248 -4.52559 0
M  V30 3328 H 326.388 -0.743956 -2.43593 0
M  V30 3329 H 327.171 -2.41537 -2.43957 0
M  V30 3330 N 329.616 1.39756 -0.72842 0
M  V30 3331 C 330.579 2.29012 -0.0927297 0
M  V30 3332 C 331.579 1.45992 0.674025 0
M  V30 3333 O 332.769 1.66749 0.50402 0
M  V30 3334 C 329.901 3.29396 0.878137 0
M  V30 3335 H 331.094 2.86729 -0.879011 0
M  V30 3336 H 328.647 1.48293 -0.493847 0
M  V30 3337 H 329.382 2.76722 1.69101 0
M  V30 3338 H 329.167 3.907 0.331051 0
M  V30 3339 H 330.657 3.96199 1.3197 0
M  V30 3340 N 331.094 0.475555 1.50254 0
M  V30 3341 C 332.505 0.0215174 1.86688 0
M  V30 3342 C 332.856 -1.38467 1.39001 0
M  V30 3343 O 331.981 -2.02732 0.756894 0
M  V30 3344 C 332.576 0.0322715 3.38785 0
M  V30 3345 C 331.135 -0.366314 3.74613 0
M  V30 3346 C 330.282 0.415832 2.74164 0
M  V30 3347 H 333.233 0.689612 1.42934 0
M  V30 3348 H 333.254 -0.76889 3.7265 0
M  V30 3349 H 332.766 1.05584 3.73462 0
M  V30 3350 H 330.867 -1.39406 3.45538 0
M  V30 3351 H 330.98 -0.064555 4.79057 0
M  V30 3352 H 329.344 -0.131048 2.54363 0
M  V30 3353 H 330.127 1.43899 3.11686 0
M  V30 3354 N 332.573 -1.56217 0.208337 0
M  V30 3355 C 333.483 -2.23316 -0.718836 0
M  V30 3356 C 334.499 -1.23648 -1.22422 0
M  V30 3357 O 335.675 -1.56423 -1.26861 0
M  V30 3358 C 332.74 -2.88968 -1.91568 0
M  V30 3359 C 331.801 -4.03943 -1.45357 0
M  V30 3360 C 331.034 -4.66455 -2.59337 0
M  V30 3361 O 331.257 -4.27919 -3.77149 0
M  V30 3362 O 330.191 -5.55686 -2.31293 0
M  V30 3363 H 334.017 -3.03182 -0.177315 0
M  V30 3364 H 331.602 -1.49384 -0.0215402 0
M  V30 3365 H 333.484 -3.30455 -2.61491 0
M  V30 3366 H 332.159 -2.12071 -2.44556 0
M  V30 3367 H 331.066 -3.67052 -0.722746 0
M  V30 3368 H 332.399 -4.82543 -0.970219 0
M  V30 3369 N 334.051 0.0651679 -1.57465 0
M  V30 3370 C 335.298 0.763063 -1.87573 0
M  V30 3371 C 335.626 1.77242 -0.800961 0
M  V30 3372 O 334.881 1.94651 0.202316 0
M  V30 3373 C 335.18 1.50081 -3.24362 0
M  V30 3374 C 334.846 0.630816 -4.46466 0
M  V30 3375 C 333.508 0.391082 -4.79608 0
M  V30 3376 C 335.86 0.0279465 -5.21193 0
M  V30 3377 C 333.188 -0.460894 -5.84887 0
M  V30 3378 C 335.54 -0.811522 -6.27373 0
M  V30 3379 C 334.204 -1.06106 -6.59013 0
M  V30 3380 H 333.474 0.279224 -0.686378 0
M  V30 3381 H 336.121 0.0236726 -1.91485 0
M  V30 3382 H 334.426 2.31258 -3.16271 0
M  V30 3383 H 336.123 2.04571 -3.44894 0
M  V30 3384 H 332.713 0.8278 -4.2053 0
M  V30 3385 H 336.897 0.200262 -4.95896 0
M  V30 3386 H 332.153 -0.662907 -6.07796 0
M  V30 3387 H 336.327 -1.28537 -6.84435 0
M  V30 3388 H 333.954 -1.723 -7.40417 0
M  V30 3389 N 335.529 1.53961 0.336706 0
M  V30 3390 C 336.459 1.85417 1.41925 0
M  V30 3391 C 337.44 0.709856 1.5458 0
M  V30 3392 O 338.625 0.962396 1.68676 0
M  V30 3393 C 335.755 2.06985 2.78881 0
M  V30 3394 C 334.709 3.22813 2.81026 0
M  V30 3395 C 334.035 3.29727 4.20932 0
M  V30 3396 C 335.335 4.60767 2.45949 0
M  V30 3397 H 337.029 2.76079 1.15848 0
M  V30 3398 H 334.575 1.32839 0.555859 0
M  V30 3399 H 336.528 2.27575 3.54665 0
M  V30 3400 H 335.252 1.13061 3.06406 0
M  V30 3401 H 333.911 3.0209 2.07695 0
M  V30 3402 H 333.559 2.33385 4.45579 0
M  V30 3403 H 333.259 4.07566 4.23277 0
M  V30 3404 H 334.783 3.52536 4.98549 0
M  V30 3405 H 336.197 4.81325 3.11446 0
M  V30 3406 H 334.594 5.4106 2.59566 0
M  V30 3407 H 335.664 4.6391 1.41122 0
M  V30 3408 N 337.007 -0.598083 1.45811 0
M  V30 3409 C 338.255 -1.35413 1.50026 0
M  V30 3410 C 338.576 -1.94444 0.147177 0
M  V30 3411 O 337.846 -1.77701 -0.824571 0
M  V30 3412 H 336.426 -0.502727 0.552517 0
M  V30 3413 H 339.088 -0.701606 1.81834 0
M  V30 3414 H 338.184 -2.16871 2.2444 0
M  V30 3415 N 338.485 -1.33259 -0.841409 0
M  V30 3416 C 339.733 -1.24326 -1.59334 0
M  V30 3417 C 340.054 0.191564 -1.94057 0
M  V30 3418 O 339.324 1.11967 -1.60749 0
M  V30 3419 H 337.904 -0.457174 -0.590763 0
M  V30 3420 H 340.566 -1.66947 -1.00571 0
M  V30 3421 H 339.662 -1.8352 -2.52442 0
M  V30 3422 N 339.963 1.05934 -1.16686 0
M  V30 3423 C 341.374 1.60263 -0.957745 0
M  V30 3424 C 341.725 1.89789 0.49745 0
M  V30 3425 O 340.85 1.67401 1.37135 0
M  V30 3426 C 341.445 2.91172 -1.73218 0
M  V30 3427 C 340.004 3.42188 -1.56794 0
M  V30 3428 C 339.151 2.16028 -1.73859 0
M  V30 3429 H 342.102 0.888392 -1.31504 0
M  V30 3430 H 342.123 3.60744 -1.21014 0
M  V30 3431 H 341.635 2.6965 -2.79124 0
M  V30 3432 H 339.736 3.68762 -0.533437 0
M  V30 3433 H 339.849 4.17273 -2.35414 0
M  V30 3434 H 338.213 2.26426 -1.16633 0
M  V30 3435 H 338.996 1.96985 -2.81161 0
M  V30 3436 N 341.441 0.965919 1.2453 0
M  V30 3437 C 342.666 0.643971 1.97149 0
M  V30 3438 C 343.091 -0.779487 1.71189 0
M  V30 3439 O 342.449 -1.5288 0.974553 0
M  V30 3440 C 342.497 0.922557 3.48599 0
M  V30 3441 O 341.601 0.00707672 4.12399 0
M  V30 3442 H 340.942 0.243647 0.617683 0
M  V30 3443 H 343.472 1.29558 1.58353 0
M  V30 3444 H 343.482 0.853373 3.98976 0
M  V30 3445 H 342.157 1.95996 3.66822 0
M  V30 3446 H 340.734 0.12943 3.72675 0
M  V30 3447 N 342.919 -1.39368 0.735821 0
M  V30 3448 C 344.165 -2.00794 0.284544 0
M  V30 3449 C 344.498 -1.58255 -1.12557 0
M  V30 3450 O 343.773 -0.811819 -1.76748 0
M  V30 3451 C 344.056 -3.58011 0.387337 0
M  V30 3452 C 343.909 -4.10566 1.83728 0
M  V30 3453 C 345.228 -4.395 -0.22975 0
M  V30 3454 H 342.347 -0.729501 0.104866 0
M  V30 3455 H 344.989 -1.65564 0.93213 0
M  V30 3456 H 343.139 -3.88154 -0.164006 0
M  V30 3457 H 344.811 -3.91139 2.44556 0
M  V30 3458 H 343.054 -3.64095 2.35833 0
M  V30 3459 H 343.725 -5.19702 1.86047 0
M  V30 3460 H 346.201 -4.15406 0.240257 0
M  V30 3461 H 345.077 -5.48752 -0.127485 0
M  V30 3462 H 345.338 -4.22062 -1.3159 0
M  V30 3463 N 344.397 -0.483516 -1.5 0
M  V30 3464 C 345.644 0.0671597 -2.02389 0
M  V30 3465 C 345.972 1.38597 -1.36459 0
M  V30 3466 O 345.227 1.89634 -0.483458 0
M  V30 3467 C 345.526 0.286226 -3.56252 0
M  V30 3468 C 345.192 -0.952416 -4.40726 0
M  V30 3469 C 343.854 -1.29199 -4.63531 0
M  V30 3470 C 346.206 -1.77655 -4.89988 0
M  V30 3471 C 343.534 -2.45553 -5.32842 0
M  V30 3472 C 345.886 -2.93147 -5.60578 0
M  V30 3473 C 344.55 -3.27505 -5.81633 0
M  V30 3474 H 343.82 0.0245755 -0.740592 0
M  V30 3475 H 346.467 -0.640124 -1.80485 0
M  V30 3476 H 344.772 1.07587 -3.76739 0
M  V30 3477 H 346.469 0.726473 -3.94365 0
M  V30 3478 H 343.059 -0.677881 -4.23205 0
M  V30 3479 H 347.243 -1.52737 -4.72213 0
M  V30 3480 H 342.499 -2.72431 -5.47349 0
M  V30 3481 H 346.673 -3.57344 -5.97727 0
M  V30 3482 H 344.3 -4.1777 -6.35116 0
M  V30 3483 N 345.875 1.56104 -0.216619 0
M  V30 3484 C 346.805 2.23063 0.690296 0
M  V30 3485 C 347.786 1.20072 1.20485 0
M  V30 3486 O 348.971 1.48643 1.24976 0
M  V30 3487 C 346.101 2.90672 1.90072 0
M  V30 3488 C 345.055 4.00092 1.5202 0
M  V30 3489 C 344.381 4.54972 2.80899 0
M  V30 3490 C 345.681 5.17398 0.71391 0
M  V30 3491 H 347.375 2.99109 0.132038 0
M  V30 3492 H 344.921 1.43866 0.0620664 0
M  V30 3493 H 346.874 3.36204 2.54057 0
M  V30 3494 H 345.598 2.12066 2.48386 0
M  V30 3495 H 344.257 3.55283 0.903839 0
M  V30 3496 H 343.905 3.73102 3.37348 0
M  V30 3497 H 343.605 5.28817 2.56176 0
M  V30 3498 H 345.129 5.0322 3.45836 0
M  V30 3499 H 346.543 5.59342 1.25735 0
M  V30 3500 H 344.94 5.97444 0.563951 0
M  V30 3501 H 346.01 4.84088 -0.280527 0
M  V30 3502 N 347.353 -0.0568162 1.57498 0
M  V30 3503 C 348.6 -0.753104 1.87975 0
M  V30 3504 C 348.928 -1.76815 0.81035 0
M  V30 3505 O 348.183 -1.94756 -0.19199 0
M  V30 3506 C 348.482 -1.48359 3.25153 0
M  V30 3507 C 348.148 -0.60713 4.46794 0
M  V30 3508 C 346.81 -0.365642 4.79809 0
M  V30 3509 C 349.162 -0.000305978 5.212 0
M  V30 3510 C 346.49 0.491905 5.84634 0
M  V30 3511 C 348.842 0.844781 6.26934 0
M  V30 3512 C 347.506 1.096 6.58441 0
M  V30 3513 H 346.776 -0.27558 0.687849 0
M  V30 3514 H 349.423 -0.0135173 1.91495 0
M  V30 3515 H 347.728 -2.29577 3.17492 0
M  V30 3516 H 349.425 -2.02739 3.45974 0
M  V30 3517 H 346.015 -0.805487 4.20963 0
M  V30 3518 H 350.199 -0.173961 4.95995 0
M  V30 3519 H 345.455 0.695131 6.07436 0
M  V30 3520 H 349.629 1.32165 6.83744 0
M  V30 3521 H 347.256 1.76224 7.39492 0
M  V30 3522 N 348.832 -1.54138 -0.328536 0
M  V30 3523 C 350.243 -1.63395 -0.903272 0
M  V30 3524 C 350.594 -0.524828 -1.8905 0
M  V30 3525 O 349.719 0.343068 -2.13663 0
M  V30 3526 C 350.314 -2.9618 -1.64507 0
M  V30 3527 C 348.873 -3.0765 -2.1686 0
M  V30 3528 C 348.02 -2.58933 -0.992416 0
M  V30 3529 H 350.971 -1.58344 -0.106253 0
M  V30 3530 H 350.992 -2.86061 -2.50897 0
M  V30 3531 H 350.504 -3.76884 -0.926302 0
M  V30 3532 H 348.605 -2.31611 -2.91868 0
M  V30 3533 H 348.718 -4.1337 -2.42202 0
M  V30 3534 H 347.082 -2.14706 -1.37016 0
M  V30 3535 H 347.865 -3.42089 -0.288041 0
M  V30 3536 N 350.31 0.590341 -1.46126 0
M  V30 3537 C 351.721 1.17243 -1.45296 0
M  V30 3538 C 352.072 1.95281 -0.189723 0
M  V30 3539 O 351.197 2.04502 0.707674 0
M  V30 3540 C 351.792 2.13284 -2.6324 0
M  V30 3541 C 350.351 2.66832 -2.65476 0
M  V30 3542 C 349.498 1.42557 -2.3785 0
M  V30 3543 H 352.449 0.378692 -1.54116 0
M  V30 3544 H 352.47 2.96619 -2.38323 0
M  V30 3545 H 351.982 1.56459 -3.55165 0
M  V30 3546 H 350.083 3.27548 -1.77603 0
M  V30 3547 H 350.196 3.10088 -3.65215 0
M  V30 3548 H 348.56 1.72107 -1.87753 0
M  V30 3549 H 349.343 0.875741 -3.31942 0
M  V30 3550 N 351.788 1.33704 0.83433 0
M  V30 3551 C 352.735 1.24335 1.94447 0
M  V30 3552 C 353.705 0.120991 1.65659 0
M  V30 3553 O 354.89 0.300035 1.88426 0
M  V30 3554 C 352.03 0.993124 3.30501 0
M  V30 3555 C 351.143 2.20217 3.71657 0
M  V30 3556 C 350.278 1.88572 4.96602 0
M  V30 3557 C 349.317 3.05683 5.30306 0
M  V30 3558 N 348.454 2.73997 6.46429 0
M  V30 3559 H 353.294 2.1928 2.01792 0
M  V30 3560 H 350.831 1.09035 0.987404 0
M  V30 3561 H 352.789 0.828467 4.08892 0
M  V30 3562 H 351.419 0.0803902 3.227 0
M  V30 3563 H 350.471 2.47642 2.88752 0
M  V30 3564 H 351.783 3.07752 3.92543 0
M  V30 3565 H 350.937 1.68776 5.82752 0
M  V30 3566 H 349.676 0.982799 4.77695 0
M  V30 3567 H 348.681 3.26088 4.42659 0
M  V30 3568 H 349.906 3.96737 5.51159 0
M  V30 3569 H 347.852 1.86268 6.28999 0
M  V30 3570 H 347.769 3.55064 6.67432 0
M  V30 3571 H 349.037 2.57679 7.35678 0
M  V30 3572 N 353.266 -1.05314 1.17247 0
M  V30 3573 C 354.677 -1.59753 0.96623 0
M  V30 3574 C 355.028 -1.9005 -0.487378 0
M  V30 3575 O 354.153 -1.68126 -1.36245 0
M  V30 3576 C 354.748 -2.90249 1.74759 0
M  V30 3577 C 353.307 -3.41352 1.58606 0
M  V30 3578 C 352.454 -2.15103 1.75002 0
M  V30 3579 H 355.405 -0.881406 1.31973 0
M  V30 3580 H 355.426 -3.60097 1.22925 0
M  V30 3581 H 354.938 -2.68166 2.8055 0
M  V30 3582 H 353.039 -3.68474 0.552985 0
M  V30 3583 H 353.152 -4.16019 2.37624 0
M  V30 3584 H 351.516 -2.25804 1.17833 0
M  V30 3585 H 352.299 -1.95491 2.82202 0
M  V30 3586 N 354.744 -0.972509 -1.24016 0
M  V30 3587 C 355.691 -0.505969 -2.25186 0
M  V30 3588 C 356.661 0.451009 -1.5986 0
M  V30 3589 O 357.846 0.360307 -1.87367 0
M  V30 3590 C 354.986 0.193089 -3.44559 0
M  V30 3591 C 354.099 -0.803222 -4.24467 0
M  V30 3592 C 353.234 -0.0797793 -5.3114 0
M  V30 3593 C 352.273 -1.06583 -6.02749 0
M  V30 3594 N 351.41 -0.372074 -7.01113 0
M  V30 3595 H 356.25 -1.37351 -2.64459 0
M  V30 3596 H 353.787 -0.688419 -1.29997 0
M  V30 3597 H 355.745 0.615125 -4.1264 0
M  V30 3598 H 354.375 1.02455 -3.06109 0
M  V30 3599 H 353.427 -1.34368 -3.55878 0
M  V30 3600 H 354.739 -1.55494 -4.73944 0
M  V30 3601 H 353.893 0.400015 -6.0538 0
M  V30 3602 H 352.632 0.704597 -4.82583 0
M  V30 3603 H 351.637 -1.55645 -5.27309 0
M  V30 3604 H 352.862 -1.85074 -6.53395 0
M  V30 3605 H 350.808 0.393238 -6.5482 0
M  V30 3606 H 350.725 -1.06258 -7.48495 0
M  V30 3607 H 351.993 0.0855932 -7.79453 0
M  V30 3608 N 356.222 1.38976 -0.743202 0
M  V30 3609 C 357.499 1.94351 -0.220705 0
M  V30 3610 C 357.879 1.67935 1.2791 0
M  V30 3611 O 357.227 1.01211 2.04862 0
M  V30 3612 C 357.437 3.44426 -0.563171 0
M  V30 3613 C 358.785 4.2144 -0.517046 0
M  V30 3614 O 359.809 3.52661 -0.500846 0
M  V30 3615 O 358.668 5.44032 -0.518806 0
M  V30 3616 H 355.762 0.825879 -0.043047 0
M  V30 3617 H 358.308 1.48429 -0.822618 0
M  V30 3618 H 357.08 3.5712 -1.59941 0
M  V30 3619 H 356.703 3.97543 0.0672883 0
M  V30 3620 N 357.7 0.491464 1.49741 0
M  V30 3621 C 358.928 -0.0535151 2.06831 0
M  V30 3622 C 359.343 -1.31683 1.35296 0
M  V30 3623 O 358.7 -1.77402 0.42836 0
M  V30 3624 C 358.751 -0.320835 3.60073 0
M  V30 3625 O 358.472 0.892394 4.28915 0
M  V30 3626 C 359.973 -0.910519 4.33848 0
M  V30 3627 H 357.193 0.0161909 0.670805 0
M  V30 3628 H 359.737 0.68609 1.92647 0
M  V30 3629 H 357.892 -1.0104 3.73991 0
M  V30 3630 H 358.306 0.649401 5.20464 0
M  V30 3631 H 359.78 -1.04721 5.41976 0
M  V30 3632 H 360.257 -1.90589 3.95692 0
M  V30 3633 H 360.863 -0.258712 4.24512 0
M  V30 3634 N 359.178 -1.55987 0.224894 0
M  V30 3635 C 360.108 -2.23426 -0.678457 0
M  V30 3636 C 361.089 -1.20709 -1.19847 0
M  V30 3637 O 362.274 -1.49304 -1.24186 0
M  V30 3638 C 359.404 -2.91676 -1.88527 0
M  V30 3639 C 358.358 -4.00893 -1.49896 0
M  V30 3640 C 357.684 -4.56455 -2.78483 0
M  V30 3641 C 358.984 -5.17769 -0.686461 0
M  V30 3642 H 360.678 -2.99175 -0.116173 0
M  V30 3643 H 358.224 -1.43897 -0.054436 0
M  V30 3644 H 360.177 -3.37547 -2.5227 0
M  V30 3645 H 358.901 -2.1338 -2.47258 0
M  V30 3646 H 357.56 -3.55758 -0.884985 0
M  V30 3647 H 357.208 -3.74886 -3.35365 0
M  V30 3648 H 356.908 -5.30169 -2.53368 0
M  V30 3649 H 358.432 -5.05047 -3.43162 0
M  V30 3650 H 359.846 -5.60001 -1.22767 0
M  V30 3651 H 358.243 -5.97735 -0.532259 0
M  V30 3652 H 359.313 -4.83932 0.306196 0
M  V30 3653 N 360.656 0.0484629 -1.57525 0
M  V30 3654 C 361.589 1.08755 -2.00618 0
M  V30 3655 C 362.567 1.36272 -0.887058 0
M  V30 3656 O 363.751 1.49255 -1.15131 0
M  V30 3657 C 360.878 2.42675 -2.36277 0
M  V30 3658 C 359.924 2.31142 -3.58435 0
M  V30 3659 S 360.757 1.68326 -5.08357 0
M  V30 3660 C 361.913 3.03776 -5.47239 0
M  V30 3661 H 362.146 0.720415 -2.88439 0
M  V30 3662 H 359.679 0.257801 -1.52233 0
M  V30 3663 H 361.637 3.19699 -2.57494 0
M  V30 3664 H 360.298 2.76541 -1.48942 0
M  V30 3665 H 359.491 3.29957 -3.80978 0
M  V30 3666 H 359.093 1.62258 -3.36969 0
M  V30 3667 H 361.385 4.00106 -5.46737 0
M  V30 3668 H 362.328 2.85988 -6.47778 0
M  V30 3669 H 362.736 3.05456 -4.74718 0
M  V30 3670 N 362.134 1.5431 0.320358 0
M  V30 3671 C 363.383 1.7188 1.05546 0
M  V30 3672 C 363.696 0.501143 1.89071 0
M  V30 3673 O 364.902 0.558258 2.65699 0
M  V30 3674 C 363.358 3.04025 1.92605 0
M  V30 3675 C 362.966 4.33207 1.14176 0
M  V30 3676 C 364.71 3.30959 2.65832 0
M  V30 3677 C 362.617 5.56412 2.00399 0
M  V30 3678 H 361.547 0.640547 0.397763 0
M  V30 3679 H 364.198 1.80802 0.313522 0
M  V30 3680 H 362.58 2.89019 2.7071 0
M  V30 3681 H 363.754 4.58989 0.40819 0
M  V30 3682 H 362.069 4.13062 0.526165 0
M  V30 3683 H 364.666 4.20203 3.30656 0
M  V30 3684 H 365.009 2.48979 3.33639 0
M  V30 3685 H 365.542 3.46847 1.94787 0
M  V30 3686 H 362.281 6.41004 1.37094 0
M  V30 3687 H 361.801 5.34844 2.7148 0
M  V30 3688 H 363.48 5.92938 2.58908 0
M  V30 3689 N 363.613 -0.582584 1.46437 0
M  V30 3690 C 364.838 -1.37168 1.55563 0
M  V30 3691 C 365.263 -1.87061 0.19743 0
M  V30 3692 O 364.621 -1.61572 -0.822451 0
M  V30 3693 C 364.669 -2.53511 2.56446 0
M  V30 3694 O 363.773 -3.54953 2.09958 0
M  V30 3695 H 363.114 -0.408494 0.523477 0
M  V30 3696 H 365.644 -0.706646 1.9201 0
M  V30 3697 H 365.654 -3.00426 2.76058 0
M  V30 3698 H 364.329 -2.16549 3.55076 0
M  V30 3699 H 362.906 -3.14516 2.00334 0
M  V30 3700 N 365.091 -1.34144 -0.827227 0
M  V30 3701 C 366.507 -1.13732 -1.11969 0
M  V30 3702 C 366.707 0.0640463 -2.01398 0
M  V30 3703 O 365.763 0.740856 -2.41387 0
M  V30 3704 C 367.076 -2.43047 -1.77055 0
M  V30 3705 C 368.624 -2.49063 -1.89569 0
M  V30 3706 C 369.099 -3.78369 -2.58072 0
M  V30 3707 N 370.59 -3.79505 -2.65575 0
M  V30 3708 C 371.325 -4.76274 -3.19297 0
M  V30 3709 N 370.821 -5.83424 -3.73616 0
M  V30 3710 N 372.614 -4.63735 -3.17658 0
M  V30 3711 H 364.765 -2.11126 -0.232296 0
M  V30 3712 H 367.028 -0.933424 -0.165602 0
M  V30 3713 H 366.734 -3.31025 -1.18807 0
M  V30 3714 H 366.608 -2.56066 -2.76966 0
M  V30 3715 H 368.995 -1.61527 -2.46968 0
M  V30 3716 H 369.076 -2.39975 -0.885745 0
M  V30 3717 H 368.72 -4.66293 -2.01329 0
M  V30 3718 H 368.65 -3.84737 -3.59562 0
M  V30 3719 H 371.141 -3.02074 -2.27068 0
M  V30 3720 H 371.454 -6.53282 -4.12846 0
M  V30 3721 H 369.799 -5.87143 -3.71871 0
M  V30 3722 H 372.99 -3.79177 -2.74486 0
M  V30 3723 H 373.163 -5.39318 -3.59221 0
M  V30 3724 N 366.569 1.04691 -1.17803 0
M  V30 3725 C 367.797 1.81446 -0.99423 0
M  V30 3726 C 368.212 1.83174 0.457459 0
M  V30 3727 O 367.569 1.26265 1.31771 0
M  V30 3728 C 367.62 3.27334 -1.5341 0
M  V30 3729 O 367.341 3.25798 -2.92895 0
M  V30 3730 C 368.842 4.20759 -1.39559 0
M  V30 3731 H 366.062 0.571599 -0.351447 0
M  V30 3732 H 368.606 1.31982 -1.56208 0
M  V30 3733 H 366.761 3.74052 -1.00815 0
M  V30 3734 H 367.175 4.17144 -3.17949 0
M  V30 3735 H 368.649 5.21084 -1.82141 0
M  V30 3736 H 369.126 4.37856 -0.343394 0
M  V30 3737 H 369.732 3.79901 -1.91195 0
M  V30 3738 N 368.047 0.979072 1.23499 0
M  V30 3739 C 369.458 0.684391 1.73704 0
M  V30 3740 C 369.809 -0.799448 1.79174 0
M  V30 3741 O 368.934 -1.62531 1.42873 0
M  V30 3742 C 369.529 1.23564 3.15464 0
M  V30 3743 C 368.088 0.99063 3.6313 0
M  V30 3744 C 367.235 1.36416 2.41425 0
M  V30 3745 H 370.186 1.15307 1.09041 0
M  V30 3746 H 370.207 0.607417 3.7562 0
M  V30 3747 H 369.719 2.31561 3.1145 0
M  V30 3748 H 367.82 -0.0733136 3.72528 0
M  V30 3749 H 367.933 1.64427 4.5 0
M  V30 3750 H 366.297 0.782616 2.42378 0
M  V30 3751 H 367.08 2.45387 2.40083 0
M  V30 3752 N 369.525 -1.3858 0.750561 0
M  V30 3753 C 370.435 -2.34278 0.122825 0
M  V30 3754 C 371.451 -1.59116 -0.704131 0
M  V30 3755 O 372.627 -1.91326 -0.628987 0
M  V30 3756 C 369.692 -3.38221 -0.762086 0
M  V30 3757 C 368.753 -4.29227 0.078896 0
M  V30 3758 C 367.986 -5.28205 -0.763874 0
M  V30 3759 O 368.209 -5.34112 -2.00201 0
M  V30 3760 O 367.143 -6.01618 -0.18428 0
M  V30 3761 H 370.969 -2.89649 0.913088 0
M  V30 3762 H 368.554 -1.40374 0.511417 0
M  V30 3763 H 370.436 -4.01872 -1.26793 0
M  V30 3764 H 369.111 -2.85211 -1.5309 0
M  V30 3765 H 368.018 -3.68747 0.630621 0
M  V30 3766 H 369.351 -4.85484 0.810289 0
M  V30 3767 N 371.003 -0.499398 -1.49478 0
M  V30 3768 C 372.249 0.0457576 -2.02748 0
M  V30 3769 C 372.582 1.36793 -1.37846 0
M  V30 3770 O 371.857 1.87596 -0.513601 0
M  V30 3771 C 372.14 0.199986 -3.59544 0
M  V30 3772 C 371.993 -1.1452 -4.34977 0
M  V30 3773 C 373.312 0.94137 -4.29914 0
M  V30 3774 H 370.431 0.0151552 -0.736844 0
M  V30 3775 H 373.073 -0.650498 -1.78518 0
M  V30 3776 H 371.223 0.793007 -3.8032 0
M  V30 3777 H 372.895 -1.77697 -4.25701 0
M  V30 3778 H 371.138 -1.73488 -3.97598 0
M  V30 3779 H 371.809 -0.990607 -5.43039 0
M  V30 3780 H 374.285 0.43844 -4.13784 0
M  V30 3781 H 373.161 1.01812 -5.39375 0
M  V30 3782 H 373.422 1.98471 -3.95046 0
M  V30 3783 N 372.481 1.55866 -0.233164 0
M  V30 3784 C 373.709 2.02998 0.399905 0
M  V30 3785 C 374.124 1.11274 1.52524 0
M  V30 3786 O 373.481 0.124528 1.82075 0
M  V30 3787 C 373.532 3.4958 0.920639 0
M  V30 3788 O 373.253 4.37808 -0.159834 0
M  V30 3789 C 374.754 4.12411 1.62578 0
M  V30 3790 H 371.974 0.664006 0.0966281 0
M  V30 3791 H 374.518 2.0143 -0.353013 0
M  V30 3792 H 372.673 3.51727 1.62379 0
M  V30 3793 H 373.087 5.23981 0.23337 0
M  V30 3794 H 374.561 5.16711 1.94201 0
M  V30 3795 H 375.038 3.5809 2.54299 0
M  V30 3796 H 375.644 4.14148 0.967553 0
M  V30 3797 N 373.959 -0.0401083 1.57549 0
M  V30 3798 C 375.199 -0.738098 1.90608 0
M  V30 3799 C 375.563 -1.73107 0.830539 0
M  V30 3800 O 376.764 -2.4765 1.04513 0
M  V30 3801 C 375.035 -1.39985 3.28845 0
M  V30 3802 S 376.594 -2.12852 3.83718 0
M  V30 3803 H 373.412 -0.24477 0.667539 0
M  V30 3804 H 376.014 0.00693599 1.95499 0
M  V30 3805 H 374.718 -0.663775 4.04997 0
M  V30 3806 H 374.249 -2.18366 3.2723 0
M  V30 3807 H 376.264 -3.39842 3.61555 0
M  V30 3808 N 375.437 -1.54477 -0.31217 0
M  V30 3809 C 376.683 -1.73483 -1.0503 0
M  V30 3810 C 377.016 -0.513125 -1.87298 0
M  V30 3811 O 376.291 0.489864 -1.8823 0
M  V30 3812 C 376.574 -3.01723 -1.96558 0
M  V30 3813 C 376.427 -4.3417 -1.17545 0
M  V30 3814 C 377.746 -3.25772 -2.95907 0
M  V30 3815 H 374.865 -0.631222 -0.380432 0
M  V30 3816 H 377.507 -1.87184 -0.325932 0
M  V30 3817 H 375.657 -2.90174 -2.58324 0
M  V30 3818 H 377.329 -4.5762 -0.581513 0
M  V30 3819 H 375.572 -4.31159 -0.477925 0
M  V30 3820 H 376.243 -5.20143 -1.84811 0
M  V30 3821 H 378.719 -3.36857 -2.44267 0
M  V30 3822 H 377.595 -4.16838 -3.57123 0
M  V30 3823 H 377.856 -2.43537 -3.68974 0
M  V30 3824 N 376.915 0.57481 -1.46744 0
M  V30 3825 C 378.161 1.3347 -1.52688 0
M  V30 3826 C 378.494 1.93353 -0.181229 0
M  V30 3827 O 377.769 1.76912 0.808237 0
M  V30 3828 C 378.052 2.45811 -2.63152 0
M  V30 3829 C 377.905 1.90912 -4.07275 0
M  V30 3830 C 379.224 3.47822 -2.69644 0
M  V30 3831 H 376.343 0.483935 -0.555856 0
M  V30 3832 H 378.985 0.644968 -1.78718 0
M  V30 3833 H 377.135 3.04646 -2.41088 0
M  V30 3834 H 378.807 1.36473 -4.4065 0
M  V30 3835 H 377.05 1.21691 -4.16382 0
M  V30 3836 H 377.721 2.72042 -4.80309 0
M  V30 3837 H 380.197 2.9888 -2.895 0
M  V30 3838 H 379.073 4.23876 -3.48742 0
M  V30 3839 H 379.334 4.05555 -1.76005 0
M  V30 3840 N 378.394 1.34581 0.820102 0
M  V30 3841 C 379.64 1.27285 1.57881 0
M  V30 3842 C 379.973 -0.156137 1.93571 0
M  V30 3843 O 379.248 -1.10222 1.60254 0
M  V30 3844 C 379.531 2.16639 2.87645 0
M  V30 3845 C 379.384 3.68088 2.58517 0
M  V30 3846 C 380.703 2.05378 3.8924 0
M  V30 3847 H 377.822 0.463714 0.572833 0
M  V30 3848 H 380.464 1.64859 0.944539 0
M  V30 3849 H 378.614 1.84725 3.41773 0
M  V30 3850 H 380.286 4.10382 2.10676 0
M  V30 3851 H 378.529 3.89038 1.91917 0
M  V30 3852 H 379.2 4.2598 3.51063 0
M  V30 3853 H 381.676 2.33404 3.44473 0
M  V30 3854 H 380.552 2.7012 4.77835 0
M  V30 3855 H 380.813 1.0316 4.29896 0
M  V30 3856 N 379.872 -1.04064 1.18357 0
M  V30 3857 C 381.149 -1.74252 0.888581 0
M  V30 3858 C 381.529 -2.02138 -0.60856 0
M  V30 3859 O 380.877 -1.66656 -1.56327 0
M  V30 3860 C 381.087 -3.0277 1.73584 0
M  V30 3861 C 382.435 -3.76506 1.96286 0
M  V30 3862 O 383.459 -3.12668 1.70637 0
M  V30 3863 O 382.318 -4.91243 2.39464 0
M  V30 3864 H 379.412 -0.758271 0.330082 0
M  V30 3865 H 381.958 -1.1013 1.2911 0
M  V30 3866 H 380.73 -2.78299 2.75073 0
M  V30 3867 H 380.353 -3.74631 1.33183 0
M  V30 3868 N 381.35 -0.985608 -1.22978 0
M  V30 3869 C 382.596 -0.65836 -1.91816 0
M  V30 3870 C 382.929 0.806692 -1.76653 0
M  V30 3871 O 382.204 1.58252 -1.13078 0
M  V30 3872 C 382.487 -1.056 -3.44268 0
M  V30 3873 C 382.34 -2.57906 -3.68516 0
M  V30 3874 C 383.659 -0.603781 -4.35939 0
M  V30 3875 H 380.778 -0.24065 -0.696604 0
M  V30 3876 H 383.42 -1.22783 -1.44998 0
M  V30 3877 H 381.57 -0.571445 -3.84274 0
M  V30 3878 H 383.242 -3.13976 -3.3796 0
M  V30 3879 H 381.485 -3.00305 -3.13048 0
M  V30 3880 H 382.156 -2.80779 -4.75255 0
M  V30 3881 H 384.632 -1.01987 -4.03408 0
M  V30 3882 H 383.508 -0.910383 -5.41298 0
M  V30 3883 H 383.769 0.495761 -4.39312 0
M  V30 3884 N 382.828 1.3818 -0.7579 0
M  V30 3885 C 384.053 2.04827 -0.325679 0
M  V30 3886 C 384.478 1.56788 1.03919 0
M  V30 3887 O 383.836 0.721811 1.66312 0
M  V30 3888 C 383.884 3.58774 -0.362447 0
M  V30 3889 O 382.988 4.07372 0.642033 0
M  V30 3890 H 382.329 0.64833 -0.143402 0
M  V30 3891 H 384.859 1.7677 -1.03023 0
M  V30 3892 H 384.869 4.07434 -0.214844 0
M  V30 3893 H 383.544 3.93096 -1.35824 0
M  V30 3894 H 382.121 3.70068 0.458688 0
M  V30 3895 N 384.306 0.507319 1.49211 0
M  V30 3896 C 385.238 -0.304532 2.27168 0
M  V30 3897 C 386.251 -0.924956 1.33972 0
M  V30 3898 O 387.44 -0.807227 1.59205 0
M  V30 3899 C 384.54 -1.44431 3.06583 0
M  V30 3900 C 383.713 -0.930026 4.27398 0
M  V30 3901 C 382.772 -1.94817 4.88807 0
M  V30 3902 O 381.798 -1.51418 5.4869 0
M  V30 3903 N 383 -3.279 4.79022 0
M  V30 3904 H 385.765 0.36395 2.97482 0
M  V30 3905 H 383.326 0.340249 1.58284 0
M  V30 3906 H 385.318 -2.12311 3.44537 0
M  V30 3907 H 383.888 -2.01684 2.38835 0
M  V30 3908 H 383.108 -0.0759244 3.94127 0
M  V30 3909 H 384.396 -0.564932 5.05654 0
M  V30 3910 H 383.794 -3.65843 4.3148 0
M  V30 3911 H 382.351 -3.91476 5.21142 0
M  V30 3912 N 385.784 -1.5574 0.241426 0
M  V30 3913 C 386.694 -2.2479 -0.671305 0
M  V30 3914 C 387.71 -1.26217 -1.19772 0
M  V30 3915 O 388.886 -1.59079 -1.23514 0
M  V30 3916 C 385.951 -2.92966 -1.85396 0
M  V30 3917 C 385.012 -4.06935 -1.36756 0
M  V30 3918 C 384.245 -4.71851 -2.49384 0
M  V30 3919 O 384.468 -4.35823 -3.67987 0
M  V30 3920 O 383.402 -5.60467 -2.19454 0
M  V30 3921 H 387.228 -3.0349 -0.112966 0
M  V30 3922 H 384.813 -1.49397 0.0101513 0
M  V30 3923 H 386.695 -3.35927 -2.54423 0
M  V30 3924 H 385.37 -2.17211 -2.40002 0
M  V30 3925 H 384.277 -3.68503 -0.644726 0
M  V30 3926 H 385.61 -4.84492 -0.867647 0
M  V30 3927 N 387.262 0.0317525 -1.57568 0
M  V30 3928 C 388.539 0.758366 -1.803 0
M  V30 3929 C 388.919 1.93718 -0.838845 0
M  V30 3930 O 388.267 2.28187 0.119571 0
M  V30 3931 C 388.477 1.19392 -3.27943 0
M  V30 3932 C 389.825 1.61094 -3.92854 0
M  V30 3933 O 390.849 1.28857 -3.32076 0
M  V30 3934 O 389.708 2.20918 -4.99858 0
M  V30 3935 H 386.802 0.366514 -0.741348 0
M  V30 3936 H 389.348 0.00873765 -1.69698 0
M  V30 3937 H 388.12 0.352275 -3.89711 0
M  V30 3938 H 387.743 2.00365 -3.43424 0
M  V30 3939 N 388.74 1.54641 0.303973 0
M  V30 3940 C 390.151 1.64811 0.877163 0
M  V30 3941 C 390.502 0.554838 1.88191 0
M  V30 3942 O 389.627 -0.309033 2.14182 0
M  V30 3943 C 390.222 2.9876 1.59775 0
M  V30 3944 C 388.781 3.11061 2.11938 0
M  V30 3945 C 387.928 2.60479 0.951097 0
M  V30 3946 H 390.879 1.58493 0.0810486 0
M  V30 3947 H 390.9 2.90017 2.46314 0
M  V30 3948 H 390.412 3.7831 0.866226 0
M  V30 3949 H 388.513 2.36225 2.88146 0
M  V30 3950 H 388.626 4.17171 2.35595 0
M  V30 3951 H 386.99 2.16859 1.33583 0
M  V30 3952 H 387.773 3.42504 0.233581 0
M  V30 3953 N 390.218 -0.567019 1.47046 0
M  V30 3954 C 391.128 -1.70247 1.6141 0
M  V30 3955 C 392.144 -1.66746 0.497157 0
M  V30 3956 O 393.32 -1.86371 0.763389 0
M  V30 3957 C 390.385 -3.06756 1.61561 0
M  V30 3958 C 389.446 -3.21399 2.84607 0
M  V30 3959 C 388.679 -4.51396 2.84741 0
M  V30 3960 O 388.902 -5.36255 1.94388 0
M  V30 3961 O 387.836 -4.69621 3.76483 0
M  V30 3962 H 391.662 -1.61073 2.57467 0
M  V30 3963 H 389.247 -0.735894 1.30019 0
M  V30 3964 H 391.129 -3.8801 1.64396 0
M  V30 3965 H 389.804 -3.16333 0.686684 0
M  V30 3966 H 388.711 -2.39579 2.8732 0
M  V30 3967 H 390.044 -3.16721 3.76761 0
M  V30 3968 N 391.696 -1.35014 -0.812953 0
M  V30 3969 C 392.942 -1.2812 -1.57204 0
M  V30 3970 C 393.275 0.145869 -1.93651 0
M  V30 3971 O 392.55 1.0937 -1.60836 0
M  V30 3972 C 392.833 -2.18162 -2.86492 0
M  V30 3973 C 392.686 -3.69454 -2.56561 0
M  V30 3974 C 394.005 -2.07439 -3.88145 0
M  V30 3975 H 391.124 -0.466746 -0.570366 0
M  V30 3976 H 393.766 -1.65357 -0.935783 0
M  V30 3977 H 391.916 -1.86535 -3.40789 0
M  V30 3978 H 393.588 -4.11493 -2.08497 0
M  V30 3979 H 391.831 -3.9005 -1.89851 0
M  V30 3980 H 392.502 -4.27835 -3.48799 0
M  V30 3981 H 394.978 -2.35228 -3.4323 0
M  V30 3982 H 393.854 -2.7265 -4.76396 0
M  V30 3983 H 394.115 -1.05439 -4.29343 0
M  V30 3984 N 393.175 1.03435 -1.18907 0
M  V30 3985 C 394.107 2.1165 -0.879595 0
M  V30 3986 C 395.12 1.62316 0.125439 0
M  V30 3987 O 396.309 1.78201 -0.103245 0
M  V30 3988 C 393.409 3.37622 -0.294042 0
M  V30 3989 C 392.582 4.16166 -1.34629 0
M  V30 3990 C 391.641 5.20457 -0.775274 0
M  V30 3991 O 390.667 5.50379 -1.4516 0
M  V30 3992 N 391.869 5.78949 0.424126 0
M  V30 3993 H 394.634 2.38791 -1.81105 0
M  V30 3994 H 392.195 1.19681 -1.09032 0
M  V30 3995 H 394.187 4.04572 0.101679 0
M  V30 3996 H 392.757 3.07873 0.541575 0
M  V30 3997 H 391.977 3.44444 -1.91707 0
M  V30 3998 H 393.265 4.65432 -2.05549 0
M  V30 3999 H 392.663 5.56948 0.991209 0
M  V30 4000 H 391.22 6.47334 0.761691 0
M  V30 4001 N 394.653 0.992116 1.22453 0
M  V30 4002 C 395.9 0.667534 1.91181 0
M  V30 4003 C 396.228 -0.800317 1.77271 0
M  V30 4004 O 395.483 -1.59421 1.13505 0
M  V30 4005 C 395.782 1.01832 3.42586 0
M  V30 4006 C 395.448 2.47831 3.76684 0
M  V30 4007 C 394.11 2.87729 3.85701 0
M  V30 4008 C 396.462 3.42466 3.92895 0
M  V30 4009 C 393.79 4.21252 4.08367 0
M  V30 4010 C 396.142 4.75648 4.17064 0
M  V30 4011 C 394.806 5.15288 4.24305 0
M  V30 4012 H 394.076 0.244268 0.699581 0
M  V30 4013 H 396.723 1.24816 1.45235 0
M  V30 4014 H 395.028 0.355769 3.90181 0
M  V30 4015 H 396.725 0.745228 3.94014 0
M  V30 4016 H 393.315 2.15905 3.70247 0
M  V30 4017 H 397.499 3.12814 3.85307 0
M  V30 4018 H 392.755 4.51554 4.122 0
M  V30 4019 H 396.929 5.48924 4.2855 0
M  V30 4020 H 394.556 6.18769 4.41621 0
M  V30 4021 N 396.131 -1.37776 0.765217 0
M  V30 4022 C 397.079 -2.32209 0.134798 0
M  V30 4023 C 398.073 -1.54607 -0.692315 0
M  V30 4024 O 399.279 -1.70052 -0.590109 0
M  V30 4025 H 395.654 -0.751591 0.0248005 0
M  V30 4026 H 397.625 -2.8297 0.947119 0
M  V30 4027 C 396.374 -3.39841 -0.735063 0
M  V30 4028 H 395.697 -3.99654 -0.107991 0
M  V30 4029 H 397.137 -4.08296 -1.14326 0
M  V30 4030 C 395.596 -2.79378 -1.88281 0
M  V30 4031 O 396.126 -2.69608 -2.97783 0
M  V30 4032 N 394.332 -2.37016 -1.68142 0
M  V30 4033 H 393.879 -2.45162 -0.790772 0
M  V30 4034 H 393.837 -1.96905 -2.45104 0
M  V30 4035 N 397.609 -0.515225 -1.4894 0
M  V30 4036 C 398.855 0.016187 -2.03394 0
M  V30 4037 C 399.21 1.33377 -1.38666 0
M  V30 4038 O 398.503 1.84461 -0.518141 0
M  V30 4039 C 398.697 0.210595 -3.56779 0
M  V30 4040 C 398.526 -1.08659 -4.36375 0
M  V30 4041 C 397.296 -1.64237 -4.77864 0
M  V30 4042 C 399.494 -1.9935 -4.74093 0
M  V30 4043 N 397.476 -2.88398 -5.41941 0
M  V30 4044 C 398.847 -3.08088 -5.38035 0
M  V30 4045 C 400.902 -1.99856 -4.56029 0
M  V30 4046 C 399.605 -4.17377 -5.85823 0
M  V30 4047 C 401.631 -3.08129 -5.04787 0
M  V30 4048 C 400.993 -4.15586 -5.68742 0
M  V30 4049 H 397.092 -0.0352107 -0.781207 0
M  V30 4050 H 399.676 -0.693237 -1.8194 0
M  V30 4051 H 397.847 0.889088 -3.78087 0
M  V30 4052 H 399.579 0.740287 -3.97872 0
M  V30 4053 H 396.334 -1.18566 -4.58518 0
M  V30 4054 H 396.758 -3.51572 -5.78555 0
M  V30 4055 H 401.4 -1.18079 -4.05977 0
M  V30 4056 H 399.118 -4.99943 -6.34888 0
M  V30 4057 H 402.704 -3.09557 -4.92611 0
M  V30 4058 H 401.584 -4.97987 -6.05787 0
M  V30 4059 N 399.087 1.5561 -0.249682 0
M  V30 4060 C 400.317 2.03116 0.377803 0
M  V30 4061 C 400.725 1.12822 1.51881 0
M  V30 4062 O 400.068 0.13562 1.83199 0
M  V30 4063 C 400.13 3.46866 0.944693 0
M  V30 4064 C 399.794 4.56955 -0.0644259 0
M  V30 4065 C 400.791 5.12485 -0.874957 0
M  V30 4066 C 398.476 5.01936 -0.19132 0
M  V30 4067 C 400.47 6.11491 -1.79881 0
M  V30 4068 C 398.157 6.00773 -1.11868 0
M  V30 4069 C 399.155 6.5543 -1.92095 0
M  V30 4070 O 398.843 7.5234 -2.83267 0
M  V30 4071 H 398.575 0.669489 0.0935961 0
M  V30 4072 H 401.129 2.02004 -0.371966 0
M  V30 4073 H 399.359 3.45136 1.74407 0
M  V30 4074 H 401.048 3.77856 1.48255 0
M  V30 4075 H 401.814 4.78564 -0.787523 0
M  V30 4076 H 397.693 4.59055 0.423072 0
M  V30 4077 H 401.237 6.54078 -2.42543 0
M  V30 4078 H 397.134 6.34114 -1.20703 0
M  V30 4079 H 397.902 7.69966 -2.7766 0
M  V30 4080 N 400.565 -0.0233959 1.57583 0
M  V30 4081 C 401.811 -0.714119 1.89811 0
M  V30 4082 C 402.144 -1.74702 0.848113 0
M  V30 4083 O 401.419 -1.94023 -0.136135 0
M  V30 4084 C 401.702 -1.37853 3.32669 0
M  V30 4085 C 401.555 -0.358764 4.48367 0
M  V30 4086 C 402.874 -2.31101 3.7454 0
M  V30 4087 H 399.993 -0.25814 0.690314 0
M  V30 4088 H 402.635 0.0230927 1.89986 0
M  V30 4089 H 400.785 -2.00689 3.3265 0
M  V30 4090 H 402.457 0.268115 4.6052 0
M  V30 4091 H 400.7 0.321387 4.32608 0
M  V30 4092 H 401.371 -0.862242 5.45224 0
M  V30 4093 H 403.847 -1.78304 3.75961 0
M  V30 4094 H 402.723 -2.74567 4.75294 0
M  V30 4095 H 402.984 -3.18018 3.0711 0
M  V30 4096 N 402.043 -1.548 -0.295768 0
M  V30 4097 C 403.32 -1.65014 -1.05023 0
M  V30 4098 C 403.7 -0.501805 -2.05049 0
M  V30 4099 O 403.048 0.500869 -2.22943 0
M  V30 4100 C 403.258 -3.03252 -1.72741 0
M  V30 4101 C 404.606 -3.60242 -2.24746 0
M  V30 4102 O 405.63 -3.05737 -1.82765 0
M  V30 4103 O 404.489 -4.55687 -3.01681 0
M  V30 4104 H 401.583 -0.669314 -0.485744 0
M  V30 4105 H 404.129 -1.67144 -0.293438 0
M  V30 4106 H 402.901 -3.7827 -1.00138 0
M  V30 4107 H 402.524 -3.04922 -2.55163 0
M  V30 4108 N 403.521 0.559213 -1.47345 0
M  V30 4109 C 404.769 1.31388 -1.53563 0
M  V30 4110 C 405.09 1.93985 -0.198678 0
M  V30 4111 O 404.36 1.79825 0.777167 0
M  V30 4112 H 402.94 0.487901 -0.565652 0
M  V30 4113 H 405.602 0.65315 -1.8363 0
M  V30 4114 H 404.698 2.10844 -2.30111 0
M  V30 4115 N 404.999 1.35443 0.805782 0
M  V30 4116 C 406.245 1.28952 1.56522 0
M  V30 4117 C 406.578 -0.135597 1.93726 0
M  V30 4118 O 405.853 -1.08516 1.61414 0
M  V30 4119 C 406.136 2.19678 2.85331 0
M  V30 4120 C 405.989 3.7081 2.54598 0
M  V30 4121 C 407.308 2.09495 3.8704 0
M  V30 4122 H 404.427 0.469764 0.567883 0
M  V30 4123 H 407.069 1.65851 0.927001 0
M  V30 4124 H 405.219 1.8834 3.39795 0
M  V30 4125 H 406.891 4.12593 2.06312 0
M  V30 4126 H 405.134 3.91051 1.8778 0
M  V30 4127 H 405.805 4.29679 3.46525 0
M  V30 4128 H 408.281 2.37045 3.41978 0
M  V30 4129 H 407.157 2.75173 4.74943 0
M  V30 4130 H 407.418 1.07714 4.28777 0
M  V30 4131 N 406.477 -1.02803 1.19454 0
M  V30 4132 C 407.387 -2.14575 0.948408 0
M  V30 4133 C 408.403 -1.73757 -0.091871 0
M  V30 4134 O 409.579 -2.01185 0.0929654 0
M  V30 4135 C 406.644 -3.43202 0.491265 0
M  V30 4136 C 405.705 -3.98328 1.60103 0
M  V30 4137 C 404.938 -5.20816 1.16561 0
M  V30 4138 O 405.161 -5.70392 0.0295238 0
M  V30 4139 O 404.095 -5.68801 1.96849 0
M  V30 4140 H 407.921 -2.38202 1.88397 0
M  V30 4141 H 405.506 -1.12989 0.977433 0
M  V30 4142 H 407.388 -4.20687 0.245015 0
M  V30 4143 H 406.063 -3.21018 -0.415851 0
M  V30 4144 H 404.97 -3.22174 1.90144 0
M  V30 4145 H 406.303 -4.24879 2.48473 0
M  V30 4146 N 407.956 -0.998596 -1.21925 0
M  V30 4147 C 409.202 -0.678667 -1.91107 0
M  V30 4148 C 409.535 0.78791 -1.77498 0
M  V30 4149 O 408.81 1.57043 -1.1475 0
M  V30 4150 C 409.093 -1.09245 -3.43129 0
M  V30 4151 C 408.946 -2.61801 -3.6576 0
M  V30 4152 C 410.265 -0.649984 -4.35274 0
M  V30 4153 H 407.384 -0.248025 -0.694012 0
M  V30 4154 H 410.026 -1.24314 -1.43688 0
M  V30 4155 H 408.176 -0.612171 -3.83647 0
M  V30 4156 H 409.848 -3.17543 -3.34611 0
M  V30 4157 H 408.091 -3.03609 -3.09845 0
M  V30 4158 H 408.762 -2.85804 -4.7225 0
M  V30 4159 H 411.238 -1.0626 -4.02303 0
M  V30 4160 H 410.114 -0.967743 -5.40302 0
M  V30 4161 H 410.375 0.449139 -4.39813 0
M  V30 4162 N 409.434 1.37368 -0.772513 0
M  V30 4163 C 410.384 2.27613 -0.132823 0
M  V30 4164 C 411.368 1.46138 0.673247 0
M  V30 4165 O 412.56 1.68686 0.536095 0
M  V30 4166 C 409.689 3.35122 0.744864 0
M  V30 4167 C 408.775 4.24044 -0.0690771 0
M  V30 4168 N 409.166 4.93355 -1.1151 0
M  V30 4169 C 407.464 4.45731 0.154782 0
M  V30 4170 C 408.165 5.59 -1.60917 0
M  V30 4171 N 407.141 5.35737 -0.921222 0
M  V30 4172 H 410.943 2.78675 -0.933681 0
M  V30 4173 H 408.457 1.50494 -0.610342 0
M  V30 4174 H 410.454 3.98683 1.21892 0
M  V30 4175 H 409.114 2.85616 1.54446 0
M  V30 4176 H 410.125 4.95785 -1.49726 0
M  V30 4177 H 406.802 4.07096 0.926224 0
M  V30 4178 H 408.192 6.24395 -2.48153 0
M  V30 4179 N 410.912 0.523116 1.48665 0
M  V30 4180 C 411.86 -0.256859 2.31177 0
M  V30 4181 C 412.854 -0.94199 1.40794 0
M  V30 4182 O 414.06 -0.867157 1.57735 0
M  V30 4183 H 410.435 -0.1017 0.745091 0
M  V30 4184 H 412.406 0.458739 2.94853 0
M  V30 4185 C 411.155 -1.29503 3.22683 0
M  V30 4186 H 410.478 -0.777248 3.92172 0
M  V30 4187 H 411.918 -1.81233 3.83315 0
M  V30 4188 C 410.377 -2.32501 2.43813 0
M  V30 4189 O 410.907 -3.3881 2.15803 0
M  V30 4190 N 409.113 -2.05538 2.05432 0
M  V30 4191 H 408.66 -1.19104 2.28412 0
M  V30 4192 H 408.618 -2.74676 1.52973 0
M  V30 4193 N 412.39 -1.55475 0.257931 0
M  V30 4194 C 413.353 -2.20551 -0.623706 0
M  V30 4195 C 414.353 -1.17809 -1.09443 0
M  V30 4196 O 415.543 -1.42823 -0.997362 0
M  V30 4197 C 412.675 -2.85784 -1.8585 0
M  V30 4198 H 413.868 -2.99848 -0.0557743 0
M  V30 4199 H 411.421 -1.56298 0.0084422 0
M  V30 4200 H 412.156 -2.10453 -2.46739 0
M  V30 4201 H 411.941 -3.61057 -1.52907 0
M  V30 4202 H 413.431 -3.35553 -2.48584 0
M  V30 4203 N 413.868 0.0150385 -1.57593 0
M  V30 4204 C 414.815 1.01126 -2.07466 0
M  V30 4205 C 415.785 1.35064 -0.966794 0
M  V30 4206 O 416.97 1.4516 -1.23827 0
M  V30 4207 C 414.11 2.30276 -2.57035 0
M  V30 4208 C 413.223 2.02373 -3.81666 0
M  V30 4209 C 412.358 3.25496 -4.19793 0
M  V30 4210 C 411.397 2.93211 -5.37303 0
M  V30 4211 N 410.534 4.08826 -5.70794 0
M  V30 4212 H 415.374 0.57901 -2.92321 0
M  V30 4213 H 412.911 0.27426 -1.44521 0
M  V30 4214 H 414.869 3.05757 -2.83846 0
M  V30 4215 H 413.499 2.71197 -1.75077 0
M  V30 4216 H 412.551 1.17327 -3.61854 0
M  V30 4217 H 413.863 1.74567 -4.67256 0
M  V30 4218 H 413.017 4.09333 -4.47807 0
M  V30 4219 H 411.756 3.56428 -3.32882 0
M  V30 4220 H 410.761 2.07777 -5.09027 0
M  V30 4221 H 411.986 2.63542 -6.25877 0
M  V30 4222 H 409.932 4.39682 -4.86842 0
M  V30 4223 H 409.849 3.84491 -6.50924 0
M  V30 4224 H 411.117 4.93496 -6.03392 0
M  V30 4225 N 415.346 1.54954 0.287554 0
M  V30 4226 C 416.574 1.78881 1.03967 0
M  V30 4227 C 416.989 0.554894 1.80462 0
M  V30 4228 O 416.346 -0.475676 1.76192 0
M  V30 4229 C 416.397 3.00488 2.0097 0
M  V30 4230 O 416.118 4.19113 1.27577 0
M  V30 4231 C 417.619 3.36907 2.88112 0
M  V30 4232 H 414.839 0.596259 0.307761 0
M  V30 4233 H 417.383 2.01937 0.322749 0
M  V30 4234 H 415.538 2.79601 2.68145 0
M  V30 4235 H 415.952 4.87765 1.92835 0
M  V30 4236 H 417.426 4.25205 3.52001 0
M  V30 4237 H 417.903 2.55659 3.57121 0
M  V30 4238 H 418.509 3.60001 2.26449 0
M  V30 4239 N 416.824 -0.551391 1.4764 0
M  V30 4240 C 417.771 -1.65796 1.60563 0
M  V30 4241 C 418.741 -1.59932 0.448428 0
M  V30 4242 O 419.926 -1.78679 0.669222 0
M  V30 4243 C 417.066 -3.04108 1.63133 0
M  V30 4244 C 416.179 -3.20365 2.89811 0
M  V30 4245 C 415.314 -4.49109 2.8368 0
M  V30 4246 C 414.353 -4.58819 4.05156 0
M  V30 4247 N 413.49 -5.78926 3.97227 0
M  V30 4248 H 418.33 -1.54088 2.5507 0
M  V30 4249 H 415.867 -0.75052 1.26513 0
M  V30 4250 H 417.825 -3.84207 1.62606 0
M  V30 4251 H 416.455 -3.14637 0.721341 0
M  V30 4252 H 415.507 -2.33659 3.00179 0
M  V30 4253 H 416.819 -3.23402 3.79753 0
M  V30 4254 H 415.973 -5.37475 2.81434 0
M  V30 4255 H 414.712 -4.4856 1.91431 0
M  V30 4256 H 413.717 -3.68864 4.077 0
M  V30 4257 H 414.942 -4.61124 4.98539 0
M  V30 4258 H 412.888 -5.79314 3.07785 0
M  V30 4259 H 412.805 -5.83367 4.80853 0
M  V30 4260 H 414.073 -6.69637 3.99007 0
M  V30 4261 N 418.302 -1.35869 -0.798587 0
M  V30 4262 C 419.713 -1.26498 -1.37314 0
M  V30 4263 C 420.064 0.0991899 -1.95949 0
M  V30 4264 O 419.189 1.0004 -1.91888 0
M  V30 4265 C 419.784 -2.29054 -2.49639 0
M  V30 4266 C 418.343 -2.234 -3.02935 0
M  V30 4267 C 417.49 -2.14329 -1.75949 0
M  V30 4268 H 420.441 -1.46881 -0.600971 0
M  V30 4269 H 420.462 -1.92166 -3.28409 0
M  V30 4270 H 419.974 -3.2833 -2.06933 0
M  V30 4271 H 418.075 -1.27562 -3.50084 0
M  V30 4272 H 418.188 -3.15703 -3.60372 0
M  V30 4273 H 416.552 -1.60435 -1.9782 0
M  V30 4274 H 417.335 -3.15477 -1.35384 0
M  V30 4275 N 419.78 1.02168 -1.19998 0
M  V30 4276 C 421.196 1.27969 -0.953737 0
M  V30 4277 C 421.396 1.98079 0.369703 0
M  V30 4278 O 420.452 2.27306 1.09947 0
M  V30 4279 C 421.765 2.11971 -2.13281 0
M  V30 4280 C 423.313 2.25255 -2.17323 0
M  V30 4281 C 423.788 3.12632 -3.34702 0
M  V30 4282 N 425.279 3.2022 -3.34684 0
M  V30 4283 C 426.014 3.88039 -4.22153 0
M  V30 4284 N 425.51 4.58027 -5.19791 0
M  V30 4285 N 427.303 3.84511 -4.10009 0
M  V30 4286 H 419.454 0.550794 -2.05134 0
M  V30 4287 H 421.717 0.305683 -0.897364 0
M  V30 4288 H 421.423 1.67785 -3.09097 0
M  V30 4289 H 421.297 3.12699 -2.10949 0
M  V30 4290 H 423.684 2.68667 -1.22073 0
M  V30 4291 H 423.765 1.24053 -2.23706 0
M  V30 4292 H 423.409 2.69926 -4.30235 0
M  V30 4293 H 423.339 4.13909 -3.25556 0
M  V30 4294 H 425.83 2.70382 -2.64012 0
M  V30 4295 H 426.143 5.07429 -5.82868 0
M  V30 4296 H 424.488 4.56869 -5.23733 0
M  V30 4297 H 427.679 3.28978 -3.33003 0
M  V30 4298 H 427.852 4.3709 -4.78389 0
M  V30 4299 N 421.258 1.00505 1.21394 0
M  V30 4300 C 422.168 0.574806 2.27449 0
M  V30 4301 C 423.184 -0.382206 1.6975 0
M  V30 4302 O 424.36 -0.246027 1.99892 0
M  V30 4303 C 421.425 -0.0917414 3.46579 0
M  V30 4304 C 420.486 0.909758 4.1955 0
M  V30 4305 C 419.719 0.274924 5.32991 0
M  V30 4306 O 419.942 -0.928254 5.62796 0
M  V30 4307 O 418.876 0.985877 5.93771 0
M  V30 4308 H 422.702 1.45744 2.66444 0
M  V30 4309 H 420.287 0.773923 1.27792 0
M  V30 4310 H 422.169 -0.464551 4.18832 0
M  V30 4311 H 420.844 -0.948755 3.09484 0
M  V30 4312 H 419.751 1.33372 3.49518 0
M  V30 4313 H 421.084 1.73636 4.60555 0
M  V30 4314 N 422.737 -1.36956 0.779787 0
M  V30 4315 C 423.647 -2.33965 0.172491 0
M  V30 4316 C 424.663 -1.60574 -0.670222 0
M  V30 4317 O 425.839 -1.92617 -0.588263 0
M  V30 4318 C 422.904 -3.39761 -0.690173 0
M  V30 4319 C 421.965 -4.28964 0.169924 0
M  V30 4320 C 421.198 -5.29707 -0.651662 0
M  V30 4321 O 421.421 -5.38238 -1.88827 0
M  V30 4322 O 420.355 -6.01873 -0.0566264 0
M  V30 4323 H 424.181 -2.87647 0.974321 0
M  V30 4324 H 421.766 -1.39258 0.541078 0
M  V30 4325 H 423.648 -4.04471 -1.1824 0
M  V30 4326 H 422.323 -2.88394 -1.47006 0
M  V30 4327 H 421.23 -3.67326 0.708696 0
M  V30 4328 H 422.563 -4.83656 0.913085 0
M  V30 4329 N 424.215 -0.530993 -1.48385 0
M  V30 4330 C 425.147 0.268353 -2.27624 0
M  V30 4331 C 426.16 0.903525 -1.35426 0
M  V30 4332 O 427.349 0.781796 -1.60469 0
M  V30 4333 C 424.449 1.39535 -3.08842 0
M  V30 4334 C 423.622 0.861913 -4.28824 0
M  V30 4335 C 422.681 1.87016 -4.91845 0
M  V30 4336 O 421.707 1.4267 -5.5103 0
M  V30 4337 N 422.909 3.20238 -4.84178 0
M  V30 4338 H 425.674 -0.41123 -2.96865 0
M  V30 4339 H 423.235 -0.365387 -1.57723 0
M  V30 4340 H 425.227 2.06803 -3.47871 0
M  V30 4341 H 423.797 1.97859 -2.42014 0
M  V30 4342 H 423.017 0.0132126 -3.94198 0
M  V30 4343 H 424.305 0.484415 -5.06489 0
M  V30 4344 H 423.703 3.58932 -4.37246 0
M  V30 4345 H 422.26 3.83136 -5.27305 0
M  V30 4346 N 425.693 1.55336 -0.266172 0
M  V30 4347 C 426.94 1.99397 0.353158 0
M  V30 4348 C 427.268 1.15451 1.56529 0
M  V30 4349 O 426.523 0.209974 1.9457 0
M  V30 4350 C 426.822 3.48606 0.787957 0
M  V30 4351 C 426.488 4.49773 -0.318541 0
M  V30 4352 C 425.15 4.77158 -0.62239 0
M  V30 4353 C 427.502 5.10212 -1.06459 0
M  V30 4354 C 424.83 5.62251 -1.67602 0
M  V30 4355 C 427.182 5.96449 -2.10788 0
M  V30 4356 C 425.846 6.22158 -2.41817 0
M  V30 4357 H 425.116 0.729644 0.12923 0
M  V30 4358 H 427.763 1.87732 -0.37802 0
M  V30 4359 H 426.068 3.57701 1.59866 0
M  V30 4360 H 427.765 3.80098 1.27775 0
M  V30 4361 H 424.355 4.2854 -0.0715925 0
M  V30 4362 H 428.539 4.89086 -0.843098 0
M  V30 4363 H 423.795 5.80419 -1.92155 0
M  V30 4364 H 427.969 6.42317 -2.69076 0
M  V30 4365 H 425.596 6.87888 -3.23596 0
M  V30 4366 N 427.171 -0.0066808 1.57599 0
M  V30 4367 C 428.119 -1.01851 2.09115 0
M  V30 4368 C 429.113 -1.36021 1.00969 0
M  V30 4369 O 430.319 -1.34663 1.19439 0
M  V30 4370 H 426.694 -0.346083 0.667631 0
M  V30 4371 H 428.665 -0.558394 2.93129 0
M  V30 4372 C 427.414 -2.30374 2.60429 0
M  V30 4373 H 426.737 -2.04947 3.43273 0
M  V30 4374 H 428.177 -2.99466 3.00161 0
M  V30 4375 C 426.636 -3.00893 1.51542 0
M  V30 4376 O 427.166 -3.91614 0.894484 0
M  V30 4377 N 425.372 -2.62603 1.2445 0
M  V30 4378 H 424.919 -1.88911 1.75129 0
M  V30 4379 H 424.877 -3.10101 0.518137 0
M  V30 4380 N 428.649 -1.55105 -0.279332 0
M  V30 4381 C 429.874 -1.7976 -1.03446 0
M  V30 4382 C 430.299 -0.565952 -1.79384 0
M  V30 4383 O 429.657 0.484259 -1.74713 0
M  V30 4384 C 429.705 -3.0179 -1.97371 0
M  V30 4385 O 428.809 -2.76432 -3.06038 0
M  V30 4386 H 428.15 -0.594334 -0.29608 0
M  V30 4387 H 430.68 -2.02235 -0.310165 0
M  V30 4388 H 430.69 -3.30351 -2.39441 0
M  V30 4389 H 429.365 -3.91085 -1.4151 0
M  V30 4390 H 427.942 -2.58949 -2.68328 0
M  V30 4391 N 430.127 0.543554 -1.4793 0
M  V30 4392 C 431.355 1.32516 -1.58894 0
M  V30 4393 C 431.77 1.87215 -0.244131 0
M  V30 4394 O 431.127 1.65709 0.764652 0
M  V30 4395 C 431.178 2.48554 -2.62494 0
M  V30 4396 O 430.899 1.96112 -3.91755 0
M  V30 4397 C 432.4 3.40572 -2.8377 0
M  V30 4398 H 429.62 0.403472 -0.536145 0
M  V30 4399 H 432.164 0.657106 -1.93655 0
M  V30 4400 H 430.319 3.1127 -2.30629 0
M  V30 4401 H 430.733 2.71967 -4.4848 0
M  V30 4402 H 432.207 4.18375 -3.60093 0
M  V30 4403 H 432.684 3.94965 -1.92092 0
M  V30 4404 H 433.29 2.8366 -3.16887 0
M  V30 4405 N 431.605 1.3629 0.791371 0
M  V30 4406 C 432.835 1.33368 1.57786 0
M  V30 4407 C 433.243 -0.0875188 1.88997 0
M  V30 4408 O 432.586 -1.05427 1.50435 0
M  V30 4409 C 432.648 2.08802 2.92646 0
M  V30 4410 C 432.312 3.57903 2.84174 0
M  V30 4411 C 433.309 4.52191 2.56553 0
M  V30 4412 C 430.994 4.00762 3.02812 0
M  V30 4413 C 432.988 5.87315 2.47669 0
M  V30 4414 C 430.675 5.35977 2.93551 0
M  V30 4415 C 431.673 6.29066 2.66017 0
M  V30 4416 O 431.361 7.61798 2.56746 0
M  V30 4417 H 431.093 0.459166 0.496128 0
M  V30 4418 H 433.647 1.79952 0.990269 0
M  V30 4419 H 431.877 1.56878 3.53449 0
M  V30 4420 H 433.566 1.98762 3.53904 0
M  V30 4421 H 434.332 4.20393 2.41858 0
M  V30 4422 H 430.211 3.2868 3.2325 0
M  V30 4423 H 433.755 6.59943 2.26099 0
M  V30 4424 H 429.652 5.67384 3.07808 0
M  V30 4425 H 430.42 7.71898 2.72242 0
M  V30 4426 N 433.083 -1.0153 1.20538 0
M  V30 4427 C 434.499 -1.27461 0.96051 0
M  V30 4428 C 434.699 -1.98273 -0.359193 0
M  V30 4429 O 433.755 -2.27886 -1.0874 0
M  V30 4430 C 435.068 -2.10837 2.14402 0
M  V30 4431 C 436.616 -2.24099 2.18515 0
M  V30 4432 C 437.091 -3.10852 3.36355 0
M  V30 4433 N 438.582 -3.18441 3.36377 0
M  V30 4434 C 439.317 -3.85795 4.24205 0
M  V30 4435 N 438.813 -4.55264 5.22213 0
M  V30 4436 N 440.606 -3.82331 4.12043 0
M  V30 4437 H 432.757 -0.539907 2.05423 0
M  V30 4438 H 435.02 -0.30092 0.898972 0
M  V30 4439 H 434.726 -1.66144 3.09983 0
M  V30 4440 H 434.6 -3.11576 2.12604 0
M  V30 4441 H 436.987 -2.68016 1.23497 0
M  V30 4442 H 437.068 -1.22865 2.24361 0
M  V30 4443 H 436.712 -2.6764 4.31661 0
M  V30 4444 H 436.642 -4.12177 3.27746 0
M  V30 4445 H 439.133 -2.68978 2.65442 0
M  V30 4446 H 439.446 -5.04331 5.85551 0
M  V30 4447 H 437.791 -4.54085 5.26148 0
M  V30 4448 H 440.982 -3.27207 3.34743 0
M  V30 4449 H 441.155 -4.34547 4.807 0
M  V30 4450 N 434.561 -1.01147 -1.20859 0
M  V30 4451 C 435.807 -0.698899 -1.90377 0
M  V30 4452 C 436.14 0.76904 -1.78324 0
M  V30 4453 O 435.415 1.55817 -1.16409 0
M  V30 4454 C 435.698 -1.12878 -3.41951 0
M  V30 4455 C 435.551 -2.65665 -3.62963 0
M  V30 4456 C 436.87 -0.696114 -4.3456 0
M  V30 4457 H 433.989 -0.255372 -0.691342 0
M  V30 4458 H 436.631 -1.25831 -1.42361 0
M  V30 4459 H 434.781 -0.652827 -3.82976 0
M  V30 4460 H 436.453 -3.21074 -3.31224 0
M  V30 4461 H 434.696 -3.06878 -3.06608 0
M  V30 4462 H 435.367 -2.90797 -4.69192 0
M  V30 4463 H 437.843 -1.10521 -4.01154 0
M  V30 4464 H 436.719 -1.025 -5.39245 0
M  V30 4465 H 436.98 0.402465 -4.40264 0
M  V30 4466 N 436.039 1.36541 -0.78704 0
M  V30 4467 C 437.285 1.99599 -0.358872 0
M  V30 4468 C 437.618 1.62323 1.06606 0
M  V30 4469 O 436.893 0.876858 1.73613 0
M  V30 4470 C 437.176 3.56327 -0.519944 0
M  V30 4471 C 437.029 4.03464 -1.98839 0
M  V30 4472 C 438.348 4.4005 0.0664737 0
M  V30 4473 H 435.467 0.725107 -0.131869 0
M  V30 4474 H 438.109 1.6199 -0.992936 0
M  V30 4475 H 436.259 3.88495 0.0198321 0
M  V30 4476 H 437.931 3.81793 -2.58905 0
M  V30 4477 H 436.174 3.55092 -2.49183 0
M  V30 4478 H 436.845 5.12439 -2.05207 0
M  V30 4479 H 439.321 4.14228 -0.394267 0
M  V30 4480 H 438.197 5.48847 -0.0762682 0
M  V30 4481 H 438.458 4.26655 1.15835 0
M  V30 4482 N 437.518 0.538854 1.48102 0
M  V30 4483 C 438.743 0.0102694 2.07397 0
M  V30 4484 C 439.168 -1.26562 1.39153 0
M  V30 4485 O 438.526 -1.75357 0.460387 0
M  V30 4486 C 438.574 -0.187602 3.60112 0
M  V30 4487 O 437.678 -1.25432 3.92862 0
M  V30 4488 H 437.019 0.0430975 0.6626 0
M  V30 4489 H 439.549 0.749301 1.90385 0
M  V30 4490 H 439.559 -0.407517 4.0596 0
M  V30 4491 H 438.234 0.744386 4.09184 0
M  V30 4492 H 436.811 -1.01636 3.58782 0
M  V30 4493 N 438.996 -1.55193 0.274407 0
M  V30 4494 C 440.242 -1.99877 -0.343086 0
M  V30 4495 C 440.575 -1.16256 -1.55558 0
M  V30 4496 O 439.85 -0.232462 -1.93106 0
M  V30 4497 C 440.133 -3.52706 -0.725965 0
M  V30 4498 C 439.986 -4.47081 0.493818 0
M  V30 4499 C 441.305 -4.11422 -1.56268 0
M  V30 4500 H 438.424 -0.726625 -0.123229 0
M  V30 4501 H 441.066 -1.86136 0.38121 0
M  V30 4502 H 439.216 -3.64546 -1.34307 0
M  V30 4503 H 440.888 -4.47186 1.13237 0
M  V30 4504 H 439.131 -4.1877 1.13201 0
M  V30 4505 H 439.802 -5.51699 0.18217 0
M  V30 4506 H 442.278 -4.02855 -1.04151 0
M  V30 4507 H 441.154 -5.18568 -1.79939 0
M  V30 4508 H 441.415 -3.61607 -2.54348 0
M  V30 4509 N 440.474 -0.00167713 -1.576 0
M  V30 4510 C 441.404 0.988091 -2.11563 0
M  V30 4511 C 442.385 1.35736 -1.02517 0
M  V30 4512 O 443.57 1.44082 -1.30208 0
M  V30 4513 C 440.7 2.27941 -2.62031 0
M  V30 4514 C 439.654 2.0517 -3.75619 0
M  V30 4515 C 438.98 3.4033 -4.12407 0
M  V30 4516 C 440.28 1.41294 -5.02825 0
M  V30 4517 H 441.974 0.538771 -2.94513 0
M  V30 4518 H 439.52 0.257712 -1.41675 0
M  V30 4519 H 441.473 2.97539 -2.9841 0
M  V30 4520 H 440.197 2.74989 -1.76205 0
M  V30 4521 H 438.856 1.37998 -3.39635 0
M  V30 4522 H 438.504 3.85085 -3.23603 0
M  V30 4523 H 438.204 3.25909 -4.88935 0
M  V30 4524 H 439.728 4.1124 -4.51347 0
M  V30 4525 H 441.142 2.00851 -5.36965 0
M  V30 4526 H 439.539 1.37356 -5.84169 0
M  V30 4527 H 440.609 0.382362 -4.8339 0
M  V30 4528 N 441.952 1.55251 0.271103 0
M  V30 4529 C 443.18 1.79974 1.02064 0
M  V30 4530 C 443.595 0.574003 1.79863 0
M  V30 4531 O 442.952 -0.456962 1.76686 0
M  V30 4532 C 443.003 3.02603 1.97772 0
M  V30 4533 O 442.724 4.20443 1.23124 0
M  V30 4534 C 444.225 3.39944 2.84522 0
M  V30 4535 H 441.445 0.599489 0.301419 0
M  V30 4536 H 443.989 2.02268 0.301313 0
M  V30 4537 H 442.144 2.8243 2.65165 0
M  V30 4538 H 442.558 4.89783 1.87651 0
M  V30 4539 H 444.032 4.28915 3.47471 0
M  V30 4540 H 444.509 2.59432 3.54389 0
M  V30 4541 H 445.115 3.62383 2.22618 0
M  V30 4542 N 443.43 -0.535701 1.48216 0
M  V30 4543 C 444.676 -1.29375 1.56173 0
M  V30 4544 C 445.009 -1.92804 0.232429 0
M  V30 4545 O 444.284 -1.78992 -0.761048 0
M  V30 4546 C 444.567 -2.38747 2.69577 0
M  V30 4547 C 444.42 -1.80046 4.12193 0
M  V30 4548 C 445.739 -3.40551 2.78771 0
M  V30 4549 H 442.858 -0.469027 0.568491 0
M  V30 4550 H 445.5 -0.597358 1.80365 0
M  V30 4551 H 443.65 -2.98147 2.4908 0
M  V30 4552 H 445.322 -1.24742 4.44114 0
M  V30 4553 H 443.565 -1.10609 4.19462 0
M  V30 4554 H 444.236 -2.59212 4.87353 0
M  V30 4555 H 446.712 -2.91099 2.97322 0
M  V30 4556 H 445.588 -4.1448 3.59857 0
M  V30 4557 H 445.849 -4.00746 1.86696 0
M  V30 4558 N 444.908 -1.36708 -0.784132 0
M  V30 4559 C 445.838 -1.34153 -1.91116 0
M  V30 4560 C 446.819 -0.212121 -1.68772 0
M  V30 4561 O 448.004 -0.410581 -1.8981 0
M  V30 4562 C 445.134 -1.13535 -3.28218 0
M  V30 4563 C 444.088 -2.23356 -3.65097 0
M  V30 4564 C 443.414 -1.87875 -5.00607 0
M  V30 4565 C 444.714 -3.65473 -3.73131 0
M  V30 4566 H 446.408 -2.28459 -1.93512 0
M  V30 4567 H 443.954 -1.09973 -0.929618 0
M  V30 4568 H 445.907 -1.10381 -4.06687 0
M  V30 4569 H 444.631 -0.156804 -3.26223 0
M  V30 4570 H 443.29 -2.25645 -2.88929 0
M  V30 4571 H 442.938 -0.885814 -4.95139 0
M  V30 4572 H 442.638 -2.61406 -5.26252 0
M  V30 4573 H 444.162 -1.86286 -5.81489 0
M  V30 4574 H 445.576 -3.65382 -4.41779 0
M  V30 4575 H 443.973 -4.37953 -4.10265 0
M  V30 4576 H 445.043 -3.99995 -2.74102 0
M  V30 4577 N 446.386 1.0089 -1.21074 0
M  V30 4578 C 447.336 2.0799 -0.934034 0
M  V30 4579 C 448.32 1.60529 0.10919 0
M  V30 4580 O 449.512 1.76722 -0.0992198 0
M  V30 4581 C 446.641 3.39693 -0.496334 0
M  V30 4582 C 445.727 3.93833 -1.57341 0
M  V30 4583 N 446.118 4.21388 -2.7976 0
M  V30 4584 C 444.416 4.22067 -1.44137 0
M  V30 4585 C 445.117 4.65156 -3.49292 0
M  V30 4586 N 444.093 4.67895 -2.76722 0
M  V30 4587 H 447.895 2.27213 -1.86417 0
M  V30 4588 H 445.409 1.18927 -1.10589 0
M  V30 4589 H 447.406 4.15962 -0.279471 0
M  V30 4590 H 446.066 3.21879 0.427084 0
M  V30 4591 H 447.077 4.10061 -3.1634 0
M  V30 4592 H 443.754 4.1341 -0.582947 0
M  V30 4593 H 445.144 4.95231 -4.54088 0
M  V30 4594 N 447.864 1.01787 1.20321 0
M  V30 4595 C 448.796 0.547357 2.22568 0
M  V30 4596 C 449.809 -0.370922 1.58518 0
M  V30 4597 O 450.998 -0.169067 1.77698 0
M  V30 4598 C 448.098 -0.223031 3.38165 0
M  V30 4599 C 447.271 0.697472 4.31803 0
M  V30 4600 C 446.33 -0.025562 5.26194 0
M  V30 4601 O 445.356 0.597367 5.66057 0
M  V30 4602 N 446.558 -1.29999 5.65757 0
M  V30 4603 H 449.323 1.42668 2.63564 0
M  V30 4604 H 446.884 0.895552 1.34876 0
M  V30 4605 H 448.876 -0.716002 3.98316 0
M  V30 4606 H 447.446 -1.00366 2.9605 0
M  V30 4607 H 446.666 1.37073 3.69601 0
M  V30 4608 H 447.954 1.32347 4.91286 0
M  V30 4609 H 447.352 -1.827 5.35385 0
M  V30 4610 H 445.909 -1.73766 6.28211 0
M  V30 4611 N 449.342 -1.36122 0.79427 0
M  V30 4612 C 450.619 -1.93398 0.292685 0
M  V30 4613 C 450.999 -1.72567 -1.21589 0
M  V30 4614 O 450.347 -1.08745 -2.00965 0
M  V30 4615 C 450.557 -3.42099 0.690614 0
M  V30 4616 C 451.905 -4.19231 0.673105 0
M  V30 4617 O 452.929 -3.50559 0.631389 0
M  V30 4618 O 451.788 -5.41732 0.720362 0
M  V30 4619 H 448.882 -0.823712 0.0736693 0
M  V30 4620 H 451.428 -1.45273 0.87714 0
M  V30 4621 H 450.2 -3.50938 1.73085 0
M  V30 4622 H 449.823 -3.97519 0.0803036 0
M  V30 4623 N 450.82 -0.546701 -1.47814 0
M  V30 4624 C 452.066 -0.0269594 -2.03382 0
M  V30 4625 C 452.421 1.30406 -1.41464 0
M  V30 4626 O 451.714 1.8332 -0.557151 0
M  V30 4627 C 451.908 0.134869 -3.57145 0
M  V30 4628 C 451.737 -1.17891 -4.33972 0
M  V30 4629 C 450.507 -1.74336 -4.74273 0
M  V30 4630 C 452.705 -2.09361 -4.69758 0
M  V30 4631 N 450.687 -2.99829 -5.35701 0
M  V30 4632 C 452.058 -3.19431 -5.31379 0
M  V30 4633 C 454.113 -2.09484 -4.51687 0
M  V30 4634 C 452.816 -4.2971 -5.76838 0
M  V30 4635 C 454.842 -3.18767 -4.98138 0
M  V30 4636 C 454.204 -4.27557 -5.59799 0
M  V30 4637 H 450.303 -0.0517733 -0.780284 0
M  V30 4638 H 452.887 -0.731673 -1.80429 0
M  V30 4639 H 451.058 0.80869 -3.79888 0
M  V30 4640 H 452.79 0.655726 -3.99352 0
M  V30 4641 H 449.545 -1.28265 -4.559 0
M  V30 4642 H 449.969 -3.63765 -5.70968 0
M  V30 4643 H 454.611 -1.26663 -4.03381 0
M  V30 4644 H 452.329 -5.13297 -6.24141 0
M  V30 4645 H 455.915 -3.19937 -4.85934 0
M  V30 4646 H 454.795 -5.10725 -5.95088 0
M  V30 4647 N 452.299 1.55045 -0.282633 0
M  V30 4648 C 453.229 2.2579 0.595066 0
M  V30 4649 C 454.21 1.25074 1.15284 0
M  V30 4650 O 455.395 1.5381 1.18559 0
M  V30 4651 C 452.525 2.98472 1.77572 0
M  V30 4652 C 451.479 4.0618 1.34914 0
M  V30 4653 C 450.805 4.66477 2.6135 0
M  V30 4654 C 452.105 5.1996 0.493821 0
M  V30 4655 H 453.799 2.994 0.00505653 0
M  V30 4656 H 451.345 1.44 0.000992001 0
M  V30 4657 H 453.298 3.46677 2.39568 0
M  V30 4658 H 452.022 2.2241 2.39168 0
M  V30 4659 H 450.681 3.58797 0.752338 0
M  V30 4660 H 450.329 3.87074 3.2122 0
M  V30 4661 H 450.029 5.39207 2.33516 0
M  V30 4662 H 451.553 5.17435 3.24181 0
M  V30 4663 H 452.967 5.64172 1.01898 0
M  V30 4664 H 451.364 5.99299 0.310047 0
M  V30 4665 H 452.434 4.82462 -0.485593 0
M  V30 4666 N 453.777 0.010035 1.57597 0
M  V30 4667 C 454.725 -0.996272 2.10184 0
M  V30 4668 C 455.719 -1.34942 1.02406 0
M  V30 4669 O 456.925 -1.33389 1.20861 0
M  V30 4670 H 453.3 -0.338982 0.671264 0
M  V30 4671 H 455.271 -0.527272 2.93705 0
M  V30 4672 C 454.02 -2.27599 2.62857 0
M  V30 4673 H 453.343 -2.01295 3.45428 0
M  V30 4674 H 454.783 -2.96265 3.0332 0
M  V30 4675 C 453.242 -2.99269 1.54725 0
M  V30 4676 O 453.772 -3.90644 0.93597 0
M  V30 4677 N 451.978 -2.61269 1.27228 0
M  V30 4678 H 451.525 -1.87043 1.77123 0
M  V30 4679 H 451.483 -3.09534 0.550999 0
M  V30 4680 N 455.255 -1.55392 -0.262866 0
M  V30 4681 C 456.503 -1.76127 -0.991147 0
M  V30 4682 C 456.824 -0.571083 -1.8645 0
M  V30 4683 O 456.094 0.413698 -1.91482 0
M  V30 4684 H 454.674 -0.649528 -0.368948 0
M  V30 4685 H 457.336 -1.9281 -0.284655 0
M  V30 4686 H 456.432 -2.6663 -1.62219 0
M  V30 4687 N 456.733 0.527833 -1.48498 0
M  V30 4688 C 457.68 1.6322 -1.6318 0
M  V30 4689 C 458.65 1.59199 -0.473815 0
M  V30 4690 O 459.835 1.77591 -0.697563 0
M  V30 4691 C 456.975 3.01474 -1.67951 0
M  V30 4692 C 456.088 3.15713 -2.94871 0
M  V30 4693 C 455.223 4.44539 -2.90789 0
M  V30 4694 C 454.262 4.52315 -4.12404 0
M  V30 4695 N 453.399 5.72533 -4.06387 0
M  V30 4696 H 458.239 1.50011 -2.57489 0
M  V30 4697 H 455.776 0.730298 -1.27691 0
M  V30 4698 H 457.734 3.81572 -1.68698 0
M  V30 4699 H 456.364 3.1345 -0.771306 0
M  V30 4700 H 455.416 2.28854 -3.03859 0
M  V30 4701 H 456.728 3.1732 -3.8485 0
M  V30 4702 H 455.882 5.3293 -2.89949 0
M  V30 4703 H 454.621 4.45457 -1.98542 0
M  V30 4704 H 453.626 3.62331 -4.13517 0
M  V30 4705 H 454.851 4.53134 -5.05812 0
M  V30 4706 H 452.797 5.74344 -3.16962 0
M  V30 4707 H 452.714 5.75643 -4.90073 0
M  V30 4708 H 453.982 6.63204 -4.0961 0
M  V30 4709 N 458.211 1.37122 0.776871 0
M  V30 4710 C 459.121 1.34651 1.9211 0
M  V30 4711 C 460.137 0.246824 1.7224 0
M  V30 4712 O 461.313 0.48134 1.95563 0
M  V30 4713 C 458.378 1.14748 3.2716 0
M  V30 4714 C 457.439 2.34308 3.5972 0
M  V30 4715 C 456.672 2.15345 4.88326 0
M  V30 4716 O 456.895 1.13507 5.58992 0
M  V30 4717 O 455.829 3.03414 5.1983 0
M  V30 4718 H 459.655 2.31013 1.97146 0
M  V30 4719 H 457.24 1.17799 0.918901 0
M  V30 4720 H 459.122 1.05616 4.0795 0
M  V30 4721 H 457.797 0.214562 3.22988 0
M  V30 4722 H 456.704 2.49011 2.79185 0
M  V30 4723 H 458.037 3.26149 3.68629 0
M  V30 4724 N 459.689 -1.00246 1.21608 0
M  V30 4725 C 460.919 -1.77373 1.05935 0
M  V30 4726 C 461.327 -1.85059 -0.393686 0
M  V30 4727 O 460.67 -1.31289 -1.28487 0
M  V30 4728 C 460.732 -3.22705 1.58435 0
M  V30 4729 C 460.396 -3.38591 3.06929 0
M  V30 4730 C 461.393 -3.2667 4.04454 0
M  V30 4731 C 459.078 -3.6395 3.46187 0
M  V30 4732 C 461.072 -3.39877 5.39224 0
M  V30 4733 C 458.759 -3.768 4.81108 0
M  V30 4734 C 459.757 -3.6477 5.77436 0
M  V30 4735 O 459.445 -3.77206 7.09909 0
M  V30 4736 H 459.177 -0.56419 0.372378 0
M  V30 4737 H 461.731 -1.26971 1.61454 0
M  V30 4738 H 459.961 -3.74255 0.973147 0
M  V30 4739 H 461.65 -3.81515 1.38568 0
M  V30 4740 H 462.416 -3.06999 3.75468 0
M  V30 4741 H 458.295 -3.72395 2.71741 0
M  V30 4742 H 461.839 -3.30404 6.14393 0
M  V30 4743 H 457.736 -3.95975 5.09779 0
M  V30 4744 H 458.504 -3.94138 7.17355 0
M  V30 4745 N 461.167 -1.02423 -1.1978 0
M  V30 4746 C 462.114 -0.601023 -2.22837 0
M  V30 4747 C 463.084 0.382801 -1.61629 0
M  V30 4748 O 464.269 0.280514 -1.88727 0
M  V30 4749 C 461.409 0.0467755 -3.45068 0
M  V30 4750 C 460.522 -0.98253 -4.20678 0
M  V30 4751 C 459.657 -0.304982 -5.30324 0
M  V30 4752 C 458.696 -1.32052 -5.97686 0
M  V30 4753 N 457.833 -0.669105 -6.98904 0
M  V30 4754 H 462.673 -1.48444 -2.58396 0
M  V30 4755 H 460.21 -0.742936 -1.2696 0
M  V30 4756 H 462.168 0.439556 -4.14878 0
M  V30 4757 H 460.798 0.893796 -3.10179 0
M  V30 4758 H 459.85 -1.49341 -3.49859 0
M  V30 4759 H 461.162 -1.75455 -4.66923 0
M  V30 4760 H 460.316 0.142893 -6.06532 0
M  V30 4761 H 459.055 0.499283 -4.85138 0
M  V30 4762 H 458.06 -1.7787 -5.20233 0
M  V30 4763 H 459.285 -2.1262 -6.44957 0
M  V30 4764 H 457.231 0.115152 -6.55899 0
M  V30 4765 H 457.148 -1.37908 -7.43315 0
M  V30 4766 H 458.416 -0.245076 -7.79115 0
M  V30 4767 N 462.645 1.35699 -0.801477 0
M  V30 4768 C 463.885 2.00741 -0.385027 0
M  V30 4769 C 464.249 1.62213 1.02718 0
M  V30 4770 O 465.45 2.19936 1.54537 0
M  V30 4771 C 463.721 3.53032 -0.557057 0
M  V30 4772 S 465.28 4.38195 -0.230272 0
M  V30 4773 H 462.098 0.695748 -0.146477 0
M  V30 4774 H 464.7 1.65378 -1.04261 0
M  V30 4775 H 463.404 3.7856 -1.58494 0
M  V30 4776 H 462.935 3.93229 0.116029 0
M  V30 4777 H 464.95 4.86748 0.963895 0
M  V30 4778 N 464.123 0.554532 1.47522 0
M  V30 4779 C 465.07 -0.19466 2.29978 0
M  V30 4780 C 466.04 -0.910882 1.38896 0
M  V30 4781 O 467.225 -0.907102 1.67858 0
M  V30 4782 C 464.365 -1.22035 3.22802 0
M  V30 4783 C 463.478 -0.510474 4.28973 0
M  V30 4784 C 462.613 -1.52123 5.08952 0
M  V30 4785 C 461.652 -0.796173 6.069 0
M  V30 4786 N 460.789 -1.75363 6.79847 0
M  V30 4787 H 465.629 0.51461 2.93523 0
M  V30 4788 H 463.166 0.265607 1.44682 0
M  V30 4789 H 465.124 -1.8276 3.7504 0
M  V30 4790 H 463.754 -1.89769 2.61127 0
M  V30 4791 H 462.806 0.211234 3.79813 0
M  V30 4792 H 464.118 0.0576503 4.98767 0
M  V30 4793 H 463.272 -2.20207 5.65326 0
M  V30 4794 H 462.011 -2.12327 4.39054 0
M  V30 4795 H 461.016 -0.101388 5.49707 0
M  V30 4796 H 462.241 -0.199911 6.78806 0
M  V30 4797 H 460.187 -2.3443 6.12682 0
M  V30 4798 H 460.104 -1.23759 7.45801 0
M  V30 4799 H 461.372 -2.4257 7.40797 0
M  V30 4800 N 465.601 -1.54893 0.290851 0
M  V30 4801 C 466.847 -2.0023 -0.321867 0
M  V30 4802 C 467.18 -1.179 -1.54316 0
M  V30 4803 O 466.455 -0.25293 -1.92848 0
M  V30 4804 C 466.738 -3.53456 -0.688515 0
M  V30 4805 C 466.591 -4.46532 0.541209 0
M  V30 4806 C 467.91 -4.13057 -1.51895 0
M  V30 4807 H 465.029 -0.727891 -0.115515 0
M  V30 4808 H 467.671 -1.85722 0.400931 0
M  V30 4809 H 465.821 -3.6595 -1.30433 0
M  V30 4810 H 467.493 -4.4596 1.17973 0
M  V30 4811 H 465.736 -4.17545 1.17636 0
M  V30 4812 H 466.407 -5.51475 0.240675 0
M  V30 4813 H 468.883 -4.03937 -0.99872 0
M  V30 4814 H 467.759 -5.20448 -1.74429 0
M  V30 4815 H 468.02 -3.64284 -2.50498 0
M  V30 4816 N 467.08 -0.0183926 -1.57589 0
M  V30 4817 C 468.305 0.676634 -1.96052 0
M  V30 4818 C 468.73 1.6548 -0.894307 0
M  V30 4819 O 468.088 1.80712 0.145849 0
M  V30 4820 C 468.136 1.36872 -3.33614 0
M  V30 4821 O 467.24 2.48372 -3.29219 0
M  V30 4822 H 466.581 0.1786 -0.63953 0
M  V30 4823 H 469.111 -0.077056 -2.04455 0
M  V30 4824 H 469.121 1.72797 -3.69601 0
M  V30 4825 H 467.796 0.651636 -4.10763 0
M  V30 4826 H 466.373 2.14639 -3.04934 0
M  V30 4827 N 468.558 1.5553 0.254621 0
M  V30 4828 C 469.506 1.9048 1.33492 0
M  V30 4829 C 470.5 0.78304 1.50216 0
M  V30 4830 O 471.706 0.967582 1.51782 0
M  V30 4831 H 468.081 0.604846 0.44684 0
M  V30 4832 H 470.052 2.80688 1.01275 0
M  V30 4833 C 468.801 2.20928 2.68489 0
M  V30 4834 H 468.124 3.06742 2.56417 0
M  V30 4835 H 469.564 2.49291 3.42972 0
M  V30 4836 C 468.023 1.023 3.20993 0
M  V30 4837 O 468.553 0.267027 4.00811 0
M  V30 4838 N 466.759 0.815714 2.78917 0
M  V30 4839 H 466.306 1.43217 2.14119 0
M  V30 4840 H 466.264 0.0236532 3.14391 0
M  V30 4841 N 470.036 -0.519951 1.48776 0
M  V30 4842 C 470.983 -1.62352 1.64044 0
M  V30 4843 C 471.953 -1.58945 0.482251 0
M  V30 4844 O 473.138 -1.77219 0.706971 0
M  V30 4845 C 470.278 -3.00579 1.69547 0
M  V30 4846 C 469.391 -3.14145 2.96541 0
M  V30 4847 C 468.526 -4.42991 2.93142 0
M  V30 4848 C 467.565 -4.50122 4.14797 0
M  V30 4849 N 466.702 -5.7037 4.09418 0
M  V30 4850 H 471.542 -1.48643 2.58281 0
M  V30 4851 H 469.079 -0.723516 1.28077 0
M  V30 4852 H 471.037 -3.80671 1.70719 0
M  V30 4853 H 469.667 -3.13036 0.787918 0
M  V30 4854 H 468.719 -2.27239 3.05068 0
M  V30 4855 H 470.031 -3.15275 3.86527 0
M  V30 4856 H 469.185 -5.31385 2.92772 0
M  V30 4857 H 467.924 -4.44398 2.00902 0
M  V30 4858 H 466.929 -3.60133 4.15433 0
M  V30 4859 H 468.154 -4.50445 5.08208 0
M  V30 4860 H 466.1 -5.72655 3.20004 0
M  V30 4861 H 466.017 -5.73036 4.93119 0
M  V30 4862 H 467.285 -6.61023 4.13121 0
M  V30 4863 N 471.514 -1.37532 -0.769588 0
M  V30 4864 C 472.762 -1.32597 -1.5252 0
M  V30 4865 C 473.083 0.0884294 -1.94799 0
M  V30 4866 O 472.353 1.03289 -1.66458 0
M  V30 4867 H 470.933 -0.487846 -0.565699 0
M  V30 4868 H 473.595 -1.72044 -0.915806 0
M  V30 4869 H 472.691 -1.96643 -2.42359 0
M  V30 4870 N 472.992 0.995999 -1.22138 0
M  V30 4871 C 473.922 2.10387 -1.01289 0
M  V30 4872 C 474.903 1.69975 0.0651454 0
M  V30 4873 O 476.088 1.9396 -0.0964628 0
M  V30 4874 C 473.218 3.42312 -0.586517 0
M  V30 4875 C 472.172 3.96558 -1.61014 0
M  V30 4876 C 471.498 5.24494 -1.0397 0
M  V30 4877 C 472.798 4.27595 -2.99933 0
M  V30 4878 H 474.492 2.28086 -1.93951 0
M  V30 4879 H 472.038 1.09607 -0.933928 0
M  V30 4880 H 473.991 4.19223 -0.427793 0
M  V30 4881 H 472.715 3.24431 0.375761 0
M  V30 4882 H 471.374 3.21776 -1.75658 0
M  V30 4883 H 471.022 5.02953 -0.0688703 0
M  V30 4884 H 470.722 5.61755 -1.72352 0
M  V30 4885 H 472.246 6.04042 -0.892494 0
M  V30 4886 H 473.66 4.95315 -2.8868 0
M  V30 4887 H 472.057 4.76021 -3.6541 0
M  V30 4888 H 473.127 3.35498 -3.50099 0
M  V30 4889 N 474.47 1.03057 1.19235 0
M  V30 4890 C 475.881 0.757449 1.70645 0
M  V30 4891 C 476.232 -0.722735 1.82403 0
M  V30 4892 O 475.357 -1.56325 1.49638 0
M  V30 4893 C 475.952 1.36833 3.09939 0
M  V30 4894 C 474.511 1.14375 3.58602 0
M  V30 4895 C 473.658 1.46533 2.35422 0
M  V30 4896 H 476.609 1.19828 1.04052 0
M  V30 4897 H 476.63 0.766184 3.72706 0
M  V30 4898 H 476.142 2.44562 3.01349 0
M  V30 4899 H 474.243 0.0847542 3.72504 0
M  V30 4900 H 474.356 1.83366 4.42622 0
M  V30 4901 H 472.72 0.884712 2.38841 0
M  V30 4902 H 473.503 2.55349 2.2946 0
M  V30 4903 N 475.948 -1.35272 0.808662 0
M  V30 4904 C 477.173 -2.03477 0.401475 0
M  V30 4905 C 477.598 -1.60537 -0.980279 0
M  V30 4906 O 476.956 -0.78304 -1.63518 0
M  V30 4907 C 477.004 -3.57181 0.495354 0
M  V30 4908 O 476.108 -4.09474 -0.490397 0
M  V30 4909 H 475.449 -0.642561 0.167366 0
M  V30 4910 H 477.979 -1.72824 1.09512 0
M  V30 4911 H 477.989 -4.06356 0.365912 0
M  V30 4912 H 476.664 -3.87784 1.5032 0
M  V30 4913 H 475.241 -3.71516 -0.321023 0
M  V30 4914 N 477.426 -0.562348 -1.47226 0
M  V30 4915 C 478.651 -0.0432632 -2.07355 0
M  V30 4916 C 479.076 1.24332 -1.41149 0
M  V30 4917 O 478.434 1.74603 -0.488226 0
M  V30 4918 C 478.482 0.130288 -3.60365 0
M  V30 4919 O 477.586 1.19166 -3.94808 0
M  V30 4920 H 476.927 -0.0536334 -0.66183 0
M  V30 4921 H 479.457 -0.779495 -1.89169 0
M  V30 4922 H 479.467 0.342881 -4.06557 0
M  V30 4923 H 478.142 -0.809389 -4.07948 0
M  V30 4924 H 476.719 0.959153 -3.60354 0
M  V30 4925 N 478.904 1.54736 -0.299062 0
M  V30 4926 C 480.153 1.99279 0.311549 0
M  V30 4927 C 480.466 1.19107 1.55154 0
M  V30 4928 O 481.672 1.53908 2.23662 0
M  V30 4929 C 480.128 3.54768 0.605632 0
M  V30 4930 C 479.736 4.43746 -0.615914 0
M  V30 4931 C 481.48 4.07841 1.17754 0
M  V30 4932 C 479.387 5.90663 -0.29509 0
M  V30 4933 H 478.317 0.744359 0.120187 0
M  V30 4934 H 480.968 1.78919 -0.407464 0
M  V30 4935 H 479.35 3.71021 1.38419 0
M  V30 4936 H 480.524 4.39267 -1.39218 0
M  V30 4937 H 478.839 4.01434 -1.10633 0
M  V30 4938 H 481.436 5.15174 1.43179 0
M  V30 4939 H 481.779 3.58324 2.11918 0
M  V30 4940 H 482.312 3.95123 0.460739 0
M  V30 4941 H 479.051 6.44325 -1.20524 0
M  V30 4942 H 478.571 5.98155 0.44394 0
M  V30 4943 H 480.25 6.46916 0.104048 0
M  V30 4944 N 480.382 0.0267497 1.57577 0
M  V30 4945 C 481.292 -0.971633 2.13533 0
M  V30 4946 C 482.308 -1.35868 1.08701 0
M  V30 4947 O 483.484 -1.44058 1.40746 0
M  V30 4948 C 480.549 -2.23622 2.64941 0
M  V30 4949 C 479.61 -1.90982 3.8448 0
M  V30 4950 C 478.843 -3.11411 4.33427 0
M  V30 4951 O 479.066 -4.23992 3.81558 0
M  V30 4952 O 478 -2.93848 5.25297 0
M  V30 4953 H 481.826 -0.525853 2.99113 0
M  V30 4954 H 479.411 -0.193712 1.48139 0
M  V30 4955 H 481.293 -2.97864 2.98086 0
M  V30 4956 H 479.968 -2.67386 1.82446 0
M  V30 4957 H 478.875 -1.14132 3.56265 0
M  V30 4958 H 480.208 -1.52036 4.6813 0
M  V30 4959 N 481.861 -1.55662 -0.24637 0
M  V30 4960 C 482.808 -1.90361 -1.30504 0
M  V30 4961 C 483.778 -0.757905 -1.47801 0
M  V30 4962 O 484.963 -1.01161 -1.61775 0
M  V30 4963 C 482.103 -2.2042 -2.65535 0
M  V30 4964 C 481.216 -3.47799 -2.56242 0
M  V30 4965 C 480.351 -3.67426 -3.8363 0
M  V30 4966 C 479.39 -4.88403 -3.68956 0
M  V30 4967 N 478.527 -5.04548 -4.88237 0
M  V30 4968 H 483.367 -2.80645 -1.00213 0
M  V30 4969 H 480.904 -1.38924 -0.483577 0
M  V30 4970 H 482.862 -2.35853 -3.44135 0
M  V30 4971 H 481.492 -1.3334 -2.93973 0
M  V30 4972 H 480.544 -3.40694 -1.69208 0
M  V30 4973 H 481.856 -4.36544 -2.4131 0
M  V30 4974 H 481.01 -3.82821 -4.70673 0
M  V30 4975 H 479.749 -2.76914 -4.01459 0
M  V30 4976 H 478.754 -4.72984 -2.80296 0
M  V30 4977 H 479.979 -5.80375 -3.52621 0
M  V30 4978 H 477.925 -4.16974 -5.06427 0
M  V30 4979 H 477.842 -5.87384 -4.75937 0
M  V30 4980 H 479.11 -5.24355 -5.76777 0
M  V30 4981 N 483.339 0.512053 -1.4905 0
M  V30 4982 C 484.567 1.29116 -1.61669 0
M  V30 4983 C 484.982 1.86655 -0.283787 0
M  V30 4984 O 484.339 1.67293 0.729331 0
M  V30 4985 C 484.39 2.4293 -2.67707 0
M  V30 4986 O 484.111 1.87758 -3.95826 0
M  V30 4987 C 485.612 3.34476 -2.90931 0
M  V30 4988 H 482.832 0.392009 -0.544583 0
M  V30 4989 H 485.376 0.615881 -1.95006 0
M  V30 4990 H 483.531 3.06308 -2.37179 0
M  V30 4991 H 483.945 2.62393 -4.54148 0
M  V30 4992 H 485.419 4.10642 -3.68886 0
M  V30 4993 H 485.896 3.90801 -2.00427 0
M  V30 4994 H 486.502 2.76874 -3.22832 0
M  V30 4995 N 484.817 1.37938 0.762283 0
M  V30 4996 C 486.066 1.32989 1.51647 0
M  V30 4997 C 486.379 -0.0802922 1.95435 0
M  V30 4998 O 487.585 -0.252295 2.70325 0
M  V30 4999 C 486.041 2.33485 2.73885 0
M  V30 5000 C 485.649 3.80079 2.37157 0
M  V30 5001 C 487.393 2.37563 3.51801 0
M  V30 5002 C 485.3 4.72283 3.55954 0
M  V30 5003 H 484.23 0.494301 0.56937 0
M  V30 5004 H 486.881 1.63448 0.834083 0
M  V30 5005 H 485.263 1.96056 3.44061 0
M  V30 5006 H 486.437 4.26398 1.74704 0
M  V30 5007 H 484.752 3.79037 1.72395 0
M  V30 5008 H 487.349 3.0365 4.40114 0
M  V30 5009 H 487.692 1.39199 3.92338 0
M  V30 5010 H 488.225 2.73747 2.8863 0
M  V30 5011 H 484.964 5.7181 3.2049 0
M  V30 5012 H 484.484 4.30663 4.1748 0
M  V30 5013 H 486.163 4.89876 4.22647 0
M  V30 5014 N 486.295 -0.989507 1.22664 0
M  V30 5015 C 487.52 -1.77031 1.08051 0
M  V30 5016 C 487.945 -1.84535 -0.364483 0
M  V30 5017 O 487.303 -1.3003 -1.2634 0
M  V30 5018 C 487.351 -3.18 1.70024 0
M  V30 5019 O 486.455 -4.01161 0.956216 0
M  V30 5020 H 485.796 -0.545008 0.379292 0
M  V30 5021 H 488.326 -1.24277 1.62531 0
M  V30 5022 H 488.336 -3.68616 1.74888 0
M  V30 5023 H 487.011 -3.11853 2.75174 0
M  V30 5024 H 485.588 -3.59687 0.98384 0
M  V30 5025 N 487.773 -1.03688 -1.18687 0
M  V30 5026 C 488.72 -0.624624 -2.22187 0
M  V30 5027 C 489.69 0.365636 -1.62026 0
M  V30 5028 O 490.875 0.260481 -1.89014 0
M  V30 5029 C 488.015 0.0101738 -3.45099 0
M  V30 5030 C 487.128 -1.02709 -4.19613 0
M  V30 5031 C 486.263 -0.361213 -5.2997 0
M  V30 5032 C 485.302 -1.38384 -5.96252 0
M  V30 5033 N 484.439 -0.743196 -6.98155 0
M  V30 5034 H 489.279 -1.51176 -2.56807 0
M  V30 5035 H 486.816 -0.75636 -1.26165 0
M  V30 5036 H 488.774 0.395528 -4.15321 0
M  V30 5037 H 487.404 0.860848 -3.1111 0
M  V30 5038 H 486.456 -1.53043 -3.48256 0
M  V30 5039 H 487.768 -1.80398 -4.65036 0
M  V30 5040 H 486.922 0.0785537 -6.06649 0
M  V30 5041 H 485.661 0.447799 -4.8564 0
M  V30 5042 H 484.666 -1.83378 -5.18317 0
M  V30 5043 H 485.891 -2.19448 -6.42666 0
M  V30 5044 H 483.837 0.0455789 -6.55984 0
M  V30 5045 H 483.754 -1.45784 -7.41811 0
M  V30 5046 H 485.022 -0.327698 -7.78811 0
M  V30 5047 N 489.251 1.34841 -0.815825 0
M  V30 5048 C 490.214 2.27959 -0.238185 0
M  V30 5049 C 491.214 1.49983 0.579816 0
M  V30 5050 O 492.404 1.69617 0.396953 0
M  V30 5051 C 489.536 3.34314 0.666876 0
M  V30 5052 H 490.729 2.80558 -1.05958 0
M  V30 5053 H 488.282 1.44852 -0.587156 0
M  V30 5054 H 489.017 2.86916 1.5116 0
M  V30 5055 H 488.802 3.92014 0.0819106 0
M  V30 5056 H 490.292 4.0379 1.06506 0
M  V30 5057 N 490.729 0.570148 1.46925 0
M  V30 5058 C 491.676 -0.170257 2.30171 0
M  V30 5059 C 492.646 -0.896099 1.39855 0
M  V30 5060 O 493.831 -0.889248 1.68811 0
M  V30 5061 C 490.971 -1.18605 3.24079 0
M  V30 5062 C 490.084 -0.464947 4.29491 0
M  V30 5063 C 489.219 -1.46716 5.10537 0
M  V30 5064 C 488.258 -0.731758 6.0771 0
M  V30 5065 N 487.395 -1.68142 6.81669 0
M  V30 5066 H 492.235 0.545713 2.92961 0
M  V30 5067 H 489.772 0.280938 1.44392 0
M  V30 5068 H 491.73 -1.78771 3.76957 0
M  V30 5069 H 490.36 -1.86989 2.63125 0
M  V30 5070 H 489.412 0.251506 3.79568 0
M  V30 5071 H 490.724 0.110548 4.98677 0
M  V30 5072 H 489.878 -2.14199 5.6763 0
M  V30 5073 H 488.617 -2.07658 4.41282 0
M  V30 5074 H 487.622 -0.0430787 5.49783 0
M  V30 5075 H 488.847 -0.127904 6.7898 0
M  V30 5076 H 486.793 -2.27918 6.15134 0
M  V30 5077 H 486.71 -1.15841 7.47072 0
M  V30 5078 H 487.978 -2.347 7.43328 0
M  V30 5079 N 492.207 -1.54576 0.307264 0
M  V30 5080 C 493.455 -1.99867 -0.299574 0
M  V30 5081 C 493.776 -1.19714 -1.53927 0
M  V30 5082 O 493.046 -0.29472 -1.9367 0
M  V30 5083 H 491.626 -0.738299 -0.113683 0
M  V30 5084 H 494.288 -1.9032 0.420042 0
M  V30 5085 H 493.384 -3.06901 -0.567283 0
M  V30 5086 N 493.685 -0.035106 -1.57561 0
M  V30 5087 C 494.617 0.973604 -2.07494 0
M  V30 5088 C 495.63 1.28504 -0.999534 0
M  V30 5089 O 496.819 1.24864 -1.27559 0
M  V30 5090 C 493.919 2.29945 -2.48955 0
M  V30 5091 C 493.092 2.1723 -3.79644 0
M  V30 5092 C 492.151 3.328 -4.07592 0
M  V30 5093 O 491.177 3.09418 -4.77754 0
M  V30 5094 N 492.379 4.56779 -3.58236 0
M  V30 5095 H 495.144 0.547525 -2.94656 0
M  V30 5096 H 492.705 0.151515 -1.61189 0
M  V30 5097 H 494.697 3.06097 -2.64739 0
M  V30 5098 H 493.267 2.64173 -1.67126 0
M  V30 5099 H 492.487 1.25768 -3.73599 0
M  V30 5100 H 493.775 2.05945 -4.65257 0
M  V30 5101 H 493.173 4.78668 -3.01485 0
M  V30 5102 H 491.73 5.30079 -3.79288 0
M  V30 5103 N 495.163 1.55791 0.238111 0
M  V30 5104 C 496.574 1.68383 0.806472 0
M  V30 5105 C 496.925 0.634157 1.85669 0
M  V30 5106 O 496.05 -0.217913 2.153 0
M  V30 5107 C 496.645 3.05268 1.46959 0
M  V30 5108 C 495.204 3.1977 1.98555 0
M  V30 5109 C 494.351 2.64279 0.839763 0
M  V30 5110 H 497.302 1.58694 0.0137535 0
M  V30 5111 H 497.323 3.00203 2.33792 0
M  V30 5112 H 496.835 3.81643 0.704993 0
M  V30 5113 H 494.936 2.48234 2.77868 0
M  V30 5114 H 495.049 4.26788 2.17689 0
M  V30 5115 H 493.413 2.22329 1.24265 0
M  V30 5116 H 494.196 3.43187 0.0881032 0
M  V30 5117 N 496.642 -0.504142 1.49319 0
M  V30 5118 C 498.058 -0.835039 1.36012 0
M  V30 5119 C 498.258 -1.97674 0.390808 0
M  V30 5120 O 497.314 -2.51867 -0.178655 0
M  V30 5121 C 498.627 -1.17821 2.76656 0
M  V30 5122 C 500.175 -1.2866 2.85334 0
M  V30 5123 C 500.65 -1.66307 4.26739 0
M  V30 5124 N 502.141 -1.73362 4.29534 0
M  V30 5125 C 502.876 -2.0393 5.35911 0
M  V30 5126 N 502.372 -2.32744 6.52535 0
M  V30 5127 N 504.165 -2.05155 5.23324 0
M  V30 5128 H 496.316 0.248764 2.10938 0
M  V30 5129 H 498.579 0.0486962 0.946748 0
M  V30 5130 H 498.285 -0.412682 3.4927 0
M  V30 5131 H 498.159 -2.12239 3.11825 0
M  V30 5132 H 500.546 -2.04285 2.1296 0
M  V30 5133 H 500.627 -0.323004 2.53752 0
M  V30 5134 H 500.271 -0.91234 4.99639 0
M  V30 5135 H 500.201 -2.63761 4.55782 0
M  V30 5136 H 502.692 -1.53268 3.45424 0
M  V30 5137 H 503.005 -2.55248 7.2943 0
M  V30 5138 H 501.35 -2.30207 6.55767 0
M  V30 5139 H 504.541 -1.82119 4.3122 0
M  V30 5140 H 504.714 -2.28644 6.06322 0
M  V30 5141 N 498.12 -1.38341 -0.754957 0
M  V30 5142 C 499.03 -1.3769 -1.89944 0
M  V30 5143 C 500.046 -0.274194 -1.71826 0
M  V30 5144 O 501.222 -0.512391 -1.94773 0
M  V30 5145 C 498.287 -1.19938 -3.25293 0
M  V30 5146 C 497.348 -2.40001 -3.55946 0
M  V30 5147 C 496.581 -2.23087 -4.84838 0
M  V30 5148 O 496.804 -1.22386 -5.57116 0
M  V30 5149 O 495.738 -3.11646 -5.14937 0
M  V30 5150 H 499.564 -2.3412 -1.93446 0
M  V30 5151 H 497.149 -1.19246 -0.900044 0
M  V30 5152 H 499.031 -1.12093 -4.06218 0
M  V30 5153 H 497.706 -0.265919 -3.22606 0
M  V30 5154 H 496.613 -2.53421 -2.75188 0
M  V30 5155 H 497.946 -3.31973 -3.63394 0
M  V30 5156 N 499.598 0.982988 -1.23187 0
M  V30 5157 C 501.009 1.53847 -1.05773 0
M  V30 5158 C 501.36 1.92568 0.375744 0
M  V30 5159 O 500.485 1.75783 1.26211 0
M  V30 5160 C 501.08 2.79567 -1.91384 0
M  V30 5161 C 499.639 3.31524 -1.78238 0
M  V30 5162 C 498.786 2.04534 -1.87246 0
M  V30 5163 H 501.737 0.802962 -1.36888 0
M  V30 5164 H 501.758 3.52317 -1.43711 0
M  V30 5165 H 501.27 2.51353 -2.95708 0
M  V30 5166 H 499.371 3.64623 -0.766875 0
M  V30 5167 H 499.484 4.01457 -2.61475 0
M  V30 5168 H 497.848 2.1855 -1.30797 0
M  V30 5169 H 498.631 1.78706 -2.9312 0
M  V30 5170 N 501.076 1.04316 1.18135 0
M  V30 5171 C 502.008 0.594444 2.21357 0
M  V30 5172 C 503.021 -0.337215 1.59269 0
M  V30 5173 O 504.21 -0.131337 1.78016 0
M  V30 5174 C 501.31 -0.151251 3.38562 0
M  V30 5175 C 500.483 0.788907 4.30227 0
M  V30 5176 C 499.542 0.0860572 5.2613 0
M  V30 5177 O 498.568 0.717302 5.64662 0
M  V30 5178 N 499.77 -1.17969 5.68387 0
M  V30 5179 H 502.535 1.48227 2.60478 0
M  V30 5180 H 500.096 0.92396 1.32946 0
M  V30 5181 H 502.088 -0.631352 3.99745 0
M  V30 5182 H 500.658 -0.940639 2.98112 0
M  V30 5183 H 499.878 1.44882 3.6661 0
M  V30 5184 H 501.166 1.42738 4.88368 0
M  V30 5185 H 500.564 -1.71302 5.3914 0
M  V30 5186 H 499.121 -1.60402 6.31755 0
M  V30 5187 N 502.554 -1.34406 0.822964 0
M  V30 5188 C 503.8 -1.98578 0.411666 0
M  V30 5189 C 504.133 -1.65093 -1.02264 0
M  V30 5190 O 503.408 -0.92258 -1.71227 0
M  V30 5191 C 503.691 -3.54823 0.614235 0
M  V30 5192 C 503.544 -3.9805 2.09466 0
M  V30 5193 C 504.863 -4.40071 0.050221 0
M  V30 5194 H 501.982 -0.721355 0.151047 0
M  V30 5195 H 504.624 -1.59301 1.03554 0
M  V30 5196 H 502.774 -3.88411 0.0831774 0
M  V30 5197 H 504.446 -3.74795 2.68936 0
M  V30 5198 H 502.689 -3.4836 2.5851 0
M  V30 5199 H 503.36 -5.06819 2.18721 0
M  V30 5200 H 505.836 -4.13037 0.503953 0
M  V30 5201 H 504.712 -5.48452 0.221759 0
M  V30 5202 H 504.973 -4.29576 -1.04482 0
M  V30 5203 N 504.032 -0.577932 -1.46621 0
M  V30 5204 C 505.262 -0.0670668 -2.06491 0
M  V30 5205 C 505.67 1.24119 -1.42798 0
M  V30 5206 O 505.013 1.76016 -0.525759 0
M  V30 5207 C 505.075 0.177995 -3.59059 0
M  V30 5208 C 504.739 -1.04394 -4.44917 0
M  V30 5209 C 505.736 -1.95479 -4.81751 0
M  V30 5210 C 503.421 -1.26444 -4.86125 0
M  V30 5211 C 505.415 -3.06965 -5.58615 0
M  V30 5212 C 503.102 -2.38237 -5.62749 0
M  V30 5213 C 504.1 -3.28327 -5.98908 0
M  V30 5214 O 503.788 -4.38179 -6.73984 0
M  V30 5215 H 503.52 -0.0523159 -0.673973 0
M  V30 5216 H 506.074 -0.796966 -1.89308 0
M  V30 5217 H 504.304 0.962451 -3.74531 0
M  V30 5218 H 505.993 0.636782 -4.00874 0
M  V30 5219 H 506.759 -1.79657 -4.50498 0
M  V30 5220 H 502.638 -0.572316 -4.57434 0
M  V30 5221 H 506.182 -3.77309 -5.86757 0
M  V30 5222 H 502.079 -2.54023 -5.93416 0
M  V30 5223 H 502.847 -4.36486 -6.92403 0
M  V30 5224 N 505.51 1.54411 -0.315457 0
M  V30 5225 C 506.738 2.04833 0.291738 0
M  V30 5226 C 507.153 1.19203 1.46411 0
M  V30 5227 O 506.51 0.220867 1.81159 0
M  V30 5228 C 506.561 3.53969 0.73404 0
M  V30 5229 O 506.282 4.36346 -0.391682 0
M  V30 5230 C 507.783 4.2045 1.40489 0
M  V30 5231 H 505.003 0.668195 0.0612947 0
M  V30 5232 H 507.547 1.99276 -0.45929 0
M  V30 5233 H 505.702 3.5984 1.43506 0
M  V30 5234 H 506.116 5.24481 -0.0447088 0
M  V30 5235 H 507.59 5.26278 1.66539 0
M  V30 5236 H 508.067 3.71067 2.3496 0
M  V30 5237 H 508.673 4.18694 0.746662 0
M  V30 5238 N 506.988 0.0434614 1.5754 0
M  V30 5239 C 507.918 -0.931651 2.14109 0
M  V30 5240 C 508.899 -1.32971 1.06079 0
M  V30 5241 O 510.084 -1.40579 1.33982 0
M  V30 5242 C 507.214 -2.20914 2.67982 0
M  V30 5243 C 506.168 -1.95139 3.80926 0
M  V30 5244 C 505.494 -3.29276 4.21285 0
M  V30 5245 C 506.794 -1.27913 5.06395 0
M  V30 5246 H 508.488 -0.460497 2.95837 0
M  V30 5247 H 506.034 -0.220058 1.42309 0
M  V30 5248 H 507.987 -2.89522 3.06194 0
M  V30 5249 H 506.711 -2.70221 1.83434 0
M  V30 5250 H 505.37 -1.28945 3.43175 0
M  V30 5251 H 505.018 -3.76369 3.33699 0
M  V30 5252 H 504.718 -3.12831 4.97404 0
M  V30 5253 H 506.242 -3.99129 4.62091 0
M  V30 5254 H 507.656 -1.86544 5.42102 0
M  V30 5255 H 506.053 -1.2182 5.87605 0
M  V30 5256 H 507.123 -0.254066 4.84234 0
M  V30 5257 N 508.466 -1.55915 -0.229846 0
M  V30 5258 C 509.877 -1.68809 -0.797531 0
M  V30 5259 C 510.228 -0.643995 -1.8533 0
M  V30 5260 O 509.353 0.206492 -2.15413 0
M  V30 5261 C 509.948 -3.06043 -1.45338 0
M  V30 5262 C 508.507 -3.20819 -1.96856 0
M  V30 5263 C 507.654 -2.6472 -0.825736 0
M  V30 5264 H 510.605 -1.58699 -0.00533733 0
M  V30 5265 H 510.626 -3.01438 -2.32196 0
M  V30 5266 H 510.138 -3.82012 -0.684743 0
M  V30 5267 H 508.239 -2.49704 -2.76548 0
M  V30 5268 H 508.352 -4.27937 -2.15423 0
M  V30 5269 H 506.716 -2.22985 -1.23084 0
M  V30 5270 H 507.499 -3.43229 -0.0699019 0
M  V30 5271 N 509.944 0.496216 -1.49584 0
M  V30 5272 C 511.355 1.07765 -1.52459 0
M  V30 5273 C 511.706 1.93679 -0.31353 0
M  V30 5274 O 510.831 2.08588 0.576186 0
M  V30 5275 C 511.426 1.96111 -2.76271 0
M  V30 5276 C 509.985 2.49409 -2.81908 0
M  V30 5277 C 509.132 1.27142 -2.46435 0
M  V30 5278 H 512.083 0.279914 -1.56212 0
M  V30 5279 H 512.104 2.80862 -2.56704 0
M  V30 5280 H 511.616 1.33555 -3.64396 0
M  V30 5281 H 509.717 3.1559 -1.98074 0
M  V30 5282 H 509.83 2.86234 -3.84196 0
M  V30 5283 H 508.194 1.59818 -1.98319 0
M  V30 5284 H 508.977 0.662866 -3.3684 0
M  V30 5285 N 511.423 1.38739 0.74761 0
M  V30 5286 C 512.648 1.38702 1.54197 0
M  V30 5287 C 513.073 -0.019664 1.8809 0
M  V30 5288 O 512.431 -1.00333 1.51006 0
M  V30 5289 C 512.479 2.25492 2.814 0
M  V30 5290 O 511.583 1.67613 3.76802 0
M  V30 5291 H 510.924 0.472863 0.466151 0
M  V30 5292 H 513.454 1.82577 0.923413 0
M  V30 5293 H 513.464 2.39561 3.30264 0
M  V30 5294 H 512.139 3.27727 2.56062 0
M  V30 5295 H 510.716 1.62718 3.35526 0
M  V30 5296 N 512.901 -0.976442 1.23707 0
M  V30 5297 C 513.833 -2.07212 0.979574 0
M  V30 5298 C 514.846 -1.6273 -0.0478528 0
M  V30 5299 O 516.035 -1.77506 0.18815 0
M  V30 5300 C 513.135 -3.35835 0.45479 0
M  V30 5301 C 512.308 -4.09268 1.54331 0
M  V30 5302 C 511.367 -5.16166 1.02271 0
M  V30 5303 O 510.393 -5.42827 1.71254 0
M  V30 5304 N 511.595 -5.80313 -0.147419 0
M  V30 5305 H 514.36 -2.29878 1.92292 0
M  V30 5306 H 511.921 -1.14343 1.14618 0
M  V30 5307 H 513.913 -4.04597 0.0914631 0
M  V30 5308 H 512.483 -3.10106 -0.394068 0
M  V30 5309 H 511.703 -3.34906 2.07923 0
M  V30 5310 H 512.991 -4.55095 2.27522 0
M  V30 5311 H 512.389 -5.61043 -0.724353 0
M  V30 5312 H 510.946 -6.50231 -0.451972 0
M  V30 5313 N 514.379 -1.04941 -1.1758 0
M  V30 5314 C 515.289 -0.658826 -2.25159 0
M  V30 5315 C 516.305 0.318941 -1.71052 0
M  V30 5316 O 517.481 0.171669 -2.00667 0
M  V30 5317 C 514.546 -0.0369522 -3.4668 0
M  V30 5318 C 513.607 -1.06484 -4.15884 0
M  V30 5319 C 512.84 -0.472551 -5.31604 0
M  V30 5320 O 513.063 0.718736 -5.65854 0
M  V30 5321 O 511.997 -1.20557 -5.89703 0
M  V30 5322 H 515.823 -1.55533 -2.60851 0
M  V30 5323 H 513.408 -0.820819 -1.24832 0
M  V30 5324 H 515.29 0.308784 -4.20267 0
M  V30 5325 H 513.965 0.833238 -3.12792 0
M  V30 5326 H 512.872 -1.46253 -3.44327 0
M  V30 5327 H 514.205 -1.9061 -4.53794 0
M  V30 5328 N 515.857 1.33968 -0.830081 0
M  V30 5329 C 516.767 2.33164 -0.259207 0
M  V30 5330 C 517.783 1.62951 0.610164 0
M  V30 5331 O 518.959 1.94668 0.516369 0
M  V30 5332 C 516.024 3.42088 0.563598 0
M  V30 5333 C 515.085 4.28037 -0.329014 0
M  V30 5334 C 514.318 5.3176 0.454616 0
M  V30 5335 O 514.541 5.44876 1.6872 0
M  V30 5336 O 513.475 6.01669 -0.166794 0
M  V30 5337 H 517.301 2.83832 -1.08041 0
M  V30 5338 H 514.886 1.37154 -0.59239 0
M  V30 5339 H 516.768 4.08581 1.03147 0
M  V30 5340 H 515.443 2.93651 1.36201 0
M  V30 5341 H 514.35 3.64443 -0.844538 0
M  V30 5342 H 515.683 4.79934 -1.09196 0
M  V30 5343 N 517.335 0.585699 1.46312 0
M  V30 5344 C 518.268 -0.194257 2.27372 0
M  V30 5345 C 519.246 -0.894116 1.3581 0
M  V30 5346 O 520.43 -0.907402 1.65222 0
M  V30 5347 C 517.557 -1.27901 3.13622 0
M  V30 5348 C 516.603 -0.684666 4.20969 0
M  V30 5349 S 517.436 0.490745 5.33247 0
M  V30 5350 C 518.592 -0.595137 6.23064 0
M  V30 5351 H 518.825 0.493515 2.93175 0
M  V30 5352 H 516.358 0.372666 1.49835 0
M  V30 5353 H 518.316 -1.90008 3.63878 0
M  V30 5354 H 516.977 -1.93875 2.47126 0
M  V30 5355 H 516.17 -1.50015 4.81156 0
M  V30 5356 H 515.772 -0.139204 3.73741 0
M  V30 5357 H 518.064 -1.48002 6.61137 0
M  V30 5358 H 519.007 -0.0299446 7.08094 0
M  V30 5359 H 519.415 -0.900627 5.57269 0
M  V30 5360 N 518.813 -1.54241 0.323641 0
M  V30 5361 C 520.041 -2.04985 -0.280871 0
M  V30 5362 C 520.456 -1.19978 -1.45777 0
M  V30 5363 O 519.813 -0.230471 -1.81039 0
M  V30 5364 C 519.864 -3.54353 -0.715258 0
M  V30 5365 O 519.585 -4.36132 0.414817 0
M  V30 5366 C 521.086 -4.21189 -1.38257 0
M  V30 5367 H 518.306 -0.66851 -0.0577502 0
M  V30 5368 H 520.85 -1.99029 0.469852 0
M  V30 5369 H 519.005 -3.60596 -1.41596 0
M  V30 5370 H 519.419 -5.2445 0.0725227 0
M  V30 5371 H 520.893 -5.27154 -1.63745 0
M  V30 5372 H 521.37 -3.72307 -2.32989 0
M  V30 5373 H 521.976 -4.19085 -0.724447 0
M  V30 5374 N 520.291 -0.0518155 -1.57515 0
M  V30 5375 C 521.238 0.922352 -2.11569 0
M  V30 5376 C 522.208 1.30842 -1.02321 0
M  V30 5377 O 523.393 1.39778 -1.29872 0
M  V30 5378 C 520.533 2.19167 -2.6657 0
M  V30 5379 C 519.646 1.86003 -3.89906 0
M  V30 5380 C 518.781 3.07398 -4.33221 0
M  V30 5381 C 517.82 2.70158 -5.49255 0
M  V30 5382 N 516.957 3.84248 -5.8762 0
M  V30 5383 H 521.797 0.454506 -2.94514 0
M  V30 5384 H 519.334 0.212718 -1.45554 0
M  V30 5385 H 521.292 2.93443 -2.96559 0
M  V30 5386 H 519.922 2.63528 -1.86421 0
M  V30 5387 H 518.974 1.01874 -3.66505 0
M  V30 5388 H 520.286 1.54592 -4.74239 0
M  V30 5389 H 519.44 3.89972 -4.64765 0
M  V30 5390 H 518.179 3.41988 -3.477 0
M  V30 5391 H 517.184 1.86001 -5.17382 0
M  V30 5392 H 518.409 2.36759 -6.36492 0
M  V30 5393 H 516.355 4.18638 -5.05053 0
M  V30 5394 H 516.272 3.56538 -6.66646 0
M  V30 5395 H 517.54 4.6746 -6.2378 0
M  V30 5396 N 521.769 1.56035 0.221574 0
M  V30 5397 C 522.717 1.93269 1.29421 0
M  V30 5398 C 523.711 0.814727 1.48521 0
M  V30 5399 O 524.917 0.999559 1.49696 0
M  V30 5400 H 521.292 0.614188 0.43391 0
M  V30 5401 H 523.263 2.82773 0.952987 0
M  V30 5402 C 522.012 2.26573 2.63742 0
M  V30 5403 H 521.335 3.12112 2.49853 0
M  V30 5404 H 522.775 2.5651 3.37607 0
M  V30 5405 C 521.234 1.09086 3.1875 0
M  V30 5406 O 521.764 0.351985 4.00155 0
M  V30 5407 N 519.97 0.874693 2.77124 0
M  V30 5408 H 519.517 1.47726 2.11033 0
M  V30 5409 H 519.475 0.0903349 3.1427 0
M  V30 5410 N 523.247 -0.488276 1.49845 0
M  V30 5411 C 524.179 -1.60539 1.63584 0
M  V30 5412 C 525.192 -1.5434 0.517972 0
M  V30 5413 O 526.381 -1.60041 0.790516 0
M  V30 5414 C 523.481 -2.99374 1.58835 0
M  V30 5415 C 522.654 -3.30624 2.86368 0
M  V30 5416 C 521.713 -4.4893 2.74496 0
M  V30 5417 O 520.739 -4.50085 3.48443 0
M  V30 5418 N 521.941 -5.49591 1.86894 0
M  V30 5419 H 524.706 -1.49176 2.59936 0
M  V30 5420 H 522.267 -0.67639 1.47094 0
M  V30 5421 H 524.259 -3.76459 1.48529 0
M  V30 5422 H 522.829 -3.04595 0.702892 0
M  V30 5423 H 522.049 -2.42314 3.1093 0
M  V30 5424 H 523.337 -3.48305 3.70892 0
M  V30 5425 H 522.735 -5.51467 1.26097 0
M  V30 5426 H 521.292 -6.25728 1.82503 0
M  V30 5427 N 524.725 -1.39134 -0.740242 0
M  V30 5428 C 525.971 -1.36273 -1.50192 0
M  V30 5429 C 526.304 0.0430136 -1.94152 0
M  V30 5430 O 525.579 1.00691 -1.66408 0
M  V30 5431 C 525.862 -2.33041 -2.74525 0
M  V30 5432 C 525.715 -3.82535 -2.36617 0
M  V30 5433 C 527.034 -2.27723 -3.76604 0
M  V30 5434 H 524.153 -0.496323 -0.544823 0
M  V30 5435 H 526.795 -1.70085 -0.846815 0
M  V30 5436 H 524.945 -2.04337 -3.30422 0
M  V30 5437 H 526.617 -4.21967 -1.86391 0
M  V30 5438 H 524.86 -3.99565 -1.68909 0
M  V30 5439 H 525.531 -4.45723 -3.2563 0
M  V30 5440 H 528.007 -2.53091 -3.30279 0
M  V30 5441 H 526.883 -2.97519 -4.61274 0
M  V30 5442 H 527.144 -1.28049 -4.2315 0
M  V30 5443 N 526.204 0.969867 -1.24223 0
M  V30 5444 C 527.429 1.75289 -1.10853 0
M  V30 5445 C 527.854 1.85091 0.335079 0
M  V30 5446 O 527.212 1.32024 1.24255 0
M  V30 5447 C 527.26 3.15255 -1.75062 0
M  V30 5448 O 526.364 3.99589 -1.01992 0
M  V30 5449 H 525.705 0.538904 -0.387915 0
M  V30 5450 H 528.235 1.21675 -1.64488 0
M  V30 5451 H 528.245 3.65787 -1.80731 0
M  V30 5452 H 526.92 3.07436 -2.801 0
M  V30 5453 H 525.497 3.58077 -1.04094 0
M  V30 5454 N 527.682 1.05563 1.17022 0
M  V30 5455 C 528.612 0.681026 2.23348 0
M  V30 5456 C 529.593 -0.322983 1.67005 0
M  V30 5457 O 530.778 -0.199746 1.9317 0
M  V30 5458 C 527.908 0.0589053 3.4725 0
M  V30 5459 C 526.862 0.988082 4.16438 0
M  V30 5460 C 526.188 0.229646 5.34207 0
M  V30 5461 C 527.488 2.31388 4.68249 0
M  V30 5462 H 529.182 1.56993 2.54938 0
M  V30 5463 H 526.728 0.756302 1.2254 0
M  V30 5464 H 528.681 -0.214982 4.20851 0
M  V30 5465 H 527.405 -0.864968 3.14938 0
M  V30 5466 H 526.064 1.24659 3.44754 0
M  V30 5467 H 525.712 -0.697111 4.98146 0
M  V30 5468 H 525.412 0.848815 5.81437 0
M  V30 5469 H 526.936 -0.0368694 6.10589 0
M  V30 5470 H 528.35 2.09964 5.33468 0
M  V30 5471 H 526.747 2.88736 5.26072 0
M  V30 5472 H 527.817 2.94982 3.84855 0
M  V30 5473 N 529.16 -1.33526 0.837174 0
M  V30 5474 C 530.388 -2.02047 0.445494 0
M  V30 5475 C 530.803 -1.62995 -0.952788 0
M  V30 5476 O 530.16 -0.842447 -1.61892 0
M  V30 5477 C 530.211 -3.57221 0.554577 0
M  V30 5478 O 529.932 -3.94863 1.89776 0
M  V30 5479 C 531.433 -4.43012 0.159634 0
M  V30 5480 H 528.653 -0.647221 0.177048 0
M  V30 5481 H 531.197 -1.70492 1.12928 0
M  V30 5482 H 529.352 -3.87315 -0.0812781 0
M  V30 5483 H 529.766 -4.89569 1.88208 0
M  V30 5484 H 531.24 -5.51253 0.28701 0
M  V30 5485 H 531.717 -4.29916 -0.898289 0
M  V30 5486 H 532.323 -4.18274 0.769855 0
M  V30 5487 N 530.638 -0.59345 -1.46 0
M  V30 5488 C 531.878 -0.0859747 -2.04219 0
M  V30 5489 C 532.242 1.25432 -1.45364 0
M  V30 5490 O 533.443 1.85168 -1.9485 0
M  V30 5491 C 531.714 -0.0324314 -3.57385 0
M  V30 5492 S 533.273 0.415908 -4.36824 0
M  V30 5493 H 530.091 -0.0426872 -0.709717 0
M  V30 5494 H 532.693 -0.788369 -1.78899 0
M  V30 5495 H 531.397 -1.01166 -3.97735 0
M  V30 5496 H 530.928 0.6924 -3.87259 0
M  V30 5497 H 532.943 1.66844 -4.67309 0
M  V30 5498 N 532.116 1.54067 -0.331816 0
M  V30 5499 C 533.046 2.27569 0.522932 0
M  V30 5500 C 534.027 1.28679 1.11247 0
M  V30 5501 O 535.212 1.57504 1.13605 0
M  V30 5502 C 532.342 3.0397 1.67987 0
M  V30 5503 C 531.296 4.10267 1.21924 0
M  V30 5504 C 530.622 4.74555 2.46377 0
M  V30 5505 C 531.922 5.21268 0.32815 0
M  V30 5506 H 533.616 2.99264 -0.0901977 0
M  V30 5507 H 531.162 1.4393 -0.044821 0
M  V30 5508 H 533.115 3.54123 2.28418 0
M  V30 5509 H 531.839 2.29906 2.31971 0
M  V30 5510 H 530.498 3.61009 0.637809 0
M  V30 5511 H 530.146 3.97098 3.08743 0
M  V30 5512 H 529.846 5.46363 2.16243 0
M  V30 5513 H 531.37 5.27487 3.07555 0
M  V30 5514 H 532.784 5.67128 0.838978 0
M  V30 5515 H 531.181 5.99982 0.119228 0
M  V30 5516 H 532.251 4.80673 -0.638839 0
M  V30 5517 N 533.594 0.0601682 1.57485 0
M  V30 5518 C 534.84 -0.612501 1.93329 0
M  V30 5519 C 535.173 -1.6996 0.939526 0
M  V30 5520 O 534.448 -1.94472 -0.0330957 0
M  V30 5521 C 534.731 -1.20025 3.39508 0
M  V30 5522 C 534.584 -0.12059 4.49638 0
M  V30 5523 C 535.903 -2.10923 3.86264 0
M  V30 5524 H 533.022 -0.221185 0.703027 0
M  V30 5525 H 535.664 0.123768 1.89596 0
M  V30 5526 H 533.814 -1.82774 3.42821 0
M  V30 5527 H 535.486 0.51185 4.58452 0
M  V30 5528 H 533.729 0.550251 4.30296 0
M  V30 5529 H 534.4 -0.572019 5.49028 0
M  V30 5530 H 536.876 -1.58124 3.84884 0
M  V30 5531 H 535.752 -2.48987 4.8918 0
M  V30 5532 H 536.013 -3.01292 3.23536 0
M  V30 5533 N 535.072 -1.5615 -0.213296 0
M  V30 5534 C 536.019 -1.93086 -1.26437 0
M  V30 5535 C 536.989 -0.789086 -1.4616 0
M  V30 5536 O 538.174 -1.04569 -1.59593 0
M  V30 5537 C 535.314 -2.26003 -2.608 0
M  V30 5538 C 534.427 -3.53156 -2.48807 0
M  V30 5539 C 533.562 -3.7548 -3.7575 0
M  V30 5540 C 532.601 -4.96119 -3.58514 0
M  V30 5541 N 531.738 -5.14791 -4.77425 0
M  V30 5542 H 536.578 -2.82707 -0.942376 0
M  V30 5543 H 534.115 -1.39919 -0.454001 0
M  V30 5544 H 536.073 -2.431 -3.39055 0
M  V30 5545 H 534.703 -1.39546 -2.91079 0
M  V30 5546 H 533.755 -3.44207 -1.61944 0
M  V30 5547 H 535.067 -4.41565 -2.31996 0
M  V30 5548 H 534.221 -3.92718 -4.62447 0
M  V30 5549 H 532.96 -2.85368 -3.95495 0
M  V30 5550 H 531.965 -4.78823 -2.70201 0
M  V30 5551 H 533.19 -5.87724 -3.40231 0
M  V30 5552 H 531.136 -4.27623 -4.97468 0
M  V30 5553 H 531.053 -5.97347 -4.63371 0
M  V30 5554 H 532.321 -5.36471 -5.65525 0
M  V30 5555 N 536.55 0.480323 -1.50102 0
M  V30 5556 C 537.798 1.23063 -1.60312 0
M  V30 5557 C 538.119 1.92659 -0.301226 0
M  V30 5558 O 537.389 1.83691 0.680753 0
M  V30 5559 H 535.969 0.457231 -0.590719 0
M  V30 5560 H 538.631 0.554893 -1.86834 0
M  V30 5561 H 537.727 1.9835 -2.40964 0
M  V30 5562 N 538.028 1.39524 0.732853 0
M  V30 5563 C 539.275 1.36865 1.49246 0
M  V30 5564 C 539.603 -0.0347118 1.94469 0
M  V30 5565 O 538.858 -1.01596 1.67262 0
M  V30 5566 C 539.157 2.28916 2.74468 0
M  V30 5567 C 538.823 3.76506 2.481 0
M  V30 5568 C 537.485 4.16721 2.40619 0
M  V30 5569 C 539.837 4.69846 2.25598 0
M  V30 5570 C 537.165 5.48334 2.08679 0
M  V30 5571 C 539.517 6.01739 1.95174 0
M  V30 5572 C 538.181 6.41015 1.86163 0
M  V30 5573 H 537.451 0.500824 0.546129 0
M  V30 5574 H 540.098 1.72047 0.840958 0
M  V30 5575 H 538.403 1.86859 3.4437 0
M  V30 5576 H 540.1 2.2415 3.32502 0
M  V30 5577 H 536.69 3.44635 2.54803 0
M  V30 5578 H 540.874 4.39608 2.30344 0
M  V30 5579 H 536.13 5.77685 2.00226 0
M  V30 5580 H 540.304 6.73591 1.76771 0
M  V30 5581 H 537.931 7.42917 1.61179 0
M  V30 5582 N 539.506 -0.963266 1.24736 0
M  V30 5583 C 540.736 -1.73913 1.11524 0
M  V30 5584 C 541.144 -1.86218 -0.334612 0
M  V30 5585 O 540.487 -1.3531 -1.24245 0
M  V30 5586 C 540.549 -3.17501 1.68622 0
M  V30 5587 C 540.213 -3.28655 3.17546 0
M  V30 5588 C 541.21 -3.13637 4.14642 0
M  V30 5589 C 538.895 -3.52753 3.5759 0
M  V30 5590 C 540.889 -3.2255 5.49764 0
M  V30 5591 C 538.576 -3.61303 4.92852 0
M  V30 5592 C 539.574 -3.46214 5.88748 0
M  V30 5593 O 539.262 -3.5443 7.2155 0
M  V30 5594 H 538.994 -0.552057 0.390139 0
M  V30 5595 H 541.548 -1.2177 1.65412 0
M  V30 5596 H 539.778 -3.70969 1.09172 0
M  V30 5597 H 541.467 -3.76914 1.50635 0
M  V30 5598 H 542.233 -2.94899 3.85045 0
M  V30 5599 H 538.112 -3.63561 2.83451 0
M  V30 5600 H 541.656 -3.1069 6.24594 0
M  V30 5601 H 537.553 -3.79556 5.22118 0
M  V30 5602 H 538.321 -3.71116 7.29531 0
M  V30 5603 N 540.985 -1.06182 -1.16461 0
M  V30 5604 C 542.396 -0.802426 -1.68576 0
M  V30 5605 C 542.747 0.67412 -1.84255 0
M  V30 5606 O 541.872 1.52303 -1.5373 0
M  V30 5607 C 542.467 -1.45002 -3.06202 0
M  V30 5608 C 541.026 -1.23843 -3.55443 0
M  V30 5609 C 540.173 -1.52724 -2.31454 0
M  V30 5610 H 543.124 -1.22545 -1.00839 0
M  V30 5611 H 543.145 -0.864731 -3.70544 0
M  V30 5612 H 542.657 -2.52466 -2.94759 0
M  V30 5613 H 540.758 -0.183487 -3.72148 0
M  V30 5614 H 540.871 -1.95036 -4.37604 0
M  V30 5615 H 539.235 -0.947726 -2.36411 0
M  V30 5616 H 540.018 -2.61343 -2.22609 0
M  V30 5617 N 542.463 1.3308 -0.844243 0
M  V30 5618 C 543.688 2.02341 -0.455282 0
M  V30 5619 C 544.113 1.6308 0.93737 0
M  V30 5620 O 543.471 0.826118 1.61385 0
M  V30 5621 C 543.519 3.55743 -0.58988 0
M  V30 5622 O 542.623 4.1063 0.38166 0
M  V30 5623 H 541.964 0.637898 -0.184343 0
M  V30 5624 H 544.494 1.6986 -1.14056 0
M  V30 5625 H 544.504 4.05243 -0.473522 0
M  V30 5626 H 543.179 3.83662 -1.60549 0
M  V30 5627 H 541.756 3.72236 0.22241 0
M  V30 5628 N 543.941 0.601185 1.45683 0
M  V30 5629 C 545.218 0.0261659 1.95582 0
M  V30 5630 C 545.598 -1.4399 1.5437 0
M  V30 5631 O 544.946 -2.13919 0.80318 0
M  V30 5632 C 545.156 0.217557 3.48321 0
M  V30 5633 C 546.504 0.0950076 4.24494 0
M  V30 5634 O 547.528 0.147345 3.55895 0
M  V30 5635 O 546.387 -0.025261 5.46494 0
M  V30 5636 H 543.481 -0.0393688 0.826062 0
M  V30 5637 H 546.027 0.670798 1.55879 0
M  V30 5638 H 544.799 1.23601 3.71266 0
M  V30 5639 H 544.422 -0.46264 3.94899 0
M  V30 5640 N 545.419 -1.53889 0.339982 0
M  V30 5641 C 546.668 -2.00035 -0.258604 0
M  V30 5642 C 546.981 -1.23179 -1.51942 0
M  V30 5643 O 548.187 -1.59784 -2.19503 0
M  V30 5644 C 546.643 -3.56249 -0.511359 0
M  V30 5645 C 546.251 -4.41957 0.733349 0
M  V30 5646 C 547.995 -4.1082 -1.069 0
M  V30 5647 C 545.902 -5.89673 0.451591 0
M  V30 5648 H 544.832 -0.747284 -0.10041 0
M  V30 5649 H 547.483 -1.77776 0.454758 0
M  V30 5650 H 545.865 -3.7456 -1.28533 0
M  V30 5651 H 547.039 -4.35421 1.50815 0
M  V30 5652 H 545.354 -3.9836 1.21237 0
M  V30 5653 H 547.951 -5.18789 -1.2947 0
M  V30 5654 H 548.294 -3.63817 -2.02343 0
M  V30 5655 H 548.827 -3.96205 -0.355817 0
M  V30 5656 H 545.566 -6.40903 1.37565 0
M  V30 5657 H 545.086 -5.99122 -0.285193 0
M  V30 5658 H 546.765 -6.46965 0.0675067 0
M  V30 5659 N 546.897 -0.0685191 -1.57451 0
M  V30 5660 C 547.86 0.885173 -2.11417 0
M  V30 5661 C 548.86 1.22853 -1.03748 0
M  V30 5662 O 550.05 1.16235 -1.2975 0
M  V30 5663 C 547.182 2.18964 -2.61281 0
M  V30 5664 H 548.375 0.417034 -2.96986 0
M  V30 5665 H 545.928 0.18014 -1.55258 0
M  V30 5666 H 546.663 2.70321 -1.79156 0
M  V30 5667 H 546.448 1.9534 -3.39977 0
M  V30 5668 H 547.938 2.87242 -3.0312 0
M  V30 5669 N 548.375 1.56261 0.205012 0
M  V30 5670 C 549.621 1.80306 0.9283 0
M  V30 5671 C 549.954 0.640932 1.83319 0
M  V30 5672 O 549.229 -0.359032 1.91158 0
M  V30 5673 C 549.512 3.14547 1.75306 0
M  V30 5674 C 549.365 4.41236 0.873562 0
M  V30 5675 C 550.684 3.45382 2.72762 0
M  V30 5676 H 547.803 0.655929 0.336044 0
M  V30 5677 H 550.445 1.88984 0.196211 0
M  V30 5678 H 548.595 3.0728 2.37721 0
M  V30 5679 H 550.267 4.60539 0.264887 0
M  V30 5680 H 548.51 4.33427 0.179773 0
M  V30 5681 H 549.181 5.31639 1.48541 0
M  V30 5682 H 551.657 3.52884 2.20481 0
M  V30 5683 H 550.533 4.40449 3.2756 0
M  V30 5684 H 550.794 2.68377 3.51321 0
M  V30 5685 N 549.853 -0.472356 1.50355 0
M  V30 5686 C 550.763 -1.59637 1.7191 0
M  V30 5687 C 551.779 -1.63247 0.602195 0
M  V30 5688 O 552.955 -1.81139 0.880369 0
M  V30 5689 C 550.02 -2.9586 1.80742 0
M  V30 5690 C 549.081 -3.02649 3.04471 0
M  V30 5691 C 548.314 -4.32374 3.12872 0
M  V30 5692 O 548.537 -5.22807 2.28099 0
M  V30 5693 O 547.471 -4.44728 4.05587 0
M  V30 5694 H 551.297 -1.44373 2.67189 0
M  V30 5695 H 548.882 -0.651717 1.34436 0
M  V30 5696 H 550.764 -3.7677 1.88739 0
M  V30 5697 H 549.439 -3.11325 0.88647 0
M  V30 5698 H 548.346 -2.20821 3.01975 0
M  V30 5699 H 549.679 -2.92119 3.9614 0
M  V30 5700 N 551.331 -1.39911 -0.725443 0
M  V30 5701 C 552.577 -1.38862 -1.48624 0
M  V30 5702 C 552.932 0.0125913 -1.92396 0
M  V30 5703 O 552.225 0.981046 -1.64578 0
M  V30 5704 C 552.419 -2.30368 -2.7325 0
M  V30 5705 C 552.248 -3.79247 -2.41665 0
M  V30 5706 C 551.018 -4.48119 -2.3349 0
M  V30 5707 C 553.216 -4.70988 -2.06579 0
M  V30 5708 N 551.198 -5.82282 -1.94476 0
M  V30 5709 C 552.569 -5.93873 -1.78087 0
M  V30 5710 C 554.624 -4.58917 -1.9313 0
M  V30 5711 C 553.327 -7.06036 -1.37499 0
M  V30 5712 C 555.353 -5.71012 -1.53946 0
M  V30 5713 C 554.715 -6.92976 -1.26345 0
M  V30 5714 H 550.814 -0.563394 -0.54232 0
M  V30 5715 H 553.398 -1.75542 -0.842213 0
M  V30 5716 H 551.569 -1.95831 -3.35417 0
M  V30 5717 H 553.301 -2.20245 -3.39521 0
M  V30 5718 H 550.056 -4.01677 -2.50904 0
M  V30 5719 H 550.48 -6.53307 -1.77535 0
M  V30 5720 H 555.122 -3.65149 -2.13134 0
M  V30 5721 H 552.84 -7.99697 -1.16237 0
M  V30 5722 H 556.426 -5.63664 -1.44132 0
M  V30 5723 H 555.306 -7.78243 -0.964787 0
M  V30 5724 N 552.809 0.956637 -1.25245 0
M  V30 5725 C 553.719 2.0868 -1.0719 0
M  V30 5726 C 554.735 1.73997 -0.00959074 0
M  V30 5727 O 555.911 2.00301 -0.210104 0
M  V30 5728 C 552.976 3.39754 -0.690526 0
M  V30 5729 C 552.037 3.88316 -1.83055 0
M  V30 5730 C 551.27 5.13134 -1.46728 0
M  V30 5731 O 551.493 5.6925 -0.362029 0
M  V30 5732 O 550.427 5.56356 -2.29677 0
M  V30 5733 H 554.253 2.26813 -2.01965 0
M  V30 5734 H 551.838 1.07098 -1.04165 0
M  V30 5735 H 553.72 4.18543 -0.489871 0
M  V30 5736 H 552.395 3.22896 0.227981 0
M  V30 5737 H 551.302 3.1054 -2.08604 0
M  V30 5738 H 552.635 4.09669 -2.72822 0
M  V30 5739 N 554.287 1.06798 1.15896 0
M  V30 5740 C 555.512 0.808739 1.90982 0
M  V30 5741 C 555.937 -0.6316 1.77179 0
M  V30 5742 O 555.295 -1.4407 1.10061 0
M  V30 5743 C 555.343 1.21468 3.39526 0
M  V30 5744 O 554.447 0.356562 4.10856 0
M  V30 5745 H 553.788 0.29512 0.594811 0
M  V30 5746 H 556.318 1.42513 1.46804 0
M  V30 5747 H 556.328 1.18844 3.90308 0
M  V30 5748 H 555.003 2.26379 3.48891 0
M  V30 5749 H 553.58 0.444808 3.70238 0
M  V30 5750 N 555.766 -1.3263 0.851289 0
M  V30 5751 C 556.714 -2.30882 0.282202 0
M  V30 5752 C 557.708 -1.58697 -0.592589 0
M  V30 5753 O 558.914 -1.73461 -0.480768 0
M  V30 5754 H 555.289 -0.748492 0.0725487 0
M  V30 5755 H 557.26 -2.76374 1.12516 0
M  V30 5756 C 556.009 -3.43828 -0.517449 0
M  V30 5757 H 555.332 -3.99532 0.146392 0
M  V30 5758 H 556.772 -4.1474 -0.88128 0
M  V30 5759 C 555.231 -2.90786 -1.70133 0
M  V30 5760 O 555.761 -2.88 -2.80034 0
M  V30 5761 N 553.967 -2.4723 -1.52728 0
M  V30 5762 H 553.514 -2.49695 -0.633257 0
M  V30 5763 H 553.472 -2.12094 -2.32085 0
M  V30 5764 N 557.244 -0.608902 -1.45362 0
M  V30 5765 C 558.492 -0.104401 -2.0183 0
M  V30 5766 C 558.813 1.27007 -1.47967 0
M  V30 5767 O 558.083 1.83924 -0.674455 0
M  V30 5768 H 556.663 -0.0356042 -0.746151 0
M  V30 5769 H 559.325 -0.790596 -1.78145 0
M  V30 5770 H 558.421 -0.0551793 -3.12051 0
M  V30 5771 N 558.722 1.53707 -0.348139 0
M  V30 5772 C 559.654 2.22725 0.540946 0
M  V30 5773 C 560.667 1.2354 1.06027 0
M  V30 5774 O 561.856 1.49867 0.96964 0
M  V30 5775 C 558.956 2.89756 1.75768 0
M  V30 5776 C 558.129 4.15297 1.37285 0
M  V30 5777 C 557.188 4.65697 2.44976 0
M  V30 5778 O 556.214 5.29798 2.08092 0
M  V30 5779 N 557.416 4.42017 3.763 0
M  V30 5780 H 560.181 2.99658 -0.0501592 0
M  V30 5781 H 557.742 1.60979 -0.17248 0
M  V30 5782 H 559.734 3.20388 2.47252 0
M  V30 5783 H 558.304 2.16382 2.25605 0
M  V30 5784 H 557.524 3.9116 0.488584 0
M  V30 5785 H 558.812 4.96948 1.09179 0
M  V30 5786 H 558.21 3.9076 4.09051 0
M  V30 5787 H 556.767 4.77242 4.4394 0
M  V30 5788 N 560.2 0.0768682 1.57412 0
M  V30 5789 C 561.611 -0.455037 1.8107 0
M  V30 5790 C 561.962 -1.69323 0.991162 0
M  V30 5791 O 561.087 -2.15328 0.215156 0
M  V30 5792 C 561.682 -0.832316 3.28417 0
M  V30 5793 C 560.241 -1.30906 3.52903 0
M  V30 5794 C 559.388 -0.296714 2.75708 0
M  V30 5795 H 562.339 0.302514 1.5579 0
M  V30 5796 H 562.36 -1.69333 3.40744 0
M  V30 5797 H 561.872 0.0690532 3.88039 0
M  V30 5798 H 559.973 -2.22875 2.98592 0
M  V30 5799 H 560.086 -1.28348 4.61588 0
M  V30 5800 H 558.45 -0.775059 2.42621 0
M  V30 5801 H 559.233 0.597015 3.38069 0
M  V30 5802 N 561.678 -1.56367 -0.196722 0
M  V30 5803 C 562.588 -1.97617 -1.2643 0
M  V30 5804 C 563.604 -0.883598 -1.49895 0
M  V30 5805 O 564.78 -1.18921 -1.62541 0
M  V30 5806 C 561.845 -2.30595 -2.58895 0
M  V30 5807 C 560.906 -3.53551 -2.43516 0
M  V30 5808 C 560.139 -3.84946 -3.69665 0
M  V30 5809 O 560.362 -3.17655 -4.73763 0
M  V30 5810 O 559.296 -4.78379 -3.65291 0
M  V30 5811 H 563.122 -2.88648 -0.944233 0
M  V30 5812 H 560.707 -1.43901 -0.401592 0
M  V30 5813 H 562.589 -2.52889 -3.37083 0
M  V30 5814 H 561.264 -1.42732 -2.90533 0
M  V30 5815 H 560.171 -3.36507 -1.63445 0
M  V30 5816 H 561.504 -4.41875 -2.16812 0
M  V30 5817 N 563.156 0.464375 -1.50603 0
M  V30 5818 C 564.104 1.58224 -1.70493 0
M  V30 5819 C 565.098 1.59492 -0.570836 0
M  V30 5820 O 566.304 1.63561 -0.751517 0
M  V30 5821 H 562.679 0.525161 -0.538247 0
M  V30 5822 H 564.65 1.38613 -2.64252 0
M  V30 5823 C 563.399 2.96113 -1.82243 0
M  V30 5824 H 562.722 2.95858 -2.68901 0
M  V30 5825 H 564.162 3.73769 -2.00182 0
M  V30 5826 C 562.621 3.31946 -0.575628 0
M  V30 5827 O 563.151 4.00708 0.282152 0
M  V30 5828 N 561.357 2.87436 -0.427665 0
M  V30 5829 H 560.904 2.31652 -1.12674 0
M  V30 5830 H 560.862 3.11776 0.405379 0
M  V30 5831 N 564.634 1.40294 0.718013 0
M  V30 5832 C 565.582 1.40536 1.85344 0
M  V30 5833 C 566.576 0.286192 1.66965 0
M  V30 5834 O 567.782 0.457105 1.74099 0
M  V30 5835 H 564.157 0.439236 0.61039 0
M  V30 5836 H 566.128 2.36275 1.82255 0
M  V30 5837 C 564.877 1.28245 3.23185 0
M  V30 5838 H 564.2 2.1364 3.37932 0
M  V30 5839 H 565.64 1.32474 4.02774 0
M  V30 5840 C 564.099 -0.0075503 3.36899 0
M  V30 5841 O 564.629 -0.971391 3.89778 0
M  V30 5842 N 562.835 -0.0762479 2.905 0
M  V30 5843 H 562.382 0.708819 2.47656 0
M  V30 5844 H 562.34 -0.938846 3.00055 0
M  V30 5845 N 566.112 -0.949982 1.2575 0
M  V30 5846 C 567.342 -1.72721 1.13363 0
M  V30 5847 C 567.75 -1.86562 -0.314842 0
M  V30 5848 O 567.093 -1.36621 -1.22803 0
M  V30 5849 C 567.155 -3.15695 1.7198 0
M  V30 5850 C 566.819 -3.25268 3.21014 0
M  V30 5851 C 567.816 -3.09222 4.17945 0
M  V30 5852 C 565.501 -3.4894 3.61312 0
M  V30 5853 C 567.495 -3.16701 5.53154 0
M  V30 5854 C 565.182 -3.56055 4.96657 0
M  V30 5855 C 566.18 -3.3995 5.92387 0
M  V30 5856 O 565.868 -3.46757 7.25269 0
M  V30 5857 H 565.6 -0.547888 0.395973 0
M  V30 5858 H 568.154 -1.20009 1.66694 0
M  V30 5859 H 566.384 -3.69791 1.13101 0
M  V30 5860 H 568.073 -3.75295 1.54624 0
M  V30 5861 H 568.839 -2.90798 3.88151 0
M  V30 5862 H 564.718 -3.60534 2.87291 0
M  V30 5863 H 568.262 -3.04048 6.27854 0
M  V30 5864 H 564.159 -3.73997 5.26115 0
M  V30 5865 H 564.927 -3.63358 7.33426 0
M  V30 5866 N 567.59 -1.07411 -1.15328 0
M  V30 5867 C 568.537 -0.694995 -2.20087 0
M  V30 5868 C 569.507 0.313904 -1.63107 0
M  V30 5869 O 570.692 0.200216 -1.89747 0
M  V30 5870 C 567.832 -0.0996218 -3.44956 0
M  V30 5871 C 566.945 -1.16007 -4.16133 0
M  V30 5872 C 566.08 -0.529636 -5.28553 0
M  V30 5873 C 565.119 -1.57283 -5.91548 0
M  V30 5874 N 564.256 -0.964932 -6.95438 0
M  V30 5875 H 569.096 -1.5927 -2.51867 0
M  V30 5876 H 566.633 -0.796115 -1.23695 0
M  V30 5877 H 568.591 0.263197 -4.16369 0
M  V30 5878 H 567.221 0.761435 -3.13691 0
M  V30 5879 H 566.273 -1.64045 -3.4321 0
M  V30 5880 H 567.585 -1.95101 -4.59061 0
M  V30 5881 H 566.739 -0.114487 -6.06592 0
M  V30 5882 H 565.478 0.29307 -4.86819 0
M  V30 5883 H 564.483 -1.99775 -5.12221 0
M  V30 5884 H 565.708 -2.39783 -6.35359 0
M  V30 5885 H 563.654 -0.16314 -6.55797 0
M  V30 5886 H 563.571 -1.69311 -7.36797 0
M  V30 5887 H 564.839 -0.575305 -7.77374 0
M  V30 5888 N 569.068 1.32177 -0.85831 0
M  V30 5889 C 570.296 2.01313 -0.477582 0
M  V30 5890 C 570.711 1.6449 0.926736 0
M  V30 5891 O 570.068 0.868096 1.60531 0
M  V30 5892 C 570.119 3.56293 -0.611337 0
M  V30 5893 O 569.84 3.91794 -1.96034 0
M  V30 5894 C 571.341 4.42702 -0.230093 0
M  V30 5895 H 568.561 0.644323 -0.187322 0
M  V30 5896 H 571.105 1.68674 -1.15626 0
M  V30 5897 H 569.26 3.87395 0.0196494 0
M  V30 5898 H 569.674 4.86513 -1.95973 0
M  V30 5899 H 571.148 5.50727 -0.374674 0
M  V30 5900 H 571.625 4.3129 0.829779 0
M  V30 5901 H 572.231 4.16997 -0.836302 0
M  V30 5902 N 570.547 0.616602 1.45037 0
M  V30 5903 C 571.775 0.121968 2.0654 0
M  V30 5904 C 572.19 -1.19743 1.45969 0
M  V30 5905 O 571.547 -1.73133 0.577168 0
M  V30 5906 C 571.598 -0.0145171 3.61497 0
M  V30 5907 O 571.319 1.25269 4.19809 0
M  V30 5908 C 572.82 -0.539555 4.40004 0
M  V30 5909 H 570.04 0.0729837 0.667019 0
M  V30 5910 H 572.584 0.846891 1.8614 0
M  V30 5911 H 570.739 -0.689809 3.81209 0
M  V30 5912 H 571.153 1.08816 5.13088 0
M  V30 5913 H 572.627 -0.584112 5.48901 0
M  V30 5914 H 573.104 -1.56368 4.10421 0
M  V30 5915 H 573.71 0.101995 4.25178 0
M  V30 5916 N 572.025 -1.5352 0.356285 0
M  V30 5917 C 573.436 -1.86282 -0.12492 0
M  V30 5918 C 573.787 -1.27717 -1.48939 0
M  V30 5919 O 572.912 -0.595614 -2.08042 0
M  V30 5920 C 573.507 -3.37995 -0.23345 0
M  V30 5921 C 572.066 -3.70588 -0.658899 0
M  V30 5922 C 571.213 -2.76581 0.199596 0
M  V30 5923 H 574.164 -1.47901 0.575423 0
M  V30 5924 H 574.185 -3.65475 -1.0587 0
M  V30 5925 H 573.697 -3.8059 0.759776 0
M  V30 5926 H 571.798 -3.33544 -1.66069 0
M  V30 5927 H 571.911 -4.77076 -0.439957 0
M  V30 5928 H 570.275 -2.52552 -0.330076 0
M  V30 5929 H 571.058 -3.22008 1.19019 0
M  V30 5930 N 573.503 -0.0852151 -1.57369 0
M  V30 5931 C 574.914 0.445428 -1.81309 0
M  V30 5932 C 575.265 1.68795 -1.00013 0
M  V30 5933 O 574.39 2.15211 -0.226573 0
M  V30 5934 C 574.985 0.814887 -3.28854 0
M  V30 5935 C 573.544 1.29032 -3.53592 0
M  V30 5936 C 572.691 0.282089 -2.75861 0
M  V30 5937 H 575.642 -0.310771 -1.55627 0
M  V30 5938 H 575.663 1.67524 -3.41637 0
M  V30 5939 H 575.175 -0.0896309 -3.87996 0
M  V30 5940 H 573.276 2.21289 -2.9977 0
M  V30 5941 H 573.389 1.25898 -4.62262 0
M  V30 5942 H 571.753 0.762182 -2.43029 0
M  V30 5943 H 572.536 -0.614936 -3.37748 0
M  V30 5944 N 574.981 1.5647 0.188427 0
M  V30 5945 C 576.227 1.81281 0.909124 0
M  V30 5946 C 576.56 0.66034 1.82628 0
M  V30 5947 O 575.835 -0.338737 1.91528 0
M  V30 5948 C 576.118 3.16388 1.7196 0
M  V30 5949 C 575.971 4.42137 0.826714 0
M  V30 5950 C 577.29 3.48256 2.69083 0
M  V30 5951 H 574.409 0.659457 0.329068 0
M  V30 5952 H 577.051 1.89182 0.176156 0
M  V30 5953 H 575.201 3.09784 2.34448 0
M  V30 5954 H 576.873 4.60794 0.216025 0
M  V30 5955 H 575.116 4.33594 0.133792 0
M  V30 5956 H 575.787 5.33184 1.42893 0
M  V30 5957 H 578.263 3.55203 2.16726 0
M  V30 5958 H 577.139 4.43899 3.2287 0
M  V30 5959 H 577.4 2.72088 3.48455 0
M  V30 5960 N 576.459 -0.456382 1.50847 0
M  V30 5961 C 577.389 -1.56025 1.73719 0
M  V30 5962 C 578.37 -1.5967 0.586473 0
M  V30 5963 O 579.555 -1.75702 0.827185 0
M  V30 5964 C 576.685 -2.94251 1.84483 0
M  V30 5965 C 575.639 -3.05471 2.99786 0
M  V30 5966 C 574.965 -4.45489 2.95709 0
M  V30 5967 C 576.265 -2.81318 4.40065 0
M  V30 5968 H 577.959 -1.37138 2.66146 0
M  V30 5969 H 575.505 -0.658299 1.28072 0
M  V30 5970 H 577.458 -3.71417 1.99067 0
M  V30 5971 H 576.182 -3.14328 0.886891 0
M  V30 5972 H 574.841 -2.30741 2.84876 0
M  V30 5973 H 574.489 -4.62505 1.97732 0
M  V30 5974 H 574.189 -4.53929 3.73125 0
M  V30 5975 H 575.713 -5.24655 3.12362 0
M  V30 5976 H 577.127 -3.48226 4.55425 0
M  V30 5977 H 575.524 -3.01188 5.19043 0
M  V30 5978 H 576.594 -1.7706 4.51418 0
M  V30 5979 N 577.937 -1.40673 -0.710563 0
M  V30 5980 C 579.214 -1.29718 -1.46398 0
M  V30 5981 C 579.594 0.082177 -2.1094 0
M  V30 5982 O 578.942 1.09536 -2.00534 0
M  V30 5983 C 579.152 -2.43967 -2.49562 0
M  V30 5984 C 580.5 -2.84436 -3.15248 0
M  V30 5985 O 581.524 -2.43597 -2.59883 0
M  V30 5986 O 580.383 -3.55008 -4.1549 0
M  V30 5987 H 577.477 -0.509697 -0.651258 0
M  V30 5988 H 580.023 -1.52603 -0.742312 0
M  V30 5989 H 578.795 -3.36076 -2.0042 0
M  V30 5990 H 578.418 -2.22879 -3.29258 0
M  V30 5991 N 579.415 0.9433 -1.26252 0
M  V30 5992 C 580.64 1.72898 -1.14547 0
M  V30 5993 C 581.065 1.85761 0.295743 0
M  V30 5994 O 580.423 1.3463 1.21427 0
M  V30 5995 C 580.471 3.11471 -1.8171 0
M  V30 5996 O 579.575 3.97336 -1.10445 0
M  V30 5997 H 578.916 0.530555 -0.399259 0
M  V30 5998 H 581.446 1.18159 -1.67032 0
M  V30 5999 H 581.456 3.61872 -1.88449 0
M  V30 6000 H 580.131 3.01425 -2.86558 0
M  V30 6001 H 578.708 3.55788 -1.11666 0
M  V30 6002 N 580.893 1.08022 1.14757 0
M  V30 6003 C 582.17 0.720386 1.81851 0
M  V30 6004 C 582.55 -0.796375 1.95502 0
M  V30 6005 O 581.898 -1.71339 1.51179 0
M  V30 6006 C 582.108 1.44273 3.17783 0
M  V30 6007 C 583.456 1.59925 3.93331 0
M  V30 6008 O 584.48 1.40407 3.2736 0
M  V30 6009 O 583.339 1.92096 5.11626 0
M  V30 6010 H 580.433 0.257142 0.786007 0
M  V30 6011 H 582.979 1.18155 1.21809 0
M  V30 6012 H 581.751 2.47618 3.02987 0
M  V30 6013 H 581.374 0.97279 3.85516 0
M  V30 6014 N 582.371 -1.3172 0.865308 0
M  V30 6015 C 583.619 -1.96487 0.472995 0
M  V30 6016 C 583.94 -1.68761 -0.976975 0
M  V30 6017 O 583.21 -1.00051 -1.68424 0
M  V30 6018 H 581.79 -0.726947 0.171922 0
M  V30 6019 H 584.452 -1.60612 1.10407 0
M  V30 6020 H 583.548 -3.0574 0.62687 0
M  V30 6021 N 583.85 -0.624285 -1.44708 0
M  V30 6022 C 585.075 -0.131171 -2.06985 0
M  V30 6023 C 585.5 1.18234 -1.46295 0
M  V30 6024 O 584.858 1.72375 -0.561842 0
M  V30 6025 C 584.906 -0.0226724 -3.60593 0
M  V30 6026 O 584.01 1.02314 -3.99507 0
M  V30 6027 H 583.351 -0.0816556 -0.65896 0
M  V30 6028 H 585.88 -0.859027 -1.85693 0
M  V30 6029 H 585.891 0.170138 -4.07645 0
M  V30 6030 H 584.566 -0.981685 -4.04148 0
M  V30 6031 H 583.143 0.805452 -3.64097 0
M  V30 6032 N 585.328 1.53329 -0.364422 0
M  V30 6033 C 586.575 2.01239 0.225634 0
M  V30 6034 C 586.903 1.25172 1.48869 0
M  V30 6035 O 586.158 0.333289 1.92841 0
M  V30 6036 C 586.457 3.52911 0.564661 0
M  V30 6037 C 586.123 4.46837 -0.603936 0
M  V30 6038 C 584.785 4.72234 -0.924585 0
M  V30 6039 C 587.137 5.02409 -1.38691 0
M  V30 6040 C 584.465 5.50454 -2.0302 0
M  V30 6041 C 586.817 5.81836 -2.48293 0
M  V30 6042 C 585.481 6.0552 -2.80894 0
M  V30 6043 H 584.751 0.736386 0.0825654 0
M  V30 6044 H 587.398 1.84948 -0.496645 0
M  V30 6045 H 585.703 3.67144 1.36794 0
M  V30 6046 H 587.4 3.87455 1.03344 0
M  V30 6047 H 583.99 4.27217 -0.343983 0
M  V30 6048 H 588.174 4.82735 -1.15243 0
M  V30 6049 H 583.43 5.67024 -2.28678 0
M  V30 6050 H 587.604 6.23905 -3.0938 0
M  V30 6051 H 585.231 6.65916 -3.66688 0
M  V30 6052 N 586.806 0.0935595 1.57322 0
M  V30 6053 C 588.053 -0.570509 1.94297 0
M  V30 6054 C 588.381 -1.68286 0.97519 0
M  V30 6055 O 587.636 -1.95699 -0.00548655 0
M  V30 6056 C 587.935 -1.16692 3.37813 0
M  V30 6057 C 587.601 -0.178509 4.50547 0
M  V30 6058 C 586.263 0.0933475 4.81109 0
M  V30 6059 C 588.615 0.496472 5.1883 0
M  V30 6060 C 585.943 1.0469 5.77284 0
M  V30 6061 C 588.295 1.43849 6.16028 0
M  V30 6062 C 586.959 1.71859 6.44997 0
M  V30 6063 H 586.229 -0.208764 0.710984 0
M  V30 6064 H 588.876 0.169066 1.90752 0
M  V30 6065 H 587.181 -1.98271 3.37929 0
M  V30 6066 H 588.878 -1.6884 3.63722 0
M  V30 6067 H 585.468 -0.400584 4.26724 0
M  V30 6068 H 589.652 0.299584 4.95395 0
M  V30 6069 H 584.908 1.27094 5.98044 0
M  V30 6070 H 589.082 1.96734 6.68034 0
M  V30 6071 H 586.709 2.45906 7.19329 0
M  V30 6072 N 588.284 -1.56567 -0.180126 0
M  V30 6073 C 589.214 -1.98753 -1.22553 0
M  V30 6074 C 590.195 -0.86175 -1.46656 0
M  V30 6075 O 591.38 -1.12719 -1.58139 0
M  V30 6076 C 588.51 -2.33988 -2.56645 0
M  V30 6077 C 587.464 -3.49445 -2.47128 0
M  V30 6078 C 586.79 -3.70397 -3.8563 0
M  V30 6079 C 588.09 -4.83171 -1.98352 0
M  V30 6080 H 589.784 -2.86332 -0.874896 0
M  V30 6081 H 587.33 -1.37757 -0.419414 0
M  V30 6082 H 589.283 -2.62097 -3.29974 0
M  V30 6083 H 588.007 -1.43309 -2.93479 0
M  V30 6084 H 586.666 -3.2145 -1.76254 0
M  V30 6085 H 586.314 -2.77023 -4.19842 0
M  V30 6086 H 586.014 -4.48077 -3.80132 0
M  V30 6087 H 587.538 -4.00897 -4.60558 0
M  V30 6088 H 588.952 -5.10213 -2.61449 0
M  V30 6089 H 587.349 -5.64425 -2.03823 0
M  V30 6090 H 588.419 -4.75753 -0.937402 0
M  V30 6091 N 589.762 0.448376 -1.51087 0
M  V30 6092 C 590.992 1.21965 -1.66757 0
M  V30 6093 C 591.4 1.85748 -0.359753 0
M  V30 6094 O 590.743 1.71022 0.670604 0
M  V30 6095 C 590.805 2.35284 -2.71812 0
M  V30 6096 C 590.469 1.91957 -4.1473 0
M  V30 6097 C 591.466 1.42921 -4.9987 0
M  V30 6098 C 589.151 1.99985 -4.60772 0
M  V30 6099 C 591.145 1.02485 -6.29107 0
M  V30 6100 C 588.832 1.5916 -5.90009 0
M  V30 6101 C 589.83 1.10491 -6.74004 0
M  V30 6102 O 589.518 0.702413 -8.00825 0
M  V30 6103 H 589.25 0.374125 -0.563034 0
M  V30 6104 H 591.804 0.538927 -1.98204 0
M  V30 6105 H 590.034 3.06599 -2.35657 0
M  V30 6106 H 591.723 2.97184 -2.76472 0
M  V30 6107 H 592.489 1.36123 -4.65506 0
M  V30 6108 H 588.368 2.36814 -3.95525 0
M  V30 6109 H 591.912 0.644271 -6.94619 0
M  V30 6110 H 587.809 1.65626 -6.2389 0
M  V30 6111 H 588.577 0.829248 -8.14288 0
M  V30 6112 N 591.24 1.41047 0.703093 0
M  V30 6113 C 592.465 1.43537 1.49706 0
M  V30 6114 C 592.89 0.0401853 1.88057 0
M  V30 6115 O 592.248 -0.954785 1.54122 0
M  V30 6116 C 592.296 2.3433 2.74084 0
M  V30 6117 O 591.4 1.79515 3.71279 0
M  V30 6118 H 590.741 0.487454 0.450871 0
M  V30 6119 H 593.271 1.85422 0.86486 0
M  V30 6120 H 593.281 2.49947 3.22476 0
M  V30 6121 H 591.956 3.35708 2.45506 0
M  V30 6122 H 590.533 1.7331 3.30179 0
M  V30 6123 N 592.718 -0.936591 1.26751 0
M  V30 6124 C 594.134 -1.21095 1.03963 0
M  V30 6125 C 594.334 -2.00156 -0.232372 0
M  V30 6126 O 593.39 -2.3434 -0.940274 0
M  V30 6127 C 594.703 -1.96775 2.27377 0
M  V30 6128 C 596.251 -2.09749 2.32324 0
M  V30 6129 C 596.726 -2.88832 3.55443 0
M  V30 6130 N 598.217 -2.96404 3.55948 0
M  V30 6131 C 598.952 -3.58036 4.47881 0
M  V30 6132 N 598.448 -4.21132 5.50109 0
M  V30 6133 N 600.241 -3.55353 4.35523 0
M  V30 6134 H 592.392 -0.408173 2.08441 0
M  V30 6135 H 594.655 -0.243139 0.91629 0
M  V30 6136 H 594.361 -1.46094 3.19921 0
M  V30 6137 H 594.235 -2.97424 2.31989 0
M  V30 6138 H 596.622 -2.5962 1.40291 0
M  V30 6139 H 596.703 -1.08347 2.31721 0
M  V30 6140 H 596.347 -2.39647 4.47808 0
M  V30 6141 H 596.277 -3.90499 3.53296 0
M  V30 6142 H 598.768 -2.51552 2.82011 0
M  V30 6143 H 599.081 -4.66071 6.16439 0
M  V30 6144 H 597.426 -4.19705 5.53961 0
M  V30 6145 H 600.617 -3.05256 3.54875 0
M  V30 6146 H 600.79 -4.03097 5.07363 0
M  V30 6147 N 594.196 -1.08629 -1.14182 0
M  V30 6148 C 595.126 -0.740003 -2.21464 0
M  V30 6149 C 596.107 0.278591 -1.67803 0
M  V30 6150 O 597.292 0.148461 -1.93632 0
M  V30 6151 C 594.422 -0.150952 -3.46972 0
M  V30 6152 C 593.376 -1.09815 -4.13672 0
M  V30 6153 C 592.702 -0.3712 -5.3341 0
M  V30 6154 C 594.002 -2.43722 -4.61949 0
M  V30 6155 H 595.696 -1.63697 -2.50686 0
M  V30 6156 H 593.242 -0.788526 -1.20492 0
M  V30 6157 H 595.195 0.103325 -4.21273 0
M  V30 6158 H 593.919 0.781164 -3.1712 0
M  V30 6159 H 592.578 -1.33756 -3.41328 0
M  V30 6160 H 592.226 0.564792 -4.99819 0
M  V30 6161 H 591.926 -1.00267 -5.78982 0
M  V30 6162 H 593.45 -0.12503 -6.10472 0
M  V30 6163 H 594.864 -2.24034 -5.27714 0
M  V30 6164 H 593.261 -3.02582 -5.18232 0
M  V30 6165 H 594.331 -3.05082 -3.76899 0
M  V30 6166 N 595.674 1.31259 -0.872281 0
M  V30 6167 C 596.902 2.00795 -0.498907 0
M  V30 6168 C 597.317 1.65464 0.909238 0
M  V30 6169 O 596.674 0.885073 1.59602 0
M  V30 6170 C 596.725 3.55625 -0.649092 0
M  V30 6171 O 596.446 3.89692 -2.00179 0
M  V30 6172 C 597.947 4.42434 -0.277034 0
M  V30 6173 H 595.167 0.642299 -0.194145 0
M  V30 6174 H 597.711 1.67438 -1.17408 0
M  V30 6175 H 595.866 3.87394 -0.0214402 0
M  V30 6176 H 596.28 4.84407 -2.01122 0
M  V30 6177 H 597.754 5.50299 -0.433064 0
M  V30 6178 H 598.231 4.32146 0.783989 0
M  V30 6179 H 598.837 4.16086 -0.880483 0
M  V30 6180 N 597.152 0.631951 1.44375 0
M  V30 6181 C 598.398 0.13697 2.02337 0
M  V30 6182 C 598.731 -1.23826 1.49602 0
M  V30 6183 O 598.006 -1.8221 0.680415 0
M  V30 6184 C 598.289 0.124536 3.59885 0
M  V30 6185 C 598.142 1.53217 4.229 0
M  V30 6186 C 599.461 -0.550481 4.36644 0
M  V30 6187 H 596.58 0.051247 0.735216 0
M  V30 6188 H 599.222 0.808581 1.71936 0
M  V30 6189 H 597.372 -0.44737 3.85916 0
M  V30 6190 H 599.044 2.15303 4.07973 0
M  V30 6191 H 597.287 2.0858 3.80364 0
M  V30 6192 H 597.958 1.4755 5.31914 0
M  V30 6193 H 600.434 -0.0641154 4.16051 0
M  V30 6194 H 599.31 -0.528371 5.46351 0
M  V30 6195 H 599.571 -1.62097 4.11311 0
M  V30 6196 N 598.631 -1.53133 0.372548 0
M  V30 6197 C 599.908 -1.93704 -0.271693 0
M  V30 6198 C 600.288 -1.30667 -1.65799 0
M  V30 6199 O 599.636 -0.46838 -2.23648 0
M  V30 6200 C 599.846 -3.47576 -0.314903 0
M  V30 6201 C 601.194 -4.20998 -0.551912 0
M  V30 6202 O 602.218 -3.53994 -0.39582 0
M  V30 6203 O 601.077 -5.39748 -0.85639 0
M  V30 6204 H 598.171 -0.810457 -0.164586 0
M  V30 6205 H 600.717 -1.6427 0.425838 0
M  V30 6206 H 599.489 -3.85749 0.656792 0
M  V30 6207 H 599.112 -3.83264 -1.05804 0
M  V30 6208 N 600.109 -0.101901 -1.5727 0
M  V30 6209 C 601.056 0.854577 -2.14396 0
M  V30 6210 C 602.026 1.27521 -1.06432 0
M  V30 6211 O 603.211 1.35575 -1.34253 0
M  V30 6212 C 600.351 2.10576 -2.73408 0
M  V30 6213 C 599.464 1.73504 -3.95626 0
M  V30 6214 C 598.599 2.9346 -4.42781 0
M  V30 6215 C 597.638 2.52547 -5.57572 0
M  V30 6216 N 596.775 3.65359 -5.99547 0
M  V30 6217 H 601.615 0.360578 -2.9581 0
M  V30 6218 H 599.152 0.166303 -1.46157 0
M  V30 6219 H 601.11 2.83859 -3.05745 0
M  V30 6220 H 599.74 2.57463 -1.94711 0
M  V30 6221 H 598.792 0.901622 -3.6956 0
M  V30 6222 H 600.104 1.39426 -4.78917 0
M  V30 6223 H 599.258 3.74988 -4.76937 0
M  V30 6224 H 597.997 3.30753 -3.58404 0
M  V30 6225 H 597.002 1.69446 -5.23037 0
M  V30 6226 H 598.227 2.1639 -6.43702 0
M  V30 6227 H 596.173 4.02358 -5.18116 0
M  V30 6228 H 596.09 3.35148 -6.77652 0
M  V30 6229 H 597.358 4.47378 -6.38336 0
M  V30 6230 N 601.587 1.56661 0.17182 0
M  V30 6231 C 602.812 1.86459 0.908165 0
M  V30 6232 C 603.237 0.688181 1.75059 0
M  V30 6233 O 602.595 -0.362753 1.77634 0
M  V30 6234 C 602.643 3.14669 1.76112 0
M  V30 6235 O 601.747 2.96858 2.86268 0
M  V30 6236 H 601.088 0.613318 0.254434 0
M  V30 6237 H 603.618 2.03892 0.170113 0
M  V30 6238 H 603.628 3.46061 2.16115 0
M  V30 6239 H 602.303 3.99905 1.14233 0
M  V30 6240 H 600.88 2.76819 2.49852 0
M  V30 6241 N 603.065 -0.440357 1.51323 0
M  V30 6242 C 604.481 -0.7766 1.39431 0
M  V30 6243 C 604.681 -1.95838 0.474296 0
M  V30 6244 O 603.737 -2.52398 -0.0716692 0
M  V30 6245 C 605.05 -1.05981 2.81405 0
M  V30 6246 C 606.598 -1.16442 2.90534 0
M  V30 6247 C 607.073 -1.48058 4.33408 0
M  V30 6248 N 608.564 -1.54988 4.36501 0
M  V30 6249 C 609.299 -1.81017 5.44078 0
M  V30 6250 N 608.795 -2.04858 6.61819 0
M  V30 6251 N 610.588 -1.82774 5.31554 0
M  V30 6252 H 602.739 0.338006 2.09693 0
M  V30 6253 H 605.002 0.0888072 0.943831 0
M  V30 6254 H 604.708 -0.264173 3.50706 0
M  V30 6255 H 604.582 -1.98822 3.20546 0
M  V30 6256 H 606.969 -1.95068 2.21432 0
M  V30 6257 H 607.05 -0.215088 2.54894 0
M  V30 6258 H 606.694 -0.699605 5.03059 0
M  V30 6259 H 606.624 -2.44192 4.66559 0
M  V30 6260 H 609.115 -1.38479 3.51613 0
M  V30 6261 H 609.428 -2.2408 7.396 0
M  V30 6262 H 607.773 -2.02187 6.6494 0
M  V30 6263 H 610.964 -1.63665 4.38556 0
M  V30 6264 H 611.137 -2.02722 6.15474 0
M  V30 6265 N 604.543 -1.41418 -0.695603 0
M  V30 6266 C 605.789 -1.41983 -1.45645 0
M  V30 6267 C 606.144 -0.0282216 -1.92379 0
M  V30 6268 O 605.437 0.945916 -1.66622 0
M  V30 6269 C 605.631 -2.36112 -2.68302 0
M  V30 6270 C 605.46 -3.84288 -2.33566 0
M  V30 6271 C 604.23 -4.52971 -2.23932 0
M  V30 6272 C 606.428 -4.75264 -1.96543 0
M  V30 6273 N 604.41 -5.86276 -1.82081 0
M  V30 6274 C 605.781 -5.97517 -1.6545 0
M  V30 6275 C 607.836 -4.62911 -1.83352 0
M  V30 6276 C 606.539 -7.08793 -1.22492 0
M  V30 6277 C 608.565 -5.74149 -1.41799 0
M  V30 6278 C 607.927 -6.95501 -1.11617 0
M  V30 6279 H 604.026 -0.574771 -0.530247 0
M  V30 6280 H 606.61 -1.77289 -0.804788 0
M  V30 6281 H 604.781 -2.02902 -3.31188 0
M  V30 6282 H 606.513 -2.27397 -3.34773 0
M  V30 6283 H 603.268 -4.06909 -2.42327 0
M  V30 6284 H 603.692 -6.56926 -1.63638 0
M  V30 6285 H 608.334 -3.69588 -2.05341 0
M  V30 6286 H 606.052 -8.01982 -0.992482 0
M  V30 6287 H 609.638 -5.66595 -1.32143 0
M  V30 6288 H 608.518 -7.80114 -0.799493 0
M  V30 6289 N 606.021 0.929856 -1.27246 0
M  V30 6290 C 606.953 2.03434 -1.0558 0
M  V30 6291 C 607.966 1.62795 -0.0125762 0
M  V30 6292 O 609.155 1.76685 -0.2539 0
M  V30 6293 C 606.255 3.33915 -0.57912 0
M  V30 6294 C 605.428 4.03259 -1.69415 0
M  V30 6295 C 604.487 5.12014 -1.21357 0
M  V30 6296 O 603.513 5.36097 -1.91282 0
M  V30 6297 N 604.715 5.8046 -0.0680622 0
M  V30 6298 H 607.48 2.22583 -2.00691 0
M  V30 6299 H 605.041 1.1001 -1.18783 0
M  V30 6300 H 607.033 4.03978 -0.241563 0
M  V30 6301 H 605.603 3.11355 0.278703 0
M  V30 6302 H 604.823 3.26958 -2.20209 0
M  V30 6303 H 606.111 4.46337 -2.44255 0
M  V30 6304 H 605.509 5.63345 0.515626 0
M  V30 6305 H 604.066 6.51461 0.210332 0
M  V30 6306 N 607.499 1.09233 1.13605 0
M  V30 6307 C 608.409 0.741939 2.22559 0
M  V30 6308 C 609.425 -0.255236 1.72118 0
M  V30 6309 O 610.601 -0.0970747 2.01166 0
M  V30 6310 C 607.666 0.165595 3.46304 0
M  V30 6311 C 606.727 1.21846 4.11645 0
M  V30 6312 C 605.96 0.669526 5.29484 0
M  V30 6313 O 606.183 -0.508228 5.68131 0
M  V30 6314 O 605.117 1.42361 5.84822 0
M  V30 6315 H 608.943 1.65107 2.54899 0
M  V30 6316 H 606.528 0.866584 1.21699 0
M  V30 6317 H 608.41 -0.152592 4.21124 0
M  V30 6318 H 607.085 -0.716573 3.15669 0
M  V30 6319 H 605.992 1.58931 3.38662 0
M  V30 6320 H 607.325 2.07321 4.46407 0
M  V30 6321 N 608.977 -1.30795 0.87923 0
M  V30 6322 C 610.225 -1.95974 0.493809 0
M  V30 6323 C 610.546 -1.69787 -0.959021 0
M  V30 6324 O 609.816 -1.01832 -1.67353 0
M  V30 6325 H 608.396 -0.725083 0.179622 0
M  V30 6326 H 611.058 -1.59432 1.12105 0
M  V30 6327 H 610.154 -3.05058 0.659263 0
M  V30 6328 N 610.455 -0.639598 -1.44038 0
M  V30 6329 C 611.403 0.0723409 -2.32487 0
M  V30 6330 C 612.397 0.827129 -1.47834 0
M  V30 6331 O 613.603 0.73907 -1.64127 0
M  V30 6332 H 609.978 0.0421696 -0.750817 0
M  V30 6333 H 611.949 -0.691593 -2.90275 0
M  V30 6334 C 610.698 1.03452 -3.31953 0
M  V30 6335 H 610.021 0.46315 -3.97108 0
M  V30 6336 H 611.461 1.502 -3.96505 0
M  V30 6337 C 609.92 2.12392 -2.61518 0
M  V30 6338 O 610.45 3.2059 -2.42044 0
M  V30 6339 N 608.656 1.88563 -2.21116 0
M  V30 6340 H 608.203 1.00577 -2.37154 0
M  V30 6341 H 608.161 2.61651 -1.74316 0
M  V30 6342 N 611.933 1.52934 -0.380664 0
M  V30 6343 C 613.179 2.01765 0.20458 0
M  V30 6344 C 613.512 1.26696 1.47179 0
M  V30 6345 O 612.787 0.364936 1.91046 0
M  V30 6346 C 613.07 3.56869 0.481269 0
M  V30 6347 C 612.923 4.42617 -0.800629 0
M  V30 6348 C 614.242 4.2121 1.27554 0
M  V30 6349 H 611.361 0.733388 0.0728803 0
M  V30 6350 H 614.003 1.83068 -0.50853 0
M  V30 6351 H 612.153 3.72932 1.08875 0
M  V30 6352 H 613.825 4.38323 -1.43773 0
M  V30 6353 H 612.068 4.09977 -1.4178 0
M  V30 6354 H 612.739 5.49134 -0.561791 0
M  V30 6355 H 615.215 4.09072 0.761514 0
M  V30 6356 H 614.091 5.29732 1.43788 0
M  V30 6357 H 614.352 3.78269 2.28833 0
M  V30 6358 N 613.412 0.11024 1.57214 0
M  V30 6359 C 614.659 -0.54987 1.94891 0
M  V30 6360 C 614.987 -1.67243 0.992984 0
M  V30 6361 O 614.242 -1.95694 0.0152703 0
M  V30 6362 C 614.541 -1.13102 3.39032 0
M  V30 6363 C 614.207 -0.130713 4.5071 0
M  V30 6364 C 612.869 0.14437 4.80983 0
M  V30 6365 C 615.221 0.551472 5.18274 0
M  V30 6366 C 612.549 1.10807 5.76141 0
M  V30 6367 C 614.901 1.50375 6.14467 0
M  V30 6368 C 613.565 1.78691 6.43138 0
M  V30 6369 H 612.835 -0.201212 0.713158 0
M  V30 6370 H 615.482 0.189288 1.90562 0
M  V30 6371 H 613.787 -1.94675 3.40013 0
M  V30 6372 H 615.484 -1.64973 3.65493 0
M  V30 6373 H 612.074 -0.355301 4.27125 0
M  V30 6374 H 616.258 0.35211 4.95049 0
M  V30 6375 H 611.514 1.3343 5.96663 0
M  V30 6376 H 615.688 2.03808 6.65909 0
M  V30 6377 H 613.315 2.53522 7.1668 0
M  V30 6378 N 614.89 -1.56749 -0.16351 0
M  V30 6379 C 616.115 -1.86938 -0.898264 0
M  V30 6380 C 616.54 -0.697456 -1.74692 0
M  V30 6381 O 615.898 0.353327 -1.77824 0
M  V30 6382 C 615.946 -3.15599 -1.74441 0
M  V30 6383 O 615.05 -2.98371 -2.8469 0
M  V30 6384 H 614.391 -0.614659 -0.251178 0
M  V30 6385 H 616.921 -2.03979 -0.159298 0
M  V30 6386 H 616.931 -3.47202 -2.14277 0
M  V30 6387 H 615.606 -4.00505 -1.1211 0
M  V30 6388 H 614.183 -2.7814 -2.4838 0
M  V30 6389 N 616.368 0.432326 -1.51554 0
M  V30 6390 C 617.608 1.19076 -1.66133 0
M  V30 6391 C 617.972 1.88364 -0.371873 0
M  V30 6392 O 619.173 2.65904 -0.39349 0
M  V30 6393 C 617.444 2.1768 -2.83461 0
M  V30 6394 S 619.003 3.01943 -3.18396 0
M  V30 6395 H 615.821 0.403735 -0.585251 0
M  V30 6396 H 618.423 0.481554 -1.89476 0
M  V30 6397 H 617.127 1.65424 -3.75583 0
M  V30 6398 H 616.658 2.93174 -2.62322 0
M  V30 6399 H 618.673 4.19373 -2.65219 0
M  V30 6400 N 617.846 1.41785 0.688094 0
M  V30 6401 C 619.071 1.45117 1.48175 0
M  V30 6402 C 619.496 0.060129 1.88004 0
M  V30 6403 O 618.854 -0.938385 1.55126 0
M  V30 6404 C 618.902 2.37224 2.71583 0
M  V30 6405 O 618.006 1.83443 3.69354 0
M  V30 6406 H 617.347 0.492208 0.445676 0
M  V30 6407 H 619.877 1.86329 0.845145 0
M  V30 6408 H 619.887 2.53353 3.19806 0
M  V30 6409 H 618.562 3.38293 2.41931 0
M  V30 6410 H 617.139 1.76802 3.28322 0
M  V30 6411 N 619.324 -0.923095 1.27737 0
M  V30 6412 C 620.57 -1.67375 1.14514 0
M  V30 6413 C 620.903 -1.91751 -0.307424 0
M  V30 6414 O 620.178 -1.51119 -1.22447 0
M  V30 6415 C 620.461 -3.03745 1.9342 0
M  V30 6416 C 620.314 -2.86581 3.46686 0
M  V30 6417 C 621.633 -4.04144 1.74228 0
M  V30 6418 H 618.752 -0.607427 0.417374 0
M  V30 6419 H 621.394 -1.07089 1.56946 0
M  V30 6420 H 619.544 -3.55204 1.5736 0
M  V30 6421 H 621.216 -2.42203 3.92601 0
M  V30 6422 H 619.459 -2.21829 3.72793 0
M  V30 6423 H 620.13 -3.83381 3.97143 0
M  V30 6424 H 622.606 -3.61712 2.05678 0
M  V30 6425 H 621.482 -4.97543 2.31824 0
M  V30 6426 H 621.743 -4.36661 0.691373 0
M  V30 6427 N 620.802 -1.09834 -1.13024 0
M  V30 6428 C 621.735 -0.685453 -2.17662 0
M  V30 6429 C 622.713 0.310142 -1.59615 0
M  V30 6430 O 623.897 0.21052 -1.87321 0
M  V30 6431 C 621.024 -0.0104476 -3.38698 0
M  V30 6432 C 620.07 -0.968522 -4.15358 0
M  V30 6433 S 620.903 -2.48272 -4.74469 0
M  V30 6434 C 622.059 -1.82025 -5.98847 0
M  V30 6435 H 622.292 -1.57187 -2.52348 0
M  V30 6436 H 619.825 -0.914728 -1.24387 0
M  V30 6437 H 621.783 0.372694 -4.08805 0
M  V30 6438 H 620.444 0.852673 -3.02305 0
M  V30 6439 H 619.637 -0.443373 -5.02046 0
M  V30 6440 H 619.239 -1.29327 -3.50928 0
M  V30 6441 H 621.531 -1.14678 -6.67724 0
M  V30 6442 H 622.474 -2.66645 -6.55977 0
M  V30 6443 H 622.882 -1.2874 -5.49624 0
M  V30 6444 N 622.28 1.30327 -0.886154 0
M  V30 6445 C 623.23 2.25668 -0.325248 0
M  V30 6446 C 624.214 1.51318 0.546972 0
M  V30 6447 O 625.406 1.72623 0.391203 0
M  V30 6448 C 622.535 3.40229 0.458167 0
M  V30 6449 C 621.621 4.21933 -0.428208 0
M  V30 6450 N 622.012 4.82129 -1.52921 0
M  V30 6451 C 620.31 4.45439 -0.223535 0
M  V30 6452 C 621.011 5.43351 -2.07714 0
M  V30 6453 N 619.987 5.26002 -1.37195 0
M  V30 6454 H 623.789 2.69759 -1.1665 0
M  V30 6455 H 621.303 1.4478 -0.735691 0
M  V30 6456 H 623.3 4.07579 0.876648 0
M  V30 6457 H 621.96 2.97678 1.29684 0
M  V30 6458 H 622.971 4.81312 -1.91205 0
M  V30 6459 H 619.648 4.13481 0.577875 0
M  V30 6460 H 621.038 6.01118 -3.00178 0
M  V30 6461 N 623.758 0.647228 1.43697 0
M  V30 6462 C 624.668 -0.0487997 2.34549 0
M  V30 6463 C 625.684 -0.818586 1.53542 0
M  V30 6464 O 626.86 -0.767195 1.86215 0
M  V30 6465 C 623.925 -1.00734 3.31743 0
M  V30 6466 C 622.986 -0.23515 4.28655 0
M  V30 6467 C 622.219 -1.14803 5.21206 0
M  V30 6468 O 622.442 -2.38717 5.18045 0
M  V30 6469 O 621.376 -0.623667 5.9866 0
M  V30 6470 H 625.202 0.698863 2.9555 0
M  V30 6471 H 622.787 0.407412 1.43738 0
M  V30 6472 H 624.669 -1.55837 3.91526 0
M  V30 6473 H 623.344 -1.73534 2.73254 0
M  V30 6474 H 622.251 0.359319 3.7237 0
M  V30 6475 H 623.584 0.453152 4.9011 0
M  V30 6476 N 625.236 -1.5273 0.388769 0
M  V30 6477 C 626.199 -2.25043 -0.434544 0
M  V30 6478 C 627.199 -1.26661 -0.990644 0
M  V30 6479 O 628.389 -1.50762 -0.872731 0
M  V30 6480 C 625.521 -3.00507 -1.60961 0
M  V30 6481 H 626.714 -2.99242 0.198549 0
M  V30 6482 H 624.267 -1.55664 0.140875 0
M  V30 6483 H 625.002 -2.30607 -2.28015 0
M  V30 6484 H 624.787 -3.72716 -1.21757 0
M  V30 6485 H 626.277 -3.55413 -2.19251 0
M  V30 6486 N 626.714 -0.118576 -1.57153 0
M  V30 6487 C 627.644 0.828436 -2.1831 0
M  V30 6488 C 628.625 1.27758 -1.12303 0
M  V30 6489 O 629.81 1.34026 -1.40537 0
M  V30 6490 C 626.94 2.07876 -2.78217 0
M  V30 6491 C 625.894 1.76742 -3.89803 0
M  V30 6492 C 625.22 3.08801 -4.36516 0
M  V30 6493 C 626.52 1.03606 -5.11921 0
M  V30 6494 H 628.214 0.318824 -2.97698 0
M  V30 6495 H 625.76 0.151911 -1.43196 0
M  V30 6496 H 627.713 2.74584 -3.19659 0
M  V30 6497 H 626.437 2.61161 -1.96118 0
M  V30 6498 H 625.096 1.12424 -3.48936 0
M  V30 6499 H 624.744 3.6002 -3.51276 0
M  V30 6500 H 624.444 2.88743 -5.11763 0
M  V30 6501 H 625.968 3.76627 -4.80608 0
M  V30 6502 H 627.382 1.60467 -5.50385 0
M  V30 6503 H 625.779 0.936454 -5.92748 0
M  V30 6504 H 626.849 0.0227421 -4.84895 0
M  V30 6505 N 628.193 1.56834 0.155195 0
M  V30 6506 C 629.143 1.94061 1.19684 0
M  V30 6507 C 630.127 0.810851 1.38975 0
M  V30 6508 O 631.319 1.07422 1.40675 0
M  V30 6509 C 628.448 2.31778 2.53247 0
M  V30 6510 C 627.534 3.51305 2.37583 0
M  V30 6511 N 627.925 4.68081 1.9166 0
M  V30 6512 C 626.223 3.56228 2.6836 0
M  V30 6513 C 626.924 5.50193 1.88845 0
M  V30 6514 N 625.9 4.91676 2.31852 0
M  V30 6515 H 629.702 2.81826 0.833747 0
M  V30 6516 H 627.216 1.58284 0.363328 0
M  V30 6517 H 629.213 2.56649 3.28538 0
M  V30 6518 H 627.873 1.4536 2.90346 0
M  V30 6519 H 628.884 4.91993 1.6175 0
M  V30 6520 H 625.561 2.8033 3.09389 0
M  V30 6521 H 626.951 6.53801 1.54901 0
M  V30 6522 N 629.671 -0.424282 1.51781 0
M  V30 6523 C 630.619 -1.53649 1.74628 0
M  V30 6524 C 631.613 -1.57923 0.612922 0
M  V30 6525 O 632.819 -1.61511 0.794618 0
M  V30 6526 H 629.194 -0.510706 0.551981 0
M  V30 6527 H 631.165 -1.31558 2.67834 0
M  V30 6528 C 629.914 -2.91177 1.9003 0
M  V30 6529 H 629.237 -2.88625 2.76651 0
M  V30 6530 H 630.677 -3.6833 2.10021 0
M  V30 6531 C 629.136 -3.30303 0.663435 0
M  V30 6532 O 629.666 -4.01315 -0.175812 0
M  V30 6533 N 627.872 -2.86201 0.503723 0
M  V30 6534 H 627.419 -2.28583 1.18776 0
M  V30 6535 H 627.377 -3.12741 -0.322575 0
M  V30 6536 N 631.149 -1.42148 -0.680565 0
M  V30 6537 C 632.099 -1.41634 -1.78672 0
M  V30 6538 C 633.083 -0.288494 -1.58293 0
M  V30 6539 O 634.275 -0.530295 -1.68869 0
M  V30 6540 C 631.404 -1.31558 -3.17092 0
M  V30 6541 C 630.49 -2.49265 -3.43115 0
M  V30 6542 N 630.881 -3.74702 -3.39753 0
M  V30 6543 C 629.179 -2.43401 -3.73727 0
M  V30 6544 C 629.88 -4.52854 -3.651 0
M  V30 6545 N 628.856 -3.83181 -3.85582 0
M  V30 6546 H 632.658 -2.3652 -1.74458 0
M  V30 6547 H 630.172 -1.36415 -0.881171 0
M  V30 6548 H 632.169 -1.29272 -3.96351 0
M  V30 6549 H 630.829 -0.376696 -3.22508 0
M  V30 6550 H 631.84 -4.07378 -3.19787 0
M  V30 6551 H 628.517 -1.58062 -3.86423 0
M  V30 6552 H 629.907 -5.61827 -3.6851 0
M  V30 6553 N 632.627 0.916307 -1.28225 0
M  V30 6554 C 633.857 1.69654 -1.17902 0
M  V30 6555 C 634.265 1.87331 0.265268 0
M  V30 6556 O 633.608 1.39828 1.19137 0
M  V30 6557 C 633.67 3.11024 -1.80289 0
M  V30 6558 C 633.334 3.16643 -3.29525 0
M  V30 6559 C 634.331 2.98032 -4.25997 0
M  V30 6560 C 632.016 3.39238 -3.70436 0
M  V30 6561 C 634.01 3.01924 -5.61356 0
M  V30 6562 C 631.697 3.42762 -5.05922 0
M  V30 6563 C 632.695 3.24125 -6.01192 0
M  V30 6564 O 632.383 3.27406 -7.34208 0
M  V30 6565 H 632.115 0.537197 -0.41036 0
M  V30 6566 H 634.669 1.15547 -1.69817 0
M  V30 6567 H 632.899 3.66662 -1.22865 0
M  V30 6568 H 634.588 3.71063 -1.6452 0
M  V30 6569 H 635.354 2.80405 -3.95725 0
M  V30 6570 H 631.233 3.52791 -2.96749 0
M  V30 6571 H 634.777 2.87295 -6.35694 0
M  V30 6572 H 630.674 3.59916 -5.35846 0
M  V30 6573 H 631.442 3.43784 -7.42802 0
M  V30 6574 N 634.105 1.10431 1.1244 0
M  V30 6575 C 635.333 0.868872 1.87772 0
M  V30 6576 C 635.748 -0.580645 1.7965 0
M  V30 6577 O 635.105 -1.40031 1.17036 0
M  V30 6578 C 635.156 1.30855 3.36986 0
M  V30 6579 O 634.877 2.70123 3.44914 0
M  V30 6580 C 636.378 1.107 4.29256 0
M  V30 6581 H 633.598 0.311868 0.59412 0
M  V30 6582 H 636.142 1.46897 1.42273 0
M  V30 6583 H 634.297 0.752126 3.80029 0
M  V30 6584 H 634.711 2.88923 4.37748 0
M  V30 6585 H 636.185 1.46378 5.32238 0
M  V30 6586 H 636.662 0.0456228 4.39176 0
M  V30 6587 H 637.268 1.64988 3.91994 0
M  V30 6588 N 635.583 -1.29855 0.893053 0
M  V30 6589 C 636.515 -2.26911 0.32311 0
M  V30 6590 C 637.528 -1.54039 -0.526858 0
M  V30 6591 O 638.717 -1.75132 -0.345095 0
M  V30 6592 C 635.817 -3.34266 -0.558509 0
M  V30 6593 C 634.99 -4.36601 0.264222 0
M  V30 6594 C 634.049 -5.23326 -0.549171 0
M  V30 6595 O 633.075 -5.69192 0.0309883 0
M  V30 6596 N 634.277 -5.50008 -1.85664 0
M  V30 6597 H 637.042 -2.76455 1.15726 0
M  V30 6598 H 634.603 -1.4312 0.756859 0
M  V30 6599 H 636.595 -3.89211 -1.1089 0
M  V30 6600 H 635.165 -2.8459 -1.29334 0
M  V30 6601 H 634.385 -3.81409 0.996046 0
M  V30 6602 H 635.673 -5.02019 0.827906 0
M  V30 6603 H 635.071 -5.14542 -2.35081 0
M  V30 6604 H 633.628 -6.07796 -2.35431 0
M  V30 6605 N 637.061 -0.65484 -1.43351 0
M  V30 6606 C 638.008 0.0357713 -2.30772 0
M  V30 6607 C 638.978 0.813035 -1.44841 0
M  V30 6608 O 640.163 0.789314 -1.73708 0
M  V30 6609 C 637.303 0.995084 -3.30442 0
M  V30 6610 C 636.416 0.21375 -4.31471 0
M  V30 6611 C 635.551 1.16701 -5.18222 0
M  V30 6612 C 634.59 0.376201 -6.10943 0
M  V30 6613 N 633.727 1.28113 -6.90313 0
M  V30 6614 H 638.567 -0.71559 -2.89281 0
M  V30 6615 H 636.104 -0.364645 -1.42509 0
M  V30 6616 H 638.062 1.5649 -3.86739 0
M  V30 6617 H 636.692 1.7133 -2.7358 0
M  V30 6618 H 635.744 -0.472377 -3.77456 0
M  V30 6619 H 637.056 -0.401103 -4.97185 0
M  V30 6620 H 636.21 1.8074 -5.79153 0
M  V30 6621 H 634.949 1.81577 -4.52638 0
M  V30 6622 H 633.954 -0.277534 -5.49099 0
M  V30 6623 H 635.179 -0.268178 -6.7857 0
M  V30 6624 H 633.125 1.91666 -6.27376 0
M  V30 6625 H 633.042 0.720879 -7.52555 0
M  V30 6626 H 634.31 1.90962 -7.55747 0
M  V30 6627 N 638.539 1.52521 -0.396863 0
M  V30 6628 C 639.764 2.06571 0.185258 0
M  V30 6629 C 640.189 1.26605 1.39115 0
M  V30 6630 O 639.547 0.293055 1.78916 0
M  V30 6631 C 639.595 3.5674 0.526189 0
M  V30 6632 O 638.699 3.7929 1.61903 0
M  V30 6633 H 638.04 0.663712 0.0195474 0
M  V30 6634 H 640.57 1.966 -0.566519 0
M  V30 6635 H 640.58 4.00311 0.788338 0
M  V30 6636 H 639.255 4.14379 -0.355397 0
M  V30 6637 H 637.832 3.47605 1.35 0
M  V30 6638 N 640.017 0.126909 1.57088 0
M  V30 6639 C 640.947 -0.816847 2.18746 0
M  V30 6640 C 641.928 -1.27161 1.12979 0
M  V30 6641 O 643.113 -1.33279 1.41246 0
M  V30 6642 C 640.243 -2.06398 2.79315 0
M  V30 6643 C 639.197 -1.74673 3.90735 0
M  V30 6644 C 638.523 -3.06482 4.38147 0
M  V30 6645 C 639.823 -1.0089 5.12463 0
M  V30 6646 H 641.517 -0.303032 2.97863 0
M  V30 6647 H 639.063 -0.144314 1.43275 0
M  V30 6648 H 641.016 -2.72885 3.2111 0
M  V30 6649 H 639.74 -2.60118 1.975 0
M  V30 6650 H 638.399 -1.10572 3.49527 0
M  V30 6651 H 638.047 -3.58152 3.5318 0
M  V30 6652 H 637.747 -2.86025 5.13287 0
M  V30 6653 H 639.271 -3.74073 4.82599 0
M  V30 6654 H 640.685 -1.57546 5.51228 0
M  V30 6655 H 639.082 -0.905006 5.93237 0
M  V30 6656 H 640.152 0.00297335 4.849 0
M  V30 6657 N 641.495 -1.56914 -0.146875 0
M  V30 6658 C 642.72 -1.87881 -0.878386 0
M  V30 6659 C 643.145 -0.715945 -1.73942 0
M  V30 6660 O 642.503 0.334447 -1.78189 0
M  V30 6661 C 642.551 -3.17431 -1.71084 0
M  V30 6662 O 641.655 -3.01374 -2.81509 0
M  V30 6663 H 640.996 -0.617289 -0.244644 0
M  V30 6664 H 643.526 -2.04136 -0.137654 0
M  V30 6665 H 643.536 -3.49455 -2.10582 0
M  V30 6666 H 642.211 -4.01671 -1.07856 0
M  V30 6667 H 640.788 -2.80758 -2.45416 0
M  V30 6668 N 642.974 0.416227 -1.52004 0
M  V30 6669 C 643.904 1.51365 -1.77795 0
M  V30 6670 C 644.885 1.58059 -0.628601 0
M  V30 6671 O 646.07 1.73447 -0.873478 0
M  V30 6672 C 643.2 2.89256 -1.92219 0
M  V30 6673 C 642.154 2.97415 -3.0778 0
M  V30 6674 C 641.48 4.37492 -3.07417 0
M  V30 6675 C 642.78 2.69551 -4.47369 0
M  V30 6676 H 644.474 1.30033 -2.69688 0
M  V30 6677 H 642.02 0.624112 -1.29772 0
M  V30 6678 H 643.973 3.66008 -2.08845 0
M  V30 6679 H 642.697 3.11866 -0.969917 0
M  V30 6680 H 641.356 2.23107 -2.90893 0
M  V30 6681 H 641.004 4.571 -2.09925 0
M  V30 6682 H 640.704 4.43877 -3.85029 0
M  V30 6683 H 642.228 5.16188 -3.26162 0
M  V30 6684 H 643.642 3.36028 -4.64497 0
M  V30 6685 H 642.039 2.87321 -5.26846 0
M  V30 6686 H 643.109 1.65029 -4.55953 0
M  V30 6687 N 644.452 1.42507 0.673017 0
M  V30 6688 C 645.677 1.4668 1.46627 0
M  V30 6689 C 646.102 0.080066 1.8793 0
M  V30 6690 O 645.46 -0.921879 1.56112 0
M  V30 6691 C 645.508 2.40091 2.69051 0
M  V30 6692 O 644.612 1.8735 3.67387 0
M  V30 6693 H 643.953 0.496908 0.44043 0
M  V30 6694 H 646.483 1.87215 0.825334 0
M  V30 6695 H 646.493 2.56731 3.17101 0
M  V30 6696 H 645.168 3.4084 2.3833 0
M  V30 6697 H 643.745 1.80274 3.26429 0
M  V30 6698 N 645.93 -0.909495 1.28709 0
M  V30 6699 C 646.86 -2.0291 1.15542 0
M  V30 6700 C 647.841 -1.7002 0.0521017 0
M  V30 6701 O 649.026 -1.92835 0.229849 0
M  V30 6702 C 646.156 -3.37458 0.820935 0
M  V30 6703 C 645.11 -3.84524 1.87949 0
M  V30 6704 C 644.436 -5.16086 1.39854 0
M  V30 6705 C 645.736 -4.05918 3.28676 0
M  V30 6706 H 647.43 -2.14183 2.09203 0
M  V30 6707 H 644.976 -1.02913 1.00722 0
M  V30 6708 H 646.929 -4.1528 0.715571 0
M  V30 6709 H 645.653 -3.26249 -0.151374 0
M  V30 6710 H 644.312 -3.08911 1.97408 0
M  V30 6711 H 643.96 -5.01284 0.41518 0
M  V30 6712 H 643.66 -5.48547 2.1064 0
M  V30 6713 H 645.184 -5.96459 1.30649 0
M  V30 6714 H 646.598 -4.74252 3.22115 0
M  V30 6715 H 644.995 -4.49717 3.97334 0
M  V30 6716 H 646.065 -3.10583 3.72379 0
M  V30 6717 N 647.408 -1.11026 -1.11852 0
M  V30 6718 C 648.656 -0.854769 -1.83134 0
M  V30 6719 C 648.977 0.621375 -1.84835 0
M  V30 6720 O 648.247 1.45129 -1.31584 0
M  V30 6721 H 646.827 -0.313229 -0.678157 0
M  V30 6722 H 649.489 -1.40178 -1.35411 0
M  V30 6723 H 648.585 -1.22311 -2.87135 0
M  V30 6724 N 648.886 1.2938 -0.899927 0
M  V30 6725 C 649.833 2.27713 -0.376243 0
M  V30 6726 C 650.803 1.57016 0.541774 0
M  V30 6727 O 651.988 1.84997 0.466966 0
M  V30 6728 C 649.128 3.42889 0.39 0
M  V30 6729 C 648.241 4.28369 -0.558938 0
M  V30 6730 C 647.376 5.30726 0.224379 0
M  V30 6731 C 646.415 6.07862 -0.719068 0
M  V30 6732 N 645.552 7.02094 0.0298569 0
M  V30 6733 H 650.392 2.71888 -1.21988 0
M  V30 6734 H 647.929 1.33724 -0.612879 0
M  V30 6735 H 649.887 4.08443 0.850314 0
M  V30 6736 H 648.517 2.99743 1.19809 0
M  V30 6737 H 647.569 3.62986 -1.13777 0
M  V30 6738 H 648.881 4.82068 -1.2811 0
M  V30 6739 H 648.035 6.02098 0.745881 0
M  V30 6740 H 646.774 4.77759 0.979674 0
M  V30 6741 H 645.779 5.35353 -1.25207 0
M  V30 6742 H 647.004 6.62917 -1.4737 0
M  V30 6743 H 644.95 6.51496 0.767415 0
M  V30 6744 H 644.867 7.5335 -0.632391 0
M  V30 6745 H 646.135 7.77685 0.531615 0
M  V30 6746 O 650.403 0.801822 1.40189 0
M  V30 6747 H 651.094 0.376359 1.90008 0
M  V30 END ATOM
M  V30 BEGIN BOND
M  V30 END BOND
M  V30 END CTAB
M  END
$$$$
