drugbank_target|Q15116 Programmed cell death protein 1 (DB05916; DB09035; DB09037; DB14707; DB14776; DB14892; DB14922; DB15043; DB15627; DB15765; DB15766; DB15767; DB15768)
 OpenBabel12092120323D

  0  0  0     0  0            999 V3000
M  V30 BEGIN CTAB
M  V30 COUNTS 4419 4488 0 0 0
M  V30 BEGIN ATOM
M  V30 1 H -0.908 1.98254 -0.117106 0
M  V30 2 N 0 1.576 0 0
M  V30 3 C 0.933 2.03868 1.02534 0
M  V30 4 C 1.911 0.928543 1.3348 0
M  V30 5 O 3.095 1.19667 1.45644 0
M  V30 6 C 0.222 2.43627 2.35294 0
M  V30 7 C -0.732 3.65373 2.2001 0
M  V30 8 S 0.101 5.13292 1.52614 0
M  V30 9 C 1.257 5.56322 2.86805 0
M  V30 10 H 1.49 2.90518 0.631377 0
M  V30 11 H -0.977 1.52953 0.210867 0
M  V30 12 H 0.981 2.67203 3.11629 0
M  V30 13 H -0.358 1.57376 2.7183 0
M  V30 14 H -1.165 3.90944 3.18086 0
M  V30 15 H -1.563 3.418 1.51819 0
M  V30 16 H 0.729 5.58782 3.83104 0
M  V30 17 H 1.672 6.56266 2.65933 0
M  V30 18 H 2.08 4.83886 2.90714 0
M  V30 19 N 1.4781 -0.272755 1.55222 0
M  V30 20 C 2.4101 -1.35946 1.8453 0
M  V30 21 C 3.4231 -1.45525 0.729818 0
M  V30 22 O 4.6121 -1.47337 1.00767 0
M  V30 23 C 1.7121 -2.74069 1.99347 0
M  V30 24 C 0.8851 -2.87079 3.30007 0
M  V30 25 C -0.0559 -4.05879 3.34886 0
M  V30 26 O -1.0299 -3.96626 4.08261 0
M  V30 27 N 0.1721 -5.17857 2.62307 0
M  V30 28 H 2.9371 -1.11149 2.78327 0
M  V30 29 H 0.4981 -0.462869 1.55142 0
M  V30 30 H 2.4901 -3.51838 1.99981 0
M  V30 31 H 1.0601 -2.91688 1.12415 0
M  V30 32 H 0.2801 -1.96193 3.41909 0
M  V30 33 H 1.5681 -2.92701 4.16177 0
M  V30 34 H 0.9661 -5.28261 2.02377 0
M  V30 35 H -0.4769 -5.93855 2.68663 0
M  V30 36 N 2.9562 -1.48159 -0.537278 0
M  V30 37 C 4.2052 -1.5506 -1.28993 0
M  V30 38 C 4.5182 -0.226211 -1.94288 0
M  V30 39 O 5.7242 -0.173395 -2.70946 0
M  V30 40 C 4.1802 -2.73429 -2.34018 0
M  V30 41 C 3.7882 -4.1248 -1.74825 0
M  V30 42 C 5.5322 -2.89638 -3.10339 0
M  V30 43 C 3.4392 -5.22121 -2.77747 0
M  V30 44 H 2.3692 -0.577231 -0.485098 0
M  V30 45 H 5.0202 -1.74478 -0.568317 0
M  V30 46 H 3.4022 -2.47431 -3.09182 0
M  V30 47 H 4.5762 -4.48466 -1.05899 0
M  V30 48 H 2.8912 -4.01327 -1.11022 0
M  V30 49 H 5.4882 -3.68718 -3.87235 0
M  V30 50 H 5.8312 -1.9882 -3.65754 0
M  V30 51 H 6.3642 -3.15502 -2.42288 0
M  V30 52 H 3.1032 -6.1488 -2.27161 0
M  V30 53 H 2.6232 -4.90631 -3.45024 0
M  V30 54 H 4.3022 -5.49924 -3.4087 0
M  V30 55 N 4.4343 0.785586 -1.36625 0
M  V30 56 C 5.8453 1.36101 -1.27803 0
M  V30 57 C 6.1963 1.96035 0.0804875 0
M  V30 58 O 5.3213 1.92834 0.982042 0
M  V30 59 C 5.9163 2.47442 -2.31426 0
M  V30 60 C 4.4753 3.00789 -2.26281 0
M  V30 61 C 3.6223 1.73896 -2.15999 0
M  V30 62 H 6.5733 0.586928 -1.47448 0
M  V30 63 H 6.5943 3.2656 -1.95291 0
M  V30 64 H 6.1063 2.03791 -3.30289 0
M  V30 65 H 4.2073 3.48851 -1.30896 0
M  V30 66 H 4.3203 3.57343 -3.19128 0
M  V30 67 H 2.6843 1.9628 -1.62316 0
M  V30 68 H 3.4673 1.32368 -3.16755 0
M  V30 69 N 5.9124 1.20967 1.01018 0
M  V30 70 C 6.8444 0.922059 2.09835 0
M  V30 71 C 7.8574 -0.0927106 1.62536 0
M  V30 72 O 9.0464 0.139127 1.77957 0
M  V30 73 C 6.1464 0.362004 3.36961 0
M  V30 74 C 5.3194 1.42986 4.13369 0
M  V30 75 C 4.3784 0.879976 5.1879 0
M  V30 76 O 3.4044 1.56219 5.47343 0
M  V30 77 N 4.6064 -0.307396 5.79686 0
M  V30 78 H 7.3714 1.8588 2.35093 0
M  V30 79 H 4.9324 1.11422 1.1746 0
M  V30 80 H 6.9244 -0.0201474 4.04695 0
M  V30 81 H 5.4944 -0.479437 3.08902 0
M  V30 82 H 4.7144 1.98608 3.40512 0
M  V30 83 H 6.0024 2.14885 4.61196 0
M  V30 84 H 5.4004 -0.878796 5.58832 0
M  V30 85 H 3.9574 -0.631115 6.48737 0
M  V30 86 N 7.3905 -1.2043 1.01659 0
M  V30 87 C 8.3535 -2.21433 0.591616 0
M  V30 88 C 9.3535 -1.57203 -0.338226 0
M  V30 89 O 10.5435 -1.73737 -0.126918 0
M  V30 90 C 7.6755 -3.40628 -0.136058 0
M  V30 91 H 8.8685 -2.60545 1.48514 0
M  V30 92 H 6.4215 -1.33893 0.806379 0
M  V30 93 H 7.1565 -3.07019 -1.04449 0
M  V30 94 H 6.9415 -3.88475 0.531917 0
M  V30 95 H 8.4315 -4.15475 -0.420735 0
M  V30 96 N 8.8686 -0.792821 -1.36206 0
M  V30 97 C 10.2796 -0.429513 -1.81692 0
M  V30 98 C 10.6306 1.04695 -1.65932 0
M  V30 99 O 9.7556 1.81256 -1.18218 0
M  V30 100 C 10.3506 -0.772831 -3.29868 0
M  V30 101 C 8.9096 -0.462307 -3.7355 0
M  V30 102 C 8.0566 -1.00569 -2.5842 0
M  V30 103 H 11.0076 -0.985672 -1.24379 0
M  V30 104 H 11.0286 -0.0651928 -3.80444 0
M  V30 105 H 10.5406 -1.84747 -3.41307 0
M  V30 106 H 8.6416 0.604158 -3.67669 0
M  V30 107 H 8.7546 -0.985299 -4.68859 0
M  V30 108 H 7.1186 -0.428734 -2.51066 0
M  V30 109 H 7.9016 -2.08616 -2.72643 0
M  V30 110 N 10.3467 1.47872 -0.545128 0
M  V30 111 C 11.5927 2.03385 -0.0247951 0
M  V30 112 C 11.9477 1.41325 1.30556 0
M  V30 113 O 11.2407 0.5552 1.8338 0
M  V30 114 C 11.4347 3.57131 0.13867 0
M  V30 115 C 11.2637 4.34097 -1.17429 0
M  V30 116 C 10.0337 4.74458 -1.73831 0
M  V30 117 C 12.2317 4.6998 -2.08861 0
M  V30 118 N 10.2137 5.3602 -2.99258 0
M  V30 119 C 11.5847 5.31719 -3.18866 0
M  V30 120 C 13.6397 4.5191 -2.09003 0
M  V30 121 C 12.3427 5.77295 -4.29096 0
M  V30 122 C 14.3687 4.98477 -3.18237 0
M  V30 123 C 13.7307 5.60253 -4.26961 0
M  V30 124 H 9.8297 0.780339 -0.050943 0
M  V30 125 H 12.4137 1.80507 -0.729753 0
M  V30 126 H 10.5847 3.79802 0.812733 0
M  V30 127 H 12.3167 3.99282 0.659976 0
M  V30 128 H 9.0717 4.56037 -1.2778 0
M  V30 129 H 9.4957 5.71355 -3.63157 0
M  V30 130 H 14.1377 4.03516 -1.26234 0
M  V30 131 H 11.8557 6.24687 -5.12633 0
M  V30 132 H 15.4417 4.86274 -3.1942 0
M  V30 133 H 14.3217 5.95631 -5.10091 0
M  V30 134 N 11.8248 0.280983 1.55075 0
M  V30 135 C 13.2358 -0.215629 1.85451 0
M  V30 136 C 13.5868 -1.54991 1.203 0
M  V30 137 O 12.7118 -2.10699 0.493435 0
M  V30 138 C 13.3068 -0.398026 3.36454 0
M  V30 139 C 11.8658 -0.838866 3.66933 0
M  V30 140 C 11.0128 0.064458 2.77225 0
M  V30 141 H 13.9638 0.502601 1.50531 0
M  V30 142 H 13.9848 -1.23569 3.59876 0
M  V30 143 H 13.4968 0.573241 3.83843 0
M  V30 144 H 11.5978 -1.8214 3.25048 0
M  V30 145 H 11.7108 -0.672123 4.74362 0
M  V30 146 H 10.0748 -0.452863 2.50642 0
M  V30 147 H 10.8578 1.03172 3.2743 0
M  V30 148 N 13.3029 -1.57598 0.00835791 0
M  V30 149 C 14.5489 -1.91211 -0.675732 0
M  V30 150 C 14.8819 -0.883139 -1.72958 0
M  V30 151 O 14.1569 0.097016 -1.94258 0
M  V30 152 C 14.4399 -3.35379 -1.31123 0
M  V30 153 C 14.2929 -4.48999 -0.268356 0
M  V30 154 C 15.6119 -3.7912 -2.23508 0
M  V30 155 H 12.7309 -0.695374 -0.244179 0
M  V30 156 H 15.3729 -1.89901 0.0613655 0
M  V30 157 H 13.5229 -3.36626 -1.93946 0
M  V30 158 H 15.1949 -4.59887 0.360844 0
M  V30 159 H 13.4379 -4.31873 0.408482 0
M  V30 160 H 14.1089 -5.46851 -0.752218 0
M  V30 161 H 16.5849 -3.79477 -1.70693 0
M  V30 162 H 15.4609 -4.80729 -2.64936 0
M  V30 163 H 15.7219 -3.13455 -3.11766 0
M  V30 164 N 14.781 0.264519 -1.55364 0
M  V30 165 C 16.027 0.99646 -1.76631 0
M  V30 166 C 16.36 1.85632 -0.570478 0
M  V30 167 O 15.635 1.89647 0.43175 0
M  V30 168 C 15.918 1.87187 -3.07625 0
M  V30 169 C 15.771 1.04138 -4.37579 0
M  V30 170 C 17.09 2.85749 -3.34717 0
M  V30 171 H 14.209 0.360841 -0.642622 0
M  V30 172 H 16.851 0.268218 -1.88097 0
M  V30 173 H 15.001 2.49279 -2.9798 0
M  V30 174 H 16.673 0.440517 -4.59192 0
M  V30 175 H 14.916 0.345115 -4.32425 0
M  V30 176 H 15.587 1.68729 -5.2558 0
M  V30 177 H 18.063 2.33793 -3.4421 0
M  V30 178 H 16.939 3.44136 -4.27623 0
M  V30 179 H 17.2 3.61311 -2.54768 0
M  V30 180 N 16.2591 1.48442 0.529413 0
M  V30 181 C 17.5051 1.57699 1.28463 0
M  V30 182 C 17.8601 0.247913 1.90796 0
M  V30 183 O 17.1531 -0.749279 1.76342 0
M  V30 184 C 17.3471 2.6523 2.39558 0
M  V30 185 C 17.1761 4.08464 1.88114 0
M  V30 186 C 15.9461 4.75596 1.70693 0
M  V30 187 C 18.1441 4.94613 1.40935 0
M  V30 188 N 16.1261 6.03245 1.13881 0
M  V30 189 C 17.4971 6.12511 0.960734 0
M  V30 190 C 19.5521 4.80833 1.29243 0
M  V30 191 C 18.2551 7.18149 0.406792 0
M  V30 192 C 20.2811 5.86593 0.752487 0
M  V30 193 C 19.6431 7.037 0.313946 0
M  V30 194 H 15.7421 0.631608 0.46108 0
M  V30 195 H 18.3261 1.85325 0.596886 0
M  V30 196 H 16.4971 2.39425 3.05827 0
M  V30 197 H 18.2291 2.64169 3.06589 0
M  V30 198 H 14.9841 4.31938 1.94232 0
M  V30 199 H 15.4081 6.71324 0.874831 0
M  V30 200 H 20.0501 3.90635 1.61754 0
M  V30 201 H 17.7681 8.0807 0.0693671 0
M  V30 202 H 21.3541 5.77985 0.665192 0
M  V30 203 H 20.2341 7.8414 -0.0973632 0
M  V30 204 N 17.7372 -0.778329 1.37039 0
M  V30 205 C 18.7002 -1.87301 1.32102 0
M  V30 206 C 19.7002 -1.59198 0.226405 0
M  V30 207 O 20.8902 -1.67403 0.481861 0
M  V30 208 C 18.0222 -3.24309 1.05055 0
M  V30 209 H 19.2152 -1.93093 2.29467 0
M  V30 210 H 16.7682 -0.977358 1.21973 0
M  V30 211 H 17.5032 -3.24196 0.0819373 0
M  V30 212 H 17.2882 -3.46098 1.84279 0
M  V30 213 H 18.7782 -4.04382 1.04234 0
M  V30 214 N 19.2153 -1.21501 -1.00376 0
M  V30 215 C 20.4613 -1.03452 -1.74429 0
M  V30 216 C 20.7943 0.430764 -1.89362 0
M  V30 217 O 20.0693 1.31962 -1.42886 0
M  V30 218 C 20.3523 -1.73375 -3.15615 0
M  V30 219 C 20.2053 -3.27431 -3.08397 0
M  V30 220 C 21.5243 -1.47732 -4.14564 0
M  V30 221 H 18.6433 -0.377226 -0.633143 0
M  V30 222 H 21.2853 -1.49693 -1.17013 0
M  V30 223 H 19.4353 -1.34064 -3.64636 0
M  V30 224 H 21.1073 -3.76119 -2.67081 0
M  V30 225 H 19.3503 -3.5767 -2.45468 0
M  V30 226 H 20.0213 -3.71524 -4.08258 0
M  V30 227 H 22.4973 -1.8186 -3.74254 0
M  V30 228 H 21.3733 -1.99169 -5.11491 0
M  V30 229 H 21.6343 -0.407589 -4.40217 0
M  V30 230 N 20.6934 1.19889 -1.02296 0
M  V30 231 C 21.6234 2.25141 -0.619174 0
M  V30 232 C 22.6044 1.66051 0.368915 0
M  V30 233 O 23.7894 1.92546 0.252941 0
M  V30 234 C 20.9194 3.4728 0.0368783 0
M  V30 235 C 19.8734 4.19005 -0.872865 0
M  V30 236 C 19.1994 5.34637 -0.0822402 0
M  V30 237 C 20.4994 4.74452 -2.18387 0
M  V30 238 H 22.1934 2.59171 -1.49903 0
M  V30 239 H 19.7394 1.24579 -0.722222 0
M  V30 240 H 21.6924 4.20098 0.330958 0
M  V30 241 H 20.4164 3.12433 0.95149 0
M  V30 242 H 19.0754 3.48061 -1.15105 0
M  V30 243 H 18.7234 4.96034 0.83422 0
M  V30 244 H 18.4234 5.83557 -0.688149 0
M  V30 245 H 19.9474 6.10255 0.205238 0
M  V30 246 H 21.3614 5.39055 -1.95172 0
M  V30 247 H 19.7584 5.33834 -2.74119 0
M  V30 248 H 20.8284 3.92844 -2.84257 0
M  V30 249 N 22.1715 0.800033 1.35784 0
M  V30 250 C 23.1035 0.163596 2.28615 0
M  V30 251 C 24.1165 -0.633317 1.49976 0
M  V30 252 O 25.3055 -0.466754 1.72289 0
M  V30 253 C 22.4055 -0.790958 3.29541 0
M  V30 254 C 21.5785 -0.0418255 4.3738 0
M  V30 255 C 20.6375 -0.91389 5.18203 0
M  V30 256 O 19.6635 -0.367234 5.68014 0
M  V30 257 N 20.8655 -2.23682 5.35674 0
M  V30 258 H 23.6305 0.96105 2.83873 0
M  V30 259 H 21.1915 0.654894 1.48063 0
M  V30 260 H 23.1835 -1.37844 3.80501 0
M  V30 261 H 21.7535 -1.48925 2.74846 0
M  V30 262 H 20.9735 0.726813 3.87442 0
M  V30 263 H 22.2615 0.474719 5.06581 0
M  V30 264 H 21.6595 -2.70497 4.96838 0
M  V30 265 H 20.2165 -2.77369 5.89839 0
M  V30 266 N 23.6496 -1.47581 0.552962 0
M  V30 267 C 24.5796 -2.32762 -0.185451 0
M  V30 268 C 25.5606 -1.43527 -0.912905 0
M  V30 269 O 26.7456 -1.72388 -0.894201 0
M  V30 270 C 23.8756 -3.25219 -1.21859 0
M  V30 271 C 22.8296 -4.23661 -0.607864 0
M  V30 272 C 22.1556 -5.05413 -1.74533 0
M  V30 273 C 23.4556 -5.20481 0.435582 0
M  V30 274 H 25.1496 -2.94749 0.525684 0
M  V30 275 H 22.6956 -1.41738 0.254251 0
M  V30 276 H 24.6486 -3.8365 -1.7433 0
M  V30 277 H 23.3726 -2.61279 -1.95961 0
M  V30 278 H 22.0316 -3.66451 -0.104489 0
M  V30 279 H 21.6796 -4.3788 -2.47529 0
M  V30 280 H 21.3796 -5.72059 -1.34249 0
M  V30 281 H 22.9036 -5.66701 -2.27338 0
M  V30 282 H 24.3176 -5.733 -0.00290157 0
M  V30 283 H 22.7146 -5.95305 0.757067 0
M  V30 284 H 23.7846 -4.66217 1.33303 0
M  V30 285 N 25.1277 -0.289203 -1.54924 0
M  V30 286 C 26.3757 0.322879 -1.99504 0
M  V30 287 C 26.6967 1.55313 -1.1791 0
M  V30 288 O 25.9667 1.94001 -0.272097 0
M  V30 289 H 24.5467 0.122291 -0.736922 0
M  V30 290 H 27.2087 -0.397802 -1.90797 0
M  V30 291 H 26.3047 0.603061 -3.06218 0
M  V30 292 N 26.6058 1.57591 -0.0167156 0
M  V30 293 C 27.8518 1.92399 0.659861 0
M  V30 294 C 28.2068 0.892561 1.70444 0
M  V30 295 O 27.4998 -0.0930755 1.91374 0
M  V30 296 C 27.6938 3.3172 1.33029 0
M  V30 297 C 27.5228 4.48319 0.352174 0
M  V30 298 C 26.2928 5.05281 -0.0434883 0
M  V30 299 C 28.4908 5.12831 -0.388474 0
M  V30 300 N 26.4728 6.05399 -1.01807 0
M  V30 301 C 27.8438 6.07934 -1.2172 0
M  V30 302 C 29.8988 4.95858 -0.450513 0
M  V30 303 C 28.6018 6.87891 -2.10235 0
M  V30 304 C 30.6278 5.76413 -1.32295 0
M  V30 305 C 29.9898 6.71123 -2.13948 0
M  V30 306 H 26.0888 0.752106 0.21415 0
M  V30 307 H 28.6728 1.94532 -0.0809846 0
M  V30 308 H 26.8438 3.3043 2.04134 0
M  V30 309 H 28.5758 3.5391 1.9629 0
M  V30 310 H 25.3308 4.7246 0.328384 0
M  V30 311 H 25.7548 6.60145 -1.50123 0
M  V30 312 H 30.3968 4.22472 0.166512 0
M  V30 313 H 28.1148 7.60591 -2.72997 0
M  V30 314 H 31.7008 5.65317 -1.37508 0
M  V30 315 H 30.5808 7.3237 -2.80364 0
M  V30 316 N 28.0839 -0.256276 1.55502 0
M  V30 317 C 29.4999 -0.604325 1.47716 0
M  V30 318 C 29.6999 -1.88763 0.705039 0
M  V30 319 O 28.7559 -2.51445 0.230613 0
M  V30 320 C 30.0689 -0.715756 2.92057 0
M  V30 321 C 31.6169 -0.808706 3.02372 0
M  V30 322 C 32.0919 -0.951777 4.48001 0
M  V30 323 N 33.5829 -1.01688 4.519 0
M  V30 324 C 34.3179 -1.14668 5.61817 0
M  V30 325 N 33.8139 -1.24261 6.81565 0
M  V30 326 N 35.6069 -1.1791 5.49594 0
M  V30 327 H 27.7579 0.586291 2.04148 0
M  V30 328 H 30.0209 0.201015 0.926443 0
M  V30 329 H 29.7269 0.157027 3.51349 0
M  V30 330 H 29.6009 -1.59071 3.42018 0
M  V30 331 H 31.9879 -1.67195 2.43166 0
M  V30 332 H 32.0689 0.0912063 2.55637 0
M  V30 333 H 31.7129 -0.0931291 5.07815 0
M  V30 334 H 31.6429 -1.86659 4.92408 0
M  V30 335 H 34.1339 -0.954468 3.65648 0
M  V30 336 H 34.4469 -1.34046 7.61086 0
M  V30 337 H 32.7919 -1.21236 6.84344 0
M  V30 338 H 35.9829 -1.10057 4.54978 0
M  V30 339 H 36.1559 -1.27681 6.35296 0
M  V30 340 N 29.562 -1.4872 -0.521534 0
M  V30 341 C 30.973 -1.50607 -1.10337 0
M  V30 342 C 31.324 -0.280612 -1.94183 0
M  V30 343 O 30.449 0.611507 -2.0758 0
M  V30 344 C 31.044 -2.72903 -2.00772 0
M  V30 345 C 29.603 -2.77634 -2.54158 0
M  V30 346 C 28.75 -2.44241 -1.31307 0
M  V30 347 H 31.701 -1.55714 -0.306388 0
M  V30 348 H 31.722 -2.519 -2.85178 0
M  V30 349 H 31.234 -3.62077 -1.39721 0
M  V30 350 H 29.335 -1.92689 -3.18907 0
M  V30 351 H 29.448 -3.79283 -2.92714 0
M  V30 352 H 27.812 -1.95577 -1.63161 0
M  V30 353 H 28.595 -3.35666 -0.719943 0
M  V30 354 N 31.0401 0.771051 -1.3745 0
M  V30 355 C 32.2881 1.52661 -1.32435 0
M  V30 356 C 32.6091 1.9479 0.0905024 0
M  V30 357 O 31.8791 1.66348 1.03466 0
M  V30 358 H 30.4591 0.566218 -0.487244 0
M  V30 359 H 33.1211 0.917636 -1.71946 0
M  V30 360 H 32.2171 2.42568 -1.96385 0
M  V30 361 N 32.5182 1.22032 0.997298 0
M  V30 362 C 33.7642 1.05382 1.73972 0
M  V30 363 C 34.1192 -0.407419 1.88037 0
M  V30 364 O 33.4122 -1.29811 1.40924 0
M  V30 365 C 33.6062 1.69345 3.14733 0
M  V30 366 C 33.4352 3.21537 3.14395 0
M  V30 367 C 32.2052 3.9062 3.20537 0
M  V30 368 C 34.4032 4.18527 2.98897 0
M  V30 369 N 32.3852 5.29935 3.09906 0
M  V30 370 C 33.7562 5.44645 2.96247 0
M  V30 371 C 35.8112 4.09476 2.83255 0
M  V30 372 C 34.5142 6.62752 2.79557 0
M  V30 373 C 36.5402 5.27228 2.67926 0
M  V30 374 C 35.9022 6.52262 2.65959 0
M  V30 375 H 32.0012 0.440018 0.646458 0
M  V30 376 H 34.5852 1.54505 1.18475 0
M  V30 377 H 32.7562 1.22778 3.68484 0
M  V30 378 H 34.4882 1.45828 3.77513 0
M  V30 379 H 31.2432 3.41592 3.28043 0
M  V30 380 H 31.6672 6.02926 3.07912 0
M  V30 381 H 36.3092 3.13598 2.83577 0
M  V30 382 H 34.0272 7.58783 2.77982 0
M  V30 383 H 37.6132 5.22053 2.56812 0
M  V30 384 H 36.4932 7.41844 2.54239 0
M  V30 385 N 33.9963 -1.19345 1.0293 0
M  V30 386 C 35.2433 -1.89038 0.726008 0
M  V30 387 C 35.5713 -1.79649 -0.745427 0
M  V30 388 O 34.8263 -1.18354 -1.55855 0
M  V30 389 C 35.1253 -3.39292 1.12319 0
M  V30 390 C 34.7913 -3.68885 2.59297 0
M  V30 391 C 33.4533 -3.76671 2.99453 0
M  V30 392 C 35.8053 -3.82178 3.54386 0
M  V30 393 C 33.1333 -3.9522 4.33611 0
M  V30 394 C 35.4853 -4.0224 4.88248 0
M  V30 395 C 34.1493 -4.08259 5.28092 0
M  V30 396 H 33.4193 -0.691739 0.265665 0
M  V30 397 H 36.0663 -1.41328 1.29223 0
M  V30 398 H 34.3713 -3.88903 0.475584 0
M  V30 399 H 36.0683 -3.91536 0.866037 0
M  V30 400 H 32.6583 -3.63433 2.27189 0
M  V30 401 H 36.8423 -3.75505 3.24514 0
M  V30 402 H 32.0983 -3.98119 4.64016 0
M  V30 403 H 36.2723 -4.11468 5.61843 0
M  V30 404 H 33.8993 -4.22384 6.32057 0
M  V30 405 N 35.4744 -0.807222 -1.35358 0
M  V30 406 C 36.4044 -0.232509 -2.3234 0
M  V30 407 C 37.3854 0.642386 -1.57504 0
M  V30 408 O 38.5704 0.572526 -1.85569 0
M  V30 409 C 35.7004 0.619238 -3.41735 0
M  V30 410 C 34.6544 -0.157215 -4.27711 0
M  V30 411 C 33.9804 0.816273 -5.28433 0
M  V30 412 C 35.2804 -1.35656 -5.04376 0
M  V30 413 H 36.9744 -1.04276 -2.80654 0
M  V30 414 H 34.5204 -0.50288 -1.34934 0
M  V30 415 H 36.4734 1.03137 -4.08584 0
M  V30 416 H 35.1974 1.46239 -2.92031 0
M  V30 417 H 33.8564 -0.550525 -3.62443 0
M  V30 418 H 33.5044 1.65494 -4.74996 0
M  V30 419 H 33.2044 0.301067 -5.86828 0
M  V30 420 H 34.7284 1.22659 -5.98153 0
M  V30 421 H 36.1424 -1.01927 -5.64166 0
M  V30 422 H 34.5394 -1.8063 -5.7227 0
M  V30 423 H 35.6094 -2.14288 -4.34981 0
M  V30 424 N 36.9525 1.47285 -0.560781 0
M  V30 425 C 38.2295 1.9558 0.0277798 0
M  V30 426 C 38.6095 1.5034 1.48192 0
M  V30 427 O 37.9575 0.743882 2.16052 0
M  V30 428 C 38.1675 3.48789 -0.121418 0
M  V30 429 C 39.5155 4.24594 0.0220912 0
M  V30 430 O 40.5395 3.56166 -0.0491439 0
M  V30 431 O 39.3985 5.46217 0.175958 0
M  V30 432 H 36.4925 0.824663 0.0621342 0
M  V30 433 H 39.0385 1.5767 -0.627556 0
M  V30 434 H 37.8105 3.74533 -1.13316 0
M  V30 435 H 37.4335 3.93473 0.571366 0
M  V30 436 N 38.4306 0.297415 1.54768 0
M  V30 437 C 39.6556 -0.318435 2.04941 0
M  V30 438 C 40.0806 -1.4701 1.17345 0
M  V30 439 O 39.4386 -1.80436 0.176758 0
M  V30 440 C 39.4866 -0.755749 3.52592 0
M  V30 441 O 38.5906 -1.86088 3.68028 0
M  V30 442 H 37.9316 -0.062421 0.661059 0
M  V30 443 H 40.4616 0.438215 1.99852 0
M  V30 444 H 40.4716 -1.04552 3.94376 0
M  V30 445 H 39.1466 0.0867233 4.1581 0
M  V30 446 H 37.7236 -1.57193 3.38149 0
M  V30 447 N 39.9087 -1.5758 0.0250728 0
M  V30 448 C 41.3197 -1.79476 -0.514323 0
M  V30 449 C 41.6707 -0.934956 -1.72491 0
M  V30 450 O 40.7957 -0.144245 -2.15919 0
M  V30 451 C 41.3907 -3.25503 -0.939842 0
M  V30 452 C 39.9497 -3.48408 -1.42438 0
M  V30 453 C 39.0967 -2.74583 -0.387201 0
M  V30 454 H 42.0477 -1.567 0.25113 0
M  V30 455 H 42.0687 -3.34992 -1.80445 0
M  V30 456 H 41.5807 -3.88056 -0.0585628 0
M  V30 457 H 39.6817 -2.91103 -2.32572 0
M  V30 458 H 39.7947 -4.57119 -1.43455 0
M  V30 459 H 38.1587 -2.39942 -0.854409 0
M  V30 460 H 38.9417 -3.39849 0.485543 0
M  V30 461 N 41.3868 0.248026 -1.55636 0
M  V30 462 C 42.6638 0.998988 -1.68165 0
M  V30 463 C 43.0438 2.03409 -0.564621 0
M  V30 464 O 42.3918 2.24378 0.432076 0
M  V30 465 C 42.6018 1.63334 -3.0842 0
M  V30 466 C 43.9498 2.13562 -3.66983 0
M  V30 467 O 44.9738 1.73277 -3.11213 0
M  V30 468 O 43.8328 2.87526 -4.64749 0
M  V30 469 H 40.9268 0.464933 -0.683935 0
M  V30 470 H 43.4728 0.241902 -1.67967 0
M  V30 471 H 42.2448 0.884583 -3.8117 0
M  V30 472 H 41.8678 2.45666 -3.12624 0
M  V30 473 N 42.8649 1.48995 0.513639 0
M  V30 474 C 44.2809 1.35478 0.843682 0
M  V30 475 C 44.4809 0.378213 1.97919 0
M  V30 476 O 43.5369 -0.194689 2.51748 0
M  V30 477 C 44.8499 2.75901 1.1958 0
M  V30 478 C 46.3979 2.84509 1.30474 0
M  V30 479 C 46.8729 4.25671 1.69021 0
M  V30 480 N 48.3639 4.28422 1.76094 0
M  V30 481 C 49.0989 5.34601 2.07338 0
M  V30 482 N 48.5949 6.5104 2.36894 0
M  V30 483 N 50.3879 5.22007 2.08483 0
M  V30 484 H 42.5389 2.11092 -0.235328 0
M  V30 485 H 44.8019 0.947039 -0.0426669 0
M  V30 486 H 44.5079 3.49001 0.434913 0
M  V30 487 H 44.3819 3.10467 2.1422 0
M  V30 488 H 46.7689 2.11655 2.05637 0
M  V30 489 H 46.8499 2.53542 0.339155 0
M  V30 490 H 46.4939 4.99048 0.944135 0
M  V30 491 H 46.4239 4.54094 2.66658 0
M  V30 492 H 48.9149 3.44441 1.55464 0
M  V30 493 H 49.2279 7.2779 2.59887 0
M  V30 494 H 47.5729 6.54287 2.34378 0
M  V30 495 H 50.7639 4.30051 1.84861 0
M  V30 496 H 50.9369 6.04854 2.325 0
M  V30 497 N 44.343 -0.763751 1.37857 0
M  V30 498 C 45.754 -1.3405 1.29952 0
M  V30 499 C 46.105 -1.96138 -0.0492898 0
M  V30 500 O 45.23 -1.94372 -0.951239 0
M  V30 501 C 45.825 -2.43729 2.35333 0
M  V30 502 C 44.384 -2.97151 2.31037 0
M  V30 503 C 43.531 -1.70438 2.18738 0
M  V30 504 H 46.482 -0.563396 1.48363 0
M  V30 505 H 46.503 -3.23412 2.00462 0
M  V30 506 H 46.015 -1.9851 3.33489 0
M  V30 507 H 44.116 -3.46724 1.3643 0
M  V30 508 H 44.229 -3.52221 3.24772 0
M  V30 509 H 42.593 -1.93673 1.65418 0
M  V30 510 H 43.376 -1.27312 3.18821 0
M  V30 511 N 45.8211 -1.22559 -0.990812 0
M  V30 512 C 47.0671 -1.06303 -1.73411 0
M  V30 513 C 47.4221 0.397442 -1.8825 0
M  V30 514 O 46.7151 1.29062 -1.41611 0
M  V30 515 C 46.9091 -1.71011 -3.13831 0
M  V30 516 C 46.7381 -3.232 -3.12685 0
M  V30 517 C 45.5081 -3.92314 -3.18461 0
M  V30 518 C 47.7061 -4.20107 -2.96673 0
M  V30 519 N 45.6881 -5.31571 -3.07091 0
M  V30 520 C 47.0591 -5.46208 -2.93354 0
M  V30 521 C 49.1141 -4.10973 -2.8108 0
M  V30 522 C 47.8171 -6.64225 -2.76039 0
M  V30 523 C 49.8431 -5.28642 -2.65126 0
M  V30 524 C 49.2051 -6.53663 -2.62496 0
M  V30 525 H 45.3041 -0.443441 -0.644115 0
M  V30 526 H 47.8881 -1.55131 -1.17654 0
M  V30 527 H 46.0591 -1.2473 -3.67827 0
M  V30 528 H 47.7911 -1.47828 -3.76735 0
M  V30 529 H 44.5461 -3.43326 -3.26227 0
M  V30 530 H 44.9701 -6.0455 -3.0471 0
M  V30 531 H 49.6121 -3.15098 -2.8191 0
M  V30 532 H 47.3301 -7.60246 -2.73954 0
M  V30 533 H 50.9161 -5.23407 -2.54039 0
M  V30 534 H 49.7961 -7.43182 -2.50302 0
M  V30 535 N 47.2992 1.18797 -1.03562 0
M  V30 536 C 48.2472 2.24297 -0.615905 0
M  V30 537 C 49.2412 1.65643 0.354808 0
M  V30 538 O 50.4472 1.78618 0.22265 0
M  V30 539 H 46.8222 0.729909 -0.180934 0
M  V30 540 H 48.7932 2.5701 -1.5162 0
M  V30 541 C 47.5422 3.47698 0.0104735 0
M  V30 542 H 46.8652 3.93125 -0.727509 0
M  V30 543 H 48.3052 4.23159 0.266995 0
M  V30 544 C 46.7642 3.12489 1.25905 0
M  V30 545 O 47.2942 3.25761 2.35038 0
M  V30 546 N 45.5002 2.6686 1.15039 0
M  V30 547 H 45.0472 2.56261 0.262328 0
M  V30 548 H 45.0052 2.43674 1.98672 0
M  V30 549 N 48.7773 0.814389 1.34928 0
M  V30 550 C 50.1883 0.458364 1.80986 0
M  V30 551 C 50.5393 -1.02042 1.67577 0
M  V30 552 O 49.6643 -1.79352 1.21086 0
M  V30 553 C 50.2593 0.825212 3.28597 0
M  V30 554 C 48.8183 0.521677 3.72767 0
M  V30 555 C 47.9653 1.04668 2.56788 0
M  V30 556 H 50.9163 1.00533 1.22795 0
M  V30 557 H 50.9373 0.12571 3.80292 0
M  V30 558 H 50.4493 1.90154 3.38324 0
M  V30 559 H 48.5503 -0.545589 3.68584 0
M  V30 560 H 48.6633 1.05977 4.67232 0
M  V30 561 H 47.0273 0.468622 2.50352 0
M  V30 562 H 47.8103 2.12927 2.6929 0
M  V30 563 N 50.2554 -1.46986 0.568584 0
M  V30 564 C 51.6664 -1.86188 0.138219 0
M  V30 565 C 52.0174 -1.47388 -1.29504 0
M  V30 566 O 51.1424 -0.88219 -1.97602 0
M  V30 567 C 51.7374 -3.3792 0.244065 0
M  V30 568 C 50.2964 -3.76171 -0.131335 0
M  V30 569 C 49.4434 -2.71027 0.586465 0
M  V30 570 H 52.3944 -1.38342 0.777645 0
M  V30 571 H 52.4154 -3.76729 -0.534351 0
M  V30 572 H 51.9274 -3.66128 1.28731 0
M  V30 573 H 50.0284 -3.5358 -1.17526 0
M  V30 574 H 50.1414 -4.78523 0.235146 0
M  V30 575 H 48.5054 -2.54684 0.0282722 0
M  V30 576 H 49.2884 -3.02077 1.63109 0
M  V30 577 N 51.7335 -0.305618 -1.54608 0
M  V30 578 C 52.9615 0.304775 -2.04643 0
M  V30 579 C 53.3765 1.47167 -1.18268 0
M  V30 580 O 52.7335 1.81296 -0.209328 0
M  V30 581 C 52.7845 0.756564 -3.53495 0
M  V30 582 O 52.5055 -0.36389 -4.36586 0
M  V30 583 C 54.0065 1.43163 -4.19546 0
M  V30 584 H 51.2265 0.0655481 -0.667791 0
M  V30 585 H 53.7705 -0.446592 -1.99564 0
M  V30 586 H 51.9255 1.45794 -3.58919 0
M  V30 587 H 52.3395 -0.0113121 -5.24499 0
M  V30 588 H 53.8135 1.69886 -5.25207 0
M  V30 589 H 54.2905 2.37318 -3.69563 0
M  V30 590 H 54.8965 0.773307 -4.18211 0
M  V30 591 N 53.2116 1.57565 -0.0334293 0
M  V30 592 C 54.4586 1.91978 0.644272 0
M  V30 593 C 54.7866 0.910231 1.71887 0
M  V30 594 O 54.0416 -0.0801961 1.95536 0
M  V30 595 C 54.3406 3.33112 1.29504 0
M  V30 596 C 54.0066 4.49537 0.350388 0
M  V30 597 C 52.6686 4.81115 0.0903974 0
M  V30 598 C 55.0206 5.20347 -0.298032 0
M  V30 599 C 52.3486 5.8086 -0.825746 0
M  V30 600 C 54.7006 6.2107 -1.20226 0
M  V30 601 C 53.3646 6.51088 -1.4711 0
M  V30 602 H 52.6346 0.702496 0.235756 0
M  V30 603 H 55.2816 1.91259 -0.0961176 0
M  V30 604 H 53.5866 3.30113 2.11028 0
M  V30 605 H 55.2836 3.57011 1.82603 0
M  V30 606 H 51.8736 4.24883 0.563205 0
M  V30 607 H 56.0576 4.96178 -0.110234 0
M  V30 608 H 51.3136 6.02461 -1.04169 0
M  V30 609 H 55.4876 6.75057 -1.71086 0
M  V30 610 H 53.1146 7.28193 -2.18264 0
M  V30 611 N 54.6897 -0.239769 1.55765 0
M  V30 612 C 55.9147 -0.988373 1.82335 0
M  V30 613 C 56.3397 -1.77886 0.611421 0
M  V30 614 O 55.6977 -1.75889 -0.439639 0
M  V30 615 C 55.7457 -1.89627 3.06715 0
M  V30 616 O 54.8497 -2.98904 2.84131 0
M  V30 617 H 54.1907 -0.280858 0.601677 0
M  V30 618 H 56.7207 -0.258597 2.02959 0
M  V30 619 H 56.7307 -2.30957 3.36338 0
M  V30 620 H 55.4057 -1.31511 3.9456 0
M  V30 621 H 53.9827 -2.61651 2.65694 0
M  V30 622 N 56.1678 -1.49265 -0.50573 0
M  V30 623 C 57.5788 -1.51769 -1.08734 0
M  V30 624 C 57.9298 -0.301192 -1.93874 0
M  V30 625 O 57.0548 0.589456 -2.08217 0
M  V30 626 C 57.6498 -2.75017 -1.97867 0
M  V30 627 C 56.2088 -2.80314 -2.51199 0
M  V30 628 C 55.3558 -2.4562 -1.28709 0
M  V30 629 H 58.3068 -1.56031 -0.289855 0
M  V30 630 H 58.3278 -2.5491 -2.82491 0
M  V30 631 H 57.8398 -3.63539 -1.35873 0
M  V30 632 H 55.9408 -1.96061 -3.16845 0
M  V30 633 H 56.0538 -3.82366 -2.88675 0
M  V30 634 H 54.4178 -1.97297 -1.61078 0
M  V30 635 H 55.2008 -3.36411 -0.6843 0
M  V30 636 N 57.6459 0.756429 -1.3826 0
M  V30 637 C 58.6089 1.85176 -1.35065 0
M  V30 638 C 59.6089 1.58818 -0.251703 0
M  V30 639 O 60.7989 1.66615 -0.508433 0
M  V30 640 C 57.9309 3.22596 -1.10201 0
M  V30 641 H 59.1239 1.89417 -2.3251 0
M  V30 642 H 56.6769 0.95783 -1.23512 0
M  V30 643 H 57.4119 3.24025 -0.133504 0
M  V30 644 H 57.1969 3.43122 -1.89762 0
M  V30 645 H 58.6869 4.02673 -1.10654 0
M  V30 646 N 59.124 1.23083 0.984299 0
M  V30 647 C 60.054 1.03292 2.09411 0
M  V30 648 C 61.035 -0.048923 1.7003 0
M  V30 649 O 62.22 0.114967 1.93859 0
M  V30 650 C 59.35 0.619155 3.41736 0
M  V30 651 C 58.304 1.64791 3.95004 0
M  V30 652 C 57.63 1.0897 5.23478 0
M  V30 653 C 58.93 3.03999 4.24714 0
M  V30 654 H 60.624 1.96119 2.26225 0
M  V30 655 H 58.17 0.944344 1.08711 0
M  V30 656 H 60.123 0.467777 4.18796 0
M  V30 657 H 58.847 -0.344786 3.24775 0
M  V30 658 H 57.506 1.78721 3.20085 0
M  V30 659 H 57.154 0.11686 5.02864 0
M  V30 660 H 56.854 1.77704 5.60085 0
M  V30 661 H 58.378 0.950093 6.03163 0
M  V30 662 H 59.792 2.93393 4.92538 0
M  V30 663 H 58.189 3.69936 4.72512 0
M  V30 664 H 59.259 3.53285 3.32142 0
M  V30 665 N 60.6021 -1.18246 1.0419 0
M  V30 666 C 61.5321 -2.24127 0.654914 0
M  V30 667 C 62.5131 -1.66617 -0.342451 0
M  V30 668 O 63.6981 -1.92924 -0.222277 0
M  V30 669 C 60.8281 -3.47295 0.0183757 0
M  V30 670 C 59.7821 -4.17563 0.939414 0
M  V30 671 C 59.1081 -5.34438 0.167286 0
M  V30 672 C 60.4081 -4.70917 2.25908 0
M  V30 673 H 62.1021 -2.56753 1.54007 0
M  V30 674 H 59.6481 -1.23414 0.74195 0
M  V30 675 H 61.6011 -4.20572 -0.264082 0
M  V30 676 H 60.3251 -3.13907 -0.901664 0
M  V30 677 H 58.9841 -3.46186 1.20628 0
M  V30 678 H 58.6321 -4.97298 -0.7552 0
M  V30 679 H 58.3321 -5.82388 0.780901 0
M  V30 680 H 59.8561 -6.10504 -0.108125 0
M  V30 681 H 61.2701 -5.35882 2.03724 0
M  V30 682 H 59.6671 -5.29406 2.82577 0
M  V30 683 H 60.7371 -3.88272 2.9047 0
M  V30 684 N 62.0802 -0.821533 -1.34494 0
M  V30 685 C 63.3262 -0.409552 -1.98622 0
M  V30 686 C 63.6592 1.0244 -1.64984 0
M  V30 687 O 62.9342 1.71325 -0.920758 0
M  V30 688 C 63.2172 -0.610458 -3.54888 0
M  V30 689 C 63.0702 -2.09043 -3.98273 0
M  V30 690 C 64.3892 -0.0455379 -4.40076 0
M  V30 691 H 61.5082 -0.15028 -0.721516 0
M  V30 692 H 64.1502 -1.03384 -1.59411 0
M  V30 693 H 62.3002 -0.079044 -3.8842 0
M  V30 694 H 63.9722 -2.68537 -3.75081 0
M  V30 695 H 62.2152 -2.58139 -3.48635 0
M  V30 696 H 62.8862 -2.18182 -5.07051 0
M  V30 697 H 65.3622 -0.499557 -4.1309 0
M  V30 698 H 64.2382 -0.215922 -5.48475 0
M  V30 699 H 64.4992 1.04939 -4.29465 0
M  V30 700 N 63.5583 1.46682 -0.576371 0
M  V30 701 C 64.8043 2.02712 -0.0596221 0
M  V30 702 C 65.1373 1.44765 1.29448 0
M  V30 703 O 64.4123 0.610355 1.84675 0
M  V30 704 C 64.6953 3.60098 0.0129503 0
M  V30 705 C 64.5483 4.28441 -1.3696 0
M  V30 706 C 65.8673 4.34224 0.71678 0
M  V30 707 H 62.9863 0.736637 -0.0231407 0
M  V30 708 H 65.6283 1.74898 -0.742351 0
M  V30 709 H 63.7783 3.83926 0.594378 0
M  V30 710 H 65.4503 4.15896 -1.9957 0
M  V30 711 H 63.6933 3.8805 -1.93907 0
M  V30 712 H 64.3643 5.3716 -1.27135 0
M  V30 713 H 66.8403 4.15503 0.222908 0
M  V30 714 H 65.7163 5.43936 0.73657 0
M  V30 715 H 65.9773 4.04823 1.77682 0
M  V30 716 N 65.0364 0.313813 1.54444 0
M  V30 717 C 66.2644 -0.293918 2.04802 0
M  V30 718 C 66.6794 -1.46537 1.19047 0
M  V30 719 O 66.0364 -1.81182 0.218939 0
M  V30 720 C 66.0874 -0.737806 3.53891 0
M  V30 721 O 65.8084 0.387038 4.36387 0
M  V30 722 C 67.3094 -1.40936 4.203 0
M  V30 723 H 64.5294 -0.0620057 0.668129 0
M  V30 724 H 67.0734 0.457169 1.99324 0
M  V30 725 H 65.2284 -1.43889 3.59687 0
M  V30 726 H 65.6424 0.0391274 5.24485 0
M  V30 727 H 67.1164 -1.67099 5.26101 0
M  V30 728 H 67.5934 -2.35355 3.70816 0
M  V30 729 H 68.1994 -0.751117 4.18615 0
M  V30 730 N 66.5145 -1.57545 0.0417849 0
M  V30 731 C 67.4245 -2.14451 -0.951213 0
M  V30 732 C 68.4405 -1.09992 -1.34825 0
M  V30 733 O 69.6165 -1.42114 -1.42708 0
M  V30 734 C 66.6815 -2.67063 -2.21084 0
M  V30 735 C 65.7425 -3.86284 -1.87304 0
M  V30 736 C 64.9755 -4.36378 -3.07261 0
M  V30 737 O 65.1985 -3.85587 -4.20332 0
M  V30 738 O 64.1325 -5.28077 -2.88822 0
M  V30 739 H 67.9585 -2.99601 -0.497287 0
M  V30 740 H 65.5435 -1.48317 -0.179567 0
M  V30 741 H 67.4255 -3.00914 -2.95006 0
M  V30 742 H 66.1005 -1.84989 -2.65633 0
M  V30 743 H 65.0075 -3.57338 -1.10727 0
M  V30 744 H 66.3405 -4.6956 -1.47562 0
M  V30 745 N 67.9926 0.231505 -1.5589 0
M  V30 746 C 69.2406 0.955461 -1.78088 0
M  V30 747 C 69.5616 1.85262 -0.608533 0
M  V30 748 O 68.8316 1.92277 0.375035 0
M  V30 749 H 67.4116 0.355787 -0.656829 0
M  V30 750 H 70.0736 0.245751 -1.93344 0
M  V30 751 H 69.1696 1.56814 -2.69844 0
M  V30 752 N 69.4707 1.49531 0.497807 0
M  V30 753 C 70.7477 1.49682 1.25915 0
M  V30 754 C 71.1277 0.226339 2.09883 0
M  V30 755 O 70.4757 -0.791189 2.14365 0
M  V30 756 C 70.6857 2.77755 2.11313 0
M  V30 757 C 72.0337 3.27371 2.70395 0
M  V30 758 O 73.0577 2.78894 2.21578 0
M  V30 759 O 71.9167 4.11808 3.59272 0
M  V30 760 H 69.0107 0.599228 0.56996 0
M  V30 761 H 71.5567 1.61798 0.511816 0
M  V30 762 H 70.3287 3.61713 1.49264 0
M  V30 763 H 69.9517 2.68515 2.93233 0
M  V30 764 N 70.9488 -0.749086 1.3866 0
M  V30 765 C 71.8968 -1.88428 1.36373 0
M  V30 766 C 72.8908 -1.67561 0.248929 0
M  V30 767 O 74.0968 -1.75074 0.41821 0
M  V30 768 H 70.4718 -0.620023 0.42553 0
M  V30 769 H 72.4428 -1.87473 2.32156 0
M  V30 770 C 71.1918 -3.25961 1.21014 0
M  V30 771 H 70.5148 -3.42607 2.06059 0
M  V30 772 H 71.9548 -4.05625 1.23469 0
M  V30 773 C 70.4138 -3.36799 -0.0825941 0
M  V30 774 O 70.9438 -3.87517 -1.05797 0
M  V30 775 N 69.1498 -2.90258 -0.140939 0
M  V30 776 H 68.6968 -2.49174 0.653477 0
M  V30 777 H 68.6548 -2.97889 -1.00545 0
M  V30 778 N 72.4269 -1.23603 -0.977757 0
M  V30 779 C 73.3899 -1.02069 -2.05218 0
M  V30 780 C 74.3899 0.0184305 -1.60789 0
M  V30 781 O 75.5799 -0.221569 -1.72785 0
M  V30 782 C 72.7119 -0.544926 -3.36517 0
M  V30 783 H 73.9049 -1.9742 -2.25755 0
M  V30 784 H 71.4579 -1.05684 -1.15155 0
M  V30 785 H 72.1929 0.412241 -3.21669 0
M  V30 786 H 71.9779 -1.2948 -3.70105 0
M  V30 787 H 73.4679 -0.414985 -4.15533 0
M  V30 788 N 73.905 1.17692 -1.04816 0
M  V30 789 C 75.133 1.91786 -0.776254 0
M  V30 790 C 75.548 1.76604 0.667577 0
M  V30 791 O 74.905 1.10067 1.45573 0
M  V30 792 C 74.956 3.42967 -1.14263 0
M  V30 793 O 74.677 3.57678 -2.52978 0
M  V30 794 C 76.178 4.34144 -0.896311 0
M  V30 795 H 73.398 0.608624 -0.282519 0
M  V30 796 H 75.942 1.49268 -1.39783 0
M  V30 797 H 74.097 3.83245 -0.565874 0
M  V30 798 H 74.511 4.51319 -2.67229 0
M  V30 799 H 75.985 5.38744 -1.20244 0
M  V30 800 H 76.462 4.38876 0.168636 0
M  V30 801 H 77.068 3.99574 -1.45672 0
M  V30 802 N 75.3831 0.828654 1.34056 0
M  V30 803 C 76.6301 0.419458 1.98108 0
M  V30 804 C 76.9581 -1.01886 1.65679 0
M  V30 805 O 76.2131 -1.72539 0.923512 0
M  V30 806 C 76.5121 0.575226 3.52741 0
M  V30 807 C 76.1781 1.98012 4.05095 0
M  V30 808 C 74.8401 2.36442 4.19104 0
M  V30 809 C 77.1921 2.89824 4.33188 0
M  V30 810 C 74.5201 3.66009 4.58535 0
M  V30 811 C 76.8721 4.1886 4.74066 0
M  V30 812 C 75.5361 4.5726 4.86281 0
M  V30 813 H 74.8061 0.153491 0.724929 0
M  V30 814 H 77.4531 1.05371 1.59904 0
M  V30 815 H 75.7581 -0.142385 3.91541 0
M  V30 816 H 77.4551 0.239057 4.00287 0
M  V30 817 H 74.0451 1.67162 3.94658 0
M  V30 818 H 78.2291 2.61375 4.21897 0
M  V30 819 H 73.4851 3.95579 4.66184 0
M  V30 820 H 77.6591 4.90086 4.94761 0
M  V30 821 H 75.2861 5.57707 5.16592 0
M  V30 822 N 76.8612 -1.46375 0.584142 0
M  V30 823 C 78.0892 -2.06761 0.0759296 0
M  V30 824 C 78.5042 -1.43266 -1.22965 0
M  V30 825 O 77.8612 -0.538458 -1.74376 0
M  V30 826 C 77.9122 -3.61375 -0.0950384 0
M  V30 827 O 77.6332 -4.22495 1.15887 0
M  V30 828 C 79.1342 -4.38693 -0.637434 0
M  V30 829 H 76.3542 -0.668479 0.0581075 0
M  V30 830 H 78.8982 -1.8798 0.805218 0
M  V30 831 H 77.0532 -3.79578 -0.774554 0
M  V30 832 H 77.4672 -5.15385 0.973598 0
M  V30 833 H 78.9412 -5.47464 -0.706237 0
M  V30 834 H 79.4182 -4.06836 -1.65472 0
M  V30 835 H 80.0242 -4.25299 0.00725967 0
M  V30 836 N 78.3393 -0.321999 -1.54275 0
M  V30 837 C 79.5793 0.281657 -2.0245 0
M  V30 838 C 79.9433 1.49468 -1.20513 0
M  V30 839 O 81.1443 2.17109 -1.58484 0
M  V30 840 C 79.4153 0.609014 -3.52173 0
M  V30 841 S 80.9743 1.19255 -4.22284 0
M  V30 842 H 77.7923 0.0852825 -0.705867 0
M  V30 843 H 80.3943 -0.454758 -1.90137 0
M  V30 844 H 79.0983 -0.281982 -4.0943 0
M  V30 845 H 78.6293 1.37567 -3.68563 0
M  V30 846 H 80.6443 2.47944 -4.29812 0
M  V30 847 N 79.8174 1.5752 -0.0501392 0
M  V30 848 C 81.0424 1.97376 0.636997 0
M  V30 849 C 81.4674 0.927466 1.63645 0
M  V30 850 O 80.8254 -0.10941 1.8097 0
M  V30 851 C 80.8734 3.36304 1.30123 0
M  V30 852 O 79.9774 3.34156 2.41689 0
M  V30 853 H 79.3184 0.642998 0.165679 0
M  V30 854 H 81.8484 2.04258 -0.118233 0
M  V30 855 H 81.8584 3.73008 1.65315 0
M  V30 856 H 80.5334 4.11993 0.568746 0
M  V30 857 H 79.1104 3.09196 2.08451 0
M  V30 858 N 81.2955 -0.223234 1.56011 0
M  V30 859 C 82.5425 -0.947875 1.78946 0
M  V30 860 C 82.8705 -1.844 0.618608 0
M  V30 861 O 82.1255 -1.91629 -0.397093 0
M  V30 862 C 82.4245 -1.81948 3.0762 0
M  V30 863 C 82.0905 -1.07672 4.37856 0
M  V30 864 C 80.7525 -0.871544 4.73242 0
M  V30 865 C 83.1045 -0.552081 5.18268 0
M  V30 866 C 80.4325 -0.129791 5.86556 0
M  V30 867 C 82.7845 0.17632 6.32354 0
M  V30 868 C 81.4485 0.39277 6.66343 0
M  V30 869 H 80.7185 -0.346852 0.654809 0
M  V30 870 H 83.3655 -0.216171 1.90276 0
M  V30 871 H 81.6705 -2.61899 2.91404 0
M  V30 872 H 83.3675 -2.38227 3.22566 0
M  V30 873 H 79.9575 -1.24662 4.1007 0
M  V30 874 H 84.1415 -0.698076 4.91366 0
M  V30 875 H 79.3975 0.048153 6.11381 0
M  V30 876 H 83.5715 0.590367 6.93893 0
M  V30 877 H 81.1985 0.969466 7.53993 0
M  V30 878 N 82.7736 -1.49793 -0.48987 0
M  V30 879 C 83.9986 -1.63836 -1.27172 0
M  V30 880 C 84.4236 -0.31402 -1.8546 0
M  V30 881 O 83.7816 0.719803 -1.66399 0
M  V30 882 C 83.8296 -2.71797 -2.36978 0
M  V30 883 O 82.9336 -2.31744 -3.41128 0
M  V30 884 H 82.2746 -0.547997 -0.37496 0
M  V30 885 H 84.8046 -1.96053 -0.585191 0
M  V30 886 H 84.8146 -2.94305 -2.82575 0
M  V30 887 H 83.4896 -3.67923 -1.93921 0
M  V30 888 H 82.0666 -2.1961 -3.01373 0
M  V30 889 N 84.2517 0.741722 -1.39055 0
M  V30 890 C 85.1997 1.87702 -1.3737 0
M  V30 891 C 86.1937 1.67427 -0.257812 0
M  V30 892 O 87.3997 1.7485 -0.427489 0
M  V30 893 H 83.7747 0.617757 -0.428812 0
M  V30 894 H 85.7457 1.86239 -2.33147 0
M  V30 895 C 84.4947 3.25315 -1.22741 0
M  V30 896 H 83.8177 3.41509 -2.07873 0
M  V30 897 H 85.2577 4.04964 -1.25618 0
M  V30 898 C 83.7167 3.36838 0.0647316 0
M  V30 899 O 84.2467 3.88073 1.03741 0
M  V30 900 N 82.4527 2.90329 0.125544 0
M  V30 901 H 81.9997 2.48823 -0.666682 0
M  V30 902 H 81.9577 2.98418 0.989639 0
M  V30 903 N 85.7298 1.2412 0.971189 0
M  V30 904 C 86.9578 1.10575 1.74874 0
M  V30 905 C 87.3728 -0.342017 1.85676 0
M  V30 906 O 86.7298 -1.23617 1.34258 0
M  V30 907 C 86.7808 1.73579 3.171 0
M  V30 908 O 86.5018 3.12695 3.06844 0
M  V30 909 C 88.0028 1.65598 4.11208 0
M  V30 910 H 85.2228 0.386504 0.548503 0
M  V30 911 H 87.7668 1.64156 1.21955 0
M  V30 912 H 85.9218 1.24009 3.67016 0
M  V30 913 H 86.3358 3.43412 3.96445 0
M  V30 914 H 87.8098 2.1437 5.08674 0
M  V30 915 H 88.2868 0.616532 4.34851 0
M  V30 916 H 88.8928 2.14578 3.67201 0
M  V30 917 N 87.2079 -1.17134 1.05439 0
M  V30 918 C 88.4329 -1.91913 0.786396 0
M  V30 919 C 88.8579 -1.7643 -0.652234 0
M  V30 920 O 88.2159 -1.08372 -1.45345 0
M  V30 921 C 88.2639 -3.40921 1.17497 0
M  V30 922 O 87.3679 -4.11244 0.308589 0
M  V30 923 H 86.7089 -0.598215 0.288158 0
M  V30 924 H 89.2389 -1.48457 1.4079 0
M  V30 925 H 89.2489 -3.91668 1.14281 0
M  V30 926 H 87.9239 -3.5151 2.22292 0
M  V30 927 H 86.5009 -3.70731 0.40157 0
M  V30 928 N 88.686 -0.835752 -1.33615 0
M  V30 929 C 89.596 -0.269088 -2.33052 0
M  V30 930 C 90.612 0.603251 -1.63208 0
M  V30 931 O 91.788 0.508112 -1.94885 0
M  V30 932 C 88.853 0.549091 -3.42324 0
M  V30 933 C 87.914 -0.347156 -4.27894 0
M  V30 934 C 87.147 0.43207 -5.31948 0
M  V30 935 O 87.37 1.66409 -5.45586 0
M  V30 936 O 86.304 -0.192298 -6.01593 0
M  V30 937 H 90.13 -1.09243 -2.83372 0
M  V30 938 H 87.715 -0.598198 -1.36901 0
M  V30 939 H 89.597 1.01414 -4.09015 0
M  V30 940 H 88.272 1.34955 -2.94226 0
M  V30 941 H 87.179 -0.859979 -3.64081 0
M  V30 942 H 88.512 -1.1123 -4.79467 0
M  V30 943 N 90.1641 1.46063 -0.591896 0
M  V30 944 C 91.3891 2.07226 -0.0850314 0
M  V30 945 C 91.8141 1.43625 1.21463 0
M  V30 946 O 91.1721 0.523305 1.73583 0
M  V30 947 C 91.2201 3.60554 0.0576567 0
M  V30 948 O 90.3241 3.97128 1.11188 0
M  V30 949 H 89.6651 0.660615 -0.0669568 0
M  V30 950 H 92.1951 1.8756 -0.81745 0
M  V30 951 H 92.2051 4.07165 0.2609 0
M  V30 952 H 90.8801 4.06235 -0.891416 0
M  V30 953 H 89.4571 3.62213 0.886356 0
M  V30 954 N 91.6422 0.330177 1.54103 0
M  V30 955 C 92.8892 -0.270405 2.00686 0
M  V30 956 C 93.2172 -1.51621 1.21825 0
M  V30 957 O 92.4722 -1.93536 0.29025 0
M  V30 958 C 92.7712 -0.643134 3.51566 0
M  V30 959 C 92.4372 0.504251 4.48072 0
M  V30 960 C 91.0992 0.819163 4.74176 0
M  V30 961 C 93.4512 1.27465 5.05373 0
M  V30 962 C 90.7792 1.90708 5.5484 0
M  V30 963 C 93.1312 2.35271 5.87223 0
M  V30 964 C 91.7952 2.67336 6.11627 0
M  V30 965 H 91.0652 -0.0989482 0.734364 0
M  V30 966 H 93.7122 0.455324 1.86008 0
M  V30 967 H 92.0172 -1.44938 3.64006 0
M  V30 968 H 93.7142 -1.11949 3.85056 0
M  V30 969 H 90.3042 0.248733 4.27878 0
M  V30 970 H 94.4882 1.04462 4.85182 0
M  V30 971 H 89.7442 2.15991 5.71977 0
M  V30 972 H 93.9182 2.95405 6.30641 0
M  V30 973 H 91.5452 3.51763 6.73919 0
M  V30 974 N 93.1203 -1.57491 0.0584922 0
M  V30 975 C 94.3663 -1.93264 -0.614558 0
M  V30 976 C 94.6993 -0.937717 -1.7006 0
M  V30 977 O 93.9743 0.0351652 -1.94468 0
M  V30 978 C 94.2573 -3.3938 -1.20386 0
M  V30 979 C 94.1103 -4.49625 -0.125375 0
M  V30 980 C 95.4293 -3.86039 -2.11334 0
M  V30 981 H 92.5483 -0.702791 -0.221933 0
M  V30 982 H 95.1903 -1.8961 0.12175 0
M  V30 983 H 93.3403 -3.42626 -1.83139 0
M  V30 984 H 95.0123 -4.58506 0.506971 0
M  V30 985 H 93.2553 -4.30354 0.545672 0
M  V30 986 H 93.9263 -5.48967 -0.577861 0
M  V30 987 H 96.4023 -3.84716 -1.58534 0
M  V30 988 H 95.2783 -4.88914 -2.49507 0
M  V30 989 H 95.5393 -3.23215 -3.01636 0
M  V30 990 N 94.5984 0.214957 -1.56127 0
M  V30 991 C 95.5284 1.2695 -1.95974 0
M  V30 992 C 96.5094 1.48539 -0.828868 0
M  V30 993 O 97.6944 1.60611 -1.09168 0
M  V30 994 C 94.8244 2.61794 -2.28214 0
M  V30 995 C 93.7784 2.54851 -3.43853 0
M  V30 996 C 93.1044 3.93785 -3.61715 0
M  V30 997 C 94.4044 2.09065 -4.78632 0
M  V30 998 H 96.0984 0.93846 -2.84312 0
M  V30 999 H 93.6444 0.449996 -1.36788 0
M  V30 1000 H 95.5974 3.35731 -2.54682 0
M  V30 1001 H 94.3214 2.96599 -1.36736 0
M  V30 1002 H 92.9804 1.8337 -3.17444 0
M  V30 1003 H 92.6284 4.25908 -2.67602 0
M  V30 1004 H 92.3284 3.90019 -4.39498 0
M  V30 1005 H 93.8524 4.69374 -3.90539 0
M  V30 1006 H 95.2664 2.7275 -5.04262 0
M  V30 1007 H 93.6634 2.16346 -5.59745 0
M  V30 1008 H 94.7334 1.04315 -4.73547 0
M  V30 1009 N 96.0765 1.50051 0.48192 0
M  V30 1010 C 97.0245 1.68635 1.60203 0
M  V30 1011 C 98.0185 0.552184 1.60148 0
M  V30 1012 O 99.2245 0.732377 1.64427 0
M  V30 1013 H 95.5995 0.532081 0.531407 0
M  V30 1014 H 97.5705 2.62616 1.41688 0
M  V30 1015 C 96.3195 1.78775 2.9822 0
M  V30 1016 H 95.6425 2.6543 2.98976 0
M  V30 1017 H 97.0825 1.95806 3.7608 0
M  V30 1018 C 95.5415 0.536849 3.32595 0
M  V30 1019 O 96.0715 -0.328897 4.00351 0
M  V30 1020 N 94.2775 0.394091 2.87915 0
M  V30 1021 H 93.8245 1.09962 2.32951 0
M  V30 1022 H 93.7825 -0.441737 3.11281 0
M  V30 1023 N 97.5546 -0.734337 1.39446 0
M  V30 1024 C 98.8006 -1.49505 1.37913 0
M  V30 1025 C 99.1556 -1.92384 -0.0248416 0
M  V30 1026 O 98.4486 -1.6395 -0.991506 0
M  V30 1027 C 98.6426 -2.74711 2.28623 0
M  V30 1028 C 98.4716 -2.44075 3.777 0
M  V30 1029 C 97.2416 -2.36338 4.46623 0
M  V30 1030 C 99.4396 -2.09574 4.69663 0
M  V30 1031 N 97.4216 -1.9818 5.81032 0
M  V30 1032 C 98.7926 -1.81865 5.92727 0
M  V30 1033 C 100.848 -1.96048 4.57678 0
M  V30 1034 C 99.5506 -1.41992 7.05146 0
M  V30 1035 C 101.577 -1.57579 5.7002 0
M  V30 1036 C 100.939 -1.30754 6.92158 0
M  V30 1037 H 97.0376 -0.545896 0.55993 0
M  V30 1038 H 99.6216 -0.853373 1.75002 0
M  V30 1039 H 97.7926 -3.36657 1.93692 0
M  V30 1040 H 99.5246 -3.40916 2.18078 0
M  V30 1041 H 96.2796 -2.53456 4.00071 0
M  V30 1042 H 96.7036 -1.81691 6.52163 0
M  V30 1043 H 101.346 -2.15455 3.63784 0
M  V30 1044 H 99.0636 -1.21327 7.9894 0
M  V30 1045 H 102.65 -1.47718 5.62735 0
M  V30 1046 H 101.53 -1.01432 7.77612 0
M  V30 1047 N 99.0327 -1.24633 -0.964593 0
M  V30 1048 C 100.263 -1.11339 -1.74032 0
M  V30 1049 C 100.671 0.336593 -1.86182 0
M  V30 1050 O 100.014 1.24389 -1.35178 0
M  V30 1051 C 100.076 -1.68284 -3.1768 0
M  V30 1052 C 99.7397 -3.17196 -3.28992 0
M  V30 1053 C 100.737 -4.14308 -3.14078 0
M  V30 1054 C 98.4217 -3.57215 -3.53133 0
M  V30 1055 C 100.416 -5.4942 -3.23135 0
M  V30 1056 C 98.1027 -4.92468 -3.61827 0
M  V30 1057 C 99.1007 -5.8838 -3.46841 0
M  V30 1058 O 98.7887 -7.21173 -3.55197 0
M  V30 1059 H 98.5207 -0.389551 -0.552472 0
M  V30 1060 H 101.075 -1.65282 -1.21946 0
M  V30 1061 H 99.3047 -1.08777 -3.71085 0
M  V30 1062 H 100.994 -1.50234 -3.77074 0
M  V30 1063 H 101.76 -3.84731 -2.95308 0
M  V30 1064 H 97.6387 -2.83063 -3.63863 0
M  V30 1065 H 101.183 -6.24263 -3.11355 0
M  V30 1066 H 97.0797 -5.21714 -3.80111 0
M  V30 1067 H 97.8477 -7.29135 -3.71892 0
M  V30 1068 N 100.511 1.16574 -1.06058 0
M  V30 1069 C 101.927 1.3904 -0.783585 0
M  V30 1070 C 102.127 1.91784 0.618145 0
M  V30 1071 O 101.183 2.11511 1.37911 0
M  V30 1072 C 102.496 2.37329 -1.84649 0
M  V30 1073 C 104.044 2.51018 -1.86973 0
M  V30 1074 C 104.519 3.52588 -2.92311 0
M  V30 1075 N 106.01 3.60113 -2.91329 0
M  V30 1076 C 106.745 4.38486 -3.69482 0
M  V30 1077 N 106.241 5.20302 -4.57447 0
M  V30 1078 N 108.034 4.33446 -3.57885 0
M  V30 1079 H 100.185 0.806725 -1.96483 0
M  V30 1080 H 102.448 0.417117 -0.851303 0
M  V30 1081 H 102.154 2.05663 -2.85299 0
M  V30 1082 H 102.028 3.36946 -1.6955 0
M  V30 1083 H 104.415 2.81989 -0.869827 0
M  V30 1084 H 104.496 1.51445 -2.0615 0
M  V30 1085 H 104.14 3.22354 -3.92492 0
M  V30 1086 H 104.07 4.51886 -2.70383 0
M  V30 1087 H 106.561 3.01707 -2.27555 0
M  V30 1088 H 106.874 5.77311 -5.13743 0
M  V30 1089 H 105.219 5.19653 -4.61503 0
M  V30 1090 H 108.41 3.68586 -2.88551 0
M  V30 1091 H 108.583 4.94279 -4.19037 0
M  V30 1092 N 101.989 0.842826 1.3317 0
M  V30 1093 C 102.922 0.223862 2.27099 0
M  V30 1094 C 103.9 -0.631311 1.49844 0
M  V30 1095 O 105.084 -0.590708 1.79005 0
M  V30 1096 C 102.211 -0.685313 3.31694 0
M  V30 1097 C 101.257 0.094919 4.26394 0
M  V30 1098 S 102.09 1.45546 5.15341 0
M  V30 1099 C 103.246 0.551685 6.23464 0
M  V30 1100 H 103.479 1.02015 2.79249 0
M  V30 1101 H 101.012 0.639797 1.4052 0
M  V30 1102 H 102.97 -1.20426 3.92438 0
M  V30 1103 H 101.631 -1.4553 2.78352 0
M  V30 1104 H 100.824 -0.597059 5.00451 0
M  V30 1105 H 100.426 0.545054 3.70007 0
M  V30 1106 H 102.718 -0.248877 6.77043 0
M  V30 1107 H 103.661 1.26253 6.96754 0
M  V30 1108 H 104.069 0.131275 5.64347 0
M  V30 1109 N 103.467 -1.45747 0.599634 0
M  V30 1110 C 104.692 -2.07178 0.0960198 0
M  V30 1111 C 105.117 -1.44268 -1.207 0
M  V30 1112 O 104.475 -0.532503 -1.73303 0
M  V30 1113 C 104.523 -3.60579 -0.0385348 0
M  V30 1114 O 103.627 -3.97713 -1.0908 0
M  V30 1115 H 102.968 -0.660251 0.0704593 0
M  V30 1116 H 105.498 -1.87124 0.827385 0
M  V30 1117 H 105.508 -4.07298 -0.239304 0
M  V30 1118 H 104.183 -4.05756 0.912947 0
M  V30 1119 H 102.76 -3.62678 -0.867135 0
M  V30 1120 N 104.945 -0.338344 -1.53925 0
M  V30 1121 C 106.356 0.146651 -1.86123 0
M  V30 1122 C 106.707 1.5042 -1.2597 0
M  V30 1123 O 105.832 2.08723 -0.571294 0
M  V30 1124 C 106.427 0.272879 -3.37699 0
M  V30 1125 C 104.986 0.702103 -3.69794 0
M  V30 1126 C 104.133 -0.167304 -2.76795 0
M  V30 1127 H 107.084 -0.558123 -1.48562 0
M  V30 1128 H 107.105 1.10128 -3.64214 0
M  V30 1129 H 106.617 -0.715307 -3.81451 0
M  V30 1130 H 104.718 1.6995 -3.31584 0
M  V30 1131 H 104.831 0.495604 -4.7653 0
M  V30 1132 H 103.195 0.359527 -2.5215 0
M  V30 1133 H 103.978 -1.15253 -3.23375 0
M  V30 1134 N 106.423 1.57458 -0.0668435 0
M  V30 1135 C 107.648 1.9804 0.616027 0
M  V30 1136 C 108.073 0.944771 1.62652 0
M  V30 1137 O 107.431 -0.0902094 1.81075 0
M  V30 1138 C 107.479 3.37665 1.26549 0
M  V30 1139 O 106.583 3.36701 2.38131 0
M  V30 1140 H 105.924 0.644719 0.158849 0
M  V30 1141 H 108.454 2.04121 -0.139891 0
M  V30 1142 H 108.464 3.7474 1.6135 0
M  V30 1143 H 107.139 4.12573 0.525016 0
M  V30 1144 H 105.716 3.1139 2.0516 0
M  V30 1145 N 107.901 -0.206675 1.56239 0
M  V30 1146 C 108.849 -1.27571 1.94495 0
M  V30 1147 C 109.843 -1.47737 0.828862 0
M  V30 1148 O 111.049 -1.48735 1.0138 0
M  V30 1149 H 107.424 -0.428029 0.6183 0
M  V30 1150 H 109.395 -0.925961 2.8367 0
M  V30 1151 C 108.144 -2.61568 2.29079 0
M  V30 1152 H 107.467 -2.46863 3.14482 0
M  V30 1153 H 108.907 -3.35144 2.5972 0
M  V30 1154 C 107.366 -3.17695 1.12123 0
M  V30 1155 O 107.896 -3.99801 0.390153 0
M  V30 1156 N 106.102 -2.76276 0.901097 0
M  V30 1157 H 105.649 -2.09613 1.49733 0
M  V30 1158 H 105.607 -3.1417 0.120319 0
M  V30 1159 N 109.379 -1.50304 -0.473955 0
M  V30 1160 C 110.311 -1.65109 -1.58971 0
M  V30 1161 C 111.324 -0.532676 -1.53839 0
M  V30 1162 O 112.513 -0.805751 -1.59279 0
M  V30 1163 C 109.613 -1.61684 -2.97845 0
M  V30 1164 C 108.786 -2.8951 -3.27876 0
M  V30 1165 C 107.845 -2.78768 -4.4629 0
M  V30 1166 O 106.871 -3.52722 -4.46739 0
M  V30 1167 N 108.073 -1.9213 -5.47783 0
M  V30 1168 H 110.838 -2.61347 -1.46689 0
M  V30 1169 H 108.399 -1.47732 -0.662324 0
M  V30 1170 H 110.391 -1.52114 -3.75024 0
M  V30 1171 H 108.961 -0.731925 -3.03911 0
M  V30 1172 H 108.181 -3.13228 -2.39336 0
M  V30 1173 H 109.469 -3.74199 -3.4475 0
M  V30 1174 H 108.867 -1.31353 -5.50239 0
M  V30 1175 H 107.424 -1.88466 -6.23958 0
M  V30 1176 N 110.857 0.726932 -1.39834 0
M  V30 1177 C 112.085 1.51613 -1.40787 0
M  V30 1178 C 112.5 1.88799 -0.00451505 0
M  V30 1179 O 111.857 1.54662 0.968809 0
M  V30 1180 C 111.908 2.79863 -2.28821 0
M  V30 1181 O 111.629 2.44253 -3.63692 0
M  V30 1182 C 113.13 3.73837 -2.38245 0
M  V30 1183 H 110.35 0.468264 -0.480593 0
M  V30 1184 H 112.894 0.897607 -1.83748 0
M  V30 1185 H 111.049 3.38027 -1.89252 0
M  V30 1186 H 111.463 3.26695 -4.1033 0
M  V30 1187 H 112.937 4.60699 -3.04073 0
M  V30 1188 H 113.414 4.16153 -1.40403 0
M  V30 1189 H 114.02 3.21589 -2.78317 0
M  V30 1190 N 112.336 1.25143 0.95797 0
M  V30 1191 C 113.613 1.00472 1.67823 0
M  V30 1192 C 113.993 -0.470056 2.058 0
M  V30 1193 O 113.341 -1.44663 1.76875 0
M  V30 1194 C 113.551 1.9372 2.90299 0
M  V30 1195 C 114.899 2.21371 3.62326 0
M  V30 1196 O 115.923 1.91451 3.00375 0
M  V30 1197 O 114.782 2.72231 4.7387 0
M  V30 1198 H 111.876 0.380752 0.734137 0
M  V30 1199 H 114.422 1.36283 1.01119 0
M  V30 1200 H 113.194 2.93316 2.59001 0
M  V30 1201 H 112.817 1.58286 3.64735 0
M  V30 1202 N 113.814 -1.1601 1.06675 0
M  V30 1203 C 114.761 -2.20525 0.680967 0
M  V30 1204 C 115.731 -1.62904 -0.324283 0
M  V30 1205 O 116.916 -1.89615 -0.212294 0
M  V30 1206 C 114.056 -3.45013 0.0776551 0
M  V30 1207 C 113.169 -4.16863 1.13355 0
M  V30 1208 C 112.304 -5.2888 0.49597 0
M  V30 1209 C 111.343 -5.92537 1.53513 0
M  V30 1210 N 110.48 -6.96038 0.920631 0
M  V30 1211 H 115.32 -2.52876 1.57663 0
M  V30 1212 H 112.857 -1.24199 0.788223 0
M  V30 1213 H 114.815 -4.16193 -0.289704 0
M  V30 1214 H 113.445 -3.132 -0.781393 0
M  V30 1215 H 112.497 -3.44248 1.61857 0
M  V30 1216 H 113.809 -4.60294 1.92174 0
M  V30 1217 H 112.963 -6.06653 0.0758604 0
M  V30 1218 H 111.702 -4.86622 -0.324062 0
M  V30 1219 H 110.707 -5.13482 1.9651 0
M  V30 1220 H 111.932 -6.36873 2.35733 0
M  V30 1221 H 109.878 -6.55888 0.12138 0
M  V30 1222 H 109.795 -7.3786 1.64616 0
M  V30 1223 H 111.063 -7.77725 0.525795 0
M  V30 1224 N 115.292 -0.849877 -1.32721 0
M  V30 1225 C 116.222 -0.306308 -2.31482 0
M  V30 1226 C 117.203 0.591952 -1.59468 0
M  V30 1227 O 118.388 0.513199 -1.87296 0
M  V30 1228 C 115.518 0.510204 -3.43532 0
M  V30 1229 C 114.472 -0.293209 -4.26994 0
M  V30 1230 C 113.798 0.647743 -5.30762 0
M  V30 1231 C 115.098 -1.51634 -4.99804 0
M  V30 1232 H 116.792 -1.13153 -2.77195 0
M  V30 1233 H 114.338 -0.545553 -1.33266 0
M  V30 1234 H 116.291 0.900856 -4.11658 0
M  V30 1235 H 115.015 1.36874 -2.96535 0
M  V30 1236 H 113.674 -0.665555 -3.60508 0
M  V30 1237 H 113.322 1.50299 -4.8002 0
M  V30 1238 H 113.022 0.11422 -5.87489 0
M  V30 1239 H 114.546 1.03567 -6.01753 0
M  V30 1240 H 115.96 -1.19824 -5.60638 0
M  V30 1241 H 114.357 -1.98745 -5.66234 0
M  V30 1242 H 115.427 -2.28018 -4.27943 0
M  V30 1243 N 116.77 1.45427 -0.607355 0
M  V30 1244 C 117.733 2.28974 0.101693 0
M  V30 1245 C 118.733 1.39754 0.795329 0
M  V30 1246 O 119.923 1.61878 0.643527 0
M  V30 1247 C 117.055 3.20768 1.15414 0
M  V30 1248 H 118.248 2.93147 -0.632844 0
M  V30 1249 H 115.801 1.51945 -0.366391 0
M  V30 1250 H 116.536 2.61395 1.91945 0
M  V30 1251 H 116.321 3.86489 0.66098 0
M  V30 1252 H 117.811 3.83589 1.65073 0
M  V30 1253 N 118.248 0.346503 1.53744 0
M  V30 1254 C 119.211 -0.496439 2.23759 0
M  V30 1255 C 120.211 -1.0252 1.2388 0
M  V30 1256 O 121.401 -0.913974 1.48297 0
M  V30 1257 C 118.533 -1.69187 2.95954 0
M  V30 1258 H 119.726 0.115952 2.99676 0
M  V30 1259 H 117.279 0.0978939 1.55993 0
M  V30 1260 H 118.014 -2.34288 2.24231 0
M  V30 1261 H 117.799 -1.31989 3.69217 0
M  V30 1262 H 119.289 -2.28969 3.49232 0
M  V30 1263 N 119.726 -1.57421 0.075193 0
M  V30 1264 C 120.973 -1.93618 -0.593146 0
M  V30 1265 C 121.301 -0.955484 -1.69413 0
M  V30 1266 O 120.556 0.0283251 -1.9568 0
M  V30 1267 C 120.855 -3.36428 -1.20626 0
M  V30 1268 C 120.521 -4.50307 -0.231078 0
M  V30 1269 C 119.183 -4.81186 0.0371936 0
M  V30 1270 C 121.535 -5.19374 0.435888 0
M  V30 1271 C 118.863 -5.78466 0.979461 0
M  V30 1272 C 121.215 -6.17665 1.3665 0
M  V30 1273 C 119.879 -6.46958 1.6432 0
M  V30 1274 H 119.149 -0.708499 -0.217047 0
M  V30 1275 H 121.796 -1.90937 0.146793 0
M  V30 1276 H 120.101 -3.35592 -2.02201 0
M  V30 1277 H 121.798 -3.61727 -1.73073 0
M  V30 1278 H 118.388 -4.26227 -0.450357 0
M  V30 1279 H 122.572 -4.95711 0.241748 0
M  V30 1280 H 117.828 -5.99487 1.20106 0
M  V30 1281 H 122.002 -6.70284 1.88924 0
M  V30 1282 H 119.629 -7.2215 2.37494 0
M  V30 1283 N 121.204 0.198386 -1.56346 0
M  V30 1284 C 122.615 0.763358 -1.70381 0
M  V30 1285 C 122.966 1.83995 -0.681203 0
M  V30 1286 O 122.091 2.15785 0.16305 0
M  V30 1287 C 122.686 1.39143 -3.08909 0
M  V30 1288 C 121.245 1.90352 -3.2472 0
M  V30 1289 C 120.392 0.772233 -2.6633 0
M  V30 1290 H 123.343 -0.0266377 -1.58678 0
M  V30 1291 H 123.364 2.26076 -3.06055 0
M  V30 1292 H 122.876 0.607638 -3.83314 0
M  V30 1293 H 120.977 2.71461 -2.55225 0
M  V30 1294 H 121.09 2.06757 -4.3219 0
M  V30 1295 H 119.454 1.18566 -2.2542 0
M  V30 1296 H 120.237 0.00073556 -3.433 0
M  V30 1297 N 122.682 1.50554 0.465978 0
M  V30 1298 C 123.592 1.72585 1.58907 0
M  V30 1299 C 124.608 0.60911 1.6299 0
M  V30 1300 O 125.784 0.88804 1.80765 0
M  V30 1301 C 122.849 1.81995 2.95091 0
M  V30 1302 C 121.91 3.05751 3.01355 0
M  V30 1303 C 121.143 3.14702 4.31043 0
M  V30 1304 O 121.366 2.30313 5.21835 0
M  V30 1305 O 120.3 4.07468 4.43005 0
M  V30 1306 H 124.126 2.67799 1.43239 0
M  V30 1307 H 121.711 1.34711 0.646013 0
M  V30 1308 H 123.593 1.90335 3.75966 0
M  V30 1309 H 122.268 0.899659 3.10947 0
M  V30 1310 H 121.175 3.02908 2.19539 0
M  V30 1311 H 122.508 3.97375 2.90437 0
M  V30 1312 N 124.16 -0.719506 1.40217 0
M  V30 1313 C 125.437 -1.47221 1.28784 0
M  V30 1314 C 125.817 -2.10883 -0.0956067 0
M  V30 1315 O 125.165 -1.99833 -1.10811 0
M  V30 1316 C 125.375 -2.5111 2.42373 0
M  V30 1317 C 126.723 -3.17053 2.82423 0
M  V30 1318 O 127.747 -2.61429 2.41937 0
M  V30 1319 O 126.606 -4.17742 3.52355 0
M  V30 1320 H 123.7 -0.654491 0.50554 0
M  V30 1321 H 126.246 -0.752014 1.52128 0
M  V30 1322 H 125.018 -2.02556 3.34793 0
M  V30 1323 H 124.641 -3.3067 2.20778 0
M  V30 1324 N 125.638 -1.25649 -0.95132 0
M  V30 1325 C 127.054 -1.02542 -1.223 0
M  V30 1326 C 127.254 0.255715 -1.99871 0
M  V30 1327 O 126.31 0.967558 -2.33226 0
M  V30 1328 C 127.623 -2.25065 -1.99415 0
M  V30 1329 C 129.171 -2.29861 -2.12446 0
M  V30 1330 C 129.646 -3.52048 -2.92961 0
M  V30 1331 N 131.137 -3.52465 -3.00538 0
M  V30 1332 C 131.872 -4.43672 -3.63239 0
M  V30 1333 N 131.368 -5.45157 -4.27523 0
M  V30 1334 N 133.161 -4.31346 -3.60412 0
M  V30 1335 H 125.312 -2.07951 -0.432471 0
M  V30 1336 H 127.575 -0.91339 -0.253816 0
M  V30 1337 H 127.281 -3.18194 -1.49817 0
M  V30 1338 H 127.155 -2.28502 -3.00111 0
M  V30 1339 H 129.542 -1.37252 -2.61239 0
M  V30 1340 H 129.623 -2.3044 -1.11044 0
M  V30 1341 H 129.267 -4.44981 -2.44856 0
M  V30 1342 H 129.197 -3.48715 -3.94596 0
M  V30 1343 H 131.688 -2.79056 -2.54826 0
M  V30 1344 H 132.001 -6.10958 -4.73234 0
M  V30 1345 H 130.346 -5.49025 -4.26141 0
M  V30 1346 H 133.537 -3.51288 -3.09377 0
M  V30 1347 H 133.71 -5.02624 -4.0899 0
M  V30 1348 N 127.117 1.15442 -1.07289 0
M  V30 1349 C 128.342 1.90638 -0.816828 0
M  V30 1350 C 128.767 1.77445 0.624083 0
M  V30 1351 O 128.125 1.10671 1.43602 0
M  V30 1352 C 128.173 3.39008 -1.22906 0
M  V30 1353 O 127.277 4.10701 -0.373975 0
M  V30 1354 H 126.618 0.593555 -0.297638 0
M  V30 1355 H 129.148 1.46198 -1.43134 0
M  V30 1356 H 129.158 3.89801 -1.20497 0
M  V30 1357 H 127.833 3.47929 -2.27856 0
M  V30 1358 H 126.41 3.70046 -0.460499 0
M  V30 1359 N 128.595 0.856903 1.32268 0
M  V30 1360 C 129.527 0.260412 2.27716 0
M  V30 1361 C 130.54 -0.569137 1.52528 0
M  V30 1362 O 131.729 -0.39326 1.74114 0
M  V30 1363 C 128.829 -0.650477 3.32599 0
M  V30 1364 C 128.002 0.14372 4.37164 0
M  V30 1365 C 127.061 -0.69328 5.21613 0
M  V30 1366 O 126.087 -0.12599 5.69061 0
M  V30 1367 N 127.289 -2.00761 5.44679 0
M  V30 1368 H 130.054 1.08059 2.79541 0
M  V30 1369 H 127.615 0.717103 1.45152 0
M  V30 1370 H 129.607 -1.21581 3.86005 0
M  V30 1371 H 128.177 -1.37133 2.80915 0
M  V30 1372 H 127.397 0.890486 3.8401 0
M  V30 1373 H 128.685 0.68915 5.04111 0
M  V30 1374 H 128.083 -2.49181 5.07863 0
M  V30 1375 H 126.64 -2.52103 6.01072 0
M  V30 1376 N 130.073 -1.45103 0.615059 0
M  V30 1377 C 131.484 -1.85654 0.197383 0
M  V30 1378 C 131.835 -1.51433 -1.24749 0
M  V30 1379 O 130.96 -0.944608 -1.94695 0
M  V30 1380 C 131.555 -3.36972 0.351448 0
M  V30 1381 C 130.114 -3.76398 -0.011593 0
M  V30 1382 C 129.261 -2.69024 0.672394 0
M  V30 1383 H 132.212 -1.35797 0.821263 0
M  V30 1384 H 132.233 -3.78239 -0.414227 0
M  V30 1385 H 131.745 -3.61847 1.40314 0
M  V30 1386 H 129.846 -3.5714 -1.06217 0
M  V30 1387 H 129.959 -4.77532 0.387265 0
M  V30 1388 H 128.323 -2.54465 0.109284 0
M  V30 1389 H 129.106 -2.96735 1.72636 0
M  V30 1390 N 131.551 -0.354651 -1.53558 0
M  V30 1391 C 132.799 0.237972 -2.00694 0
M  V30 1392 C 133.12 1.50173 -1.24391 0
M  V30 1393 O 132.39 1.92673 -0.354135 0
M  V30 1394 H 130.97 0.0909256 -0.741446 0
M  V30 1395 H 133.632 -0.478368 -1.88938 0
M  V30 1396 H 132.728 0.47264 -3.085 0
M  V30 1397 N 133.029 1.57378 -0.0835403 0
M  V30 1398 C 133.961 2.10389 0.909338 0
M  V30 1399 C 134.974 1.03858 1.25369 0
M  V30 1400 O 136.163 1.31338 1.20882 0
M  V30 1401 C 133.263 2.55908 2.2218 0
M  V30 1402 C 132.436 3.86145 2.05453 0
M  V30 1403 C 131.495 4.17633 3.20108 0
M  V30 1404 O 130.521 4.87043 2.94581 0
M  V30 1405 N 131.723 3.72113 4.45547 0
M  V30 1406 H 134.488 2.962 0.456657 0
M  V30 1407 H 132.049 1.61579 0.101877 0
M  V30 1408 H 134.041 2.74027 2.97811 0
M  V30 1409 H 132.611 1.75171 2.58909 0
M  V30 1410 H 131.831 3.7729 1.1422 0
M  V30 1411 H 133.119 4.7137 1.91541 0
M  V30 1412 H 132.517 3.16062 4.69171 0
M  V30 1413 H 131.074 3.95409 5.18165 0
M  V30 1414 N 134.507 -0.190092 1.56449 0
M  V30 1415 C 135.784 -0.935886 1.71757 0
M  V30 1416 C 136.164 -2.01173 0.639726 0
M  V30 1417 O 135.512 -2.25827 -0.348502 0
M  V30 1418 C 135.722 -1.51775 3.1427 0
M  V30 1419 C 137.07 -1.99794 3.74656 0
M  V30 1420 O 138.094 -1.61607 3.1743 0
M  V30 1421 O 136.953 -2.70079 4.751 0
M  V30 1422 H 134.047 -0.439229 0.700719 0
M  V30 1423 H 136.593 -0.179395 1.68749 0
M  V30 1424 H 135.365 -0.742505 3.84191 0
M  V30 1425 H 134.988 -2.33894 3.21527 0
M  V30 1426 N 135.985 -1.50799 -0.457987 0
M  V30 1427 C 137.225 -1.64088 -1.21879 0
M  V30 1428 C 137.589 -0.339848 -1.88968 0
M  V30 1429 O 138.79 -0.348301 -2.66534 0
M  V30 1430 C 137.061 -2.79726 -2.2246 0
M  V30 1431 S 138.62 -3.13225 -3.07303 0
M  V30 1432 H 135.438 -0.578314 -0.41361 0
M  V30 1433 H 138.04 -1.88632 -0.513645 0
M  V30 1434 H 136.744 -3.72722 -1.71775 0
M  V30 1435 H 136.275 -2.57308 -2.97584 0
M  V30 1436 H 138.29 -2.58062 -4.23814 0
M  V30 1437 N 137.463 0.71206 -1.40597 0
M  V30 1438 C 138.879 1.02058 -1.22704 0
M  V30 1439 C 139.079 2.01228 -0.104729 0
M  V30 1440 O 138.135 2.4674 0.53624 0
M  V30 1441 C 139.448 1.56094 -2.57012 0
M  V30 1442 C 140.996 1.6806 -2.64054 0
M  V30 1443 C 141.471 2.25501 -3.9864 0
M  V30 1444 N 142.962 2.32882 -4.004 0
M  V30 1445 C 143.697 2.78317 -5.01325 0
M  V30 1446 N 143.193 3.23478 -6.12645 0
M  V30 1447 N 144.986 2.77733 -4.88693 0
M  V30 1448 H 137.137 0.0547896 -2.12329 0
M  V30 1449 H 139.4 0.0869027 -0.944008 0
M  V30 1450 H 139.106 0.906865 -3.39807 0
M  V30 1451 H 138.98 2.54564 -2.78347 0
M  V30 1452 H 141.367 2.32583 -1.81629 0
M  V30 1453 H 141.448 0.681802 -2.46546 0
M  V30 1454 H 141.092 1.61598 -4.81506 0
M  V30 1455 H 141.022 3.26102 -4.13479 0
M  V30 1456 H 143.513 2.00991 -3.20017 0
M  V30 1457 H 143.826 3.56725 -6.85542 0
M  V30 1458 H 142.171 3.21429 -6.16205 0
M  V30 1459 H 145.362 2.4179 -4.00818 0
M  V30 1460 H 145.535 3.12826 -5.67489 0
M  V30 1461 N 138.941 1.26152 0.944643 0
M  V30 1462 C 140.188 1.11492 1.69044 0
M  V30 1463 C 140.516 -0.342366 1.91463 0
M  V30 1464 O 139.771 -1.26812 1.49054 0
M  V30 1465 C 140.07 1.82541 3.07268 0
M  V30 1466 C 139.736 3.32445 3.04616 0
M  V30 1467 C 138.398 3.73337 3.036 0
M  V30 1468 C 140.75 4.28171 2.97185 0
M  V30 1469 C 138.078 5.08348 2.92915 0
M  V30 1470 C 140.43 5.63218 2.88041 0
M  V30 1471 C 139.094 6.03426 2.85366 0
M  V30 1472 H 138.364 0.407977 0.618576 0
M  V30 1473 H 141.011 1.56551 1.10291 0
M  V30 1474 H 139.316 1.29941 3.69625 0
M  V30 1475 H 141.013 1.68642 3.63815 0
M  V30 1476 H 137.603 2.99915 3.06185 0
M  V30 1477 H 141.787 3.97563 2.97081 0
M  V30 1478 H 137.043 5.38667 2.89219 0
M  V30 1479 H 141.217 6.37078 2.81254 0
M  V30 1480 H 138.844 7.07999 2.76842 0
M  V30 1481 N 140.419 -1.14872 1.07899 0
M  V30 1482 C 141.835 -1.37776 0.805606 0
M  V30 1483 C 142.035 -1.92743 -0.587555 0
M  V30 1484 O 141.091 -2.13678 -1.34528 0
M  V30 1485 C 142.404 -2.34361 1.88402 0
M  V30 1486 C 143.952 -2.48012 1.90942 0
M  V30 1487 C 144.427 -3.47893 2.97883 0
M  V30 1488 N 145.918 -3.55433 2.97021 0
M  V30 1489 C 146.653 -4.32553 3.76412 0
M  V30 1490 N 146.149 -5.12959 4.65666 0
M  V30 1491 N 147.942 -4.27697 3.64735 0
M  V30 1492 H 140.093 -0.775365 1.97742 0
M  V30 1493 H 142.356 -0.403521 0.857831 0
M  V30 1494 H 142.062 -2.01098 2.88535 0
M  V30 1495 H 141.936 -3.34206 1.74889 0
M  V30 1496 H 144.323 -2.8057 0.914579 0
M  V30 1497 H 144.404 -1.48147 2.08534 0
M  V30 1498 H 144.048 -3.16069 3.97571 0
M  V30 1499 H 143.978 -4.47527 2.77538 0
M  V30 1500 H 146.469 -2.98048 2.32326 0
M  V30 1501 H 146.782 -5.69065 5.22862 0
M  V30 1502 H 145.127 -5.12245 4.69712 0
M  V30 1503 H 148.318 -3.63949 2.94378 0
M  V30 1504 H 148.491 -4.8755 4.26848 0
M  V30 1505 N 141.898 -0.863906 -1.31812 0
M  V30 1506 C 143.144 -0.472535 -1.97218 0
M  V30 1507 C 143.477 0.971394 -1.68159 0
M  V30 1508 O 142.752 1.68309 -0.974798 0
M  V30 1509 C 143.035 -0.723054 -3.52766 0
M  V30 1510 C 142.888 -2.21608 -3.91421 0
M  V30 1511 C 144.207 -0.185522 -4.39709 0
M  V30 1512 H 141.326 -0.173158 -0.71637 0
M  V30 1513 H 143.968 -1.08403 -1.56041 0
M  V30 1514 H 142.118 -0.202577 -3.87971 0
M  V30 1515 H 143.79 -2.80334 -3.66347 0
M  V30 1516 H 142.033 -2.691 -3.40246 0
M  V30 1517 H 142.704 -2.34203 -4.99853 0
M  V30 1518 H 145.18 -0.630726 -4.11292 0
M  V30 1519 H 144.056 -0.390306 -5.47511 0
M  V30 1520 H 144.317 0.912229 -4.32586 0
M  V30 1521 N 143.376 1.44774 -0.622745 0
M  V30 1522 C 144.604 2.06487 -0.130722 0
M  V30 1523 C 145.019 1.46476 1.19123 0
M  V30 1524 O 144.376 0.584502 1.72887 0
M  V30 1525 C 144.427 3.615 -0.000807207 0
M  V30 1526 O 144.148 4.19274 -1.27048 0
M  V30 1527 C 145.649 4.40229 0.520898 0
M  V30 1528 H 142.869 0.666704 -0.0758106 0
M  V30 1529 H 145.413 1.85779 -0.854774 0
M  V30 1530 H 143.568 3.81498 0.673643 0
M  V30 1531 H 143.982 5.12622 -1.1099 0
M  V30 1532 H 145.456 5.49144 0.560838 0
M  V30 1533 H 145.933 4.1108 1.54627 0
M  V30 1534 H 146.539 4.25131 -0.120018 0
M  V30 1535 N 144.854 0.36279 1.53368 0
M  V30 1536 C 145.786 -0.519668 2.23231 0
M  V30 1537 C 146.799 -1.04844 1.24546 0
M  V30 1538 O 147.988 -0.955296 1.50786 0
M  V30 1539 C 145.088 -1.72995 2.9142 0
M  V30 1540 C 144.261 -1.33316 4.16588 0
M  V30 1541 C 143.32 -2.40521 4.68013 0
M  V30 1542 O 142.346 -2.03027 5.3176 0
M  V30 1543 N 143.548 -3.72065 4.45587 0
M  V30 1544 H 146.313 0.078751 2.99597 0
M  V30 1545 H 143.874 0.187833 1.60807 0
M  V30 1546 H 145.866 -2.44184 3.22733 0
M  V30 1547 H 144.436 -2.2353 2.18525 0
M  V30 1548 H 143.656 -0.451236 3.91609 0
M  V30 1549 H 144.944 -1.04432 4.97967 0
M  V30 1550 H 144.342 -4.05304 3.94646 0
M  V30 1551 H 142.899 -4.39366 4.81457 0
M  V30 1552 N 146.332 -1.57332 0.0918853 0
M  V30 1553 C 147.262 -2.16872 -0.865371 0
M  V30 1554 C 148.243 -1.10118 -1.29646 0
M  V30 1555 O 149.428 -1.38242 -1.36392 0
M  V30 1556 C 146.558 -2.74649 -2.12569 0
M  V30 1557 C 145.512 -3.86747 -1.83333 0
M  V30 1558 C 144.838 -4.31212 -3.16166 0
M  V30 1559 C 146.138 -5.10089 -1.1228 0
M  V30 1560 H 147.832 -2.97114 -0.369307 0
M  V30 1561 H 145.378 -1.42918 -0.176194 0
M  V30 1562 H 147.331 -3.14952 -2.7997 0
M  V30 1563 H 146.055 -1.91657 -2.64452 0
M  V30 1564 H 144.714 -3.46978 -1.18331 0
M  V30 1565 H 144.362 -3.45115 -3.6593 0
M  V30 1566 H 144.062 -5.06788 -2.97388 0
M  V30 1567 H 145.586 -4.74146 -3.84731 0
M  V30 1568 H 147 -5.47582 -1.69785 0
M  V30 1569 H 145.397 -5.91073 -1.03693 0
M  V30 1570 H 146.467 -4.84786 -0.105041 0
M  V30 1571 N 147.81 0.181792 -1.56548 0
M  V30 1572 C 149.221 0.745244 -1.71181 0
M  V30 1573 C 149.572 1.83262 -0.70068 0
M  V30 1574 O 148.697 2.15946 0.140154 0
M  V30 1575 C 149.292 1.35859 -3.10367 0
M  V30 1576 C 147.851 1.86898 -3.2672 0
M  V30 1577 C 146.998 0.743942 -2.67134 0
M  V30 1578 H 149.949 -0.0434661 -1.5864 0
M  V30 1579 H 149.97 2.22817 -3.08436 0
M  V30 1580 H 149.482 0.566948 -3.83937 0
M  V30 1581 H 147.583 2.68738 -2.5809 0
M  V30 1582 H 147.696 2.02162 -4.34359 0
M  V30 1583 H 146.06 1.16169 -2.26665 0
M  V30 1584 H 146.843 -0.035676 -3.43281 0
M  V30 1585 N 149.288 1.51039 0.449983 0
M  V30 1586 C 150.236 1.71995 1.5659 0
M  V30 1587 C 151.23 0.586029 1.5894 0
M  V30 1588 O 152.436 0.76709 1.62837 0
M  V30 1589 H 148.811 0.543233 0.520001 0
M  V30 1590 H 150.782 2.65562 1.36085 0
M  V30 1591 C 149.531 1.8506 2.9436 0
M  V30 1592 H 148.854 2.71712 2.93279 0
M  V30 1593 H 150.294 2.0374 3.71842 0
M  V30 1594 C 148.753 0.607277 3.31382 0
M  V30 1595 O 149.283 -0.243903 4.00959 0
M  V30 1596 N 147.489 0.455073 2.87015 0
M  V30 1597 H 147.036 1.14879 2.30566 0
M  V30 1598 H 146.994 -0.375611 3.12148 0
M  V30 1599 N 150.766 -0.704594 1.40972 0
M  V30 1600 C 152.014 -1.46169 1.39568 0
M  V30 1601 C 152.335 -1.95 0.00253745 0
M  V30 1602 O 151.605 -1.71095 -0.954114 0
M  V30 1603 H 150.185 -0.542326 0.513704 0
M  V30 1604 H 152.847 -0.834553 1.76128 0
M  V30 1605 H 151.943 -2.32922 2.07735 0
M  V30 1606 N 152.244 -1.26651 -0.937939 0
M  V30 1607 C 153.66 -1.03834 -1.21205 0
M  V30 1608 C 153.86 0.234502 -2.00131 0
M  V30 1609 O 152.916 0.942767 -2.3424 0
M  V30 1610 C 154.229 -2.27167 -1.97017 0
M  V30 1611 C 155.777 -2.32101 -2.09996 0
M  V30 1612 C 156.252 -3.55136 -2.8921 0
M  V30 1613 N 157.743 -3.55632 -2.96783 0
M  V30 1614 C 158.478 -4.475 -3.58512 0
M  V30 1615 N 157.974 -5.4966 -4.21717 0
M  V30 1616 N 159.767 -4.35145 -3.55816 0
M  V30 1617 H 151.918 -2.08398 -0.410391 0
M  V30 1618 H 154.181 -0.916031 -0.244114 0
M  V30 1619 H 153.887 -3.19765 -1.46434 0
M  V30 1620 H 153.761 -2.31672 -2.97671 0
M  V30 1621 H 156.148 -1.40015 -2.59769 0
M  V30 1622 H 156.229 -2.31605 -1.08594 0
M  V30 1623 H 155.873 -4.47553 -2.40123 0
M  V30 1624 H 155.803 -3.5288 -3.90875 0
M  V30 1625 H 158.294 -2.81743 -2.51852 0
M  V30 1626 H 158.607 -6.15943 -4.66727 0
M  V30 1627 H 156.952 -5.53514 -4.20294 0
M  V30 1628 H 160.143 -3.5455 -3.05634 0
M  V30 1629 H 160.316 -5.06934 -4.03636 0
M  V30 1630 N 153.722 1.14298 -1.08507 0
M  V30 1631 C 154.999 1.81544 -0.728088 0
M  V30 1632 C 155.379 1.95838 0.78808 0
M  V30 1633 O 154.727 1.51904 1.70697 0
M  V30 1634 C 154.937 3.17169 -1.45619 0
M  V30 1635 C 156.285 3.9265 -1.61591 0
M  V30 1636 O 157.309 3.26762 -1.41793 0
M  V30 1637 O 156.168 5.10807 -1.94263 0
M  V30 1638 H 153.262 0.78491 -0.260471 0
M  V30 1639 H 155.808 1.21307 -1.18671 0
M  V30 1640 H 154.58 3.01934 -2.489 0
M  V30 1641 H 154.203 3.851 -0.989124 0
M  V30 1642 N 155.201 0.870884 1.31352 0
M  V30 1643 C 156.448 0.482273 1.96673 0
M  V30 1644 C 156.776 -0.965638 1.68836 0
M  V30 1645 O 156.031 -1.69514 0.977937 0
M  V30 1646 C 156.33 0.687157 3.50732 0
M  V30 1647 C 155.996 2.108 3.9859 0
M  V30 1648 C 154.658 2.49656 4.1137 0
M  V30 1649 C 157.01 3.03459 4.23748 0
M  V30 1650 C 154.338 3.80412 4.46659 0
M  V30 1651 C 156.69 4.3373 4.60501 0
M  V30 1652 C 155.354 4.725 4.71487 0
M  V30 1653 H 154.624 0.176476 0.719679 0
M  V30 1654 H 157.271 1.10405 1.56471 0
M  V30 1655 H 155.576 -0.0177476 3.91796 0
M  V30 1656 H 157.273 0.366284 3.99324 0
M  V30 1657 H 153.863 1.79633 3.8914 0
M  V30 1658 H 158.047 2.74665 4.13368 0
M  V30 1659 H 153.303 4.1021 4.53362 0
M  V30 1660 H 157.477 5.05578 4.78919 0
M  V30 1661 H 155.104 5.73859 4.98588 0
M  V30 1662 N 156.679 -1.44442 0.630414 0
M  V30 1663 C 157.629 -2.27794 -0.0968103 0
M  V30 1664 C 158.613 -1.38624 -0.816834 0
M  V30 1665 O 159.805 -1.62438 -0.70306 0
M  V30 1666 C 156.934 -3.25929 -1.07819 0
M  V30 1667 C 156.02 -4.22588 -0.357826 0
M  V30 1668 N 156.411 -5.0207 0.613169 0
M  V30 1669 C 154.709 -4.41914 -0.602365 0
M  V30 1670 C 155.41 -5.72351 1.03871 0
M  V30 1671 N 154.386 -5.42287 0.377642 0
M  V30 1672 H 158.188 -2.86653 0.648621 0
M  V30 1673 H 155.702 -1.55871 0.455862 0
M  V30 1674 H 157.699 -3.84399 -1.61378 0
M  V30 1675 H 156.359 -2.68631 -1.82393 0
M  V30 1676 H 157.37 -5.08331 0.990947 0
M  V30 1677 H 154.047 -3.95714 -1.33103 0
M  V30 1678 H 155.437 -6.4619 1.84086 0
M  V30 1679 N 158.157 -0.370918 -1.53173 0
M  V30 1680 C 159.09 0.516727 -2.22273 0
M  V30 1681 C 160.068 1.07877 -1.21661 0
M  V30 1682 O 161.252 1.13389 -1.50583 0
M  V30 1683 C 158.379 1.71346 -2.92161 0
M  V30 1684 C 157.425 1.27838 -4.0689 0
M  V30 1685 S 158.258 0.275217 -5.34792 0
M  V30 1686 C 159.414 1.47816 -6.08195 0
M  V30 1687 H 159.647 -0.0701054 -2.97217 0
M  V30 1688 H 157.18 -0.155038 -1.5362 0
M  V30 1689 H 159.138 2.39988 -3.3304 0
M  V30 1690 H 157.799 2.27156 -2.16931 0
M  V30 1691 H 156.992 2.17141 -4.54825 0
M  V30 1692 H 156.594 0.671105 -3.6793 0
M  V30 1693 H 158.886 2.40831 -6.33251 0
M  V30 1694 H 159.829 1.04008 -7.0042 0
M  V30 1695 H 160.237 1.68663 -5.38714 0
M  V30 1696 N 159.635 1.57281 -0.100228 0
M  V30 1697 C 160.86 1.99302 0.573881 0
M  V30 1698 C 161.285 0.979059 1.60611 0
M  V30 1699 O 160.643 -0.0517803 1.81226 0
M  V30 1700 C 160.691 3.40274 1.19358 0
M  V30 1701 O 159.795 3.41676 2.30935 0
M  V30 1702 H 159.136 0.647944 0.145138 0
M  V30 1703 H 161.666 2.03779 -0.183156 0
M  V30 1704 H 161.676 3.78078 1.53365 0
M  V30 1705 H 160.351 4.13594 0.437385 0
M  V30 1706 H 158.928 3.15672 1.98509 0
M  V30 1707 N 161.113 -0.173488 1.56642 0
M  V30 1708 C 162.359 -0.891784 1.8214 0
M  V30 1709 C 162.692 -1.8199 0.677736 0
M  V30 1710 O 161.967 -1.91842 -0.320446 0
M  V30 1711 C 162.25 -1.68933 3.18015 0
M  V30 1712 C 162.103 -0.784487 4.42906 0
M  V30 1713 C 163.422 -2.65748 3.50808 0
M  V30 1714 H 160.541 -0.322761 0.662567 0
M  V30 1715 H 163.183 -0.158095 1.89341 0
M  V30 1716 H 161.333 -2.31482 3.12007 0
M  V30 1717 H 163.005 -0.172046 4.60979 0
M  V30 1718 H 161.248 -0.0924117 4.33702 0
M  V30 1719 H 161.919 -1.37799 5.34524 0
M  V30 1720 H 164.395 -2.13327 3.57255 0
M  V30 1721 H 163.271 -3.18619 4.4696 0
M  V30 1722 H 163.532 -3.45842 2.75401 0
M  V30 1723 N 162.591 -1.51276 -0.441967 0
M  V30 1724 C 163.837 -1.63958 -1.19355 0
M  V30 1725 C 164.17 -0.352543 -1.90973 0
M  V30 1726 O 163.445 0.647627 -1.83401 0
M  V30 1727 C 163.728 -2.83979 -2.21422 0
M  V30 1728 C 163.581 -4.22646 -1.53918 0
M  V30 1729 C 164.9 -2.99521 -3.22451 0
M  V30 1730 H 162.019 -0.596709 -0.432559 0
M  V30 1731 H 164.661 -1.83748 -0.483398 0
M  V30 1732 H 162.811 -2.67237 -2.81987 0
M  V30 1733 H 164.483 -4.51045 -0.967256 0
M  V30 1734 H 162.726 -4.25558 -0.841615 0
M  V30 1735 H 163.397 -5.02609 -2.28229 0
M  V30 1736 H 165.873 -3.14944 -2.71937 0
M  V30 1737 H 164.749 -3.85072 -3.91166 0
M  V30 1738 H 165.01 -2.11391 -3.88287 0
M  V30 1739 N 164.069 0.697108 -1.41344 0
M  V30 1740 C 165.485 1.00751 -1.2378 0
M  V30 1741 C 165.685 2.01105 -0.126066 0
M  V30 1742 O 164.741 2.47295 0.51004 0
M  V30 1743 C 166.054 1.53359 -2.58653 0
M  V30 1744 C 167.602 1.6525 -2.65822 0
M  V30 1745 C 168.077 2.2126 -4.01009 0
M  V30 1746 N 169.568 2.28622 -4.02847 0
M  V30 1747 C 170.303 2.72984 -5.04249 0
M  V30 1748 N 169.799 3.16962 -6.16041 0
M  V30 1749 N 171.592 2.72534 -4.91611 0
M  V30 1750 H 163.743 0.0322662 -2.12375 0
M  V30 1751 H 166.006 0.0768853 -0.944877 0
M  V30 1752 H 165.712 0.870773 -3.4075 0
M  V30 1753 H 165.586 2.51597 -2.81032 0
M  V30 1754 H 167.973 2.30644 -1.84086 0
M  V30 1755 H 168.054 0.655614 -2.47256 0
M  V30 1756 H 167.698 1.56482 -4.83193 0
M  V30 1757 H 167.628 3.21698 -4.16915 0
M  V30 1758 H 170.119 1.97585 -3.22131 0
M  V30 1759 H 170.432 3.49434 -6.89287 0
M  V30 1760 H 168.777 3.14875 -6.1958 0
M  V30 1761 H 171.968 2.37525 -4.0336 0
M  V30 1762 H 172.141 3.06789 -5.70775 0
M  V30 1763 N 165.547 1.27147 0.931209 0
M  V30 1764 C 166.51 1.09615 2.01289 0
M  V30 1765 C 167.51 0.0412581 1.60747 0
M  V30 1766 O 168.7 0.285545 1.71844 0
M  V30 1767 C 165.832 0.669447 3.34262 0
M  V30 1768 H 167.025 2.05662 2.18273 0
M  V30 1769 H 164.578 1.09885 1.11153 0
M  V30 1770 H 165.313 -0.292572 3.22978 0
M  V30 1771 H 165.098 1.43127 3.65044 0
M  V30 1772 H 166.588 0.568921 4.13706 0
M  V30 1773 N 167.025 -1.13721 1.09112 0
M  V30 1774 C 168.441 -1.36914 0.820174 0
M  V30 1775 C 168.641 -1.93356 -0.567079 0
M  V30 1776 O 167.697 -2.15093 -1.32255 0
M  V30 1777 C 169.01 -2.3235 1.90877 0
M  V30 1778 C 170.558 -2.45973 1.93562 0
M  V30 1779 C 171.033 -3.44714 3.01556 0
M  V30 1780 N 172.524 -3.52263 3.00775 0
M  V30 1781 C 173.259 -4.28536 3.80978 0
M  V30 1782 N 172.755 -5.07991 4.71081 0
M  V30 1783 N 174.548 -4.23804 3.69251 0
M  V30 1784 H 166.699 -0.754348 1.98553 0
M  V30 1785 H 168.962 -0.3944 0.862063 0
M  V30 1786 H 168.668 -1.98027 2.90651 0
M  V30 1787 H 168.542 -3.32332 1.78424 0
M  V30 1788 H 170.929 -2.79584 0.944286 0
M  V30 1789 H 171.01 -1.45926 2.10093 0
M  V30 1790 H 170.654 -3.11835 4.00901 0
M  V30 1791 H 170.584 -4.44558 2.82269 0
M  V30 1792 H 173.075 -2.95567 2.35475 0
M  V30 1793 H 173.388 -5.63487 5.28869 0
M  V30 1794 H 171.733 -5.07235 4.75119 0
M  V30 1795 H 174.924 -3.60806 2.98222 0
M  V30 1796 H 175.097 -4.82995 4.31995 0
M  V30 1797 N 168.503 -0.877838 -1.30888 0
M  V30 1798 C 169.919 -0.570844 -1.49042 0
M  V30 1799 C 170.119 0.893159 -1.80624 0
M  V30 1800 O 169.175 1.67485 -1.88958 0
M  V30 1801 C 170.488 -1.47784 -2.61878 0
M  V30 1802 C 172.036 -1.48071 -2.75761 0
M  V30 1803 C 172.511 -2.37347 -3.91702 0
M  V30 1804 N 174.002 -2.35271 -3.99001 0
M  V30 1805 C 174.737 -3.01063 -4.88004 0
M  V30 1806 N 174.233 -3.76055 -5.81854 0
M  V30 1807 N 176.026 -2.90332 -4.81315 0
M  V30 1808 H 168.177 -1.82502 -1.0866 0
M  V30 1809 H 170.44 -0.780797 -0.537644 0
M  V30 1810 H 170.146 -2.51993 -2.45341 0
M  V30 1811 H 170.02 -1.18215 -3.58197 0
M  V30 1812 H 172.407 -0.446166 -2.91708 0
M  V30 1813 H 172.488 -1.81668 -1.80085 0
M  V30 1814 H 172.132 -3.40883 -3.76512 0
M  V30 1815 H 172.062 -2.01071 -4.86701 0
M  V30 1816 H 174.553 -1.80768 -3.3186 0
M  V30 1817 H 174.866 -4.23366 -6.46514 0
M  V30 1818 H 173.211 -3.80163 -5.81808 0
M  V30 1819 H 176.402 -2.31278 -4.06974 0
M  V30 1820 H 176.575 -3.41885 -5.50471 0
M  V30 1821 N 169.982 1.44106 -0.638065 0
M  V30 1822 C 170.93 2.3248 0.0748149 0
M  V30 1823 C 171.924 1.47746 0.828702 0
M  V30 1824 O 173.13 1.64049 0.740816 0
M  V30 1825 H 169.505 0.750771 0.0429686 0
M  V30 1826 H 171.476 2.90348 -0.688504 0
M  V30 1827 C 170.225 3.31843 1.03805 0
M  V30 1828 H 169.548 3.97059 0.467375 0
M  V30 1829 H 170.988 3.96345 1.50622 0
M  V30 1830 C 169.447 2.61291 2.1267 0
M  V30 1831 O 169.977 2.41702 3.20847 0
M  V30 1832 N 168.183 2.20915 1.88798 0
M  V30 1833 H 167.73 2.37047 1.00829 0
M  V30 1834 H 167.688 1.74038 2.61836 0
M  V30 1835 N 171.46 0.379036 1.52974 0
M  V30 1836 C 172.737 -0.263479 1.93817 0
M  V30 1837 C 173.117 -1.65244 1.31368 0
M  V30 1838 O 172.465 -2.23448 0.477856 0
M  V30 1839 C 172.675 -0.300166 3.47707 0
M  V30 1840 C 174.023 -0.534061 4.21228 0
M  V30 1841 O 175.047 -0.38081 3.54159 0
M  V30 1842 O 173.906 -0.833501 5.40106 0
M  V30 1843 H 171 -0.161149 0.811147 0
M  V30 1844 H 173.546 0.432798 1.64088 0
M  V30 1845 H 172.318 0.673138 3.85467 0
M  V30 1846 H 171.941 -1.04179 3.83709 0
M  V30 1847 N 172.938 -1.57226 0.108567 0
M  V30 1848 C 174.163 -1.99604 -0.563303 0
M  V30 1849 C 174.588 -0.987563 -1.6009 0
M  V30 1850 O 173.946 0.0421687 -1.81251 0
M  V30 1851 C 173.994 -3.40902 -1.17552 0
M  V30 1852 O 173.098 -3.42896 -2.2912 0
M  V30 1853 H 172.439 -0.648704 -0.1417 0
M  V30 1854 H 174.969 -2.03679 0.193961 0
M  V30 1855 H 174.979 -3.78886 -1.51357 0
M  V30 1856 H 173.654 -4.1382 -0.415445 0
M  V30 1857 H 172.231 -3.1672 -1.96832 0
M  V30 1858 N 174.416 0.165178 -1.56732 0
M  V30 1859 C 175.664 0.879068 -1.8198 0
M  V30 1860 C 175.985 1.82514 -0.686561 0
M  V30 1861 O 175.255 1.93694 0.293146 0
M  V30 1862 H 173.835 0.327608 -0.671329 0
M  V30 1863 H 176.497 0.163526 -1.94213 0
M  V30 1864 H 175.593 1.45228 -2.76252 0
M  V30 1865 N 175.894 1.51508 0.433938 0
M  V30 1866 C 177.122 1.68157 1.20543 0
M  V30 1867 C 177.537 0.380362 1.84929 0
M  V30 1868 O 176.894 -0.641446 1.70856 0
M  V30 1869 C 176.945 2.79965 2.28696 0
M  V30 1870 O 176.666 4.05045 1.66943 0
M  V30 1871 C 178.167 3.07912 3.18912 0
M  V30 1872 H 175.387 0.56421 0.363191 0
M  V30 1873 H 177.931 1.97941 0.513754 0
M  V30 1874 H 176.086 2.5277 2.93574 0
M  V30 1875 H 176.5 4.67165 2.38448 0
M  V30 1876 H 177.974 3.89719 3.90926 0
M  V30 1877 H 178.451 2.20456 3.79863 0
M  V30 1878 H 179.057 3.36779 2.59731 0
M  V30 1879 N 177.372 -0.689602 1.41712 0
M  V30 1880 C 178.602 -1.47613 1.44548 0
M  V30 1881 C 179.01 -1.89132 0.0509034 0
M  V30 1882 O 178.353 -1.57741 -0.94146 0
M  V30 1883 C 178.415 -2.76596 2.2964 0
M  V30 1884 C 178.079 -2.57245 3.77722 0
M  V30 1885 C 179.076 -2.22804 4.69739 0
M  V30 1886 C 176.761 -2.727 4.2183 0
M  V30 1887 C 178.755 -2.04064 6.03851 0
M  V30 1888 C 176.442 -2.53576 5.56006 0
M  V30 1889 C 177.44 -2.1931 6.46832 0
M  V30 1890 O 177.128 -2.00359 7.78532 0
M  V30 1891 H 176.86 -0.461227 0.494212 0
M  V30 1892 H 179.414 -0.856045 1.86711 0
M  V30 1893 H 177.644 -3.41033 1.82301 0
M  V30 1894 H 179.333 -3.38424 2.24107 0
M  V30 1895 H 180.099 -2.10473 4.36951 0
M  V30 1896 H 175.978 -2.98353 3.51435 0
M  V30 1897 H 179.522 -1.77241 6.74708 0
M  V30 1898 H 175.419 -2.65499 5.88371 0
M  V30 1899 H 176.187 -2.15075 7.89737 0
M  V30 1900 N 178.85 -1.27639 -0.924453 0
M  V30 1901 C 179.78 -1.13166 -2.04244 0
M  V30 1902 C 180.761 -0.032256 -1.70069 0
M  V30 1903 O 181.946 -0.207328 -1.9309 0
M  V30 1904 C 179.076 -0.781496 -3.38393 0
M  V30 1905 C 178.03 -1.83449 -3.86692 0
M  V30 1906 C 177.356 -1.33822 -5.17683 0
M  V30 1907 C 178.656 -3.23917 -4.09726 0
M  V30 1908 H 180.35 -2.06689 -2.1661 0
M  V30 1909 H 177.896 -0.995136 -1.04082 0
M  V30 1910 H 179.849 -0.667057 -4.16087 0
M  V30 1911 H 178.573 0.189439 -3.2605 0
M  V30 1912 H 177.232 -1.93789 -3.11193 0
M  V30 1913 H 176.88 -0.35665 -5.01734 0
M  V30 1914 H 176.58 -2.04224 -5.50968 0
M  V30 1915 H 178.104 -1.23679 -5.97943 0
M  V30 1916 H 179.518 -3.16559 -4.77978 0
M  V30 1917 H 177.915 -3.92059 -4.54324 0
M  V30 1918 H 178.985 -3.68729 -3.14908 0
M  V30 1919 N 180.328 1.1314 -1.09713 0
M  V30 1920 C 181.568 1.8613 -0.844683 0
M  V30 1921 C 181.932 1.81765 0.618491 0
M  V30 1922 O 183.133 2.50024 0.98699 0
M  V30 1923 C 181.404 3.30151 -1.36877 0
M  V30 1924 S 182.963 4.206 -1.25064 0
M  V30 1925 H 179.781 0.642056 -0.305427 0
M  V30 1926 H 182.383 1.36343 -1.4011 0
M  V30 1927 H 181.087 3.30883 -2.42786 0
M  V30 1928 H 180.618 3.85 -0.808614 0
M  V30 1929 H 182.633 4.95783 -0.203486 0
M  V30 1930 N 181.806 0.884767 1.30421 0
M  V30 1931 C 183.054 0.502112 1.95763 0
M  V30 1932 C 183.375 -0.951815 1.70192 0
M  V30 1933 O 182.645 -1.6692 1.0254 0
M  V30 1934 H 181.225 0.182694 0.724315 0
M  V30 1935 H 183.887 1.1278 1.58955 0
M  V30 1936 H 182.983 0.672188 3.04775 0
M  V30 1937 N 183.284 -1.43765 0.645699 0
M  V30 1938 C 184.247 -2.29163 -0.0409488 0
M  V30 1939 C 185.247 -1.41813 -0.757996 0
M  V30 1940 O 186.437 -1.63527 -0.600382 0
M  V30 1941 C 183.569 -3.23716 -1.06869 0
M  V30 1942 H 184.762 -2.91366 0.710345 0
M  V30 1943 H 182.315 -1.5092 0.406547 0
M  V30 1944 H 183.05 -2.66393 -1.84947 0
M  V30 1945 H 182.835 -3.88105 -0.558277 0
M  V30 1946 H 184.325 -3.87831 -1.54845 0
M  V30 1947 N 184.763 -0.387143 -1.52771 0
M  V30 1948 C 186.012 0.19697 -2.00736 0
M  V30 1949 C 186.325 1.48082 -1.27793 0
M  V30 1950 O 187.531 2.14485 -1.66458 0
M  V30 1951 C 185.987 0.401568 -3.57653 0
M  V30 1952 C 185.595 -0.868907 -4.39493 0
M  V30 1953 C 187.339 0.942164 -4.13912 0
M  V30 1954 C 185.246 -0.632705 -5.88006 0
M  V30 1955 H 184.176 0.0773827 -0.750019 0
M  V30 1956 H 186.827 -0.50921 -1.76293 0
M  V30 1957 H 185.209 1.16954 -3.78335 0
M  V30 1958 H 186.383 -1.64133 -4.30577 0
M  V30 1959 H 184.698 -1.33429 -3.94443 0
M  V30 1960 H 187.295 1.13455 -5.22525 0
M  V30 1961 H 187.638 1.9106 -3.69867 0
M  V30 1962 H 188.171 0.233814 -3.97112 0
M  V30 1963 H 184.91 -1.57208 -6.36369 0
M  V30 1964 H 184.43 0.100825 -5.99715 0
M  V30 1965 H 186.109 -0.26642 -6.46451 0
M  V30 1966 N 186.241 1.57166 -0.116904 0
M  V30 1967 C 187.466 1.999 0.55271 0
M  V30 1968 C 187.891 0.996039 1.59564 0
M  V30 1969 O 187.249 -0.032556 1.81271 0
M  V30 1970 C 187.297 3.4152 1.15742 0
M  V30 1971 O 186.401 3.44106 2.27299 0
M  V30 1972 H 185.742 0.649447 0.138258 0
M  V30 1973 H 188.272 2.03573 -0.204759 0
M  V30 1974 H 188.282 3.79684 1.49346 0
M  V30 1975 H 186.957 4.14034 0.393493 0
M  V30 1976 H 185.534 3.17759 1.9515 0
M  V30 1977 N 187.719 -0.156864 1.56817 0
M  V30 1978 C 188.649 -1.19589 2.00551 0
M  V30 1979 C 189.63 -1.4536 0.883426 0
M  V30 1980 O 190.815 -1.56449 1.15054 0
M  V30 1981 C 187.945 -2.53143 2.37773 0
M  V30 1982 C 186.899 -2.41913 3.53075 0
M  V30 1983 C 186.225 -3.80088 3.76081 0
M  V30 1984 C 187.525 -1.91157 4.86062 0
M  V30 1985 H 189.219 -0.832293 2.87599 0
M  V30 1986 H 186.765 -0.398918 1.38364 0
M  V30 1987 H 188.718 -3.26047 2.66967 0
M  V30 1988 H 187.442 -2.91319 1.4765 0
M  V30 1989 H 186.101 -1.71462 3.24031 0
M  V30 1990 H 185.749 -4.15683 2.83225 0
M  V30 1991 H 185.449 -3.73439 4.53671 0
M  V30 1992 H 186.973 -4.54556 4.0769 0
M  V30 1993 H 188.387 -2.53846 5.14038 0
M  V30 1994 H 186.784 -1.95422 5.67389 0
M  V30 1995 H 187.854 -0.866673 4.77092 0
M  V30 1996 N 189.197 -1.51736 -0.425897 0
M  V30 1997 C 190.16 -1.73271 -1.50032 0
M  V30 1998 C 191.16 -0.602639 -1.4908 0
M  V30 1999 O 192.35 -0.87033 -1.509 0
M  V30 2000 C 189.482 -1.79969 -2.89523 0
M  V30 2001 H 190.675 -2.69172 -1.32237 0
M  V30 2002 H 188.228 -1.41899 -0.65532 0
M  V30 2003 H 188.963 -0.859241 -3.1271 0
M  V30 2004 H 188.748 -2.62109 -2.91619 0
M  V30 2005 H 190.238 -1.9843 -3.67444 0
M  V30 2006 N 190.675 0.682077 -1.42076 0
M  V30 2007 C 192.086 1.26246 -1.37546 0
M  V30 2008 C 192.437 1.96092 -0.0651481 0
M  V30 2009 O 191.562 1.99587 0.836297 0
M  V30 2010 C 192.157 2.29594 -2.49143 0
M  V30 2011 C 190.716 2.83175 -2.47969 0
M  V30 2012 C 189.863 1.57395 -2.28303 0
M  V30 2013 H 192.814 0.475937 -1.51395 0
M  V30 2014 H 192.835 3.11175 -2.18976 0
M  V30 2015 H 192.347 1.78729 -3.44496 0
M  V30 2016 H 190.448 3.3818 -1.56413 0
M  V30 2017 H 190.561 3.32687 -3.44755 0
M  V30 2018 H 188.925 1.83699 -1.76428 0
M  V30 2019 H 189.708 1.08507 -3.25701 0
M  V30 2020 N 192.153 1.28127 0.917671 0
M  V30 2021 C 193.1 1.11717 2.0196 0
M  V30 2022 C 194.07 0.0153929 1.66093 0
M  V30 2023 O 195.255 0.179596 1.89953 0
M  V30 2024 C 192.395 0.780927 3.36148 0
M  V30 2025 C 191.508 1.96135 3.84909 0
M  V30 2026 C 190.643 1.56609 5.0759 0
M  V30 2027 C 189.682 2.71339 5.48673 0
M  V30 2028 N 188.819 2.32332 6.62545 0
M  V30 2029 H 193.659 2.06003 2.15329 0
M  V30 2030 H 191.196 1.02535 1.05475 0
M  V30 2031 H 193.154 0.56675 4.13333 0
M  V30 2032 H 191.784 -0.124998 3.22558 0
M  V30 2033 H 190.836 2.28777 3.03916 0
M  V30 2034 H 192.148 2.82165 4.1132 0
M  V30 2035 H 191.302 1.31374 5.92305 0
M  V30 2036 H 190.041 0.677014 4.82978 0
M  V30 2037 H 189.046 2.97276 4.62501 0
M  V30 2038 H 190.271 3.60882 5.75274 0
M  V30 2039 H 188.217 1.45889 6.39572 0
M  V30 2040 H 188.134 3.11899 6.88662 0
M  V30 2041 H 189.402 2.10371 7.50576 0
M  V30 2042 N 193.631 -1.12557 1.10312 0
M  V30 2043 C 194.594 -2.16434 0.75424 0
M  V30 2044 C 195.594 -1.59278 -0.220685 0
M  V30 2045 O 196.784 -1.742 0.00230591 0
M  V30 2046 C 193.916 -3.40699 0.116987 0
M  V30 2047 H 195.109 -2.48811 1.67431 0
M  V30 2048 H 192.662 -1.27542 0.903475 0
M  V30 2049 H 193.397 -3.13921 -0.813877 0
M  V30 2050 H 193.182 -3.83459 0.818613 0
M  V30 2051 H 194.672 -4.17451 -0.111387 0
M  V30 2052 N 195.109 -0.891671 -1.2995 0
M  V30 2053 C 196.041 -0.320695 -2.26945 0
M  V30 2054 C 197.054 0.528497 -1.53983 0
M  V30 2055 O 198.243 0.346959 -1.75096 0
M  V30 2056 C 195.343 0.562066 -3.34207 0
M  V30 2057 C 194.516 -0.259576 -4.36629 0
M  V30 2058 C 193.575 0.554739 -5.23268 0
M  V30 2059 O 192.601 -0.0249311 -5.69195 0
M  V30 2060 N 193.803 1.8625 -5.4981 0
M  V30 2061 H 196.568 -1.15432 -2.76578 0
M  V30 2062 H 194.129 -0.755336 -1.432 0
M  V30 2063 H 196.121 1.11304 -3.89093 0
M  V30 2064 H 194.691 1.29637 -2.84452 0
M  V30 2065 H 193.911 -0.991986 -3.81514 0
M  V30 2066 H 195.199 -0.822564 -5.02107 0
M  V30 2067 H 194.597 2.35628 -5.14292 0
M  V30 2068 H 193.154 2.36078 -6.07545 0
M  V30 2069 N 196.587 1.43421 -0.653314 0
M  V30 2070 C 197.836 2.01032 -0.164076 0
M  V30 2071 C 198.149 1.52147 1.22926 0
M  V30 2072 O 199.355 2.02031 1.81371 0
M  V30 2073 C 197.811 3.59082 -0.24252 0
M  V30 2074 C 197.419 4.1696 -1.63855 0
M  V30 2075 C 199.163 4.24079 0.18911 0
M  V30 2076 C 197.07 5.67304 -1.67092 0
M  V30 2077 H 196 0.751798 -0.0575769 0
M  V30 2078 H 198.651 1.6439 -0.815362 0
M  V30 2079 H 197.033 3.93125 0.476276 0
M  V30 2080 H 198.207 3.94416 -2.38271 0
M  V30 2081 H 196.522 3.64335 -2.01616 0
M  V30 2082 H 199.119 5.34381 0.184775 0
M  V30 2083 H 199.462 3.98005 1.22056 0
M  V30 2084 H 199.995 3.94918 -0.477938 0
M  V30 2085 H 196.734 5.98145 -2.68146 0
M  V30 2086 H 196.254 5.91904 -0.970014 0
M  V30 2087 H 197.933 6.31344 -1.4147 0
M  V30 2088 N 198.065 0.39524 1.52563 0
M  V30 2089 C 199.012 -0.437036 2.26624 0
M  V30 2090 C 199.982 -1.05281 1.28472 0
M  V30 2091 O 201.167 -1.07971 1.57311 0
M  V30 2092 C 198.307 -1.55524 3.08069 0
M  V30 2093 C 197.42 -0.961745 4.21158 0
M  V30 2094 C 196.555 -2.05149 4.89987 0
M  V30 2095 C 195.594 -1.4342 5.95061 0
M  V30 2096 N 194.731 -2.46351 6.57462 0
M  V30 2097 H 199.571 0.200976 2.97322 0
M  V30 2098 H 197.108 0.110944 1.46681 0
M  V30 2099 H 199.066 -2.21437 3.53584 0
M  V30 2100 H 197.696 -2.16348 2.3957 0
M  V30 2101 H 196.748 -0.192048 3.79915 0
M  V30 2102 H 198.06 -0.470701 4.96574 0
M  V30 2103 H 197.214 -2.78819 5.38837 0
M  V30 2104 H 195.953 -2.57615 4.14109 0
M  V30 2105 H 194.958 -0.682774 5.45544 0
M  V30 2106 H 196.183 -0.917416 6.72875 0
M  V30 2107 H 194.129 -2.97975 5.8442 0
M  V30 2108 H 194.046 -2.02019 7.28508 0
M  V30 2109 H 195.314 -3.19633 7.10954 0
M  V30 2110 N 199.544 -1.57102 0.125237 0
M  V30 2111 C 200.454 -2.19191 -0.8362 0
M  V30 2112 C 201.47 -1.16985 -1.28805 0
M  V30 2113 O 202.646 -1.49479 -1.34974 0
M  V30 2114 C 199.711 -2.78407 -2.06617 0
M  V30 2115 C 198.772 -3.9567 -1.66565 0
M  V30 2116 C 198.005 -4.52052 -2.83698 0
M  V30 2117 O 198.228 -4.07326 -3.99302 0
M  V30 2118 O 197.162 -5.42645 -2.60423 0
M  V30 2119 H 200.988 -3.01816 -0.337776 0
M  V30 2120 H 198.573 -1.4906 -0.100695 0
M  V30 2121 H 200.455 -3.16129 -2.7864 0
M  V30 2122 H 199.13 -1.9881 -2.55453 0
M  V30 2123 H 198.037 -3.62705 -0.916296 0
M  V30 2124 H 199.37 -4.76722 -1.22464 0
M  V30 2125 N 201.022 0.148545 -1.56898 0
M  V30 2126 C 202.247 0.880385 -1.87787 0
M  V30 2127 C 202.672 1.74018 -0.714093 0
M  V30 2128 O 202.03 1.78153 0.336343 0
M  V30 2129 C 202.078 1.71422 -3.17249 0
M  V30 2130 O 201.182 2.8183 -3.01074 0
M  V30 2131 H 200.523 0.245301 -0.617028 0
M  V30 2132 H 203.053 0.139826 -2.04122 0
M  V30 2133 H 203.063 2.10954 -3.49231 0
M  V30 2134 H 201.738 1.08284 -4.01556 0
M  V30 2135 H 200.315 2.45715 -2.80497 0
M  V30 2136 N 202.5 1.5196 0.417844 0
M  V30 2137 C 203.43 1.77634 1.51554 0
M  V30 2138 C 204.411 0.626918 1.58126 0
M  V30 2139 O 205.596 0.871632 1.7354 0
M  V30 2140 C 202.726 1.91911 2.8946 0
M  V30 2141 C 201.68 3.07463 2.97743 0
M  V30 2142 C 201.006 3.06951 4.37819 0
M  V30 2143 C 202.306 4.47082 2.70027 0
M  V30 2144 H 204 2.6955 1.3032 0
M  V30 2145 H 201.546 1.29706 0.625492 0
M  V30 2146 H 203.499 2.08455 3.6623 0
M  V30 2147 H 202.223 0.966598 3.11969 0
M  V30 2148 H 200.882 2.90656 2.23416 0
M  V30 2149 H 200.53 2.09438 4.57323 0
M  V30 2150 H 200.23 3.84556 4.44286 0
M  V30 2151 H 201.754 3.25613 5.16535 0
M  V30 2152 H 203.168 4.6414 3.36522 0
M  V30 2153 H 201.565 5.2654 2.87881 0
M  V30 2154 H 202.635 4.55777 1.65514 0
M  V30 2155 N 203.978 -0.674533 1.42435 0
M  V30 2156 C 205.394 -0.98769 1.25367 0
M  V30 2157 C 205.594 -2.00879 0.158044 0
M  V30 2158 O 204.65 -2.48075 -0.470633 0
M  V30 2159 C 205.963 -1.49224 2.6106 0
M  V30 2160 C 207.511 -1.61 2.68417 0
M  V30 2161 C 207.986 -2.14852 4.04478 0
M  V30 2162 N 209.477 -2.22185 4.06434 0
M  V30 2163 C 210.212 -2.64928 5.08528 0
M  V30 2164 N 209.708 -3.07121 6.21006 0
M  V30 2165 N 211.501 -2.64679 4.95885 0
M  V30 2166 H 203.652 0.00152503 2.124 0
M  V30 2167 H 205.915 -0.0618434 0.945981 0
M  V30 2168 H 205.621 -0.816453 3.42092 0
M  V30 2169 H 205.495 -2.47094 2.84999 0
M  V30 2170 H 207.882 -2.27686 1.87732 0
M  V30 2171 H 207.963 -0.616195 2.48267 0
M  V30 2172 H 207.607 -1.48775 4.85622 0
M  V30 2173 H 207.537 -3.15024 4.2198 0
M  V30 2174 H 210.028 -1.92435 3.25234 0
M  V30 2175 H 210.341 -3.38423 6.94759 0
M  V30 2176 H 208.686 -3.04978 6.24511 0
M  V30 2177 H 211.877 -2.31078 4.07088 0
M  V30 2178 H 212.05 -2.9767 5.75584 0
M  V30 2179 N 205.456 -1.28612 -0.910864 0
M  V30 2180 C 206.419 -1.12803 -1.9952 0
M  V30 2181 C 207.419 -0.0668264 -1.60661 0
M  V30 2182 O 208.609 -0.312847 -1.71368 0
M  V30 2183 C 205.741 -0.72254 -3.33155 0
M  V30 2184 H 206.934 -2.09109 -2.14973 0
M  V30 2185 H 204.487 -1.11639 -1.09391 0
M  V30 2186 H 205.222 0.241152 -3.23402 0
M  V30 2187 H 205.007 -1.48916 -3.62721 0
M  V30 2188 H 206.497 -0.634666 -4.12749 0
M  V30 2189 N 206.934 1.1197 -1.10907 0
M  V30 2190 C 207.844 2.21433 -0.774896 0
M  V30 2191 C 208.86 1.72478 0.229657 0
M  V30 2192 O 210.036 2.01288 0.0672008 0
M  V30 2193 C 207.101 3.4602 -0.216986 0
M  V30 2194 C 206.162 4.09791 -1.27944 0
M  V30 2195 C 205.395 5.28431 -0.748055 0
M  V30 2196 O 205.618 5.68823 0.423833 0
M  V30 2197 O 204.552 5.82644 -1.51027 0
M  V30 2198 H 208.378 2.5242 -1.68873 0
M  V30 2199 H 205.963 1.20399 -0.884555 0
M  V30 2200 H 207.845 4.21304 0.090059 0
M  V30 2201 H 206.52 3.16698 0.669633 0
M  V30 2202 H 205.427 3.36265 -1.63941 0
M  V30 2203 H 206.76 4.4328 -2.13925 0
M  V30 2204 N 208.412 0.89855 1.29475 0
M  V30 2205 C 209.342 0.39201 2.30186 0
M  V30 2206 C 210.323 -0.532359 1.61555 0
M  V30 2207 O 211.508 -0.443331 1.89072 0
M  V30 2208 C 208.638 -0.382353 3.45189 0
M  V30 2209 C 207.592 0.451483 4.25612 0
M  V30 2210 C 206.918 -0.450307 5.328 0
M  V30 2211 C 208.218 1.70079 4.93832 0
M  V30 2212 H 209.912 1.23362 2.72804 0
M  V30 2213 H 207.458 0.594638 1.31149 0
M  V30 2214 H 209.411 -0.747451 4.14718 0
M  V30 2215 H 208.135 -1.25774 3.01411 0
M  V30 2216 H 206.794 0.798897 3.57789 0
M  V30 2217 H 206.442 -1.32379 4.85268 0
M  V30 2218 H 206.142 0.103902 5.87508 0
M  V30 2219 H 207.666 -0.811623 6.05182 0
M  V30 2220 H 209.08 1.40549 5.55805 0
M  V30 2221 H 207.477 2.19623 5.58467 0
M  V30 2222 H 208.547 2.43744 4.19186 0
M  V30 2223 N 209.89 -1.43072 0.660911 0
M  V30 2224 C 211.306 -1.56169 0.329173 0
M  V30 2225 C 211.506 -1.64317 -1.16629 0
M  V30 2226 O 210.562 -1.60245 -1.95135 0
M  V30 2227 C 211.875 -2.81873 1.04729 0
M  V30 2228 C 213.423 -2.95627 1.02828 0
M  V30 2229 C 213.898 -4.24174 1.72744 0
M  V30 2230 N 215.389 -4.31055 1.69545 0
M  V30 2231 C 216.124 -5.29304 2.20511 0
M  V30 2232 N 215.62 -6.33786 2.79799 0
M  V30 2233 N 217.413 -5.21008 2.10966 0
M  V30 2234 H 209.564 -1.36027 1.63127 0
M  V30 2235 H 211.827 -0.653823 0.686454 0
M  V30 2236 H 211.533 -2.81942 2.10242 0
M  V30 2237 H 211.407 -3.72338 0.603702 0
M  V30 2238 H 213.794 -2.95094 -0.0184742 0
M  V30 2239 H 213.875 -2.06431 1.51063 0
M  V30 2240 H 213.519 -4.25467 2.7738 0
M  V30 2241 H 213.449 -5.1228 1.2197 0
M  V30 2242 H 215.94 -3.56174 1.26288 0
M  V30 2243 H 216.253 -7.05086 3.16344 0
M  V30 2244 H 214.598 -6.34387 2.83863 0
M  V30 2245 H 217.789 -4.38301 1.64347 0
M  V30 2246 H 217.962 -5.97416 2.50993 0
M  V30 2247 N 211.368 -0.403325 -1.52352 0
M  V30 2248 C 212.614 0.174605 -2.02047 0
M  V30 2249 C 212.947 1.45282 -1.28867 0
M  V30 2250 O 212.222 1.90483 -0.393257 0
M  V30 2251 C 212.505 0.428238 -3.57545 0
M  V30 2252 C 212.358 -0.866248 -4.4138 0
M  V30 2253 C 213.677 1.21287 -4.23057 0
M  V30 2254 H 210.796 0.0619851 -0.734389 0
M  V30 2255 H 213.438 -0.53565 -1.82293 0
M  V30 2256 H 211.588 1.03327 -3.74507 0
M  V30 2257 H 213.26 -1.50265 -4.3614 0
M  V30 2258 H 211.503 -1.47851 -4.07827 0
M  V30 2259 H 212.174 -0.643249 -5.48239 0
M  V30 2260 H 214.65 0.700703 -4.10158 0
M  V30 2261 H 213.526 1.35909 -5.31808 0
M  V30 2262 H 213.787 2.23193 -3.81625 0
M  V30 2263 N 212.846 1.57033 -0.133567 0
M  V30 2264 C 214.074 2.00044 0.528195 0
M  V30 2265 C 214.489 1.01349 1.59291 0
M  V30 2266 O 213.846 0.00848369 1.82498 0
M  V30 2267 C 213.897 3.43018 1.1411 0
M  V30 2268 O 213.618 4.37939 0.11892 0
M  V30 2269 C 215.119 4.01237 1.88477 0
M  V30 2270 H 212.339 0.656517 0.138661 0
M  V30 2271 H 214.883 2.03267 -0.224196 0
M  V30 2272 H 213.038 3.40688 1.84418 0
M  V30 2273 H 213.452 5.21436 0.56613 0
M  V30 2274 H 214.926 5.03314 2.26669 0
M  V30 2275 H 215.403 3.41193 2.76558 0
M  V30 2276 H 216.009 4.07156 1.22898 0
M  V30 2277 N 214.325 -0.140222 1.56975 0
M  V30 2278 C 215.235 -1.19223 2.02047 0
M  V30 2279 C 216.251 -1.46612 0.937062 0
M  V30 2280 O 217.427 -1.58148 1.24704 0
M  V30 2281 C 214.492 -2.50414 2.39778 0
M  V30 2282 C 213.553 -2.30612 3.621 0
M  V30 2283 C 212.786 -3.55547 3.98023 0
M  V30 2284 O 213.009 -4.62004 3.34528 0
M  V30 2285 O 211.943 -3.47808 4.91237 0
M  V30 2286 H 215.769 -0.839559 2.91865 0
M  V30 2287 H 213.354 -0.349453 1.45256 0
M  V30 2288 H 215.236 -3.27747 2.64877 0
M  V30 2289 H 213.911 -2.85198 1.53114 0
M  V30 2290 H 212.818 -1.51207 3.4218 0
M  V30 2291 H 214.151 -2.00741 4.49404 0
M  V30 2292 N 215.803 -1.52179 -0.40978 0
M  V30 2293 C 217.219 -1.40968 -0.74835 0
M  V30 2294 C 217.419 -0.513657 -1.94843 0
M  V30 2295 O 216.475 0.0208026 -2.52491 0
M  V30 2296 C 217.788 -2.83483 -1.0029 0
M  V30 2297 C 219.336 -2.92821 -1.10565 0
M  V30 2298 C 219.811 -4.36303 -1.39296 0
M  V30 2299 N 221.302 -4.39535 -1.46162 0
M  V30 2300 C 222.037 -5.47614 -1.70018 0
M  V30 2301 N 221.533 -6.65812 -1.91483 0
M  V30 2302 N 223.326 -5.35129 -1.72027 0
M  V30 2303 H 215.477 -2.0897 0.380186 0
M  V30 2304 H 217.74 -0.94185 0.107805 0
M  V30 2305 H 217.446 -3.51168 -0.193461 0
M  V30 2306 H 217.32 -3.24487 -1.92323 0
M  V30 2307 H 219.707 -2.25318 -1.90568 0
M  V30 2308 H 219.788 -2.55276 -0.16369 0
M  V30 2309 H 219.432 -5.04366 -0.598109 0
M  V30 2310 H 219.362 -4.71385 -2.34743 0
M  V30 2311 H 221.853 -3.54332 -1.31367 0
M  V30 2312 H 222.166 -7.43964 -2.09134 0
M  V30 2313 H 220.511 -6.68879 -1.88749 0
M  V30 2314 H 223.702 -4.41764 -1.54796 0
M  V30 2315 H 223.875 -6.19433 -1.9028 0
M  V30 2316 N 217.281 0.66697 -1.42791 0
M  V30 2317 C 218.697 0.981027 -1.25889 0
M  V30 2318 C 218.897 2.00793 -0.168695 0
M  V30 2319 O 217.953 2.48321 0.45747 0
M  V30 2320 C 219.266 1.47838 -2.61848 0
M  V30 2321 C 220.814 1.59575 -2.69267 0
M  V30 2322 C 221.289 2.12704 -4.05612 0
M  V30 2323 N 222.78 2.20026 -4.07606 0
M  V30 2324 C 223.515 2.62227 -5.09926 0
M  V30 2325 N 223.011 3.03824 -6.22626 0
M  V30 2326 N 224.804 2.62045 -4.97281 0
M  V30 2327 H 216.955 -0.0127891 -2.12396 0
M  V30 2328 H 219.218 0.0568258 -0.946295 0
M  V30 2329 H 218.924 0.798299 -3.4252 0
M  V30 2330 H 218.798 2.45579 -2.86305 0
M  V30 2331 H 221.185 2.26687 -1.88936 0
M  V30 2332 H 221.266 0.60302 -2.48591 0
M  V30 2333 H 220.91 1.46198 -4.86404 0
M  V30 2334 H 220.84 3.12782 -4.23645 0
M  V30 2335 H 223.331 1.90708 -3.2625 0
M  V30 2336 H 223.644 3.34734 -6.96544 0
M  V30 2337 H 221.989 3.01662 -6.26119 0
M  V30 2338 H 225.18 2.28916 -4.08308 0
M  V30 2339 H 225.353 2.94613 -5.77154 0
M  V30 2340 N 218.759 1.29093 0.90403 0
M  V30 2341 C 219.722 1.1386 1.98919 0
M  V30 2342 C 220.722 0.0753457 1.60623 0
M  V30 2343 O 221.912 0.321931 1.71199 0
M  V30 2344 C 219.044 0.740198 3.32767 0
M  V30 2345 H 220.237 2.10246 2.13861 0
M  V30 2346 H 217.79 1.12218 1.08797 0
M  V30 2347 H 218.525 -0.223997 3.23525 0
M  V30 2348 H 218.31 1.50838 3.61926 0
M  V30 2349 H 219.8 0.656546 4.12407 0
M  V30 2350 N 220.237 -1.11381 1.11499 0
M  V30 2351 C 221.147 -2.21019 0.786628 0
M  V30 2352 C 222.163 -1.72597 -0.220507 0
M  V30 2353 O 223.339 -2.01321 -0.0565251 0
M  V30 2354 C 220.404 -3.459 0.235333 0
M  V30 2355 C 219.465 -4.09107 1.30115 0
M  V30 2356 C 218.698 -5.28027 0.776068 0
M  V30 2357 O 218.921 -5.6904 -0.393661 0
M  V30 2358 O 217.855 -5.81835 1.54114 0
M  V30 2359 H 221.681 -2.51521 1.70209 0
M  V30 2360 H 219.266 -1.19928 0.890928 0
M  V30 2361 H 221.148 -4.21346 -0.067715 0
M  V30 2362 H 219.823 -3.17049 -0.652828 0
M  V30 2363 H 218.73 -3.35391 1.65722 0
M  V30 2364 H 220.063 -4.42139 2.16273 0
M  V30 2365 N 221.715 -0.905404 -1.28997 0
M  V30 2366 C 222.961 -0.535039 -1.95615 0
M  V30 2367 C 223.294 0.917404 -1.71165 0
M  V30 2368 O 222.569 1.65123 -1.02785 0
M  V30 2369 C 222.852 -0.834918 -3.50287 0
M  V30 2370 C 222.705 -2.33948 -3.84172 0
M  V30 2371 C 224.024 -0.325318 -4.38896 0
M  V30 2372 H 221.143 -0.195861 -0.710498 0
M  V30 2373 H 223.785 -1.13313 -1.52513 0
M  V30 2374 H 221.935 -0.325904 -3.87131 0
M  V30 2375 H 223.607 -2.91847 -3.57243 0
M  V30 2376 H 221.85 -2.79789 -3.31513 0
M  V30 2377 H 222.521 -2.49987 -4.92149 0
M  V30 2378 H 224.997 -0.761256 -4.09077 0
M  V30 2379 H 223.873 -0.564295 -5.45992 0
M  V30 2380 H 224.134 0.774144 -4.35269 0
M  V30 2381 N 223.193 1.4272 -0.668489 0
M  V30 2382 C 224.604 1.84793 -0.266151 0
M  V30 2383 C 224.955 1.55959 1.19043 0
M  V30 2384 O 224.08 1.01622 1.91055 0
M  V30 2385 C 224.675 3.35436 -0.476271 0
M  V30 2386 C 223.234 3.76182 -0.128113 0
M  V30 2387 C 222.381 2.66344 -0.771777 0
M  V30 2388 H 225.332 1.32656 -0.871098 0
M  V30 2389 H 225.353 3.79515 0.273561 0
M  V30 2390 H 224.865 3.5639 -1.53647 0
M  V30 2391 H 222.966 3.60836 0.928891 0
M  V30 2392 H 223.079 4.75766 -0.564231 0
M  V30 2393 H 221.443 2.53885 -0.203652 0
M  V30 2394 H 222.226 2.90123 -1.83531 0
M  V30 2395 N 224.671 0.411399 1.52136 0
M  V30 2396 C 225.899 -0.163076 2.06256 0
M  V30 2397 C 226.314 -1.3867 1.28125 0
M  V30 2398 O 225.671 -1.79423 0.333721 0
M  V30 2399 C 225.722 -0.511252 3.57867 0
M  V30 2400 O 225.443 0.66378 4.33042 0
M  V30 2401 C 226.944 -1.13921 4.28412 0
M  V30 2402 H 224.164 -0.0193897 0.67072 0
M  V30 2403 H 226.708 0.583007 1.96013 0
M  V30 2404 H 224.863 -1.20723 3.6811 0
M  V30 2405 H 225.277 0.372601 5.23175 0
M  V30 2406 H 226.751 -1.33302 5.35663 0
M  V30 2407 H 227.228 -2.11296 3.85033 0
M  V30 2408 H 227.834 -0.483373 4.22544 0
M  V30 2409 N 226.149 -1.5696 0.141893 0
M  V30 2410 C 227.112 -2.15316 -0.785587 0
M  V30 2411 C 228.112 -1.09366 -1.1788 0
M  V30 2412 O 229.302 -1.35031 -1.10056 0
M  V30 2413 C 226.434 -2.71211 -2.06537 0
M  V30 2414 H 227.627 -2.98608 -0.278041 0
M  V30 2415 H 225.18 -1.5593 -0.107519 0
M  V30 2416 H 225.915 -1.91571 -2.6167 0
M  V30 2417 H 225.7 -3.4872 -1.79268 0
M  V30 2418 H 227.19 -3.16189 -2.72789 0
M  V30 2419 N 227.627 0.131896 -1.57047 0
M  V30 2420 C 228.577 1.1679 -1.95816 0
M  V30 2421 C 229.561 1.37756 -0.831393 0
M  V30 2422 O 230.753 1.39065 -1.09499 0
M  V30 2423 C 227.882 2.49778 -2.35512 0
M  V30 2424 C 226.968 2.32342 -3.54793 0
M  V30 2425 N 227.359 1.8469 -4.70875 0
M  V30 2426 C 225.657 2.63043 -3.60173 0
M  V30 2427 C 226.358 1.80656 -5.52936 0
M  V30 2428 N 225.334 2.24528 -4.95064 0
M  V30 2429 H 229.136 0.791818 -2.83033 0
M  V30 2430 H 226.65 0.339791 -1.58805 0
M  V30 2431 H 228.647 3.24692 -2.61498 0
M  V30 2432 H 227.307 2.88156 -1.49654 0
M  V30 2433 H 228.318 1.54429 -4.9434 0
M  V30 2434 H 224.995 3.05193 -2.84892 0
M  V30 2435 H 226.385 1.45178 -6.56028 0
M  V30 2436 N 229.106 1.52395 0.401703 0
M  V30 2437 C 230.517 1.58899 0.980202 0
M  V30 2438 C 230.868 0.434032 1.91339 0
M  V30 2439 O 229.993 -0.444619 2.11783 0
M  V30 2440 C 230.588 2.87994 1.78451 0
M  V30 2441 C 229.147 2.96953 2.31292 0
M  V30 2442 C 228.294 2.53903 1.11483 0
M  V30 2443 H 231.245 1.57657 0.18168 0
M  V30 2444 H 231.266 2.73765 2.64259 0
M  V30 2445 H 230.778 3.72035 1.10506 0
M  V30 2446 H 228.879 2.17422 3.02586 0
M  V30 2447 H 228.992 4.01344 2.61649 0
M  V30 2448 H 227.356 2.07925 1.47104 0
M  V30 2449 H 228.139 3.40326 0.450928 0
M  V30 2450 N 230.584 -0.659388 1.43143 0
M  V30 2451 C 231.809 -1.45221 1.48073 0
M  V30 2452 C 232.234 -1.87845 0.097995 0
M  V30 2453 O 231.592 -1.56985 -0.90694 0
M  V30 2454 C 231.64 -2.66748 2.42647 0
M  V30 2455 O 230.744 -3.65583 1.90848 0
M  V30 2456 H 230.085 -0.435669 0.501088 0
M  V30 2457 H 232.615 -0.807432 1.87994 0
M  V30 2458 H 232.625 -3.14637 2.59745 0
M  V30 2459 H 231.3 -2.35067 3.43098 0
M  V30 2460 H 229.877 -3.24693 1.83381 0
M  V30 2461 N 232.062 -1.29571 -0.897171 0
M  V30 2462 C 233.473 -1.15964 -1.46319 0
M  V30 2463 C 233.824 0.244267 -1.94674 0
M  V30 2464 O 232.949 1.13998 -1.83939 0
M  V30 2465 C 233.544 -2.09906 -2.65942 0
M  V30 2466 C 232.103 -2.00314 -3.18671 0
M  V30 2467 C 231.25 -2.00687 -1.91363 0
M  V30 2468 H 234.201 -1.42019 -0.708268 0
M  V30 2469 H 234.222 -1.67276 -3.41759 0
M  V30 2470 H 233.734 -3.12075 -2.30718 0
M  V30 2471 H 231.835 -1.01242 -3.58582 0
M  V30 2472 H 231.948 -2.88102 -3.82798 0
M  V30 2473 H 230.312 -1.45319 -2.09175 0
M  V30 2474 H 231.095 -3.04566 -1.58413 0
M  V30 2475 N 233.54 1.10788 -1.12088 0
M  V30 2476 C 234.765 1.87002 -0.896949 0
M  V30 2477 C 235.19 1.79933 0.548261 0
M  V30 2478 O 234.548 1.16662 1.38779 0
M  V30 2479 C 234.596 3.3349 -1.37174 0
M  V30 2480 O 233.7 4.08745 -0.547831 0
M  V30 2481 H 233.041 0.580397 -0.322545 0
M  V30 2482 H 235.571 1.39996 -1.49206 0
M  V30 2483 H 235.581 3.84339 -1.36922 0
M  V30 2484 H 234.256 3.37951 -2.42408 0
M  V30 2485 H 232.833 3.6776 -0.617034 0
M  V30 2486 N 235.018 0.912232 1.28515 0
M  V30 2487 C 236.429 0.591352 1.77087 0
M  V30 2488 C 236.78 -0.8933 1.74684 0
M  V30 2489 O 235.905 -1.69876 1.34056 0
M  V30 2490 C 236.5 1.06668 3.2157 0
M  V30 2491 C 235.059 0.79675 3.67871 0
M  V30 2492 C 234.206 1.23427 2.48316 0
M  V30 2493 H 237.157 1.09365 1.15 0
M  V30 2494 H 237.178 0.407455 3.78312 0
M  V30 2495 H 236.69 2.14726 3.23287 0
M  V30 2496 H 234.791 -0.270679 3.71616 0
M  V30 2497 H 234.904 1.40343 4.58084 0
M  V30 2498 H 233.268 0.653036 2.46186 0
M  V30 2499 H 234.051 2.32316 2.52753 0
M  V30 2500 N 236.496 -1.42363 0.676048 0
M  V30 2501 C 237.912 -1.55811 0.345718 0
M  V30 2502 C 238.112 -1.65544 -1.14879 0
M  V30 2503 O 237.168 -1.62306 -1.93424 0
M  V30 2504 C 238.481 -2.80746 1.07713 0
M  V30 2505 C 240.029 -2.9452 1.05958 0
M  V30 2506 C 240.504 -4.22318 1.77233 0
M  V30 2507 N 241.995 -4.29233 1.74108 0
M  V30 2508 C 242.73 -5.26935 2.26113 0
M  V30 2509 N 242.226 -6.30783 2.86505 0
M  V30 2510 N 244.019 -5.18741 2.1648 0
M  V30 2511 H 236.17 -1.34289 1.6456 0
M  V30 2512 H 238.433 -0.646506 0.69335 0
M  V30 2513 H 238.139 -2.79696 2.13221 0
M  V30 2514 H 238.013 -3.71676 0.64316 0
M  V30 2515 H 240.4 -2.95097 0.0128255 0
M  V30 2516 H 240.481 -2.04817 1.53244 0
M  V30 2517 H 240.125 -4.22502 2.81877 0
M  V30 2518 H 240.055 -5.10958 1.27396 0
M  V30 2519 H 242.546 -3.54814 1.30059 0
M  V30 2520 H 242.859 -7.01691 3.23805 0
M  V30 2521 H 241.204 -6.31341 2.90575 0
M  V30 2522 H 244.395 -4.36533 1.68987 0
M  V30 2523 H 244.568 -5.94721 2.57316 0
M  V30 2524 N 237.974 -0.419461 -1.51915 0
M  V30 2525 C 239.385 0.0477853 -1.86639 0
M  V30 2526 C 239.736 1.43531 -1.33766 0
M  V30 2527 O 238.861 2.05401 -0.68113 0
M  V30 2528 C 239.456 0.0934885 -3.38671 0
M  V30 2529 C 238.015 0.505097 -3.72996 0
M  V30 2530 C 237.162 -0.313792 -2.75519 0
M  V30 2531 H 240.113 -0.636088 -1.45395 0
M  V30 2532 H 240.134 0.906667 -3.6954 0
M  V30 2533 H 239.646 -0.916501 -3.77123 0
M  V30 2534 H 237.747 1.52135 -3.40126 0
M  V30 2535 H 237.86 0.242309 -4.78487 0
M  V30 2536 H 236.224 0.225363 -2.53701 0
M  V30 2537 H 237.007 -1.32232 -3.16812 0
M  V30 2538 N 239.452 1.56882 -0.150215 0
M  V30 2539 C 240.415 2.1573 0.774157 0
M  V30 2540 C 241.415 1.0999 1.17298 0
M  V30 2541 O 242.605 1.35613 1.09338 0
M  V30 2542 C 239.737 2.72302 2.05096 0
M  V30 2543 H 240.93 2.98752 0.262201 0
M  V30 2544 H 238.483 1.55985 0.099248 0
M  V30 2545 H 239.218 1.92956 2.6065 0
M  V30 2546 H 239.003 3.49665 1.77416 0
M  V30 2547 H 240.493 3.17632 2.71109 0
M  V30 2548 N 240.93 -0.123565 1.57115 0
M  V30 2549 C 242.178 -0.83051 1.84247 0
M  V30 2550 C 242.499 -1.80629 0.73471 0
M  V30 2551 O 241.769 -1.94403 -0.241688 0
M  V30 2552 H 240.349 -0.309694 0.679778 0
M  V30 2553 H 243.011 -0.111976 1.94578 0
M  V30 2554 H 242.107 -1.37852 2.80006 0
M  V30 2555 N 242.408 -1.52605 -0.393616 0
M  V30 2556 C 243.34 -1.73303 -1.49995 0
M  V30 2557 C 244.353 -0.613473 -1.50799 0
M  V30 2558 O 245.542 -0.889049 -1.54784 0
M  V30 2559 C 242.642 -1.77245 -2.88855 0
M  V30 2560 C 241.815 -3.06483 -3.12069 0
M  V30 2561 C 240.874 -3.02033 -4.30886 0
M  V30 2562 O 239.9 -3.75907 -4.27414 0
M  V30 2563 N 241.102 -2.20897 -5.36828 0
M  V30 2564 H 243.867 -2.68756 -1.32629 0
M  V30 2565 H 241.428 -1.51036 -0.583083 0
M  V30 2566 H 243.42 -1.7178 -3.66434 0
M  V30 2567 H 241.99 -0.891993 -2.99603 0
M  V30 2568 H 241.21 -3.25474 -2.22396 0
M  V30 2569 H 242.498 -3.91947 -3.2443 0
M  V30 2570 H 241.896 -1.60336 -5.42502 0
M  V30 2571 H 240.453 -2.21275 -6.13091 0
M  V30 2572 N 243.887 0.651787 -1.4349 0
M  V30 2573 C 245.134 1.41167 -1.45183 0
M  V30 2574 C 245.462 1.94349 -0.0766601 0
M  V30 2575 O 244.717 1.72804 0.918555 0
M  V30 2576 C 245.016 2.60914 -2.44251 0
M  V30 2577 C 244.682 2.26142 -3.9009 0
M  V30 2578 C 243.344 2.16371 -4.2981 0
M  V30 2579 C 245.696 1.98334 -4.81989 0
M  V30 2580 C 243.024 1.7695 -5.5938 0
M  V30 2581 C 245.376 1.6041 -6.11924 0
M  V30 2582 C 244.04 1.49166 -6.5062 0
M  V30 2583 H 243.31 0.516566 -0.531263 0
M  V30 2584 H 245.957 0.741099 -1.76579 0
M  V30 2585 H 244.262 3.3311 -2.06265 0
M  V30 2586 H 245.959 3.19127 -2.42815 0
M  V30 2587 H 242.549 2.34658 -3.58655 0
M  V30 2588 H 246.733 2.04803 -4.52072 0
M  V30 2589 H 241.989 1.66831 -5.88198 0
M  V30 2590 H 246.163 1.37925 -6.82605 0
M  V30 2591 H 243.79 1.1839 -7.50925 0
M  V30 2592 N 245.365 1.30045 0.890287 0
M  V30 2593 C 246.297 1.11786 2.00091 0
M  V30 2594 C 247.31 0.0626307 1.62679 0
M  V30 2595 O 248.499 0.308112 1.75821 0
M  V30 2596 C 245.599 0.681527 3.31977 0
M  V30 2597 C 244.772 1.81735 3.97858 0
M  V30 2598 C 243.831 1.37045 5.08041 0
M  V30 2599 O 242.857 2.07677 5.29961 0
M  V30 2600 N 244.059 0.246525 5.79976 0
M  V30 2601 H 246.824 2.07441 2.16306 0
M  V30 2602 H 244.385 1.2211 1.06305 0
M  V30 2603 H 246.377 0.365675 4.03045 0
M  V30 2604 H 244.947 -0.182828 3.12065 0
M  V30 2605 H 244.167 2.30159 3.20032 0
M  V30 2606 H 245.455 2.57865 4.38615 0
M  V30 2607 H 244.853 -0.34215 5.64664 0
M  V30 2608 H 243.41 -0.00990438 6.51799 0
M  V30 2609 N 246.843 -1.10192 1.12674 0
M  V30 2610 C 248.071 -1.85983 0.906527 0
M  V30 2611 C 248.486 -1.80783 -0.544333 0
M  V30 2612 O 247.843 -1.19834 -1.37645 0
M  V30 2613 C 247.894 -3.34281 1.37618 0
M  V30 2614 O 247.615 -3.39401 2.77017 0
M  V30 2615 C 249.116 -4.26938 1.19325 0
M  V30 2616 H 246.336 -0.587716 0.323775 0
M  V30 2617 H 248.88 -1.39284 1.49734 0
M  V30 2618 H 247.035 -3.78436 0.828539 0
M  V30 2619 H 247.449 -4.31838 2.97684 0
M  V30 2620 H 248.923 -5.29181 1.57071 0
M  V30 2621 H 249.4 -4.38995 0.134097 0
M  V30 2622 H 250.006 -3.8859 1.72852 0
M  V30 2623 N 248.321 -0.919034 -1.28029 0
M  V30 2624 C 249.251 -0.428581 -2.29533 0
M  V30 2625 C 250.232 0.50659 -1.62381 0
M  V30 2626 O 251.417 0.413195 -1.89753 0
M  V30 2627 C 248.547 0.327388 -3.45753 0
M  V30 2628 C 247.501 -0.519137 -4.2484 0
M  V30 2629 C 246.827 0.365486 -5.33449 0
M  V30 2630 C 248.127 -1.77914 -4.91064 0
M  V30 2631 H 249.821 -1.27687 -2.70807 0
M  V30 2632 H 247.367 -0.615428 -1.30186 0
M  V30 2633 H 249.32 0.681378 -4.15855 0
M  V30 2634 H 248.044 1.20963 -3.03374 0
M  V30 2635 H 246.703 -0.855717 -3.56473 0
M  V30 2636 H 246.351 1.24642 -4.87312 0
M  V30 2637 H 246.051 -0.197356 -5.87268 0
M  V30 2638 H 247.575 0.715241 -6.06396 0
M  V30 2639 H 248.989 -1.49374 -5.53498 0
M  V30 2640 H 247.386 -2.2848 -5.54903 0
M  V30 2641 H 248.456 -2.50382 -4.15255 0
M  V30 2642 N 249.799 1.42003 -0.683588 0
M  V30 2643 C 251.045 2.01712 -0.209825 0
M  V30 2644 C 251.378 1.53968 1.18353 0
M  V30 2645 O 250.653 0.745661 1.79639 0
M  V30 2646 C 250.936 3.59202 -0.254197 0
M  V30 2647 C 250.789 4.17102 -1.68363 0
M  V30 2648 C 252.108 4.38344 0.392709 0
M  V30 2649 H 249.227 0.732891 -0.0777189 0
M  V30 2650 H 251.869 1.68909 -0.87004 0
M  V30 2651 H 250.019 3.87278 0.307954 0
M  V30 2652 H 251.691 3.99946 -2.29871 0
M  V30 2653 H 249.934 3.72597 -2.22157 0
M  V30 2654 H 250.605 5.26249 -1.6663 0
M  V30 2655 H 253.081 4.16011 -0.0859162 0
M  V30 2656 H 251.957 5.47901 0.331063 0
M  V30 2657 H 252.218 4.16887 1.47164 0
M  V30 2658 N 251.277 0.427512 1.51691 0
M  V30 2659 C 252.523 -0.142439 2.02299 0
M  V30 2660 C 252.856 -1.43214 1.31162 0
M  V30 2661 O 252.131 -1.89833 0.423511 0
M  V30 2662 C 252.414 -0.371301 3.58181 0
M  V30 2663 C 252.267 0.936358 4.39946 0
M  V30 2664 C 253.586 -1.14542 4.24933 0
M  V30 2665 H 250.705 -0.0502937 0.735282 0
M  V30 2666 H 253.347 0.564584 1.81418 0
M  V30 2667 H 251.497 -0.973559 3.76104 0
M  V30 2668 H 253.169 1.57184 4.33694 0
M  V30 2669 H 251.412 1.5432 4.05423 0
M  V30 2670 H 252.083 0.730388 5.47147 0
M  V30 2671 H 254.559 -0.635362 4.11221 0
M  V30 2672 H 253.435 -1.27431 5.33903 0
M  V30 2673 H 253.696 -2.17093 3.85127 0
M  V30 2674 N 252.755 -1.56801 0.158532 0
M  V30 2675 C 254.003 -1.96102 -0.488712 0
M  V30 2676 C 254.324 -1.04498 -1.64636 0
M  V30 2677 O 253.594 -0.108783 -1.95598 0
M  V30 2678 H 252.174 -0.724102 -0.183535 0
M  V30 2679 H 254.836 -1.93457 0.236728 0
M  V30 2680 H 253.932 -3.00097 -0.857219 0
M  V30 2681 N 254.233 0.115231 -1.57178 0
M  V30 2682 C 255.479 0.82357 -1.85325 0
M  V30 2683 C 255.812 1.79349 -0.744814 0
M  V30 2684 O 255.087 1.92899 0.249024 0
M  V30 2685 C 255.37 1.57014 -3.24066 0
M  V30 2686 C 255.223 0.619565 -4.45513 0
M  V30 2687 C 256.542 2.52545 -3.60429 0
M  V30 2688 H 253.661 0.297948 -0.674089 0
M  V30 2689 H 256.303 0.0877138 -1.89797 0
M  V30 2690 H 254.453 2.19742 -3.20383 0
M  V30 2691 H 256.125 0.000837639 -4.613 0
M  V30 2692 H 254.368 -0.0686174 -4.33746 0
M  V30 2693 H 255.039 1.17866 -5.3927 0
M  V30 2694 H 257.515 1.9992 -3.64926 0
M  V30 2695 H 256.391 3.01811 -4.58477 0
M  V30 2696 H 256.652 3.35383 -2.88047 0
M  V30 2697 N 255.711 1.52812 0.385517 0
M  V30 2698 C 256.957 1.68275 1.13188 0
M  V30 2699 C 257.29 0.423179 1.89533 0
M  V30 2700 O 256.565 -0.579113 1.85679 0
M  V30 2701 C 256.848 2.92001 2.1073 0
M  V30 2702 C 256.701 4.28067 1.38125 0
M  V30 2703 C 258.02 3.11283 3.11113 0
M  V30 2704 H 255.139 0.612352 0.410115 0
M  V30 2705 H 257.781 1.85415 0.414869 0
M  V30 2706 H 255.931 2.77519 2.71874 0
M  V30 2707 H 257.603 4.54324 0.799187 0
M  V30 2708 H 255.846 4.28388 0.683092 0
M  V30 2709 H 256.517 5.10733 2.09417 0
M  V30 2710 H 258.993 3.2482 2.6006 0
M  V30 2711 H 257.869 3.99325 3.76605 0
M  V30 2712 H 258.13 2.25656 3.80173 0
M  V30 2713 N 257.189 -0.644168 1.43834 0
M  V30 2714 C 258.437 -1.40117 1.45642 0
M  V30 2715 C 258.758 -1.94814 0.0852413 0
M  V30 2716 O 258.028 -1.74988 -0.880688 0
M  V30 2717 H 256.608 -0.52005 0.536243 0
M  V30 2718 H 259.27 -0.7591 1.7951 0
M  V30 2719 H 258.366 -2.23902 2.17427 0
M  V30 2720 N 258.668 -1.30515 -0.883378 0
M  V30 2721 C 259.916 -1.19194 -1.63209 0
M  V30 2722 C 260.237 0.253205 -1.93349 0
M  V30 2723 O 259.507 1.17025 -1.57105 0
M  V30 2724 H 258.087 -0.438148 -0.605009 0
M  V30 2725 H 260.749 -1.63663 -1.05832 0
M  V30 2726 H 259.845 -1.75396 -2.58153 0
M  V30 2727 N 260.146 1.09593 -1.13257 0
M  V30 2728 C 261.076 2.18214 -0.830946 0
M  V30 2729 C 262.057 1.68812 0.208966 0
M  V30 2730 O 263.242 1.9408 0.0682666 0
M  V30 2731 C 260.372 3.46051 -0.294296 0
M  V30 2732 C 259.326 4.08778 -1.26826 0
M  V30 2733 C 258.652 5.31419 -0.591449 0
M  V30 2734 C 259.952 4.51476 -2.62615 0
M  V30 2735 H 261.646 2.43703 -1.73923 0
M  V30 2736 H 259.192 1.17128 -0.837675 0
M  V30 2737 H 261.145 4.2134 -0.0709606 0
M  V30 2738 H 259.869 3.20079 0.649366 0
M  V30 2739 H 258.528 3.35505 -1.47756 0
M  V30 2740 H 258.176 5.01727 0.357633 0
M  V30 2741 H 257.876 5.74341 -1.24123 0
M  V30 2742 H 259.4 6.09433 -0.377355 0
M  V30 2743 H 260.814 5.17999 -2.45663 0
M  V30 2744 H 259.211 5.05277 -3.23752 0
M  V30 2745 H 260.281 3.63962 -3.20406 0
M  V30 2746 N 261.624 0.925811 1.2754 0
M  V30 2747 C 262.554 0.440748 2.29303 0
M  V30 2748 C 263.535 -0.497971 1.62648 0
M  V30 2749 O 264.72 -0.403126 1.8997 0
M  V30 2750 C 261.85 -0.309048 3.45922 0
M  V30 2751 C 260.804 0.54166 4.24559 0
M  V30 2752 C 260.13 -0.337191 5.33636 0
M  V30 2753 C 261.43 1.80516 4.90114 0
M  V30 2754 H 263.124 1.29121 2.70126 0
M  V30 2755 H 260.67 0.622323 1.29858 0
M  V30 2756 H 262.623 -0.659315 4.1621 0
M  V30 2757 H 261.347 -1.19352 3.04011 0
M  V30 2758 H 260.006 0.874609 3.56014 0
M  V30 2759 H 259.654 -1.22056 4.87966 0
M  V30 2760 H 259.354 0.228497 5.87156 0
M  V30 2761 H 260.878 -0.683072 6.06767 0
M  V30 2762 H 262.292 1.52307 5.52698 0
M  V30 2763 H 260.689 2.3142 5.53683 0
M  V30 2764 H 261.759 2.52581 4.13921 0
M  V30 2765 N 263.102 -1.41638 0.69111 0
M  V30 2766 C 264.35 -2.00902 0.219758 0
M  V30 2767 C 264.671 -1.54994 -1.18329 0
M  V30 2768 O 263.941 -0.778628 -1.79762 0
M  V30 2769 H 262.521 -0.74289 0.0782558 0
M  V30 2770 H 265.183 -1.73327 0.891271 0
M  V30 2771 H 264.279 -3.11224 0.233708 0
M  V30 2772 N 264.58 -0.43555 -1.51462 0
M  V30 2773 C 265.805 0.132627 -2.06976 0
M  V30 2774 C 266.23 1.35848 -1.30104 0
M  V30 2775 O 265.588 1.78112 -0.338493 0
M  V30 2776 C 265.636 0.43523 -3.57964 0
M  V30 2777 O 264.74 1.52198 -3.83288 0
M  V30 2778 H 264.081 0.00265 -0.663995 0
M  V30 2779 H 266.611 -0.616369 -1.95095 0
M  V30 2780 H 266.621 0.686206 -4.02188 0
M  V30 2781 H 265.296 -0.460739 -4.1334 0
M  V30 2782 H 263.873 1.2611 -3.50928 0
M  V30 2783 N 266.058 1.56714 -0.166846 0
M  V30 2784 C 266.988 2.20754 0.760913 0
M  V30 2785 C 267.969 1.16178 1.24244 0
M  V30 2786 O 269.154 1.44592 1.29641 0
M  V30 2787 C 266.284 2.84478 1.99223 0
M  V30 2788 C 265.238 3.95053 1.64672 0
M  V30 2789 C 264.564 4.45805 2.95232 0
M  V30 2790 C 265.864 5.14865 0.878155 0
M  V30 2791 H 267.558 2.98537 0.22713 0
M  V30 2792 H 265.104 1.43596 0.107805 0
M  V30 2793 H 267.057 3.27951 2.64624 0
M  V30 2794 H 265.781 2.04056 2.55007 0
M  V30 2795 H 264.44 3.52228 1.01641 0
M  V30 2796 H 264.088 3.62181 3.49047 0
M  V30 2797 H 263.788 5.204 2.7287 0
M  V30 2798 H 265.312 4.91962 3.6167 0
M  V30 2799 H 266.726 5.55059 1.43466 0
M  V30 2800 H 265.123 5.95348 0.753738 0
M  V30 2801 H 266.193 4.84735 -0.126377 0
M  V30 2802 N 267.536 -0.106894 1.57237 0
M  V30 2803 C 268.782 -0.81373 1.85759 0
M  V30 2804 C 269.115 -1.78952 0.754315 0
M  V30 2805 O 268.39 -1.93029 -0.23879 0
M  V30 2806 C 268.673 -1.55293 3.24894 0
M  V30 2807 C 268.526 -0.595929 4.45835 0
M  V30 2808 C 269.845 -2.5063 3.61763 0
M  V30 2809 H 266.964 -0.294369 0.67566 0
M  V30 2810 H 269.606 -0.0776472 1.89841 0
M  V30 2811 H 267.756 -2.1804 3.21544 0
M  V30 2812 H 269.428 0.0236262 4.61294 0
M  V30 2813 H 267.671 0.0916191 4.33703 0
M  V30 2814 H 268.342 -1.15004 5.39887 0
M  V30 2815 H 270.818 -1.97982 3.65981 0
M  V30 2816 H 269.694 -2.99376 4.60071 0
M  V30 2817 H 269.955 -3.3385 2.89821 0
M  V30 2818 N 269.014 -1.53014 -0.377408 0
M  V30 2819 C 269.944 -1.81589 -1.46791 0
M  V30 2820 C 270.925 -0.668622 -1.56408 0
M  V30 2821 O 272.11 -0.917337 -1.71168 0
M  V30 2822 C 269.24 -1.99519 -2.8427 0
M  V30 2823 C 268.194 -3.15249 -2.89486 0
M  V30 2824 C 267.52 -3.18451 -4.29527 0
M  V30 2825 C 268.82 -4.54084 -2.58079 0
M  V30 2826 H 270.514 -2.7291 -1.23127 0
M  V30 2827 H 268.06 -1.31319 -0.590883 0
M  V30 2828 H 270.013 -2.18092 -3.60575 0
M  V30 2829 H 268.737 -1.04897 -3.09296 0
M  V30 2830 H 267.396 -2.96477 -2.15631 0
M  V30 2831 H 267.044 -2.2149 -4.5161 0
M  V30 2832 H 266.744 -3.962 -4.33934 0
M  V30 2833 H 268.268 -3.39193 -5.07721 0
M  V30 2834 H 269.682 -4.72899 -3.24098 0
M  V30 2835 H 268.079 -5.33987 -2.7382 0
M  V30 2836 H 269.149 -4.60006 -1.53372 0
M  V30 2837 N 270.492 0.636531 -1.44174 0
M  V30 2838 C 271.422 1.76003 -1.53444 0
M  V30 2839 C 272.403 1.65619 -0.387841 0
M  V30 2840 O 273.588 1.84461 -0.607257 0
M  V30 2841 C 270.718 3.14511 -1.4731 0
M  V30 2842 C 269.672 3.39677 -2.60391 0
M  V30 2843 C 268.998 4.78159 -2.39308 0
M  V30 2844 C 270.298 3.32772 -4.02567 0
M  V30 2845 H 271.992 1.68501 -2.47483 0
M  V30 2846 H 269.538 0.809237 -1.19111 0
M  V30 2847 H 271.491 3.92878 -1.52397 0
M  V30 2848 H 270.215 3.22783 -0.49785 0
M  V30 2849 H 268.874 2.63688 -2.54684 0
M  V30 2850 H 268.522 4.83128 -1.39988 0
M  V30 2851 H 268.222 4.95956 -3.15122 0
M  V30 2852 H 269.746 5.58762 -2.46205 0
M  V30 2853 H 271.16 4.01051 -4.09672 0
M  V30 2854 H 269.557 3.62104 -4.7854 0
M  V30 2855 H 270.627 2.30669 -4.2652 0
M  V30 2856 N 271.97 1.30982 0.876444 0
M  V30 2857 C 273.216 1.20474 1.63138 0
M  V30 2858 C 273.549 -0.238096 1.92735 0
M  V30 2859 O 272.824 -1.1692 1.55435 0
M  V30 2860 C 273.107 2.04244 2.96574 0
M  V30 2861 C 272.96 3.56793 2.73896 0
M  V30 2862 C 274.279 1.88684 3.97601 0
M  V30 2863 H 271.398 0.439001 0.591985 0
M  V30 2864 H 274.04 1.60704 1.01361 0
M  V30 2865 H 272.19 1.70063 3.493 0
M  V30 2866 H 273.862 4.01077 2.27892 0
M  V30 2867 H 272.105 3.80548 2.08245 0
M  V30 2868 H 272.776 4.10706 3.68815 0
M  V30 2869 H 275.252 2.18584 3.54062 0
M  V30 2870 H 274.128 2.4961 4.88862 0
M  V30 2871 H 274.389 0.848343 4.33884 0
M  V30 2872 N 273.449 -1.08991 1.13837 0
M  V30 2873 C 274.695 -1.81699 0.91417 0
M  V30 2874 C 275.05 -1.84264 -0.553594 0
M  V30 2875 O 274.343 -1.30313 -1.4046 0
M  V30 2876 C 274.537 -3.27042 1.44147 0
M  V30 2877 C 274.366 -3.38637 2.95897 0
M  V30 2878 C 273.136 -3.50177 3.64286 0
M  V30 2879 C 275.334 -3.30791 3.93804 0
M  V30 2880 N 273.316 -3.50501 5.04006 0
M  V30 2881 C 274.687 -3.38037 5.19741 0
M  V30 2882 C 276.742 -3.14488 3.86007 0
M  V30 2883 C 275.445 -3.30659 6.38793 0
M  V30 2884 C 277.471 -3.08438 5.04599 0
M  V30 2885 C 276.833 -3.1628 6.29402 0
M  V30 2886 H 272.932 -0.678967 0.387979 0
M  V30 2887 H 275.516 -1.30224 1.4474 0
M  V30 2888 H 273.687 -3.76976 0.935091 0
M  V30 2889 H 275.419 -3.87785 1.1578 0
M  V30 2890 H 272.174 -3.53815 3.1482 0
M  V30 2891 H 272.598 -3.54236 5.76928 0
M  V30 2892 H 277.24 -3.07291 2.90399 0
M  V30 2893 H 274.958 -3.36618 7.34652 0
M  V30 2894 H 278.544 -2.96952 5.0031 0
M  V30 2895 H 277.424 -3.1162 7.19627 0
M  V30 2896 N 274.927 -0.932562 -1.27047 0
M  V30 2897 C 276.173 -0.576412 -1.94436 0
M  V30 2898 C 276.506 0.880891 -1.73072 0
M  V30 2899 O 275.781 1.62905 -1.06264 0
M  V30 2900 C 276.064 -0.909031 -3.48437 0
M  V30 2901 C 275.917 -2.42044 -3.79123 0
M  V30 2902 C 277.236 -0.418341 -4.38107 0
M  V30 2903 H 274.355 -0.210888 -0.706184 0
M  V30 2904 H 276.997 -1.16522 -1.50075 0
M  V30 2905 H 275.147 -0.407947 -3.86352 0
M  V30 2906 H 276.819 -2.99359 -3.50973 0
M  V30 2907 H 275.062 -2.86758 -3.25503 0
M  V30 2908 H 275.733 -2.6037 -4.86736 0
M  V30 2909 H 278.209 -0.847856 -4.0737 0
M  V30 2910 H 277.085 -0.679981 -5.44672 0
M  V30 2911 H 277.346 0.681642 -4.36814 0
M  V30 2912 N 276.405 1.4127 -0.698611 0
M  V30 2913 C 277.335 2.33447 -0.049629 0
M  V30 2914 C 278.316 1.51982 0.763898 0
M  V30 2915 O 279.501 1.80509 0.716257 0
M  V30 2916 C 276.631 3.35828 0.885267 0
M  V30 2917 C 275.585 4.27627 0.178613 0
M  V30 2918 C 274.911 5.20406 1.22807 0
M  V30 2919 C 276.211 5.13459 -0.956933 0
M  V30 2920 H 277.905 2.87966 -0.81951 0
M  V30 2921 H 275.451 1.38461 -0.395538 0
M  V30 2922 H 277.404 3.9924 1.34854 0
M  V30 2923 H 276.128 2.79666 1.68685 0
M  V30 2924 H 274.787 3.65643 -0.26466 0
M  V30 2925 H 274.435 4.60558 2.02226 0
M  V30 2926 H 274.135 5.82661 0.760239 0
M  V30 2927 H 275.659 5.86695 1.69179 0
M  V30 2928 H 277.073 5.70421 -0.573805 0
M  V30 2929 H 275.47 5.8467 -1.35205 0
M  V30 2930 H 276.54 4.50443 -1.79524 0
M  V30 2931 N 277.883 0.443576 1.51229 0
M  V30 2932 C 278.846 -0.353132 2.26463 0
M  V30 2933 C 279.846 -0.944338 1.3015 0
M  V30 2934 O 281.036 -0.817813 1.5381 0
M  V30 2935 C 278.168 -1.50023 3.06114 0
M  V30 2936 H 279.361 0.3063 2.98332 0
M  V30 2937 H 276.914 0.196902 1.55055 0
M  V30 2938 H 277.649 -2.19553 2.38677 0
M  V30 2939 H 277.434 -1.08241 3.76864 0
M  V30 2940 H 278.924 -2.06296 3.63087 0
M  V30 2941 N 279.361 -1.56624 0.175154 0
M  V30 2942 C 280.607 -1.9729 -0.469506 0
M  V30 2943 C 280.94 -1.06128 -1.62636 0
M  V30 2944 O 280.215 -0.109183 -1.94193 0
M  V30 2945 C 280.498 -3.47375 -0.948804 0
M  V30 2946 C 280.351 -4.49317 0.208491 0
M  V30 2947 C 281.67 -4.00652 -1.82116 0
M  V30 2948 H 278.789 -0.717317 -0.16919 0
M  V30 2949 H 281.431 -1.88184 0.262062 0
M  V30 2950 H 279.581 -3.55267 -1.57219 0
M  V30 2951 H 281.253 -4.53482 0.845682 0
M  V30 2952 H 279.496 -4.25121 0.863395 0
M  V30 2953 H 280.167 -5.51741 -0.169059 0
M  V30 2954 H 282.643 -3.95416 -1.2956 0
M  V30 2955 H 281.519 -5.06075 -2.12554 0
M  V30 2956 H 281.78 -3.44699 -2.7683 0
M  V30 2957 N 280.839 0.0985539 -1.57292 0
M  V30 2958 C 282.088 0.801358 -1.85098 0
M  V30 2959 C 282.401 1.80066 -0.763902 0
M  V30 2960 O 283.607 2.55112 -0.928981 0
M  V30 2961 C 282.063 1.47599 -3.28242 0
M  V30 2962 C 281.671 0.516624 -4.45011 0
M  V30 2963 C 283.415 2.16272 -3.65276 0
M  V30 2964 C 281.322 1.19564 -5.79188 0
M  V30 2965 H 280.252 0.303022 -0.69043 0
M  V30 2966 H 282.903 0.0542623 -1.8342 0
M  V30 2967 H 281.285 2.27042 -3.2445 0
M  V30 2968 H 282.459 -0.246065 -4.60143 0
M  V30 2969 H 280.774 -0.064227 -4.1635 0
M  V30 2970 H 283.371 2.67802 -4.62803 0
M  V30 2971 H 283.714 2.95009 -2.93727 0
M  V30 2972 H 284.247 1.43693 -3.70941 0
M  V30 2973 H 280.986 0.449157 -6.53959 0
M  V30 2974 H 280.506 1.92984 -5.67906 0
M  V30 2975 H 282.185 1.7231 -6.23633 0
M  V30 2976 N 282.317 1.53212 0.369288 0
M  V30 2977 C 283.557 1.70915 1.12105 0
M  V30 2978 C 283.921 0.449444 1.86665 0
M  V30 2979 O 285.122 0.503105 2.6405 0
M  V30 2980 C 283.393 2.9222 2.05772 0
M  V30 2981 S 284.952 3.30609 2.88519 0
M  V30 2982 H 281.77 0.601445 0.379189 0
M  V30 2983 H 284.372 1.91306 0.402794 0
M  V30 2984 H 283.076 3.82103 1.49752 0
M  V30 2985 H 282.607 2.7422 2.82076 0
M  V30 2986 H 284.622 2.82333 4.08047 0
M  V30 2987 N 283.795 -0.628877 1.44509 0
M  V30 2988 C 285.02 -1.42048 1.5112 0
M  V30 2989 C 285.445 -1.87594 0.137818 0
M  V30 2990 O 284.803 -1.58873 -0.873437 0
M  V30 2991 C 284.851 -2.61541 2.48251 0
M  V30 2992 O 283.955 -3.61453 1.98559 0
M  V30 2993 H 283.296 -0.424942 0.510216 0
M  V30 2994 H 285.826 -0.767374 1.89664 0
M  V30 2995 H 285.836 -3.09057 2.66361 0
M  V30 2996 H 284.511 -2.27736 3.48007 0
M  V30 2997 H 283.088 -3.20731 1.90227 0
M  V30 2998 N 285.273 -1.31445 -0.869486 0
M  V30 2999 C 286.689 -1.10113 -1.15531 0
M  V30 3000 C 286.889 0.128087 -2.01092 0
M  V30 3001 O 285.945 0.817276 -2.38908 0
M  V30 3002 C 287.258 -2.37291 -1.84698 0
M  V30 3003 C 288.806 -2.42906 -1.97397 0
M  V30 3004 C 289.281 -3.69967 -2.69979 0
M  V30 3005 N 290.772 -3.70864 -2.77514 0
M  V30 3006 C 291.507 -4.65875 -3.34287 0
M  V30 3007 N 291.003 -5.71242 -3.91988 0
M  V30 3008 N 292.796 -4.53394 -3.3225 0
M  V30 3009 H 284.947 -2.1028 -0.299347 0
M  V30 3010 H 287.21 -0.927683 -0.195214 0
M  V30 3011 H 286.916 -3.27078 -1.29278 0
M  V30 3012 H 286.79 -2.47125 -2.84972 0
M  V30 3013 H 289.177 -1.53588 -2.51982 0
M  V30 3014 H 289.258 -2.37036 -0.961643 0
M  V30 3015 H 288.902 -4.59652 -2.16062 0
M  V30 3016 H 288.832 -3.73103 -3.7162 0
M  V30 3017 H 291.323 -2.94697 -2.36563 0
M  V30 3018 H 291.636 -6.39817 -4.33421 0
M  V30 3019 H 289.981 -5.75015 -3.90362 0
M  V30 3020 H 293.172 -3.70252 -2.8641 0
M  V30 3021 H 293.345 -5.27617 -3.76197 0
M  V30 3022 N 286.751 1.08385 -1.14413 0
M  V30 3023 C 287.714 2.13486 -0.834048 0
M  V30 3024 C 288.714 1.59988 0.161418 0
M  V30 3025 O 289.904 1.74071 -0.0669575 0
M  V30 3026 C 287.036 3.4003 -0.243354 0
M  V30 3027 H 288.229 2.42425 -1.7655 0
M  V30 3028 H 285.782 1.24101 -0.950189 0
M  V30 3029 H 286.517 3.16726 0.696807 0
M  V30 3030 H 286.302 3.80157 -0.960367 0
M  V30 3031 H 287.792 4.17577 -0.0436242 0
M  V30 3032 N 288.23 0.939286 1.26551 0
M  V30 3033 C 289.193 0.451987 2.24699 0
M  V30 3034 C 290.193 -0.435869 1.5478 0
M  V30 3035 O 291.383 -0.235314 1.72603 0
M  V30 3036 C 288.515 -0.348801 3.39111 0
M  V30 3037 H 289.708 1.3193 2.69322 0
M  V30 3038 H 287.261 0.721072 1.38673 0
M  V30 3039 H 287.996 -1.23444 2.99887 0
M  V30 3040 H 287.781 0.287945 3.91041 0
M  V30 3041 H 289.271 -0.679726 4.12031 0
M  V30 3042 N 289.708 -1.40897 0.706093 0
M  V30 3043 C 291.124 -1.55042 0.37869 0
M  V30 3044 C 291.324 -1.67944 -1.11342 0
M  V30 3045 O 290.38 -1.66372 -1.89938 0
M  V30 3046 C 291.693 -2.78398 1.13643 0
M  V30 3047 C 293.241 -2.92206 1.12181 0
M  V30 3048 C 293.716 -4.18463 1.86152 0
M  V30 3049 N 295.207 -4.25443 1.83173 0
M  V30 3050 C 295.942 -5.2202 2.37239 0
M  V30 3051 N 295.438 -6.24563 2.99821 0
M  V30 3052 N 297.231 -5.14033 2.27435 0
M  V30 3053 H 289.382 -1.30769 1.67372 0
M  V30 3054 H 291.645 -0.631653 0.706907 0
M  V30 3055 H 291.351 -2.7511 2.19106 0
M  V30 3056 H 291.225 -3.70228 0.721853 0
M  V30 3057 H 293.612 -2.95004 0.0754171 0
M  V30 3058 H 293.693 -2.01521 1.57554 0
M  V30 3059 H 293.337 -4.16427 2.90776 0
M  V30 3060 H 293.267 -5.08141 1.38206 0
M  V30 3061 H 295.758 -3.51976 1.37556 0
M  V30 3062 H 296.071 -6.94665 3.38616 0
M  V30 3063 H 294.416 -6.25035 3.03902 0
M  V30 3064 H 297.607 -4.3285 1.78208 0
M  V30 3065 H 297.78 -5.89129 2.69873 0
M  V30 3066 N 291.186 -0.45159 -1.50991 0
M  V30 3067 C 292.434 0.109857 -2.01801 0
M  V30 3068 C 292.755 1.41958 -1.3369 0
M  V30 3069 O 292.025 1.9003 -0.475951 0
M  V30 3070 H 290.605 0.0435884 -0.745727 0
M  V30 3071 H 293.267 -0.597557 -1.85514 0
M  V30 3072 H 292.363 0.275489 -3.10882 0
M  V30 3073 N 292.664 1.56529 -0.183458 0
M  V30 3074 C 293.892 2.01623 0.464285 0
M  V30 3075 C 294.307 1.06366 1.55986 0
M  V30 3076 O 293.664 0.0665398 1.82379 0
M  V30 3077 C 293.715 3.46475 1.03139 0
M  V30 3078 O 293.436 4.38095 -0.0204675 0
M  V30 3079 C 294.937 4.0703 1.75617 0
M  V30 3080 H 292.157 0.660596 0.117704 0
M  V30 3081 H 294.701 2.02451 -0.288751 0
M  V30 3082 H 292.856 3.46383 1.73486 0
M  V30 3083 H 293.27 5.22973 0.399952 0
M  V30 3084 H 294.744 5.10271 2.10542 0
M  V30 3085 H 295.221 3.49819 2.65563 0
M  V30 3086 H 295.827 4.1086 1.09882 0
M  V30 3087 N 294.142 -0.090211 1.57342 0
M  V30 3088 C 295.391 -0.791531 1.8552 0
M  V30 3089 C 295.704 -1.79659 0.773441 0
M  V30 3090 O 296.91 -2.54616 0.942497 0
M  V30 3091 C 295.366 -1.45856 3.2902 0
M  V30 3092 C 294.974 -0.493017 4.45279 0
M  V30 3093 C 296.718 -2.14332 3.66418 0
M  V30 3094 C 294.625 -1.16491 5.79814 0
M  V30 3095 H 293.555 -0.299356 0.692027 0
M  V30 3096 H 296.206 -0.0445343 1.83446 0
M  V30 3097 H 294.588 -2.25318 3.2565 0
M  V30 3098 H 295.762 0.270464 4.60006 0
M  V30 3099 H 294.077 0.0863061 4.16311 0
M  V30 3100 H 296.674 -2.65344 4.64216 0
M  V30 3101 H 297.017 -2.93447 2.95287 0
M  V30 3102 H 297.55 -1.41724 3.71698 0
M  V30 3103 H 294.289 -0.41447 6.54188 0
M  V30 3104 H 293.809 -1.8997 5.68921 0
M  V30 3105 H 295.488 -1.69001 6.24538 0
M  V30 3106 N 295.62 -1.53406 -0.361157 0
M  V30 3107 C 296.868 -1.69467 -1.10115 0
M  V30 3108 C 297.189 -0.451352 -1.89705 0
M  V30 3109 O 296.459 0.534636 -1.88463 0
M  V30 3110 H 295.039 -0.624749 -0.409508 0
M  V30 3111 H 297.701 -1.90609 -0.406699 0
M  V30 3112 H 296.797 -2.55774 -1.78847 0
M  V30 3113 N 297.098 0.621204 -1.44841 0
M  V30 3114 C 298.061 1.71459 -1.521 0
M  V30 3115 C 299.061 1.55696 -0.401933 0
M  V30 3116 O 300.251 1.61011 -0.664925 0
M  V30 3117 C 297.383 3.10624 -1.40447 0
M  V30 3118 H 298.576 1.66394 -2.49506 0
M  V30 3119 H 296.129 0.835745 -1.3208 0
M  V30 3120 H 296.864 3.21277 -0.441737 0
M  V30 3121 H 296.649 3.23473 -2.21602 0
M  V30 3122 H 298.139 3.90293 -1.4853 0
M  V30 3123 N 298.576 1.31904 0.862503 0
M  V30 3124 C 299.992 1.10724 1.14945 0
M  V30 3125 C 300.192 -0.117421 2.01158 0
M  V30 3126 O 299.248 -0.804595 2.39338 0
M  V30 3127 C 300.561 2.38267 1.83437 0
M  V30 3128 C 302.109 2.43949 1.96106 0
M  V30 3129 C 302.584 3.71394 2.68013 0
M  V30 3130 N 304.075 3.72331 2.75543 0
M  V30 3131 C 304.81 4.67641 3.31812 0
M  V30 3132 N 304.306 5.73313 3.88953 0
M  V30 3133 N 306.099 4.5515 3.29841 0
M  V30 3134 H 298.25 2.10436 0.288191 0
M  V30 3135 H 300.513 0.928705 0.190292 0
M  V30 3136 H 300.219 3.27759 1.27542 0
M  V30 3137 H 300.093 2.48633 2.83657 0
M  V30 3138 H 302.48 1.54922 2.51164 0
M  V30 3139 H 302.561 2.37543 0.949059 0
M  V30 3140 H 302.205 4.60791 2.13621 0
M  V30 3141 H 302.135 3.75069 3.69636 0
M  V30 3142 H 304.626 2.95947 2.34997 0
M  V30 3143 H 304.939 6.42107 4.30022 0
M  V30 3144 H 303.284 5.77077 3.87308 0
M  V30 3145 H 306.475 3.71766 2.84443 0
M  V30 3146 H 306.648 5.29604 3.73394 0
M  V30 3147 N 300.054 -1.07777 1.14986 0
M  V30 3148 C 301.47 -1.32373 0.891596 0
M  V30 3149 C 301.67 -1.9609 -0.463788 0
M  V30 3150 O 300.726 -2.21801 -1.20667 0
M  V30 3151 C 302.039 -2.21905 2.02925 0
M  V30 3152 C 303.587 -2.35367 2.06329 0
M  V30 3153 C 304.062 -3.28245 3.19405 0
M  V30 3154 N 305.553 -3.35824 3.19024 0
M  V30 3155 C 306.288 -4.07739 4.03158 0
M  V30 3156 N 305.784 -4.82306 4.97346 0
M  V30 3157 N 307.577 -4.03635 3.91197 0
M  V30 3158 H 299.728 -0.648039 2.02273 0
M  V30 3159 H 301.991 -0.348149 0.881757 0
M  V30 3160 H 301.697 -1.82342 3.0074 0
M  V30 3161 H 301.571 -3.22407 1.95789 0
M  V30 3162 H 303.958 -2.74186 1.09116 0
M  V30 3163 H 304.039 -1.34585 2.17533 0
M  V30 3164 H 303.683 -2.90146 4.16867 0
M  V30 3165 H 303.613 -4.28971 3.05437 0
M  V30 3166 H 306.104 -2.8267 2.50811 0
M  V30 3167 H 306.417 -5.34661 5.57994 0
M  V30 3168 H 304.762 -4.81337 5.01338 0
M  V30 3169 H 307.953 -3.44491 3.16928 0
M  V30 3170 H 308.126 -4.59417 4.5699 0
M  V30 3171 N 301.532 -0.945985 -1.26051 0
M  V30 3172 C 302.76 -0.613025 -1.9761 0
M  V30 3173 C 303.175 0.813035 -1.70397 0
M  V30 3174 O 302.532 1.54274 -0.974979 0
M  V30 3175 C 302.583 -0.85159 -3.51326 0
M  V30 3176 O 302.304 -2.22157 -3.77595 0
M  V30 3177 C 303.805 -0.529831 -4.40122 0
M  V30 3178 H 301.025 -0.230593 -0.630133 0
M  V30 3179 H 303.569 -1.268 -1.60443 0
M  V30 3180 H 301.724 -0.243151 -3.86636 0
M  V30 3181 H 302.138 -2.2852 -4.721 0
M  V30 3182 H 303.612 -0.747348 -5.46917 0
M  V30 3183 H 304.089 0.535341 -4.35925 0
M  V30 3184 H 304.695 -1.11721 -4.10364 0
M  V30 3185 N 303.011 1.40521 -0.713556 0
M  V30 3186 C 304.259 2.00527 -0.251692 0
M  V30 3187 C 304.58 1.56857 1.15848 0
M  V30 3188 O 303.85 0.807127 1.785 0
M  V30 3189 H 302.43 0.741551 -0.0900646 0
M  V30 3190 H 305.092 1.71887 -0.918733 0
M  V30 3191 H 304.188 3.10813 -0.283192 0
M  V30 3192 N 304.489 0.459591 1.5075 0
M  V30 3193 C 305.421 -0.37665 2.26084 0
M  V30 3194 C 306.434 -0.967109 1.30961 0
M  V30 3195 O 307.623 -0.857468 1.56556 0
M  V30 3196 C 304.723 -1.54112 3.01832 0
M  V30 3197 C 303.896 -1.06553 4.24223 0
M  V30 3198 C 302.955 -2.1027 4.82362 0
M  V30 3199 O 301.981 -1.68798 5.43595 0
M  V30 3200 N 303.183 -3.42974 4.68347 0
M  V30 3201 H 305.948 0.269124 2.98489 0
M  V30 3202 H 303.509 0.28972 1.59287 0
M  V30 3203 H 305.501 -2.23165 3.37608 0
M  V30 3204 H 304.071 -2.0918 2.32298 0
M  V30 3205 H 303.291 -0.201274 3.93686 0
M  V30 3206 H 304.579 -0.725516 5.03601 0
M  V30 3207 H 303.977 -3.79385 4.19623 0
M  V30 3208 H 302.534 -4.07858 5.08424 0
M  V30 3209 N 305.967 -1.56429 0.191757 0
M  V30 3210 C 307.378 -1.83912 -0.321428 0
M  V30 3211 C 307.729 -1.11231 -1.61623 0
M  V30 3212 O 306.854 -0.37202 -2.13178 0
M  V30 3213 C 307.449 -3.33624 -0.589961 0
M  V30 3214 C 306.008 -3.6153 -1.04753 0
M  V30 3215 C 305.155 -2.7714 -0.0943327 0
M  V30 3216 H 308.106 -1.53161 0.415612 0
M  V30 3217 H 308.127 -3.52213 -1.43966 0
M  V30 3218 H 307.639 -3.86495 0.352588 0
M  V30 3219 H 305.74 -3.14089 -2.00447 0
M  V30 3220 H 305.853 -4.69737 -0.942549 0
M  V30 3221 H 304.217 -2.47638 -0.595589 0
M  V30 3222 H 305 -3.32799 0.842601 0
M  V30 3223 N 307.445 0.0818655 -1.57387 0
M  V30 3224 C 308.375 1.09885 -2.06028 0
M  V30 3225 C 309.356 1.4098 -0.951774 0
M  V30 3226 O 310.541 1.50781 -1.22387 0
M  V30 3227 C 307.671 2.4151 -2.4958 0
M  V30 3228 C 306.625 2.24792 -3.64215 0
M  V30 3229 C 305.951 3.61712 -3.93787 0
M  V30 3230 C 307.251 1.67749 -4.94629 0
M  V30 3231 H 308.945 0.694128 -2.91243 0
M  V30 3232 H 306.491 0.332448 -1.4011 0
M  V30 3233 H 308.444 3.12939 -2.82219 0
M  V30 3234 H 307.168 2.83943 -1.61381 0
M  V30 3235 H 305.827 1.55807 -3.31843 0
M  V30 3236 H 305.475 4.01697 -3.02735 0
M  V30 3237 H 305.175 3.51368 -4.70971 0
M  V30 3238 H 306.699 4.34587 -4.28913 0
M  V30 3239 H 308.113 2.29032 -5.25564 0
M  V30 3240 H 306.51 1.68128 -5.76067 0
M  V30 3241 H 307.58 0.638059 -4.80684 0
M  V30 3242 N 308.923 1.53595 0.353017 0
M  V30 3243 C 309.87 1.80919 1.43308 0
M  V30 3244 C 310.84 0.654288 1.5267 0
M  V30 3245 O 312.025 0.897759 1.6836 0
M  V30 3246 C 309.165 2.01605 2.80089 0
M  V30 3247 C 308.278 3.29321 2.79593 0
M  V30 3248 C 307.413 3.40125 4.0803 0
M  V30 3249 C 306.452 4.61826 4.01725 0
M  V30 3250 N 305.589 4.69716 5.21834 0
M  V30 3251 H 310.429 2.73074 1.19308 0
M  V30 3252 H 307.966 1.35263 0.578131 0
M  V30 3253 H 309.924 2.11586 3.59565 0
M  V30 3254 H 308.554 1.12772 3.0246 0
M  V30 3255 H 307.606 3.28229 1.92276 0
M  V30 3256 H 308.918 4.18884 2.70809 0
M  V30 3257 H 308.072 3.49488 4.95927 0
M  V30 3258 H 306.811 2.48601 4.19582 0
M  V30 3259 H 305.816 4.52552 3.12213 0
M  V30 3260 H 307.041 5.54705 3.91764 0
M  V30 3261 H 304.987 3.81097 5.33948 0
M  V30 3262 H 304.904 5.53202 5.1527 0
M  V30 3263 H 306.172 4.83376 6.11529 0
M  V30 3264 N 310.401 -0.613514 1.45168 0
M  V30 3265 C 311.311 -1.75296 1.55912 0
M  V30 3266 C 312.327 -1.68244 0.443856 0
M  V30 3267 O 313.503 -1.88706 0.70371 0
M  V30 3268 C 310.568 -3.1174 1.5172 0
M  V30 3269 C 309.629 -3.30291 2.74238 0
M  V30 3270 C 308.862 -4.60226 2.70236 0
M  V30 3271 O 309.085 -5.42168 1.77229 0
M  V30 3272 O 308.019 -4.81361 3.61352 0
M  V30 3273 H 311.845 -1.69183 2.52212 0
M  V30 3274 H 309.43 -0.776886 1.27612 0
M  V30 3275 H 311.312 -3.93044 1.51968 0
M  V30 3276 H 309.987 -3.18357 0.585697 0
M  V30 3277 H 308.894 -2.48598 2.79553 0
M  V30 3278 H 310.227 -3.28547 3.66494 0
M  V30 3279 N 311.879 -1.3236 -0.855495 0
M  V30 3280 C 313.156 -1.13491 -1.59309 0
M  V30 3281 C 313.536 0.30503 -2.08885 0
M  V30 3282 O 312.884 1.30151 -1.87811 0
M  V30 3283 C 313.094 -2.16176 -2.73987 0
M  V30 3284 C 314.442 -2.49463 -3.43589 0
M  V30 3285 O 315.466 -2.14715 -2.84211 0
M  V30 3286 O 314.325 -3.09027 -4.50738 0
M  V30 3287 H 311.419 -0.437887 -0.701559 0
M  V30 3288 H 313.965 -1.43887 -0.899696 0
M  V30 3289 H 312.737 -3.1297 -2.34873 0
M  V30 3290 H 312.36 -1.86769 -3.51003 0
M  V30 3291 N 313.357 1.07166 -1.15556 0
M  V30 3292 C 314.768 1.6127 -0.940693 0
M  V30 3293 C 315.119 1.89251 0.517551 0
M  V30 3294 O 314.244 1.65937 1.38903 0
M  V30 3295 C 314.839 2.92993 -1.7012 0
M  V30 3296 C 313.398 3.43832 -1.53156 0
M  V30 3297 C 312.545 2.1786 -1.71558 0
M  V30 3298 H 315.496 0.90229 -1.30554 0
M  V30 3299 H 315.517 3.62007 -1.17181 0
M  V30 3300 H 315.029 2.72596 -2.76248 0
M  V30 3301 H 313.13 3.69307 -0.494294 0
M  V30 3302 H 313.243 4.19747 -2.30975 0
M  V30 3303 H 311.607 2.2765 -1.14225 0
M  V30 3304 H 312.39 1.99956 -2.79056 0
M  V30 3305 N 314.835 0.952656 1.25548 0
M  V30 3306 C 316.06 0.623025 1.97821 0
M  V30 3307 C 316.485 -0.7976 1.70352 0
M  V30 3308 O 315.843 -1.53905 0.958283 0
M  V30 3309 C 315.891 0.885532 3.49558 0
M  V30 3310 O 314.995 -0.0366641 4.12384 0
M  V30 3311 H 314.336 0.237082 0.620232 0
M  V30 3312 H 316.866 1.27871 1.59719 0
M  V30 3313 H 316.876 0.811009 3.99858 0
M  V30 3314 H 315.551 1.92094 3.6888 0
M  V30 3315 H 314.128 0.0898954 3.72792 0
M  V30 3316 N 316.313 -1.40141 0.720998 0
M  V30 3317 C 317.276 -2.29058 0.0805834 0
M  V30 3318 C 318.276 -1.45632 -0.681758 0
M  V30 3319 O 319.466 -1.6648 -0.512856 0
M  V30 3320 C 316.598 -3.28925 -0.895593 0
M  V30 3321 H 317.791 -2.87191 0.863793 0
M  V30 3322 H 315.344 -1.48553 0.485975 0
M  V30 3323 H 316.079 -2.75822 -1.70566 0
M  V30 3324 H 315.864 -3.90519 -0.351766 0
M  V30 3325 H 317.354 -3.95494 -1.34069 0
M  V30 3326 N 317.792 -0.46758 -1.50504 0
M  V30 3327 C 319.038 0.0887532 -2.02606 0
M  V30 3328 C 319.371 1.39686 -1.34913 0
M  V30 3329 O 318.646 1.88644 -0.473694 0
M  V30 3330 C 318.929 0.276206 -3.59039 0
M  V30 3331 C 318.782 -1.05267 -4.37309 0
M  V30 3332 C 320.101 1.03235 -4.27821 0
M  V30 3333 H 317.22 0.0307814 -0.736357 0
M  V30 3334 H 319.862 -0.612485 -1.79857 0
M  V30 3335 H 318.012 0.8735 -3.78553 0
M  V30 3336 H 319.684 -1.68628 -4.29374 0
M  V30 3337 H 317.927 -1.65015 -4.01189 0
M  V30 3338 H 318.598 -0.875197 -5.45018 0
M  V30 3339 H 321.074 0.526111 -4.12761 0
M  V30 3340 H 319.95 1.1323 -5.37094 0
M  V30 3341 H 320.211 2.06806 -3.90748 0
M  V30 3342 N 319.27 1.56325 -0.20005 0
M  V30 3343 C 320.681 1.8408 0.31167 0
M  V30 3344 C 321.032 1.12087 1.61031 0
M  V30 3345 O 320.157 0.38332 2.12978 0
M  V30 3346 C 320.752 3.33932 0.57226 0
M  V30 3347 C 319.311 3.6208 1.02834 0
M  V30 3348 C 318.458 2.77186 0.079634 0
M  V30 3349 H 321.409 1.52939 -0.423729 0
M  V30 3350 H 321.43 3.52971 1.42096 0
M  V30 3351 H 320.942 3.86303 -0.37308 0
M  V30 3352 H 319.043 3.15147 1.98778 0
M  V30 3353 H 319.156 4.7023 0.917624 0
M  V30 3354 H 317.52 2.47951 0.582448 0
M  V30 3355 H 318.303 3.32347 -0.860238 0
M  V30 3356 N 320.748 -0.0735177 1.57428 0
M  V30 3357 C 321.994 -0.774145 1.87443 0
M  V30 3358 C 322.327 -1.77311 0.792103 0
M  V30 3359 O 321.602 -1.93492 -0.197793 0
M  V30 3360 C 321.885 -1.48367 3.28115 0
M  V30 3361 C 321.738 -0.501227 4.46999 0
M  V30 3362 C 323.057 -2.429 3.66998 0
M  V30 3363 H 320.176 -0.279971 0.681752 0
M  V30 3364 H 322.818 -0.0373616 1.89963 0
M  V30 3365 H 320.968 -2.11171 3.26097 0
M  V30 3366 H 322.64 0.121468 4.6114 0
M  V30 3367 H 320.883 0.183593 4.33411 0
M  V30 3368 H 321.554 -1.03526 5.42205 0
M  V30 3369 H 324.03 -1.90175 3.70098 0
M  V30 3370 H 322.906 -2.89549 4.66318 0
M  V30 3371 H 323.167 -3.27628 2.96837 0
M  V30 3372 N 322.226 -1.5378 -0.344866 0
M  V30 3373 C 323.473 -1.70963 -1.08526 0
M  V30 3374 C 323.801 -0.472126 -1.88683 0
M  V30 3375 O 323.056 0.546116 -1.87926 0
M  V30 3376 C 323.355 -2.92407 -2.05506 0
M  V30 3377 C 323.021 -4.28066 -1.41671 0
M  V30 3378 C 321.683 -4.64951 -1.2399 0
M  V30 3379 C 324.035 -5.12344 -0.956726 0
M  V30 3380 C 321.363 -5.83733 -0.589277 0
M  V30 3381 C 323.715 -6.3179 -0.320015 0
M  V30 3382 C 322.379 -6.67372 -0.130881 0
M  V30 3383 H 321.649 -0.625598 -0.397124 0
M  V30 3384 H 324.296 -1.87995 -0.36469 0
M  V30 3385 H 322.601 -2.69973 -2.8394 0
M  V30 3386 H 324.298 -3.02895 -2.62784 0
M  V30 3387 H 320.888 -3.99034 -1.56429 0
M  V30 3388 H 325.072 -4.8438 -1.08118 0
M  V30 3389 H 320.328 -6.09877 -0.431344 0
M  V30 3390 H 324.502 -6.96386 0.0445072 0
M  V30 3391 H 322.129 -7.59273 0.375318 0
M  V30 3392 N 323.704 0.605807 -1.45491 0
M  V30 3393 C 324.929 1.39625 -1.53361 0
M  V30 3394 C 325.354 1.87351 -0.167645 0
M  V30 3395 O 324.712 1.60243 0.848051 0
M  V30 3396 C 324.76 2.57559 -2.5238 0
M  V30 3397 O 323.864 3.58248 -2.04285 0
M  V30 3398 H 323.205 0.416771 -0.516912 0
M  V30 3399 H 325.735 0.737103 -1.90861 0
M  V30 3400 H 325.745 3.0478 -2.71244 0
M  V30 3401 H 324.42 2.22171 -3.51586 0
M  V30 3402 H 322.997 3.17664 -1.95305 0
M  V30 3403 N 325.182 1.32811 0.848464 0
M  V30 3404 C 326.428 1.23907 1.60546 0
M  V30 3405 C 326.761 -0.197161 1.93197 0
M  V30 3406 O 326.036 -1.13596 1.5788 0
M  V30 3407 C 326.319 2.10489 2.92175 0
M  V30 3408 C 326.172 3.62522 2.66266 0
M  V30 3409 C 327.491 1.97075 3.93509 0
M  V30 3410 H 324.61 0.451459 0.58254 0
M  V30 3411 H 327.252 1.62818 0.979296 0
M  V30 3412 H 325.402 1.77434 3.45614 0
M  V30 3413 H 327.074 4.05821 2.19334 0
M  V30 3414 H 325.317 3.84879 2.00126 0
M  V30 3415 H 325.988 4.18437 3.6002 0
M  V30 3416 H 328.464 2.26045 3.49346 0
M  V30 3417 H 327.34 2.59923 4.83457 0
M  V30 3418 H 327.601 0.940186 4.31987 0
M  V30 3419 N 326.66 -1.06551 1.16123 0
M  V30 3420 C 327.937 -1.76097 0.85142 0
M  V30 3421 C 328.317 -2.00802 -0.6513 0
M  V30 3422 O 327.665 -1.63302 -1.59827 0
M  V30 3423 C 327.875 -3.06384 1.67122 0
M  V30 3424 C 329.223 -3.80585 1.88255 0
M  V30 3425 O 330.247 -3.16218 1.63966 0
M  V30 3426 O 329.106 -4.96212 2.2899 0
M  V30 3427 H 326.2 -0.765102 0.313923 0
M  V30 3428 H 328.746 -1.12844 1.26745 0
M  V30 3429 H 327.518 -2.84071 2.69108 0
M  V30 3430 H 327.141 -3.77371 1.25206 0
M  V30 3431 N 328.138 -0.959301 -1.25041 0
M  V30 3432 C 329.368 -0.63303 -1.96663 0
M  V30 3433 C 329.776 0.800031 -1.71453 0
M  V30 3434 O 329.119 1.54736 -0.99008 0
M  V30 3435 C 329.181 -0.817523 -3.50081 0
M  V30 3436 C 328.845 -2.22863 -3.98975 0
M  V30 3437 C 329.842 -3.20569 -4.09306 0
M  V30 3438 C 327.527 -2.55407 -4.32519 0
M  V30 3439 C 329.521 -4.4891 -4.52503 0
M  V30 3440 C 327.208 -3.83976 -4.754 0
M  V30 3441 C 328.206 -4.8054 -4.85356 0
M  V30 3442 O 327.894 -6.06817 -5.27284 0
M  V30 3443 H 327.626 -0.235866 -0.633516 0
M  V30 3444 H 330.18 -1.2874 -1.60047 0
M  V30 3445 H 328.41 -0.105992 -3.86555 0
M  V30 3446 H 330.099 -0.491604 -4.02912 0
M  V30 3447 H 330.865 -2.96753 -3.83618 0
M  V30 3448 H 326.744 -1.8097 -4.23994 0
M  V30 3449 H 330.288 -5.24283 -4.60188 0
M  V30 3450 H 326.185 -4.07596 -5.00535 0
M  V30 3451 H 326.953 -6.10262 -5.45457 0
M  V30 3452 N 329.616 1.39756 -0.72842 0
M  V30 3453 C 330.864 2.00248 -0.272946 0
M  V30 3454 C 331.185 1.58077 1.14178 0
M  V30 3455 O 330.455 0.826014 1.77634 0
M  V30 3456 H 329.035 0.740554 -0.0979247 0
M  V30 3457 H 331.697 1.70903 -0.936912 0
M  V30 3458 H 330.793 3.10495 -0.316142 0
M  V30 3459 N 331.094 0.475555 1.50254 0
M  V30 3460 C 332.004 -0.321501 2.32387 0
M  V30 3461 C 333.02 -0.991755 1.42969 0
M  V30 3462 O 334.196 -0.978747 1.76018 0
M  V30 3463 C 331.261 -1.38667 3.17762 0
M  V30 3464 C 330.322 -0.732538 4.23004 0
M  V30 3465 C 329.555 -1.74695 5.04299 0
M  V30 3466 O 329.778 -2.97399 4.86734 0
M  V30 3467 O 328.712 -1.31631 5.8733 0
M  V30 3468 H 332.538 0.350071 3.01676 0
M  V30 3469 H 330.123 0.237321 1.47503 0
M  V30 3470 H 332.005 -2.00354 3.70724 0
M  V30 3471 H 330.68 -2.04163 2.51196 0
M  V30 3472 H 329.587 -0.0765902 3.74022 0
M  V30 3473 H 330.92 -0.120452 4.92053 0
M  V30 3474 N 332.573 -1.56217 0.208337 0
M  V30 3475 C 333.503 -2.22694 -0.702116 0
M  V30 3476 C 334.484 -1.19432 -1.2112 0
M  V30 3477 O 335.669 -1.47978 -1.25762 0
M  V30 3478 C 332.799 -2.8966 -1.9161 0
M  V30 3479 C 331.753 -3.9928 -1.5414 0
M  V30 3480 C 331.079 -4.53476 -2.83308 0
M  V30 3481 C 332.379 -5.17012 -0.741339 0
M  V30 3482 H 334.073 -2.99034 -0.147898 0
M  V30 3483 H 331.619 -1.43831 -0.0696951 0
M  V30 3484 H 333.572 -3.34852 -2.55836 0
M  V30 3485 H 332.296 -2.10746 -2.49507 0
M  V30 3486 H 330.955 -3.54799 -0.922668 0
M  V30 3487 H 330.603 -3.71308 -3.39322 0
M  V30 3488 H 330.303 -5.27451 -2.58976 0
M  V30 3489 H 331.827 -5.01378 -3.485 0
M  V30 3490 H 333.241 -5.58667 -1.28699 0
M  V30 3491 H 331.638 -5.97137 -0.595627 0
M  V30 3492 H 332.708 -4.8423 0.254851 0
M  V30 3493 N 334.051 0.0651679 -1.57465 0
M  V30 3494 C 335.328 0.79644 -1.78651 0
M  V30 3495 C 335.708 1.95454 -0.797566 0
M  V30 3496 O 335.056 2.27882 0.167946 0
M  V30 3497 C 335.266 1.26322 -3.25337 0
M  V30 3498 C 336.614 1.6939 -3.89348 0
M  V30 3499 O 337.638 1.35872 -3.29268 0
M  V30 3500 O 336.497 2.31471 -4.95059 0
M  V30 3501 H 333.591 0.382157 -0.733407 0
M  V30 3502 H 336.137 0.0447311 -1.69641 0
M  V30 3503 H 334.909 0.434859 -3.88876 0
M  V30 3504 H 334.532 2.07604 -3.39096 0
M  V30 3505 N 335.529 1.53961 0.336706 0
M  V30 3506 C 336.776 1.71536 1.07618 0
M  V30 3507 C 337.104 0.482125 1.8843 0
M  V30 3508 O 336.359 -0.536142 1.88213 0
M  V30 3509 C 336.658 2.93493 2.03953 0
M  V30 3510 C 336.324 4.28811 1.39399 0
M  V30 3511 C 334.986 4.65602 1.21523 0
M  V30 3512 C 337.338 5.12844 0.929541 0
M  V30 3513 C 334.666 5.84037 0.558312 0
M  V30 3514 C 337.018 6.31951 0.286505 0
M  V30 3515 C 335.682 6.67432 0.0954869 0
M  V30 3516 H 334.952 0.627696 0.393801 0
M  V30 3517 H 337.599 1.88186 0.354715 0
M  V30 3518 H 335.904 2.71475 2.82504 0
M  V30 3519 H 337.601 3.04285 2.61174 0
M  V30 3520 H 334.191 3.99858 1.54311 0
M  V30 3521 H 338.375 4.84947 1.05548 0
M  V30 3522 H 333.631 6.10097 0.398995 0
M  V30 3523 H 337.805 6.96352 -0.0814376 0
M  V30 3524 H 335.432 7.59063 -0.415579 0
M  V30 3525 N 337.007 -0.598083 1.45811 0
M  V30 3526 C 337.939 -1.72231 1.51225 0
M  V30 3527 C 338.952 -1.57757 0.402059 0
M  V30 3528 O 340.141 -1.65464 0.669624 0
M  V30 3529 C 337.241 -3.10331 1.3619 0
M  V30 3530 C 336.414 -3.50955 2.61054 0
M  V30 3531 C 335.473 -4.68055 2.40439 0
M  V30 3532 O 334.499 -4.74691 3.14097 0
M  V30 3533 N 335.701 -5.61941 1.45612 0
M  V30 3534 H 338.466 -1.68046 2.48154 0
M  V30 3535 H 336.027 -0.783637 1.41671 0
M  V30 3536 H 338.019 -3.86439 1.20195 0
M  V30 3537 H 336.589 -3.0897 0.475015 0
M  V30 3538 H 335.809 -2.64711 2.92099 0
M  V30 3539 H 337.097 -3.74858 3.44034 0
M  V30 3540 H 336.495 -5.59301 0.848431 0
M  V30 3541 H 335.052 -6.37542 1.35585 0
M  V30 3542 N 338.485 -1.33259 -0.841409 0
M  V30 3543 C 339.731 -1.25766 -1.59857 0
M  V30 3544 C 340.086 0.175602 -1.91597 0
M  V30 3545 O 339.379 1.117 -1.55672 0
M  V30 3546 C 339.573 -2.06381 -2.9179 0
M  V30 3547 C 339.402 -3.57401 -2.72937 0
M  V30 3548 C 338.172 -4.26718 -2.70628 0
M  V30 3549 C 340.37 -4.51786 -2.45753 0
M  V30 3550 N 338.352 -5.63705 -2.43125 0
M  V30 3551 C 339.723 -5.76643 -2.27777 0
M  V30 3552 C 341.778 -4.40898 -2.31329 0
M  V30 3553 C 340.481 -6.91842 -1.96841 0
M  V30 3554 C 342.507 -5.55911 -2.01786 0
M  V30 3555 C 341.869 -6.79776 -1.8462 0
M  V30 3556 H 337.968 -0.515406 -0.588117 0
M  V30 3557 H 340.552 -1.67772 -0.987955 0
M  V30 3558 H 338.723 -1.667 -3.50807 0
M  V30 3559 H 340.455 -1.90678 -3.56965 0
M  V30 3560 H 337.21 -3.78968 -2.84043 0
M  V30 3561 H 337.634 -6.35911 -2.32265 0
M  V30 3562 H 342.276 -3.45772 -2.43314 0
M  V30 3563 H 339.994 -7.86968 -1.83594 0
M  V30 3564 H 343.58 -5.49421 -1.91384 0
M  V30 3565 H 342.46 -7.67266 -1.62088 0
M  V30 3566 N 339.963 1.05934 -1.16686 0
M  V30 3567 C 341.379 1.30938 -0.912542 0
M  V30 3568 C 341.579 1.96803 0.432533 0
M  V30 3569 O 340.635 2.23693 1.17123 0
M  V30 3570 C 341.948 2.18649 -2.06429 0
M  V30 3571 C 343.496 2.32055 -2.10047 0
M  V30 3572 C 343.971 3.23122 -3.24586 0
M  V30 3573 N 345.462 3.30706 -3.24327 0
M  V30 3574 C 346.197 4.01273 -4.09594 0
M  V30 3575 N 345.693 4.74332 -5.04956 0
M  V30 3576 N 347.486 3.97361 -3.97569 0
M  V30 3577 H 339.637 0.615777 -2.03278 0
M  V30 3578 H 341.9 0.334077 -0.887185 0
M  V30 3579 H 341.606 1.77534 -3.03603 0
M  V30 3580 H 341.48 3.19252 -2.00894 0
M  V30 3581 H 343.867 2.72415 -1.13464 0
M  V30 3582 H 343.948 1.31107 -2.19647 0
M  V30 3583 H 343.592 2.83477 -4.2143 0
M  V30 3584 H 343.522 4.24057 -3.12223 0
M  V30 3585 H 346.013 2.78644 -2.55276 0
M  V30 3586 H 346.326 5.25716 -5.6643 0
M  V30 3587 H 344.671 4.733 -5.08933 0
M  V30 3588 H 347.862 3.39405 -3.22369 0
M  V30 3589 H 348.035 4.52089 -4.64241 0
M  V30 3590 N 341.441 0.965919 1.2453 0
M  V30 3591 C 342.351 0.502154 2.29163 0
M  V30 3592 C 343.367 -0.436017 1.68448 0
M  V30 3593 O 344.543 -0.309497 1.99008 0
M  V30 3594 C 341.608 -0.201956 3.46111 0
M  V30 3595 C 340.669 0.775821 4.22232 0
M  V30 3596 C 339.902 0.105217 5.33596 0
M  V30 3597 O 340.125 -1.10683 5.59558 0
M  V30 3598 O 339.059 0.796475 5.96607 0
M  V30 3599 H 342.885 1.37194 2.70946 0
M  V30 3600 H 340.47 0.732875 1.30189 0
M  V30 3601 H 342.352 -0.597564 4.17142 0
M  V30 3602 H 341.027 -1.04673 3.06309 0
M  V30 3603 H 339.934 1.22185 3.53584 0
M  V30 3604 H 341.267 1.58896 4.65846 0
M  V30 3605 N 342.919 -1.39368 0.735821 0
M  V30 3606 C 343.866 -2.30599 0.0963825 0
M  V30 3607 C 344.836 -1.49257 -0.728794 0
M  V30 3608 O 346.021 -1.77941 -0.688588 0
M  V30 3609 C 343.161 -3.35596 -0.804305 0
M  V30 3610 C 342.274 -4.31987 0.0335761 0
M  V30 3611 C 341.409 -5.24053 -0.868461 0
M  V30 3612 C 340.448 -6.12095 -0.0258776 0
M  V30 3613 N 339.585 -6.96514 -0.883893 0
M  V30 3614 H 344.425 -2.8471 0.880002 0
M  V30 3615 H 341.962 -1.40188 0.445619 0
M  V30 3616 H 343.92 -3.95062 -1.34096 0
M  V30 3617 H 342.55 -2.82938 -1.55389 0
M  V30 3618 H 341.602 -3.74133 0.68766 0
M  V30 3619 H 342.914 -4.94074 0.685036 0
M  V30 3620 H 342.068 -5.88549 -1.47293 0
M  V30 3621 H 340.807 -4.62289 -1.5537 0
M  V30 3622 H 339.812 -5.4661 0.591386 0
M  V30 3623 H 341.037 -6.75923 0.656156 0
M  V30 3624 H 338.983 -6.37318 -1.55441 0
M  V30 3625 H 338.9 -7.55448 -0.288931 0
M  V30 3626 H 340.168 -7.65439 -1.4739 0
M  V30 3627 N 344.397 -0.483516 -1.5 0
M  V30 3628 C 345.625 0.0644831 -2.06799 0
M  V30 3629 C 346.04 1.32399 -1.34596 0
M  V30 3630 O 345.397 1.77626 -0.418946 0
M  V30 3631 C 345.448 0.339927 -3.59898 0
M  V30 3632 O 345.169 -0.869635 -4.29382 0
M  V30 3633 C 346.67 0.933515 -4.33359 0
M  V30 3634 H 343.89 -0.0126333 -0.670881 0
M  V30 3635 H 346.434 -0.675864 -1.93009 0
M  V30 3636 H 344.589 1.03022 -3.7345 0
M  V30 3637 H 345.003 -0.62179 -5.20801 0
M  V30 3638 H 346.477 1.07593 -5.41413 0
M  V30 3639 H 346.954 1.92685 -3.94676 0
M  V30 3640 H 347.56 0.281221 -4.24369 0
M  V30 3641 N 345.875 1.56104 -0.216619 0
M  V30 3642 C 347.286 1.844 0.292128 0
M  V30 3643 C 347.637 1.13788 1.59833 0
M  V30 3644 O 346.762 0.405888 2.12559 0
M  V30 3645 C 347.357 3.3452 0.53681 0
M  V30 3646 C 345.916 3.63151 0.989876 0
M  V30 3647 C 345.063 2.77255 0.0502302 0
M  V30 3648 H 348.014 1.52481 -0.439926 0
M  V30 3649 H 348.035 3.54459 1.38345 0
M  V30 3650 H 347.547 3.85885 -0.414031 0
M  V30 3651 H 345.648 3.17238 1.95425 0
M  V30 3652 H 345.761 4.71177 0.867698 0
M  V30 3653 H 344.125 2.48555 0.556117 0
M  V30 3654 H 344.908 3.31416 -0.89544 0
M  V30 3655 N 347.353 -0.0568162 1.57498 0
M  V30 3656 C 348.263 -1.08346 2.08083 0
M  V30 3657 C 349.279 -1.41439 1.01346 0
M  V30 3658 O 350.455 -1.51316 1.32912 0
M  V30 3659 C 347.52 -2.37352 2.52715 0
M  V30 3660 C 346.581 -2.11093 3.73816 0
M  V30 3661 C 345.814 -3.33949 4.1631 0
M  V30 3662 O 346.037 -4.43622 3.58547 0
M  V30 3663 O 344.971 -3.21279 5.08983 0
M  V30 3664 H 348.797 -0.683667 2.95905 0
M  V30 3665 H 346.382 -0.271965 1.46904 0
M  V30 3666 H 348.264 -3.13246 2.81877 0
M  V30 3667 H 346.939 -2.76681 1.68016 0
M  V30 3668 H 345.846 -1.32856 3.49714 0
M  V30 3669 H 347.179 -1.76637 4.59413 0
M  V30 3670 N 348.832 -1.54138 -0.328536 0
M  V30 3671 C 350.243 -1.63395 -0.903272 0
M  V30 3672 C 350.594 -0.524828 -1.8905 0
M  V30 3673 O 349.719 0.343068 -2.13663 0
M  V30 3674 C 350.314 -2.9618 -1.64507 0
M  V30 3675 C 348.873 -3.0765 -2.1686 0
M  V30 3676 C 348.02 -2.58933 -0.992416 0
M  V30 3677 H 350.971 -1.58344 -0.106253 0
M  V30 3678 H 350.992 -2.86061 -2.50897 0
M  V30 3679 H 350.504 -3.76884 -0.926302 0
M  V30 3680 H 348.605 -2.31611 -2.91868 0
M  V30 3681 H 348.718 -4.1337 -2.42202 0
M  V30 3682 H 347.082 -2.14706 -1.37016 0
M  V30 3683 H 347.865 -3.42089 -0.288041 0
M  V30 3684 N 350.31 0.590341 -1.46126 0
M  V30 3685 C 351.721 1.17243 -1.45296 0
M  V30 3686 C 352.072 1.95281 -0.189723 0
M  V30 3687 O 351.197 2.04502 0.707674 0
M  V30 3688 C 351.792 2.13284 -2.6324 0
M  V30 3689 C 350.351 2.66832 -2.65476 0
M  V30 3690 C 349.498 1.42557 -2.3785 0
M  V30 3691 H 352.449 0.378692 -1.54116 0
M  V30 3692 H 352.47 2.96619 -2.38323 0
M  V30 3693 H 351.982 1.56459 -3.55165 0
M  V30 3694 H 350.083 3.27548 -1.77603 0
M  V30 3695 H 350.196 3.10088 -3.65215 0
M  V30 3696 H 348.56 1.72107 -1.87753 0
M  V30 3697 H 349.343 0.875741 -3.31942 0
M  V30 3698 N 351.788 1.33704 0.83433 0
M  V30 3699 C 353.034 1.25603 1.59222 0
M  V30 3700 C 353.367 -0.176659 1.93395 0
M  V30 3701 O 352.642 -1.11915 1.59076 0
M  V30 3702 C 352.925 2.13576 2.89926 0
M  V30 3703 C 352.778 3.65326 2.62406 0
M  V30 3704 C 354.097 2.01238 3.91397 0
M  V30 3705 H 351.216 0.457613 0.577719 0
M  V30 3706 H 353.858 1.63848 0.961972 0
M  V30 3707 H 352.008 1.8109 3.43713 0
M  V30 3708 H 353.68 4.08124 2.15017 0
M  V30 3709 H 351.923 3.8698 1.96033 0
M  V30 3710 H 352.594 4.22232 3.55562 0
M  V30 3711 H 355.07 2.29738 3.46929 0
M  V30 3712 H 353.946 2.65036 4.80673 0
M  V30 3713 H 354.207 0.985951 4.30966 0
M  V30 3714 N 353.266 -1.05314 1.17247 0
M  V30 3715 C 354.677 -1.59753 0.96623 0
M  V30 3716 C 355.028 -1.9005 -0.487378 0
M  V30 3717 O 354.153 -1.68126 -1.36245 0
M  V30 3718 C 354.748 -2.90249 1.74759 0
M  V30 3719 C 353.307 -3.41352 1.58606 0
M  V30 3720 C 352.454 -2.15103 1.75002 0
M  V30 3721 H 355.405 -0.881406 1.31973 0
M  V30 3722 H 355.426 -3.60097 1.22925 0
M  V30 3723 H 354.938 -2.68166 2.8055 0
M  V30 3724 H 353.039 -3.68474 0.552985 0
M  V30 3725 H 353.152 -4.16019 2.37624 0
M  V30 3726 H 351.516 -2.25804 1.17833 0
M  V30 3727 H 352.299 -1.95491 2.82202 0
M  V30 3728 N 354.744 -0.972509 -1.24016 0
M  V30 3729 C 355.984 -0.644951 -1.93958 0
M  V30 3730 C 356.348 0.80559 -1.74282 0
M  V30 3731 O 357.549 1.2436 -2.38302 0
M  V30 3732 C 355.82 -1.01521 -3.42678 0
M  V30 3733 S 357.379 -0.802927 -4.31391 0
M  V30 3734 H 354.197 -0.236452 -0.670531 0
M  V30 3735 H 356.799 -1.25048 -1.50277 0
M  V30 3736 H 355.503 -2.06769 -3.54506 0
M  V30 3737 H 355.034 -0.400648 -3.91355 0
M  V30 3738 H 357.049 0.317256 -4.95185 0
M  V30 3739 N 356.222 1.38976 -0.743202 0
M  V30 3740 C 357.468 2.0064 -0.295189 0
M  V30 3741 C 357.801 1.5885 1.11716 0
M  V30 3742 O 357.076 0.821181 1.76315 0
M  V30 3743 C 357.359 3.578 -0.406318 0
M  V30 3744 C 357.212 4.09586 -1.85903 0
M  V30 3745 C 358.531 4.39616 0.206439 0
M  V30 3746 H 355.65 0.728935 -0.108733 0
M  V30 3747 H 358.292 1.65067 -0.940897 0
M  V30 3748 H 356.442 3.88235 0.143419 0
M  V30 3749 H 358.114 3.89837 -2.46627 0
M  V30 3750 H 356.357 3.6284 -2.3776 0
M  V30 3751 H 357.028 5.18708 -1.888 0
M  V30 3752 H 359.504 4.15273 -0.262283 0
M  V30 3753 H 358.38 5.48812 0.0983819 0
M  V30 3754 H 358.641 4.22754 1.2935 0
M  V30 3755 N 357.7 0.491464 1.49741 0
M  V30 3756 C 359.111 0.0413169 1.86654 0
M  V30 3757 C 359.462 -1.36985 1.40462 0
M  V30 3758 O 358.587 -2.01917 0.778354 0
M  V30 3759 C 359.182 0.0682023 3.38731 0
M  V30 3760 C 357.741 -0.32656 3.74981 0
M  V30 3761 C 356.888 0.444888 2.73708 0
M  V30 3762 H 359.839 0.704733 1.42194 0
M  V30 3763 H 359.86 -0.729322 3.73445 0
M  V30 3764 H 359.372 1.09539 3.72321 0
M  V30 3765 H 357.473 -1.35734 3.46997 0
M  V30 3766 H 357.586 -0.013741 4.79098 0
M  V30 3767 H 355.95 -0.104062 2.54487 0
M  V30 3768 H 356.733 1.47197 3.10142 0
M  V30 3769 N 359.178 -1.55987 0.224894 0
M  V30 3770 C 360.088 -2.24066 -0.69511 0
M  V30 3771 C 361.104 -1.24939 -1.21104 0
M  V30 3772 O 362.28 -1.5776 -1.25195 0
M  V30 3773 C 359.345 -2.90983 -1.88493 0
M  V30 3774 C 358.406 -4.05462 -1.41064 0
M  V30 3775 C 357.639 -4.69179 -2.54375 0
M  V30 3776 O 357.862 -4.31895 -3.72589 0
M  V30 3777 O 356.796 -5.58108 -2.25386 0
M  V30 3778 H 360.622 -3.03353 -0.145149 0
M  V30 3779 H 358.207 -1.49399 -0.00569476 0
M  V30 3780 H 360.089 -3.33209 -2.57972 0
M  V30 3781 H 358.764 -2.14653 -2.42293 0
M  V30 3782 H 357.671 -3.67798 -0.683774 0
M  V30 3783 H 359.004 -4.83545 -0.918985 0
M  V30 3784 N 360.656 0.0484629 -1.57525 0
M  V30 3785 C 361.588 1.08222 -2.02041 0
M  V30 3786 C 362.601 1.33621 -0.930012 0
M  V30 3787 O 363.79 1.3145 -1.20761 0
M  V30 3788 C 360.89 2.42818 -2.36416 0
M  V30 3789 C 360.063 2.37049 -3.67596 0
M  V30 3790 C 359.122 3.53937 -3.89378 0
M  V30 3791 O 358.148 3.34308 -4.60681 0
M  V30 3792 N 359.35 4.75126 -3.3352 0
M  V30 3793 H 362.115 0.702946 -2.9134 0
M  V30 3794 H 359.676 0.236745 -1.6016 0
M  V30 3795 H 361.668 3.197 -2.48141 0
M  V30 3796 H 360.238 2.72661 -1.52888 0
M  V30 3797 H 359.458 1.45395 -3.66407 0
M  V30 3798 H 360.746 2.30318 -4.53686 0
M  V30 3799 H 360.144 4.93976 -2.75688 0
M  V30 3800 H 358.701 5.49439 -3.50656 0
M  V30 3801 N 362.134 1.5431 0.320358 0
M  V30 3802 C 363.362 1.76636 1.07738 0
M  V30 3803 C 363.777 0.51649 1.81598 0
M  V30 3804 O 363.134 -0.512942 1.75143 0
M  V30 3805 C 363.185 2.96158 2.07299 0
M  V30 3806 O 362.906 4.16313 1.36438 0
M  V30 3807 C 364.407 3.3072 2.95193 0
M  V30 3808 H 361.627 0.589597 0.320339 0
M  V30 3809 H 364.171 2.01207 0.36551 0
M  V30 3810 H 362.326 2.73851 2.74016 0
M  V30 3811 H 362.74 4.83565 2.03138 0
M  V30 3812 H 364.214 4.17643 3.60941 0
M  V30 3813 H 364.691 2.48026 3.62463 0
M  V30 3814 H 365.297 3.55117 2.34034 0
M  V30 3815 N 363.613 -0.582584 1.46437 0
M  V30 3816 C 364.523 -1.71949 1.59595 0
M  V30 3817 C 365.539 -1.67264 0.479443 0
M  V30 3818 O 366.715 -1.87171 0.743579 0
M  V30 3819 C 363.78 -3.08452 1.58298 0
M  V30 3820 C 362.841 -3.244 2.81182 0
M  V30 3821 C 362.074 -4.54391 2.79937 0
M  V30 3822 O 362.297 -5.38287 1.8869 0
M  V30 3823 O 361.231 -4.73588 3.71481 0
M  V30 3824 H 365.057 -1.63795 2.55744 0
M  V30 3825 H 362.642 -0.749643 1.29231 0
M  V30 3826 H 364.524 -3.89732 1.60271 0
M  V30 3827 H 363.199 -3.17043 0.653094 0
M  V30 3828 H 362.106 -2.42613 2.84763 0
M  V30 3829 H 363.439 -3.20699 3.7338 0
M  V30 3830 N 365.091 -1.34144 -0.827227 0
M  V30 3831 C 366.321 -1.29138 -1.61267 0
M  V30 3832 C 366.729 0.137597 -1.88699 0
M  V30 3833 O 366.072 1.09379 -1.47587 0
M  V30 3834 C 366.134 -2.0097 -2.9808 0
M  V30 3835 C 365.798 -3.50242 -2.93563 0
M  V30 3836 C 366.795 -4.4523 -2.68452 0
M  V30 3837 C 364.48 -3.92592 -3.13331 0
M  V30 3838 C 366.474 -5.80542 -2.63154 0
M  V30 3839 C 364.161 -5.28005 -3.07658 0
M  V30 3840 C 365.159 -6.21792 -2.82602 0
M  V30 3841 O 364.847 -7.54723 -2.76853 0
M  V30 3842 H 364.579 -0.445851 -0.508127 0
M  V30 3843 H 367.133 -1.77263 -1.03763 0
M  V30 3844 H 365.363 -1.47451 -3.57484 0
M  V30 3845 H 367.052 -1.89309 -3.5905 0
M  V30 3846 H 367.818 -4.13832 -2.52919 0
M  V30 3847 H 363.697 -3.19994 -3.31851 0
M  V30 3848 H 367.241 -6.53717 -2.43516 0
M  V30 3849 H 363.138 -5.59023 -3.22743 0
M  V30 3850 H 363.906 -7.64409 -2.92611 0
M  V30 3851 N 366.569 1.04691 -1.17803 0
M  V30 3852 C 367.532 2.10724 -0.901545 0
M  V30 3853 C 368.532 1.6042 0.110437 0
M  V30 3854 O 369.722 1.7377 -0.122303 0
M  V30 3855 C 366.854 3.39084 -0.351409 0
M  V30 3856 H 368.047 2.36686 -1.84174 0
M  V30 3857 H 365.6 1.21015 -0.98919 0
M  V30 3858 H 366.335 3.18782 0.59569 0
M  V30 3859 H 366.12 3.76909 -1.08083 0
M  V30 3860 H 367.61 4.17227 -0.176451 0
M  V30 3861 N 368.047 0.979072 1.23499 0
M  V30 3862 C 369.275 0.665202 1.95915 0
M  V30 3863 C 369.69 -0.767571 1.72493 0
M  V30 3864 O 369.047 -1.51635 1.01554 0
M  V30 3865 C 369.098 0.944438 3.48945 0
M  V30 3866 O 368.819 2.3209 3.71572 0
M  V30 3867 C 370.32 0.646336 4.38563 0
M  V30 3868 H 367.54 0.247218 0.623798 0
M  V30 3869 H 370.084 1.31009 1.57025 0
M  V30 3870 H 368.239 0.345575 3.85856 0
M  V30 3871 H 368.653 2.40957 4.65876 0
M  V30 3872 H 370.127 0.892091 5.44744 0
M  V30 3873 H 370.604 -0.419575 4.37191 0
M  V30 3874 H 371.21 1.22562 4.07258 0
M  V30 3875 N 369.525 -1.3858 0.750561 0
M  V30 3876 C 370.774 -1.99424 0.302172 0
M  V30 3877 C 371.087 -1.60254 -1.12152 0
M  V30 3878 O 372.293 -2.14046 -1.67023 0
M  V30 3879 C 370.749 -3.56558 0.489307 0
M  V30 3880 C 370.357 -4.04682 1.92189 0
M  V30 3881 C 372.101 -4.24374 0.103478 0
M  V30 3882 C 370.008 -5.54446 2.05775 0
M  V30 3883 H 368.938 -0.746046 0.10923 0
M  V30 3884 H 371.589 -1.58383 0.92667 0
M  V30 3885 H 369.971 -3.95472 -0.204329 0
M  V30 3886 H 371.145 -3.77065 2.64875 0
M  V30 3887 H 369.46 -3.4958 2.26236 0
M  V30 3888 H 372.057 -5.34384 0.183787 0
M  V30 3889 H 372.4 -4.05468 -0.943481 0
M  V30 3890 H 372.933 -3.90688 0.748854 0
M  V30 3891 H 369.672 -5.78252 3.08714 0
M  V30 3892 H 369.192 -5.83816 1.37546 0
M  V30 3893 H 370.871 -6.20099 1.84626 0
M  V30 3894 N 371.003 -0.499398 -1.49478 0
M  V30 3895 C 372.249 0.0457576 -2.02748 0
M  V30 3896 C 372.582 1.36793 -1.37846 0
M  V30 3897 O 371.857 1.87596 -0.513601 0
M  V30 3898 C 372.14 0.199986 -3.59544 0
M  V30 3899 C 371.993 -1.1452 -4.34977 0
M  V30 3900 C 373.312 0.94137 -4.29914 0
M  V30 3901 H 370.431 0.0151552 -0.736844 0
M  V30 3902 H 373.073 -0.650498 -1.78518 0
M  V30 3903 H 371.223 0.793007 -3.8032 0
M  V30 3904 H 372.895 -1.77697 -4.25701 0
M  V30 3905 H 371.138 -1.73488 -3.97598 0
M  V30 3906 H 371.809 -0.990607 -5.43039 0
M  V30 3907 H 374.285 0.43844 -4.13784 0
M  V30 3908 H 373.161 1.01812 -5.39375 0
M  V30 3909 H 373.422 1.98471 -3.95046 0
M  V30 3910 N 372.481 1.55866 -0.233164 0
M  V30 3911 C 373.728 1.98603 0.395374 0
M  V30 3912 C 374.056 1.12105 1.58942 0
M  V30 3913 O 373.311 0.168656 1.94972 0
M  V30 3914 C 373.61 3.46856 0.861724 0
M  V30 3915 C 373.276 4.50348 -0.223066 0
M  V30 3916 C 371.938 4.78371 -0.521038 0
M  V30 3917 C 374.29 5.12355 -0.956124 0
M  V30 3918 C 371.618 5.6568 -1.55638 0
M  V30 3919 C 373.97 6.00786 -1.98089 0
M  V30 3920 C 372.634 6.27148 -2.28565 0
M  V30 3921 H 371.904 0.726739 0.144677 0
M  V30 3922 H 374.551 1.88491 -0.338114 0
M  V30 3923 H 372.856 3.5423 1.67418 0
M  V30 3924 H 374.553 3.77302 1.35809 0
M  V30 3925 H 371.143 4.28596 0.0193234 0
M  V30 3926 H 375.327 4.90765 -0.739166 0
M  V30 3927 H 370.583 5.84365 -1.798 0
M  V30 3928 H 374.757 6.4788 -2.55391 0
M  V30 3929 H 372.384 6.94597 -3.08932 0
M  V30 3930 N 373.959 -0.0401083 1.57549 0
M  V30 3931 C 375.37 -0.588097 1.77196 0
M  V30 3932 C 375.721 -1.76209 0.862832 0
M  V30 3933 O 374.846 -2.16331 0.0548389 0
M  V30 3934 C 375.441 -1.07363 3.21339 0
M  V30 3935 C 374 -1.56723 3.42221 0
M  V30 3936 C 373.147 -0.50041 2.72747 0
M  V30 3937 H 376.098 0.186119 1.57605 0
M  V30 3938 H 376.119 -1.94143 3.27244 0
M  V30 3939 H 375.631 -0.218975 3.87482 0
M  V30 3940 H 373.732 -2.4441 2.81237 0
M  V30 3941 H 373.845 -1.62234 4.50796 0
M  V30 3942 H 372.209 -0.952894 2.36203 0
M  V30 3943 H 372.992 0.344599 3.41566 0
M  V30 3944 N 375.437 -1.54477 -0.31217 0
M  V30 3945 C 376.662 -1.77526 -1.07235 0
M  V30 3946 C 377.087 -0.527775 -1.80544 0
M  V30 3947 O 376.445 0.52121 -1.73646 0
M  V30 3948 C 376.493 -2.97535 -2.03728 0
M  V30 3949 O 375.597 -2.69878 -3.11833 0
M  V30 3950 H 374.938 -0.58792 -0.30862 0
M  V30 3951 H 377.468 -2.01532 -0.352993 0
M  V30 3952 H 377.478 -3.25198 -2.46395 0
M  V30 3953 H 376.153 -3.87996 -1.49774 0
M  V30 3954 H 374.73 -2.53199 -2.7376 0
M  V30 3955 N 376.915 0.57481 -1.46744 0
M  V30 3956 C 378.163 1.33009 -1.52161 0
M  V30 3957 C 378.484 1.94185 -0.178092 0
M  V30 3958 O 377.754 1.7899 0.796196 0
M  V30 3959 H 376.334 0.493873 -0.560445 0
M  V30 3960 H 378.996 0.672589 -1.82927 0
M  V30 3961 H 378.092 2.13273 -2.27862 0
M  V30 3962 N 378.394 1.34581 0.820102 0
M  V30 3963 C 379.327 1.20735 1.93644 0
M  V30 3964 C 380.305 0.0983343 1.62302 0
M  V30 3965 O 381.489 0.263997 1.86642 0
M  V30 3966 C 378.616 0.856037 3.27704 0
M  V30 3967 C 377.662 1.97521 3.78005 0
M  V30 3968 S 378.495 3.58906 3.97425 0
M  V30 3969 C 379.651 3.25822 5.34407 0
M  V30 3970 H 379.884 2.15231 2.05093 0
M  V30 3971 H 377.417 1.1964 0.97599 0
M  V30 3972 H 379.375 0.660133 4.05157 0
M  V30 3973 H 378.036 -0.0706253 3.14021 0
M  V30 3974 H 377.229 1.68321 4.75062 0
M  V30 3975 H 376.831 2.12875 3.07507 0
M  V30 3976 H 379.123 2.77812 6.17922 0
M  V30 3977 H 380.066 4.22029 5.68592 0
M  V30 3978 H 380.474 2.61932 5.00052 0
M  V30 3979 N 379.872 -1.04064 1.18357 0
M  V30 3980 C 381.12 -1.76915 0.977013 0
M  V30 3981 C 381.441 -1.88624 -0.494577 0
M  V30 3982 O 380.711 -1.41125 -1.3587 0
M  V30 3983 H 379.291 -0.65535 0.358504 0
M  V30 3984 H 381.953 -1.25592 1.49039 0
M  V30 3985 H 381.049 -2.78178 1.41504 0
M  V30 3986 N 381.35 -0.985608 -1.22978 0
M  V30 3987 C 382.578 -0.675582 -1.95559 0
M  V30 3988 C 382.993 0.758413 -1.72897 0
M  V30 3989 O 382.35 1.51094 -1.02357 0
M  V30 3990 C 382.401 -0.96293 -3.48439 0
M  V30 3991 O 382.122 -2.34057 -3.70336 0
M  V30 3992 C 383.623 -0.669585 -4.38214 0
M  V30 3993 H 380.843 -0.250523 -0.622478 0
M  V30 3994 H 383.387 -1.3184 -1.56328 0
M  V30 3995 H 381.542 -0.366033 -3.85667 0
M  V30 3996 H 381.956 -2.43424 -4.64591 0
M  V30 3997 H 383.43 -0.920967 -5.44263 0
M  V30 3998 H 383.907 0.396383 -4.37408 0
M  V30 3999 H 384.513 -1.2472 -4.06602 0
M  V30 4000 N 382.828 1.3818 -0.7579 0
M  V30 4001 C 384.053 2.04827 -0.325679 0
M  V30 4002 C 384.478 1.56788 1.03919 0
M  V30 4003 O 383.836 0.721811 1.66312 0
M  V30 4004 C 383.884 3.58774 -0.362447 0
M  V30 4005 O 382.988 4.07372 0.642033 0
M  V30 4006 H 382.329 0.64833 -0.143402 0
M  V30 4007 H 384.859 1.7677 -1.03023 0
M  V30 4008 H 384.869 4.07434 -0.214844 0
M  V30 4009 H 383.544 3.93096 -1.35824 0
M  V30 4010 H 382.121 3.70068 0.458688 0
M  V30 4011 N 384.306 0.507319 1.49211 0
M  V30 4012 C 385.531 -0.033725 2.07373 0
M  V30 4013 C 385.956 -1.29485 1.36437 0
M  V30 4014 O 385.314 -1.76294 0.423087 0
M  V30 4015 C 385.362 -0.263945 3.59633 0
M  V30 4016 O 384.466 -1.33737 3.90113 0
M  V30 4017 H 383.807 0.0290331 0.663365 0
M  V30 4018 H 386.337 0.708749 1.91932 0
M  V30 4019 H 386.347 -0.493536 4.05004 0
M  V30 4020 H 385.022 0.657424 4.10671 0
M  V30 4021 H 383.599 -1.09224 3.56545 0
M  V30 4022 N 385.784 -1.5574 0.241426 0
M  V30 4023 C 387.195 -1.84842 -0.262755 0
M  V30 4024 C 387.546 -1.16317 -1.58003 0
M  V30 4025 O 386.671 -0.439653 -2.11887 0
M  V30 4026 C 387.266 -3.35332 -0.483523 0
M  V30 4027 C 385.825 -3.6468 -0.931977 0
M  V30 4028 C 384.972 -2.77299 -0.0061151 0
M  V30 4029 H 387.923 -1.51761 0.464129 0
M  V30 4030 H 387.944 -3.56615 -1.32688 0
M  V30 4031 H 387.456 -3.85178 0.47537 0
M  V30 4032 H 385.557 -3.20307 -1.90353 0
M  V30 4033 H 385.67 -4.72498 -0.792628 0
M  V30 4034 H 384.034 -2.49408 -0.516503 0
M  V30 4035 H 384.817 -3.2995 0.948052 0
M  V30 4036 N 387.262 0.0317525 -1.57568 0
M  V30 4037 C 388.225 1.01783 -2.0536 0
M  V30 4038 C 389.225 1.29203 -0.957253 0
M  V30 4039 O 390.415 1.24251 -1.22095 0
M  V30 4040 C 387.547 2.35137 -2.46827 0
M  V30 4041 H 388.74 0.605062 -2.93733 0
M  V30 4042 H 386.293 0.278514 -1.53799 0
M  V30 4043 H 387.028 2.81168 -1.61602 0
M  V30 4044 H 386.813 2.16566 -3.26866 0
M  V30 4045 H 388.303 3.05938 -2.84239 0
M  V30 4046 N 388.74 1.54641 0.303973 0
M  V30 4047 C 390.156 1.45788 0.649463 0
M  V30 4048 C 390.356 0.64666 1.90842 0
M  V30 4049 O 389.412 0.153183 2.52035 0
M  V30 4050 C 390.725 2.89718 0.805227 0
M  V30 4051 C 392.273 2.99742 0.901305 0
M  V30 4052 C 392.748 4.44863 1.08909 0
M  V30 4053 N 394.239 4.48559 1.15536 0
M  V30 4054 C 394.974 5.58026 1.3189 0
M  V30 4055 N 394.47 6.77422 1.45161 0
M  V30 4056 N 396.263 5.45708 1.34755 0
M  V30 4057 H 388.414 2.05854 -0.523237 0
M  V30 4058 H 390.677 0.932186 -0.172431 0
M  V30 4059 H 390.383 3.51666 -0.0489108 0
M  V30 4060 H 390.257 3.36964 1.69513 0
M  V30 4061 H 392.644 2.3791 1.74593 0
M  V30 4062 H 392.725 2.55797 -0.0125531 0
M  V30 4063 H 392.369 5.07288 0.249241 0
M  V30 4064 H 392.299 4.86436 2.01713 0
M  V30 4065 H 394.79 3.6254 1.06646 0
M  V30 4066 H 395.103 7.56604 1.57387 0
M  V30 4067 H 393.448 6.80292 1.42223 0
M  V30 4068 H 396.639 4.51378 1.23996 0
M  V30 4069 H 396.812 6.3107 1.47157 0
M  V30 4070 N 390.218 -0.567019 1.47046 0
M  V30 4071 C 391.634 -0.891975 1.32348 0
M  V30 4072 C 391.834 -1.99154 0.306616 0
M  V30 4073 O 390.89 -2.50883 -0.28532 0
M  V30 4074 C 392.203 -1.29449 2.7141 0
M  V30 4075 C 393.751 -1.40646 2.79621 0
M  V30 4076 C 394.226 -1.84257 4.19301 0
M  V30 4077 N 395.717 -1.91424 4.21795 0
M  V30 4078 C 396.452 -2.26476 5.26779 0
M  V30 4079 N 395.948 -2.60211 6.42077 0
M  V30 4080 N 397.741 -2.27166 5.14152 0
M  V30 4081 H 389.892 0.159074 2.11803 0
M  V30 4082 H 392.155 0.00849752 0.947962 0
M  V30 4083 H 391.861 -0.560448 3.47206 0
M  V30 4084 H 391.735 -2.25273 3.02542 0
M  V30 4085 H 394.122 -2.13133 2.04104 0
M  V30 4086 H 394.203 -0.430339 2.52154 0
M  V30 4087 H 393.847 -1.12343 4.95319 0
M  V30 4088 H 393.777 -2.82855 4.44185 0
M  V30 4089 H 396.268 -1.6778 3.38612 0
M  V30 4090 H 396.581 -2.85956 7.17948 0
M  V30 4091 H 394.926 -2.57813 6.45413 0
M  V30 4092 H 398.117 -2.00244 4.23107 0
M  V30 4093 H 398.29 -2.54154 5.96079 0
M  V30 4094 N 391.696 -1.35014 -0.812953 0
M  V30 4095 C 392.944 -1.27678 -1.56661 0
M  V30 4096 C 393.265 0.150359 -1.94419 0
M  V30 4097 O 392.535 1.08532 -1.63088 0
M  V30 4098 H 391.115 -0.469602 -0.580933 0
M  V30 4099 H 393.777 -1.69043 -0.970076 0
M  V30 4100 H 392.873 -1.88833 -2.48492 0
M  V30 4101 N 393.175 1.03435 -1.18907 0
M  V30 4102 C 394.4 1.80919 -1.01406 0
M  V30 4103 C 394.825 1.83055 0.432721 0
M  V30 4104 O 394.183 1.25252 1.31079 0
M  V30 4105 C 394.231 3.24091 -1.58105 0
M  V30 4106 O 393.335 4.04434 -0.806669 0
M  V30 4107 H 392.676 0.558709 -0.358803 0
M  V30 4108 H 395.206 1.30223 -1.57807 0
M  V30 4109 H 395.216 3.74853 -1.61087 0
M  V30 4110 H 393.891 3.21851 -2.6341 0
M  V30 4111 H 392.468 3.63091 -0.849666 0
M  V30 4112 N 394.653 0.992116 1.22453 0
M  V30 4113 C 395.616 0.546883 2.2258 0
M  V30 4114 C 396.616 -0.369829 1.56489 0
M  V30 4115 O 397.806 -0.161896 1.73446 0
M  V30 4116 C 394.938 -0.204659 3.40285 0
M  V30 4117 H 396.131 1.43234 2.63484 0
M  V30 4118 H 393.684 0.779239 1.3549 0
M  V30 4119 H 394.419 -1.10614 3.04853 0
M  V30 4120 H 394.204 0.45354 3.89468 0
M  V30 4121 H 395.694 -0.504358 4.14543 0
M  V30 4122 N 396.131 -1.37776 0.765217 0
M  V30 4123 C 397.408 -1.93975 0.251596 0
M  V30 4124 C 397.788 -1.69949 -1.25222 0
M  V30 4125 O 397.136 -1.04457 -2.03226 0
M  V30 4126 C 397.346 -3.43487 0.617895 0
M  V30 4127 C 398.694 -4.20564 0.584029 0
M  V30 4128 O 399.718 -3.5182 0.556888 0
M  V30 4129 O 398.577 -5.43138 0.605291 0
M  V30 4130 H 395.671 -0.82509 0.0561806 0
M  V30 4131 H 398.217 -1.47101 0.846128 0
M  V30 4132 H 396.989 -3.5453 1.65602 0
M  V30 4133 H 396.612 -3.976 -0.00403411 0
M  V30 4134 N 397.609 -0.515225 -1.4894 0
M  V30 4135 C 398.857 0.0241671 -2.02086 0
M  V30 4136 C 399.178 1.3616 -1.3959 0
M  V30 4137 O 398.448 1.87841 -0.556121 0
M  V30 4138 H 397.028 0.0119203 -0.746905 0
M  V30 4139 H 399.69 -0.675702 -1.82812 0
M  V30 4140 H 398.786 0.143385 -3.1177 0
M  V30 4141 N 399.087 1.5561 -0.249682 0
M  V30 4142 C 400.498 1.84979 0.252949 0
M  V30 4143 C 400.849 1.17153 1.57384 0
M  V30 4144 O 399.974 0.450884 2.11651 0
M  V30 4145 C 400.569 3.35584 0.465732 0
M  V30 4146 C 399.128 3.65169 0.912624 0
M  V30 4147 C 398.275 2.77299 -0.00859085 0
M  V30 4148 H 401.226 1.51513 -0.47217 0
M  V30 4149 H 401.247 3.57313 1.30795 0
M  V30 4150 H 400.759 3.8492 -0.49579 0
M  V30 4151 H 398.86 3.21312 1.88652 0
M  V30 4152 H 398.973 4.72912 0.767559 0
M  V30 4153 H 397.337 2.49678 0.50327 0
M  V30 4154 H 398.12 3.29442 -0.965537 0
M  V30 4155 N 400.565 -0.0233959 1.57583 0
M  V30 4156 C 401.981 -0.379134 1.55031 0
M  V30 4157 C 402.181 -1.76255 0.976548 0
M  V30 4158 O 401.237 -2.45266 0.600078 0
M  V30 4159 C 402.55 -0.275792 2.99433 0
M  V30 4160 C 404.098 -0.352458 3.11009 0
M  V30 4161 C 404.573 -0.278501 4.57152 0
M  V30 4162 N 406.064 -0.337123 4.61972 0
M  V30 4163 C 406.799 -0.302876 5.726 0
M  V30 4164 N 406.295 -0.220589 6.92449 0
M  V30 4165 N 408.088 -0.353023 5.6099 0
M  V30 4166 H 400.239 0.881869 1.93227 0
M  V30 4167 H 402.502 0.335867 0.886509 0
M  V30 4168 H 402.208 0.675108 3.4516 0
M  V30 4169 H 402.082 -1.06721 3.61788 0
M  V30 4170 H 404.469 -1.29379 2.65226 0
M  V30 4171 H 404.55 0.468409 2.51475 0
M  V30 4172 H 404.194 0.659189 5.03604 0
M  V30 4173 H 404.124 -1.11755 5.14605 0
M  V30 4174 H 406.615 -0.403002 3.75745 0
M  V30 4175 H 406.928 -0.199713 7.72542 0
M  V30 4176 H 405.273 -0.186555 6.9475 0
M  V30 4177 H 408.464 -0.415339 4.66254 0
M  V30 4178 H 408.637 -0.322866 6.47195 0
M  V30 4179 N 402.043 -1.548 -0.295768 0
M  V30 4180 C 403.268 -1.78653 -1.05346 0
M  V30 4181 C 403.693 -0.546894 -1.79974 0
M  V30 4182 O 403.051 0.502763 -1.7419 0
M  V30 4183 C 403.099 -2.99679 -2.00561 0
M  V30 4184 O 402.203 -2.7317 -3.08953 0
M  V30 4185 H 401.544 -0.59116 -0.302367 0
M  V30 4186 H 404.074 -2.01895 -0.331598 0
M  V30 4187 H 404.084 -3.27793 -2.42932 0
M  V30 4188 H 402.759 -3.89562 -1.4565 0
M  V30 4189 H 401.336 -2.56089 -2.71059 0
M  V30 4190 N 403.521 0.559213 -1.47345 0
M  V30 4191 C 404.484 1.64854 -1.59235 0
M  V30 4192 C 405.484 1.53851 -0.467607 0
M  V30 4193 O 406.674 1.58045 -0.732617 0
M  V30 4194 C 403.806 3.04388 -1.53496 0
M  V30 4195 H 404.999 1.55662 -2.56339 0
M  V30 4196 H 402.552 0.778973 -1.35505 0
M  V30 4197 H 403.287 3.19115 -0.577604 0
M  V30 4198 H 403.072 3.13783 -2.35123 0
M  V30 4199 H 404.562 3.83642 -1.6495 0
M  V30 4200 N 404.999 1.35443 0.805782 0
M  V30 4201 C 405.931 1.24285 1.92577 0
M  V30 4202 C 406.944 0.165962 1.61952 0
M  V30 4203 O 408.133 0.419303 1.73505 0
M  V30 4204 C 405.233 0.891272 3.2697 0
M  V30 4205 C 404.406 2.06669 3.85495 0
M  V30 4206 C 403.465 1.69077 4.98297 0
M  V30 4207 O 402.491 2.4096 5.15681 0
M  V30 4208 N 403.693 0.614869 5.77234 0
M  V30 4209 H 406.458 2.20777 2.02676 0
M  V30 4210 H 404.019 1.28623 0.983243 0
M  V30 4211 H 406.011 0.621256 3.99903 0
M  V30 4212 H 404.581 0.016004 3.12596 0
M  V30 4213 H 403.801 2.50046 3.04747 0
M  V30 4214 H 405.089 2.85237 4.21328 0
M  V30 4215 H 404.487 0.017648 5.65697 0
M  V30 4216 H 403.044 0.404636 6.50543 0
M  V30 4217 N 406.477 -1.02803 1.19454 0
M  V30 4218 C 407.888 -1.57667 0.999899 0
M  V30 4219 C 408.239 -1.91041 -0.446956 0
M  V30 4220 O 407.364 -1.70978 -1.32648 0
M  V30 4221 C 407.959 -2.86477 1.80877 0
M  V30 4222 C 406.518 -3.37911 1.65811 0
M  V30 4223 C 405.665 -2.11343 1.79526 0
M  V30 4224 H 408.616 -0.853214 1.33813 0
M  V30 4225 H 408.637 -3.57408 1.30536 0
M  V30 4226 H 408.149 -2.62155 2.86175 0
M  V30 4227 H 406.25 -3.67218 0.63102 0
M  V30 4228 H 406.363 -4.10885 2.46395 0
M  V30 4229 H 404.727 -2.23254 1.22596 0
M  V30 4230 H 405.51 -1.89461 2.86285 0
M  V30 4231 N 407.956 -0.998596 -1.21925 0
M  V30 4232 C 408.886 -0.573688 -2.26343 0
M  V30 4233 C 409.867 0.402296 -1.65274 0
M  V30 4234 O 411.052 0.291683 -1.91997 0
M  V30 4235 C 408.182 0.106839 -3.47136 0
M  V30 4236 C 407.136 -0.788269 -4.20678 0
M  V30 4237 C 406.462 0.0254927 -5.34694 0
M  V30 4238 C 407.762 -2.08784 -4.78755 0
M  V30 4239 H 409.456 -1.44651 -2.62138 0
M  V30 4240 H 407.002 -0.696975 -1.26009 0
M  V30 4241 H 408.955 0.415531 -4.19346 0
M  V30 4242 H 407.679 1.01424 -3.10452 0
M  V30 4243 H 406.338 -1.08069 -3.50309 0
M  V30 4244 H 405.986 0.933989 -4.94253 0
M  V30 4245 H 405.686 -0.570437 -5.84825 0
M  V30 4246 H 407.21 0.328147 -6.09718 0
M  V30 4247 H 408.624 -1.84272 -5.42878 0
M  V30 4248 H 407.021 -2.63307 -5.39249 0
M  V30 4249 H 408.091 -2.76284 -3.98491 0
M  V30 4250 N 409.434 1.37368 -0.772513 0
M  V30 4251 C 410.85 1.53059 -0.452231 0
M  V30 4252 C 411.05 1.73065 1.03203 0
M  V30 4253 O 410.106 1.75245 1.81784 0
M  V30 4254 C 411.419 2.72659 -1.26797 0
M  V30 4255 C 412.967 2.86521 -1.25995 0
M  V30 4256 C 413.442 4.09105 -2.05905 0
M  V30 4257 N 414.933 4.16219 -2.03263 0
M  V30 4258 C 415.668 5.10107 -2.61875 0
M  V30 4259 N 415.164 6.09547 -3.29278 0
M  V30 4260 N 416.957 5.02596 -2.51701 0
M  V30 4261 H 409.108 1.22634 -1.7342 0
M  V30 4262 H 411.371 0.597206 -0.736239 0
M  V30 4263 H 411.077 2.64343 -2.31982 0
M  V30 4264 H 410.951 3.66363 -0.897672 0
M  V30 4265 H 413.338 2.94308 -0.216081 0
M  V30 4266 H 413.419 1.93774 -1.66989 0
M  V30 4267 H 413.063 4.0208 -3.10313 0
M  V30 4268 H 412.993 5.00968 -1.62292 0
M  V30 4269 H 415.484 3.45012 -1.54192 0
M  V30 4270 H 415.797 6.77718 -3.71374 0
M  V30 4271 H 414.142 6.09824 -3.33377 0
M  V30 4272 H 417.333 4.23855 -1.98657 0
M  V30 4273 H 417.506 5.75582 -2.97673 0
M  V30 4274 N 410.912 0.523116 1.48665 0
M  V30 4275 C 412.323 0.0808997 1.86525 0
M  V30 4276 C 412.674 -1.33975 1.43336 0
M  V30 4277 O 411.799 -2.00221 0.821009 0
M  V30 4278 C 412.394 0.140037 3.3851 0
M  V30 4279 C 410.953 -0.246948 3.75589 0
M  V30 4280 C 410.1 0.502845 2.72703 0
M  V30 4281 H 413.051 0.734736 1.40667 0
M  V30 4282 H 413.072 -0.649945 3.74908 0
M  V30 4283 H 412.584 1.17412 3.69914 0
M  V30 4284 H 410.685 -1.28343 3.49798 0
M  V30 4285 H 410.798 0.0878859 4.79019 0
M  V30 4286 H 409.162 -0.0500581 2.54651 0
M  V30 4287 H 409.945 1.53743 3.0695 0
M  V30 4288 N 412.39 -1.55475 0.257931 0
M  V30 4289 C 413.3 -2.2549 -0.647425 0
M  V30 4290 C 414.316 -1.2748 -1.18427 0
M  V30 4291 O 415.492 -1.6038 -1.2182 0
M  V30 4292 C 412.557 -2.94916 -1.82278 0
M  V30 4293 C 411.618 -4.08363 -1.32432 0
M  V30 4294 C 410.851 -4.74469 -2.44366 0
M  V30 4295 O 411.074 -4.39701 -3.63344 0
M  V30 4296 O 410.008 -5.62763 -2.13497 0
M  V30 4297 H 413.834 -3.03593 -0.0807707 0
M  V30 4298 H 411.419 -1.49377 0.0259962 0
M  V30 4299 H 413.301 -3.38606 -2.50846 0
M  V30 4300 H 411.976 -2.19744 -2.37685 0
M  V30 4301 H 410.883 -3.69166 -0.605605 0
M  V30 4302 H 412.216 -4.85385 -0.816211 0
M  V30 4303 N 413.868 0.0150385 -1.57593 0
M  V30 4304 C 415.145 0.7392 -1.81094 0
M  V30 4305 C 415.525 1.92817 -0.859344 0
M  V30 4306 O 414.873 2.28301 0.095362 0
M  V30 4307 C 415.083 1.15907 -3.29191 0
M  V30 4308 C 416.431 1.56918 -3.9454 0
M  V30 4309 O 417.455 1.25328 -3.33424 0
M  V30 4310 O 416.314 2.15604 -5.02173 0
M  V30 4311 H 413.408 0.358631 -0.745193 0
M  V30 4312 H 415.954 -0.00926156 -1.69697 0
M  V30 4313 H 414.726 0.310921 -3.90063 0
M  V30 4314 H 414.349 1.96711 -3.45529 0
M  V30 4315 N 415.346 1.54954 0.287554 0
M  V30 4316 C 416.594 1.74528 1.01904 0
M  V30 4317 C 416.915 0.541349 1.87335 0
M  V30 4318 O 416.185 -0.444108 1.908 0
M  V30 4319 H 414.765 0.643576 0.379235 0
M  V30 4320 H 417.427 1.92333 0.315294 0
M  V30 4321 H 416.523 2.64015 1.6644 0
M  V30 4322 N 416.824 -0.551391 1.4764 0
M  V30 4323 C 417.774 -1.65362 1.56969 0
M  V30 4324 C 418.758 -1.55098 0.428189 0
M  V30 4325 O 419.95 -1.63481 0.678441 0
M  V30 4326 C 417.079 -3.04129 1.59249 0
M  V30 4327 C 416.165 -3.19576 2.78804 0
M  V30 4328 N 416.556 -3.05067 4.03445 0
M  V30 4329 C 414.854 -3.50588 2.75688 0
M  V30 4330 C 415.555 -3.2336 4.83543 0
M  V30 4331 N 414.531 -3.4996 4.15968 0
M  V30 4332 H 418.333 -1.52722 2.51104 0
M  V30 4333 H 415.847 -0.756303 1.43714 0
M  V30 4334 H 417.844 -3.83278 1.64024 0
M  V30 4335 H 416.504 -3.17877 0.662148 0
M  V30 4336 H 417.515 -2.82273 4.34215 0
M  V30 4337 H 414.192 -3.70827 1.91817 0
M  V30 4338 H 415.582 -3.17061 5.92387 0
M  V30 4339 N 418.302 -1.35869 -0.798587 0
M  V30 4340 C 419.542 -1.30961 -1.56935 0
M  V30 4341 C 419.906 0.112404 -1.91671 0
M  V30 4342 O 421.107 0.285937 -2.67275 0
M  V30 4343 C 419.378 -2.19811 -2.81811 0
M  V30 4344 S 420.937 -2.32498 -3.72143 0
M  V30 4345 H 417.755 -0.465297 -0.537606 0
M  V30 4346 H 420.357 -1.71344 -0.941346 0
M  V30 4347 H 419.061 -3.22095 -2.54329 0
M  V30 4348 H 418.592 -1.80415 -3.49591 0
M  V30 4349 H 420.607 -1.5157 -4.72484 0
M  V30 4350 N 419.78 1.02168 -1.19998 0
M  V30 4351 C 421.005 1.79833 -1.03319 0
M  V30 4352 C 421.43 1.83504 0.413281 0
M  V30 4353 O 420.788 1.26635 1.29743 0
M  V30 4354 C 420.836 3.22396 -1.61533 0
M  V30 4355 O 419.94 4.03555 -0.849519 0
M  V30 4356 H 419.281 0.554872 -0.364709 0
M  V30 4357 H 421.811 1.28542 -1.59179 0
M  V30 4358 H 421.821 3.73124 -1.65054 0
M  V30 4359 H 420.496 3.19039 -2.66809 0
M  V30 4360 H 419.073 3.62169 -0.888129 0
M  V30 4361 N 421.258 1.00505 1.21394 0
M  V30 4362 C 422.504 0.698477 1.91031 0
M  V30 4363 C 422.859 -0.762448 1.76648 0
M  V30 4364 O 422.152 -1.54554 1.13241 0
M  V30 4365 C 422.346 1.0546 3.41486 0
M  V30 4366 C 422.175 2.5486 3.70508 0
M  V30 4367 C 420.945 3.21461 3.8986 0
M  V30 4368 C 423.143 3.53019 3.74008 0
M  V30 4369 N 421.125 4.60211 4.06299 0
M  V30 4370 C 422.496 4.77279 3.95733 0
M  V30 4371 C 424.551 3.47154 3.56915 0
M  V30 4372 C 423.254 5.96388 4.02137 0
M  V30 4373 C 425.28 4.65652 3.64585 0
M  V30 4374 C 424.642 5.88717 3.86771 0
M  V30 4375 H 420.741 0.30707 0.719189 0
M  V30 4376 H 423.325 1.28753 1.46051 0
M  V30 4377 H 421.496 0.494007 3.85246 0
M  V30 4378 H 423.228 0.702765 3.98552 0
M  V30 4379 H 419.983 2.71906 3.87768 0
M  V30 4380 H 420.407 5.32216 4.1842 0
M  V30 4381 H 425.049 2.53015 3.38738 0
M  V30 4382 H 422.767 6.90919 4.19114 0
M  V30 4383 H 426.353 4.62717 3.52681 0
M  V30 4384 H 425.233 6.78877 3.92549 0
M  V30 4385 N 422.737 -1.36956 0.779787 0
M  V30 4386 C 424.148 -1.82094 0.412156 0
M  V30 4387 C 424.499 -1.64926 -1.06273 0
M  V30 4388 O 423.624 -1.16483 -1.82375 0
M  V30 4389 C 424.219 -3.3059 0.741319 0
M  V30 4390 C 422.778 -3.73974 0.426641 0
M  V30 4391 C 421.925 -2.59368 0.980987 0
M  V30 4392 H 424.876 -1.25314 0.973758 0
M  V30 4393 H 424.897 -3.80489 0.028887 0
M  V30 4394 H 424.409 -3.43054 1.81482 0
M  V30 4395 H 422.51 -3.67076 -0.639215 0
M  V30 4396 H 422.623 -4.69778 0.940515 0
M  V30 4397 H 420.987 -2.51463 0.404757 0
M  V30 4398 H 421.77 -2.74621 2.06005 0
M  V30 4399 N 424.215 -0.530993 -1.48385 0
M  V30 4400 C 425.145 0.219985 -2.32461 0
M  V30 4401 C 426.126 0.934111 -1.42156 0
M  V30 4402 O 427.311 0.919694 -1.71042 0
M  V30 4403 C 424.441 1.26674 -3.23375 0
M  V30 4404 C 423.395 0.67069 -4.22712 0
M  V30 4405 C 422.721 1.82017 -5.02766 0
M  V30 4406 C 424.021 -0.358268 -5.2107 0
M  V30 4407 H 425.715 -0.48187 -2.95497 0
M  V30 4408 H 423.261 -0.233182 -1.42099 0
M  V30 4409 H 425.214 1.80006 -3.81019 0
M  V30 4410 H 423.938 1.99818 -2.58341 0
M  V30 4411 H 422.597 0.158878 -3.66256 0
M  V30 4412 H 422.245 2.54002 -4.34157 0
M  V30 4413 H 421.945 1.42727 -5.70003 0
M  V30 4414 H 423.469 2.35725 -5.63264 0
M  V30 4415 H 424.883 0.0880081 -5.73232 0
M  V30 4416 H 423.28 -0.66861 -5.96364 0
M  V30 4417 H 424.35 -1.26367 -4.68145 0
M  V30 4418 O 425.732 1.56259 -0.408071 0
M  V30 4419 H 426.423 1.93245 0.132688 0
M  V30 END ATOM
M  V30 BEGIN BOND
M  V30 END BOND
M  V30 END CTAB
M  END
$$$$
