drugbank_target|O06796 Possible exported protein (DB08217)
 OpenBabel12092120483D

  0  0  0     0  0            999 V3000
M  V30 BEGIN CTAB
M  V30 COUNTS 1917 1936 0 0 0
M  V30 BEGIN ATOM
M  V30 1 H -0.908 1.98254 -0.117106 0
M  V30 2 N 0 1.576 0 0
M  V30 3 C 0.933 2.03868 1.02534 0
M  V30 4 C 1.911 0.928543 1.3348 0
M  V30 5 O 3.095 1.19667 1.45644 0
M  V30 6 C 0.222 2.43627 2.35294 0
M  V30 7 C -0.732 3.65373 2.2001 0
M  V30 8 S 0.101 5.13292 1.52614 0
M  V30 9 C 1.257 5.56322 2.86805 0
M  V30 10 H 1.49 2.90518 0.631377 0
M  V30 11 H -0.977 1.52953 0.210867 0
M  V30 12 H 0.981 2.67203 3.11629 0
M  V30 13 H -0.358 1.57376 2.7183 0
M  V30 14 H -1.165 3.90944 3.18086 0
M  V30 15 H -1.563 3.418 1.51819 0
M  V30 16 H 0.729 5.58782 3.83104 0
M  V30 17 H 1.672 6.56266 2.65933 0
M  V30 18 H 2.08 4.83886 2.90714 0
M  V30 19 N 1.4781 -0.272755 1.55222 0
M  V30 20 C 2.7031 -1.02683 1.80197 0
M  V30 21 C 3.1281 -1.79142 0.573551 0
M  V30 22 O 2.4861 -1.74917 -0.476849 0
M  V30 23 C 2.5341 -1.9609 3.02624 0
M  V30 24 O 1.6381 -3.04863 2.77727 0
M  V30 25 H 0.9791 -0.293557 0.595584 0
M  V30 26 H 3.5091 -0.30159 2.02365 0
M  V30 27 H 3.5191 -2.38039 3.31363 0
M  V30 28 H 2.1941 -1.39851 3.91682 0
M  V30 29 H 0.7711 -2.67228 2.60084 0
M  V30 30 N 2.9562 -1.48159 -0.537278 0
M  V30 31 C 4.2332 -1.46291 -1.29839 0
M  V30 32 C 4.6132 -0.170613 -2.10409 0
M  V30 33 O 3.9612 0.847746 -2.12192 0
M  V30 34 C 4.1712 -2.72055 -2.18603 0
M  V30 35 C 5.5192 -3.20087 -2.7898 0
M  V30 36 O 6.5432 -2.72921 -2.28894 0
M  V30 37 O 5.4022 -4.02138 -3.70064 0
M  V30 38 H 2.4962 -0.583906 -0.585647 0
M  V30 39 H 5.0422 -1.60384 -0.554534 0
M  V30 40 H 3.8142 -3.57628 -1.58801 0
M  V30 41 H 3.4372 -2.60646 -3.00249 0
M  V30 42 N 4.4343 0.785586 -1.36625 0
M  V30 43 C 5.6813 1.54362 -1.31067 0
M  V30 44 C 6.0093 1.94195 0.10893 0
M  V30 45 O 5.2643 1.63262 1.07908 0
M  V30 46 C 5.5633 2.83007 -2.1827 0
M  V30 47 C 5.2293 2.62294 -3.6676 0
M  V30 48 C 3.8913 2.56353 -4.0723 0
M  V30 49 C 6.2433 2.43371 -4.6089 0
M  V30 50 C 3.5713 2.29461 -5.39967 0
M  V30 51 C 5.9233 2.18005 -5.93849 0
M  V30 52 C 4.5873 2.105 -6.3344 0
M  V30 53 H 3.8573 0.564851 -0.479609 0
M  V30 54 H 6.5043 0.906028 -1.68711 0
M  V30 55 H 4.8093 3.51253 -1.73576 0
M  V30 56 H 6.5063 3.40817 -2.11292 0
M  V30 57 H 3.0963 2.67774 -3.34656 0
M  V30 58 H 7.2803 2.46959 -4.30494 0
M  V30 59 H 2.5363 2.22135 -5.69619 0
M  V30 60 H 6.7103 2.02359 -6.66351 0
M  V30 61 H 4.3373 1.89425 -7.36222 0
M  V30 62 N 5.9124 1.20967 1.01018 0
M  V30 63 C 7.1894 0.93264 1.71934 0
M  V30 64 C 7.5694 -0.55692 2.03621 0
M  V30 65 O 6.9174 -1.52035 1.7058 0
M  V30 66 C 7.1274 1.81233 2.98254 0
M  V30 67 C 8.4754 2.05804 3.71389 0
M  V30 68 O 9.4994 1.78539 3.08225 0
M  V30 69 O 8.3584 2.51888 4.84989 0
M  V30 70 H 5.4524 0.349272 0.749625 0
M  V30 71 H 7.9984 1.31871 1.06808 0
M  V30 72 H 6.7704 2.82067 2.71208 0
M  V30 73 H 6.3934 1.42674 3.7112 0
M  V30 74 N 7.3905 -1.2043 1.01659 0
M  V30 75 C 8.6185 -1.93777 0.725132 0
M  V30 76 C 9.0335 -1.74772 -0.714166 0
M  V30 77 O 8.3905 -1.06169 -1.4844 0
M  V30 78 C 8.4415 -3.45876 1.05129 0
M  V30 79 O 8.1625 -3.6426 2.43406 0
M  V30 80 C 9.6635 -4.36368 0.780891 0
M  V30 81 H 6.8835 -0.615901 0.266284 0
M  V30 82 H 9.4275 -1.52922 1.35776 0
M  V30 83 H 7.5825 -3.8461 0.464065 0
M  V30 84 H 7.9965 -4.58246 2.55169 0
M  V30 85 H 9.4705 -5.41743 1.05918 0
M  V30 86 H 9.9475 -4.38275 -0.284937 0
M  V30 87 H 10.5535 -4.03296 1.35027 0
M  V30 88 N 8.8686 -0.792821 -1.36206 0
M  V30 89 C 9.7786 -0.194808 -2.3379 0
M  V30 90 C 10.7946 0.654869 -1.61206 0
M  V30 91 O 11.9706 0.569856 -1.9317 0
M  V30 92 C 9.0356 0.657721 -3.40404 0
M  V30 93 C 8.0966 -0.210849 -4.28782 0
M  V30 94 C 7.3296 0.601086 -5.30304 0
M  V30 95 O 7.5526 1.83682 -5.40016 0
M  V30 96 O 6.4866 -0.000808277 -6.019 0
M  V30 97 H 10.3126 -1.00172 -2.86704 0
M  V30 98 H 7.8976 -0.554341 -1.38735 0
M  V30 99 H 9.7796 1.14375 -4.05581 0
M  V30 100 H 8.4546 1.44247 -2.89784 0
M  V30 101 H 7.3616 -0.743714 -3.66633 0
M  V30 102 H 8.6946 -0.959195 -4.82763 0
M  V30 103 N 10.3467 1.47872 -0.545128 0
M  V30 104 C 11.7627 1.5829 -0.204032 0
M  V30 105 C 11.9627 1.54529 1.29317 0
M  V30 106 O 11.0187 1.44232 2.07252 0
M  V30 107 C 12.3317 2.89304 -0.819987 0
M  V30 108 C 13.8797 3.02864 -0.790105 0
M  V30 109 C 14.3547 4.3656 -1.38491 0
M  V30 110 N 15.8457 4.43165 -1.34755 0
M  V30 111 C 16.5807 5.45153 -1.77753 0
M  V30 112 N 16.0767 6.54016 -2.2855 0
M  V30 113 N 17.8697 5.36125 -1.68897 0
M  V30 114 H 10.0207 1.4856 -1.51802 0
M  V30 115 H 12.2837 0.706305 -0.632327 0
M  V30 116 H 11.9897 2.97757 -1.87173 0
M  V30 117 H 11.8637 3.75957 -0.305915 0
M  V30 118 H 14.2507 2.94014 0.252913 0
M  V30 119 H 14.3317 2.17782 -1.34181 0
M  V30 120 H 13.9757 4.46164 -2.42693 0
M  V30 121 H 13.9057 5.20353 -0.808754 0
M  V30 122 H 16.3967 3.65083 -0.975855 0
M  V30 123 H 16.7097 7.27994 -2.59314 0
M  V30 124 H 15.0547 6.54938 -2.32553 0
M  V30 125 H 18.2457 4.49975 -1.28998 0
M  V30 126 H 18.4187 6.15472 -2.02726 0
M  V30 127 N 11.8248 0.280983 1.55075 0
M  V30 128 C 13.0708 -0.33461 2.00021 0
M  V30 129 C 13.4038 -1.55063 1.16915 0
M  V30 130 O 12.6788 -1.93006 0.240646 0
M  V30 131 C 12.9618 -0.711007 3.53011 0
M  V30 132 C 12.8148 0.512766 4.46868 0
M  V30 133 C 14.1338 -1.54522 4.12081 0
M  V30 134 H 11.2528 -0.120147 0.727141 0
M  V30 135 H 13.8948 0.389097 1.85973 0
M  V30 136 H 12.0448 -1.32761 3.65112 0
M  V30 137 H 13.7168 1.15131 4.46702 0
M  V30 138 H 11.9598 1.14975 4.18286 0
M  V30 139 H 12.6308 0.205556 5.51617 0
M  V30 140 H 15.1068 -1.02442 4.03293 0
M  V30 141 H 13.9828 -1.77739 5.19327 0
M  V30 142 H 14.2438 -2.52813 3.62682 0
M  V30 143 N 13.3029 -1.57598 0.00835791 0
M  V30 144 C 14.5279 -1.95617 -0.689103 0
M  V30 145 C 14.9529 -0.883753 -1.66046 0
M  V30 146 O 14.3109 0.157352 -1.80616 0
M  V30 147 C 14.3589 -3.32736 -1.38994 0
M  V30 148 O 13.4629 -3.27631 -2.50463 0
M  V30 149 H 12.8039 -0.638379 -0.182668 0
M  V30 150 H 15.3339 -2.045 0.064036 0
M  V30 151 H 15.3439 -3.68494 -1.75147 0
M  V30 152 H 14.0189 -4.1034 -0.677778 0
M  V30 153 H 12.5959 -3.03561 -2.16576 0
M  V30 154 N 14.781 0.264519 -1.55364 0
M  V30 155 C 16.197 0.61215 -1.47394 0
M  V30 156 C 16.397 1.89134 -0.695018 0
M  V30 157 O 15.453 2.51563 -0.217275 0
M  V30 158 C 16.766 0.731235 -2.91674 0
M  V30 159 C 18.314 0.82473 -3.01939 0
M  V30 160 C 18.789 0.975522 -4.4749 0
M  V30 161 N 20.28 1.04083 -4.51354 0
M  V30 162 C 21.015 1.17646 -5.61201 0
M  V30 163 N 20.511 1.27874 -6.80896 0
M  V30 164 N 22.304 1.20823 -5.48961 0
M  V30 165 H 14.455 -0.575456 -2.04456 0
M  V30 166 H 16.718 -0.196099 -0.927496 0
M  V30 167 H 16.424 -0.138392 -3.51428 0
M  V30 168 H 16.298 1.60883 -3.41169 0
M  V30 169 H 18.685 1.68482 -2.42276 0
M  V30 170 H 18.766 -0.0776479 -2.55682 0
M  V30 171 H 18.41 0.120058 -5.07758 0
M  V30 172 H 18.34 1.89268 -4.91412 0
M  V30 173 H 20.831 0.973846 -3.65136 0
M  V30 174 H 21.144 1.38081 -7.60364 0
M  V30 175 H 19.489 1.24863 -6.83692 0
M  V30 176 H 22.68 1.12469 -4.54388 0
M  V30 177 H 22.853 1.31049 -6.3461 0
M  V30 178 N 16.2591 1.48442 0.529413 0
M  V30 179 C 17.2221 1.62524 1.61612 0
M  V30 180 C 18.2221 0.498509 1.52877 0
M  V30 181 O 19.4121 0.76431 1.56537 0
M  V30 182 C 16.5441 1.59597 3.01233 0
M  V30 183 H 17.7371 2.59423 1.50465 0
M  V30 184 H 15.2901 1.37047 0.751514 0
M  V30 185 H 16.0251 0.641781 3.17886 0
M  V30 186 H 15.8101 2.41397 3.08982 0
M  V30 187 H 17.3001 1.72646 3.80241 0
M  V30 188 N 17.7372 -0.778329 1.37039 0
M  V30 189 C 18.9832 -1.53892 1.32079 0
M  V30 190 C 19.3162 -1.9396 -0.0965386 0
M  V30 191 O 18.5912 -1.63568 -1.05242 0
M  V30 192 C 18.8742 -2.80847 2.25382 0
M  V30 193 C 18.7272 -2.47076 3.75864 0
M  V30 194 C 20.0462 -3.82741 2.1725 0
M  V30 195 H 17.1652 -0.558303 0.48111 0
M  V30 196 H 19.8072 -0.893397 1.67685 0
M  V30 197 H 17.9572 -3.35931 1.95148 0
M  V30 198 H 19.6292 -1.97957 4.16666 0
M  V30 199 H 17.8722 -1.79863 3.94755 0
M  V30 200 H 18.5432 -3.37798 4.36574 0
M  V30 201 H 21.0192 -3.37133 2.43887 0
M  V30 202 H 19.8952 -4.69303 2.84686 0
M  V30 203 H 20.1562 -4.2652 1.16331 0
M  V30 204 N 19.2153 -1.21501 -1.00376 0
M  V30 205 C 20.1783 -0.976927 -2.07337 0
M  V30 206 C 21.1783 0.0525322 -1.60714 0
M  V30 207 O 22.3683 -0.184869 -1.73216 0
M  V30 208 C 19.5003 -0.473423 -3.37597 0
M  V30 209 H 20.6933 -1.92587 -2.29892 0
M  V30 210 H 18.2463 -1.03217 -1.17371 0
M  V30 211 H 18.9813 0.480379 -3.20722 0
M  V30 212 H 18.7663 -1.216 -3.72768 0
M  V30 213 H 20.2563 -0.32675 -4.1632 0
M  V30 214 N 20.6934 1.19889 -1.02296 0
M  V30 215 C 21.6564 2.21116 -0.603351 0
M  V30 216 C 22.6564 1.5738 0.329884 0
M  V30 217 O 23.8464 1.73802 0.117702 0
M  V30 218 C 20.9784 3.40696 0.117992 0
M  V30 219 H 22.1714 2.59754 -1.49893 0
M  V30 220 H 19.7244 1.33463 -0.813468 0
M  V30 221 H 20.4594 3.07569 1.0282 0
M  V30 222 H 20.2444 3.88188 -0.552511 0
M  V30 223 H 21.7344 4.15692 0.398696 0
M  V30 224 N 22.1715 0.800033 1.35784 0
M  V30 225 C 23.1345 0.211565 2.28221 0
M  V30 226 C 24.1345 -0.59728 1.49296 0
M  V30 227 O 25.3245 -0.416721 1.69142 0
M  V30 228 C 22.4565 -0.705846 3.33513 0
M  V30 229 H 23.6495 1.02677 2.81776 0
M  V30 230 H 21.2025 0.570211 1.45528 0
M  V30 231 H 21.9375 -1.54498 2.85133 0
M  V30 232 H 21.7225 -0.127655 3.91892 0
M  V30 233 H 23.2125 -1.11211 4.02519 0
M  V30 234 N 23.6496 -1.47581 0.552962 0
M  V30 235 C 24.5796 -2.32762 -0.185451 0
M  V30 236 C 25.5606 -1.43527 -0.912905 0
M  V30 237 O 26.7456 -1.72388 -0.894201 0
M  V30 238 C 23.8756 -3.25219 -1.21859 0
M  V30 239 C 22.8296 -4.23661 -0.607864 0
M  V30 240 C 22.1556 -5.05413 -1.74533 0
M  V30 241 C 23.4556 -5.20481 0.435582 0
M  V30 242 H 25.1496 -2.94749 0.525684 0
M  V30 243 H 22.6956 -1.41738 0.254251 0
M  V30 244 H 24.6486 -3.8365 -1.7433 0
M  V30 245 H 23.3726 -2.61279 -1.95961 0
M  V30 246 H 22.0316 -3.66451 -0.104489 0
M  V30 247 H 21.6796 -4.3788 -2.47529 0
M  V30 248 H 21.3796 -5.72059 -1.34249 0
M  V30 249 H 22.9036 -5.66701 -2.27338 0
M  V30 250 H 24.3176 -5.733 -0.00290157 0
M  V30 251 H 22.7146 -5.95305 0.757067 0
M  V30 252 H 23.7846 -4.66217 1.33303 0
M  V30 253 N 25.1277 -0.289203 -1.54924 0
M  V30 254 C 26.3737 0.323998 -2.00195 0
M  V30 255 C 26.7067 1.54441 -1.17735 0
M  V30 256 O 25.9817 1.92875 -0.250878 0
M  V30 257 C 26.2647 0.692276 -3.53383 0
M  V30 258 C 26.1177 -0.536457 -4.46589 0
M  V30 259 C 27.4367 1.52335 -4.12895 0
M  V30 260 H 24.5557 0.116289 -0.727768 0
M  V30 261 H 27.1977 -0.398954 -1.85764 0
M  V30 262 H 25.3477 1.30822 -3.65811 0
M  V30 263 H 27.0197 -1.17499 -4.46085 0
M  V30 264 H 25.2627 -1.17192 -4.1767 0
M  V30 265 H 25.9337 -0.234806 -5.515 0
M  V30 266 H 28.4097 1.00302 -4.0383 0
M  V30 267 H 27.2857 1.74982 -5.20262 0
M  V30 268 H 27.5467 2.50886 -3.64018 0
M  V30 269 N 26.6058 1.57591 -0.0167156 0
M  V30 270 C 27.8538 1.90906 0.663285 0
M  V30 271 C 28.1748 0.892509 1.73376 0
M  V30 272 O 27.4448 -0.0677623 1.95783 0
M  V30 273 H 26.0248 0.704637 0.247983 0
M  V30 274 H 28.6868 1.94803 -0.0615909 0
M  V30 275 H 27.7828 2.9116 1.12393 0
M  V30 276 N 28.0839 -0.256276 1.55502 0
M  V30 277 C 29.4949 -0.826068 1.67431 0
M  V30 278 C 29.8459 -1.86396 0.612446 0
M  V30 279 O 28.9709 -2.15031 -0.243025 0
M  V30 280 C 29.5659 -1.50512 3.03532 0
M  V30 281 C 28.1249 -2.02273 3.17431 0
M  V30 282 C 27.2719 -0.870548 2.63281 0
M  V30 283 H 30.2229 -0.0322728 1.58667 0
M  V30 284 H 30.2439 -2.37279 2.97454 0
M  V30 285 H 29.7559 -0.749484 3.80794 0
M  V30 286 H 27.8569 -2.80746 2.44974 0
M  V30 287 H 27.9699 -2.22655 4.24219 0
M  V30 288 H 26.3339 -1.26851 2.20864 0
M  V30 289 H 27.1169 -0.128149 3.43061 0
M  V30 290 N 29.562 -1.4872 -0.521534 0
M  V30 291 C 30.81 -1.56857 -1.27437 0
M  V30 292 C 31.131 -0.247982 -1.93417 0
M  V30 293 O 30.401 0.731151 -1.81744 0
M  V30 294 H 28.981 -0.577885 -0.473347 0
M  V30 295 H 31.643 -1.85233 -0.606205 0
M  V30 296 H 30.739 -2.35402 -2.0492 0
M  V30 297 N 31.0401 0.771051 -1.3745 0
M  V30 298 C 32.2881 1.52661 -1.32435 0
M  V30 299 C 32.6091 1.9479 0.0905024 0
M  V30 300 O 31.8791 1.66348 1.03466 0
M  V30 301 H 30.4591 0.566218 -0.487244 0
M  V30 302 H 33.1211 0.917636 -1.71946 0
M  V30 303 H 32.2171 2.42568 -1.96385 0
M  V30 304 N 32.5182 1.22032 0.997298 0
M  V30 305 C 33.7642 1.04376 1.73878 0
M  V30 306 C 34.0972 -0.420716 1.89588 0
M  V30 307 O 33.3722 -1.31202 1.43583 0
M  V30 308 C 33.6552 1.75047 3.14691 0
M  V30 309 C 33.5082 3.29062 3.06656 0
M  V30 310 C 34.8272 1.49928 4.13775 0
M  V30 311 H 31.9462 0.380578 0.631133 0
M  V30 312 H 34.5882 1.50312 1.16217 0
M  V30 313 H 32.7382 1.35996 3.63919 0
M  V30 314 H 34.4102 3.7753 2.65083 0
M  V30 315 H 32.6532 3.58967 2.43568 0
M  V30 316 H 33.3242 3.73683 4.06282 0
M  V30 317 H 35.8002 1.83842 3.73285 0
M  V30 318 H 34.6762 2.01878 5.10428 0
M  V30 319 H 34.9372 0.430929 4.39995 0
M  V30 320 N 33.9963 -1.19345 1.0293 0
M  V30 321 C 34.9593 -2.20793 0.615069 0
M  V30 322 C 35.9593 -1.57553 -0.321533 0
M  V30 323 O 37.1493 -1.73862 -0.108483 0
M  V30 324 C 34.2813 -3.40754 -0.0999222 0
M  V30 325 H 35.4743 -2.58955 1.51269 0
M  V30 326 H 33.0273 -1.3303 0.820534 0
M  V30 327 H 33.7623 -3.0811 -1.01187 0
M  V30 328 H 33.5473 -3.87889 0.57309 0
M  V30 329 H 35.0373 -4.15898 -0.376645 0
M  V30 330 N 35.4744 -0.807222 -1.35358 0
M  V30 331 C 36.4044 -0.232509 -2.3234 0
M  V30 332 C 37.3854 0.642386 -1.57504 0
M  V30 333 O 38.5704 0.572526 -1.85569 0
M  V30 334 C 35.7004 0.619238 -3.41735 0
M  V30 335 C 34.6544 -0.157215 -4.27711 0
M  V30 336 C 33.9804 0.816273 -5.28433 0
M  V30 337 C 35.2804 -1.35656 -5.04376 0
M  V30 338 H 36.9744 -1.04276 -2.80654 0
M  V30 339 H 34.5204 -0.50288 -1.34934 0
M  V30 340 H 36.4734 1.03137 -4.08584 0
M  V30 341 H 35.1974 1.46239 -2.92031 0
M  V30 342 H 33.8564 -0.550525 -3.62443 0
M  V30 343 H 33.5044 1.65494 -4.74996 0
M  V30 344 H 33.2044 0.301067 -5.86828 0
M  V30 345 H 34.7284 1.22659 -5.98153 0
M  V30 346 H 36.1424 -1.01927 -5.64166 0
M  V30 347 H 34.5394 -1.8063 -5.7227 0
M  V30 348 H 35.6094 -2.14288 -4.34981 0
M  V30 349 N 36.9525 1.47285 -0.560781 0
M  V30 350 C 38.1985 2.02764 -0.0381184 0
M  V30 351 C 38.5315 1.43384 1.30976 0
M  V30 352 O 37.8065 0.590733 1.85312 0
M  V30 353 C 38.0895 3.60064 0.0511427 0
M  V30 354 C 37.9425 4.2987 -1.32408 0
M  V30 355 C 39.2615 4.33439 0.762795 0
M  V30 356 H 36.3805 0.736841 -0.0153264 0
M  V30 357 H 39.0225 1.75675 -0.723759 0
M  V30 358 H 37.1725 3.83274 0.635065 0
M  V30 359 H 38.8445 4.17989 -1.95148 0
M  V30 360 H 37.0875 3.90085 -1.8978 0
M  V30 361 H 37.7585 5.38478 -1.21431 0
M  V30 362 H 40.2345 4.15243 0.266965 0
M  V30 363 H 39.1105 5.43124 0.794221 0
M  V30 364 H 39.3715 4.02915 1.81966 0
M  V30 365 N 38.4306 0.297415 1.54768 0
M  V30 366 C 39.6766 -0.313376 2.00364 0
M  V30 367 C 40.0096 -1.53815 1.18553 0
M  V30 368 O 39.2846 -1.92739 0.261103 0
M  V30 369 C 39.5676 -0.673525 3.53745 0
M  V30 370 C 39.4206 0.560133 4.46299 0
M  V30 371 C 40.7396 -1.50143 4.13697 0
M  V30 372 H 37.8586 -0.112428 0.728374 0
M  V30 373 H 40.5006 0.4088 1.8555 0
M  V30 374 H 38.6506 -1.28881 3.665 0
M  V30 375 H 40.3226 1.19863 4.45455 0
M  V30 376 H 38.5656 1.19405 4.17043 0
M  V30 377 H 39.2366 0.26405 5.51368 0
M  V30 378 H 41.7126 -0.981588 4.04356 0
M  V30 379 H 40.5886 -1.72221 5.21182 0
M  V30 380 H 40.8496 -2.48952 3.65343 0
M  V30 381 N 39.9087 -1.5758 0.0250728 0
M  V30 382 C 40.8557 -2.09973 -0.958129 0
M  V30 383 C 41.8257 -1.00085 -1.3256 0
M  V30 384 O 43.0107 -1.27481 -1.41962 0
M  V30 385 C 40.1507 -2.62812 -2.2366 0
M  V30 386 C 39.2637 -3.86693 -1.92594 0
M  V30 387 C 38.3987 -4.27941 -3.14707 0
M  V30 388 C 37.4377 -5.44591 -2.79442 0
M  V30 389 N 36.5747 -5.81014 -3.94167 0
M  V30 390 H 41.4147 -2.937 -0.504428 0
M  V30 391 H 38.9517 -1.45172 -0.237392 0
M  V30 392 H 40.9097 -2.91536 -2.98434 0
M  V30 393 H 39.5397 -1.81922 -2.66654 0
M  V30 394 H 38.5917 -3.64723 -1.0808 0
M  V30 395 H 39.9037 -4.71547 -1.62619 0
M  V30 396 H 39.0577 -4.58079 -3.97804 0
M  V30 397 H 37.7967 -3.41845 -3.4784 0
M  V30 398 H 36.8017 -5.1415 -1.94755 0
M  V30 399 H 38.0267 -6.32382 -2.47528 0
M  V30 400 H 35.9727 -4.97874 -4.2715 0
M  V30 401 H 35.8897 -6.60498 -3.67801 0
M  V30 402 H 37.1577 -6.15756 -4.7798 0
M  V30 403 N 41.3868 0.248026 -1.55636 0
M  V30 404 C 42.6328 0.97767 -1.77678 0
M  V30 405 C 42.9658 1.85016 -0.590135 0
M  V30 406 O 42.2408 1.90095 0.411611 0
M  V30 407 C 42.5238 1.83914 -3.09593 0
M  V30 408 C 42.3768 0.99491 -4.38659 0
M  V30 409 C 43.6958 2.82183 -3.37729 0
M  V30 410 H 40.8148 0.354005 -0.646413 0
M  V30 411 H 43.4568 0.248253 -1.88371 0
M  V30 412 H 41.6068 2.46104 -3.00608 0
M  V30 413 H 43.2788 0.391789 -4.59633 0
M  V30 414 H 41.5218 0.299231 -4.32767 0
M  V30 415 H 42.1928 1.63145 -5.2734 0
M  V30 416 H 44.6688 2.30129 -3.4667 0
M  V30 417 H 43.5448 3.39582 -4.31249 0
M  V30 418 H 43.8058 3.58588 -2.58586 0
M  V30 419 N 42.8649 1.48995 0.513639 0
M  V30 420 C 44.1119 1.57843 1.26854 0
M  V30 421 C 44.4399 0.259501 1.92761 0
M  V30 422 O 43.6949 -0.75159 1.80692 0
M  V30 423 C 43.9939 2.67756 2.36731 0
M  V30 424 C 43.6599 4.09669 1.88368 0
M  V30 425 C 42.3219 4.48291 1.74896 0
M  V30 426 C 44.6739 4.98537 1.52021 0
M  V30 427 C 42.0019 5.73568 1.23438 0
M  V30 428 C 44.3539 6.24319 1.0202 0
M  V30 429 C 43.0179 6.61783 0.871778 0
M  V30 430 H 42.2879 0.577587 0.464192 0
M  V30 431 H 44.9349 1.82778 0.571366 0
M  V30 432 H 43.2399 2.36743 3.12185 0
M  V30 433 H 44.9369 2.71813 2.9482 0
M  V30 434 H 41.5269 3.79176 1.99808 0
M  V30 435 H 45.7109 4.69363 1.61281 0
M  V30 436 H 40.9669 6.01304 1.10648 0
M  V30 437 H 45.1409 6.92566 0.729722 0
M  V30 438 H 42.7679 7.5874 0.470852 0
M  V30 439 N 44.343 -0.763751 1.37857 0
M  V30 440 C 45.306 -1.85889 1.34081 0
M  V30 441 C 46.306 -1.58949 0.243277 0
M  V30 442 O 47.496 -1.66882 0.499589 0
M  V30 443 C 44.628 -3.23176 1.08489 0
M  V30 444 H 45.821 -1.90648 2.31502 0
M  V30 445 H 43.374 -0.964367 1.23003 0
M  V30 446 H 44.109 -3.24091 0.116318 0
M  V30 447 H 43.894 -3.44124 1.8794 0
M  V30 448 H 45.384 -4.03254 1.08517 0
M  V30 449 N 45.8211 -1.22559 -0.990812 0
M  V30 450 C 47.0691 -1.04933 -1.72724 0
M  V30 451 C 47.3901 0.416158 -1.90508 0
M  V30 452 O 46.6601 1.29918 -1.46622 0
M  V30 453 H 45.2401 -0.385296 -0.639965 0
M  V30 454 H 47.9021 -1.54105 -1.19322 0
M  V30 455 H 46.9981 -1.52886 -2.72089 0
M  V30 456 N 47.2992 1.18797 -1.03562 0
M  V30 457 C 48.2292 2.24472 -0.643019 0
M  V30 458 C 49.2102 1.66433 0.351283 0
M  V30 459 O 50.3952 1.92803 0.232505 0
M  V30 460 C 47.5252 3.473 4.24935e-05 0
M  V30 461 C 46.4792 4.18055 -0.917257 0
M  V30 462 C 45.8052 5.34519 -0.138941 0
M  V30 463 C 47.1052 4.72109 -2.23407 0
M  V30 464 H 48.7992 2.57566 -1.52643 0
M  V30 465 H 46.3452 1.23806 -0.735394 0
M  V30 466 H 48.2982 4.20426 0.286383 0
M  V30 467 H 47.0222 3.13424 0.918299 0
M  V30 468 H 45.6812 3.46821 -1.1879 0
M  V30 469 H 45.3292 4.96891 0.781562 0
M  V30 470 H 45.0292 5.82794 -0.750005 0
M  V30 471 H 46.5532 6.10438 0.1405 0
M  V30 472 H 47.9672 5.36955 -2.00879 0
M  V30 473 H 46.3642 5.30897 -2.79765 0
M  V30 474 H 47.4342 3.89807 -2.88407 0
M  V30 475 N 48.7773 0.814389 1.34928 0
M  V30 476 C 50.1883 0.458364 1.80986 0
M  V30 477 C 50.5393 -1.02042 1.67577 0
M  V30 478 O 49.6643 -1.79352 1.21086 0
M  V30 479 C 50.2593 0.825212 3.28597 0
M  V30 480 C 48.8183 0.521677 3.72767 0
M  V30 481 C 47.9653 1.04668 2.56788 0
M  V30 482 H 50.9163 1.00533 1.22795 0
M  V30 483 H 50.9373 0.12571 3.80292 0
M  V30 484 H 50.4493 1.90154 3.38324 0
M  V30 485 H 48.5503 -0.545589 3.68584 0
M  V30 486 H 48.6633 1.05977 4.67232 0
M  V30 487 H 47.0273 0.468622 2.50352 0
M  V30 488 H 47.8103 2.12927 2.6929 0
M  V30 489 N 50.2554 -1.46986 0.568584 0
M  V30 490 C 51.5034 -2.02041 0.0487022 0
M  V30 491 C 51.8244 -1.44408 -1.31039 0
M  V30 492 O 51.0944 -0.623477 -1.85714 0
M  V30 493 H 49.6744 -0.746849 0.015014 0
M  V30 494 H 52.3364 -1.80257 0.741168 0
M  V30 495 H 51.4324 -3.12085 -0.0308961 0
M  V30 496 N 51.7335 -0.305618 -1.54608 0
M  V30 497 C 52.9795 0.302746 -2.00528 0
M  V30 498 C 53.3125 1.53184 -1.19367 0
M  V30 499 O 52.5875 1.92598 -0.271321 0
M  V30 500 C 52.8705 0.654756 -3.54097 0
M  V30 501 C 52.7235 -0.583793 -4.45995 0
M  V30 502 C 54.0425 1.47947 -4.14487 0
M  V30 503 H 51.1615 0.108564 -0.72896 0
M  V30 504 H 53.8035 -0.418634 -1.85331 0
M  V30 505 H 51.9535 1.26935 -3.67178 0
M  V30 506 H 53.6255 -1.22224 -4.44814 0
M  V30 507 H 51.8685 -1.21615 -4.16404 0
M  V30 508 H 52.5395 -0.293287 -5.5122 0
M  V30 509 H 55.0155 0.96013 -4.04871 0
M  V30 510 H 53.8915 1.69454 -5.22088 0
M  V30 511 H 54.1525 2.47011 -3.66658 0
M  V30 512 N 53.2116 1.57565 -0.0334293 0
M  V30 513 C 54.4606 1.91155 0.643639 0
M  V30 514 C 54.7736 0.91192 1.73042 0
M  V30 515 O 55.9796 1.13923 2.46442 0
M  V30 516 C 54.4356 3.39443 1.1961 0
M  V30 517 C 54.0436 4.47774 0.142381 0
M  V30 518 C 55.7876 3.82094 1.84944 0
M  V30 519 C 53.6946 5.87162 0.706727 0
M  V30 520 H 52.6246 0.713368 0.244176 0
M  V30 521 H 55.2756 1.8323 -0.0994323 0
M  V30 522 H 53.6576 3.42313 1.99092 0
M  V30 523 H 54.8316 4.56469 -0.630296 0
M  V30 524 H 53.1466 4.14352 -0.412446 0
M  V30 525 H 55.7436 4.83591 2.2813 0
M  V30 526 H 56.0866 3.17386 2.69392 0
M  V30 527 H 56.6196 3.81665 1.12145 0
M  V30 528 H 53.3586 6.55424 -0.0997178 0
M  V30 529 H 52.8786 5.82064 1.44779 0
M  V30 530 H 54.5576 6.35866 1.19514 0
M  V30 531 N 54.6897 -0.239769 1.55765 0
M  V30 532 C 55.6397 -1.30002 1.87306 0
M  V30 533 C 56.6237 -1.43156 0.73452 0
M  V30 534 O 57.8157 -1.46277 0.99659 0
M  V30 535 C 54.9447 -2.65409 2.17745 0
M  V30 536 C 54.0307 -2.56231 3.37945 0
M  V30 537 N 54.4217 -2.16689 4.57033 0
M  V30 538 C 52.7197 -2.87229 3.41197 0
M  V30 539 C 53.4207 -2.18318 5.39177 0
M  V30 540 N 52.3967 -2.58098 4.78421 0
M  V30 541 H 56.1987 -0.984912 2.76906 0
M  V30 542 H 53.7127 -0.448381 1.56087 0
M  V30 543 H 55.7097 -3.41934 2.38509 0
M  V30 544 H 54.3697 -2.97781 1.29448 0
M  V30 545 H 55.3807 -1.88116 4.82528 0
M  V30 546 H 52.0577 -3.24094 2.63191 0
M  V30 547 H 53.4477 -1.90025 6.44469 0
M  V30 548 N 56.1678 -1.49265 -0.50573 0
M  V30 549 C 57.3958 -1.62215 -1.28429 0
M  V30 550 C 57.8108 -0.291697 -1.86533 0
M  V30 551 O 57.1678 0.722233 -1.67601 0
M  V30 552 C 57.2188 -2.68735 -2.41793 0
M  V30 553 O 56.9398 -3.96619 -1.86078 0
M  V30 554 C 58.4408 -2.92346 -3.3324 0
M  V30 555 H 55.6608 -0.546239 -0.389697 0
M  V30 556 H 58.2048 -1.95265 -0.607609 0
M  V30 557 H 56.3598 -2.38476 -3.053 0
M  V30 558 H 56.7738 -4.55256 -2.60465 0
M  V30 559 H 58.2478 -3.70623 -4.09075 0
M  V30 560 H 58.7248 -2.02081 -3.89948 0
M  V30 561 H 59.3308 -3.24003 -2.75503 0
M  V30 562 N 57.6459 0.756429 -1.3826 0
M  V30 563 C 59.0569 1.33359 -1.30661 0
M  V30 564 C 59.4079 1.96161 0.0388875 0
M  V30 565 O 58.5329 1.94874 0.940918 0
M  V30 566 C 59.1279 2.42477 -2.36622 0
M  V30 567 C 57.6869 2.95922 -2.3261 0
M  V30 568 C 56.8339 1.69275 -2.19639 0
M  V30 569 H 59.7849 0.55552 -1.4866 0
M  V30 570 H 59.8059 3.22345 -2.02174 0
M  V30 571 H 59.3179 1.96739 -3.34538 0
M  V30 572 H 57.4189 3.45996 -1.38267 0
M  V30 573 H 57.5319 3.50494 -3.26636 0
M  V30 574 H 55.8959 1.92793 -1.66442 0
M  V30 575 H 56.6789 1.25619 -3.19491 0
M  V30 576 N 59.124 1.23083 0.984299 0
M  V30 577 C 60.087 1.00979 2.05757 0
M  V30 578 C 61.087 -0.0269573 1.60777 0
M  V30 579 O 62.277 0.212403 1.729 0
M  V30 580 C 59.409 0.527072 3.36801 0
M  V30 581 H 60.602 1.9622 2.26799 0
M  V30 582 H 58.155 1.05072 1.15714 0
M  V30 583 H 58.89 -0.429294 3.21446 0
M  V30 584 H 58.675 1.27515 3.70786 0
M  V30 585 H 60.165 0.392942 4.15747 0
M  V30 586 N 60.6021 -1.18246 1.0419 0
M  V30 587 C 62.0181 -1.40269 0.761366 0
M  V30 588 C 62.2181 -1.90777 -0.648578 0
M  V30 589 O 61.2741 -2.0929 -1.41258 0
M  V30 590 C 62.5871 -2.40237 1.8085 0
M  V30 591 C 64.1351 -2.53961 1.82955 0
M  V30 592 C 64.6101 -3.57194 2.86664 0
M  V30 593 N 66.1011 -3.64702 2.85563 0
M  V30 594 C 66.8361 -4.44309 3.6246 0
M  V30 595 N 66.3321 -5.27514 4.49111 0
M  V30 596 N 68.1251 -4.39084 3.50944 0
M  V30 597 H 60.2761 -0.837882 1.95175 0
M  V30 598 H 62.5391 -0.430608 0.84456 0
M  V30 599 H 62.2451 -2.10176 2.81991 0
M  V30 600 H 62.1191 -3.39601 1.64168 0
M  V30 601 H 64.5061 -2.83338 0.824855 0
M  V30 602 H 64.5871 -1.54706 2.03715 0
M  V30 603 H 64.2311 -3.28558 3.87314 0
M  V30 604 H 64.1611 -4.5613 2.6316 0
M  V30 605 H 66.6521 -3.05289 2.22727 0
M  V30 606 H 66.9651 -5.85411 5.04493 0
M  V30 607 H 65.3101 -5.2693 4.53178 0
M  V30 608 H 68.5011 -3.7313 2.82651 0
M  V30 609 H 68.6741 -5.00883 4.11121 0
M  V30 610 N 62.0802 -0.821533 -1.34494 0
M  V30 611 C 63.4962 -0.507117 -1.51329 0
M  V30 612 C 63.6962 0.968964 -1.76673 0
M  V30 613 O 62.7522 1.75348 -1.81685 0
M  V30 614 C 64.0652 -1.36544 -2.67911 0
M  V30 615 C 65.6132 -1.36242 -2.81793 0
M  V30 616 C 66.0882 -2.2052 -4.01416 0
M  V30 617 N 67.5792 -2.18136 -4.08621 0
M  V30 618 C 68.3142 -2.80095 -5.00334 0
M  V30 619 N 67.8102 -3.51039 -5.9728 0
M  V30 620 N 69.6032 -2.69656 -4.93196 0
M  V30 621 H 61.7542 -1.77729 -1.16302 0
M  V30 622 H 64.0172 -0.757291 -0.570276 0
M  V30 623 H 63.7232 -2.41361 -2.55808 0
M  V30 624 H 63.5972 -1.02917 -3.62888 0
M  V30 625 H 65.9842 -0.322041 -2.93338 0
M  V30 626 H 66.0652 -1.73866 -1.87628 0
M  V30 627 H 65.7092 -3.24607 -3.90631 0
M  V30 628 H 65.6392 -1.80247 -4.94791 0
M  V30 629 H 68.1302 -1.6653 -3.39229 0
M  V30 630 H 68.4432 -3.95565 -6.63889 0
M  V30 631 H 66.7882 -3.55145 -5.97409 0
M  V30 632 H 69.9792 -2.13808 -4.16418 0
M  V30 633 H 70.1522 -3.1823 -5.64476 0
M  V30 634 N 63.5583 1.46682 -0.576371 0
M  V30 635 C 64.8063 2.02013 -0.0594163 0
M  V30 636 C 65.1273 1.45101 1.30271 0
M  V30 637 O 64.3973 0.633317 1.8538 0
M  V30 638 H 62.9773 0.746759 -0.0189745 0
M  V30 639 H 65.6393 1.79862 -0.750717 0
M  V30 640 H 64.7353 3.12097 0.014345 0
M  V30 641 N 65.0364 0.313813 1.54444 0
M  V30 642 C 66.2834 -0.291675 2.00388 0
M  V30 643 C 66.6114 -1.52904 1.2021 0
M  V30 644 O 65.8664 -1.93833 0.269707 0
M  V30 645 C 66.1654 -0.680386 3.50864 0
M  V30 646 C 65.8314 0.456699 4.48581 0
M  V30 647 C 64.4934 0.768824 4.75018 0
M  V30 648 C 66.8454 1.22098 5.06697 0
M  V30 649 C 64.1734 1.84812 5.56831 0
M  V30 650 C 66.5254 2.29029 5.89685 0
M  V30 651 C 65.1894 2.60834 6.14428 0
M  V30 652 H 64.4594 -0.106732 0.733273 0
M  V30 653 H 67.1064 0.43557 1.86481 0
M  V30 654 H 65.4114 -1.48791 3.62448 0
M  V30 655 H 67.1084 -1.16026 3.83847 0
M  V30 656 H 63.6984 0.203337 4.28117 0
M  V30 657 H 67.8824 0.993096 4.86263 0
M  V30 658 H 63.1384 2.09912 5.74236 0
M  V30 659 H 67.3124 2.887 6.33739 0
M  V30 660 H 64.9394 3.44596 6.77612 0
M  V30 661 N 66.5145 -1.57545 0.0417849 0
M  V30 662 C 67.7615 -1.92317 -0.634082 0
M  V30 663 C 68.0895 -0.919334 -1.71402 0
M  V30 664 O 67.3445 0.0698253 -1.95575 0
M  V30 665 C 67.6435 -3.33794 -1.27735 0
M  V30 666 C 67.3095 -4.49716 -0.326543 0
M  V30 667 C 65.9715 -4.81156 -0.0648814 0
M  V30 668 C 68.3235 -5.20182 0.325623 0
M  V30 669 C 65.6515 -5.80414 0.856539 0
M  V30 670 C 68.0035 -6.20424 1.23518 0
M  V30 671 C 66.6675 -6.50298 1.5056 0
M  V30 672 H 65.9375 -0.703736 -0.232027 0
M  V30 673 H 68.5845 -1.91205 0.106259 0
M  V30 674 H 66.8895 -3.31228 -2.09274 0
M  V30 675 H 68.5865 -3.57975 -1.80707 0
M  V30 676 H 65.1765 -4.25176 -0.540665 0
M  V30 677 H 69.3605 -4.96112 0.136546 0
M  V30 678 H 64.6165 -6.019 1.07363 0
M  V30 679 H 68.7905 -6.74141 1.74664 0
M  V30 680 H 66.4175 -7.27025 2.22123 0
M  V30 681 N 67.9926 0.231505 -1.5589 0
M  V30 682 C 69.4086 0.580748 -1.48659 0
M  V30 683 C 69.6086 1.87617 -0.73498 0
M  V30 684 O 68.6646 2.51046 -0.270586 0
M  V30 685 C 69.9776 0.669202 -2.93159 0
M  V30 686 C 71.5256 0.760499 -3.03621 0
M  V30 687 C 72.0006 0.880383 -4.49459 0
M  V30 688 N 73.4916 0.944861 -4.53461 0
M  V30 689 C 74.2266 1.05716 -5.63571 0
M  V30 690 N 73.7226 1.13403 -6.83456 0
M  V30 691 N 75.5156 1.09152 -5.514 0
M  V30 692 H 67.6666 -0.618695 -2.03189 0
M  V30 693 H 69.9296 -0.215728 -0.923128 0
M  V30 694 H 69.6356 -0.212904 -3.51055 0
M  V30 695 H 69.5096 1.5361 -3.44505 0
M  V30 696 H 71.8966 1.63305 -2.45796 0
M  V30 697 H 71.9776 -0.131864 -2.5546 0
M  V30 698 H 71.6216 0.0123284 -5.07899 0
M  V30 699 H 71.5516 1.78802 -4.95316 0
M  V30 700 H 74.0426 0.896176 -3.6712 0
M  V30 701 H 74.3556 1.21921 -7.63122 0
M  V30 702 H 72.7006 1.10333 -6.86186 0
M  V30 703 H 75.8916 1.02805 -4.56671 0
M  V30 704 H 76.0646 1.17558 -6.37247 0
M  V30 705 N 69.4707 1.49531 0.497807 0
M  V30 706 C 70.6957 1.63159 1.28039 0
M  V30 707 C 71.1207 0.30418 1.85624 0
M  V30 708 O 70.4787 -0.728618 1.66015 0
M  V30 709 C 70.5267 2.70537 2.38416 0
M  V30 710 O 69.6307 2.29931 3.42353 0
M  V30 711 H 68.9717 0.546001 0.377861 0
M  V30 712 H 71.5017 1.9574 0.59558 0
M  V30 713 H 71.5117 2.92802 2.84132 0
M  V30 714 H 70.1867 3.6689 1.95869 0
M  V30 715 H 68.7637 2.18009 3.02533 0
M  V30 716 N 70.9488 -0.749086 1.3866 0
M  V30 717 C 71.8968 -1.88428 1.36373 0
M  V30 718 C 72.8908 -1.67561 0.248929 0
M  V30 719 O 74.0968 -1.75074 0.41821 0
M  V30 720 H 70.4718 -0.620023 0.42553 0
M  V30 721 H 72.4428 -1.87473 2.32156 0
M  V30 722 C 71.1918 -3.25961 1.21014 0
M  V30 723 H 70.5148 -3.42607 2.06059 0
M  V30 724 H 71.9548 -4.05625 1.23469 0
M  V30 725 C 70.4138 -3.36799 -0.0825941 0
M  V30 726 O 70.9438 -3.87517 -1.05797 0
M  V30 727 N 69.1498 -2.90258 -0.140939 0
M  V30 728 H 68.6968 -2.49174 0.653477 0
M  V30 729 H 68.6548 -2.97889 -1.00545 0
M  V30 730 N 72.4269 -1.23603 -0.977757 0
M  V30 731 C 73.8379 -1.06424 -1.53398 0
M  V30 732 C 74.1889 0.367578 -1.92726 0
M  V30 733 O 73.3139 1.25465 -1.76316 0
M  V30 734 C 73.9089 -1.92568 -2.78753 0
M  V30 735 C 72.4679 -1.79642 -3.30765 0
M  V30 736 C 71.6149 -1.88111 -2.03739 0
M  V30 737 H 74.5659 -1.37227 -0.797152 0
M  V30 738 H 74.5869 -1.45203 -3.51705 0
M  V30 739 H 74.0989 -2.96771 -2.50098 0
M  V30 740 H 72.1999 -0.782325 -3.64294 0
M  V30 741 H 72.3129 -2.63174 -4.00345 0
M  V30 742 H 70.6769 -1.31723 -2.17994 0
M  V30 743 H 71.4599 -2.93875 -1.77461 0
M  V30 744 N 73.905 1.17692 -1.04816 0
M  V30 745 C 74.815 2.25229 -0.65643 0
M  V30 746 C 75.831 1.71018 0.320761 0
M  V30 747 O 77.007 2.00649 0.173805 0
M  V30 748 C 74.072 3.46684 -0.0332629 0
M  V30 749 C 73.133 4.15997 -1.06042 0
M  V30 750 C 72.366 5.31654 -0.466893 0
M  V30 751 O 72.589 5.65777 0.724758 0
M  V30 752 O 71.523 5.89831 -1.1993 0
M  V30 753 H 75.349 2.61016 -1.55255 0
M  V30 754 H 72.934 1.24919 -0.81949 0
M  V30 755 H 74.816 4.20234 0.313256 0
M  V30 756 H 73.491 3.12703 0.836566 0
M  V30 757 H 72.398 3.44482 -1.45886 0
M  V30 758 H 73.731 4.53996 -1.90127 0
M  V30 759 N 75.3831 0.828654 1.34056 0
M  V30 760 C 76.7991 0.515135 1.51058 0
M  V30 761 C 76.9991 -0.959581 1.77184 0
M  V30 762 O 76.0551 -1.74382 1.82612 0
M  V30 763 C 77.3681 1.37963 2.67183 0
M  V30 764 C 78.9161 1.37735 2.81066 0
M  V30 765 C 79.3911 2.22645 4.00241 0
M  V30 766 N 80.8821 2.203 4.07458 0
M  V30 767 C 81.6171 2.82744 4.98842 0
M  V30 768 N 81.1131 3.54201 5.9541 0
M  V30 769 N 82.9061 2.72268 4.91759 0
M  V30 770 H 75.0571 1.78343 1.15358 0
M  V30 771 H 77.3201 0.760304 0.566252 0
M  V30 772 H 77.0261 2.42714 2.54525 0
M  V30 773 H 76.9001 1.0484 3.62338 0
M  V30 774 H 79.2871 0.337593 2.93163 0
M  V30 775 H 79.3681 1.74859 1.86703 0
M  V30 776 H 79.0121 3.26674 3.88905 0
M  V30 777 H 78.9421 1.82869 4.93829 0
M  V30 778 H 81.4331 1.68327 3.38341 0
M  V30 779 H 81.7461 3.9908 6.61782 0
M  V30 780 H 80.0911 3.58308 5.95517 0
M  V30 781 H 83.2821 2.16014 4.15278 0
M  V30 782 H 83.4551 3.21219 5.62781 0
M  V30 783 N 76.8612 -1.46375 0.584142 0
M  V30 784 C 78.1102 -2.01585 0.0679741 0
M  V30 785 C 78.4232 -1.46109 -1.30045 0
M  V30 786 O 79.6292 -1.93148 -1.90804 0
M  V30 787 C 78.0852 -3.5983 0.0709207 0
M  V30 788 C 77.6932 -4.24303 1.43775 0
M  V30 789 C 79.4372 -4.22693 -0.391228 0
M  V30 790 C 77.3442 -5.74631 1.39834 0
M  V30 791 H 76.2742 -0.753689 0.0216421 0
M  V30 792 H 78.9252 -1.68093 0.736001 0
M  V30 793 H 77.3072 -3.90405 -0.663299 0
M  V30 794 H 78.4812 -4.05335 2.19181 0
M  V30 795 H 76.7962 -3.73539 1.84004 0
M  V30 796 H 79.3932 -5.3289 -0.439524 0
M  V30 797 H 79.7362 -3.91728 -1.40906 0
M  V30 798 H 80.2692 -3.96749 0.288974 0
M  V30 799 H 77.0082 -6.10258 2.39303 0
M  V30 800 H 76.5282 -5.95858 0.686505 0
M  V30 801 H 78.2072 -6.37375 1.11187 0
M  V30 802 N 78.3393 -0.321999 -1.54275 0
M  V30 803 C 79.2713 0.578671 -2.21775 0
M  V30 804 C 80.2843 1.08109 -1.21722 0
M  V30 805 O 81.4733 0.994938 -1.482 0
M  V30 806 C 78.5733 1.80661 -2.86731 0
M  V30 807 C 77.7463 1.44314 -4.12907 0
M  V30 808 C 76.8053 2.52845 -4.61472 0
M  V30 809 O 75.8313 2.17054 -5.2619 0
M  V30 810 N 77.0333 3.83748 -4.35566 0
M  V30 811 H 79.7983 0.000709447 -2.997 0
M  V30 812 H 77.3593 -0.145132 -1.61248 0
M  V30 813 H 79.3513 2.52655 -3.16145 0
M  V30 814 H 77.9213 2.29245 -2.12521 0
M  V30 815 H 77.1413 0.554906 -3.90275 0
M  V30 816 H 78.4293 1.17598 -4.95023 0
M  V30 817 H 77.8273 4.15625 -3.83761 0
M  V30 818 H 76.3843 4.51977 -4.69638 0
M  V30 819 N 79.8174 1.5752 -0.0501392 0
M  V30 820 C 81.0664 1.91827 0.623328 0
M  V30 821 C 81.3794 0.930222 1.72065 0
M  V30 822 O 82.5854 1.1653 2.4522 0
M  V30 823 C 81.0414 3.40692 1.16003 0
M  V30 824 C 80.6494 4.479 0.0948811 0
M  V30 825 C 82.3934 3.84034 1.80881 0
M  V30 826 C 80.3004 5.87879 0.644411 0
M  V30 827 H 79.2304 0.715918 0.236596 0
M  V30 828 H 81.8814 1.83115 -0.118861 0
M  V30 829 H 80.2634 3.44405 1.9545 0
M  V30 830 H 81.4374 4.55775 -0.678675 0
M  V30 831 H 79.7524 4.13892 -0.45637 0
M  V30 832 H 82.3494 4.85984 2.22988 0
M  V30 833 H 82.6924 3.20225 2.6601 0
M  V30 834 H 83.2254 3.82833 1.0809 0
M  V30 835 H 79.9644 6.55282 -0.169229 0
M  V30 836 H 79.4844 5.83567 1.38598 0
M  V30 837 H 81.1634 6.37098 1.12763 0
M  V30 838 N 81.2955 -0.223234 1.56011 0
M  V30 839 C 82.5435 -0.946003 1.78592 0
M  V30 840 C 82.8645 -1.84936 0.618349 0
M  V30 841 O 82.1345 -1.92473 -0.364833 0
M  V30 842 H 80.7145 -0.352298 0.658707 0
M  V30 843 H 83.3765 -0.235494 1.93472 0
M  V30 844 H 82.4725 -1.55381 2.70672 0
M  V30 845 N 82.7736 -1.49793 -0.48987 0
M  V30 846 C 84.0506 -1.50348 -1.25119 0
M  V30 847 C 84.4306 -0.237466 -2.0976 0
M  V30 848 O 83.7786 0.77981 -2.14782 0
M  V30 849 C 83.9886 -2.78872 -2.09837 0
M  V30 850 C 85.3366 -3.288 -2.68655 0
M  V30 851 O 86.3606 -2.80065 -2.20096 0
M  V30 852 O 85.2196 -4.13707 -3.57083 0
M  V30 853 H 82.3136 -0.602242 -0.566775 0
M  V30 854 H 84.8596 -1.62067 -0.503229 0
M  V30 855 H 83.6316 -3.62499 -1.47343 0
M  V30 856 H 83.2546 -2.70066 -2.91805 0
M  V30 857 N 84.2517 0.741722 -1.39055 0
M  V30 858 C 85.4977 1.50234 -1.37118 0
M  V30 859 C 85.8527 1.92368 0.0350439 0
M  V30 860 O 85.1457 1.63422 1.00019 0
M  V30 861 C 85.3397 2.7592 -2.27163 0
M  V30 862 C 85.1687 2.46074 -3.76401 0
M  V30 863 C 83.9387 2.38704 -4.45364 0
M  V30 864 C 86.1367 2.12062 -4.68545 0
M  V30 865 N 84.1187 2.01258 -5.79973 0
M  V30 866 C 85.4897 1.85005 -5.91754 0
M  V30 867 C 87.5447 1.98473 -4.56632 0
M  V30 868 C 86.2477 1.4573 -7.04383 0
M  V30 869 C 88.2737 1.60599 -5.69176 0
M  V30 870 C 87.6357 1.34423 -6.91455 0
M  V30 871 H 83.7347 0.548858 -0.557027 0
M  V30 872 H 86.3187 0.862642 -1.74547 0
M  V30 873 H 84.4897 3.3768 -1.91904 0
M  V30 874 H 86.2217 3.42068 -2.16267 0
M  V30 875 H 82.9767 2.55574 -3.98721 0
M  V30 876 H 83.4007 1.85147 -6.51191 0
M  V30 877 H 88.0427 2.17381 -3.62637 0
M  V30 878 H 85.7607 1.25562 -7.98286 0
M  V30 879 H 89.3467 1.507 -5.61944 0
M  V30 880 H 88.2267 1.05555 -7.77064 0
M  V30 881 N 85.7298 1.2412 0.971189 0
M  V30 882 C 87.1458 1.00584 1.23916 0
M  V30 883 C 87.3458 -0.287481 1.99439 0
M  V30 884 O 86.4018 -1.00454 2.31658 0
M  V30 885 C 87.7148 2.21864 2.0297 0
M  V30 886 C 89.2628 2.26452 2.16076 0
M  V30 887 C 89.7378 3.47343 2.98524 0
M  V30 888 N 91.2288 3.47639 3.06107 0
M  V30 889 C 91.9638 4.37837 3.70251 0
M  V30 890 N 91.4598 5.38286 4.36142 0
M  V30 891 N 93.2528 4.25558 3.67228 0
M  V30 892 H 85.4038 2.07236 0.465499 0
M  V30 893 H 87.6668 0.909236 0.268315 0
M  V30 894 H 87.3728 3.15771 1.54861 0
M  V30 895 H 87.2468 2.23698 3.03709 0
M  V30 896 H 89.6338 1.33078 2.6339 0
M  V30 897 H 89.7148 2.28645 1.14696 0
M  V30 898 H 89.3588 4.41029 2.51905 0
M  V30 899 H 89.2888 3.42393 4.00093 0
M  V30 900 H 91.7798 2.74966 2.59233 0
M  V30 901 H 92.0928 6.03352 4.82894 0
M  V30 902 H 90.4378 5.42176 4.34822 0
M  V30 903 H 93.6288 3.46322 3.14927 0
M  V30 904 H 93.8018 4.96054 4.16935 0
M  V30 905 N 87.2079 -1.17134 1.05439 0
M  V30 906 C 88.4379 -1.91094 0.785274 0
M  V30 907 C 88.8459 -1.77198 -0.663142 0
M  V30 908 O 88.1889 -1.10835 -1.46497 0
M  V30 909 C 88.2509 -3.42594 1.08949 0
M  V30 910 C 87.9149 -3.80274 2.53458 0
M  V30 911 C 88.9119 -3.82912 3.51673 0
M  V30 912 C 86.5969 -4.11162 2.88532 0
M  V30 913 C 88.5909 -4.15913 4.83006 0
M  V30 914 C 86.2779 -4.43831 4.20068 0
M  V30 915 C 87.2759 -4.46185 5.17115 0
M  V30 916 O 86.9639 -4.78083 6.46291 0
M  V30 917 H 86.6959 -0.613073 0.284811 0
M  V30 918 H 89.2499 -1.49461 1.40893 0
M  V30 919 H 87.4799 -3.84534 0.408741 0
M  V30 920 H 89.1689 -3.97817 0.805991 0
M  V30 921 H 89.9349 -3.5917 3.25917 0
M  V30 922 H 85.8139 -4.085 2.13656 0
M  V30 923 H 89.3579 -4.17665 5.5875 0
M  V30 924 H 85.2549 -4.67037 4.45586 0
M  V30 925 H 86.0229 -4.9593 6.51149 0
M  V30 926 N 88.686 -0.835752 -1.33615 0
M  V30 927 C 89.596 -0.269088 -2.33052 0
M  V30 928 C 90.612 0.603251 -1.63208 0
M  V30 929 O 91.788 0.508112 -1.94885 0
M  V30 930 C 88.853 0.549091 -3.42324 0
M  V30 931 C 87.914 -0.347156 -4.27894 0
M  V30 932 C 87.147 0.43207 -5.31948 0
M  V30 933 O 87.37 1.66409 -5.45586 0
M  V30 934 O 86.304 -0.192298 -6.01593 0
M  V30 935 H 90.13 -1.09243 -2.83372 0
M  V30 936 H 87.715 -0.598198 -1.36901 0
M  V30 937 H 89.597 1.01414 -4.09015 0
M  V30 938 H 88.272 1.34955 -2.94226 0
M  V30 939 H 87.179 -0.859979 -3.64081 0
M  V30 940 H 88.512 -1.1123 -4.79467 0
M  V30 941 N 90.1641 1.46063 -0.591896 0
M  V30 942 C 91.4101 2.02638 -0.0811191 0
M  V30 943 C 91.7431 1.4613 1.27905 0
M  V30 944 O 91.0181 0.629908 1.84017 0
M  V30 945 C 91.3011 3.60091 -0.0252436 0
M  V30 946 C 91.1541 4.26965 -1.41496 0
M  V30 947 C 92.4731 4.3496 0.670685 0
M  V30 948 H 89.5921 0.73635 -0.0309524 0
M  V30 949 H 92.2341 1.741 -0.760859 0
M  V30 950 H 90.3841 3.84535 0.553624 0
M  V30 951 H 92.0561 4.13756 -2.0397 0
M  V30 952 H 90.2991 3.85971 -1.98011 0
M  V30 953 H 90.9701 5.35781 -1.32825 0
M  V30 954 H 93.4461 4.15716 0.178825 0
M  V30 955 H 92.3221 5.44686 0.678837 0
M  V30 956 H 92.5831 4.06685 1.73379 0
M  V30 957 N 91.6422 0.330177 1.54103 0
M  V30 958 C 92.6052 -0.520144 2.2322 0
M  V30 959 C 93.6052 -1.03828 1.22786 0
M  V30 960 O 94.7952 -0.929652 1.4732 0
M  V30 961 C 91.9272 -1.72317 2.94142 0
M  V30 962 H 93.1202 0.0841605 2.99782 0
M  V30 963 H 90.6732 0.0813433 1.56088 0
M  V30 964 H 91.4082 -2.36653 2.21734 0
M  V30 965 H 91.1932 -1.35898 3.67796 0
M  V30 966 H 92.6832 -2.3266 3.46784 0
M  V30 967 N 93.1203 -1.57491 0.0584922 0
M  V30 968 C 94.0703 -2.08474 -0.923188 0
M  V30 969 C 95.0543 -0.991479 -1.26722 0
M  V30 970 O 96.2463 -1.25473 -1.24842 0
M  V30 971 C 93.3753 -2.6392 -2.19548 0
M  V30 972 C 92.4613 -3.80227 -1.87852 0
M  V30 973 N 92.8523 -4.89714 -1.26546 0
M  V30 974 C 91.1503 -3.89271 -2.17679 0
M  V30 975 C 91.8513 -5.70689 -1.12644 0
M  V30 976 N 90.8273 -5.18531 -1.63176 0
M  V30 977 H 94.6293 -2.90517 -0.444653 0
M  V30 978 H 92.1433 -1.61745 -0.145764 0
M  V30 979 H 94.1403 -2.98752 -2.9078 0
M  V30 980 H 92.8003 -1.83318 -2.68001 0
M  V30 981 H 93.8113 -5.09358 -0.936757 0
M  V30 982 H 90.4883 -3.19623 -2.68602 0
M  V30 983 H 91.8783 -6.6875 -0.6499 0
M  V30 984 N 94.5984 0.214957 -1.56127 0
M  V30 985 C 95.8754 0.963093 -1.70247 0
M  V30 986 C 96.2554 2.02166 -0.60764 0
M  V30 987 O 95.6034 2.25244 0.384385 0
M  V30 988 C 95.8134 1.56756 -3.11815 0
M  V30 989 C 97.1614 2.0573 -3.7143 0
M  V30 990 O 98.1854 1.66637 -3.14818 0
M  V30 991 O 97.0444 2.77603 -4.70743 0
M  V30 992 H 94.1384 0.450321 -0.693643 0
M  V30 993 H 96.6844 0.206219 -1.68442 0
M  V30 994 H 95.4564 0.803533 -3.82961 0
M  V30 995 H 95.0794 2.3898 -3.17765 0
M  V30 996 N 96.0765 1.50051 0.48192 0
M  V30 997 C 97.3245 1.60181 1.23234 0
M  V30 998 C 97.6455 0.299176 1.92691 0
M  V30 999 O 96.9155 -0.682708 1.83619 0
M  V30 1000 H 95.4955 0.590232 0.457859 0
M  V30 1001 H 98.1575 1.86775 0.556881 0
M  V30 1002 H 97.2535 2.40753 1.98607 0
M  V30 1003 N 97.5546 -0.734337 1.39446 0
M  V30 1004 C 98.9706 -1.03997 1.21065 0
M  V30 1005 C 99.1706 -2.01369 0.0727019 0
M  V30 1006 O 98.2266 -2.45856 -0.575426 0
M  V30 1007 C 99.5396 -1.60163 2.54496 0
M  V30 1008 C 101.088 -1.7224 2.61347 0
M  V30 1009 C 101.563 -2.31814 3.95002 0
M  V30 1010 N 103.054 -2.39223 3.96644 0
M  V30 1011 C 103.789 -2.86258 4.96834 0
M  V30 1012 N 103.285 -3.33184 6.07421 0
M  V30 1013 N 105.078 -2.85473 4.84213 0
M  V30 1014 H 97.2286 -0.0885624 2.12215 0
M  V30 1015 H 99.4916 -0.10191 0.942506 0
M  V30 1016 H 99.1976 -0.960811 3.38321 0
M  V30 1017 H 99.0716 -2.5896 2.74262 0
M  V30 1018 H 101.459 -2.35443 1.77906 0
M  V30 1019 H 101.54 -0.720939 2.4543 0
M  V30 1020 H 101.184 -1.69238 4.78875 0
M  V30 1021 H 101.114 -3.32638 4.08239 0
M  V30 1022 H 103.605 -2.06057 3.16779 0
M  V30 1023 H 103.918 -3.67586 6.7978 0
M  V30 1024 H 102.263 -3.31191 6.11013 0
M  V30 1025 H 105.454 -2.48136 3.96921 0
M  V30 1026 H 105.627 -3.21814 5.62441 0
M  V30 1027 N 99.0327 -1.24633 -0.964593 0
M  V30 1028 C 99.9627 -1.06611 -2.07741 0
M  V30 1029 C 100.944 0.0218666 -1.70086 0
M  V30 1030 O 102.129 -0.145793 -1.93652 0
M  V30 1031 C 99.2587 -0.673444 -3.40708 0
M  V30 1032 C 98.2127 -1.71054 -3.92332 0
M  V30 1033 C 97.5387 -1.17285 -5.21678 0
M  V30 1034 C 98.8387 -3.10718 -4.19824 0
M  V30 1035 H 100.533 -1.99693 -2.23076 0
M  V30 1036 H 98.0787 -0.96152 -1.07195 0
M  V30 1037 H 100.032 -0.534345 -4.17998 0
M  V30 1038 H 98.7557 0.293073 -3.25282 0
M  V30 1039 H 97.4147 -1.83791 -3.17201 0
M  V30 1040 H 97.0627 -0.196847 -5.02615 0
M  V30 1041 H 96.7627 -1.86592 -5.57187 0
M  V30 1042 H 98.2867 -1.04593 -6.01575 0
M  V30 1043 H 99.7007 -3.01192 -4.87808 0
M  V30 1044 H 98.0977 -3.77406 -4.66567 0
M  V30 1045 H 99.1677 -3.58524 -3.26479 0
M  V30 1046 N 100.511 1.16574 -1.06058 0
M  V30 1047 C 101.441 2.23057 -0.690488 0
M  V30 1048 C 102.422 1.67141 0.315901 0
M  V30 1049 O 103.607 1.93253 0.191556 0
M  V30 1050 C 100.737 3.47222 -0.073625 0
M  V30 1051 C 99.6908 4.16016 -1.00573 0
M  V30 1052 C 99.0168 5.34104 -0.252289 0
M  V30 1053 C 100.317 4.67264 -2.33371 0
M  V30 1054 H 102.011 2.54271 -1.58072 0
M  V30 1055 H 99.5568 1.22218 -0.76149 0
M  V30 1056 H 101.51 4.20939 0.19714 0
M  V30 1057 H 100.234 3.15302 0.85161 0
M  V30 1058 H 98.8928 3.44223 -1.2612 0
M  V30 1059 H 98.5408 4.98437 0.675988 0
M  V30 1060 H 98.2408 5.81072 -0.873455 0
M  V30 1061 H 99.7648 6.10599 0.0109857 0
M  V30 1062 H 101.179 5.32573 -2.12223 0
M  V30 1063 H 99.5758 5.24843 -2.90963 0
M  V30 1064 H 100.646 3.83602 -2.96611 0
M  V30 1065 N 101.989 0.842826 1.3317 0
M  V30 1066 C 102.952 0.284065 2.27433 0
M  V30 1067 C 103.952 -0.54948 1.5112 0
M  V30 1068 O 105.142 -0.362699 1.70382 0
M  V30 1069 C 102.274 -0.599384 3.35589 0
M  V30 1070 H 103.467 1.11589 2.78366 0
M  V30 1071 H 101.02 0.616221 1.4364 0
M  V30 1072 H 101.755 -1.45349 2.89904 0
M  V30 1073 H 101.54 -0.00291266 3.921 0
M  V30 1074 H 103.03 -0.983488 4.05854 0
M  V30 1075 N 103.467 -1.45747 0.599634 0
M  V30 1076 C 104.43 -2.28917 -0.113835 0
M  V30 1077 C 105.43 -1.3933 -0.802729 0
M  V30 1078 O 106.62 -1.61534 -0.652103 0
M  V30 1079 C 103.752 -3.20152 -1.17114 0
M  V30 1080 H 104.945 -2.93478 0.617289 0
M  V30 1081 H 102.498 -1.52137 0.358327 0
M  V30 1082 H 103.233 -2.60374 -1.93329 0
M  V30 1083 H 103.018 -3.86133 -0.681468 0
M  V30 1084 H 104.508 -3.82708 -1.67105 0
M  V30 1085 N 104.945 -0.338344 -1.53925 0
M  V30 1086 C 105.895 0.536712 -2.21593 0
M  V30 1087 C 106.879 1.07015 -1.20153 0
M  V30 1088 O 108.071 1.00471 -1.45721 0
M  V30 1089 C 105.2 1.68977 -2.98834 0
M  V30 1090 C 104.286 1.17052 -4.07627 0
M  V30 1091 N 104.677 0.372085 -5.0443 0
M  V30 1092 C 102.975 1.44789 -4.21844 0
M  V30 1093 C 103.676 0.0909171 -5.81629 0
M  V30 1094 N 102.652 0.681131 -5.39316 0
M  V30 1095 H 106.454 -0.0804298 -2.9379 0
M  V30 1096 H 103.968 -0.144943 -1.61752 0
M  V30 1097 H 105.965 2.32857 -3.45808 0
M  V30 1098 H 104.625 2.31024 -2.28162 0
M  V30 1099 H 105.636 0.0136217 -5.17898 0
M  V30 1100 H 102.313 2.07313 -3.62391 0
M  V30 1101 H 103.703 -0.552817 -6.69622 0
M  V30 1102 N 106.423 1.57458 -0.0668435 0
M  V30 1103 C 107.356 2.08033 0.93795 0
M  V30 1104 C 108.334 0.984321 1.29421 0
M  V30 1105 O 109.518 1.25736 1.40437 0
M  V30 1106 C 106.645 2.53388 2.24749 0
M  V30 1107 C 105.691 3.74376 2.04315 0
M  V30 1108 S 106.524 5.19303 1.30706 0
M  V30 1109 C 107.68 5.67986 2.62951 0
M  V30 1110 H 107.913 2.92935 0.50759 0
M  V30 1111 H 105.446 1.5371 0.145804 0
M  V30 1112 H 107.404 2.8018 3.00016 0
M  V30 1113 H 106.065 1.68763 2.64911 0
M  V30 1114 H 105.258 4.04083 3.01218 0
M  V30 1115 H 104.86 3.47931 1.37186 0
M  V30 1116 H 107.152 5.74528 3.5906 0
M  V30 1117 H 108.095 6.66955 2.3786 0
M  V30 1118 H 108.503 4.95781 2.69929 0
M  V30 1119 N 107.901 -0.206675 1.56239 0
M  V30 1120 C 109.147 -0.930218 1.80208 0
M  V30 1121 C 109.48 -1.83387 0.638981 0
M  V30 1122 O 108.755 -1.91119 -0.361066 0
M  V30 1123 C 109.038 -1.75641 3.1436 0
M  V30 1124 C 108.891 -0.878257 4.41142 0
M  V30 1125 C 110.21 -2.73129 3.45092 0
M  V30 1126 H 107.329 -0.336742 0.655571 0
M  V30 1127 H 109.971 -0.198222 1.88963 0
M  V30 1128 H 108.121 -2.38048 3.07027 0
M  V30 1129 H 109.793 -0.269787 4.6051 0
M  V30 1130 H 108.036 -0.184385 4.33408 0
M  V30 1131 H 108.707 -1.49106 5.3148 0
M  V30 1132 H 111.183 -2.20856 3.52649 0
M  V30 1133 H 110.059 -3.28028 4.40101 0
M  V30 1134 H 110.32 -3.51606 2.68003 0
M  V30 1135 N 109.379 -1.50304 -0.473955 0
M  V30 1136 C 110.327 -1.69482 -1.59307 0
M  V30 1137 C 111.321 -0.560669 -1.59853 0
M  V30 1138 O 112.527 -0.741087 -1.64036 0
M  V30 1139 H 108.902 -0.534892 -0.528578 0
M  V30 1140 H 110.873 -2.63364 -1.40293 0
M  V30 1141 C 109.622 -1.80354 -2.97267 0
M  V30 1142 H 108.945 -2.67012 -2.97564 0
M  V30 1143 H 110.385 -1.97798 -3.75036 0
M  V30 1144 C 108.844 -0.55448 -3.32306 0
M  V30 1145 O 109.374 0.307661 -4.0052 0
M  V30 1146 N 107.58 -0.409354 -2.87702 0
M  V30 1147 H 107.127 -1.11196 -2.32364 0
M  V30 1148 H 107.085 0.425223 -3.11511 0
M  V30 1149 N 110.857 0.726932 -1.39834 0
M  V30 1150 C 112.105 1.4837 -1.37225 0
M  V30 1151 C 112.426 1.94979 0.0284857 0
M  V30 1152 O 111.696 1.69555 0.981213 0
M  V30 1153 H 110.276 0.55043 -0.505011 0
M  V30 1154 H 112.938 0.862468 -1.74778 0
M  V30 1155 H 112.034 2.36198 -2.04003 0
M  V30 1156 N 112.336 1.25143 0.95797 0
M  V30 1157 C 113.585 1.0909 1.69654 0
M  V30 1158 C 113.898 -0.368548 1.92097 0
M  V30 1159 O 115.104 -0.649455 2.63618 0
M  V30 1160 C 113.56 1.90395 3.05414 0
M  V30 1161 C 113.168 3.4081 2.90779 0
M  V30 1162 C 114.912 1.82901 3.83076 0
M  V30 1163 C 112.819 4.14423 4.21909 0
M  V30 1164 H 111.749 0.404625 0.636235 0
M  V30 1165 H 114.4 1.4931 1.06672 0
M  V30 1166 H 112.782 1.42996 3.69281 0
M  V30 1167 H 113.956 3.95859 2.35865 0
M  V30 1168 H 112.271 3.49361 2.26575 0
M  V30 1169 H 114.868 2.35196 4.80195 0
M  V30 1170 H 115.211 0.796224 4.08615 0
M  V30 1171 H 115.744 2.28033 3.25954 0
M  V30 1172 H 112.483 5.18102 4.01561 0
M  V30 1173 H 112.003 3.64159 4.76601 0
M  V30 1174 H 113.682 4.21956 4.90471 0
M  V30 1175 N 113.814 -1.1601 1.06675 0
M  V30 1176 C 115.06 -1.86909 0.786945 0
M  V30 1177 C 115.393 -1.81717 -0.685018 0
M  V30 1178 O 114.668 -1.23551 -1.50218 0
M  V30 1179 C 114.951 -3.36313 1.28707 0
M  V30 1180 C 114.804 -3.50175 2.82308 0
M  V30 1181 C 116.123 -4.3084 0.898071 0
M  V30 1182 H 113.242 -0.678677 0.287343 0
M  V30 1183 H 115.884 -1.36336 1.32334 0
M  V30 1184 H 114.034 -3.79513 0.830768 0
M  V30 1185 H 115.706 -3.15886 3.36175 0
M  V30 1186 H 113.949 -2.91959 3.20847 0
M  V30 1187 H 114.62 -4.55116 3.12368 0
M  V30 1188 H 117.096 -3.95561 1.29114 0
M  V30 1189 H 115.972 -5.33876 1.27543 0
M  V30 1190 H 116.233 -4.41662 -0.196651 0
M  V30 1191 N 115.292 -0.849877 -1.32721 0
M  V30 1192 C 116.541 -0.447175 -1.96681 0
M  V30 1193 C 116.854 1.00135 -1.68025 0
M  V30 1194 O 118.06 1.50926 -2.25685 0
M  V30 1195 C 116.516 -0.7487 -3.52026 0
M  V30 1196 C 116.124 -2.21264 -3.89546 0
M  V30 1197 C 117.868 -0.413487 -4.22481 0
M  V30 1198 C 115.775 -2.45763 -5.37917 0
M  V30 1199 H 114.705 -0.163486 -0.736063 0
M  V30 1200 H 117.356 -1.03999 -1.51183 0
M  V30 1201 H 115.738 -0.0853727 -3.95908 0
M  V30 1202 H 116.912 -2.91736 -3.56689 0
M  V30 1203 H 115.227 -2.5119 -3.32103 0
M  V30 1204 H 117.824 -0.574017 -5.3161 0
M  V30 1205 H 118.167 0.644492 -4.11281 0
M  V30 1206 H 118.7 -1.03251 -3.84167 0
M  V30 1207 H 115.439 -3.50168 -5.54132 0
M  V30 1208 H 114.959 -1.79864 -5.72197 0
M  V30 1209 H 116.638 -2.29471 -6.0494 0
M  V30 1210 N 116.77 1.45427 -0.607355 0
M  V30 1211 C 117.733 2.28974 0.101693 0
M  V30 1212 C 118.733 1.39754 0.795329 0
M  V30 1213 O 119.923 1.61878 0.643527 0
M  V30 1214 C 117.055 3.20768 1.15414 0
M  V30 1215 H 118.248 2.93147 -0.632844 0
M  V30 1216 H 115.801 1.51945 -0.366391 0
M  V30 1217 H 116.536 2.61395 1.91945 0
M  V30 1218 H 116.321 3.86489 0.66098 0
M  V30 1219 H 117.811 3.83589 1.65073 0
M  V30 1220 N 118.248 0.346503 1.53744 0
M  V30 1221 C 119.158 -0.517293 2.28826 0
M  V30 1222 C 120.174 -1.10935 1.3405 0
M  V30 1223 O 121.35 -1.1244 1.6709 0
M  V30 1224 C 118.415 -1.65098 3.04866 0
M  V30 1225 C 117.476 -1.0884 4.15274 0
M  V30 1226 C 116.709 -2.16806 4.87679 0
M  V30 1227 O 116.932 -3.3758 4.59778 0
M  V30 1228 O 115.866 -1.80934 5.74061 0
M  V30 1229 H 119.692 0.0931396 3.03557 0
M  V30 1230 H 117.277 0.111458 1.48984 0
M  V30 1231 H 119.159 -2.31053 3.5241 0
M  V30 1232 H 117.834 -2.24717 2.32989 0
M  V30 1233 H 116.741 -0.3933 3.72027 0
M  V30 1234 H 118.074 -0.537036 4.89261 0
M  V30 1235 N 119.726 -1.57421 0.075193 0
M  V30 1236 C 121.003 -1.85029 -0.634329 0
M  V30 1237 C 121.383 -0.968305 -1.87582 0
M  V30 1238 O 120.731 -0.0354749 -2.28472 0
M  V30 1239 C 120.941 -3.35286 -0.968742 0
M  V30 1240 C 122.289 -4.02875 -1.34077 0
M  V30 1241 O 123.313 -3.40051 -1.06037 0
M  V30 1242 O 122.172 -5.13691 -1.86506 0
M  V30 1243 H 119.266 -0.7645 -0.315387 0
M  V30 1244 H 121.812 -1.69366 0.106382 0
M  V30 1245 H 120.584 -3.91203 -0.0871376 0
M  V30 1246 H 120.207 -3.56223 -1.7661 0
M  V30 1247 N 121.204 0.198386 -1.56346 0
M  V30 1248 C 122.167 1.22952 -1.93431 0
M  V30 1249 C 123.167 1.38611 -0.815092 0
M  V30 1250 O 124.357 1.36479 -1.08255 0
M  V30 1251 C 121.489 2.59946 -2.20546 0
M  V30 1252 H 122.682 0.912626 -2.85677 0
M  V30 1253 H 120.235 0.43977 -1.49986 0
M  V30 1254 H 120.97 2.96696 -1.30927 0
M  V30 1255 H 120.755 2.49953 -3.02102 0
M  V30 1256 H 122.245 3.3431 -2.50253 0
M  V30 1257 N 122.682 1.50554 0.465978 0
M  V30 1258 C 123.612 1.72722 1.57128 0
M  V30 1259 C 124.593 0.576294 1.6004 0
M  V30 1260 O 125.778 0.81598 1.76225 0
M  V30 1261 C 122.908 1.82605 2.95419 0
M  V30 1262 C 121.862 2.97835 3.07373 0
M  V30 1263 C 121.188 2.92867 4.47363 0
M  V30 1264 C 122.488 4.38265 2.84114 0
M  V30 1265 H 124.182 2.65267 1.38829 0
M  V30 1266 H 121.728 1.2765 0.666441 0
M  V30 1267 H 123.681 1.96698 3.72677 0
M  V30 1268 H 122.405 0.866858 3.14886 0
M  V30 1269 H 121.064 2.83401 2.3255 0
M  V30 1270 H 120.712 1.94783 4.63755 0
M  V30 1271 H 120.412 3.70227 4.56296 0
M  V30 1272 H 121.936 3.09015 5.26633 0
M  V30 1273 H 123.35 4.53198 3.51118 0
M  V30 1274 H 121.747 5.17115 3.04487 0
M  V30 1275 H 122.817 4.50281 1.7993 0
M  V30 1276 N 124.16 -0.719506 1.40217 0
M  V30 1277 C 125.409 -1.47486 1.37589 0
M  V30 1278 C 125.722 -1.9559 -0.0201568 0
M  V30 1279 O 126.928 -2.70973 -0.169049 0
M  V30 1280 C 125.384 -2.66575 2.41796 0
M  V30 1281 C 124.992 -2.25358 3.87192 0
M  V30 1282 C 126.736 -3.4433 2.48269 0
M  V30 1283 C 124.643 -3.41262 4.83005 0
M  V30 1284 H 123.573 -0.553901 0.511576 0
M  V30 1285 H 126.224 -0.783427 1.65936 0
M  V30 1286 H 124.606 -3.3787 2.06543 0
M  V30 1287 H 125.78 -1.61509 4.31569 0
M  V30 1288 H 124.095 -1.60657 3.84159 0
M  V30 1289 H 126.692 -4.30569 3.17041 0
M  V30 1290 H 127.035 -3.87872 1.51198 0
M  V30 1291 H 127.568 -2.80076 2.82493 0
M  V30 1292 H 124.307 -3.02755 5.81394 0
M  V30 1293 H 123.827 -4.0404 4.43297 0
M  V30 1294 H 125.506 -4.07383 5.02641 0
M  V30 1295 N 125.638 -1.25649 -0.95132 0
M  V30 1296 C 126.601 -1.06399 -2.03007 0
M  V30 1297 C 127.601 -0.0156794 -1.60792 0
M  V30 1298 O 128.791 -0.25817 -1.72276 0
M  V30 1299 C 125.923 -0.616184 -3.35285 0
M  V30 1300 H 127.116 -2.02164 -2.21517 0
M  V30 1301 H 124.669 -1.08103 -1.12887 0
M  V30 1302 H 125.404 0.343917 -3.22471 0
M  V30 1303 H 125.189 -1.37301 -3.67275 0
M  V30 1304 H 126.679 -0.503032 -4.14559 0
M  V30 1305 N 127.117 1.15442 -1.07289 0
M  V30 1306 C 128.027 2.23786 -0.704057 0
M  V30 1307 C 129.043 1.7166 0.284413 0
M  V30 1308 O 130.219 2.00972 0.131205 0
M  V30 1309 C 127.284 3.46535 -0.106792 0
M  V30 1310 C 126.345 4.13654 -1.14842 0
M  V30 1311 C 125.578 5.30544 -0.57956 0
M  V30 1312 O 125.801 5.67187 0.604585 0
M  V30 1313 O 124.735 5.87154 -1.32414 0
M  V30 1314 H 128.561 2.57664 -1.60757 0
M  V30 1315 H 126.146 1.23152 -0.845803 0
M  V30 1316 H 128.028 4.20804 0.224048 0
M  V30 1317 H 126.703 3.14407 0.770049 0
M  V30 1318 H 125.61 3.4131 -1.5316 0
M  V30 1319 H 126.943 4.49861 -1.99714 0
M  V30 1320 N 128.595 0.856903 1.32268 0
M  V30 1321 C 129.558 0.308171 2.27119 0
M  V30 1322 C 130.558 -0.533421 1.51695 0
M  V30 1323 O 131.748 -0.344607 1.70757 0
M  V30 1324 C 128.88 -0.563757 3.36206 0
M  V30 1325 H 130.073 1.14535 2.77167 0
M  V30 1326 H 127.626 0.631421 1.42978 0
M  V30 1327 H 128.361 -1.42266 2.91429 0
M  V30 1328 H 128.146 0.0386749 3.92081 0
M  V30 1329 H 129.636 -0.940386 4.06874 0
M  V30 1330 N 130.073 -1.45103 0.615059 0
M  V30 1331 C 131.319 -2.02483 0.113347 0
M  V30 1332 C 131.652 -1.48146 -1.25564 0
M  V30 1333 O 130.927 -0.659104 -1.82992 0
M  V30 1334 C 131.21 -3.60005 0.0825278 0
M  V30 1335 C 131.063 -4.2466 1.48271 0
M  V30 1336 C 132.382 -4.35972 -0.601401 0
M  V30 1337 H 129.501 -0.735764 0.0426632 0
M  V30 1338 H 132.143 -1.72868 0.788461 0
M  V30 1339 H 130.293 -3.85367 -0.492378 0
M  V30 1340 H 131.965 -4.10458 2.10527 0
M  V30 1341 H 130.208 -3.82772 2.04127 0
M  V30 1342 H 130.879 -5.336 1.41332 0
M  V30 1343 H 133.355 -4.15947 -0.112666 0
M  V30 1344 H 132.231 -5.45697 -0.592097 0
M  V30 1345 H 132.492 -4.09391 -1.66887 0
M  V30 1346 N 131.551 -0.354651 -1.53558 0
M  V30 1347 C 132.799 0.237972 -2.00694 0
M  V30 1348 C 133.12 1.50173 -1.24391 0
M  V30 1349 O 132.39 1.92673 -0.354135 0
M  V30 1350 H 130.97 0.0909256 -0.741446 0
M  V30 1351 H 133.632 -0.478368 -1.88938 0
M  V30 1352 H 132.728 0.47264 -3.085 0
M  V30 1353 N 133.029 1.57378 -0.0835403 0
M  V30 1354 C 134.44 1.81261 0.447358 0
M  V30 1355 C 134.791 0.998331 1.68902 0
M  V30 1356 O 133.916 0.224282 2.15235 0
M  V30 1357 C 134.511 3.28767 0.818386 0
M  V30 1358 C 133.07 3.53455 1.29409 0
M  V30 1359 C 132.217 2.75831 0.285024 0
M  V30 1360 H 135.168 1.5566 -0.309115 0
M  V30 1361 H 135.189 3.41459 1.67887 0
M  V30 1362 H 134.701 3.88006 -0.0855019 0
M  V30 1363 H 132.802 2.99534 2.21608 0
M  V30 1364 H 132.915 4.62128 1.2639 0
M  V30 1365 H 131.279 2.42947 0.764767 0
M  V30 1366 H 132.062 3.37813 -0.611341 0
M  V30 1367 N 134.507 -0.190092 1.56449 0
M  V30 1368 C 135.457 -1.23977 1.91347 0
M  V30 1369 C 136.441 -1.40747 0.779693 0
M  V30 1370 O 137.633 -1.43033 1.04262 0
M  V30 1371 C 134.762 -2.58347 2.26079 0
M  V30 1372 C 133.848 -2.4535 3.45925 0
M  V30 1373 N 134.239 -2.02039 4.63696 0
M  V30 1374 C 132.537 -2.76229 3.50162 0
M  V30 1375 C 133.238 -2.01053 5.4585 0
M  V30 1376 N 132.214 -2.42747 4.8639 0
M  V30 1377 H 136.016 -0.896318 2.79899 0
M  V30 1378 H 133.53 -0.398496 1.57435 0
M  V30 1379 H 135.527 -3.34173 2.49267 0
M  V30 1380 H 134.187 -2.93512 1.38856 0
M  V30 1381 H 135.198 -1.7267 4.88268 0
M  V30 1382 H 131.875 -3.15556 2.73369 0
M  V30 1383 H 133.265 -1.69426 6.50188 0
M  V30 1384 N 135.985 -1.50799 -0.457987 0
M  V30 1385 C 136.915 -1.73553 -1.5621 0
M  V30 1386 C 137.896 -0.584774 -1.59732 0
M  V30 1387 O 139.081 -0.825314 -1.7579 0
M  V30 1388 C 136.211 -1.84169 -2.94447 0
M  V30 1389 C 135.165 -2.99461 -3.0579 0
M  V30 1390 C 134.491 -2.95235 -4.45803 0
M  V30 1391 C 135.791 -4.39766 -2.81786 0
M  V30 1392 H 137.485 -2.66 -1.37421 0
M  V30 1393 H 135.031 -1.28002 -0.659662 0
M  V30 1394 H 136.984 -1.98672 -3.71628 0
M  V30 1395 H 135.708 -0.883545 -3.14422 0
M  V30 1396 H 134.367 -2.8463 -2.31044 0
M  V30 1397 H 134.015 -1.97239 -4.62715 0
M  V30 1398 H 133.715 -3.72642 -4.54326 0
M  V30 1399 H 135.239 -3.11803 -5.24987 0
M  V30 1400 H 136.653 -4.55054 -3.4871 0
M  V30 1401 H 135.05 -5.18722 -3.0174 0
M  V30 1402 H 136.12 -4.51229 -1.7754 0
M  V30 1403 N 137.463 0.71206 -1.40597 0
M  V30 1404 C 138.426 1.80785 -1.40888 0
M  V30 1405 C 139.426 1.57937 -0.302103 0
M  V30 1406 O 140.616 1.64913 -0.561182 0
M  V30 1407 C 137.748 3.18927 -1.20409 0
M  V30 1408 H 138.941 1.81924 -2.38419 0
M  V30 1409 H 136.494 0.91805 -1.26497 0
M  V30 1410 H 137.229 3.23436 -0.236522 0
M  V30 1411 H 137.014 3.36911 -2.00582 0
M  V30 1412 H 138.504 3.98949 -1.23408 0
M  V30 1413 N 138.941 1.26152 0.944643 0
M  V30 1414 C 140.357 1.03189 1.21754 0
M  V30 1415 C 140.557 -0.245112 2.00004 0
M  V30 1416 O 139.613 -0.955176 2.33736 0
M  V30 1417 C 140.926 2.26119 1.98219 0
M  V30 1418 C 142.474 2.30984 2.11224 0
M  V30 1419 C 142.949 3.53597 2.91089 0
M  V30 1420 N 144.44 3.54053 2.98664 0
M  V30 1421 C 145.175 4.45593 3.60881 0
M  V30 1422 N 144.671 5.47416 4.24626 0
M  V30 1423 N 146.464 4.33252 3.58119 0
M  V30 1424 H 138.615 2.08177 0.421437 0
M  V30 1425 H 140.878 0.914723 0.248969 0
M  V30 1426 H 140.584 3.18984 1.48128 0
M  V30 1427 H 140.458 2.3009 2.98895 0
M  V30 1428 H 142.845 1.38635 2.60508 0
M  V30 1429 H 142.926 2.31026 1.09821 0
M  V30 1430 H 142.57 4.46273 2.42493 0
M  V30 1431 H 142.5 3.50802 3.92741 0
M  V30 1432 H 144.991 2.80403 2.53343 0
M  V30 1433 H 145.304 6.13459 4.69987 0
M  V30 1434 H 143.649 5.51278 4.23223 0
M  V30 1435 H 146.84 3.52924 3.0751 0
M  V30 1436 H 147.013 5.04786 4.06319 0
M  V30 1437 N 140.419 -1.14872 1.07899 0
M  V30 1438 C 141.382 -2.17986 0.708161 0
M  V30 1439 C 142.382 -1.58775 -0.25442 0
M  V30 1440 O 143.572 -1.74166 -0.034645 0
M  V30 1441 C 140.704 -3.40871 0.0446929 0
M  V30 1442 H 141.897 -2.52306 1.62116 0
M  V30 1443 H 139.45 -1.2943 0.876218 0
M  V30 1444 H 140.185 -3.12124 -0.880281 0
M  V30 1445 H 139.97 -3.8511 0.737091 0
M  V30 1446 H 141.46 -4.17121 -0.19991 0
M  V30 1447 N 141.898 -0.863906 -1.31812 0
M  V30 1448 C 142.828 -0.330843 -2.31144 0
M  V30 1449 C 143.809 0.575005 -1.60087 0
M  V30 1450 O 144.994 0.493304 -1.8783 0
M  V30 1451 C 142.124 0.47374 -3.44054 0
M  V30 1452 C 141.078 -0.338481 -4.26659 0
M  V30 1453 C 140.404 0.591412 -5.31419 0
M  V30 1454 C 141.704 -1.56926 -4.98168 0
M  V30 1455 H 143.398 -1.16086 -2.75979 0
M  V30 1456 H 140.944 -0.559657 -1.32679 0
M  V30 1457 H 142.897 0.857143 -4.12591 0
M  V30 1458 H 141.621 1.33721 -2.9797 0
M  V30 1459 H 140.28 -0.703754 -3.59782 0
M  V30 1460 H 139.928 1.45199 -4.81587 0
M  V30 1461 H 139.628 0.0519022 -5.87577 0
M  V30 1462 H 141.152 0.97179 -6.02817 0
M  V30 1463 H 142.566 -1.25764 -5.59336 0
M  V30 1464 H 140.963 -2.04739 -5.64094 0
M  V30 1465 H 142.033 -2.32544 -4.25501 0
M  V30 1466 N 143.376 1.44774 -0.622745 0
M  V30 1467 C 144.624 2.01721 -0.123655 0
M  V30 1468 C 144.945 1.49172 1.25589 0
M  V30 1469 O 144.215 0.691974 1.83272 0
M  V30 1470 H 142.795 0.745777 -0.0427225 0
M  V30 1471 H 145.457 1.77382 -0.807559 0
M  V30 1472 H 144.553 3.11984 -0.0849534 0
M  V30 1473 N 144.854 0.36279 1.53368 0
M  V30 1474 C 145.786 -0.519668 2.23231 0
M  V30 1475 C 146.799 -1.04844 1.24546 0
M  V30 1476 O 147.988 -0.955296 1.50786 0
M  V30 1477 C 145.088 -1.72995 2.9142 0
M  V30 1478 C 144.261 -1.33316 4.16588 0
M  V30 1479 C 143.32 -2.40521 4.68013 0
M  V30 1480 O 142.346 -2.03027 5.3176 0
M  V30 1481 N 143.548 -3.72065 4.45587 0
M  V30 1482 H 146.313 0.078751 2.99597 0
M  V30 1483 H 143.874 0.187833 1.60807 0
M  V30 1484 H 145.866 -2.44184 3.22733 0
M  V30 1485 H 144.436 -2.2353 2.18525 0
M  V30 1486 H 143.656 -0.451236 3.91609 0
M  V30 1487 H 144.944 -1.04432 4.97967 0
M  V30 1488 H 144.342 -4.05304 3.94646 0
M  V30 1489 H 142.899 -4.39366 4.81457 0
M  V30 1490 N 146.332 -1.57332 0.0918853 0
M  V30 1491 C 147.581 -1.93412 -0.572249 0
M  V30 1492 C 147.894 -0.975515 -1.69538 0
M  V30 1493 O 149.1 -1.22991 -2.42045 0
M  V30 1494 C 147.556 -3.43648 -1.0693 0
M  V30 1495 C 147.164 -4.47994 0.0239049 0
M  V30 1496 C 148.908 -3.88695 -1.70635 0
M  V30 1497 C 146.815 -5.89381 -0.488319 0
M  V30 1498 H 145.745 -0.721939 -0.217532 0
M  V30 1499 H 148.396 -1.82735 0.167369 0
M  V30 1500 H 146.778 -3.49466 -1.8625 0
M  V30 1501 H 147.952 -4.53815 0.799277 0
M  V30 1502 H 146.267 -4.12536 0.565946 0
M  V30 1503 H 148.864 -4.91725 -2.10025 0
M  V30 1504 H 149.207 -3.27166 -2.57426 0
M  V30 1505 H 149.74 -3.85564 -0.979023 0
M  V30 1506 H 146.479 -6.54602 0.342906 0
M  V30 1507 H 145.999 -5.87037 -1.23077 0
M  V30 1508 H 147.678 -6.39863 -0.958317 0
M  V30 1509 N 147.81 0.181792 -1.56548 0
M  V30 1510 C 149.056 0.901431 -1.81665 0
M  V30 1511 C 149.389 1.82347 -0.668075 0
M  V30 1512 O 148.664 1.91669 0.330615 0
M  V30 1513 C 148.947 1.70618 -3.17115 0
M  V30 1514 C 148.8 0.807964 -4.42484 0
M  V30 1515 C 150.119 2.67605 -3.49393 0
M  V30 1516 H 147.238 0.32627 -0.660846 0
M  V30 1517 H 149.88 0.168134 -1.89255 0
M  V30 1518 H 148.03 2.33133 -3.10775 0
M  V30 1519 H 149.702 0.19649 -4.60881 0
M  V30 1520 H 147.945 0.115411 -4.33646 0
M  V30 1521 H 148.616 1.40632 -5.33785 0
M  V30 1522 H 151.092 2.15218 -3.56118 0
M  V30 1523 H 149.968 3.20985 -4.45264 0
M  V30 1524 H 150.229 3.47298 -2.73563 0
M  V30 1525 N 149.288 1.51039 0.449983 0
M  V30 1526 C 150.513 1.6715 1.22783 0
M  V30 1527 C 150.938 0.363081 1.84563 0
M  V30 1528 O 150.296 -0.675433 1.68249 0
M  V30 1529 C 150.344 2.77985 2.29689 0
M  V30 1530 O 149.448 2.40707 3.34864 0
M  V30 1531 H 148.789 0.557746 0.360299 0
M  V30 1532 H 151.319 1.97535 0.533005 0
M  V30 1533 H 151.329 3.01693 2.74673 0
M  V30 1534 H 150.004 3.72935 1.84098 0
M  V30 1535 H 148.581 2.27523 2.95445 0
M  V30 1536 N 150.766 -0.704594 1.40972 0
M  V30 1537 C 152.182 -1.01406 1.23244 0
M  V30 1538 C 152.382 -2.01169 0.115399 0
M  V30 1539 O 151.438 -2.47021 -0.523147 0
M  V30 1540 C 152.751 -1.54728 2.57836 0
M  V30 1541 C 154.299 -1.66658 2.64942 0
M  V30 1542 C 154.774 -2.23383 3.9983 0
M  V30 1543 N 156.265 -2.30756 4.01629 0
M  V30 1544 C 157 -2.75655 5.02794 0
M  V30 1545 N 156.496 -3.20225 6.14352 0
M  V30 1546 N 158.289 -2.75138 4.90159 0
M  V30 1547 H 150.44 -0.0435285 2.12355 0
M  V30 1548 H 152.703 -0.0818951 0.944456 0
M  V30 1549 H 152.409 -0.888832 3.40283 0
M  V30 1550 H 152.283 -2.53084 2.79693 0
M  V30 1551 H 154.67 -2.31617 1.8286 0
M  V30 1552 H 154.751 -0.668717 2.46904 0
M  V30 1553 H 154.395 -1.59043 4.82357 0
M  V30 1554 H 154.325 -3.23904 4.15203 0
M  V30 1555 H 156.816 -1.99291 3.21079 0
M  V30 1556 H 157.129 -3.53084 6.87424 0
M  V30 1557 H 155.474 -3.18156 6.17901 0
M  V30 1558 H 158.665 -2.39661 4.02095 0
M  V30 1559 H 158.838 -3.09812 5.6914 0
M  V30 1560 N 152.244 -1.26651 -0.937939 0
M  V30 1561 C 153.474 -1.15006 -1.71631 0
M  V30 1562 C 153.882 0.297026 -1.86854 0
M  V30 1563 O 153.225 1.21493 -1.37786 0
M  V30 1564 C 153.287 -1.74984 -3.14039 0
M  V30 1565 C 152.951 -3.24103 -3.2219 0
M  V30 1566 C 153.948 -4.20877 -3.05219 0
M  V30 1567 C 151.633 -3.64625 -3.45476 0
M  V30 1568 C 153.627 -5.56151 -3.11408 0
M  V30 1569 C 151.314 -5.00032 -3.513 0
M  V30 1570 C 152.312 -5.95604 -3.34282 0
M  V30 1571 O 152 -7.28545 -3.3982 0
M  V30 1572 H 151.732 -0.401183 -0.544085 0
M  V30 1573 H 154.286 -1.67832 -1.18413 0
M  V30 1574 H 152.516 -1.16624 -3.68695 0
M  V30 1575 H 154.205 -1.58199 -3.73802 0
M  V30 1576 H 154.971 -3.90908 -2.87081 0
M  V30 1577 H 150.85 -2.90718 -3.57777 0
M  V30 1578 H 154.394 -6.30727 -2.98043 0
M  V30 1579 H 150.291 -5.29659 -3.68959 0
M  V30 1580 H 151.059 -7.3686 -3.56343 0
M  V30 1581 N 153.722 1.14298 -1.08507 0
M  V30 1582 C 154.97 1.84993 -0.813763 0
M  V30 1583 C 155.291 1.83405 0.662393 0
M  V30 1584 O 154.561 1.28319 1.48024 0
M  V30 1585 H 153.141 0.684966 -0.298045 0
M  V30 1586 H 155.803 1.385 -1.37126 0
M  V30 1587 H 154.899 2.89788 -1.15884 0
M  V30 1588 N 155.201 0.870884 1.31352 0
M  V30 1589 C 156.164 0.332243 2.26779 0
M  V30 1590 C 157.164 -0.517302 1.52252 0
M  V30 1591 O 158.354 -0.326477 1.71113 0
M  V30 1592 C 155.486 -0.528066 3.36785 0
M  V30 1593 H 156.679 1.17469 2.75937 0
M  V30 1594 H 154.232 0.64655 1.423 0
M  V30 1595 H 154.967 -1.39167 2.92922 0
M  V30 1596 H 154.752 0.0802582 3.92018 0
M  V30 1597 H 156.242 -0.897179 4.07849 0
M  V30 1598 N 156.679 -1.44442 0.630414 0
M  V30 1599 C 157.907 -2.06414 0.141671 0
M  V30 1600 C 158.322 -1.47105 -1.18345 0
M  V30 1601 O 157.679 -0.593662 -1.72574 0
M  V30 1602 C 157.73 -3.61494 0.0199784 0
M  V30 1603 O 157.451 -4.18594 1.29269 0
M  V30 1604 C 158.952 -4.40499 -0.497544 0
M  V30 1605 H 156.172 -0.666292 0.0793452 0
M  V30 1606 H 158.716 -1.85323 0.864614 0
M  V30 1607 H 156.871 -3.8185 -0.653402 0
M  V30 1608 H 157.285 -5.12026 1.13707 0
M  V30 1609 H 158.759 -5.49433 -0.531708 0
M  V30 1610 H 159.236 -4.11895 -1.52445 0
M  V30 1611 H 159.842 -4.25061 0.142562 0
M  V30 1612 N 158.157 -0.370918 -1.53173 0
M  V30 1613 C 159.403 0.217423 -2.01631 0
M  V30 1614 C 159.736 1.47983 -1.25756 0
M  V30 1615 O 159.011 1.91274 -0.352764 0
M  V30 1616 C 159.294 0.503982 -3.56556 0
M  V30 1617 C 159.147 -0.77243 -4.43118 0
M  V30 1618 C 160.466 1.30234 -4.20389 0
M  V30 1619 H 157.585 0.0775486 -0.732909 0
M  V30 1620 H 160.227 -0.496863 -1.83388 0
M  V30 1621 H 158.377 1.11248 -3.72231 0
M  V30 1622 H 160.049 -1.4098 -4.39229 0
M  V30 1623 H 158.292 -1.39167 -4.10871 0
M  V30 1624 H 158.963 -0.526815 -5.4948 0
M  V30 1625 H 161.439 0.787546 -4.08579 0
M  V30 1626 H 160.315 1.47158 -5.28806 0
M  V30 1627 H 160.576 2.31237 -3.76805 0
M  V30 1628 N 159.635 1.57281 -0.100228 0
M  V30 1629 C 160.884 1.93713 0.561984 0
M  V30 1630 C 161.197 0.984492 1.69018 0
M  V30 1631 O 162.403 1.24273 2.41389 0
M  V30 1632 C 160.859 3.4421 1.05106 0
M  V30 1633 C 160.467 4.47975 -0.0476628 0
M  V30 1634 C 162.211 3.89595 1.68571 0
M  V30 1635 C 160.118 5.89631 0.457055 0
M  V30 1636 H 159.048 0.723082 0.2137 0
M  V30 1637 H 161.699 1.82644 -0.177057 0
M  V30 1638 H 160.081 3.50449 1.84395 0
M  V30 1639 H 161.255 4.53385 -0.823333 0
M  V30 1640 H 159.57 4.1223 -0.587816 0
M  V30 1641 H 162.167 4.92832 2.07414 0
M  V30 1642 H 162.51 3.28526 2.55688 0
M  V30 1643 H 163.043 3.86078 0.958562 0
M  V30 1644 H 159.782 6.54411 -0.377616 0
M  V30 1645 H 159.302 5.87681 1.19962 0
M  V30 1646 H 160.981 6.40363 0.92437 0
M  V30 1647 N 161.113 -0.173488 1.56642 0
M  V30 1648 C 162.524 -0.736155 1.71574 0
M  V30 1649 C 162.875 -1.82888 0.710389 0
M  V30 1650 O 162 -2.16017 -0.1287 0
M  V30 1651 C 162.595 -1.34211 3.11083 0
M  V30 1652 C 161.154 -1.85162 3.27707 0
M  V30 1653 C 160.301 -0.729765 2.67525 0
M  V30 1654 H 163.252 0.0518786 1.58615 0
M  V30 1655 H 163.273 -2.21178 3.09613 0
M  V30 1656 H 162.785 -0.546579 3.84232 0
M  V30 1657 H 160.886 -2.67366 2.59512 0
M  V30 1658 H 160.999 -1.99855 4.35425 0
M  V30 1659 H 159.363 -1.14965 2.27278 0
M  V30 1660 H 160.146 0.0538806 3.43258 0
M  V30 1661 N 162.591 -1.51276 -0.441967 0
M  V30 1662 C 163.539 -1.72823 -1.55676 0
M  V30 1663 C 164.533 -0.59445 -1.58627 0
M  V30 1664 O 165.739 -0.775715 -1.62427 0
M  V30 1665 H 162.114 -0.545983 -0.517113 0
M  V30 1666 H 164.085 -2.6628 -1.34675 0
M  V30 1667 C 162.834 -1.86619 -2.93375 0
M  V30 1668 H 162.157 -2.73264 -2.91834 0
M  V30 1669 H 163.597 -2.05709 -3.70756 0
M  V30 1670 C 162.056 -0.624842 -3.31055 0
M  V30 1671 O 162.586 0.222636 -4.01083 0
M  V30 1672 N 160.792 -0.470288 -2.86769 0
M  V30 1673 H 160.339 -1.161 -2.29953 0
M  V30 1674 H 160.297 0.359051 -3.12343 0
M  V30 1675 N 164.069 0.697108 -1.41344 0
M  V30 1676 C 165.318 1.45279 -1.39918 0
M  V30 1677 C 165.631 1.95597 -0.0109624 0
M  V30 1678 O 166.837 2.71208 0.125919 0
M  V30 1679 C 165.293 2.62695 -2.46007 0
M  V30 1680 C 164.901 2.19169 -3.90729 0
M  V30 1681 C 166.645 3.40336 -2.53715 0
M  V30 1682 C 164.552 3.33535 -4.88373 0
M  V30 1683 H 163.482 0.545692 -0.520323 0
M  V30 1684 H 166.133 0.756929 -1.67161 0
M  V30 1685 H 164.515 3.34541 -2.11892 0
M  V30 1686 H 165.689 1.54623 -4.34083 0
M  V30 1687 H 164.004 1.54525 -3.86666 0
M  V30 1688 H 166.601 4.2547 -3.2385 0
M  V30 1689 H 166.944 3.85418 -1.5735 0
M  V30 1690 H 167.477 2.75546 -2.86913 0
M  V30 1691 H 164.216 2.93468 -5.86137 0
M  V30 1692 H 163.736 3.96936 -4.49668 0
M  V30 1693 H 165.415 3.99335 -5.09059 0
M  V30 1694 N 165.547 1.27147 0.931209 0
M  V30 1695 C 166.495 1.09398 2.05268 0
M  V30 1696 C 167.489 0.0180591 1.6939 0
M  V30 1697 O 168.695 0.17551 1.79142 0
M  V30 1698 H 165.07 0.336986 0.672268 0
M  V30 1699 H 167.041 2.04416 2.17386 0
M  V30 1700 C 165.79 0.75424 3.39421 0
M  V30 1701 H 165.113 1.57404 3.67511 0
M  V30 1702 H 166.553 0.669903 4.18674 0
M  V30 1703 C 165.012 -0.541197 3.32525 0
M  V30 1704 O 165.542 -1.57664 3.69466 0
M  V30 1705 N 163.748 -0.535517 2.85623 0
M  V30 1706 H 163.295 0.307511 2.55758 0
M  V30 1707 H 163.253 -1.40236 2.81392 0
M  V30 1708 N 167.025 -1.13721 1.09112 0
M  V30 1709 C 167.988 -2.17222 0.731241 0
M  V30 1710 C 168.988 -1.59035 -0.237566 0
M  V30 1711 O 170.178 -1.74192 -0.0161704 0
M  V30 1712 C 167.31 -3.40804 0.0808443 0
M  V30 1713 H 168.503 -2.50573 1.64783 0
M  V30 1714 H 166.056 -1.28493 0.889897 0
M  V30 1715 H 166.791 -3.1304 -0.847127 0
M  V30 1716 H 166.576 -3.84306 0.777896 0
M  V30 1717 H 168.066 -4.1731 -0.155657 0
M  V30 1718 N 168.503 -0.877838 -1.30888 0
M  V30 1719 C 169.466 -0.344265 -2.266 0
M  V30 1720 C 170.466 0.50922 -1.52524 0
M  V30 1721 O 171.656 0.317398 -1.71284 0
M  V30 1722 C 168.788 0.510198 -3.37061 0
M  V30 1723 H 169.981 -1.1893 -2.7531 0
M  V30 1724 H 167.534 -0.654088 -1.41956 0
M  V30 1725 H 168.269 1.37612 -2.93655 0
M  V30 1726 H 168.054 -0.101047 -3.9197 0
M  V30 1727 H 169.544 0.875537 -4.08319 0
M  V30 1728 N 169.982 1.44106 -0.638065 0
M  V30 1729 C 171.231 2.01194 -0.142744 0
M  V30 1730 C 171.544 1.50835 1.24532 0
M  V30 1731 O 172.75 2.00096 1.83504 0
M  V30 1732 C 171.206 3.59319 -0.20442 0
M  V30 1733 C 170.814 4.18674 -1.59423 0
M  V30 1734 C 172.558 4.23854 0.234079 0
M  V30 1735 C 170.465 5.69045 -1.61065 0
M  V30 1736 H 169.395 0.752367 -0.0495998 0
M  V30 1737 H 172.046 1.65246 -0.797881 0
M  V30 1738 H 170.428 3.92598 0.517946 0
M  V30 1739 H 171.602 3.96921 -2.34074 0
M  V30 1740 H 169.917 3.66453 -1.97741 0
M  V30 1741 H 172.514 5.34155 0.241443 0
M  V30 1742 H 172.857 3.96688 1.2627 0
M  V30 1743 H 173.39 3.95403 -0.436025 0
M  V30 1744 H 170.129 6.00956 -2.61787 0
M  V30 1745 H 169.649 5.929 -0.90718 0
M  V30 1746 H 171.328 6.32809 -1.34766 0
M  V30 1747 N 171.46 0.379036 1.52974 0
M  V30 1748 C 172.37 -0.468639 2.29872 0
M  V30 1749 C 173.386 -1.08067 1.36373 0
M  V30 1750 O 174.562 -1.08871 1.69438 0
M  V30 1751 C 171.627 -1.58594 3.083 0
M  V30 1752 C 170.688 -1.00007 4.17489 0
M  V30 1753 C 169.921 -2.06413 4.92168 0
M  V30 1754 O 170.144 -3.27751 4.66835 0
M  V30 1755 O 169.078 -1.68717 5.7777 0
M  V30 1756 H 172.904 0.157508 3.03291 0
M  V30 1757 H 170.489 0.143035 1.48714 0
M  V30 1758 H 172.371 -2.23525 3.57232 0
M  V30 1759 H 171.046 -2.19724 2.37703 0
M  V30 1760 H 169.953 -0.314299 3.72777 0
M  V30 1761 H 171.286 -0.433135 4.90291 0
M  V30 1762 N 172.938 -1.57226 0.108567 0
M  V30 1763 C 174.184 -1.95121 -0.552761 0
M  V30 1764 C 174.517 -0.991345 -1.66991 0
M  V30 1765 O 173.792 -0.0267211 -1.94482 0
M  V30 1766 C 174.075 -3.43039 -1.09528 0
M  V30 1767 C 173.928 -4.49797 0.0177332 0
M  V30 1768 C 175.247 -3.92567 -1.98945 0
M  V30 1769 H 172.366 -0.709496 -0.199461 0
M  V30 1770 H 175.008 -1.89126 0.182011 0
M  V30 1771 H 173.158 -3.48279 -1.72146 0
M  V30 1772 H 174.83 -4.56661 0.652584 0
M  V30 1773 H 173.073 -4.284 0.682309 0
M  V30 1774 H 173.744 -5.50528 -0.402919 0
M  V30 1775 H 176.22 -3.89565 -1.46214 0
M  V30 1776 H 175.096 -4.96605 -2.33827 0
M  V30 1777 H 175.357 -3.32648 -2.91201 0
M  V30 1778 N 174.416 0.165178 -1.56732 0
M  V30 1779 C 175.346 1.20651 -1.99914 0
M  V30 1780 C 176.327 1.45827 -0.875705 0
M  V30 1781 O 177.512 1.57057 -1.14223 0
M  V30 1782 C 174.642 2.54401 -2.36427 0
M  V30 1783 C 173.596 2.43782 -3.51787 0
M  V30 1784 C 172.922 3.82078 -3.7406 0
M  V30 1785 C 174.222 1.93732 -4.85041 0
M  V30 1786 H 175.916 0.847534 -2.87154 0
M  V30 1787 H 173.462 0.40625 -1.38151 0
M  V30 1788 H 175.415 3.27458 -2.65234 0
M  V30 1789 H 174.139 2.92098 -1.46103 0
M  V30 1790 H 172.798 1.73178 -3.23117 0
M  V30 1791 H 172.446 4.17179 -2.81017 0
M  V30 1792 H 172.146 3.7584 -4.51684 0
M  V30 1793 H 173.67 4.56712 -4.05274 0
M  V30 1794 H 175.084 2.56569 -5.12684 0
M  V30 1795 H 173.481 1.98428 -5.66345 0
M  V30 1796 H 174.551 0.891962 -4.76626 0
M  V30 1797 N 175.894 1.51508 0.433938 0
M  V30 1798 C 177.142 1.6402 1.18075 0
M  V30 1799 C 177.463 0.360328 1.91642 0
M  V30 1800 O 176.733 -0.623945 1.85698 0
M  V30 1801 H 175.313 0.6045 0.43885 0
M  V30 1802 H 177.975 1.88452 0.497178 0
M  V30 1803 H 177.071 2.46949 1.90847 0
M  V30 1804 N 177.372 -0.689602 1.41712 0
M  V30 1805 C 178.6 -1.47827 1.44758 0
M  V30 1806 C 179.015 -1.88721 0.0545703 0
M  V30 1807 O 178.372 -1.57176 -0.927463 0
M  V30 1808 C 178.423 -2.73698 2.3616 0
M  V30 1809 O 178.144 -2.34524 3.7004 0
M  V30 1810 C 179.645 -3.67389 2.48072 0
M  V30 1811 H 176.865 -0.455357 0.49284 0
M  V30 1812 H 179.409 -0.848574 1.86063 0
M  V30 1813 H 177.564 -3.32891 1.98148 0
M  V30 1814 H 177.978 -3.15701 4.18847 0
M  V30 1815 H 179.452 -4.52475 3.16181 0
M  V30 1816 H 179.929 -4.12284 1.51388 0
M  V30 1817 H 180.535 -3.14097 2.86746 0
M  V30 1818 N 178.85 -1.27639 -0.924453 0
M  V30 1819 C 180.098 -1.13941 -1.66918 0
M  V30 1820 C 180.419 0.314589 -1.92446 0
M  V30 1821 O 179.689 1.21964 -1.53303 0
M  V30 1822 H 178.269 -0.418678 -0.618642 0
M  V30 1823 H 180.931 -1.60213 -1.10985 0
M  V30 1824 H 180.027 -1.67094 -2.63602 0
M  V30 1825 N 180.328 1.1314 -1.09713 0
M  V30 1826 C 181.556 1.88321 -0.856898 0
M  V30 1827 C 181.971 1.79276 0.592073 0
M  V30 1828 O 181.328 1.16142 1.40774 0
M  V30 1829 C 181.379 3.37812 -1.28706 0
M  V30 1830 O 181.1 3.46627 -2.67921 0
M  V30 1831 C 182.601 4.29952 -1.07964 0
M  V30 1832 H 179.821 0.596094 -0.308079 0
M  V30 1833 H 182.365 1.43205 -1.45988 0
M  V30 1834 H 180.52 3.805 -0.727912 0
M  V30 1835 H 180.934 4.39579 -2.8613 0
M  V30 1836 H 182.408 5.33159 -1.42986 0
M  V30 1837 H 182.885 4.39196 -0.0176577 0
M  V30 1838 H 183.491 3.93036 -1.62489 0
M  V30 1839 N 181.806 0.884767 1.30421 0
M  V30 1840 C 183.083 0.423185 1.90967 0
M  V30 1841 C 183.463 -1.09605 1.80416 0
M  V30 1842 O 182.811 -1.93126 1.22125 0
M  V30 1843 C 183.021 0.921056 3.36627 0
M  V30 1844 C 184.369 0.955903 4.137 0
M  V30 1845 O 185.393 0.867706 3.4547 0
M  V30 1846 O 184.252 1.08614 5.35598 0
M  V30 1847 H 181.346 0.129369 0.816819 0
M  V30 1848 H 183.892 0.973653 1.3899 0
M  V30 1849 H 182.664 1.96489 3.3839 0
M  V30 1850 H 182.287 0.349741 3.96059 0
M  V30 1851 N 183.284 -1.43765 0.645699 0
M  V30 1852 C 184.514 -2.05953 0.163318 0
M  V30 1853 C 184.922 -1.48432 -1.17322 0
M  V30 1854 O 184.265 -0.607295 -1.73371 0
M  V30 1855 C 184.327 -3.59499 -0.0103065 0
M  V30 1856 C 183.991 -4.39563 1.25035 0
M  V30 1857 C 184.988 -4.72108 2.17739 0
M  V30 1858 C 182.673 -4.79697 1.48983 0
M  V30 1859 C 184.667 -5.43688 3.3269 0
M  V30 1860 C 182.354 -5.51023 2.64229 0
M  V30 1861 C 183.352 -5.8294 3.55908 0
M  V30 1862 O 183.04 -6.5281 4.69142 0
M  V30 1863 H 182.772 -0.670798 0.0836986 0
M  V30 1864 H 185.326 -1.85384 0.884407 0
M  V30 1865 H 183.556 -3.78613 -0.78669 0
M  V30 1866 H 185.245 -4.03408 -0.449087 0
M  V30 1867 H 186.011 -4.41627 2.00476 0
M  V30 1868 H 181.89 -4.54266 0.785078 0
M  V30 1869 H 185.434 -5.68517 4.04269 0
M  V30 1870 H 181.331 -5.8092 2.81429 0
M  V30 1871 H 182.099 -6.71288 4.6831 0
M  V30 1872 N 184.763 -0.387143 -1.52771 0
M  V30 1873 C 186.179 -0.037007 -1.59557 0
M  V30 1874 C 186.379 1.44801 -1.40124 0
M  V30 1875 O 185.435 2.21227 -1.21716 0
M  V30 1876 C 186.748 -0.512256 -2.96305 0
M  V30 1877 C 188.296 -0.468328 -3.09476 0
M  V30 1878 C 188.771 -0.919731 -4.4867 0
M  V30 1879 N 190.262 -0.875656 -4.54848 0
M  V30 1880 C 190.997 -1.19637 -5.6078 0
M  V30 1881 N 190.493 -1.58745 -6.74368 0
M  V30 1882 N 192.286 -1.11776 -5.50874 0
M  V30 1883 H 184.437 -1.35395 -1.63652 0
M  V30 1884 H 186.7 -0.554818 -0.768688 0
M  V30 1885 H 186.406 -1.54935 -3.15734 0
M  V30 1886 H 186.28 0.089805 -3.77093 0
M  V30 1887 H 188.667 0.559671 -2.89744 0
M  V30 1888 H 188.748 -1.10616 -2.30646 0
M  V30 1889 H 188.392 -1.94595 -4.69143 0
M  V30 1890 H 188.322 -0.258927 -5.25963 0
M  V30 1891 H 190.813 -0.587843 -3.733 0
M  V30 1892 H 191.126 -1.81586 -7.51163 0
M  V30 1893 H 189.471 -1.6263 -6.75705 0
M  V30 1894 H 192.662 -0.811264 -4.61016 0
M  V30 1895 H 192.835 -1.37103 -6.3333 0
M  V30 1896 N 186.241 1.57166 -0.116904 0
M  V30 1897 C 187.488 1.95123 0.541603 0
M  V30 1898 C 187.816 1.00006 1.6682 0
M  V30 1899 O 187.071 0.0235658 1.95686 0
M  V30 1900 C 187.37 3.39508 1.11664 0
M  V30 1901 C 187.036 4.50762 0.111606 0
M  V30 1902 C 185.698 4.80918 -0.164758 0
M  V30 1903 C 188.05 5.18036 -0.573438 0
M  V30 1904 C 185.378 5.75666 -1.13249 0
M  V30 1905 C 187.73 6.13824 -1.52978 0
M  V30 1906 C 186.394 6.42374 -1.81415 0
M  V30 1907 H 185.664 0.714005 0.198187 0
M  V30 1908 H 188.311 1.9048 -0.197365 0
M  V30 1909 H 186.616 3.40835 1.93232 0
M  V30 1910 H 188.313 3.66189 1.63422 0
M  V30 1911 H 184.903 4.27272 0.337192 0
M  V30 1912 H 189.087 4.94896 -0.373092 0
M  V30 1913 H 184.343 5.96092 -1.35958 0
M  V30 1914 H 188.517 6.65039 -2.06629 0
M  V30 1915 H 186.144 7.15599 -2.56557 0
M  V30 1916 O 187.758 -0.0225413 1.61484 0
M  V30 1917 H 188.449 -0.642234 1.82743 0
M  V30 END ATOM
M  V30 BEGIN BOND
M  V30 END BOND
M  V30 END CTAB
M  END
$$$$
