drugbank_target|P9WH69 R2-like ligand binding oxidase (DB08231)
 OpenBabel12092120493D

  0  0  0     0  0            999 V3000
M  V30 BEGIN CTAB
M  V30 COUNTS 4910 4970 0 0 0
M  V30 BEGIN ATOM
M  V30 1 H -0.908 1.98254 -0.117106 0
M  V30 2 N 0 1.576 0 0
M  V30 3 C 0.933 2.03868 1.02534 0
M  V30 4 C 1.911 0.928543 1.3348 0
M  V30 5 O 3.095 1.19667 1.45644 0
M  V30 6 C 0.222 2.43627 2.35294 0
M  V30 7 C -0.732 3.65373 2.2001 0
M  V30 8 S 0.101 5.13292 1.52614 0
M  V30 9 C 1.257 5.56322 2.86805 0
M  V30 10 H 1.49 2.90518 0.631377 0
M  V30 11 H -0.977 1.52953 0.210867 0
M  V30 12 H 0.981 2.67203 3.11629 0
M  V30 13 H -0.358 1.57376 2.7183 0
M  V30 14 H -1.165 3.90944 3.18086 0
M  V30 15 H -1.563 3.418 1.51819 0
M  V30 16 H 0.729 5.58782 3.83104 0
M  V30 17 H 1.672 6.56266 2.65933 0
M  V30 18 H 2.08 4.83886 2.90714 0
M  V30 19 N 1.4781 -0.272755 1.55222 0
M  V30 20 C 2.7061 -1.02255 1.79865 0
M  V30 21 C 3.1211 -1.79924 0.572088 0
M  V30 22 O 2.4781 -1.76638 -0.458842 0
M  V30 23 C 2.5291 -1.98094 3.02392 0
M  V30 24 O 2.2501 -1.23572 4.20311 0
M  V30 25 C 3.7511 -2.84884 3.39641 0
M  V30 26 H 0.9711 -0.302057 0.599168 0
M  V30 27 H 3.5151 -0.303465 2.02236 0
M  V30 28 H 1.6701 -2.65465 2.82147 0
M  V30 29 H 2.0841 -1.88172 4.89583 0
M  V30 30 H 3.5581 -3.47927 4.28545 0
M  V30 31 H 4.0351 -3.54665 2.59055 0
M  V30 32 H 4.6411 -2.23003 3.62146 0
M  V30 33 N 2.9562 -1.48159 -0.537278 0
M  V30 34 C 4.3722 -1.34118 -0.865129 0
M  V30 35 C 4.5722 -0.346678 -1.98495 0
M  V30 36 O 3.6282 0.234715 -2.51407 0
M  V30 37 C 4.9412 -2.73963 -1.23954 0
M  V30 38 C 6.4892 -2.82397 -1.34984 0
M  V30 39 C 6.9642 -4.22928 -1.75772 0
M  V30 40 N 8.4552 -4.25566 -1.82887 0
M  V30 41 C 9.1902 -5.31235 -2.15817 0
M  V30 42 N 8.6862 -6.47189 -2.47222 0
M  V30 43 N 10.4792 -5.18624 -2.16761 0
M  V30 44 H 2.6302 -2.1144 0.201715 0
M  V30 45 H 4.8932 -0.947598 0.0275949 0
M  V30 46 H 4.5992 -3.48264 -0.490381 0
M  V30 47 H 4.4732 -3.0702 -2.19132 0
M  V30 48 H 6.8602 -2.08356 -2.08978 0
M  V30 49 H 6.9412 -2.5297 -0.379448 0
M  V30 50 H 6.5852 -4.97482 -1.02341 0
M  V30 51 H 6.5152 -4.49794 -2.73848 0
M  V30 52 H 9.0062 -3.41924 -1.60924 0
M  V30 53 H 9.3192 -7.23564 -2.71433 0
M  V30 54 H 7.6642 -6.50476 -2.44757 0
M  V30 55 H 10.8552 -4.27056 -1.91679 0
M  V30 56 H 11.0282 -6.01078 -2.42093 0
M  V30 57 N 4.4343 0.785586 -1.36625 0
M  V30 58 C 5.6623 1.57448 -1.3423 0
M  V30 59 C 6.0773 1.88649 0.0755653 0
M  V30 60 O 5.4343 1.50414 1.03354 0
M  V30 61 C 5.4853 2.89316 -2.16745 0
M  V30 62 O 5.2063 2.59459 -3.53005 0
M  V30 63 C 6.7073 3.83606 -2.22174 0
M  V30 64 H 3.9273 0.488226 -0.4603 0
M  V30 65 H 6.4713 0.974733 -1.79775 0
M  V30 66 H 4.6263 3.4575 -1.74745 0
M  V30 67 H 5.0403 3.43804 -3.96105 0
M  V30 68 H 6.5143 4.73181 -2.8426 0
M  V30 69 H 6.9913 4.21734 -1.22627 0
M  V30 70 H 7.5973 3.33104 -2.64427 0
M  V30 71 N 5.9124 1.20967 1.01018 0
M  V30 72 C 7.3284 0.965905 1.27053 0
M  V30 73 C 7.5284 -0.350785 1.98423 0
M  V30 74 O 6.5844 -1.07773 2.28344 0
M  V30 75 C 7.8974 2.15294 2.09926 0
M  V30 76 C 9.4454 2.19463 2.23171 0
M  V30 77 C 9.9204 3.3767 3.09424 0
M  V30 78 N 11.4114 3.37724 3.17012 0
M  V30 79 C 12.1464 4.25837 3.83993 0
M  V30 80 N 11.6424 5.24138 4.53047 0
M  V30 81 N 13.4354 4.1366 3.80581 0
M  V30 82 H 5.5864 2.0565 0.531194 0
M  V30 83 H 7.8494 0.90024 0.297106 0
M  V30 84 H 7.5554 3.10684 1.64828 0
M  V30 85 H 7.4294 2.13923 3.10672 0
M  V30 86 H 9.8164 1.24632 2.6749 0
M  V30 87 H 9.8974 2.2488 1.21912 0
M  V30 88 H 9.5414 4.32791 2.65808 0
M  V30 89 H 9.4714 3.29491 4.10784 0
M  V30 90 H 11.9624 2.6658 2.6785 0
M  V30 91 H 12.2754 5.87684 5.01844 0
M  V30 92 H 10.6204 5.28068 4.5185 0
M  V30 93 H 13.8114 3.36127 3.25785 0
M  V30 94 H 13.9844 4.82538 4.32505 0
M  V30 95 N 7.3905 -1.2043 1.01659 0
M  V30 96 C 8.6155 -1.94318 0.724942 0
M  V30 97 C 9.0405 -1.74266 -0.708034 0
M  V30 98 O 8.3985 -1.03694 -1.48719 0
M  V30 99 C 8.4465 -3.44486 1.06591 0
M  V30 100 O 7.5505 -4.12017 0.177599 0
M  V30 101 H 6.8915 -0.60708 0.26898 0
M  V30 102 H 9.4215 -1.52861 1.35995 0
M  V30 103 H 9.4315 -3.95106 1.01762 0
M  V30 104 H 8.1065 -3.58404 2.10997 0
M  V30 105 H 6.6835 -3.71821 0.283421 0
M  V30 106 N 8.8686 -0.792821 -1.36206 0
M  V30 107 C 10.1166 -0.366062 -1.98757 0
M  V30 108 C 10.4376 1.0668 -1.63231 0
M  V30 109 O 9.7076 1.73587 -0.907978 0
M  V30 110 H 8.2876 -0.132364 -0.735179 0
M  V30 111 H 10.9496 -1.01562 -1.66347 0
M  V30 112 H 10.0456 -0.460638 -3.08682 0
M  V30 113 N 10.3467 1.47872 -0.545128 0
M  V30 114 C 11.5717 2.07391 -0.0190611 0
M  V30 115 C 11.9967 1.39688 1.25971 0
M  V30 116 O 11.3547 0.467816 1.7516 0
M  V30 117 C 11.4027 3.60188 0.172335 0
M  V30 118 O 10.5067 3.9339 1.23766 0
M  V30 119 H 9.8477 0.662411 -0.0459059 0
M  V30 120 H 12.3777 1.90066 -0.757365 0
M  V30 121 H 12.3877 4.06129 0.390305 0
M  V30 122 H 11.0627 4.08865 -0.761725 0
M  V30 123 H 9.6397 3.5921 1.00114 0
M  V30 124 N 11.8248 0.280983 1.55075 0
M  V30 125 C 12.7548 -0.597469 2.25727 0
M  V30 126 C 13.7358 -1.15417 1.24952 0
M  V30 127 O 14.9208 -1.18722 1.53684 0
M  V30 128 C 12.0508 -1.7789 2.98283 0
M  V30 129 C 11.0048 -1.35347 4.06036 0
M  V30 130 C 10.3308 -2.61846 4.66198 0
M  V30 131 C 11.6308 -0.499354 5.19907 0
M  V30 132 H 13.3248 -0.00824265 2.99399 0
M  V30 133 H 10.8708 -0.0025244 1.44 0
M  V30 134 H 12.8238 -2.39937 3.46422 0
M  V30 135 H 11.5478 -2.39405 2.22155 0
M  V30 136 H 10.2068 -0.756156 3.58717 0
M  V30 137 H 9.8548 -3.21632 3.86732 0
M  V30 138 H 9.5548 -2.3409 5.38958 0
M  V30 139 H 11.0788 -3.24732 5.1709 0
M  V30 140 H 12.4928 -1.02498 5.64063 0
M  V30 141 H 10.8898 -0.316424 5.99265 0
M  V30 142 H 11.9598 0.480459 4.82514 0
M  V30 143 N 13.3029 -1.57598 0.00835791 0
M  V30 144 C 14.2659 -2.07884 -0.965242 0
M  V30 145 C 15.2659 -0.989825 -1.26725 0
M  V30 146 O 16.4559 -1.25218 -1.21104 0
M  V30 147 C 13.5879 -2.52731 -2.28779 0
M  V30 148 H 14.7809 -2.95178 -0.530112 0
M  V30 149 H 12.3339 -1.54458 -0.239283 0
M  V30 150 H 13.0689 -1.68705 -2.76964 0
M  V30 151 H 12.8539 -3.32272 -2.08177 0
M  V30 152 H 14.3439 -2.91933 -2.98605 0
M  V30 153 N 14.781 0.264519 -1.55364 0
M  V30 154 C 15.744 1.31046 -1.88042 0
M  V30 155 C 16.744 1.41943 -0.755569 0
M  V30 156 O 17.934 1.40947 -1.02369 0
M  V30 157 C 15.066 2.69067 -2.09323 0
M  V30 158 H 16.259 1.03297 -2.81549 0
M  V30 159 H 13.812 0.502989 -1.47986 0
M  V30 160 H 14.547 3.01982 -1.18226 0
M  V30 161 H 14.332 2.62542 -2.91229 0
M  V30 162 H 15.822 3.44623 -2.35848 0
M  V30 163 N 16.2591 1.48442 0.529413 0
M  V30 164 C 17.5071 1.56179 1.28267 0
M  V30 165 C 17.8281 0.237721 1.93546 0
M  V30 166 O 17.0981 -0.740779 1.81354 0
M  V30 167 H 15.6781 0.575367 0.476405 0
M  V30 168 H 18.3401 1.84909 0.61602 0
M  V30 169 H 17.4361 2.34312 2.06165 0
M  V30 170 N 17.7372 -0.778329 1.37039 0
M  V30 171 C 18.9852 -1.53361 1.31623 0
M  V30 172 C 19.3062 -1.94739 -0.100831 0
M  V30 173 O 18.5762 -1.65797 -1.04347 0
M  V30 174 H 17.1562 -0.568794 0.484234 0
M  V30 175 H 19.8182 -0.926742 1.71457 0
M  V30 176 H 18.9142 -2.43606 1.95096 0
M  V30 177 N 19.2153 -1.21501 -1.00376 0
M  V30 178 C 20.1453 -0.999478 -2.11028 0
M  V30 179 C 21.1263 0.0759671 -1.6993 0
M  V30 180 O 22.3113 -0.0841106 -1.94018 0
M  V30 181 C 19.4413 -0.564709 -3.42678 0
M  V30 182 C 18.3953 -1.58486 -3.97576 0
M  V30 183 C 17.7213 -1.00628 -5.25146 0
M  V30 184 C 19.0213 -2.97204 -4.29496 0
M  V30 185 H 20.7153 -1.92495 -2.29317 0
M  V30 186 H 18.2613 -0.92693 -1.102 0
M  V30 187 H 20.2143 -0.401091 -4.19487 0
M  V30 188 H 18.9383 0.396411 -3.24185 0
M  V30 189 H 17.5973 -1.73606 -3.22888 0
M  V30 190 H 17.2453 -0.0368439 -5.02987 0
M  V30 191 H 16.9453 -1.68771 -5.62841 0
M  V30 192 H 18.4693 -0.854015 -6.04598 0
M  V30 193 H 19.8833 -2.8552 -4.97143 0
M  V30 194 H 18.2803 -3.62372 -4.78338 0
M  V30 195 H 19.3503 -3.47956 -3.3772 0
M  V30 196 N 20.6934 1.19889 -1.02296 0
M  V30 197 C 21.6414 2.24938 -0.592081 0
M  V30 198 C 22.6354 1.65257 0.372357 0
M  V30 199 O 23.8414 1.78371 0.241583 0
M  V30 200 H 20.2164 0.731787 -0.173182 0
M  V30 201 H 22.1874 2.58603 -1.48885 0
M  V30 202 C 20.9364 3.47668 0.047351 0
M  V30 203 H 20.2594 3.93875 -0.685772 0
M  V30 204 H 21.6994 4.22852 0.311862 0
M  V30 205 C 20.1584 3.11136 1.29212 0
M  V30 206 O 20.6884 3.2325 2.38479 0
M  V30 207 N 18.8944 2.65625 1.17863 0
M  V30 208 H 18.4414 2.55968 0.289493 0
M  V30 209 H 18.3994 2.41553 2.01245 0
M  V30 210 N 22.1715 0.800033 1.35784 0
M  V30 211 C 23.4175 0.38701 1.99684 0
M  V30 212 C 23.7725 -1.03268 1.62338 0
M  V30 213 O 23.0655 -1.70543 0.87325 0
M  V30 214 C 23.2595 0.500276 3.53881 0
M  V30 215 C 23.0885 1.92942 4.06206 0
M  V30 216 C 21.8585 2.55637 4.35865 0
M  V30 217 C 24.0565 2.89307 4.25213 0
M  V30 218 N 22.0385 3.9003 4.74078 0
M  V30 219 C 23.4095 4.08556 4.66349 0
M  V30 220 C 25.4645 2.86225 4.07406 0
M  V30 221 C 24.1675 5.25146 4.91543 0
M  V30 222 C 26.1935 4.02011 4.33752 0
M  V30 223 C 25.5555 5.20007 4.75155 0
M  V30 224 H 21.6545 0.189252 0.758754 0
M  V30 225 H 24.2385 1.03988 1.64604 0
M  V30 226 H 22.4095 -0.122568 3.88207 0
M  V30 227 H 24.1415 0.0624733 4.04652 0
M  V30 228 H 20.8965 2.07039 4.25948 0
M  V30 229 H 21.3205 4.59205 4.97454 0
M  V30 230 H 25.9625 1.96154 3.74544 0
M  V30 231 H 23.6805 6.15794 5.23281 0
M  V30 232 H 27.2665 4.00999 4.21534 0
M  V30 233 H 26.1465 6.08113 4.95145 0
M  V30 234 N 23.6496 -1.47581 0.552962 0
M  V30 235 C 24.6126 -2.28439 -0.186605 0
M  V30 236 C 25.6126 -1.36706 -0.84665 0
M  V30 237 O 26.8026 -1.59378 -0.703164 0
M  V30 238 C 23.9346 -3.16264 -1.2724 0
M  V30 239 H 25.1276 -2.95294 0.523609 0
M  V30 240 H 22.6806 -1.532 0.309745 0
M  V30 241 H 23.4156 -2.54091 -2.01514 0
M  V30 242 H 23.2006 -3.83769 -0.803968 0
M  V30 243 H 24.6906 -3.77198 -1.79196 0
M  V30 244 N 25.1277 -0.289203 -1.54924 0
M  V30 245 C 26.3527 0.329299 -2.04769 0
M  V30 246 C 26.7777 1.4763 -1.16564 0
M  V30 247 O 26.1357 1.80527 -0.167186 0
M  V30 248 C 26.1837 0.774438 -3.52186 0
M  V30 249 O 25.2877 1.88038 -3.67036 0
M  V30 250 H 24.6287 0.0659259 -0.660719 0
M  V30 251 H 27.1587 -0.42761 -2.00082 0
M  V30 252 H 27.1687 1.06642 -3.93816 0
M  V30 253 H 25.8437 -0.0646707 -4.1585 0
M  V30 254 H 24.4207 1.58985 -3.3731 0
M  V30 255 N 26.6058 1.57591 -0.0167156 0
M  V30 256 C 27.5358 2.12496 0.967858 0
M  V30 257 C 28.5168 1.03807 1.34752 0
M  V30 258 O 29.7018 1.31577 1.42833 0
M  V30 259 C 26.8318 2.64194 2.25431 0
M  V30 260 C 25.7858 3.77559 2.01576 0
M  V30 261 C 25.1118 4.15636 3.36379 0
M  V30 262 C 26.4118 5.04151 1.36489 0
M  V30 263 H 28.1058 2.95013 0.510643 0
M  V30 264 H 25.6518 1.41915 0.244181 0
M  V30 265 H 27.6048 3.01236 2.94678 0
M  V30 266 H 26.3288 1.78821 2.73296 0
M  V30 267 H 24.9878 3.40937 1.34751 0
M  V30 268 H 24.6358 3.27263 3.81979 0
M  V30 269 H 24.3358 4.92022 3.21229 0
M  V30 270 H 25.8598 4.5525 4.06915 0
M  V30 271 H 27.2738 5.38857 1.95718 0
M  V30 272 H 25.6708 5.85453 1.31776 0
M  V30 273 H 26.7408 4.83733 0.336219 0
M  V30 274 N 28.0839 -0.256276 1.55502 0
M  V30 275 C 29.4949 -0.826068 1.67431 0
M  V30 276 C 29.8459 -1.86396 0.612446 0
M  V30 277 O 28.9709 -2.15031 -0.243025 0
M  V30 278 C 29.5659 -1.50512 3.03532 0
M  V30 279 C 28.1249 -2.02273 3.17431 0
M  V30 280 C 27.2719 -0.870548 2.63281 0
M  V30 281 H 30.2229 -0.0322728 1.58667 0
M  V30 282 H 30.2439 -2.37279 2.97454 0
M  V30 283 H 29.7559 -0.749484 3.80794 0
M  V30 284 H 27.8569 -2.80746 2.44974 0
M  V30 285 H 27.9699 -2.22655 4.24219 0
M  V30 286 H 26.3339 -1.26851 2.20864 0
M  V30 287 H 27.1169 -0.128149 3.43061 0
M  V30 288 N 29.562 -1.4872 -0.521534 0
M  V30 289 C 30.492 -1.66771 -1.63431 0
M  V30 290 C 31.473 -0.516499 -1.62069 0
M  V30 291 O 32.658 -0.750013 -1.79132 0
M  V30 292 C 29.788 -1.71515 -3.01993 0
M  V30 293 C 28.742 -2.86222 -3.18216 0
M  V30 294 C 28.068 -2.76061 -4.57924 0
M  V30 295 C 29.368 -4.27419 -3.00184 0
M  V30 296 H 31.062 -2.59932 -1.48579 0
M  V30 297 H 28.608 -1.25089 -0.713358 0
M  V30 298 H 30.561 -1.82731 -3.7972 0
M  V30 299 H 29.285 -0.749393 -3.17886 0
M  V30 300 H 27.944 -2.74575 -2.42908 0
M  V30 301 H 27.592 -1.77437 -4.70665 0
M  V30 302 H 27.292 -3.53037 -4.69722 0
M  V30 303 H 28.816 -2.89256 -5.37739 0
M  V30 304 H 30.23 -4.39855 -3.67697 0
M  V30 305 H 28.627 -5.05458 -3.2347 0
M  V30 306 H 29.697 -4.43293 -1.96518 0
M  V30 307 N 31.0401 0.771051 -1.3745 0
M  V30 308 C 31.9871 1.88435 -1.3327 0
M  V30 309 C 32.9571 1.64914 -0.198136 0
M  V30 310 O 34.1421 1.86821 -0.387606 0
M  V30 311 C 31.2821 3.25509 -1.14622 0
M  V30 312 C 30.3951 3.60979 -2.37314 0
M  V30 313 C 29.5301 4.87265 -2.11533 0
M  V30 314 C 28.5691 5.15469 -3.30088 0
M  V30 315 N 27.7061 6.32944 -3.03853 0
M  V30 316 H 32.5461 1.91344 -2.28455 0
M  V30 317 H 30.0831 0.935466 -1.13523 0
M  V30 318 H 32.0411 4.04582 -1.01831 0
M  V30 319 H 30.6711 3.21974 -0.230837 0
M  V30 320 H 29.7231 2.76885 -2.60842 0
M  V30 321 H 31.0351 3.77759 -3.25729 0
M  V30 322 H 30.1891 5.74244 -1.95777 0
M  V30 323 H 28.9281 4.7259 -1.20457 0
M  V30 324 H 27.9331 4.26966 -3.46382 0
M  V30 325 H 29.1581 5.32052 -4.22016 0
M  V30 326 H 27.1041 6.19625 -2.15407 0
M  V30 327 H 27.0211 6.50143 -3.85812 0
M  V30 328 H 28.2891 7.22857 -2.91716 0
M  V30 329 N 32.5182 1.22032 0.997298 0
M  V30 330 C 33.4482 1.01065 2.10495 0
M  V30 331 C 34.4292 -0.0669542 1.69968 0
M  V30 332 O 35.6142 0.0943987 1.9397 0
M  V30 333 C 32.7442 0.582874 3.42374 0
M  V30 334 C 31.6982 1.60592 3.96729 0
M  V30 335 C 31.0242 1.03412 5.24605 0
M  V30 336 C 32.3242 2.99478 4.27914 0
M  V30 337 H 34.0182 1.93708 2.28292 0
M  V30 338 H 31.5642 0.932761 1.09707 0
M  V30 339 H 33.5172 0.423332 4.19268 0
M  V30 340 H 32.2412 -0.379213 3.24391 0
M  V30 341 H 30.9002 1.75316 3.21963 0
M  V30 342 H 30.5482 0.063518 5.0296 0
M  V30 343 H 30.2482 1.71754 5.61938 0
M  V30 344 H 31.7722 0.886066 6.04137 0
M  V30 345 H 33.1862 2.88153 4.95622 0
M  V30 346 H 31.5832 3.64903 4.76409 0
M  V30 347 H 32.6532 3.49742 3.3587 0
M  V30 348 N 33.9963 -1.19345 1.0293 0
M  V30 349 C 35.2433 -1.89038 0.726008 0
M  V30 350 C 35.5713 -1.79649 -0.745427 0
M  V30 351 O 34.8263 -1.18354 -1.55855 0
M  V30 352 C 35.1253 -3.39292 1.12319 0
M  V30 353 C 34.7913 -3.68885 2.59297 0
M  V30 354 C 33.4533 -3.76671 2.99453 0
M  V30 355 C 35.8053 -3.82178 3.54386 0
M  V30 356 C 33.1333 -3.9522 4.33611 0
M  V30 357 C 35.4853 -4.0224 4.88248 0
M  V30 358 C 34.1493 -4.08259 5.28092 0
M  V30 359 H 33.4193 -0.691739 0.265665 0
M  V30 360 H 36.0663 -1.41328 1.29223 0
M  V30 361 H 34.3713 -3.88903 0.475584 0
M  V30 362 H 36.0683 -3.91536 0.866037 0
M  V30 363 H 32.6583 -3.63433 2.27189 0
M  V30 364 H 36.8423 -3.75505 3.24514 0
M  V30 365 H 32.0983 -3.98119 4.64016 0
M  V30 366 H 36.2723 -4.11468 5.61843 0
M  V30 367 H 33.8993 -4.22384 6.32057 0
M  V30 368 N 35.4744 -0.807222 -1.35358 0
M  V30 369 C 36.4374 -0.223665 -2.28106 0
M  V30 370 C 37.4374 0.589354 -1.4961 0
M  V30 371 O 38.6274 0.407745 -1.69361 0
M  V30 372 C 35.7594 0.688149 -3.33882 0
M  V30 373 H 36.9524 -1.04169 -2.81227 0
M  V30 374 H 34.5054 -0.577921 -1.45223 0
M  V30 375 H 35.2404 1.52984 -2.85948 0
M  V30 376 H 35.0254 0.10687 -3.91954 0
M  V30 377 H 36.5154 1.09075 -4.03104 0
M  V30 378 N 36.9525 1.47285 -0.560781 0
M  V30 379 C 38.2005 2.02064 -0.0379868 0
M  V30 380 C 38.5215 1.43711 1.31803 0
M  V30 381 O 37.7915 0.61362 1.86042 0
M  V30 382 H 36.3715 0.746918 -0.0110531 0
M  V30 383 H 39.0335 1.80648 -0.731598 0
M  V30 384 H 38.1295 3.12064 0.0474463 0
M  V30 385 N 38.4306 0.297415 1.54768 0
M  V30 386 C 39.6786 -0.312295 1.99673 0
M  V30 387 C 39.9996 -1.54686 1.18732 0
M  V30 388 O 39.2696 -1.93854 0.282382 0
M  V30 389 H 37.8496 -0.118381 0.73756 0
M  V30 390 H 40.5116 0.407915 1.90583 0
M  V30 391 H 39.6076 -0.586813 3.06534 0
M  V30 392 N 39.9087 -1.5758 0.0250728 0
M  V30 393 C 40.8567 -2.11125 -0.97617 0
M  V30 394 C 41.8507 -1.03689 -1.33959 0
M  V30 395 O 43.0567 -1.22128 -1.3223 0
M  V30 396 H 39.4317 -0.674468 -0.332561 0
M  V30 397 H 41.4027 -2.94194 -0.499223 0
M  V30 398 C 40.1517 -2.65017 -2.2508 0
M  V30 399 H 39.4747 -3.47333 -1.9799 0
M  V30 400 H 40.9147 -3.06133 -2.93357 0
M  V30 401 C 39.3737 -1.57574 -2.97779 0
M  V30 402 O 39.9037 -0.973203 -3.89733 0
M  V30 403 N 38.1097 -1.29716 -2.60043 0
M  V30 404 H 37.6567 -1.789 -1.85345 0
M  V30 405 H 37.6147 -0.58051 -3.08994 0
M  V30 406 N 41.3868 0.248026 -1.55636 0
M  V30 407 C 42.3498 1.29044 -1.89421 0
M  V30 408 C 43.3498 1.41134 -0.770581 0
M  V30 409 O 44.5398 1.39854 -1.03858 0
M  V30 410 C 41.6718 2.66831 -2.12165 0
M  V30 411 H 42.8648 1.00305 -2.82629 0
M  V30 412 H 40.4178 0.487265 -1.48511 0
M  V30 413 H 41.1528 3.00711 -1.21422 0
M  V30 414 H 40.9378 2.59438 -2.93997 0
M  V30 415 H 42.4278 3.42103 -2.3949 0
M  V30 416 N 42.8649 1.48995 0.513639 0
M  V30 417 C 43.8119 1.6473 1.61656 0
M  V30 418 C 44.7819 0.488984 1.58739 0
M  V30 419 O 45.9669 0.714478 1.76918 0
M  V30 420 C 43.1069 1.7082 2.99858 0
M  V30 421 C 42.2199 2.9787 3.12885 0
M  V30 422 C 41.3549 2.95017 4.41744 0
M  V30 423 C 40.3939 4.16702 4.48359 0
M  V30 424 N 39.5309 4.11832 5.68629 0
M  V30 425 H 44.3709 2.58909 1.47547 0
M  V30 426 H 41.9079 1.28382 0.71808 0
M  V30 427 H 43.8659 1.72331 3.79944 0
M  V30 428 H 42.4959 0.801181 3.12699 0
M  V30 429 H 41.5479 3.06029 2.25944 0
M  V30 430 H 42.8599 3.8786 3.13633 0
M  V30 431 H 42.0139 2.95021 5.30139 0
M  V30 432 H 40.7529 2.02784 4.43542 0
M  V30 433 H 39.7579 4.16955 3.58369 0
M  V30 434 H 40.9829 5.10113 4.48287 0
M  V30 435 H 38.9289 3.22428 5.71293 0
M  V30 436 H 38.8459 4.95543 5.7094 0
M  V30 437 H 40.1139 4.1592 6.59266 0
M  V30 438 N 44.343 -0.763751 1.37857 0
M  V30 439 C 45.59 -1.52257 1.33506 0
M  V30 440 C 45.918 -1.94343 -0.078022 0
M  V30 441 O 45.173 -1.64958 -1.05297 0
M  V30 442 C 45.472 -2.79499 2.22745 0
M  V30 443 C 45.138 -2.56426 3.70886 0
M  V30 444 C 43.8 -2.49842 4.11257 0
M  V30 445 C 46.152 -2.36008 4.64704 0
M  V30 446 C 43.48 -2.20841 5.43549 0
M  V30 447 C 45.832 -2.0853 5.97242 0
M  V30 448 C 44.496 -2.00396 6.36709 0
M  V30 449 H 43.766 -0.557149 0.488534 0
M  V30 450 H 46.413 -0.879073 1.70131 0
M  V30 451 H 44.718 -3.48447 1.79142 0
M  V30 452 H 46.415 -3.37413 2.16688 0
M  V30 453 H 43.005 -2.62416 3.38874 0
M  V30 454 H 47.189 -2.40079 4.34368 0
M  V30 455 H 42.445 -2.13045 5.73081 0
M  V30 456 H 46.619 -1.91732 6.69486 0
M  V30 457 H 44.246 -1.77688 7.39142 0
M  V30 458 N 45.8211 -1.22559 -0.990812 0
M  V30 459 C 47.0671 -1.06303 -1.73411 0
M  V30 460 C 47.4221 0.397442 -1.8825 0
M  V30 461 O 46.7151 1.29062 -1.41611 0
M  V30 462 C 46.9091 -1.71011 -3.13831 0
M  V30 463 C 46.7381 -3.232 -3.12685 0
M  V30 464 C 45.5081 -3.92314 -3.18461 0
M  V30 465 C 47.7061 -4.20107 -2.96673 0
M  V30 466 N 45.6881 -5.31571 -3.07091 0
M  V30 467 C 47.0591 -5.46208 -2.93354 0
M  V30 468 C 49.1141 -4.10973 -2.8108 0
M  V30 469 C 47.8171 -6.64225 -2.76039 0
M  V30 470 C 49.8431 -5.28642 -2.65126 0
M  V30 471 C 49.2051 -6.53663 -2.62496 0
M  V30 472 H 45.3041 -0.443441 -0.644115 0
M  V30 473 H 47.8881 -1.55131 -1.17654 0
M  V30 474 H 46.0591 -1.2473 -3.67827 0
M  V30 475 H 47.7911 -1.47828 -3.76735 0
M  V30 476 H 44.5461 -3.43326 -3.26227 0
M  V30 477 H 44.9701 -6.0455 -3.0471 0
M  V30 478 H 49.6121 -3.15098 -2.8191 0
M  V30 479 H 47.3301 -7.60246 -2.73954 0
M  V30 480 H 50.9161 -5.23407 -2.54039 0
M  V30 481 H 49.7961 -7.43182 -2.50302 0
M  V30 482 N 47.2992 1.18797 -1.03562 0
M  V30 483 C 48.2492 2.20161 -0.592724 0
M  V30 484 C 49.2332 1.56772 0.362133 0
M  V30 485 O 50.4252 1.76062 0.182009 0
M  V30 486 C 47.5542 3.43266 0.0481024 0
M  V30 487 C 46.6402 4.13786 -0.9296 0
M  V30 488 N 47.0312 4.60388 -2.09467 0
M  V30 489 C 45.3292 4.39572 -0.754499 0
M  V30 490 C 46.0302 5.14619 -2.71187 0
M  V30 491 N 45.0062 5.05826 -1.991 0
M  V30 492 H 48.8082 2.53877 -1.48066 0
M  V30 493 H 46.3222 1.34946 -0.903514 0
M  V30 494 H 48.3192 4.15136 0.383058 0
M  V30 495 H 46.9792 3.11048 0.931636 0
M  V30 496 H 47.9902 4.54999 -2.47379 0
M  V30 497 H 44.6672 4.17425 0.0793713 0
M  V30 498 H 46.0572 5.60917 -3.69895 0
M  V30 499 N 48.7773 0.814389 1.34928 0
M  V30 500 C 50.1883 0.458364 1.80986 0
M  V30 501 C 50.5393 -1.02042 1.67577 0
M  V30 502 O 49.6643 -1.79352 1.21086 0
M  V30 503 C 50.2593 0.825212 3.28597 0
M  V30 504 C 48.8183 0.521677 3.72767 0
M  V30 505 C 47.9653 1.04668 2.56788 0
M  V30 506 H 50.9163 1.00533 1.22795 0
M  V30 507 H 50.9373 0.12571 3.80292 0
M  V30 508 H 50.4493 1.90154 3.38324 0
M  V30 509 H 48.5503 -0.545589 3.68584 0
M  V30 510 H 48.6633 1.05977 4.67232 0
M  V30 511 H 47.0273 0.468622 2.50352 0
M  V30 512 H 47.8103 2.12927 2.6929 0
M  V30 513 N 50.2554 -1.46986 0.568584 0
M  V30 514 C 51.2184 -2.28624 -0.162366 0
M  V30 515 C 52.2184 -1.37596 -0.832103 0
M  V30 516 O 53.4084 -1.60115 -0.68622 0
M  V30 517 C 50.5404 -3.17596 -1.23878 0
M  V30 518 H 51.7334 -2.94722 0.554899 0
M  V30 519 H 49.2864 -1.52863 0.325976 0
M  V30 520 H 50.0214 -2.56214 -1.98808 0
M  V30 521 H 49.8064 -3.846 -0.763219 0
M  V30 522 H 51.2964 -3.79078 -1.75185 0
M  V30 523 N 51.7335 -0.305618 -1.54608 0
M  V30 524 C 53.0105 0.355652 -1.92339 0
M  V30 525 C 53.3905 1.71324 -1.23335 0
M  V30 526 O 52.7385 2.25473 -0.370702 0
M  V30 527 C 52.9485 0.46572 -3.45879 0
M  V30 528 C 54.2965 0.734426 -4.182 0
M  V30 529 O 55.3205 0.54935 -3.51938 0
M  V30 530 O 54.1795 1.09024 -5.35515 0
M  V30 531 H 51.2735 0.199666 -0.802535 0
M  V30 532 H 53.8195 -0.354017 -1.65966 0
M  V30 533 H 52.5915 -0.488461 -3.88239 0
M  V30 534 H 52.2145 1.22367 -3.78301 0
M  V30 535 N 53.2116 1.57565 -0.0334293 0
M  V30 536 C 54.4606 1.91155 0.643639 0
M  V30 537 C 54.7736 0.91192 1.73042 0
M  V30 538 O 55.9796 1.13923 2.46442 0
M  V30 539 C 54.4356 3.39443 1.1961 0
M  V30 540 C 54.0436 4.47774 0.142381 0
M  V30 541 C 55.7876 3.82094 1.84944 0
M  V30 542 C 53.6946 5.87162 0.706727 0
M  V30 543 H 52.6246 0.713368 0.244176 0
M  V30 544 H 55.2756 1.8323 -0.0994323 0
M  V30 545 H 53.6576 3.42313 1.99092 0
M  V30 546 H 54.8316 4.56469 -0.630296 0
M  V30 547 H 53.1466 4.14352 -0.412446 0
M  V30 548 H 55.7436 4.83591 2.2813 0
M  V30 549 H 56.0866 3.17386 2.69392 0
M  V30 550 H 56.6196 3.81665 1.12145 0
M  V30 551 H 53.3586 6.55424 -0.0997178 0
M  V30 552 H 52.8786 5.82064 1.44779 0
M  V30 553 H 54.5576 6.35866 1.19514 0
M  V30 554 N 54.6897 -0.239769 1.55765 0
M  V30 555 C 55.9667 -0.990056 1.68693 0
M  V30 556 C 56.3467 -2.03107 0.5754 0
M  V30 557 O 55.6947 -2.24604 -0.42017 0
M  V30 558 C 55.9047 -1.61696 3.09282 0
M  V30 559 C 57.2527 -2.11613 3.6811 0
M  V30 560 O 58.2767 -1.71624 3.12127 0
M  V30 561 O 57.1357 -2.85057 4.66267 0
M  V30 562 H 54.2297 -0.461299 0.686391 0
M  V30 563 H 56.7757 -0.232991 1.68093 0
M  V30 564 H 55.5477 -0.864357 3.81634 0
M  V30 565 H 55.1707 -2.44005 3.13923 0
M  V30 566 N 56.1678 -1.49265 -0.50573 0
M  V30 567 C 57.4148 -1.58513 -1.26015 0
M  V30 568 C 57.7428 -0.26972 -1.92621 0
M  V30 569 O 56.9978 0.741997 -1.81088 0
M  V30 570 C 57.2968 -2.69008 -2.35308 0
M  V30 571 C 56.9628 -4.10662 -1.86192 0
M  V30 572 C 55.6248 -4.49212 -1.72516 0
M  V30 573 C 57.9768 -4.99336 -1.49375 0
M  V30 574 C 55.3048 -5.74214 -1.20394 0
M  V30 575 C 57.6568 -6.24852 -0.987072 0
M  V30 576 C 56.3208 -6.62236 -0.836669 0
M  V30 577 H 55.5908 -0.580041 -0.461122 0
M  V30 578 H 58.2378 -1.83078 -0.561665 0
M  V30 579 H 56.5428 -2.38396 -3.10926 0
M  V30 580 H 58.2398 -2.73373 -2.93374 0
M  V30 581 H 54.8298 -3.8023 -1.97795 0
M  V30 582 H 59.0138 -4.70212 -1.5879 0
M  V30 583 H 54.2698 -6.01883 -1.07458 0
M  V30 584 H 58.4438 -6.92944 -0.692983 0
M  V30 585 H 56.0708 -7.58979 -0.430607 0
M  V30 586 N 57.6459 0.756429 -1.3826 0
M  V30 587 C 58.8739 1.54565 -1.3754 0
M  V30 588 C 59.2889 1.88767 0.0355331 0
M  V30 589 O 58.6459 1.52572 1.0014 0
M  V30 590 C 58.6969 2.84654 -2.22833 0
M  V30 591 O 58.4179 2.51912 -3.5843 0
M  V30 592 C 59.9189 3.78807 -2.30261 0
M  V30 593 H 57.1389 0.478353 -0.470553 0
M  V30 594 H 59.6829 0.936381 -1.81803 0
M  V30 595 H 57.8379 3.41965 -1.8204 0
M  V30 596 H 58.2519 3.35325 -4.03308 0
M  V30 597 H 59.7259 4.67045 -2.94233 0
M  V30 598 H 60.2029 4.19038 -1.31545 0
M  V30 599 H 60.8089 3.2742 -2.71433 0
M  V30 600 N 59.124 1.23083 0.984299 0
M  V30 601 C 60.54 0.992637 1.24975 0
M  V30 602 C 60.74 -0.308618 1.99123 0
M  V30 603 O 59.796 -1.02905 2.30579 0
M  V30 604 C 61.109 2.19698 2.05312 0
M  V30 605 C 62.657 2.24147 2.18465 0
M  V30 606 C 63.132 3.44157 3.02192 0
M  V30 607 N 64.623 3.44372 3.09777 0
M  V30 608 C 65.358 4.33886 3.74874 0
M  V30 609 N 64.854 5.3363 4.41827 0
M  V30 610 N 66.647 4.21639 3.71721 0
M  V30 611 H 58.798 2.06731 0.487453 0
M  V30 612 H 61.061 0.906339 0.277944 0
M  V30 613 H 60.767 3.1411 1.58201 0
M  V30 614 H 60.641 2.20465 3.06064 0
M  V30 615 H 63.028 1.30277 2.64786 0
M  V30 616 H 63.109 2.27415 1.17115 0
M  V30 617 H 62.753 4.38332 2.56568 0
M  V30 618 H 62.683 3.3813 4.03702 0
M  V30 619 H 65.174 2.72201 2.62135 0
M  V30 620 H 65.487 5.98196 4.89266 0
M  V30 621 H 63.832 5.37534 4.40548 0
M  V30 622 H 67.023 3.42962 3.18582 0
M  V30 623 H 67.196 4.91604 4.22173 0
M  V30 624 N 60.6021 -1.18246 1.0419 0
M  V30 625 C 61.8791 -1.84121 0.660208 0
M  V30 626 C 62.2591 -1.92778 -0.860221 0
M  V30 627 O 61.6071 -1.45464 -1.76217 0
M  V30 628 C 61.8171 -3.22355 1.33747 0
M  V30 629 C 63.1651 -3.98376 1.46906 0
M  V30 630 O 64.1891 -3.31799 1.29568 0
M  V30 631 O 63.0481 -5.17665 1.75171 0
M  V30 632 H 60.1421 -0.794036 0.231161 0
M  V30 633 H 62.6881 -1.25628 1.14087 0
M  V30 634 H 61.4601 -3.10964 2.37522 0
M  V30 635 H 61.0831 -3.88506 0.845515 0
M  V30 636 N 62.0802 -0.821533 -1.34494 0
M  V30 637 C 63.4962 -0.507117 -1.51329 0
M  V30 638 C 63.6962 0.968964 -1.76673 0
M  V30 639 O 62.7522 1.75348 -1.81685 0
M  V30 640 C 64.0652 -1.36544 -2.67911 0
M  V30 641 C 65.6132 -1.36242 -2.81793 0
M  V30 642 C 66.0882 -2.2052 -4.01416 0
M  V30 643 N 67.5792 -2.18136 -4.08621 0
M  V30 644 C 68.3142 -2.80095 -5.00334 0
M  V30 645 N 67.8102 -3.51039 -5.9728 0
M  V30 646 N 69.6032 -2.69656 -4.93196 0
M  V30 647 H 61.7542 -1.77729 -1.16302 0
M  V30 648 H 64.0172 -0.757291 -0.570276 0
M  V30 649 H 63.7232 -2.41361 -2.55808 0
M  V30 650 H 63.5972 -1.02917 -3.62888 0
M  V30 651 H 65.9842 -0.322041 -2.93338 0
M  V30 652 H 66.0652 -1.73866 -1.87628 0
M  V30 653 H 65.7092 -3.24607 -3.90631 0
M  V30 654 H 65.6392 -1.80247 -4.94791 0
M  V30 655 H 68.1302 -1.6653 -3.39229 0
M  V30 656 H 68.4432 -3.95565 -6.63889 0
M  V30 657 H 66.7882 -3.55145 -5.97409 0
M  V30 658 H 69.9792 -2.13808 -4.16418 0
M  V30 659 H 70.1522 -3.1823 -5.64476 0
M  V30 660 N 63.5583 1.46682 -0.576371 0
M  V30 661 C 64.5213 2.28707 0.150239 0
M  V30 662 C 65.5213 1.38035 0.824794 0
M  V30 663 O 66.7113 1.60476 0.677719 0
M  V30 664 C 63.8433 3.18248 1.22192 0
M  V30 665 H 65.0363 2.94423 -0.570521 0
M  V30 666 H 62.5893 1.52688 -0.334078 0
M  V30 667 H 63.3243 2.57265 1.97447 0
M  V30 668 H 63.1093 3.85 0.742812 0
M  V30 669 H 64.5993 3.80001 1.73172 0
M  V30 670 N 65.0364 0.313813 1.54444 0
M  V30 671 C 66.3134 -0.345447 1.92525 0
M  V30 672 C 66.6934 -1.70667 1.24242 0
M  V30 673 O 66.0414 -2.25273 0.382654 0
M  V30 674 C 66.2514 -0.44737 3.46121 0
M  V30 675 C 67.5994 -0.712238 4.18584 0
M  V30 676 O 68.6234 -0.530678 3.52225 0
M  V30 677 O 67.4824 -1.06183 5.36085 0
M  V30 678 H 64.5764 -0.195407 0.803583 0
M  V30 679 H 67.1224 0.362813 1.65776 0
M  V30 680 H 65.8944 0.509043 3.87975 0
M  V30 681 H 65.5174 -1.20359 3.78945 0
M  V30 682 N 66.5145 -1.57545 0.0417849 0
M  V30 683 C 67.7605 -1.93424 -0.629168 0
M  V30 684 C 68.1155 -0.919564 -1.69002 0
M  V30 685 O 67.4085 0.0626178 -1.91498 0
M  V30 686 C 67.6025 -3.33794 -1.27735 0
M  V30 687 C 67.4315 -4.48822 -0.280806 0
M  V30 688 C 66.2015 -5.05148 0.123869 0
M  V30 689 C 68.3995 -5.12148 0.470012 0
M  V30 690 N 66.3815 -6.03703 1.11426 0
M  V30 691 C 67.7525 -6.05921 1.31377 0
M  V30 692 C 69.8075 -4.95078 0.529343 0
M  V30 693 C 68.5105 -6.84459 2.21152 0
M  V30 694 C 70.5365 -5.74235 1.41448 0
M  V30 695 C 69.8985 -6.67634 2.24598 0
M  V30 696 H 65.9975 -0.755418 -0.202158 0
M  V30 697 H 68.5815 -1.94378 0.111923 0
M  V30 698 H 66.7525 -3.33635 -1.98852 0
M  V30 699 H 68.4845 -3.56988 -1.90635 0
M  V30 700 H 65.2395 -4.72923 -0.253178 0
M  V30 701 H 65.6635 -6.57674 1.60607 0
M  V30 702 H 70.3055 -4.22683 -0.0992798 0
M  V30 703 H 68.0235 -7.56151 2.85063 0
M  V30 704 H 71.6095 -5.63057 1.46484 0
M  V30 705 H 70.4895 -7.27817 2.9198 0
M  V30 706 N 67.9926 0.231505 -1.5589 0
M  V30 707 C 68.9026 1.308 -1.94752 0
M  V30 708 C 69.9186 1.51826 -0.849989 0
M  V30 709 O 71.0946 1.6515 -1.15271 0
M  V30 710 C 68.1596 2.63968 -2.24771 0
M  V30 711 C 67.2206 2.51331 -3.48039 0
M  V30 712 C 66.4536 3.78148 -3.76616 0
M  V30 713 O 66.6766 4.80722 -3.07022 0
M  V30 714 O 65.6106 3.75857 -4.70123 0
M  V30 715 H 69.4366 1.0083 -2.86474 0
M  V30 716 H 67.0216 0.433547 -1.42971 0
M  V30 717 H 68.9036 3.42633 -2.45318 0
M  V30 718 H 67.5786 2.9364 -1.36225 0
M  V30 719 H 66.4856 1.709 -3.32782 0
M  V30 720 H 67.8186 2.26601 -4.36936 0
M  V30 721 N 69.4707 1.49531 0.497807 0
M  V30 722 C 70.4177 1.66436 1.59899 0
M  V30 723 C 71.3877 0.505793 1.58212 0
M  V30 724 O 72.5727 0.733202 1.7615 0
M  V30 725 C 69.7127 1.7399 2.98029 0
M  V30 726 C 68.8257 3.01172 3.09708 0
M  V30 727 C 67.9607 2.99686 4.38591 0
M  V30 728 C 66.9997 4.21434 4.43914 0
M  V30 729 N 66.1367 4.1784 5.64229 0
M  V30 730 H 70.9767 2.60459 1.44793 0
M  V30 731 H 68.5137 1.29137 0.704423 0
M  V30 732 H 70.4717 1.76352 3.78095 0
M  V30 733 H 69.1017 0.834301 3.11832 0
M  V30 734 H 68.1537 3.08408 2.22685 0
M  V30 735 H 69.4657 3.91165 3.09502 0
M  V30 736 H 68.6197 3.00628 5.2698 0
M  V30 737 H 67.3587 2.07477 4.41367 0
M  V30 738 H 66.3637 4.20733 3.53926 0
M  V30 739 H 67.5887 5.14839 4.42851 0
M  V30 740 H 65.5347 3.28469 5.67841 0
M  V30 741 H 65.4517 5.01571 5.65652 0
M  V30 742 H 66.7197 4.22889 6.54817 0
M  V30 743 N 70.9488 -0.749086 1.3866 0
M  V30 744 C 71.8788 -1.8764 1.38973 0
M  V30 745 C 72.8598 -1.68178 0.255004 0
M  V30 746 O 74.0448 -1.88704 0.458754 0
M  V30 747 C 71.1748 -3.25222 1.21851 0
M  V30 748 C 70.1288 -3.59295 2.32575 0
M  V30 749 C 69.4548 -4.95663 2.00555 0
M  V30 750 C 70.7548 -3.63709 3.7485 0
M  V30 751 H 72.4488 -1.87635 2.3331 0
M  V30 752 H 69.9948 -0.901329 1.12303 0
M  V30 753 H 71.9478 -4.03746 1.20695 0
M  V30 754 H 70.6718 -3.25719 0.239775 0
M  V30 755 H 69.3308 -2.83093 2.32925 0
M  V30 756 H 68.9788 -4.92724 1.01154 0
M  V30 757 H 68.6788 -5.19429 2.74714 0
M  V30 758 H 70.2028 -5.7656 2.01024 0
M  V30 759 H 71.6168 -4.32338 3.76506 0
M  V30 760 H 70.0138 -3.98986 4.48252 0
M  V30 761 H 71.0838 -2.63834 4.06841 0
M  V30 762 N 72.4269 -1.23603 -0.977757 0
M  V30 763 C 73.6519 -1.09735 -1.75991 0
M  V30 764 C 74.0769 0.346858 -1.84874 0
M  V30 765 O 73.4349 1.25093 -1.3123 0
M  V30 766 C 73.4829 -1.73051 -3.16363 0
M  V30 767 O 72.5869 -0.994452 -4.0023 0
M  V30 768 H 71.9279 -0.384476 -0.541364 0
M  V30 769 H 74.4579 -1.6371 -1.2272 0
M  V30 770 H 74.4679 -1.78398 -3.66931 0
M  V30 771 H 73.1429 -2.78137 -3.09213 0
M  V30 772 H 71.7199 -1.01812 -3.58732 0
M  V30 773 N 73.905 1.17692 -1.04816 0
M  V30 774 C 75.182 1.83768 -0.669963 0
M  V30 775 C 75.562 1.93232 0.849986 0
M  V30 776 O 74.91 1.46397 1.75443 0
M  V30 777 C 75.12 3.21641 -1.35455 0
M  V30 778 C 76.468 3.97592 -1.49017 0
M  V30 779 O 77.492 3.31107 -1.31326 0
M  V30 780 O 76.351 5.16729 -1.77914 0
M  V30 781 H 73.445 0.792799 -0.235368 0
M  V30 782 H 75.991 1.25021 -1.14751 0
M  V30 783 H 74.763 3.097 -2.39168 0
M  V30 784 H 74.386 3.88052 -0.866107 0
M  V30 785 N 75.3831 0.828654 1.34056 0
M  V30 786 C 76.6601 0.341809 1.9259 0
M  V30 787 C 77.0401 -1.17158 1.75605 0
M  V30 788 O 76.3881 -1.98132 1.13824 0
M  V30 789 C 76.5981 0.777453 3.4023 0
M  V30 790 C 77.9461 0.779579 4.17382 0
M  V30 791 O 78.9701 0.7204 3.48839 0
M  V30 792 O 77.8291 0.857996 5.39723 0
M  V30 793 H 74.9231 0.0946085 0.821571 0
M  V30 794 H 77.4691 0.913827 1.42994 0
M  V30 795 H 76.2411 1.8196 3.46419 0
M  V30 796 H 75.8641 0.181444 3.97186 0
M  V30 797 N 76.8612 -1.46375 0.584142 0
M  V30 798 C 77.7712 -2.34115 -0.150728 0
M  V30 799 C 78.7872 -1.49838 -0.884567 0
M  V30 800 O 79.9632 -1.82704 -0.847429 0
M  V30 801 C 77.0282 -3.2705 -1.15062 0
M  V30 802 C 76.0892 -4.27228 -0.421293 0
M  V30 803 C 75.3222 -5.15722 -1.37355 0
M  V30 804 O 75.5452 -5.07176 -2.61014 0
M  V30 805 O 74.4792 -5.95383 -0.883355 0
M  V30 806 H 78.3052 -2.98309 0.569708 0
M  V30 807 H 75.8902 -1.45373 0.344535 0
M  V30 808 H 77.7722 -3.84381 -1.72712 0
M  V30 809 H 76.4472 -2.65451 -1.8525 0
M  V30 810 H 75.3542 -3.7358 0.197085 0
M  V30 811 H 76.6872 -4.91616 0.239641 0
M  V30 812 N 78.3393 -0.321999 -1.54275 0
M  V30 813 C 79.7553 0.0306999 -1.5957 0
M  V30 814 C 79.9553 1.50614 -1.33857 0
M  V30 815 O 79.0113 2.2619 -1.12223 0
M  V30 816 C 80.3243 -0.386122 -2.98211 0
M  V30 817 C 81.8723 -0.336647 -3.11184 0
M  V30 818 C 82.3473 -0.728607 -4.52167 0
M  V30 819 N 83.8383 -0.681952 -4.58152 0
M  V30 820 C 84.5733 -0.957449 -5.6535 0
M  V30 821 N 84.0693 -1.3 -6.80494 0
M  V30 822 N 85.8623 -0.883113 -5.55119 0
M  V30 823 H 78.0133 -1.28332 -1.69247 0
M  V30 824 H 80.2763 -0.521716 -0.791528 0
M  V30 825 H 79.9823 -1.41404 -3.22022 0
M  V30 826 H 79.8563 0.249662 -3.76373 0
M  V30 827 H 82.2433 0.682058 -2.8711 0
M  V30 828 H 82.3243 -1.00734 -2.3513 0
M  V30 829 H 81.9683 -1.74522 -4.76974 0
M  V30 830 H 81.8983 -0.0356152 -5.26588 0
M  V30 831 H 84.3893 -0.428985 -3.75457 0
M  V30 832 H 84.7023 -1.49563 -7.58189 0
M  V30 833 H 83.0473 -1.33824 -6.81994 0
M  V30 834 H 86.2383 -0.615001 -4.64042 0
M  V30 835 H 86.4113 -1.10118 -6.38575 0
M  V30 836 N 79.8174 1.5752 -0.0501392 0
M  V30 837 C 81.0944 1.83996 0.663685 0
M  V30 838 C 81.4744 0.938339 1.89099 0
M  V30 839 O 80.8224 -0.00087759 2.285 0
M  V30 840 C 81.0324 3.33702 1.02196 0
M  V30 841 C 82.3804 4.00691 1.40469 0
M  V30 842 O 83.4044 3.38321 1.11433 0
M  V30 843 O 82.2634 5.10658 1.94654 0
M  V30 844 H 79.3574 0.759385 0.32751 0
M  V30 845 H 81.9034 1.69514 -0.0794238 0
M  V30 846 H 80.6754 3.91015 0.149364 0
M  V30 847 H 80.2984 3.53368 1.82255 0
M  V30 848 N 81.2955 -0.223234 1.56011 0
M  V30 849 C 82.5255 -0.963413 1.82762 0
M  V30 850 C 82.9335 -1.78516 0.626804 0
M  V30 851 O 82.2765 -1.78974 -0.414014 0
M  V30 852 C 82.3385 -1.93126 3.0322 0
M  V30 853 C 82.0025 -1.2942 4.38291 0
M  V30 854 C 82.9995 -0.684916 5.15369 0
M  V30 855 C 80.6845 -1.30647 4.85012 0
M  V30 856 C 82.6785 -0.0963971 6.37327 0
M  V30 857 C 80.3655 -0.71411 6.06913 0
M  V30 858 C 81.3635 -0.110123 6.82911 0
M  V30 859 O 81.0515 0.47303 8.02507 0
M  V30 860 H 80.7835 -0.288011 0.611576 0
M  V30 861 H 83.3375 -0.244103 2.03944 0
M  V30 862 H 81.5675 -2.68952 2.77852 0
M  V30 863 H 83.2565 -2.53685 3.16857 0
M  V30 864 H 84.0225 -0.667774 4.80381 0
M  V30 865 H 79.9015 -1.76598 4.25833 0
M  V30 866 H 83.4455 0.375657 6.96588 0
M  V30 867 H 79.3425 -0.728659 6.41374 0
M  V30 868 H 80.1105 0.367186 8.17676 0
M  V30 869 N 82.7736 -1.49793 -0.48987 0
M  V30 870 C 83.7366 -1.66752 -1.57246 0
M  V30 871 C 84.7366 -0.538867 -1.51502 0
M  V30 872 O 85.9266 -0.805545 -1.54456 0
M  V30 873 C 83.0586 -1.67528 -2.96896 0
M  V30 874 H 84.2516 -2.63321 -1.43534 0
M  V30 875 H 81.8046 -1.38992 -0.714914 0
M  V30 876 H 82.5396 -0.725837 -3.16073 0
M  V30 877 H 82.3246 -2.49504 -3.02473 0
M  V30 878 H 83.8146 -1.82667 -3.7553 0
M  V30 879 N 84.2517 0.741722 -1.39055 0
M  V30 880 C 85.4797 1.53098 -1.39171 0
M  V30 881 C 85.8947 1.88794 0.0155099 0
M  V30 882 O 85.2517 1.53626 0.985159 0
M  V30 883 C 85.3027 2.82274 -2.2584 0
M  V30 884 O 85.0237 2.48097 -3.61081 0
M  V30 885 C 86.5247 3.76343 -2.34266 0
M  V30 886 H 83.7447 0.473335 -0.4756 0
M  V30 887 H 86.2887 0.917045 -1.82785 0
M  V30 888 H 84.4437 3.40015 -1.85656 0
M  V30 889 H 84.8577 3.31029 -4.06842 0
M  V30 890 H 86.3317 4.63898 -2.9917 0
M  V30 891 H 86.8087 4.17619 -1.35982 0
M  V30 892 H 87.4147 3.24523 -2.74891 0
M  V30 893 N 85.7298 1.2412 0.971189 0
M  V30 894 C 87.1458 1.00584 1.23916 0
M  V30 895 C 87.3458 -0.287481 1.99439 0
M  V30 896 O 86.4018 -1.00454 2.31658 0
M  V30 897 C 87.7148 2.21864 2.0297 0
M  V30 898 C 89.2628 2.26452 2.16076 0
M  V30 899 C 89.7378 3.47343 2.98524 0
M  V30 900 N 91.2288 3.47639 3.06107 0
M  V30 901 C 91.9638 4.37837 3.70251 0
M  V30 902 N 91.4598 5.38286 4.36142 0
M  V30 903 N 93.2528 4.25558 3.67228 0
M  V30 904 H 85.4038 2.07236 0.465499 0
M  V30 905 H 87.6668 0.909236 0.268315 0
M  V30 906 H 87.3728 3.15771 1.54861 0
M  V30 907 H 87.2468 2.23698 3.03709 0
M  V30 908 H 89.6338 1.33078 2.6339 0
M  V30 909 H 89.7148 2.28645 1.14696 0
M  V30 910 H 89.3588 4.41029 2.51905 0
M  V30 911 H 89.2888 3.42393 4.00093 0
M  V30 912 H 91.7798 2.74966 2.59233 0
M  V30 913 H 92.0928 6.03352 4.82894 0
M  V30 914 H 90.4378 5.42176 4.34822 0
M  V30 915 H 93.6288 3.46322 3.14927 0
M  V30 916 H 93.8018 4.96054 4.16935 0
M  V30 917 N 87.2079 -1.17134 1.05439 0
M  V30 918 C 88.1379 -2.2342 0.678649 0
M  V30 919 C 89.1189 -1.66971 -0.32476 0
M  V30 920 O 90.3039 -1.93149 -0.201802 0
M  V30 921 C 87.4339 -3.47256 0.0552099 0
M  V30 922 C 86.3879 -4.16543 0.98365 0
M  V30 923 C 85.7139 -5.34231 0.223961 0
M  V30 924 C 87.0139 -4.68495 2.3089 0
M  V30 925 H 88.7079 -2.55105 1.56722 0
M  V30 926 H 86.2539 -1.2262 0.754998 0
M  V30 927 H 88.2069 -4.20828 -0.21946 0
M  V30 928 H 86.9309 -3.14846 -0.868319 0
M  V30 929 H 85.5899 -3.44887 1.24293 0
M  V30 930 H 85.2379 -4.98071 -0.702412 0
M  V30 931 H 84.9379 -5.81527 0.842627 0
M  V30 932 H 86.4619 -6.10585 -0.0433671 0
M  V30 933 H 87.8759 -5.33691 2.09396 0
M  V30 934 H 86.2729 -5.26379 2.88176 0
M  V30 935 H 87.3429 -3.85169 2.94572 0
M  V30 936 N 88.686 -0.835752 -1.33615 0
M  V30 937 C 89.926 -0.43599 -1.99696 0
M  V30 938 C 90.29 0.98557 -1.64774 0
M  V30 939 O 91.491 1.48889 -2.23798 0
M  V30 940 C 89.762 -0.646721 -3.515 0
M  V30 941 S 91.321 -0.341715 -4.37467 0
M  V30 942 H 88.139 -0.164136 -0.691795 0
M  V30 943 H 90.741 -1.08436 -1.62671 0
M  V30 944 H 89.445 -1.68077 -3.74404 0
M  V30 945 H 88.976 0.0159173 -3.93397 0
M  V30 946 H 90.991 0.839708 -4.89043 0
M  V30 947 N 90.1641 1.46063 -0.591896 0
M  V30 948 C 91.3921 2.06717 -0.0868936 0
M  V30 949 C 91.8071 1.43916 1.22203 0
M  V30 950 O 91.1641 0.547698 1.74088 0
M  V30 951 C 91.2151 3.6142 0.0758725 0
M  V30 952 O 90.9361 4.21874 -1.18126 0
M  V30 953 C 92.4371 4.39025 0.61416 0
M  V30 954 H 89.6571 0.668162 -0.0616518 0
M  V30 955 H 92.2011 1.8755 -0.815175 0
M  V30 956 H 90.3561 3.79983 0.754413 0
M  V30 957 H 90.7701 5.14861 -1.00092 0
M  V30 958 H 92.2441 5.4783 0.677193 0
M  V30 959 H 92.7211 4.07708 1.63312 0
M  V30 960 H 93.3271 4.2529 -0.0298142 0
M  V30 961 N 91.6422 0.330177 1.54103 0
M  V30 962 C 92.5742 -0.566902 2.22079 0
M  V30 963 C 93.5872 -1.07462 1.22294 0
M  V30 964 O 94.7762 -0.987065 1.48726 0
M  V30 965 C 91.8762 -1.79138 2.87685 0
M  V30 966 C 91.0492 -1.42123 4.13666 0
M  V30 967 C 90.1082 -2.50394 4.62806 0
M  V30 968 O 89.1342 -2.14261 5.27334 0
M  V30 969 N 90.3362 -3.81433 4.37595 0
M  V30 970 H 93.1012 0.0151844 2.99696 0
M  V30 971 H 90.6622 0.153681 1.61169 0
M  V30 972 H 92.6542 -2.50975 3.1748 0
M  V30 973 H 91.2242 -2.28115 2.13734 0
M  V30 974 H 90.4442 -0.534201 3.90564 0
M  V30 975 H 91.7322 -1.14971 4.9564 0
M  V30 976 H 91.1302 -4.13584 3.8596 0
M  V30 977 H 89.6872 -4.4948 4.72029 0
M  V30 978 N 93.1203 -1.57491 0.0584922 0
M  V30 979 C 94.3673 -1.92978 -0.613648 0
M  V30 980 C 94.6953 -0.937461 -1.70417 0
M  V30 981 O 93.9503 0.049078 -1.95638 0
M  V30 982 C 94.2493 -3.3513 -1.24188 0
M  V30 983 C 93.9153 -4.50037 -0.278826 0
M  V30 984 C 92.5773 -4.81198 -0.0138447 0
M  V30 985 C 94.9293 -5.19807 0.380777 0
M  V30 986 C 92.2573 -5.79473 0.918052 0
M  V30 987 C 94.6093 -6.19079 1.30091 0
M  V30 988 C 93.2733 -6.48665 1.57449 0
M  V30 989 H 92.5433 -0.706157 -0.22455 0
M  V30 990 H 95.1903 -1.91082 0.126533 0
M  V30 991 H 93.4953 -3.33429 -2.05749 0
M  V30 992 H 95.1923 -3.59871 -1.769 0
M  V30 993 H 91.7823 -4.25726 -0.495539 0
M  V30 994 H 95.9663 -4.95939 0.189158 0
M  V30 995 H 91.2223 -6.00727 1.1374 0
M  V30 996 H 95.3963 -6.7225 1.81804 0
M  V30 997 H 93.0233 -7.24628 2.29822 0
M  V30 998 N 94.5984 0.214957 -1.56127 0
M  V30 999 C 95.8474 0.936451 -1.78643 0
M  V30 1000 C 96.1604 1.85237 -0.628229 0
M  V30 1001 O 97.3664 2.613 -0.737186 0
M  V30 1002 C 95.8224 1.7154 -3.16389 0
M  V30 1003 C 95.4304 0.845299 -4.39953 0
M  V30 1004 C 97.1744 2.42772 -3.48227 0
M  V30 1005 C 95.0814 1.62198 -5.68723 0
M  V30 1006 H 94.0114 0.353401 -0.666051 0
M  V30 1007 H 96.6624 0.190169 -1.82512 0
M  V30 1008 H 95.0444 2.50484 -3.06715 0
M  V30 1009 H 96.2184 0.0959353 -4.607 0
M  V30 1010 H 94.5334 0.244789 -4.1568 0
M  V30 1011 H 97.1304 3.01394 -4.41663 0
M  V30 1012 H 97.4734 3.15984 -2.71035 0
M  V30 1013 H 98.0064 1.70813 -3.5926 0
M  V30 1014 H 94.7454 0.933011 -6.48826 0
M  V30 1015 H 94.2654 2.34579 -5.52026 0
M  V30 1016 H 95.9444 2.18095 -6.09133 0
M  V30 1017 N 96.0765 1.50051 0.48192 0
M  V30 1018 C 97.0395 1.67584 1.5636 0
M  V30 1019 C 98.0395 0.546894 1.51214 0
M  V30 1020 O 99.2295 0.813725 1.54026 0
M  V30 1021 C 96.3615 1.691 2.96003 0
M  V30 1022 H 97.5545 2.64078 1.42136 0
M  V30 1023 H 95.1075 1.39369 0.707533 0
M  V30 1024 H 95.8425 0.742589 3.15684 0
M  V30 1025 H 95.6275 2.51105 3.01146 0
M  V30 1026 H 97.1175 1.84656 3.74556 0
M  V30 1027 N 97.5546 -0.734337 1.39446 0
M  V30 1028 C 98.8026 -1.49096 1.36436 0
M  V30 1029 C 99.1236 -1.94961 -0.0388255 0
M  V30 1030 O 98.3936 -1.69033 -0.990191 0
M  V30 1031 H 96.9736 -0.5531 0.502085 0
M  V30 1032 H 99.6356 -0.871725 1.74319 0
M  V30 1033 H 98.7316 -2.37276 2.02747 0
M  V30 1034 N 99.0327 -1.24633 -0.964593 0
M  V30 1035 C 99.9427 -1.05859 -2.09359 0
M  V30 1036 C 100.959 0.00148855 -1.74 0
M  V30 1037 O 102.135 -0.197346 -2.00431 0
M  V30 1038 C 99.1997 -0.668879 -3.40187 0
M  V30 1039 C 98.2607 -1.80578 -3.89474 0
M  V30 1040 C 97.4937 -1.43457 -5.14058 0
M  V30 1041 O 97.7167 -0.325775 -5.69469 0
M  V30 1042 O 96.6507 -2.2613 -5.57807 0
M  V30 1043 H 100.477 -2.00516 -2.28094 0
M  V30 1044 H 98.0617 -1.03481 -1.0776 0
M  V30 1045 H 99.9437 -0.463211 -4.18846 0
M  V30 1046 H 98.6187 0.248536 -3.22744 0
M  V30 1047 H 97.5257 -2.06623 -3.11862 0
M  V30 1048 H 98.8587 -2.70208 -4.11398 0
M  V30 1049 N 100.511 1.16574 -1.06058 0
M  V30 1050 C 101.421 2.2452 -0.680282 0
M  V30 1051 C 102.437 1.71348 0.302604 0
M  V30 1052 O 103.613 2.00822 0.152513 0
M  V30 1053 C 100.678 3.46629 -0.0700315 0
M  V30 1054 C 99.7388 4.14849 -1.10448 0
M  V30 1055 C 98.9718 5.31129 -0.523256 0
M  V30 1056 O 99.1948 5.66514 0.664709 0
M  V30 1057 O 98.1288 5.88526 -1.26179 0
M  V30 1058 H 101.955 2.59355 -1.58015 0
M  V30 1059 H 99.5398 1.24043 -0.832694 0
M  V30 1060 H 101.422 4.20543 0.268667 0
M  V30 1061 H 100.097 3.13573 0.803353 0
M  V30 1062 H 99.0038 3.42916 -1.49532 0
M  V30 1063 H 100.337 4.51954 -1.94931 0
M  V30 1064 N 101.989 0.842826 1.3317 0
M  V30 1065 C 102.952 0.284065 2.27433 0
M  V30 1066 C 103.952 -0.54948 1.5112 0
M  V30 1067 O 105.142 -0.362699 1.70382 0
M  V30 1068 C 102.274 -0.599384 3.35589 0
M  V30 1069 H 103.467 1.11589 2.78366 0
M  V30 1070 H 101.02 0.616221 1.4364 0
M  V30 1071 H 101.755 -1.45349 2.89904 0
M  V30 1072 H 101.54 -0.00291266 3.921 0
M  V30 1073 H 103.03 -0.983488 4.05854 0
M  V30 1074 N 103.467 -1.45747 0.599634 0
M  V30 1075 C 104.713 -2.02592 0.0918643 0
M  V30 1076 C 105.046 -1.46806 -1.27128 0
M  V30 1077 O 104.321 -0.639658 -1.83681 0
M  V30 1078 C 104.604 -3.60073 0.0443398 0
M  V30 1079 C 104.457 -4.26208 1.43759 0
M  V30 1080 C 105.776 -4.35309 -0.647608 0
M  V30 1081 H 102.895 -0.736175 0.034857 0
M  V30 1082 H 105.537 -1.73694 0.770081 0
M  V30 1083 H 103.687 -3.84823 -0.533224 0
M  V30 1084 H 105.359 -4.12668 2.06162 0
M  V30 1085 H 103.602 -3.84916 2.00056 0
M  V30 1086 H 104.273 -5.35069 1.35665 0
M  V30 1087 H 106.749 -4.15805 -0.156776 0
M  V30 1088 H 105.625 -5.45038 -0.649942 0
M  V30 1089 H 105.886 -4.07598 -1.71219 0
M  V30 1090 N 104.945 -0.338344 -1.53925 0
M  V30 1091 C 106.173 0.261298 -2.05243 0
M  V30 1092 C 106.588 1.44625 -1.21363 0
M  V30 1093 O 105.945 1.80811 -0.247736 0
M  V30 1094 C 105.996 0.681412 -3.5502 0
M  V30 1095 O 105.717 -0.456414 -4.35716 0
M  V30 1096 C 107.218 1.34232 -4.22489 0
M  V30 1097 H 104.438 0.0513685 -0.669031 0
M  V30 1098 H 106.982 -0.488822 -1.98572 0
M  V30 1099 H 105.137 1.38148 -3.61931 0
M  V30 1100 H 105.551 -0.122564 -5.24357 0
M  V30 1101 H 107.025 1.58708 -5.28693 0
M  V30 1102 H 107.502 2.29426 -3.74514 0
M  V30 1103 H 108.108 0.684424 -4.19757 0
M  V30 1104 N 106.423 1.57458 -0.0668435 0
M  V30 1105 C 107.333 2.15937 0.916975 0
M  V30 1106 C 108.349 1.12123 1.33058 0
M  V30 1107 O 109.525 1.44366 1.40429 0
M  V30 1108 C 106.59 2.70547 2.16807 0
M  V30 1109 C 105.651 3.89215 1.81135 0
M  V30 1110 C 104.884 4.41211 3.0028 0
M  V30 1111 O 105.107 3.92225 4.14144 0
M  V30 1112 O 104.041 5.32605 2.80384 0
M  V30 1113 H 107.867 3.00354 0.449561 0
M  V30 1114 H 105.452 1.48584 0.155949 0
M  V30 1115 H 107.334 3.0557 2.90181 0
M  V30 1116 H 106.009 1.89192 2.62656 0
M  V30 1117 H 104.916 3.59054 1.05028 0
M  V30 1118 H 106.249 4.71848 1.40073 0
M  V30 1119 N 107.901 -0.206675 1.56239 0
M  V30 1120 C 109.178 -0.954051 1.70755 0
M  V30 1121 C 109.558 -2.01841 0.618353 0
M  V30 1122 O 108.906 -2.25444 -0.372434 0
M  V30 1123 C 109.116 -1.551 3.12642 0
M  V30 1124 C 110.464 -2.03757 3.72516 0
M  V30 1125 O 111.488 -1.64965 3.15698 0
M  V30 1126 O 110.347 -2.75103 4.72208 0
M  V30 1127 H 107.441 -0.446636 0.696021 0
M  V30 1128 H 109.987 -0.197283 1.68549 0
M  V30 1129 H 108.759 -0.783212 3.83382 0
M  V30 1130 H 108.382 -2.37291 3.19028 0
M  V30 1131 N 109.379 -1.50304 -0.473955 0
M  V30 1132 C 110.628 -1.60392 -1.22301 0
M  V30 1133 C 110.941 -0.308411 -1.93153 0
M  V30 1134 O 112.147 -0.288156 -2.69966 0
M  V30 1135 C 110.603 -2.83109 -2.2221 0
M  V30 1136 C 110.211 -4.19524 -1.57173 0
M  V30 1137 C 111.955 -3.0254 -2.97775 0
M  V30 1138 C 109.862 -5.33431 -2.55353 0
M  V30 1139 H 108.792 -0.597286 -0.460179 0
M  V30 1140 H 111.443 -1.76731 -0.493803 0
M  V30 1141 H 109.825 -2.60322 -2.9841 0
M  V30 1142 H 110.999 -4.52554 -0.867824 0
M  V30 1143 H 109.314 -4.05674 -0.939002 0
M  V30 1144 H 111.911 -3.84811 -3.71248 0
M  V30 1145 H 112.254 -2.14154 -3.56992 0
M  V30 1146 H 112.787 -3.25494 -2.28688 0
M  V30 1147 H 109.526 -6.23962 -2.00878 0
M  V30 1148 H 109.046 -5.04823 -3.23904 0
M  V30 1149 H 110.725 -5.63887 -3.17239 0
M  V30 1150 N 110.857 0.726932 -1.39834 0
M  V30 1151 C 111.789 1.85147 -1.35104 0
M  V30 1152 C 112.802 1.60736 -0.258392 0
M  V30 1153 O 113.991 1.70821 -0.517931 0
M  V30 1154 C 111.091 3.21332 -1.07697 0
M  V30 1155 C 110.264 3.73033 -2.28396 0
M  V30 1156 C 109.323 4.87802 -1.97322 0
M  V30 1157 O 108.349 5.01043 -2.70083 0
M  V30 1158 N 109.551 5.72768 -0.944273 0
M  V30 1159 H 112.316 1.89706 -2.32017 0
M  V30 1160 H 109.877 0.908006 -1.3404 0
M  V30 1161 H 111.869 3.95691 -0.849144 0
M  V30 1162 H 110.439 3.11992 -0.194909 0
M  V30 1163 H 109.659 2.89934 -2.6708 0
M  V30 1164 H 110.947 4.0431 -3.08887 0
M  V30 1165 H 110.345 5.64669 -0.341427 0
M  V30 1166 H 108.902 6.4716 -0.776346 0
M  V30 1167 N 112.336 1.25143 0.95797 0
M  V30 1168 C 113.747 1.08851 1.51685 0
M  V30 1169 C 114.098 -0.33687 1.93286 0
M  V30 1170 O 113.223 -1.22644 1.7829 0
M  V30 1171 C 113.818 1.96978 2.75654 0
M  V30 1172 C 112.377 1.84881 3.27866 0
M  V30 1173 C 111.524 1.91329 2.0072 0
M  V30 1174 H 114.475 1.38478 0.77522 0
M  V30 1175 H 114.496 1.5078 3.4935 0
M  V30 1176 H 114.008 3.00712 2.45345 0
M  V30 1177 H 112.109 0.840182 3.63004 0
M  V30 1178 H 112.222 2.6951 3.96107 0
M  V30 1179 H 110.586 1.35174 2.15871 0
M  V30 1180 H 111.369 2.96661 1.72764 0
M  V30 1181 N 113.814 -1.1601 1.06675 0
M  V30 1182 C 115.061 -1.86633 0.785781 0
M  V30 1183 C 115.389 -1.81929 -0.687896 0
M  V30 1184 O 114.644 -1.23253 -1.52011 0
M  V30 1185 C 114.943 -3.35547 1.23057 0
M  V30 1186 C 114.609 -3.60448 2.70902 0
M  V30 1187 C 113.271 -3.66954 3.11285 0
M  V30 1188 C 115.623 -3.7071 3.66365 0
M  V30 1189 C 112.951 -3.81225 4.45965 0
M  V30 1190 C 115.303 -3.86503 5.00797 0
M  V30 1191 C 113.967 -3.91252 5.40813 0
M  V30 1192 H 113.237 -0.682937 0.287538 0
M  V30 1193 H 115.884 -1.37146 1.33654 0
M  V30 1194 H 114.189 -3.87193 0.59907 0
M  V30 1195 H 115.886 -3.88583 0.990163 0
M  V30 1196 H 112.476 -3.56021 2.38636 0
M  V30 1197 H 116.66 -3.64991 3.36296 0
M  V30 1198 H 111.916 -3.83155 4.76447 0
M  V30 1199 H 116.09 -3.93385 5.74649 0
M  V30 1200 H 113.717 -4.02062 6.45174 0
M  V30 1201 N 115.292 -0.849877 -1.32721 0
M  V30 1202 C 116.225 -0.235903 -2.26977 0
M  V30 1203 C 117.203 0.623355 -1.50177 0
M  V30 1204 O 118.387 0.581207 -1.79316 0
M  V30 1205 C 115.514 0.667712 -3.32053 0
M  V30 1206 C 114.56 -0.11753 -4.26338 0
M  V30 1207 S 115.393 -1.48277 -5.14562 0
M  V30 1208 C 116.549 -0.584741 -6.23163 0
M  V30 1209 H 116.782 -1.03495 -2.78704 0
M  V30 1210 H 114.315 -0.64724 -1.40179 0
M  V30 1211 H 116.273 1.18343 -3.93072 0
M  V30 1212 H 114.934 1.44052 -2.7912 0
M  V30 1213 H 114.127 0.57051 -5.00761 0
M  V30 1214 H 113.729 -0.564668 -3.69713 0
M  V30 1215 H 116.021 0.212968 -6.77165 0
M  V30 1216 H 116.964 -1.29947 -6.96074 0
M  V30 1217 H 117.372 -0.161202 -5.6427 0
M  V30 1218 N 116.77 1.45427 -0.607355 0
M  V30 1219 C 117.995 2.07124 -0.107006 0
M  V30 1220 C 118.42 1.44906 1.19933 0
M  V30 1221 O 117.778 0.541687 1.73019 0
M  V30 1222 C 117.826 3.60595 0.0194119 0
M  V30 1223 O 116.93 3.98285 1.0697 0
M  V30 1224 H 116.271 0.659868 -0.0739597 0
M  V30 1225 H 118.801 1.86683 -0.837297 0
M  V30 1226 H 118.811 4.07419 0.2177 0
M  V30 1227 H 117.486 4.05266 -0.934453 0
M  V30 1228 H 116.063 3.63133 0.847889 0
M  V30 1229 N 118.248 0.346503 1.53744 0
M  V30 1230 C 119.211 -0.496439 2.23759 0
M  V30 1231 C 120.211 -1.0252 1.2388 0
M  V30 1232 O 121.401 -0.913974 1.48297 0
M  V30 1233 C 118.533 -1.69187 2.95954 0
M  V30 1234 H 119.726 0.115952 2.99676 0
M  V30 1235 H 117.279 0.0978939 1.55993 0
M  V30 1236 H 118.014 -2.34288 2.24231 0
M  V30 1237 H 117.799 -1.31989 3.69217 0
M  V30 1238 H 119.289 -2.28969 3.49232 0
M  V30 1239 N 119.726 -1.57421 0.075193 0
M  V30 1240 C 120.659 -2.08528 -0.926904 0
M  V30 1241 C 121.637 -0.991171 -1.28898 0
M  V30 1242 O 122.821 -1.26479 -1.39769 0
M  V30 1243 C 119.948 -2.54576 -2.23402 0
M  V30 1244 C 118.994 -3.75454 -2.02327 0
M  V30 1245 S 119.827 -5.19989 -1.27951 0
M  V30 1246 C 120.983 -5.69372 -2.59935 0
M  V30 1247 H 121.216 -2.932 -0.492048 0
M  V30 1248 H 118.749 -1.53785 -0.137651 0
M  V30 1249 H 120.707 -2.81767 -2.98526 0
M  V30 1250 H 119.368 -1.70166 -2.64012 0
M  V30 1251 H 118.561 -4.05675 -2.99071 0
M  V30 1252 H 118.163 -3.48654 -1.35339 0
M  V30 1253 H 120.455 -5.76424 -3.56008 0
M  V30 1254 H 121.398 -6.68207 -2.34319 0
M  V30 1255 H 121.806 -4.97205 -2.67296 0
M  V30 1256 N 121.204 0.198386 -1.56346 0
M  V30 1257 C 122.62 0.549085 -1.49857 0
M  V30 1258 C 122.82 1.86016 -0.774611 0
M  V30 1259 O 121.876 2.50416 -0.323776 0
M  V30 1260 C 123.189 0.606868 -2.94512 0
M  V30 1261 C 124.737 0.695925 -3.05165 0
M  V30 1262 C 125.212 0.784848 -4.51225 0
M  V30 1263 N 126.703 0.848463 -4.55363 0
M  V30 1264 C 127.438 0.937378 -5.65686 0
M  V30 1265 N 126.934 0.9888 -6.85707 0
M  V30 1266 N 128.727 0.974312 -5.53592 0
M  V30 1267 H 120.878 -0.661655 -2.01831 0
M  V30 1268 H 123.141 -0.235261 -0.918344 0
M  V30 1269 H 122.847 -0.28732 -3.50524 0
M  V30 1270 H 122.721 1.46268 -3.47686 0
M  V30 1271 H 125.108 1.58055 -2.49204 0
M  V30 1272 H 125.189 -0.186022 -2.55123 0
M  V30 1273 H 124.833 -0.0954072 -5.0781 0
M  V30 1274 H 124.763 1.68255 -4.98997 0
M  V30 1275 H 127.254 0.818103 -3.68938 0
M  V30 1276 H 127.567 1.05707 -7.65536 0
M  V30 1277 H 125.912 0.957534 -6.88372 0
M  V30 1278 H 129.103 0.930954 -4.58749 0
M  V30 1279 H 129.276 1.04015 -6.39597 0
M  V30 1280 N 122.682 1.50554 0.465978 0
M  V30 1281 C 123.645 1.69233 1.54574 0
M  V30 1282 C 124.645 0.562901 1.50626 0
M  V30 1283 O 125.835 0.830016 1.53155 0
M  V30 1284 C 122.967 1.7223 2.94193 0
M  V30 1285 H 124.16 2.65571 1.39327 0
M  V30 1286 H 121.713 1.40111 0.692711 0
M  V30 1287 H 122.448 0.77603 3.14878 0
M  V30 1288 H 122.233 2.54285 2.98466 0
M  V30 1289 H 123.723 1.88618 3.72576 0
M  V30 1290 N 124.16 -0.719506 1.40217 0
M  V30 1291 C 125.07 -1.86378 1.42479 0
M  V30 1292 C 126.086 -1.71073 0.317834 0
M  V30 1293 O 127.262 -1.93406 0.561794 0
M  V30 1294 C 124.327 -3.22136 1.28178 0
M  V30 1295 C 123.388 -3.49723 2.48982 0
M  V30 1296 C 122.621 -4.79004 2.35353 0
M  V30 1297 O 122.844 -5.53821 1.36524 0
M  V30 1298 O 121.778 -5.06839 3.2465 0
M  V30 1299 H 125.604 -1.87425 2.38968 0
M  V30 1300 H 123.189 -0.869405 1.21498 0
M  V30 1301 H 125.071 -4.03234 1.22395 0
M  V30 1302 H 123.746 -3.21825 0.347934 0
M  V30 1303 H 122.653 -2.6865 2.60342 0
M  V30 1304 H 123.986 -3.54828 3.41113 0
M  V30 1305 N 125.638 -1.25649 -0.95132 0
M  V30 1306 C 126.886 -1.10375 -1.69298 0
M  V30 1307 C 127.207 0.355339 -1.91735 0
M  V30 1308 O 126.477 1.25188 -1.50681 0
M  V30 1309 H 125.057 -0.405461 -0.627384 0
M  V30 1310 H 127.719 -1.57823 -1.14358 0
M  V30 1311 H 126.815 -1.61465 -2.67087 0
M  V30 1312 N 127.117 1.15442 -1.07289 0
M  V30 1313 C 128.533 1.38201 -0.798288 0
M  V30 1314 C 128.733 1.92429 0.597769 0
M  V30 1315 O 127.789 2.12962 1.3566 0
M  V30 1316 C 129.102 2.35357 -1.87156 0
M  V30 1317 C 130.65 2.49021 -1.89624 0
M  V30 1318 C 131.125 3.49468 -2.96034 0
M  V30 1319 N 132.616 3.57003 -2.95132 0
M  V30 1320 C 133.351 4.34543 -3.74112 0
M  V30 1321 N 132.847 5.15421 -4.6294 0
M  V30 1322 N 134.64 4.29625 -3.62462 0
M  V30 1323 H 126.791 0.78584 -1.97328 0
M  V30 1324 H 129.054 0.408065 -0.855679 0
M  V30 1325 H 128.76 2.02626 -2.87464 0
M  V30 1326 H 128.634 3.35129 -1.73114 0
M  V30 1327 H 131.021 2.81051 -0.899687 0
M  V30 1328 H 131.102 1.4925 -2.07745 0
M  V30 1329 H 130.746 3.18173 -3.95889 0
M  V30 1330 H 130.676 4.48992 -2.75161 0
M  V30 1331 H 133.167 2.99276 -2.30743 0
M  V30 1332 H 133.48 5.7183 -5.19837 0
M  V30 1333 H 131.825 5.14729 -4.66989 0
M  V30 1334 H 135.016 3.65505 -2.92444 0
M  V30 1335 H 135.189 4.89807 -4.24256 0
M  V30 1336 N 128.595 0.856903 1.32268 0
M  V30 1337 C 129.525 0.31858 2.31316 0
M  V30 1338 C 130.506 -0.583487 1.59779 0
M  V30 1339 O 131.691 -0.503259 1.87566 0
M  V30 1340 C 128.821 -0.491979 3.43798 0
M  V30 1341 C 127.775 0.315849 4.26833 0
M  V30 1342 C 127.101 -0.619586 5.31098 0
M  V30 1343 C 128.401 1.54282 4.98993 0
M  V30 1344 H 130.095 1.14621 2.76591 0
M  V30 1345 H 127.641 0.552613 1.32974 0
M  V30 1346 H 129.594 -0.879012 4.1213 0
M  V30 1347 H 128.318 -1.35299 2.97257 0
M  V30 1348 H 126.977 0.684664 3.6015 0
M  V30 1349 H 126.625 -1.47751 4.8081 0
M  V30 1350 H 126.325 -0.0830621 5.87541 0
M  V30 1351 H 127.849 -1.00375 6.02293 0
M  V30 1352 H 129.263 1.22796 5.59995 0
M  V30 1353 H 127.66 2.01745 5.65172 0
M  V30 1354 H 128.73 2.30285 4.26728 0
M  V30 1355 N 130.073 -1.45103 0.615059 0
M  V30 1356 C 131.036 -2.29025 -0.0895485 0
M  V30 1357 C 132.036 -1.40174 -0.787906 0
M  V30 1358 O 133.226 -1.62217 -0.634933 0
M  V30 1359 C 130.358 -3.21376 -1.13711 0
M  V30 1360 H 131.551 -2.92807 0.648382 0
M  V30 1361 H 129.104 -1.51749 0.374444 0
M  V30 1362 H 129.839 -2.6241 -1.90556 0
M  V30 1363 H 129.624 -3.86834 -0.640475 0
M  V30 1364 H 131.114 -3.84459 -1.63036 0
M  V30 1365 N 131.551 -0.354651 -1.53558 0
M  V30 1366 C 132.828 0.294281 -1.93374 0
M  V30 1367 C 133.208 1.67313 -1.28723 0
M  V30 1368 O 132.556 2.24179 -0.442247 0
M  V30 1369 C 132.766 0.355445 -3.47185 0
M  V30 1370 C 134.114 0.601007 -4.20325 0
M  V30 1371 O 135.138 0.437106 -3.53508 0
M  V30 1372 O 133.997 0.919322 -5.38712 0
M  V30 1373 H 131.091 0.174033 -0.808481 0
M  V30 1374 H 133.637 -0.406638 -1.64756 0
M  V30 1375 H 132.409 -0.611729 -3.86489 0
M  V30 1376 H 132.032 1.1027 -3.82003 0
M  V30 1377 N 133.029 1.57378 -0.0835403 0
M  V30 1378 C 133.939 2.16897 0.894021 0
M  V30 1379 C 134.955 1.13528 1.31861 0
M  V30 1380 O 136.131 1.45848 1.3889 0
M  V30 1381 C 133.196 2.72831 2.13925 0
M  V30 1382 C 132.257 3.91115 1.76997 0
M  V30 1383 C 131.49 4.44371 2.95584 0
M  V30 1384 O 131.713 3.96596 4.09961 0
M  V30 1385 O 130.647 5.35549 2.74719 0
M  V30 1386 H 134.473 3.00814 0.417679 0
M  V30 1387 H 132.058 1.48741 0.140181 0
M  V30 1388 H 133.94 3.0863 2.86924 0
M  V30 1389 H 132.615 1.91967 2.60635 0
M  V30 1390 H 131.522 3.60148 1.01214 0
M  V30 1391 H 132.855 4.73307 1.3506 0
M  V30 1392 N 134.507 -0.190092 1.56449 0
M  V30 1393 C 135.44 -1.26375 1.90012 0
M  V30 1394 C 136.418 -1.43705 0.760765 0
M  V30 1395 O 137.602 -1.59014 1.01226 0
M  V30 1396 C 134.729 -2.62962 2.13468 0
M  V30 1397 C 133.775 -2.62474 3.36169 0
M  V30 1398 S 134.608 -2.13412 4.91137 0
M  V30 1399 C 135.764 -3.51812 5.17667 0
M  V30 1400 H 135.997 -0.977181 2.80782 0
M  V30 1401 H 133.53 -0.393814 1.49293 0
M  V30 1402 H 135.488 -3.41583 2.27664 0
M  V30 1403 H 134.149 -2.88828 1.23439 0
M  V30 1404 H 133.342 -3.62918 3.49723 0
M  V30 1405 H 132.944 -1.91937 3.20992 0
M  V30 1406 H 135.236 -4.47706 5.08494 0
M  V30 1407 H 136.179 -3.43148 6.19399 0
M  V30 1408 H 136.587 -3.46956 4.45288 0
M  V30 1409 N 135.985 -1.50799 -0.457987 0
M  V30 1410 C 137.215 -1.65977 -1.23025 0
M  V30 1411 C 137.623 -0.347918 -1.85974 0
M  V30 1412 O 136.966 0.68148 -1.70592 0
M  V30 1413 C 137.028 -2.70309 -2.3701 0
M  V30 1414 C 136.692 -4.135 -1.94594 0
M  V30 1415 C 137.689 -4.98949 -1.46101 0
M  V30 1416 C 135.374 -4.5949 -2.02915 0
M  V30 1417 C 137.368 -6.28442 -1.06489 0
M  V30 1418 C 135.055 -5.88984 -1.62914 0
M  V30 1419 C 136.053 -6.73286 -1.1478 0
M  V30 1420 O 135.741 -8.00362 -0.75339 0
M  V30 1421 H 135.473 -0.56064 -0.377702 0
M  V30 1422 H 138.027 -1.97857 -0.551537 0
M  V30 1423 H 136.257 -2.337 -3.08093 0
M  V30 1424 H 137.946 -2.74574 -2.98938 0
M  V30 1425 H 138.712 -4.6463 -1.39084 0
M  V30 1426 H 134.591 -3.94009 -2.39328 0
M  V30 1427 H 138.135 -6.94194 -0.688488 0
M  V30 1428 H 134.032 -6.22822 -1.69595 0
M  V30 1429 H 134.8 -8.13744 -0.88108 0
M  V30 1430 N 137.463 0.71206 -1.40597 0
M  V30 1431 C 138.393 1.83889 -1.43899 0
M  V30 1432 C 139.374 1.67442 -0.299504 0
M  V30 1433 O 140.559 1.87421 -0.508624 0
M  V30 1434 C 137.689 3.21877 -1.30431 0
M  V30 1435 C 136.643 3.53002 -2.42019 0
M  V30 1436 C 135.969 4.90172 -2.13626 0
M  V30 1437 C 137.269 3.53643 -3.84362 0
M  V30 1438 H 138.963 1.81383 -2.38203 0
M  V30 1439 H 136.509 0.871237 -1.14654 0
M  V30 1440 H 138.462 4.00404 -1.31357 0
M  V30 1441 H 137.186 3.24968 -0.326049 0
M  V30 1442 H 135.845 2.76818 -2.40349 0
M  V30 1443 H 135.493 4.89869 -1.14182 0
M  V30 1444 H 135.193 5.11962 -2.88389 0
M  V30 1445 H 136.717 5.71028 -2.1624 0
M  V30 1446 H 138.131 4.22203 -3.87837 0
M  V30 1447 H 136.528 3.86961 -4.58673 0
M  V30 1448 H 137.598 2.52954 -4.13693 0
M  V30 1449 N 138.941 1.26152 0.944643 0
M  V30 1450 C 140.169 1.14259 1.72489 0
M  V30 1451 C 140.584 -0.302555 1.8636 0
M  V30 1452 O 139.941 -1.20741 1.36849 0
M  V30 1453 C 139.992 1.80266 3.13347 0
M  V30 1454 O 139.713 3.19133 3.00143 0
M  V30 1455 C 141.214 1.74283 4.07603 0
M  V30 1456 H 138.434 0.398051 0.540181 0
M  V30 1457 H 140.978 1.66706 1.18446 0
M  V30 1458 H 139.133 1.31766 3.64303 0
M  V30 1459 H 139.547 3.51744 3.89071 0
M  V30 1460 H 141.021 2.25111 5.04013 0
M  V30 1461 H 141.498 0.708631 4.33446 0
M  V30 1462 H 142.104 2.22319 3.62567 0
M  V30 1463 N 140.419 -1.14872 1.07899 0
M  V30 1464 C 141.351 -2.19425 0.662231 0
M  V30 1465 C 142.364 -1.60231 -0.288079 0
M  V30 1466 O 143.553 -1.78336 -0.076534 0
M  V30 1467 C 140.653 -3.38867 -0.0470695 0
M  V30 1468 C 139.826 -4.27597 0.920831 0
M  V30 1469 C 138.885 -5.25616 0.247805 0
M  V30 1470 O 137.911 -5.62189 0.890599 0
M  V30 1471 N 139.113 -5.71746 -1.00435 0
M  V30 1472 H 141.878 -2.55797 1.56166 0
M  V30 1473 H 139.439 -1.30042 0.964404 0
M  V30 1474 H 141.431 -4.01497 -0.50813 0
M  V30 1475 H 140.001 -3.00864 -0.848523 0
M  V30 1476 H 139.221 -3.61982 1.56087 0
M  V30 1477 H 140.509 -4.83748 1.57688 0
M  V30 1478 H 139.907 -5.44153 -1.54642 0
M  V30 1479 H 138.464 -6.36389 -1.40899 0
M  V30 1480 N 141.898 -0.863906 -1.31812 0
M  V30 1481 C 143.145 -0.471836 -1.96926 0
M  V30 1482 C 143.473 0.974578 -1.68322 0
M  V30 1483 O 142.728 1.7003 -0.968933 0
M  V30 1484 C 143.027 -0.668547 -3.51091 0
M  V30 1485 C 142.693 -2.08683 -3.99703 0
M  V30 1486 C 141.355 -2.47471 -4.12688 0
M  V30 1487 C 143.707 -3.01207 -4.25351 0
M  V30 1488 C 141.035 -3.78037 -4.4867 0
M  V30 1489 C 143.387 -4.31282 -4.62794 0
M  V30 1490 C 142.051 -4.69992 -4.73987 0
M  V30 1491 H 141.321 -0.172657 -0.720604 0
M  V30 1492 H 143.968 -1.09573 -1.57054 0
M  V30 1493 H 142.273 0.0385252 -3.91781 0
M  V30 1494 H 143.97 -0.345102 -3.99512 0
M  V30 1495 H 140.56 -1.77566 -3.90087 0
M  V30 1496 H 144.744 -2.72469 -4.14819 0
M  V30 1497 H 140 -4.078 -4.55532 0
M  V30 1498 H 144.174 -5.03031 -4.81594 0
M  V30 1499 H 141.801 -5.71207 -5.01624 0
M  V30 1500 N 143.376 1.44774 -0.622745 0
M  V30 1501 C 144.339 2.29069 0.0774015 0
M  V30 1502 C 145.339 1.4059 0.780461 0
M  V30 1503 O 146.529 1.62551 0.626322 0
M  V30 1504 C 143.661 3.21974 1.12006 0
M  V30 1505 H 144.854 2.92459 -0.663901 0
M  V30 1506 H 142.407 1.51548 -0.382486 0
M  V30 1507 H 143.142 2.63417 1.89162 0
M  V30 1508 H 142.927 3.87168 0.619951 0
M  V30 1509 H 144.417 3.85318 1.60995 0
M  V30 1510 N 144.854 0.36279 1.53368 0
M  V30 1511 C 146.101 -0.227776 2.01215 0
M  V30 1512 C 146.429 -1.49003 1.25014 0
M  V30 1513 O 145.684 -1.92876 0.331236 0
M  V30 1514 C 145.983 -0.568417 3.52851 0
M  V30 1515 C 145.649 0.59918 4.46901 0
M  V30 1516 C 144.311 0.919559 4.72332 0
M  V30 1517 C 146.663 1.38156 5.02556 0
M  V30 1518 C 143.991 2.02434 5.5067 0
M  V30 1519 C 146.343 2.47674 5.821 0
M  V30 1520 C 145.007 2.8025 6.05819 0
M  V30 1521 H 144.277 -0.083349 0.736297 0
M  V30 1522 H 146.924 0.494677 1.85001 0
M  V30 1523 H 145.229 -1.37185 3.66998 0
M  V30 1524 H 146.926 -1.03756 3.87344 0
M  V30 1525 H 143.516 0.339437 4.27254 0
M  V30 1526 H 147.7 1.14729 4.82857 0
M  V30 1527 H 142.956 2.28075 5.67267 0
M  V30 1528 H 147.13 3.08716 6.24234 0
M  V30 1529 H 144.757 3.65979 6.66306 0
M  V30 1530 N 146.332 -1.57332 0.0918853 0
M  V30 1531 C 147.242 -2.17368 -0.882505 0
M  V30 1532 C 148.258 -1.14226 -1.31257 0
M  V30 1533 O 149.434 -1.46582 -1.38115 0
M  V30 1534 C 146.499 -2.73962 -2.12476 0
M  V30 1535 C 145.56 -3.92048 -1.7492 0
M  V30 1536 C 144.793 -4.45933 -2.93223 0
M  V30 1537 O 145.016 -3.98764 -4.07852 0
M  V30 1538 O 143.95 -5.36999 -2.71875 0
M  V30 1539 H 147.776 -3.01031 -0.40172 0
M  V30 1540 H 145.361 -1.48813 -0.132291 0
M  V30 1541 H 147.243 -3.10147 -2.85283 0
M  V30 1542 H 145.918 -1.93347 -2.59613 0
M  V30 1543 H 144.825 -3.6068 -0.993025 0
M  V30 1544 H 146.158 -4.74017 -1.32548 0
M  V30 1545 N 147.81 0.181792 -1.56548 0
M  V30 1546 C 148.72 1.24538 -1.98815 0
M  V30 1547 C 149.736 1.49045 -0.897861 0
M  V30 1548 O 150.912 1.61399 -1.20467 0
M  V30 1549 C 147.977 2.56683 -2.33055 0
M  V30 1550 C 147.038 2.40131 -3.55859 0
M  V30 1551 C 146.271 3.65975 -3.88456 0
M  V30 1552 O 146.494 4.70711 -3.22161 0
M  V30 1553 O 145.428 3.6071 -4.81842 0
M  V30 1554 H 149.254 0.916647 -2.89536 0
M  V30 1555 H 146.839 0.387842 -1.44278 0
M  V30 1556 H 148.721 3.34655 -2.56094 0
M  V30 1557 H 147.396 2.89157 -1.45498 0
M  V30 1558 H 146.303 1.60226 -3.38051 0
M  V30 1559 H 147.636 2.12585 -4.43924 0
M  V30 1560 N 149.288 1.51039 0.449983 0
M  V30 1561 C 150.251 1.70863 1.5277 0
M  V30 1562 C 151.251 0.578846 1.5002 0
M  V30 1563 O 152.441 0.846213 1.52266 0
M  V30 1564 C 149.573 1.75341 2.9235 0
M  V30 1565 H 150.766 2.67034 1.36502 0
M  V30 1566 H 148.319 1.40838 0.677812 0
M  V30 1567 H 149.054 0.809383 3.14037 0
M  V30 1568 H 148.839 2.57436 2.95752 0
M  V30 1569 H 150.329 1.92559 3.70555 0
M  V30 1570 N 150.766 -0.704594 1.40972 0
M  V30 1571 C 151.713 -1.81862 1.42109 0
M  V30 1572 C 152.683 -1.63781 0.276593 0
M  V30 1573 O 153.868 -1.84759 0.4763 0
M  V30 1574 C 151.008 -3.19669 1.30022 0
M  V30 1575 C 150.121 -3.49246 2.54267 0
M  V30 1576 C 149.256 -4.76618 2.3454 0
M  V30 1577 C 148.295 -4.99133 3.54306 0
M  V30 1578 N 147.432 -6.17726 3.33706 0
M  V30 1579 H 152.272 -1.80226 2.37324 0
M  V30 1580 H 149.809 -0.880238 1.17857 0
M  V30 1581 H 151.767 -3.99263 1.21018 0
M  V30 1582 H 150.397 -3.20506 0.384192 0
M  V30 1583 H 149.449 -2.64125 2.73756 0
M  V30 1584 H 150.761 -3.61788 3.43381 0
M  V30 1585 H 149.915 -5.64249 2.22952 0
M  V30 1586 H 148.654 -4.66305 1.42867 0
M  V30 1587 H 147.659 -4.09953 3.66359 0
M  V30 1588 H 148.884 -5.11311 4.4692 0
M  V30 1589 H 146.83 -6.08642 2.44725 0
M  V30 1590 H 146.747 -6.30995 4.16391 0
M  V30 1591 H 148.015 -7.08115 3.25873 0
M  V30 1592 N 152.244 -1.26651 -0.937939 0
M  V30 1593 C 153.194 -1.05156 -2.02302 0
M  V30 1594 C 154.178 0.0171233 -1.60891 0
M  V30 1595 O 155.37 -0.200213 -1.75864 0
M  V30 1596 C 152.499 -0.689962 -3.36295 0
M  V30 1597 C 151.585 -1.79626 -3.84181 0
M  V30 1598 N 151.976 -3.03422 -4.04684 0
M  V30 1599 C 150.274 -1.6806 -4.13124 0
M  V30 1600 C 150.975 -3.75345 -4.444 0
M  V30 1601 N 149.951 -3.03051 -4.51288 0
M  V30 1602 H 153.753 -1.99117 -2.1617 0
M  V30 1603 H 151.267 -1.17216 -1.12402 0
M  V30 1604 H 153.264 -0.517112 -4.13681 0
M  V30 1605 H 151.924 0.242139 -3.23796 0
M  V30 1606 H 152.935 -3.39293 -3.91281 0
M  V30 1607 H 149.612 -0.818629 -4.09396 0
M  V30 1608 H 151.002 -4.81691 -4.68427 0
M  V30 1609 N 153.722 1.14298 -1.08507 0
M  V30 1610 C 154.95 1.89219 -0.836876 0
M  V30 1611 C 155.365 1.78638 0.611054 0
M  V30 1612 O 154.722 1.14643 1.41998 0
M  V30 1613 C 154.773 3.39158 -1.25116 0
M  V30 1614 O 154.494 3.49449 -2.64229 0
M  V30 1615 C 155.995 4.31073 -1.03398 0
M  V30 1616 H 153.215 0.599328 -0.301739 0
M  V30 1617 H 155.759 1.44746 -1.44461 0
M  V30 1618 H 153.914 3.81251 -0.687514 0
M  V30 1619 H 154.328 4.42589 -2.81452 0
M  V30 1620 H 155.802 5.34646 -1.37323 0
M  V30 1621 H 156.279 4.3919 0.0289259 0
M  V30 1622 H 156.885 3.94738 -1.58311 0
M  V30 1623 N 155.201 0.870884 1.31352 0
M  V30 1624 C 156.133 0.28455 2.27427 0
M  V30 1625 C 157.146 -0.552927 1.53123 0
M  V30 1626 O 158.335 -0.374771 1.74521 0
M  V30 1627 C 155.435 -0.615164 3.3327 0
M  V30 1628 C 154.608 0.190079 4.36987 0
M  V30 1629 C 153.667 -0.637917 5.22319 0
M  V30 1630 O 152.693 -0.065626 5.69162 0
M  V30 1631 N 153.895 -1.94973 5.46778 0
M  V30 1632 H 156.66 1.11017 2.7838 0
M  V30 1633 H 154.221 0.732458 1.44384 0
M  V30 1634 H 156.213 -1.1748 3.87273 0
M  V30 1635 H 154.783 -1.34146 2.82354 0
M  V30 1636 H 154.003 0.931165 3.83044 0
M  V30 1637 H 155.291 0.742579 5.03352 0
M  V30 1638 H 154.689 -2.4378 5.10478 0
M  V30 1639 H 153.246 -2.45713 6.03712 0
M  V30 1640 N 156.679 -1.44442 0.630414 0
M  V30 1641 C 157.925 -2.02351 0.134816 0
M  V30 1642 C 158.258 -1.4947 -1.23986 0
M  V30 1643 O 157.533 -0.678475 -1.82283 0
M  V30 1644 C 157.816 -3.59898 0.120707 0
M  V30 1645 C 157.669 -4.23063 1.52767 0
M  V30 1646 C 158.988 -4.36585 -0.555127 0
M  V30 1647 H 156.107 -0.73527 0.0504646 0
M  V30 1648 H 158.749 -1.72022 0.806751 0
M  V30 1649 H 156.899 -3.85868 -0.451477 0
M  V30 1650 H 158.571 -4.08202 2.14869 0
M  V30 1651 H 156.814 -3.80586 2.08175 0
M  V30 1652 H 157.485 -5.32071 1.46984 0
M  V30 1653 H 159.961 -4.16044 -0.0685429 0
M  V30 1654 H 158.837 -5.46294 -0.534185 0
M  V30 1655 H 159.098 -4.11138 -1.62535 0
M  V30 1656 N 158.157 -0.370918 -1.53173 0
M  V30 1657 C 159.404 0.217102 -2.01333 0
M  V30 1658 C 159.732 1.48338 -1.25802 0
M  V30 1659 O 158.987 1.92698 -0.34146 0
M  V30 1660 C 159.286 0.549696 -3.53147 0
M  V30 1661 C 158.952 -0.622872 -4.46577 0
M  V30 1662 C 157.614 -0.944595 -4.71838 0
M  V30 1663 C 159.966 -1.40819 -5.01816 0
M  V30 1664 C 157.294 -2.05351 -5.49589 0
M  V30 1665 C 159.646 -2.50757 -5.80778 0
M  V30 1666 C 158.31 -2.83458 -6.04324 0
M  V30 1667 H 157.58 0.0794431 -0.736729 0
M  V30 1668 H 160.227 -0.504481 -1.84736 0
M  V30 1669 H 158.532 1.35237 -3.6772 0
M  V30 1670 H 160.229 1.017 -3.87889 0
M  V30 1671 H 156.819 -0.36209 -4.27068 0
M  V30 1672 H 161.003 -1.17289 -4.82242 0
M  V30 1673 H 156.259 -2.3108 -5.6605 0
M  V30 1674 H 160.433 -3.12022 -6.22588 0
M  V30 1675 H 158.06 -3.69508 -6.64355 0
M  V30 1676 N 159.635 1.57281 -0.100228 0
M  V30 1677 C 161.051 1.57527 0.256416 0
M  V30 1678 C 161.251 1.11173 1.68056 0
M  V30 1679 O 160.307 0.79053 2.39806 0
M  V30 1680 C 161.62 3.00673 0.0401747 0
M  V30 1681 C 163.168 3.12815 0.107528 0
M  V30 1682 C 163.643 4.57929 -0.0807834 0
M  V30 1683 N 165.134 4.63193 -0.0261207 0
M  V30 1684 C 165.869 5.73212 -0.146999 0
M  V30 1685 N 165.365 6.92047 -0.322999 0
M  V30 1686 N 167.158 5.62031 -0.0879044 0
M  V30 1687 H 159.309 1.85718 -1.03065 0
M  V30 1688 H 161.572 0.857446 -0.404339 0
M  V30 1689 H 161.278 3.38804 -0.943649 0
M  V30 1690 H 161.152 3.69042 0.780262 0
M  V30 1691 H 163.539 2.74554 1.08186 0
M  V30 1692 H 163.62 2.47028 -0.664134 0
M  V30 1693 H 163.264 4.96886 -1.05201 0
M  V30 1694 H 163.194 5.21783 0.710635 0
M  V30 1695 H 165.685 3.77748 0.107161 0
M  V30 1696 H 165.998 7.7173 -0.406608 0
M  V30 1697 H 164.343 6.94074 -0.358733 0
M  V30 1698 H 167.534 4.68075 0.048498 0
M  V30 1699 H 167.707 6.47734 -0.185557 0
M  V30 1700 N 161.113 -0.173488 1.56642 0
M  V30 1701 C 162.046 -1.24353 1.91342 0
M  V30 1702 C 163.024 -1.4289 0.775965 0
M  V30 1703 O 164.208 -1.57932 1.02907 0
M  V30 1704 C 161.335 -2.60683 2.16245 0
M  V30 1705 C 160.381 -2.58894 3.38934 0
M  V30 1706 S 161.214 -2.0819 4.93373 0
M  V30 1707 C 162.37 -3.46302 5.21369 0
M  V30 1708 H 162.603 -0.947345 2.81803 0
M  V30 1709 H 160.136 -0.377958 1.49703 0
M  V30 1710 H 162.094 -3.39149 2.31275 0
M  V30 1711 H 160.755 -2.87502 1.26496 0
M  V30 1712 H 159.948 -3.59188 3.53553 0
M  V30 1713 H 159.55 -1.88522 3.2301 0
M  V30 1714 H 161.842 -4.42287 5.13214 0
M  V30 1715 H 162.785 -3.3656 6.23003 0
M  V30 1716 H 163.193 -3.42214 4.48943 0
M  V30 1717 N 162.591 -1.51276 -0.441967 0
M  V30 1718 C 163.837 -1.6492 -1.1905 0
M  V30 1719 C 164.192 -0.358731 -1.89026 0
M  V30 1720 O 163.485 0.645193 -1.8041 0
M  V30 1721 C 163.679 -2.78746 -2.23686 0
M  V30 1722 C 163.508 -4.18737 -1.63979 0
M  V30 1723 C 162.278 -4.84739 -1.42674 0
M  V30 1724 C 164.476 -5.01988 -1.11858 0
M  V30 1725 N 162.458 -6.08858 -0.785159 0
M  V30 1726 C 163.829 -6.17071 -0.601989 0
M  V30 1727 C 165.884 -4.87551 -1.0099 0
M  V30 1728 C 164.587 -7.19299 0.0126012 0
M  V30 1729 C 166.613 -5.89983 -0.409206 0
M  V30 1730 C 165.975 -7.04333 0.0968651 0
M  V30 1731 H 162.074 -0.657416 -0.423471 0
M  V30 1732 H 164.658 -1.8849 -0.48782 0
M  V30 1733 H 162.829 -2.56848 -2.91348 0
M  V30 1734 H 164.561 -2.81595 -2.90666 0
M  V30 1735 H 161.316 -4.42528 -1.68719 0
M  V30 1736 H 161.74 -6.75282 -0.481942 0
M  V30 1737 H 166.382 -3.99401 -1.38703 0
M  V30 1738 H 164.1 -8.071 0.401879 0
M  V30 1739 H 167.686 -5.8088 -0.327079 0
M  V30 1740 H 166.566 -7.82238 0.554373 0
M  V30 1741 N 164.069 0.697108 -1.41344 0
M  V30 1742 C 164.999 1.82353 -1.45841 0
M  V30 1743 C 165.98 1.67115 -0.317247 0
M  V30 1744 O 167.165 1.86871 -0.528474 0
M  V30 1745 C 164.295 3.20476 -1.33838 0
M  V30 1746 C 163.249 3.50415 -2.4575 0
M  V30 1747 C 162.575 4.87878 -2.18813 0
M  V30 1748 C 163.875 3.49546 -3.88091 0
M  V30 1749 H 165.569 1.78846 -2.40113 0
M  V30 1750 H 163.115 0.859028 -1.15571 0
M  V30 1751 H 165.068 3.98988 -1.35596 0
M  V30 1752 H 163.792 3.24604 -0.360498 0
M  V30 1753 H 162.451 2.74253 -2.43271 0
M  V30 1754 H 162.099 4.8863 -1.19371 0
M  V30 1755 H 161.799 5.08875 -2.93803 0
M  V30 1756 H 163.323 5.68702 -2.22284 0
M  V30 1757 H 164.737 4.18066 -3.92293 0
M  V30 1758 H 163.134 3.82075 -4.62751 0
M  V30 1759 H 164.204 2.48552 -4.16353 0
M  V30 1760 N 165.547 1.27147 0.931209 0
M  V30 1761 C 166.824 1.0401 1.65654 0
M  V30 1762 C 167.204 -0.426297 2.06751 0
M  V30 1763 O 166.552 -1.40879 1.79904 0
M  V30 1764 C 166.762 1.99834 2.86125 0
M  V30 1765 C 168.11 2.29007 3.57549 0
M  V30 1766 O 169.134 1.97779 2.96246 0
M  V30 1767 O 167.993 2.82222 4.67989 0
M  V30 1768 H 165.087 0.396239 0.725895 0
M  V30 1769 H 167.633 1.38397 0.982056 0
M  V30 1770 H 166.405 2.98744 2.52721 0
M  V30 1771 H 166.028 1.65987 3.61295 0
M  V30 1772 N 167.025 -1.13721 1.09112 0
M  V30 1773 C 167.988 -2.17222 0.731241 0
M  V30 1774 C 168.988 -1.59035 -0.237566 0
M  V30 1775 O 170.178 -1.74192 -0.0161704 0
M  V30 1776 C 167.31 -3.40804 0.0808443 0
M  V30 1777 H 168.503 -2.50573 1.64783 0
M  V30 1778 H 166.056 -1.28493 0.889897 0
M  V30 1779 H 166.791 -3.1304 -0.847127 0
M  V30 1780 H 166.576 -3.84306 0.777896 0
M  V30 1781 H 168.066 -4.1731 -0.155657 0
M  V30 1782 N 168.503 -0.877838 -1.30888 0
M  V30 1783 C 169.749 -0.493426 -1.96706 0
M  V30 1784 C 170.082 0.953504 -1.6918 0
M  V30 1785 O 169.357 1.67266 -0.992594 0
M  V30 1786 C 169.64 -0.760429 -3.51979 0
M  V30 1787 C 169.493 -2.25747 -3.89048 0
M  V30 1788 C 170.812 -0.232148 -4.39487 0
M  V30 1789 H 167.931 -0.180746 -0.714493 0
M  V30 1790 H 170.573 -1.10052 -1.54882 0
M  V30 1791 H 168.723 -0.243715 -3.87735 0
M  V30 1792 H 170.395 -2.84204 -3.63354 0
M  V30 1793 H 168.638 -2.72694 -3.37373 0
M  V30 1794 H 169.309 -2.39491 -4.97341 0
M  V30 1795 H 171.785 -0.674314 -4.106 0
M  V30 1796 H 170.661 -0.448355 -5.47066 0
M  V30 1797 H 170.922 0.866297 -4.33529 0
M  V30 1798 N 169.982 1.44106 -0.638065 0
M  V30 1799 C 171.23 2.01579 -0.145043 0
M  V30 1800 C 171.551 1.50496 1.24 0
M  V30 1801 O 170.821 0.711374 1.82527 0
M  V30 1802 H 169.401 0.745282 -0.05063 0
M  V30 1803 H 172.063 1.76516 -0.826327 0
M  V30 1804 H 171.159 3.11877 -0.118039 0
M  V30 1805 N 171.46 0.379036 1.52974 0
M  V30 1806 C 172.709 -0.207612 2.00629 0
M  V30 1807 C 173.022 -1.48758 1.27006 0
M  V30 1808 O 174.228 -2.15365 1.65318 0
M  V30 1809 C 172.684 -0.42053 3.57435 0
M  V30 1810 C 172.292 0.845587 4.39948 0
M  V30 1811 C 174.036 -0.964102 4.13407 0
M  V30 1812 C 171.943 0.601513 5.88333 0
M  V30 1813 H 170.873 -0.0813591 0.749598 0
M  V30 1814 H 173.524 0.499853 1.76561 0
M  V30 1815 H 171.906 -1.18959 3.7771 0
M  V30 1816 H 173.08 1.61848 4.31442 0
M  V30 1817 H 171.395 1.31336 3.95145 0
M  V30 1818 H 173.992 -1.16225 5.21916 0
M  V30 1819 H 174.335 -1.93019 3.68849 0
M  V30 1820 H 174.868 -0.25487 3.96983 0
M  V30 1821 H 171.607 1.53831 6.37194 0
M  V30 1822 H 171.127 -0.132628 5.99653 0
M  V30 1823 H 172.806 0.232134 6.46583 0
M  V30 1824 N 172.938 -1.57226 0.108567 0
M  V30 1825 C 174.163 -1.99604 -0.563303 0
M  V30 1826 C 174.588 -0.987563 -1.6009 0
M  V30 1827 O 173.946 0.0421687 -1.81251 0
M  V30 1828 C 173.994 -3.40902 -1.17552 0
M  V30 1829 O 173.098 -3.42896 -2.2912 0
M  V30 1830 H 172.439 -0.648704 -0.1417 0
M  V30 1831 H 174.969 -2.03679 0.193961 0
M  V30 1832 H 174.979 -3.78886 -1.51357 0
M  V30 1833 H 173.654 -4.1382 -0.415445 0
M  V30 1834 H 172.231 -3.1672 -1.96832 0
M  V30 1835 N 174.416 0.165178 -1.56732 0
M  V30 1836 C 175.326 1.22423 -2.00125 0
M  V30 1837 C 176.342 1.48084 -0.913619 0
M  V30 1838 O 177.518 1.60112 -1.22172 0
M  V30 1839 C 174.583 2.54197 -2.35764 0
M  V30 1840 C 173.644 2.36343 -3.58386 0
M  V30 1841 C 172.877 3.61834 -3.92316 0
M  V30 1842 O 173.1 4.67267 -3.27135 0
M  V30 1843 O 172.034 3.55579 -4.85641 0
M  V30 1844 H 175.86 0.885886 -2.90492 0
M  V30 1845 H 173.445 0.372518 -1.44681 0
M  V30 1846 H 175.327 3.3192 -2.59629 0
M  V30 1847 H 174.002 2.87598 -1.48557 0
M  V30 1848 H 172.909 1.56632 -3.39731 0
M  V30 1849 H 174.242 2.07865 -4.46154 0
M  V30 1850 N 175.894 1.51508 0.433938 0
M  V30 1851 C 177.171 1.54888 1.19453 0
M  V30 1852 C 177.551 0.315154 2.08734 0
M  V30 1853 O 176.899 -0.699558 2.17528 0
M  V30 1854 C 177.109 2.86467 1.99342 0
M  V30 1855 C 178.457 3.38545 2.56267 0
M  V30 1856 O 179.481 2.88041 2.0955 0
M  V30 1857 O 178.34 4.26675 3.41483 0
M  V30 1858 H 175.434 0.622863 0.544032 0
M  V30 1859 H 177.98 1.63823 0.442732 0
M  V30 1860 H 176.752 3.67718 1.33788 0
M  V30 1861 H 176.375 2.8071 2.8158 0
M  V30 1862 N 177.372 -0.689602 1.41712 0
M  V30 1863 C 178.302 -1.81577 1.46806 0
M  V30 1864 C 179.283 -1.66945 0.326105 0
M  V30 1865 O 180.468 -1.86588 0.538377 0
M  V30 1866 C 177.598 -3.19762 1.35535 0
M  V30 1867 C 176.552 -3.49107 2.47605 0
M  V30 1868 C 175.878 -4.86711 2.21397 0
M  V30 1869 C 177.178 -3.47483 3.89939 0
M  V30 1870 H 178.872 -1.7757 2.41058 0
M  V30 1871 H 176.418 -0.852887 1.16025 0
M  V30 1872 H 178.371 -3.98263 1.3771 0
M  V30 1873 H 177.095 -3.24409 0.377708 0
M  V30 1874 H 175.754 -2.72959 2.44722 0
M  V30 1875 H 175.402 -4.8799 1.21961 0
M  V30 1876 H 175.102 -5.0731 2.96497 0
M  V30 1877 H 176.626 -5.67515 2.25297 0
M  V30 1878 H 178.04 -4.1598 3.94505 0
M  V30 1879 H 176.437 -3.79615 4.64771 0
M  V30 1880 H 177.507 -2.46341 4.17665 0
M  V30 1881 N 178.85 -1.27639 -0.924453 0
M  V30 1882 C 179.8 -1.07295 -2.01176 0
M  V30 1883 C 180.784 5.77352e-05 -1.609 0
M  V30 1884 O 181.976 -0.218855 -1.75642 0
M  V30 1885 C 179.105 -0.725592 -3.35544 0
M  V30 1886 C 178.191 -1.83691 -3.82254 0
M  V30 1887 N 178.582 -3.07697 -4.01443 0
M  V30 1888 C 176.88 -1.72433 -4.11319 0
M  V30 1889 C 177.581 -3.80037 -4.40394 0
M  V30 1890 N 176.557 -3.0782 -4.48049 0
M  V30 1891 H 180.359 -2.01399 -2.14046 0
M  V30 1892 H 177.873 -1.18401 -1.11153 0
M  V30 1893 H 179.87 -0.560959 -4.13109 0
M  V30 1894 H 178.53 0.207782 -3.24034 0
M  V30 1895 H 179.541 -3.43424 -3.8766 0
M  V30 1896 H 176.218 -0.862005 -4.08504 0
M  V30 1897 H 177.608 -4.86632 -4.63291 0
M  V30 1898 N 180.328 1.1314 -1.09713 0
M  V30 1899 C 181.744 1.36477 -0.827423 0
M  V30 1900 C 181.944 1.93654 0.556817 0
M  V30 1901 O 181 2.15791 1.31112 0
M  V30 1902 C 182.313 2.31334 -1.92106 0
M  V30 1903 C 183.861 2.44943 -1.94864 0
M  V30 1904 C 184.336 3.4311 -3.0338 0
M  V30 1905 N 185.827 3.50662 -3.02639 0
M  V30 1906 C 186.562 4.2651 -3.83246 0
M  V30 1907 N 186.058 5.05485 -4.73768 0
M  V30 1908 N 187.851 4.2184 -3.71493 0
M  V30 1909 H 180.002 0.743807 -1.9895 0
M  V30 1910 H 182.265 0.389823 -0.864143 0
M  V30 1911 H 181.971 1.96483 -2.91698 0
M  V30 1912 H 181.845 3.31381 -1.80184 0
M  V30 1913 H 184.232 2.79079 -0.959099 0
M  V30 1914 H 184.313 1.4481 -2.10864 0
M  V30 1915 H 183.957 3.09704 -4.02549 0
M  V30 1916 H 183.887 4.43055 -2.84622 0
M  V30 1917 H 186.378 2.94315 -2.37039 0
M  V30 1918 H 186.691 5.60675 -5.3185 0
M  V30 1919 H 185.036 5.04708 -4.77802 0
M  V30 1920 H 188.227 3.5922 -3.00131 0
M  V30 1921 H 188.4 4.80697 -4.3455 0
M  V30 1922 N 181.806 0.884767 1.30421 0
M  V30 1923 C 183.036 0.517293 2.00019 0
M  V30 1924 C 183.444 -0.898632 1.66497 0
M  V30 1925 O 182.787 -1.60245 0.898181 0
M  V30 1926 C 182.849 0.612025 3.54252 0
M  V30 1927 C 182.513 1.99222 4.1129 0
M  V30 1928 C 183.51 2.9616 4.273 0
M  V30 1929 C 181.195 2.29755 4.46674 0
M  V30 1930 C 183.189 4.21764 4.77906 0
M  V30 1931 C 180.876 3.55606 4.96979 0
M  V30 1932 C 181.874 4.51425 5.12547 0
M  V30 1933 O 181.562 5.75043 5.61766 0
M  V30 1934 H 181.294 0.198529 0.64619 0
M  V30 1935 H 183.848 1.1919 1.67281 0
M  V30 1936 H 182.078 -0.119561 3.86515 0
M  V30 1937 H 183.767 0.255859 4.05093 0
M  V30 1938 H 184.533 2.73882 4.00267 0
M  V30 1939 H 180.412 1.55942 4.33824 0
M  V30 1940 H 183.956 4.96561 4.89972 0
M  V30 1941 H 179.853 3.7772 5.23448 0
M  V30 1942 H 180.621 5.77422 5.80109 0
M  V30 1943 N 183.284 -1.43765 0.645699 0
M  V30 1944 C 184.214 -2.33471 -0.0370477 0
M  V30 1945 C 185.195 -1.49042 -0.819779 0
M  V30 1946 O 186.38 -1.77726 -0.782758 0
M  V30 1947 C 183.51 -3.32311 -1.0093 0
M  V30 1948 C 182.464 -4.2667 -0.337201 0
M  V30 1949 C 181.79 -5.1549 -1.42037 0
M  V30 1950 C 183.09 -5.16657 0.765706 0
M  V30 1951 H 184.784 -2.90809 0.712069 0
M  V30 1952 H 182.33 -1.39834 0.343876 0
M  V30 1953 H 184.283 -3.9396 -1.49578 0
M  V30 1954 H 183.007 -2.73213 -1.78948 0
M  V30 1955 H 181.666 -3.66374 0.128771 0
M  V30 1956 H 181.314 -4.52735 -2.1918 0
M  V30 1957 H 181.014 -5.79438 -0.975966 0
M  V30 1958 H 182.538 -5.80012 -1.90838 0
M  V30 1959 H 183.952 -5.72158 0.361702 0
M  V30 1960 H 182.349 -5.89286 1.13413 0
M  V30 1961 H 183.419 -4.56796 1.62683 0
M  V30 1962 N 184.763 -0.387143 -1.52771 0
M  V30 1963 C 186.04 0.253197 -1.93954 0
M  V30 1964 C 186.42 1.64545 -1.32243 0
M  V30 1965 O 185.768 2.23191 -0.489699 0
M  V30 1966 C 185.978 0.281722 -3.47861 0
M  V30 1967 C 187.326 0.511715 -4.21505 0
M  V30 1968 O 188.35 0.362023 -3.54356 0
M  V30 1969 O 187.209 0.804847 -5.40541 0
M  V30 1970 H 184.303 0.156845 -0.811991 0
M  V30 1971 H 186.849 -0.441494 -1.63856 0
M  V30 1972 H 185.621 -0.693571 -3.85104 0
M  V30 1973 H 185.244 1.02142 -3.84256 0
M  V30 1974 N 186.241 1.57166 -0.116904 0
M  V30 1975 C 187.518 1.86645 0.585049 0
M  V30 1976 C 187.898 1.0177 1.84949 0
M  V30 1977 O 187.246 0.0960379 2.28298 0
M  V30 1978 C 187.456 3.37736 0.879507 0
M  V30 1979 C 188.804 4.06289 1.23348 0
M  V30 1980 O 189.828 3.42743 0.969836 0
M  V30 1981 O 188.687 5.18455 1.7282 0
M  V30 1982 H 185.781 0.772593 0.295007 0
M  V30 1983 H 188.327 1.69025 -0.151249 0
M  V30 1984 H 187.099 3.91296 -0.0166136 0
M  V30 1985 H 186.722 3.6078 1.67103 0
M  V30 1986 N 187.719 -0.156864 1.56817 0
M  V30 1987 C 188.649 -1.19589 2.00551 0
M  V30 1988 C 189.63 -1.4536 0.883426 0
M  V30 1989 O 190.815 -1.56449 1.15054 0
M  V30 1990 C 187.945 -2.53143 2.37773 0
M  V30 1991 C 186.899 -2.41913 3.53075 0
M  V30 1992 C 186.225 -3.80088 3.76081 0
M  V30 1993 C 187.525 -1.91157 4.86062 0
M  V30 1994 H 189.219 -0.832293 2.87599 0
M  V30 1995 H 186.765 -0.398918 1.38364 0
M  V30 1996 H 188.718 -3.26047 2.66967 0
M  V30 1997 H 187.442 -2.91319 1.4765 0
M  V30 1998 H 186.101 -1.71462 3.24031 0
M  V30 1999 H 185.749 -4.15683 2.83225 0
M  V30 2000 H 185.449 -3.73439 4.53671 0
M  V30 2001 H 186.973 -4.54556 4.0769 0
M  V30 2002 H 188.387 -2.53846 5.14038 0
M  V30 2003 H 186.784 -1.95422 5.67389 0
M  V30 2004 H 187.854 -0.866673 4.77092 0
M  V30 2005 N 189.197 -1.51736 -0.425897 0
M  V30 2006 C 190.608 -1.5732 -1.00536 0
M  V30 2007 C 190.959 -0.403537 -1.92005 0
M  V30 2008 O 190.084 0.478256 -2.11049 0
M  V30 2009 C 190.679 -2.85119 -1.8301 0
M  V30 2010 C 189.238 -2.93236 -2.35987 0
M  V30 2011 C 188.385 -2.52098 -1.15508 0
M  V30 2012 H 191.336 -1.57348 -0.206739 0
M  V30 2013 H 191.357 -2.69526 -2.68581 0
M  V30 2014 H 190.869 -3.7023 -1.16411 0
M  V30 2015 H 188.97 -2.12581 -3.06007 0
M  V30 2016 H 189.083 -3.9713 -2.68001 0
M  V30 2017 H 187.447 -2.05558 -1.50393 0
M  V30 2018 H 188.23 -3.39565 -0.505014 0
M  V30 2019 N 190.675 0.682077 -1.42076 0
M  V30 2020 C 191.638 1.77756 -1.44691 0
M  V30 2021 C 192.638 1.5726 -0.335535 0
M  V30 2022 O 193.828 1.63686 -0.596037 0
M  V30 2023 C 190.96 3.16301 -1.27146 0
M  V30 2024 H 192.153 1.76826 -2.42224 0
M  V30 2025 H 189.706 0.891012 -1.28416 0
M  V30 2026 H 190.441 3.22862 -0.305075 0
M  V30 2027 H 190.226 3.32581 -2.07683 0
M  V30 2028 H 191.716 3.96241 -1.31843 0
M  V30 2029 N 192.153 1.28127 0.917671 0
M  V30 2030 C 193.383 1.17722 1.6978 0
M  V30 2031 C 193.791 -0.267261 1.87303 0
M  V30 2032 O 193.134 -1.19286 1.39702 0
M  V30 2033 C 193.196 1.79958 3.11216 0
M  V30 2034 C 192.86 3.29187 3.16993 0
M  V30 2035 C 193.857 4.25679 2.98485 0
M  V30 2036 C 191.542 3.70075 3.39632 0
M  V30 2037 C 193.536 5.61035 3.02521 0
M  V30 2038 C 191.223 5.05557 3.433 0
M  V30 2039 C 192.221 6.00847 3.24764 0
M  V30 2040 O 191.909 7.33859 3.28187 0
M  V30 2041 H 191.641 0.409788 0.537634 0
M  V30 2042 H 194.195 1.69694 1.15728 0
M  V30 2043 H 192.425 1.22475 3.66793 0
M  V30 2044 H 194.114 1.64125 3.71238 0
M  V30 2045 H 194.88 3.95426 2.80826 0
M  V30 2046 H 190.759 2.96373 3.53106 0
M  V30 2047 H 194.303 6.35388 2.87971 0
M  V30 2048 H 190.2 5.35462 3.60486 0
M  V30 2049 H 190.968 7.42436 3.44575 0
M  V30 2050 N 193.631 -1.12557 1.10312 0
M  V30 2051 C 195.047 -1.36036 0.834649 0
M  V30 2052 C 195.247 -1.93946 -0.546539 0
M  V30 2053 O 194.303 -2.16484 -1.29966 0
M  V30 2054 C 195.616 -2.30312 1.9333 0
M  V30 2055 C 197.164 -2.43906 1.9616 0
M  V30 2056 C 197.639 -3.41496 3.05195 0
M  V30 2057 N 199.13 -3.49053 3.04494 0
M  V30 2058 C 199.865 -4.24471 3.85502 0
M  V30 2059 N 199.361 -5.02966 4.76442 0
M  V30 2060 N 201.154 -4.19864 3.73725 0
M  V30 2061 H 193.305 -0.733246 1.99342 0
M  V30 2062 H 195.568 -0.385234 0.866198 0
M  V30 2063 H 195.274 -1.94933 2.92735 0
M  V30 2064 H 195.148 -3.30421 1.81939 0
M  V30 2065 H 197.535 -2.78567 0.973886 0
M  V30 2066 H 197.616 -1.4369 2.11629 0
M  V30 2067 H 197.26 -3.07565 4.04186 0
M  V30 2068 H 197.19 -4.41539 2.86968 0
M  V30 2069 H 199.681 -2.93053 2.38596 0
M  V30 2070 H 199.994 -5.57846 5.34815 0
M  V30 2071 H 198.339 -5.02167 4.80472 0
M  V30 2072 H 201.53 -3.57623 3.02032 0
M  V30 2073 H 201.703 -4.78386 4.37093 0
M  V30 2074 N 195.109 -0.891671 -1.2995 0
M  V30 2075 C 196.041 -0.320695 -2.26945 0
M  V30 2076 C 197.054 0.528497 -1.53983 0
M  V30 2077 O 198.243 0.346959 -1.75096 0
M  V30 2078 C 195.343 0.562066 -3.34207 0
M  V30 2079 C 194.516 -0.259576 -4.36629 0
M  V30 2080 C 193.575 0.554739 -5.23268 0
M  V30 2081 O 192.601 -0.0249311 -5.69195 0
M  V30 2082 N 193.803 1.8625 -5.4981 0
M  V30 2083 H 196.568 -1.15432 -2.76578 0
M  V30 2084 H 194.129 -0.755336 -1.432 0
M  V30 2085 H 196.121 1.11304 -3.89093 0
M  V30 2086 H 194.691 1.29637 -2.84452 0
M  V30 2087 H 193.911 -0.991986 -3.81514 0
M  V30 2088 H 195.199 -0.822564 -5.02107 0
M  V30 2089 H 194.597 2.35628 -5.14292 0
M  V30 2090 H 193.154 2.36078 -6.07545 0
M  V30 2091 N 196.587 1.43421 -0.653314 0
M  V30 2092 C 197.836 2.01032 -0.164076 0
M  V30 2093 C 198.149 1.52147 1.22926 0
M  V30 2094 O 199.355 2.02031 1.81371 0
M  V30 2095 C 197.811 3.59082 -0.24252 0
M  V30 2096 C 197.419 4.1696 -1.63855 0
M  V30 2097 C 199.163 4.24079 0.18911 0
M  V30 2098 C 197.07 5.67304 -1.67092 0
M  V30 2099 H 196 0.751798 -0.0575769 0
M  V30 2100 H 198.651 1.6439 -0.815362 0
M  V30 2101 H 197.033 3.93125 0.476276 0
M  V30 2102 H 198.207 3.94416 -2.38271 0
M  V30 2103 H 196.522 3.64335 -2.01616 0
M  V30 2104 H 199.119 5.34381 0.184775 0
M  V30 2105 H 199.462 3.98005 1.22056 0
M  V30 2106 H 199.995 3.94918 -0.477938 0
M  V30 2107 H 196.734 5.98145 -2.68146 0
M  V30 2108 H 196.254 5.91904 -0.970014 0
M  V30 2109 H 197.933 6.31344 -1.4147 0
M  V30 2110 N 198.065 0.39524 1.52563 0
M  V30 2111 C 199.312 -0.185044 2.01653 0
M  V30 2112 C 199.64 -1.46317 1.28146 0
M  V30 2113 O 198.895 -1.9213 0.372074 0
M  V30 2114 C 199.194 -0.493444 3.53977 0
M  V30 2115 C 198.86 0.69384 4.4553 0
M  V30 2116 C 197.522 1.01954 4.70275 0
M  V30 2117 C 199.874 1.48785 4.99512 0
M  V30 2118 C 197.202 2.14069 5.46252 0
M  V30 2119 C 199.554 2.59965 5.76716 0
M  V30 2120 C 198.218 2.93037 5.99738 0
M  V30 2121 H 197.488 -0.0677123 0.7379 0
M  V30 2122 H 200.135 0.533807 1.8391 0
M  V30 2123 H 198.44 -1.29369 3.69825 0
M  V30 2124 H 200.137 -0.955163 3.89458 0
M  V30 2125 H 196.727 0.429987 4.26438 0
M  V30 2126 H 200.911 1.24946 4.80315 0
M  V30 2127 H 196.167 2.40056 5.62302 0
M  V30 2128 H 200.341 3.21887 6.17545 0
M  V30 2129 H 197.968 3.8003 6.58393 0
M  V30 2130 N 199.544 -1.57102 0.125237 0
M  V30 2131 C 200.774 -1.99472 -0.538015 0
M  V30 2132 C 201.182 -1.00395 -1.60366 0
M  V30 2133 O 200.525 0.0103875 -1.83697 0
M  V30 2134 C 200.587 -3.38262 -1.21734 0
M  V30 2135 C 200.251 -4.56021 -0.298897 0
M  V30 2136 C 201.248 -5.17817 0.464943 0
M  V30 2137 C 198.933 -5.01869 -0.208149 0
M  V30 2138 C 200.927 -6.23852 1.3072 0
M  V30 2139 C 198.614 -6.07763 0.637736 0
M  V30 2140 C 199.612 -6.68622 1.39403 0
M  V30 2141 O 199.3 -7.7247 2.22586 0
M  V30 2142 H 199.032 -0.659934 -0.146501 0
M  V30 2143 H 201.586 -2.04321 0.210267 0
M  V30 2144 H 199.816 -3.30185 -2.01282 0
M  V30 2145 H 201.505 -3.6488 -1.77813 0
M  V30 2146 H 202.271 -4.83308 0.404741 0
M  V30 2147 H 198.15 -4.54241 -0.786522 0
M  V30 2148 H 201.694 -6.71284 1.898 0
M  V30 2149 H 197.591 -6.41701 0.699309 0
M  V30 2150 H 198.359 -7.89595 2.15596 0
M  V30 2151 N 201.022 0.148545 -1.56898 0
M  V30 2152 C 201.985 1.16736 -1.97244 0
M  V30 2153 C 202.985 1.35947 -0.858777 0
M  V30 2154 O 204.175 1.32966 -1.12542 0
M  V30 2155 C 201.307 2.52798 -2.28705 0
M  V30 2156 H 202.5 0.821279 -2.88435 0
M  V30 2157 H 200.053 0.391831 -1.51309 0
M  V30 2158 H 200.788 2.92381 -1.403 0
M  V30 2159 H 200.573 2.40216 -3.09901 0
M  V30 2160 H 202.063 3.26179 -2.60762 0
M  V30 2161 N 202.5 1.5196 0.417844 0
M  V30 2162 C 203.41 1.77554 1.53336 0
M  V30 2163 C 204.426 0.660655 1.6097 0
M  V30 2164 O 205.602 0.945099 1.77848 0
M  V30 2165 C 202.667 1.91291 2.89152 0
M  V30 2166 C 201.728 3.15183 2.91475 0
M  V30 2167 C 200.961 3.28256 4.20813 0
M  V30 2168 O 201.184 2.46798 5.14244 0
M  V30 2169 O 200.118 4.21356 4.29817 0
M  V30 2170 H 203.944 2.7222 1.34647 0
M  V30 2171 H 201.529 1.36698 0.602828 0
M  V30 2172 H 203.411 2.02199 3.69721 0
M  V30 2173 H 202.086 0.998129 3.07927 0
M  V30 2174 H 200.993 3.09739 2.09791 0
M  V30 2175 H 202.326 4.06414 2.77648 0
M  V30 2176 N 203.978 -0.674533 1.42435 0
M  V30 2177 C 204.908 -1.80009 1.48724 0
M  V30 2178 C 205.889 -1.6659 0.343793 0
M  V30 2179 O 207.074 -1.86007 0.558137 0
M  V30 2180 C 204.204 -3.18306 1.38919 0
M  V30 2181 C 203.158 -3.46461 2.51294 0
M  V30 2182 C 202.484 -4.84335 2.26547 0
M  V30 2183 C 203.784 -3.43328 3.93603 0
M  V30 2184 H 205.478 -1.75004 2.42928 0
M  V30 2185 H 203.024 -0.840533 1.16923 0
M  V30 2186 H 204.977 -3.9678 1.41927 0
M  V30 2187 H 203.701 -3.2399 0.412094 0
M  V30 2188 H 202.36 -2.70348 2.47604 0
M  V30 2189 H 202.008 -4.86669 1.2713 0
M  V30 2190 H 201.708 -5.04136 3.01861 0
M  V30 2191 H 203.232 -5.65094 2.31304 0
M  V30 2192 H 204.646 -4.11772 3.98894 0
M  V30 2193 H 203.043 -3.74664 4.68771 0
M  V30 2194 H 204.113 -2.41897 4.20255 0
M  V30 2195 N 205.456 -1.28612 -0.910864 0
M  V30 2196 C 206.867 -1.14406 -1.47541 0
M  V30 2197 C 207.218 0.264901 -1.94403 0
M  V30 2198 O 206.343 1.15942 -1.82719 0
M  V30 2199 C 206.938 -2.07073 -2.68153 0
M  V30 2200 C 205.497 -1.96923 -3.20778 0
M  V30 2201 C 204.644 -1.98646 -1.93481 0
M  V30 2202 H 207.595 -1.41259 -0.723291 0
M  V30 2203 H 207.616 -1.63642 -3.43514 0
M  V30 2204 H 207.128 -3.09611 -2.34015 0
M  V30 2205 H 205.229 -0.97433 -3.59635 0
M  V30 2206 H 205.342 -2.84026 -3.85832 0
M  V30 2207 H 203.706 -1.43093 -2.10705 0
M  V30 2208 H 204.489 -3.02868 -1.61634 0
M  V30 2209 N 206.934 1.1197 -1.10907 0
M  V30 2210 C 207.844 2.21433 -0.774896 0
M  V30 2211 C 208.86 1.72478 0.229657 0
M  V30 2212 O 210.036 2.01288 0.0672008 0
M  V30 2213 C 207.101 3.4602 -0.216986 0
M  V30 2214 C 206.162 4.09791 -1.27944 0
M  V30 2215 C 205.395 5.28431 -0.748055 0
M  V30 2216 O 205.618 5.68823 0.423833 0
M  V30 2217 O 204.552 5.82644 -1.51027 0
M  V30 2218 H 208.378 2.5242 -1.68873 0
M  V30 2219 H 205.963 1.20399 -0.884555 0
M  V30 2220 H 207.845 4.21304 0.090059 0
M  V30 2221 H 206.52 3.16698 0.669633 0
M  V30 2222 H 205.427 3.36265 -1.63941 0
M  V30 2223 H 206.76 4.4328 -2.13925 0
M  V30 2224 N 208.412 0.89855 1.29475 0
M  V30 2225 C 209.652 0.530771 1.97388 0
M  V30 2226 C 210.016 -0.905832 1.69289 0
M  V30 2227 O 211.217 -1.38042 2.30646 0
M  V30 2228 C 209.488 0.81369 3.48014 0
M  V30 2229 S 211.047 0.550048 4.35339 0
M  V30 2230 H 207.865 0.196956 0.683176 0
M  V30 2231 H 210.467 1.16074 1.57312 0
M  V30 2232 H 209.171 1.85749 3.65958 0
M  V30 2233 H 208.702 0.171795 3.93025 0
M  V30 2234 H 210.717 -0.605423 4.92493 0
M  V30 2235 N 209.89 -1.43072 0.660911 0
M  V30 2236 C 210.82 -2.33497 -0.0122829 0
M  V30 2237 C 211.801 -1.49903 -0.803925 0
M  V30 2238 O 212.986 -1.78546 -0.763864 0
M  V30 2239 C 210.116 -3.33363 -0.973994 0
M  V30 2240 C 209.07 -4.27003 -0.291928 0
M  V30 2241 C 208.396 -5.16967 -1.36562 0
M  V30 2242 C 209.696 -5.15816 0.820462 0
M  V30 2243 H 211.39 -2.90038 0.742873 0
M  V30 2244 H 208.936 -1.39461 0.358688 0
M  V30 2245 H 210.889 -3.95524 -1.45392 0
M  V30 2246 H 209.613 -2.75095 -1.7604 0
M  V30 2247 H 208.272 -3.66217 0.167623 0
M  V30 2248 H 207.92 -4.55034 -2.14366 0
M  V30 2249 H 207.62 -5.80441 -0.914454 0
M  V30 2250 H 209.144 -5.82003 -1.84675 0
M  V30 2251 H 210.558 -5.71742 0.422366 0
M  V30 2252 H 208.955 -5.8805 1.19656 0
M  V30 2253 H 210.025 -4.55045 1.67518 0
M  V30 2254 N 211.368 -0.403325 -1.52352 0
M  V30 2255 C 212.316 0.439752 -2.28405 0
M  V30 2256 C 213.31 1.05089 -1.32863 0
M  V30 2257 O 214.516 0.989759 -1.50345 0
M  V30 2258 H 210.891 0.160587 -0.734653 0
M  V30 2259 H 212.862 -0.222983 -2.97566 0
M  V30 2260 C 211.611 1.54736 -3.11371 0
M  V30 2261 H 210.934 1.08643 -3.84755 0
M  V30 2262 H 212.374 2.1112 -3.67701 0
M  V30 2263 C 210.833 2.51141 -2.24566 0
M  V30 2264 O 211.363 3.54887 -1.88196 0
M  V30 2265 N 209.569 2.21213 -1.8845 0
M  V30 2266 H 209.116 1.36878 -2.18225 0
M  V30 2267 H 209.074 2.85963 -1.30662 0
M  V30 2268 N 212.846 1.57033 -0.133567 0
M  V30 2269 C 213.809 2.14897 0.796995 0
M  V30 2270 C 214.809 1.0874 1.18458 0
M  V30 2271 O 215.999 1.34446 1.1077 0
M  V30 2272 C 213.131 2.70112 2.07973 0
M  V30 2273 H 214.324 2.98457 0.293873 0
M  V30 2274 H 211.877 1.55871 0.115787 0
M  V30 2275 H 212.612 1.9018 2.62682 0
M  V30 2276 H 212.397 3.47764 1.81115 0
M  V30 2277 H 213.887 3.14738 2.74462 0
M  V30 2278 N 214.325 -0.140222 1.56975 0
M  V30 2279 C 215.255 -1.17456 2.01808 0
M  V30 2280 C 216.236 -1.44415 0.898794 0
M  V30 2281 O 217.421 -1.5522 1.16707 0
M  V30 2282 C 214.551 -2.50607 2.40444 0
M  V30 2283 C 213.505 -2.38155 3.55621 0
M  V30 2284 C 212.831 -3.76078 3.80091 0
M  V30 2285 C 214.131 -1.85991 4.88062 0
M  V30 2286 H 215.825 -0.801743 2.88466 0
M  V30 2287 H 213.371 -0.38422 1.38779 0
M  V30 2288 H 215.324 -3.23197 2.7041 0
M  V30 2289 H 214.048 -2.89737 1.50732 0
M  V30 2290 H 212.707 -1.68016 3.25832 0
M  V30 2291 H 212.355 -4.12656 2.87618 0
M  V30 2292 H 212.055 -3.68606 4.57606 0
M  V30 2293 H 213.579 -4.50206 4.12488 0
M  V30 2294 H 214.993 -2.4838 5.16701 0
M  V30 2295 H 213.39 -1.89393 5.6943 0
M  V30 2296 H 214.46 -0.816023 4.77984 0
M  V30 2297 N 215.803 -1.52179 -0.40978 0
M  V30 2298 C 217.028 -1.70347 -1.18308 0
M  V30 2299 C 217.453 -0.411887 -1.83535 0
M  V30 2300 O 216.811 0.630587 -1.6998 0
M  V30 2301 C 216.859 -2.83977 -2.22238 0
M  V30 2302 O 215.963 -2.495 -3.28365 0
M  V30 2303 H 215.304 -0.567103 -0.345384 0
M  V30 2304 H 217.834 -1.98879 -0.480445 0
M  V30 2305 H 217.844 -3.0887 -2.66577 0
M  V30 2306 H 216.519 -3.77685 -1.74146 0
M  V30 2307 H 215.096 -2.35277 -2.89308 0
M  V30 2308 N 217.281 0.66697 -1.42791 0
M  V30 2309 C 218.244 1.76211 -1.46568 0
M  V30 2310 C 219.244 1.56896 -0.352196 0
M  V30 2311 O 220.434 1.63044 -0.613364 0
M  V30 2312 C 217.566 3.14935 -1.30494 0
M  V30 2313 H 218.759 1.74247 -2.44086 0
M  V30 2314 H 216.312 0.877342 -1.29354 0
M  V30 2315 H 217.047 3.2252 -0.339301 0
M  V30 2316 H 216.832 3.30359 -2.11199 0
M  V30 2317 H 218.322 3.94821 -1.36038 0
M  V30 2318 N 218.759 1.29093 0.90403 0
M  V30 2319 C 220.036 1.075 1.63411 0
M  V30 2320 C 220.416 -0.382346 2.07609 0
M  V30 2321 O 219.764 -1.37031 1.82851 0
M  V30 2322 C 219.974 2.05858 2.81822 0
M  V30 2323 C 221.322 2.36539 3.52611 0
M  V30 2324 O 222.346 2.04019 2.91984 0
M  V30 2325 O 221.205 2.92085 4.61897 0
M  V30 2326 H 218.299 0.411547 0.717327 0
M  V30 2327 H 220.845 1.40449 0.952479 0
M  V30 2328 H 219.617 3.04037 2.46327 0
M  V30 2329 H 219.24 1.73613 3.57693 0
M  V30 2330 N 220.237 -1.11381 1.11499 0
M  V30 2331 C 221.648 -1.6465 0.880191 0
M  V30 2332 C 221.999 -1.87199 -0.587434 0
M  V30 2333 O 221.124 -1.60667 -1.44966 0
M  V30 2334 C 221.719 -2.99105 1.59128 0
M  V30 2335 C 220.278 -3.49279 1.40289 0
M  V30 2336 C 219.425 -2.24077 1.63354 0
M  V30 2337 H 222.376 -0.950123 1.27116 0
M  V30 2338 H 222.397 -3.66107 1.03664 0
M  V30 2339 H 221.909 -2.82661 2.65941 0
M  V30 2340 H 220.01 -3.70887 0.356888 0
M  V30 2341 H 220.123 -4.2803 2.15238 0
M  V30 2342 H 218.487 -2.31733 1.05698 0
M  V30 2343 H 219.27 -2.10175 2.71443 0
M  V30 2344 N 221.715 -0.905404 -1.28997 0
M  V30 2345 C 222.94 -0.549175 -1.99997 0
M  V30 2346 C 223.365 0.860276 -1.67275 0
M  V30 2347 O 222.723 1.57355 -0.900502 0
M  V30 2348 C 222.771 -0.755185 -3.52604 0
M  V30 2349 O 221.875 0.189692 -4.11964 0
M  V30 2350 H 221.216 -0.213899 -0.628604 0
M  V30 2351 H 223.746 -1.21856 -1.64354 0
M  V30 2352 H 223.756 -0.662045 -4.02593 0
M  V30 2353 H 222.431 -1.78271 -3.75755 0
M  V30 2354 H 221.008 0.0485257 -3.72868 0
M  V30 2355 N 223.193 1.4272 -0.668489 0
M  V30 2356 C 224.604 1.84793 -0.266151 0
M  V30 2357 C 224.955 1.55959 1.19043 0
M  V30 2358 O 224.08 1.01622 1.91055 0
M  V30 2359 C 224.675 3.35436 -0.476271 0
M  V30 2360 C 223.234 3.76182 -0.128113 0
M  V30 2361 C 222.381 2.66344 -0.771777 0
M  V30 2362 H 225.332 1.32656 -0.871098 0
M  V30 2363 H 225.353 3.79515 0.273561 0
M  V30 2364 H 224.865 3.5639 -1.53647 0
M  V30 2365 H 222.966 3.60836 0.928891 0
M  V30 2366 H 223.079 4.75766 -0.564231 0
M  V30 2367 H 221.443 2.53885 -0.203652 0
M  V30 2368 H 222.226 2.90123 -1.83531 0
M  V30 2369 N 224.671 0.411399 1.52136 0
M  V30 2370 C 225.634 -0.401089 2.25663 0
M  V30 2371 C 226.634 -0.971732 1.28117 0
M  V30 2372 O 227.824 -0.850254 1.52041 0
M  V30 2373 C 224.956 -1.56483 3.02863 0
M  V30 2374 H 226.149 0.24295 2.98914 0
M  V30 2375 H 223.702 0.163968 1.55438 0
M  V30 2376 H 224.437 -2.24567 2.33967 0
M  V30 2377 H 224.222 -1.16211 3.74483 0
M  V30 2378 H 225.712 -2.13951 3.58629 0
M  V30 2379 N 226.149 -1.5696 0.141893 0
M  V30 2380 C 227.112 -2.15316 -0.785587 0
M  V30 2381 C 228.112 -1.09366 -1.1788 0
M  V30 2382 O 229.302 -1.35031 -1.10056 0
M  V30 2383 C 226.434 -2.71211 -2.06537 0
M  V30 2384 H 227.627 -2.98608 -0.278041 0
M  V30 2385 H 225.18 -1.5593 -0.107519 0
M  V30 2386 H 225.915 -1.91571 -2.6167 0
M  V30 2387 H 225.7 -3.4872 -1.79268 0
M  V30 2388 H 227.19 -3.16189 -2.72789 0
M  V30 2389 N 227.627 0.131896 -1.57047 0
M  V30 2390 C 228.559 1.1878 -1.9602 0
M  V30 2391 C 229.572 1.38363 -0.857875 0
M  V30 2392 O 230.761 1.37666 -1.13623 0
M  V30 2393 C 227.861 2.55008 -2.23213 0
M  V30 2394 C 227.034 2.56201 -3.54513 0
M  V30 2395 C 226.093 3.7408 -3.70069 0
M  V30 2396 O 225.119 3.58258 -4.42312 0
M  V30 2397 N 226.321 4.92137 -3.07866 0
M  V30 2398 H 229.086 0.85639 -2.87204 0
M  V30 2399 H 226.647 0.321309 -1.5868 0
M  V30 2400 H 228.639 3.32404 -2.30846 0
M  V30 2401 H 227.209 2.80382 -1.3822 0
M  V30 2402 H 226.429 1.64613 -3.58185 0
M  V30 2403 H 227.717 2.54043 -4.4084 0
M  V30 2404 H 227.115 5.07895 -2.49116 0
M  V30 2405 H 225.672 5.67254 -3.21039 0
M  V30 2406 N 229.106 1.52395 0.401703 0
M  V30 2407 C 230.352 1.67065 1.14966 0
M  V30 2408 C 230.685 0.403052 1.89971 0
M  V30 2409 O 229.96 -0.598774 1.85054 0
M  V30 2410 C 230.243 2.8975 2.13815 0
M  V30 2411 C 230.096 4.26578 1.42658 0
M  V30 2412 C 231.415 3.07965 3.14397 0
M  V30 2413 H 228.534 0.607968 0.416587 0
M  V30 2414 H 231.176 1.84965 0.434511 0
M  V30 2415 H 229.326 2.74619 2.74803 0
M  V30 2416 H 230.998 4.53451 0.847329 0
M  V30 2417 H 229.241 4.27639 0.72849 0
M  V30 2418 H 229.912 5.08483 2.14823 0
M  V30 2419 H 232.388 3.22043 2.63491 0
M  V30 2420 H 231.264 3.95308 3.80819 0
M  V30 2421 H 231.525 2.21611 3.82545 0
M  V30 2422 N 230.584 -0.659388 1.43143 0
M  V30 2423 C 232 -0.974337 1.26407 0
M  V30 2424 C 232.2 -2.007 0.179341 0
M  V30 2425 O 231.256 -2.4856 -0.444295 0
M  V30 2426 C 232.569 -1.46447 2.62628 0
M  V30 2427 C 234.117 -1.58144 2.7011 0
M  V30 2428 C 234.592 -2.1055 4.06734 0
M  V30 2429 N 236.083 -2.17861 4.08767 0
M  V30 2430 C 236.818 -2.59519 5.1131 0
M  V30 2431 N 236.314 -3.00518 6.24228 0
M  V30 2432 N 238.107 -2.59404 4.98664 0
M  V30 2433 H 230.258 0.0240528 2.12386 0
M  V30 2434 H 232.521 -0.0518065 0.946583 0
M  V30 2435 H 232.227 -0.780123 3.42939 0
M  V30 2436 H 232.101 -2.44058 2.87603 0
M  V30 2437 H 234.488 -2.25682 1.90136 0
M  V30 2438 H 234.569 -0.589828 2.48907 0
M  V30 2439 H 234.213 -1.43616 4.87172 0
M  V30 2440 H 234.143 -3.10531 4.25298 0
M  V30 2441 H 236.634 -1.88975 3.27257 0
M  V30 2442 H 236.947 -3.31036 6.98309 0
M  V30 2443 H 235.292 -2.98337 6.2771 0
M  V30 2444 H 238.483 -2.26747 4.09516 0
M  V30 2445 H 238.656 -2.91548 5.78709 0
M  V30 2446 N 232.062 -1.29571 -0.897171 0
M  V30 2447 C 233.025 -1.14913 -1.98312 0
M  V30 2448 C 234.025 -0.0838629 -1.60581 0
M  V30 2449 O 235.215 -0.331006 -1.71026 0
M  V30 2450 C 232.347 -0.757835 -3.3237 0
M  V30 2451 H 233.54 -2.11377 -2.12743 0
M  V30 2452 H 231.093 -1.12793 -1.08201 0
M  V30 2453 H 231.828 0.206837 -3.2364 0
M  V30 2454 H 231.613 -1.52755 -3.61121 0
M  V30 2455 H 233.103 -0.678408 -4.12053 0
M  V30 2456 N 233.54 1.10788 -1.12088 0
M  V30 2457 C 234.765 1.87002 -0.896949 0
M  V30 2458 C 235.19 1.79933 0.548261 0
M  V30 2459 O 234.548 1.16662 1.38779 0
M  V30 2460 C 234.596 3.3349 -1.37174 0
M  V30 2461 O 233.7 4.08745 -0.547831 0
M  V30 2462 H 233.041 0.580397 -0.322545 0
M  V30 2463 H 235.571 1.39996 -1.49206 0
M  V30 2464 H 235.581 3.84339 -1.36922 0
M  V30 2465 H 234.256 3.37951 -2.42408 0
M  V30 2466 H 232.833 3.6776 -0.617034 0
M  V30 2467 N 235.018 0.912232 1.28515 0
M  V30 2468 C 236.264 0.545405 1.95328 0
M  V30 2469 C 236.597 -0.908313 1.71649 0
M  V30 2470 O 235.872 -1.64575 1.03659 0
M  V30 2471 C 236.155 0.853483 3.4984 0
M  V30 2472 C 236.008 2.35982 3.82926 0
M  V30 2473 C 237.327 0.348589 4.38717 0
M  V30 2474 H 234.446 0.199626 0.709449 0
M  V30 2475 H 237.088 1.1412 1.5191 0
M  V30 2476 H 235.238 0.34643 3.86952 0
M  V30 2477 H 236.91 2.93738 3.55691 0
M  V30 2478 H 235.153 2.81543 3.30024 0
M  V30 2479 H 235.824 2.52593 4.90816 0
M  V30 2480 H 238.3 0.78294 4.08668 0
M  V30 2481 H 237.176 0.593242 5.45685 0
M  V30 2482 H 237.437 -0.751049 4.35674 0
M  V30 2483 N 236.496 -1.42363 0.676048 0
M  V30 2484 C 237.724 -2.05859 0.207268 0
M  V30 2485 C 238.139 -1.50796 -1.13605 0
M  V30 2486 O 237.496 -0.648265 -1.70598 0
M  V30 2487 C 237.547 -3.61248 0.134975 0
M  V30 2488 O 237.268 -4.1427 1.42521 0
M  V30 2489 C 238.769 -4.41859 -0.357151 0
M  V30 2490 H 235.989 -0.663431 0.100503 0
M  V30 2491 H 238.533 -1.82479 0.923136 0
M  V30 2492 H 236.688 -3.83735 -0.531588 0
M  V30 2493 H 237.102 -5.0815 1.29939 0
M  V30 2494 H 238.576 -5.50847 -0.356641 0
M  V30 2495 H 239.053 -4.16536 -1.39264 0
M  V30 2496 H 239.659 -4.24392 0.27772 0
M  V30 2497 N 237.974 -0.419461 -1.51915 0
M  V30 2498 C 239.204 0.151915 -2.06041 0
M  V30 2499 C 239.612 1.38539 -1.28855 0
M  V30 2500 O 238.955 1.80592 -0.336463 0
M  V30 2501 C 239.017 0.557119 -3.55157 0
M  V30 2502 C 238.681 -0.567054 -4.53468 0
M  V30 2503 C 239.678 -1.43379 -4.99738 0
M  V30 2504 C 237.363 -0.742693 -4.96779 0
M  V30 2505 C 239.357 -2.46102 -5.87973 0
M  V30 2506 C 237.044 -1.77322 -5.84808 0
M  V30 2507 C 238.042 -2.63078 -6.30301 0
M  V30 2508 O 237.73 -3.64364 -7.16585 0
M  V30 2509 H 237.462 0.0193293 -0.675724 0
M  V30 2510 H 240.016 -0.592073 -1.96682 0
M  V30 2511 H 238.246 1.35355 -3.62238 0
M  V30 2512 H 239.935 1.05759 -3.9188 0
M  V30 2513 H 240.701 -1.30954 -4.66986 0
M  V30 2514 H 236.58 -0.0848307 -4.60922 0
M  V30 2515 H 240.124 -3.13071 -6.23404 0
M  V30 2516 H 236.021 -1.89773 -6.16974 0
M  V30 2517 H 236.789 -3.60731 -7.34721 0
M  V30 2518 N 239.452 1.56882 -0.150215 0
M  V30 2519 C 240.4 2.18214 0.805313 0
M  V30 2520 C 241.394 1.14006 1.25296 0
M  V30 2521 O 242.6 1.3225 1.22107 0
M  V30 2522 H 238.975 0.698762 0.277913 0
M  V30 2523 H 240.946 2.97231 0.263862 0
M  V30 2524 C 239.695 2.82065 2.03309 0
M  V30 2525 H 239.018 3.61968 1.69763 0
M  V30 2526 H 240.458 3.28477 2.68103 0
M  V30 2527 C 238.917 1.80739 2.84315 0
M  V30 2528 O 239.447 1.27983 3.80767 0
M  V30 2529 N 237.653 1.4997 2.48913 0
M  V30 2530 H 237.2 1.93062 1.70542 0
M  V30 2531 H 237.158 0.824217 3.03404 0
M  V30 2532 N 240.93 -0.123565 1.57115 0
M  V30 2533 C 241.88 -1.1575 1.96433 0
M  V30 2534 C 242.864 -1.37313 0.838686 0
M  V30 2535 O 244.056 -1.38482 1.10235 0
M  V30 2536 C 241.185 -2.48526 2.36833 0
M  V30 2537 C 240.271 -2.30457 3.5602 0
M  V30 2538 N 240.662 -1.8219 4.71848 0
M  V30 2539 C 238.96 -2.61129 3.61563 0
M  V30 2540 C 239.661 -1.77721 5.53886 0
M  V30 2541 N 238.637 -2.21899 4.96248 0
M  V30 2542 H 242.439 -0.776797 2.83449 0
M  V30 2543 H 239.953 -0.331364 1.58983 0
M  V30 2544 H 241.95 -3.233 2.63216 0
M  V30 2545 H 240.61 -2.87358 1.5118 0
M  V30 2546 H 241.621 -1.51805 4.95152 0
M  V30 2547 H 238.298 -3.03678 2.86507 0
M  V30 2548 H 239.688 -1.41697 6.56789 0
M  V30 2549 N 242.408 -1.52605 -0.393616 0
M  V30 2550 C 243.657 -1.66649 -1.13627 0
M  V30 2551 C 243.97 -0.410364 -1.91247 0
M  V30 2552 O 245.176 -0.430854 -2.68059 0
M  V30 2553 C 243.632 -2.9449 -2.06891 0
M  V30 2554 C 243.24 -4.27266 -1.34714 0
M  V30 2555 C 244.984 -3.17899 -2.81319 0
M  V30 2556 C 242.891 -5.46217 -2.26717 0
M  V30 2557 H 241.821 -0.62084 -0.427871 0
M  V30 2558 H 244.472 -1.791 -0.399428 0
M  V30 2559 H 242.854 -2.75774 -2.84191 0
M  V30 2560 H 244.028 -4.56518 -0.626714 0
M  V30 2561 H 242.343 -4.10081 -0.722643 0
M  V30 2562 H 244.94 -4.03949 -3.50328 0
M  V30 2563 H 245.283 -2.32777 -3.45139 0
M  V30 2564 H 245.816 -3.37159 -2.11113 0
M  V30 2565 H 242.555 -6.33733 -1.67521 0
M  V30 2566 H 242.075 -5.21283 -2.96689 0
M  V30 2567 H 243.754 -5.7991 -2.86903 0
M  V30 2568 N 243.887 0.651787 -1.4349 0
M  V30 2569 C 245.133 1.41376 -1.45398 0
M  V30 2570 C 245.466 1.94041 -0.0784823 0
M  V30 2571 O 244.741 1.72379 0.900878 0
M  V30 2572 C 245.024 2.59414 -2.49752 0
M  V30 2573 C 244.877 2.12232 -3.96582 0
M  V30 2574 C 246.196 3.61626 -2.50827 0
M  V30 2575 H 243.315 0.512719 -0.529422 0
M  V30 2576 H 245.957 0.738796 -1.75048 0
M  V30 2577 H 244.107 3.16997 -2.246 0
M  V30 2578 H 245.779 1.59639 -4.32797 0
M  V30 2579 H 244.022 1.43592 -4.09346 0
M  V30 2580 H 244.693 2.9712 -4.65214 0
M  V30 2581 H 247.169 3.13805 -2.7325 0
M  V30 2582 H 246.045 4.41766 -3.25783 0
M  V30 2583 H 246.306 4.14314 -1.5426 0
M  V30 2584 N 245.365 1.30045 0.890287 0
M  V30 2585 C 246.275 1.17885 2.02831 0
M  V30 2586 C 247.291 0.0999609 1.73713 0
M  V30 2587 O 248.467 0.313867 1.98939 0
M  V30 2588 C 245.532 0.866079 3.35708 0
M  V30 2589 C 244.593 2.02979 3.78283 0
M  V30 2590 C 243.826 1.73184 5.0482 0
M  V30 2591 O 244.049 0.657237 5.66601 0
M  V30 2592 O 242.983 2.58267 5.43674 0
M  V30 2593 H 246.809 2.13474 2.16015 0
M  V30 2594 H 244.394 1.09587 1.01543 0
M  V30 2595 H 246.276 0.706623 4.15433 0
M  V30 2596 H 244.951 -0.0599443 3.23644 0
M  V30 2597 H 243.858 2.24454 2.99285 0
M  V30 2598 H 245.191 2.93734 3.94944 0
M  V30 2599 N 246.843 -1.10192 1.12674 0
M  V30 2600 C 248.091 -1.81845 0.881861 0
M  V30 2601 C 248.412 -1.85737 -0.593867 0
M  V30 2602 O 247.682 -1.33724 -1.4316 0
M  V30 2603 H 246.262 -0.673432 0.323261 0
M  V30 2604 H 248.924 -1.33316 1.42172 0
M  V30 2605 H 248.02 -2.85288 1.2656 0
M  V30 2606 N 248.321 -0.919034 -1.28029 0
M  V30 2607 C 249.254 -0.355887 -2.25408 0
M  V30 2608 C 250.232 0.542874 -1.5327 0
M  V30 2609 O 251.416 0.485338 -1.82145 0
M  V30 2610 C 248.543 0.490759 -3.35126 0
M  V30 2611 C 247.589 -0.343358 -4.25116 0
M  V30 2612 S 248.422 -1.75344 -5.05979 0
M  V30 2613 C 249.578 -0.914244 -6.19187 0
M  V30 2614 H 249.811 -1.18123 -2.72826 0
M  V30 2615 H 247.344 -0.720636 -1.36551 0
M  V30 2616 H 249.302 0.973404 -3.98792 0
M  V30 2617 H 247.963 1.29054 -2.86363 0
M  V30 2618 H 247.156 0.304266 -5.03081 0
M  V30 2619 H 246.758 -0.759851 -3.662 0
M  V30 2620 H 249.05 -0.146282 -6.77342 0
M  V30 2621 H 249.993 -1.66661 -6.88208 0
M  V30 2622 H 250.401 -0.460082 -5.62622 0
M  V30 2623 N 249.799 1.42003 -0.683588 0
M  V30 2624 C 250.729 2.33487 -0.024866 0
M  V30 2625 C 251.71 1.51163 0.779975 0
M  V30 2626 O 252.895 1.79739 0.735362 0
M  V30 2627 C 250.025 3.3487 0.920836 0
M  V30 2628 C 248.979 4.27414 0.223958 0
M  V30 2629 C 248.305 5.19074 1.2832 0
M  V30 2630 C 249.605 5.14445 -0.90242 0
M  V30 2631 H 251.299 2.88819 -0.788921 0
M  V30 2632 H 248.845 1.38873 -0.38083 0
M  V30 2633 H 250.798 3.97787 1.39081 0
M  V30 2634 H 249.522 2.77861 1.71642 0
M  V30 2635 H 248.181 3.65904 -0.225864 0
M  V30 2636 H 247.829 4.58387 2.071 0
M  V30 2637 H 247.529 5.81822 0.821995 0
M  V30 2638 H 249.053 5.84867 1.75392 0
M  V30 2639 H 250.467 5.70998 -0.513272 0
M  V30 2640 H 248.864 5.86072 -1.28997 0
M  V30 2641 H 249.934 4.52322 -1.74737 0
M  V30 2642 N 251.277 0.427512 1.51691 0
M  V30 2643 C 252.24 -0.377132 2.26076 0
M  V30 2644 C 253.24 -0.958089 1.29141 0
M  V30 2645 O 254.43 -0.83408 1.52934 0
M  V30 2646 C 251.562 -1.53262 3.04506 0
M  V30 2647 H 252.755 0.27464 2.9864 0
M  V30 2648 H 250.308 0.180445 1.55255 0
M  V30 2649 H 251.043 -2.22072 2.36335 0
M  V30 2650 H 250.828 -1.12232 3.75694 0
M  V30 2651 H 252.318 -2.10135 3.60878 0
M  V30 2652 N 252.755 -1.56801 0.158532 0
M  V30 2653 C 253.685 -2.20347 -0.772609 0
M  V30 2654 C 254.666 -1.15518 -1.24859 0
M  V30 2655 O 255.851 -1.43902 -1.30406 0
M  V30 2656 C 252.981 -2.83417 -2.00729 0
M  V30 2657 C 251.935 -3.94174 -1.66765 0
M  V30 2658 C 251.261 -4.44233 -2.97592 0
M  V30 2659 C 252.561 -5.14392 -0.905447 0
M  V30 2660 H 254.255 -2.98413 -0.242959 0
M  V30 2661 H 251.801 -1.43537 -0.115419 0
M  V30 2662 H 253.754 -3.26543 -2.6636 0
M  V30 2663 H 252.478 -2.02701 -2.56086 0
M  V30 2664 H 251.137 -3.51684 -1.03508 0
M  V30 2665 H 250.785 -3.60325 -3.50963 0
M  V30 2666 H 250.485 -5.18945 -2.75626 0
M  V30 2667 H 252.009 -4.90037 -3.64274 0
M  V30 2668 H 253.423 -5.5429 -1.46408 0
M  V30 2669 H 251.82 -5.9494 -0.7853 0
M  V30 2670 H 252.89 -4.84795 0.100668 0
M  V30 2671 N 254.233 0.115231 -1.57178 0
M  V30 2672 C 255.461 0.836437 -1.89239 0
M  V30 2673 C 255.876 1.73256 -0.750175 0
M  V30 2674 O 255.233 1.80357 0.278832 0
M  V30 2675 C 255.284 1.66671 -3.20785 0
M  V30 2676 O 255.005 0.806652 -4.3061 0
M  V30 2677 C 256.506 2.49274 -3.66575 0
M  V30 2678 H 253.726 0.240253 -0.626514 0
M  V30 2679 H 256.27 0.0984932 -2.04263 0
M  V30 2680 H 254.425 2.35737 -3.0742 0
M  V30 2681 H 254.839 1.37969 -5.06028 0
M  V30 2682 H 256.313 3.03055 -4.6137 0
M  V30 2683 H 256.79 3.26807 -2.93417 0
M  V30 2684 H 257.396 1.85443 -3.82741 0
M  V30 2685 N 255.711 1.52812 0.385517 0
M  V30 2686 C 256.959 1.67694 1.12797 0
M  V30 2687 C 257.28 0.421115 1.90399 0
M  V30 2688 O 256.55 -0.564551 1.87589 0
M  V30 2689 H 255.13 0.618155 0.419396 0
M  V30 2690 H 257.792 1.89938 0.436972 0
M  V30 2691 H 256.888 2.52896 1.82894 0
M  V30 2692 N 257.189 -0.644168 1.43834 0
M  V30 2693 C 258.419 -1.42939 1.49171 0
M  V30 2694 C 258.827 -1.88874 0.111048 0
M  V30 2695 O 258.17 -1.60656 -0.8908 0
M  V30 2696 C 258.232 -2.69151 2.38324 0
M  V30 2697 C 257.896 -2.45097 3.85715 0
M  V30 2698 C 258.893 -2.07747 4.76589 0
M  V30 2699 C 256.578 -2.59141 4.30292 0
M  V30 2700 C 258.572 -1.8475 6.10038 0
M  V30 2701 C 256.259 -2.35759 5.63792 0
M  V30 2702 C 257.257 -1.9862 6.53482 0
M  V30 2703 O 256.945 -1.75489 7.84512 0
M  V30 2704 H 256.677 -0.445271 0.508635 0
M  V30 2705 H 259.231 -0.79621 1.8934 0
M  V30 2706 H 257.461 -3.3506 1.93058 0
M  V30 2707 H 259.15 -3.31123 2.3476 0
M  V30 2708 H 259.916 -1.96465 4.43426 0
M  V30 2709 H 255.795 -2.87022 3.60749 0
M  V30 2710 H 259.339 -1.55686 6.80006 0
M  V30 2711 H 255.236 -2.46646 5.9652 0
M  V30 2712 H 256.004 -1.89841 7.9618 0
M  V30 2713 N 258.668 -1.30515 -0.883378 0
M  V30 2714 C 259.898 -1.22182 -1.66599 0
M  V30 2715 C 260.306 0.217507 -1.87946 0
M  V30 2716 O 259.649 1.1554 -1.42815 0
M  V30 2717 C 259.711 -1.88146 -3.06335 0
M  V30 2718 C 259.375 -3.37476 -3.08154 0
M  V30 2719 C 260.372 -4.33443 -2.87094 0
M  V30 2720 C 258.057 -3.7895 -3.29701 0
M  V30 2721 C 260.051 -5.68858 -2.8754 0
M  V30 2722 C 257.738 -5.14482 -3.29776 0
M  V30 2723 C 258.736 -6.09246 -3.0872 0
M  V30 2724 O 258.424 -7.42302 -3.08615 0
M  V30 2725 H 258.156 -0.423898 -0.52658 0
M  V30 2726 H 260.71 -1.72703 -1.11188 0
M  V30 2727 H 258.94 -1.32157 -3.63416 0
M  V30 2728 H 260.629 -1.7391 -3.66756 0
M  V30 2729 H 261.395 -4.02733 -2.70243 0
M  V30 2730 H 257.274 -3.05631 -3.45124 0
M  V30 2731 H 260.818 -6.428 -2.71024 0
M  V30 2732 H 256.715 -5.44832 -3.46163 0
M  V30 2733 H 257.483 -7.5131 -3.24769 0
M  V30 2734 N 260.146 1.09593 -1.13257 0
M  V30 2735 C 261.109 2.14359 -0.811358 0
M  V30 2736 C 262.109 1.59808 0.178377 0
M  V30 2737 O 263.299 1.74132 -0.0484911 0
M  V30 2738 C 260.431 3.40269 -0.207276 0
M  V30 2739 H 261.624 2.44284 -1.73969 0
M  V30 2740 H 259.177 1.25102 -0.936973 0
M  V30 2741 H 259.912 3.15969 0.73036 0
M  V30 2742 H 259.697 3.81154 -0.919992 0
M  V30 2743 H 261.187 4.176 0.000667944 0
M  V30 2744 N 261.624 0.925811 1.2754 0
M  V30 2745 C 262.87 0.575575 1.95086 0
M  V30 2746 C 263.225 -0.873246 1.71441 0
M  V30 2747 O 262.518 -1.61443 1.03183 0
M  V30 2748 C 262.712 0.835296 3.47502 0
M  V30 2749 C 262.541 2.30781 3.85967 0
M  V30 2750 C 261.311 2.96017 4.09514 0
M  V30 2751 C 263.509 3.28519 3.95702 0
M  V30 2752 N 261.491 4.3344 4.34744 0
M  V30 2753 C 262.862 4.51146 4.25285 0
M  V30 2754 C 264.917 3.23753 3.7827 0
M  V30 2755 C 263.62 5.69606 4.39251 0
M  V30 2756 C 265.646 4.41523 3.9346 0
M  V30 2757 C 265.008 5.62928 4.23428 0
M  V30 2758 H 261.107 0.260711 0.737261 0
M  V30 2759 H 263.691 1.19204 1.53943 0
M  V30 2760 H 261.862 0.248005 3.87607 0
M  V30 2761 H 263.594 0.447878 4.02214 0
M  V30 2762 H 260.349 2.46695 4.04275 0
M  V30 2763 H 260.773 5.04528 4.5142 0
M  V30 2764 H 265.415 2.3096 3.54143 0
M  V30 2765 H 263.133 6.62866 4.62205 0
M  V30 2766 H 266.719 4.39351 3.81394 0
M  V30 2767 H 265.599 6.52538 4.34929 0
M  V30 2768 N 263.102 -1.41638 0.69111 0
M  V30 2769 C 264.052 -2.28 -0.000107832 0
M  V30 2770 C 265.036 -1.41964 -0.757304 0
M  V30 2771 O 266.228 -1.65274 -0.633532 0
M  V30 2772 C 263.357 -3.30209 -0.938983 0
M  V30 2773 C 262.443 -4.23725 -0.17827 0
M  V30 2774 N 262.834 -4.99017 0.825563 0
M  V30 2775 C 261.132 -4.44071 -0.414392 0
M  V30 2776 C 261.833 -5.67431 1.28052 0
M  V30 2777 N 260.809 -5.40197 0.607304 0
M  V30 2778 H 264.611 -2.83644 0.769617 0
M  V30 2779 H 262.125 -1.53797 0.521562 0
M  V30 2780 H 264.122 -3.90898 -1.44929 0
M  V30 2781 H 262.782 -2.76126 -1.70836 0
M  V30 2782 H 263.793 -5.03671 1.20566 0
M  V30 2783 H 260.47 -4.01004 -1.162 0
M  V30 2784 H 261.86 -6.37801 2.11327 0
M  V30 2785 N 264.58 -0.43555 -1.51462 0
M  V30 2786 C 265.527 0.376797 -2.27703 0
M  V30 2787 C 266.497 1.01838 -1.31219 0
M  V30 2788 O 267.682 1.03762 -1.60119 0
M  V30 2789 C 264.822 1.47301 -3.12084 0
M  V30 2790 C 263.935 0.849744 -4.2356 0
M  V30 2791 C 263.07 1.92086 -4.95254 0
M  V30 2792 C 262.109 1.27593 -5.98654 0
M  V30 2793 N 261.246 2.28833 -6.63762 0
M  V30 2794 H 266.086 -0.279734 -2.96684 0
M  V30 2795 H 263.623 -0.149795 -1.46335 0
M  V30 2796 H 265.581 2.11984 -3.59331 0
M  V30 2797 H 264.211 2.0992 -2.45221 0
M  V30 2798 H 263.263 0.0912529 -3.80291 0
M  V30 2799 H 264.575 0.338878 -4.97648 0
M  V30 2800 H 263.729 2.64435 -5.46039 0
M  V30 2801 H 262.468 2.46545 -4.20793 0
M  V30 2802 H 261.473 0.537893 -5.47162 0
M  V30 2803 H 262.698 0.738693 -6.7507 0
M  V30 2804 H 260.644 2.82375 -5.92115 0
M  V30 2805 H 260.561 1.82632 -7.33608 0
M  V30 2806 H 261.829 3.00671 -7.19178 0
M  V30 2807 N 266.058 1.56714 -0.166846 0
M  V30 2808 C 267.307 1.95922 0.479318 0
M  V30 2809 C 267.62 1.05529 1.6469 0
M  V30 2810 O 268.826 1.34399 2.35901 0
M  V30 2811 C 267.282 3.48359 0.90412 0
M  V30 2812 C 266.89 4.47369 -0.237621 0
M  V30 2813 C 268.634 3.96394 1.51896 0
M  V30 2814 C 266.541 5.91039 0.206561 0
M  V30 2815 H 265.471 0.731495 0.18284 0
M  V30 2816 H 268.122 1.81728 -0.254363 0
M  V30 2817 H 266.504 3.57955 1.69365 0
M  V30 2818 H 267.678 4.49485 -1.01489 0
M  V30 2819 H 265.993 4.09366 -0.762128 0
M  V30 2820 H 268.59 5.01186 1.86325 0
M  V30 2821 H 268.933 3.39075 2.41524 0
M  V30 2822 H 269.466 3.89796 0.79395 0
M  V30 2823 H 266.205 6.52221 -0.654834 0
M  V30 2824 H 265.725 5.9224 0.949282 0
M  V30 2825 H 267.404 6.43707 0.651939 0
M  V30 2826 N 267.536 -0.106894 1.57237 0
M  V30 2827 C 268.776 -0.818277 1.87306 0
M  V30 2828 C 269.14 -1.76474 0.756371 0
M  V30 2829 O 270.341 -2.5186 0.939155 0
M  V30 2830 C 268.612 -1.53806 3.22612 0
M  V30 2831 S 270.171 -2.28935 3.74345 0
M  V30 2832 H 266.989 -0.272862 0.656557 0
M  V30 2833 H 269.591 -0.075988 1.95352 0
M  V30 2834 H 268.295 -0.834951 4.01817 0
M  V30 2835 H 267.826 -2.32049 3.17674 0
M  V30 2836 H 269.841 -3.54871 3.46815 0
M  V30 2837 N 269.014 -1.53014 -0.377408 0
M  V30 2838 C 270.26 -1.68872 -1.12294 0
M  V30 2839 C 270.593 -0.433224 -1.89306 0
M  V30 2840 O 269.868 0.569258 -1.85983 0
M  V30 2841 C 270.151 -2.93115 -2.09179 0
M  V30 2842 C 270.004 -4.28794 -1.35853 0
M  V30 2843 C 271.323 -3.12928 -3.09458 0
M  V30 2844 H 268.442 -0.614518 -0.406862 0
M  V30 2845 H 271.084 -1.85633 -0.40503 0
M  V30 2846 H 269.234 -2.78956 -2.70399 0
M  V30 2847 H 270.906 -4.54742 -0.775082 0
M  V30 2848 H 269.149 -4.28744 -0.660364 0
M  V30 2849 H 269.82 -5.11837 -2.06706 0
M  V30 2850 H 272.296 -3.26194 -2.58334 0
M  V30 2851 H 271.172 -4.01316 -3.74482 0
M  V30 2852 H 271.433 -2.27669 -3.78971 0
M  V30 2853 N 270.492 0.636531 -1.44174 0
M  V30 2854 C 271.402 1.77754 -1.53103 0
M  V30 2855 C 272.418 1.68928 -0.417034 0
M  V30 2856 O 273.594 1.89801 -0.6736 0
M  V30 2857 C 270.659 3.14115 -1.46741 0
M  V30 2858 C 269.72 3.34612 -2.68948 0
M  V30 2859 C 268.953 4.64467 -2.6288 0
M  V30 2860 O 269.176 5.44919 -1.68581 0
M  V30 2861 O 268.11 4.87049 -3.53648 0
M  V30 2862 H 271.936 1.73174 -2.49489 0
M  V30 2863 H 269.521 0.79709 -1.2636 0
M  V30 2864 H 271.403 3.95412 -1.45696 0
M  V30 2865 H 270.078 3.19249 -0.534975 0
M  V30 2866 H 268.985 2.53014 -2.75562 0
M  V30 2867 H 270.318 3.34336 -3.61221 0
M  V30 2868 N 271.97 1.30982 0.876444 0
M  V30 2869 C 273.386 1.09498 1.16113 0
M  V30 2870 C 273.586 -0.13875 2.01022 0
M  V30 2871 O 272.642 -0.829935 2.38471 0
M  V30 2872 C 273.955 2.36308 1.85954 0
M  V30 2873 C 275.503 2.41856 1.98683 0
M  V30 2874 C 275.978 3.6853 2.71937 0
M  V30 2875 N 277.469 3.69387 2.79477 0
M  V30 2876 C 278.204 4.64096 3.36753 0
M  V30 2877 N 277.7 5.69155 3.95012 0
M  V30 2878 N 279.493 4.51626 3.3465 0
M  V30 2879 H 271.644 2.10118 0.310494 0
M  V30 2880 H 273.907 0.926634 0.200131 0
M  V30 2881 H 273.613 3.26388 1.31011 0
M  V30 2882 H 273.487 2.4561 2.86278 0
M  V30 2883 H 275.874 1.52249 2.52793 0
M  V30 2884 H 275.955 2.36523 0.9742 0
M  V30 2885 H 275.599 4.58499 2.18496 0
M  V30 2886 H 275.529 3.71127 3.73593 0
M  V30 2887 H 278.02 2.93438 2.38123 0
M  V30 2888 H 278.333 6.3751 4.36808 0
M  V30 2889 H 276.678 5.72937 3.93406 0
M  V30 2890 H 279.869 3.68728 2.8837 0
M  V30 2891 H 280.042 5.25614 3.7899 0
M  V30 2892 N 273.449 -1.08991 1.13837 0
M  V30 2893 C 274.412 -2.13925 0.822715 0
M  V30 2894 C 275.412 -1.599 -0.1699 0
M  V30 2895 O 276.602 -1.74104 0.0577251 0
M  V30 2896 C 273.734 -3.40155 0.225318 0
M  V30 2897 H 274.927 -2.43358 1.75262 0
M  V30 2898 H 272.48 -1.24603 0.943594 0
M  V30 2899 H 273.215 -3.16352 -0.713594 0
M  V30 2900 H 273 -3.80661 0.940193 0
M  V30 2901 H 274.49 -4.17594 0.0214784 0
M  V30 2902 N 274.927 -0.932562 -1.27047 0
M  V30 2903 C 276.176 -0.571351 -1.93439 0
M  V30 2904 C 276.489 0.892467 -1.74053 0
M  V30 2905 O 277.695 1.36267 -2.34826 0
M  V30 2906 C 276.151 -0.97106 -3.46552 0
M  V30 2907 C 275.759 -2.4559 -3.74686 0
M  V30 2908 C 277.503 -0.681333 -4.18997 0
M  V30 2909 C 275.41 -2.79475 -5.21198 0
M  V30 2910 H 274.34 -0.209966 -0.724176 0
M  V30 2911 H 276.991 -1.13403 -1.44263 0
M  V30 2912 H 275.373 -0.336983 -3.94564 0
M  V30 2913 H 276.547 -3.13829 -3.37414 0
M  V30 2914 H 274.862 -2.71802 -3.15456 0
M  V30 2915 H 277.459 -0.910939 -5.26883 0
M  V30 2916 H 277.802 0.381628 -4.14547 0
M  V30 2917 H 278.335 -1.27473 -3.76823 0
M  V30 2918 H 275.074 -3.847 -5.30741 0
M  V30 2919 H 274.594 -2.1589 -5.596 0
M  V30 2920 H 276.273 -2.67478 -5.89122 0
M  V30 2921 N 276.405 1.4127 -0.698611 0
M  V30 2922 C 277.335 2.33447 -0.049629 0
M  V30 2923 C 278.316 1.51982 0.763898 0
M  V30 2924 O 279.501 1.80509 0.716257 0
M  V30 2925 C 276.631 3.35828 0.885267 0
M  V30 2926 C 275.585 4.27627 0.178613 0
M  V30 2927 C 274.911 5.20406 1.22807 0
M  V30 2928 C 276.211 5.13459 -0.956933 0
M  V30 2929 H 277.905 2.87966 -0.81951 0
M  V30 2930 H 275.451 1.38461 -0.395538 0
M  V30 2931 H 277.404 3.9924 1.34854 0
M  V30 2932 H 276.128 2.79666 1.68685 0
M  V30 2933 H 274.787 3.65643 -0.26466 0
M  V30 2934 H 274.435 4.60558 2.02226 0
M  V30 2935 H 274.135 5.82661 0.760239 0
M  V30 2936 H 275.659 5.86695 1.69179 0
M  V30 2937 H 277.073 5.70421 -0.573805 0
M  V30 2938 H 275.47 5.8467 -1.35205 0
M  V30 2939 H 276.54 4.50443 -1.79524 0
M  V30 2940 N 277.883 0.443576 1.51229 0
M  V30 2941 C 279.294 -0.0180867 1.86691 0
M  V30 2942 C 279.645 -1.41384 1.36033 0
M  V30 2943 O 278.77 -2.04291 0.713722 0
M  V30 2944 C 279.365 -0.039597 3.38777 0
M  V30 2945 C 277.924 -0.445692 3.73752 0
M  V30 2946 C 277.071 0.357584 2.74985 0
M  V30 2947 H 280.022 0.659138 1.44364 0
M  V30 2948 H 280.043 -0.847761 3.70936 0
M  V30 2949 H 279.555 0.976382 3.75617 0
M  V30 2950 H 277.656 -1.46704 3.42503 0
M  V30 2951 H 277.769 -0.166155 4.78812 0
M  V30 2952 H 276.133 -0.184973 2.54027 0
M  V30 2953 H 276.916 1.37256 3.14668 0
M  V30 2954 N 279.361 -1.56624 0.175154 0
M  V30 2955 C 280.609 -1.96609 -0.467885 0
M  V30 2956 C 280.93 -1.06238 -1.63519 0
M  V30 2957 O 280.2 -0.129523 -1.95471 0
M  V30 2958 H 278.78 -0.726008 -0.175845 0
M  V30 2959 H 281.442 -1.93195 0.257234 0
M  V30 2960 H 280.538 -3.00989 -0.825342 0
M  V30 2961 N 280.839 0.0985539 -1.57292 0
M  V30 2962 C 281.772 1.15082 -1.97057 0
M  V30 2963 C 282.75 1.39025 -0.843255 0
M  V30 2964 O 283.934 1.52842 -1.10325 0
M  V30 2965 C 281.061 2.50069 -2.28437 0
M  V30 2966 C 280.107 2.42428 -3.509 0
M  V30 2967 S 280.94 1.84414 -5.02744 0
M  V30 2968 C 282.096 3.21032 -5.37298 0
M  V30 2969 H 282.329 0.811815 -2.86002 0
M  V30 2970 H 279.862 0.306102 -1.51335 0
M  V30 2971 H 281.82 3.27729 -2.47192 0
M  V30 2972 H 280.481 2.8114 -1.40069 0
M  V30 2973 H 279.674 3.41911 -3.70288 0
M  V30 2974 H 279.276 1.72896 -3.31637 0
M  V30 2975 H 281.568 4.17297 -5.33731 0
M  V30 2976 H 282.511 3.06452 -6.38352 0
M  V30 2977 H 282.919 3.20404 -4.64759 0
M  V30 2978 N 282.317 1.53212 0.369288 0
M  V30 2979 C 283.249 1.75668 1.47219 0
M  V30 2980 C 284.262 0.637387 1.49804 0
M  V30 2981 O 285.451 0.913561 1.5335 0
M  V30 2982 C 282.551 1.81818 2.85999 0
M  V30 2983 C 281.724 3.11409 3.07153 0
M  V30 2984 C 280.783 3.08849 4.26026 0
M  V30 2985 O 279.809 3.82659 4.2138 0
M  V30 2986 N 281.011 2.29409 5.33246 0
M  V30 2987 H 283.776 2.70832 1.28337 0
M  V30 2988 H 281.337 1.51944 0.55898 0
M  V30 2989 H 283.329 1.77588 3.63655 0
M  V30 2990 H 281.899 0.939544 2.98146 0
M  V30 2991 H 281.119 3.28971 2.1719 0
M  V30 2992 H 282.407 3.97059 3.18154 0
M  V30 2993 H 281.805 1.68946 5.39883 0
M  V30 2994 H 280.362 2.31001 6.09493 0
M  V30 2995 N 283.795 -0.628877 1.44509 0
M  V30 2996 C 284.705 -1.7694 1.54044 0
M  V30 2997 C 285.721 -1.68705 0.425987 0
M  V30 2998 O 286.897 -1.89442 0.683656 0
M  V30 2999 C 283.962 -3.13332 1.48405 0
M  V30 3000 C 283.023 -3.33181 2.70719 0
M  V30 3001 C 282.256 -4.63067 2.6534 0
M  V30 3002 O 282.479 -5.44017 1.71469 0
M  V30 3003 O 281.413 -4.85167 3.56226 0
M  V30 3004 H 285.239 -1.71848 2.50403 0
M  V30 3005 H 282.824 -0.790378 1.26781 0
M  V30 3006 H 284.706 -3.94634 1.47791 0
M  V30 3007 H 283.381 -3.1896 0.551898 0
M  V30 3008 H 282.288 -2.51549 2.769 0
M  V30 3009 H 283.621 -3.32416 3.62988 0
M  V30 3010 N 285.273 -1.31445 -0.869486 0
M  V30 3011 C 286.203 -1.21727 -1.99261 0
M  V30 3012 C 287.184 -0.104359 -1.6978 0
M  V30 3013 O 288.369 -0.289038 -1.92037 0
M  V30 3014 C 285.499 -0.924317 -3.34774 0
M  V30 3015 C 284.453 -1.99685 -3.78563 0
M  V30 3016 C 283.779 -1.55658 -5.11541 0
M  V30 3017 C 285.079 -3.41003 -3.95619 0
M  V30 3018 H 286.773 -2.1569 -2.07649 0
M  V30 3019 H 284.319 -1.03839 -0.997675 0
M  V30 3020 H 286.272 -0.842934 -4.12883 0
M  V30 3021 H 284.996 0.0509793 -3.2656 0
M  V30 3022 H 283.655 -2.06813 -3.02694 0
M  V30 3023 H 283.303 -0.569132 -4.9977 0
M  V30 3024 H 283.003 -2.27409 -5.41811 0
M  V30 3025 H 284.527 -1.48928 -5.92159 0
M  V30 3026 H 285.941 -3.36547 -4.64122 0
M  V30 3027 H 284.338 -4.10975 -4.37286 0
M  V30 3028 H 285.408 -3.81754 -2.98985 0
M  V30 3029 N 286.751 1.08385 -1.14413 0
M  V30 3030 C 287.997 1.81044 -0.913834 0
M  V30 3031 C 288.33 1.86004 0.558209 0
M  V30 3032 O 287.605 1.33606 1.4135 0
M  V30 3033 C 287.888 3.26648 -1.51569 0
M  V30 3034 C 287.741 3.29895 -3.0576 0
M  V30 3035 C 289.06 4.23629 -1.19273 0
M  V30 3036 H 286.179 0.65727 -0.333414 0
M  V30 3037 H 288.821 1.26896 -1.41412 0
M  V30 3038 H 286.971 3.72889 -1.09023 0
M  V30 3039 H 288.643 2.91977 -3.57137 0
M  V30 3040 H 286.886 2.69163 -3.40197 0
M  V30 3041 H 287.557 4.32516 -3.42977 0
M  V30 3042 H 290.033 3.85727 -1.56057 0
M  V30 3043 H 288.909 5.23822 -1.64017 0
M  V30 3044 H 289.17 4.41968 -0.108068 0
M  V30 3045 N 288.23 0.939286 1.26551 0
M  V30 3046 C 289.646 0.641304 1.46149 0
M  V30 3047 C 289.846 -0.805964 1.84679 0
M  V30 3048 O 288.902 -1.58278 1.96734 0
M  V30 3049 C 290.215 1.6011 2.54529 0
M  V30 3050 C 291.763 1.6106 2.68382 0
M  V30 3051 C 292.238 2.55765 3.79932 0
M  V30 3052 N 293.729 2.5404 3.87322 0
M  V30 3053 C 294.464 3.24004 4.73085 0
M  V30 3054 N 293.96 4.03388 5.63249 0
M  V30 3055 N 295.753 3.12965 4.66914 0
M  V30 3056 H 287.904 1.87478 0.998285 0
M  V30 3057 H 290.167 0.805559 0.499779 0
M  V30 3058 H 289.873 2.63412 2.33039 0
M  V30 3059 H 289.747 1.35171 3.52149 0
M  V30 3060 H 292.134 0.584835 2.89247 0
M  V30 3061 H 292.215 1.90053 1.71212 0
M  V30 3062 H 291.859 3.58458 3.5982 0
M  V30 3063 H 291.789 2.24063 4.76554 0
M  V30 3064 H 294.28 1.96396 3.22858 0
M  V30 3065 H 294.593 4.5373 6.25579 0
M  V30 3066 H 292.938 4.07489 5.63008 0
M  V30 3067 H 296.129 2.50432 3.95476 0
M  V30 3068 H 296.302 3.67759 5.33533 0
M  V30 3069 N 289.708 -1.40897 0.706093 0
M  V30 3070 C 291.124 -1.55042 0.37869 0
M  V30 3071 C 291.324 -1.67944 -1.11342 0
M  V30 3072 O 290.38 -1.66372 -1.89938 0
M  V30 3073 C 291.693 -2.78398 1.13643 0
M  V30 3074 C 293.241 -2.92206 1.12181 0
M  V30 3075 C 293.716 -4.18463 1.86152 0
M  V30 3076 N 295.207 -4.25443 1.83173 0
M  V30 3077 C 295.942 -5.2202 2.37239 0
M  V30 3078 N 295.438 -6.24563 2.99821 0
M  V30 3079 N 297.231 -5.14033 2.27435 0
M  V30 3080 H 289.382 -1.30769 1.67372 0
M  V30 3081 H 291.645 -0.631653 0.706907 0
M  V30 3082 H 291.351 -2.7511 2.19106 0
M  V30 3083 H 291.225 -3.70228 0.721853 0
M  V30 3084 H 293.612 -2.95004 0.0754171 0
M  V30 3085 H 293.693 -2.01521 1.57554 0
M  V30 3086 H 293.337 -4.16427 2.90776 0
M  V30 3087 H 293.267 -5.08141 1.38206 0
M  V30 3088 H 295.758 -3.51976 1.37556 0
M  V30 3089 H 296.071 -6.94665 3.38616 0
M  V30 3090 H 294.416 -6.25035 3.03902 0
M  V30 3091 H 297.607 -4.3285 1.78208 0
M  V30 3092 H 297.78 -5.89129 2.69873 0
M  V30 3093 N 291.186 -0.45159 -1.50991 0
M  V30 3094 C 292.435 0.111653 -2.01391 0
M  V30 3095 C 292.748 1.42529 -1.33959 0
M  V30 3096 O 293.954 2.07232 -1.75405 0
M  V30 3097 C 292.41 0.249514 -3.59034 0
M  V30 3098 C 292.018 -1.05453 -4.35412 0
M  V30 3099 C 293.762 0.765762 -4.17536 0
M  V30 3100 C 291.669 -0.881529 -5.84793 0
M  V30 3101 H 290.599 0.0455022 -0.752626 0
M  V30 3102 H 293.25 -0.583524 -1.73975 0
M  V30 3103 H 291.632 1.00803 -3.82955 0
M  V30 3104 H 292.806 -1.82248 -4.23229 0
M  V30 3105 H 291.121 -1.50039 -3.88429 0
M  V30 3106 H 293.718 0.911913 -5.26866 0
M  V30 3107 H 294.061 1.75201 -3.77638 0
M  V30 3108 H 294.594 0.0651744 -3.97747 0
M  V30 3109 H 291.333 -1.84057 -6.29129 0
M  V30 3110 H 290.853 -0.153625 -5.99603 0
M  V30 3111 H 292.532 -0.540363 -6.4474 0
M  V30 3112 N 292.664 1.56529 -0.183458 0
M  V30 3113 C 293.912 1.96855 0.457452 0
M  V30 3114 C 294.233 1.07104 1.62953 0
M  V30 3115 O 293.503 0.139887 1.954 0
M  V30 3116 H 292.083 0.72693 0.171992 0
M  V30 3117 H 294.745 1.93056 -0.267476 0
M  V30 3118 H 293.841 3.01423 0.809368 0
M  V30 3119 N 294.142 -0.090211 1.57342 0
M  V30 3120 C 295.419 -0.824761 1.77361 0
M  V30 3121 C 295.799 -1.96698 0.76637 0
M  V30 3122 O 295.147 -2.27586 -0.204179 0
M  V30 3123 C 295.357 -1.31481 3.23286 0
M  V30 3124 C 296.705 -1.75563 3.86604 0
M  V30 3125 O 297.729 -1.41093 3.27065 0
M  V30 3126 O 296.588 -2.39317 4.91314 0
M  V30 3127 H 293.682 -0.393776 0.727234 0
M  V30 3128 H 296.228 -0.0717138 1.69548 0
M  V30 3129 H 295 -0.496671 3.88135 0
M  V30 3130 H 294.623 -2.12973 3.35751 0
M  V30 3131 N 295.62 -1.53406 -0.361157 0
M  V30 3132 C 296.897 -1.60411 -1.11927 0
M  V30 3133 C 297.277 -0.414385 -2.06993 0
M  V30 3134 O 296.625 0.594976 -2.20618 0
M  V30 3135 C 296.835 -2.95652 -1.85448 0
M  V30 3136 C 298.183 -3.50386 -2.39823 0
M  V30 3137 O 299.207 -2.97711 -1.95568 0
M  V30 3138 O 298.066 -4.42482 -3.20737 0
M  V30 3139 H 295.16 -0.64811 -0.513695 0
M  V30 3140 H 297.706 -1.65749 -0.364065 0
M  V30 3141 H 296.478 -3.73682 -1.16091 0
M  V30 3142 H 296.101 -2.93825 -2.67866 0
M  V30 3143 N 297.098 0.621204 -1.44841 0
M  V30 3144 C 298.008 1.7612 -1.5498 0
M  V30 3145 C 299.024 1.68477 -0.434927 0
M  V30 3146 O 300.2 1.89076 -0.693693 0
M  V30 3147 C 297.265 3.1254 -1.50065 0
M  V30 3148 C 296.326 3.31741 -2.72482 0
M  V30 3149 C 295.559 4.61653 -2.67792 0
M  V30 3150 O 295.782 5.431 -1.74352 0
M  V30 3151 O 294.716 4.83271 -3.58794 0
M  V30 3152 H 298.542 1.70518 -2.51311 0
M  V30 3153 H 296.127 0.783643 -1.27198 0
M  V30 3154 H 298.009 3.93844 -1.49882 0
M  V30 3155 H 296.684 3.18663 -0.568806 0
M  V30 3156 H 295.591 2.50077 -2.7823 0
M  V30 3157 H 296.924 3.30486 -3.64746 0
M  V30 3158 N 298.576 1.31904 0.862503 0
M  V30 3159 C 299.992 1.10724 1.14945 0
M  V30 3160 C 300.192 -0.117421 2.01158 0
M  V30 3161 O 299.248 -0.804595 2.39338 0
M  V30 3162 C 300.561 2.38267 1.83437 0
M  V30 3163 C 302.109 2.43949 1.96106 0
M  V30 3164 C 302.584 3.71394 2.68013 0
M  V30 3165 N 304.075 3.72331 2.75543 0
M  V30 3166 C 304.81 4.67641 3.31812 0
M  V30 3167 N 304.306 5.73313 3.88953 0
M  V30 3168 N 306.099 4.5515 3.29841 0
M  V30 3169 H 298.25 2.10436 0.288191 0
M  V30 3170 H 300.513 0.928705 0.190292 0
M  V30 3171 H 300.219 3.27759 1.27542 0
M  V30 3172 H 300.093 2.48633 2.83657 0
M  V30 3173 H 302.48 1.54922 2.51164 0
M  V30 3174 H 302.561 2.37543 0.949059 0
M  V30 3175 H 302.205 4.60791 2.13621 0
M  V30 3176 H 302.135 3.75069 3.69636 0
M  V30 3177 H 304.626 2.95947 2.34997 0
M  V30 3178 H 304.939 6.42107 4.30022 0
M  V30 3179 H 303.284 5.77077 3.87308 0
M  V30 3180 H 306.475 3.71766 2.84443 0
M  V30 3181 H 306.648 5.29604 3.73394 0
M  V30 3182 N 300.054 -1.07777 1.14986 0
M  V30 3183 C 301.47 -1.32373 0.891596 0
M  V30 3184 C 301.67 -1.9609 -0.463788 0
M  V30 3185 O 300.726 -2.21801 -1.20667 0
M  V30 3186 C 302.039 -2.21905 2.02925 0
M  V30 3187 C 303.587 -2.35367 2.06329 0
M  V30 3188 C 304.062 -3.28245 3.19405 0
M  V30 3189 N 305.553 -3.35824 3.19024 0
M  V30 3190 C 306.288 -4.07739 4.03158 0
M  V30 3191 N 305.784 -4.82306 4.97346 0
M  V30 3192 N 307.577 -4.03635 3.91197 0
M  V30 3193 H 299.728 -0.648039 2.02273 0
M  V30 3194 H 301.991 -0.348149 0.881757 0
M  V30 3195 H 301.697 -1.82342 3.0074 0
M  V30 3196 H 301.571 -3.22407 1.95789 0
M  V30 3197 H 303.958 -2.74186 1.09116 0
M  V30 3198 H 304.039 -1.34585 2.17533 0
M  V30 3199 H 303.683 -2.90146 4.16867 0
M  V30 3200 H 303.613 -4.28971 3.05437 0
M  V30 3201 H 306.104 -2.8267 2.50811 0
M  V30 3202 H 306.417 -5.34661 5.57994 0
M  V30 3203 H 304.762 -4.81337 5.01338 0
M  V30 3204 H 307.953 -3.44491 3.16928 0
M  V30 3205 H 308.126 -4.59417 4.5699 0
M  V30 3206 N 301.532 -0.945985 -1.26051 0
M  V30 3207 C 302.482 -0.430164 -2.23905 0
M  V30 3208 C 303.466 0.47579 -1.53704 0
M  V30 3209 O 304.658 0.310252 -1.7426 0
M  V30 3210 C 301.787 0.298957 -3.41996 0
M  V30 3211 C 300.873 -0.624566 -4.19476 0
M  V30 3212 N 301.264 -1.75245 -4.74471 0
M  V30 3213 C 299.562 -0.431082 -4.43912 0
M  V30 3214 C 300.263 -2.32834 -5.3307 0
M  V30 3215 N 299.239 -1.61583 -5.1903 0
M  V30 3216 H 303.041 -1.29107 -2.64024 0
M  V30 3217 H 300.555 -0.802428 -1.41191 0
M  V30 3218 H 302.552 0.685565 -4.11225 0
M  V30 3219 H 301.212 1.15657 -3.03403 0
M  V30 3220 H 302.223 -2.13449 -4.71868 0
M  V30 3221 H 298.9 0.384364 -4.15727 0
M  V30 3222 H 300.29 -3.27893 -5.86461 0
M  V30 3223 N 303.011 1.40521 -0.713556 0
M  V30 3224 C 303.944 2.28198 -0.00881422 0
M  V30 3225 C 304.922 1.43227 0.769735 0
M  V30 3226 O 306.106 1.72641 0.756799 0
M  V30 3227 C 303.233 3.23758 0.994899 0
M  V30 3228 C 302.279 4.25391 0.3074 0
M  V30 3229 S 303.112 5.26765 -0.963247 0
M  V30 3230 C 304.268 6.25888 0.0384143 0
M  V30 3231 H 304.501 2.87622 -0.752407 0
M  V30 3232 H 302.034 1.45925 -0.504502 0
M  V30 3233 H 303.992 3.79341 1.56879 0
M  V30 3234 H 302.653 2.63396 1.71118 0
M  V30 3235 H 301.846 4.92596 1.0661 0
M  V30 3236 H 301.448 3.73497 -0.193879 0
M  V30 3237 H 303.74 6.71683 0.885912 0
M  V30 3238 H 304.683 7.05552 -0.60019 0
M  V30 3239 H 305.091 5.63072 0.401233 0
M  V30 3240 N 304.489 0.459591 1.5075 0
M  V30 3241 C 305.452 -0.329093 2.26825 0
M  V30 3242 C 306.452 -0.930481 1.31144 0
M  V30 3243 O 307.642 -0.801453 1.54669 0
M  V30 3244 C 304.774 -1.46768 3.07688 0
M  V30 3245 H 305.967 0.337924 2.9799 0
M  V30 3246 H 303.52 0.213336 1.54837 0
M  V30 3247 H 304.255 -2.17009 2.40993 0
M  V30 3248 H 304.04 -1.04238 3.77991 0
M  V30 3249 H 305.53 -2.02433 3.65254 0
M  V30 3250 N 305.967 -1.56429 0.191757 0
M  V30 3251 C 307.213 -1.98541 -0.441943 0
M  V30 3252 C 307.568 -1.07646 -1.59468 0
M  V30 3253 O 306.861 -0.120191 -1.91223 0
M  V30 3254 C 307.055 -3.44449 -0.953384 0
M  V30 3255 C 306.884 -4.49456 0.148262 0
M  V30 3256 C 305.654 -5.01668 0.604781 0
M  V30 3257 C 307.852 -5.05336 0.95602 0
M  V30 3258 N 305.834 -5.90334 1.6846 0
M  V30 3259 C 307.205 -5.9064 1.88531 0
M  V30 3260 C 309.26 -4.87779 0.998811 0
M  V30 3261 C 307.963 -6.60264 2.85383 0
M  V30 3262 C 309.989 -5.58139 1.95537 0
M  V30 3263 C 309.351 -6.43187 2.8721 0
M  V30 3264 H 305.45 -0.771247 -0.129236 0
M  V30 3265 H 308.034 -1.92426 0.296682 0
M  V30 3266 H 306.205 -3.5107 -1.66146 0
M  V30 3267 H 307.937 -3.73533 -1.55741 0
M  V30 3268 H 304.692 -4.73183 0.198736 0
M  V30 3269 H 305.116 -6.39371 2.22561 0
M  V30 3270 H 309.758 -4.21705 0.304048 0
M  V30 3271 H 307.476 -7.25538 3.55837 0
M  V30 3272 H 311.062 -5.46532 1.99484 0
M  V30 3273 H 309.942 -6.96674 3.60022 0
M  V30 3274 N 307.445 0.0818655 -1.57387 0
M  V30 3275 C 308.693 0.781368 -1.86384 0
M  V30 3276 C 309.014 1.78618 -0.782342 0
M  V30 3277 O 308.284 1.94976 0.190061 0
M  V30 3278 H 306.864 0.291562 -0.687751 0
M  V30 3279 H 309.526 0.060348 -1.94807 0
M  V30 3280 H 308.622 1.3038 -2.83562 0
M  V30 3281 N 308.923 1.53595 0.353017 0
M  V30 3282 C 310.151 1.74311 1.1146 0
M  V30 3283 C 310.566 0.477854 1.82653 0
M  V30 3284 O 309.923 -0.549977 1.74016 0
M  V30 3285 C 309.974 2.91694 2.13534 0
M  V30 3286 O 309.695 4.13325 1.45238 0
M  V30 3287 C 311.196 3.24384 3.02142 0
M  V30 3288 H 308.416 0.582669 0.332773 0
M  V30 3289 H 310.96 2.00386 0.408107 0
M  V30 3290 H 309.115 2.67977 2.79763 0
M  V30 3291 H 309.529 4.79148 2.13349 0
M  V30 3292 H 311.003 4.09893 3.69718 0
M  V30 3293 H 311.48 2.40282 3.67643 0
M  V30 3294 H 312.086 3.50073 2.41514 0
M  V30 3295 N 310.401 -0.613514 1.45168 0
M  V30 3296 C 311.648 -1.37268 1.48875 0
M  V30 3297 C 311.976 -1.94077 0.128161 0
M  V30 3298 O 311.231 -1.75178 -0.872416 0
M  V30 3299 C 311.53 -2.54347 2.51083 0
M  V30 3300 C 311.196 -2.1572 3.95949 0
M  V30 3301 C 309.858 -2.04899 4.35396 0
M  V30 3302 C 312.21 -1.85485 4.87078 0
M  V30 3303 C 309.538 -1.62057 5.63875 0
M  V30 3304 C 311.89 -1.4413 6.15962 0
M  V30 3305 C 310.554 -1.31863 6.54346 0
M  V30 3306 H 309.824 -0.502299 0.544773 0
M  V30 3307 H 312.471 -0.694021 1.78481 0
M  V30 3308 H 310.776 -3.27524 2.15024 0
M  V30 3309 H 312.473 -3.12577 2.51191 0
M  V30 3310 H 309.063 -2.25066 3.64751 0
M  V30 3311 H 313.247 -1.92745 4.57343 0
M  V30 3312 H 308.503 -1.51177 5.92415 0
M  V30 3313 H 312.677 -1.19778 6.86022 0
M  V30 3314 H 310.304 -0.984392 7.538 0
M  V30 3315 N 311.879 -1.3236 -0.855495 0
M  V30 3316 C 313.107 -1.2587 -1.64208 0
M  V30 3317 C 313.522 0.173457 -1.88002 0
M  V30 3318 O 312.879 1.11027 -1.44842 0
M  V30 3319 C 312.93 -2.01424 -3.00184 0
M  V30 3320 O 312.651 -3.39051 -2.77445 0
M  V30 3321 C 314.152 -2.01948 -3.94629 0
M  V30 3322 H 311.372 -0.434318 -0.511477 0
M  V30 3323 H 313.916 -1.74469 -1.0668 0
M  V30 3324 H 312.071 -1.56549 -3.5436 0
M  V30 3325 H 312.485 -3.77711 -3.63916 0
M  V30 3326 H 313.959 -2.59297 -4.87308 0
M  V30 3327 H 314.436 -1.00554 -4.27534 0
M  V30 3328 H 315.042 -2.46767 -3.4639 0
M  V30 3329 N 313.357 1.07166 -1.15556 0
M  V30 3330 C 314.597 1.81391 -0.94216 0
M  V30 3331 C 314.961 1.84788 0.521272 0
M  V30 3332 O 316.162 2.54904 0.85307 0
M  V30 3333 C 314.433 3.22431 -1.54185 0
M  V30 3334 S 315.992 4.13379 -1.47183 0
M  V30 3335 H 312.81 0.624963 -0.339031 0
M  V30 3336 H 315.412 1.28725 -1.4714 0
M  V30 3337 H 314.116 3.17548 -2.59984 0
M  V30 3338 H 313.647 3.80172 -1.01156 0
M  V30 3339 H 315.662 4.94007 -0.466004 0
M  V30 3340 N 314.835 0.952656 1.25548 0
M  V30 3341 C 316.251 0.656769 1.4546 0
M  V30 3342 C 316.451 -0.78633 1.85524 0
M  V30 3343 O 315.507 -1.56183 1.98402 0
M  V30 3344 C 316.82 1.62801 2.52817 0
M  V30 3345 C 318.368 1.63897 2.66659 0
M  V30 3346 C 318.843 2.5978 3.77198 0
M  V30 3347 N 320.334 2.58133 3.84606 0
M  V30 3348 C 321.069 3.29003 4.69621 0
M  V30 3349 N 320.565 4.09339 5.58939 0
M  V30 3350 N 322.358 3.179 4.63569 0
M  V30 3351 H 314.509 1.88526 0.978344 0
M  V30 3352 H 316.772 0.810815 0.491206 0
M  V30 3353 H 316.478 2.65869 2.30232 0
M  V30 3354 H 316.352 1.38898 3.50695 0
M  V30 3355 H 318.739 0.615481 2.8861 0
M  V30 3356 H 318.82 1.91858 1.69187 0
M  V30 3357 H 318.464 3.62254 3.55997 0
M  V30 3358 H 318.394 2.29105 4.7415 0
M  V30 3359 H 320.885 1.99809 3.20757 0
M  V30 3360 H 321.198 4.6034 6.20731 0
M  V30 3361 H 319.543 4.13438 5.58654 0
M  V30 3362 H 322.734 2.54612 3.92798 0
M  V30 3363 H 322.907 3.73398 5.29602 0
M  V30 3364 N 316.313 -1.40141 0.720998 0
M  V30 3365 C 317.729 -1.54632 0.395113 0
M  V30 3366 C 317.929 -1.69115 -1.09555 0
M  V30 3367 O 316.985 -1.68377 -1.88163 0
M  V30 3368 C 318.298 -2.77177 1.1659 0
M  V30 3369 C 319.846 -2.91 1.15274 0
M  V30 3370 C 320.321 -4.16465 1.90579 0
M  V30 3371 N 321.812 -4.23476 1.87675 0
M  V30 3372 C 322.547 -5.19475 2.42762 0
M  V30 3373 N 322.043 -6.21348 3.06428 0
M  V30 3374 N 323.836 -5.11592 2.32874 0
M  V30 3375 H 315.987 -1.28986 1.68749 0
M  V30 3376 H 318.25 -0.62412 0.713567 0
M  V30 3377 H 317.956 -2.72771 2.22011 0
M  V30 3378 H 317.83 -3.69442 0.76108 0
M  V30 3379 H 320.217 -2.94907 0.106702 0
M  V30 3380 H 320.298 -1.99838 1.59682 0
M  V30 3381 H 319.942 -4.1332 2.95176 0
M  V30 3382 H 319.872 -5.06646 1.43587 0
M  V30 3383 H 322.363 -3.50497 1.41281 0
M  V30 3384 H 322.676 -6.91034 3.45965 0
M  V30 3385 H 321.021 -6.21777 3.10514 0
M  V30 3386 H 324.212 -4.30936 1.82789 0
M  V30 3387 H 324.385 -5.86233 2.76106 0
M  V30 3388 N 317.792 -0.46758 -1.50504 0
M  V30 3389 C 318.742 0.34698 -2.25344 0
M  V30 3390 C 319.726 0.964469 -1.2879 0
M  V30 3391 O 320.918 0.8776 -1.53711 0
M  V30 3392 C 318.047 1.43042 -3.1208 0
M  V30 3393 C 317.133 0.82084 -4.16081 0
M  V30 3394 N 317.524 -0.0567602 -5.05768 0
M  V30 3395 C 315.822 1.08517 -4.32597 0
M  V30 3396 C 316.523 -0.402343 -5.80307 0
M  V30 3397 N 315.499 0.221607 -5.43148 0
M  V30 3398 H 319.301 -0.329129 -2.92051 0
M  V30 3399 H 316.815 -0.281508 -1.59942 0
M  V30 3400 H 318.812 2.02712 -3.64299 0
M  V30 3401 H 317.472 2.10856 -2.46921 0
M  V30 3402 H 318.483 -0.425349 -5.1615 0
M  V30 3403 H 315.16 1.75855 -3.78657 0
M  V30 3404 H 316.55 -1.11834 -6.62528 0
M  V30 3405 N 319.27 1.56325 -0.20005 0
M  V30 3406 C 320.516 1.98012 0.438059 0
M  V30 3407 C 320.849 1.08702 1.60927 0
M  V30 3408 O 320.124 0.140064 1.93995 0
M  V30 3409 C 320.407 3.48841 0.893419 0
M  V30 3410 C 320.26 4.48928 -0.279947 0
M  V30 3411 C 321.579 4.03498 1.75719 0
M  V30 3412 H 318.698 0.719918 0.157757 0
M  V30 3413 H 321.34 1.87743 -0.291968 0
M  V30 3414 H 319.49 3.57723 1.51547 0
M  V30 3415 H 321.162 4.52079 -0.91772 0
M  V30 3416 H 319.405 4.23694 -0.930919 0
M  V30 3417 H 320.076 5.5194 0.0812601 0
M  V30 3418 H 322.552 3.97427 1.23253 0
M  V30 3419 H 321.428 5.09393 2.04476 0
M  V30 3420 H 321.689 3.4906 2.71311 0
M  V30 3421 N 320.748 -0.0735177 1.57428 0
M  V30 3422 C 321.711 -1.07192 2.02589 0
M  V30 3423 C 322.711 -1.31695 0.922661 0
M  V30 3424 O 323.901 -1.27445 1.18758 0
M  V30 3425 C 321.033 -2.41599 2.40506 0
M  V30 3426 H 322.226 -0.682727 2.92025 0
M  V30 3427 H 319.779 -0.319193 1.53006 0
M  V30 3428 H 320.514 -2.85354 1.5409 0
M  V30 3429 H 320.299 -2.25156 3.21009 0
M  V30 3430 H 321.789 -3.13367 2.76027 0
M  V30 3431 N 322.226 -1.5378 -0.344866 0
M  V30 3432 C 323.189 -1.80981 -1.40637 0
M  V30 3433 C 324.189 -0.680816 -1.45676 0
M  V30 3434 O 325.379 -0.949095 -1.46075 0
M  V30 3435 C 322.511 -1.95063 -2.79577 0
M  V30 3436 H 323.704 -2.75803 -1.17783 0
M  V30 3437 H 321.257 -1.45173 -0.579181 0
M  V30 3438 H 321.992 -1.02379 -3.07716 0
M  V30 3439 H 321.777 -2.77198 -2.77315 0
M  V30 3440 H 323.267 -2.17629 -3.56409 0
M  V30 3441 N 323.704 0.605807 -1.45491 0
M  V30 3442 C 324.981 1.36522 -1.40075 0
M  V30 3443 C 325.361 2.10976 -0.0722744 0
M  V30 3444 O 324.709 2.08007 0.945808 0
M  V30 3445 C 324.919 2.31056 -2.61561 0
M  V30 3446 C 326.267 2.93608 -3.06724 0
M  V30 3447 O 327.291 2.41376 -2.61946 0
M  V30 3448 O 326.15 3.88421 -3.84437 0
M  V30 3449 H 323.244 0.612248 -0.555951 0
M  V30 3450 H 325.79 0.628747 -1.57623 0
M  V30 3451 H 324.562 1.75311 -3.49831 0
M  V30 3452 H 324.185 3.12081 -2.46356 0
M  V30 3453 N 325.182 1.32811 0.848464 0
M  V30 3454 C 326.459 1.14334 1.58704 0
M  V30 3455 C 326.839 -0.293948 2.09043 0
M  V30 3456 O 326.187 -1.29153 1.88499 0
M  V30 3457 C 326.397 2.17626 2.72837 0
M  V30 3458 C 327.745 2.51282 3.42261 0
M  V30 3459 O 328.769 2.16219 2.83068 0
M  V30 3460 O 327.628 3.11413 4.49093 0
M  V30 3461 H 324.722 0.441601 0.699226 0
M  V30 3462 H 327.268 1.44362 0.892053 0
M  V30 3463 H 326.04 3.14211 2.3321 0
M  V30 3464 H 325.663 1.88628 3.50008 0
M  V30 3465 N 326.66 -1.06551 1.16123 0
M  V30 3466 C 327.623 -2.12132 0.867906 0
M  V30 3467 C 328.623 -1.60224 -0.135944 0
M  V30 3468 O 329.813 -1.73943 0.0946422 0
M  V30 3469 C 326.945 -3.396 0.297419 0
M  V30 3470 H 328.138 -2.39586 1.80385 0
M  V30 3471 H 325.691 -1.22574 0.969812 0
M  V30 3472 H 326.426 -3.17794 -0.64633 0
M  V30 3473 H 326.211 -3.78581 1.02073 0
M  V30 3474 H 327.701 -4.17455 0.110052 0
M  V30 3475 N 328.138 -0.959301 -1.25041 0
M  V30 3476 C 329.086 -0.474437 -2.2771 0
M  V30 3477 C 330.08 0.457697 -1.631 0
M  V30 3478 O 331.286 0.333912 -1.76876 0
M  V30 3479 H 327.661 -0.134936 -0.739795 0
M  V30 3480 H 329.632 -1.35251 -2.65988 0
M  V30 3481 C 328.381 0.227884 -3.46952 0
M  V30 3482 H 327.704 -0.480248 -3.96905 0
M  V30 3483 H 329.144 0.531091 -4.20661 0
M  V30 3484 C 327.603 1.452 -3.04004 0
M  V30 3485 O 328.133 2.54949 -3.10426 0
M  V30 3486 N 326.339 1.31502 -2.59144 0
M  V30 3487 H 325.886 0.422065 -2.54119 0
M  V30 3488 H 325.844 2.13521 -2.30773 0
M  V30 3489 N 329.616 1.39756 -0.72842 0
M  V30 3490 C 330.862 2.01425 -0.282761 0
M  V30 3491 C 331.217 1.56754 1.11561 0
M  V30 3492 O 330.51 0.783482 1.74849 0
M  V30 3493 C 330.704 3.56002 -0.315776 0
M  V30 3494 C 330.533 4.1568 -1.71582 0
M  V30 3495 C 329.303 4.48555 -2.32651 0
M  V30 3496 C 331.501 4.39667 -2.66829 0
M  V30 3497 N 329.483 4.93698 -3.64877 0
M  V30 3498 C 330.854 4.86942 -3.8378 0
M  V30 3499 C 332.909 4.21724 -2.64675 0
M  V30 3500 C 331.612 5.18158 -4.98904 0
M  V30 3501 C 333.638 4.54049 -3.78937 0
M  V30 3502 C 333 5.01525 -4.94623 0
M  V30 3503 H 329.099 0.76756 -0.149583 0
M  V30 3504 H 331.683 1.69784 -0.952976 0
M  V30 3505 H 329.854 3.87046 0.324057 0
M  V30 3506 H 331.586 4.0443 0.147808 0
M  V30 3507 H 328.341 4.36128 -1.84633 0
M  V30 3508 H 328.765 5.20635 -4.32744 0
M  V30 3509 H 333.407 3.84228 -1.76433 0
M  V30 3510 H 331.125 5.54562 -5.87781 0
M  V30 3511 H 334.711 4.41795 -3.78561 0
M  V30 3512 H 333.591 5.26065 -5.81572 0
M  V30 3513 N 331.094 0.475555 1.50254 0
M  V30 3514 C 332.322 -0.0754493 2.06762 0
M  V30 3515 C 332.737 -1.33111 1.33891 0
M  V30 3516 O 332.094 -1.77846 0.40952 0
M  V30 3517 C 332.145 -0.359008 3.59713 0
M  V30 3518 O 331.866 0.846851 4.29837 0
M  V30 3519 C 333.367 -0.956484 4.32858 0
M  V30 3520 H 330.587 0.00907525 0.670939 0
M  V30 3521 H 333.131 0.665618 1.93364 0
M  V30 3522 H 331.286 -1.05001 3.72899 0
M  V30 3523 H 331.7 0.594162 5.21124 0
M  V30 3524 H 333.174 -1.10463 5.40834 0
M  V30 3525 H 333.651 -1.94775 3.93649 0
M  V30 3526 H 334.257 -0.303723 4.24214 0
M  V30 3527 N 332.573 -1.56217 0.208337 0
M  V30 3528 C 333.819 -1.98242 -0.427552 0
M  V30 3529 C 334.152 -1.09554 -1.60348 0
M  V30 3530 O 333.427 -0.15035 -1.93918 0
M  V30 3531 C 333.71 -3.4931 -0.874907 0
M  V30 3532 C 333.563 -4.48773 0.303751 0
M  V30 3533 C 334.882 -4.04424 -1.73577 0
M  V30 3534 H 332.001 -0.720744 -0.153936 0
M  V30 3535 H 334.643 -1.87586 0.30192 0
M  V30 3536 H 332.793 -3.58522 -1.49648 0
M  V30 3537 H 334.465 -4.51586 0.941682 0
M  V30 3538 H 332.708 -4.23194 0.953375 0
M  V30 3539 H 333.379 -5.51976 -0.0519883 0
M  V30 3540 H 335.855 -3.98075 -1.21143 0
M  V30 3541 H 334.731 -5.1047 -2.01771 0
M  V30 3542 H 334.992 -3.50494 -2.69456 0
M  V30 3543 N 334.051 0.0651679 -1.57465 0
M  V30 3544 C 335.298 0.763063 -1.87573 0
M  V30 3545 C 335.626 1.77242 -0.800961 0
M  V30 3546 O 334.881 1.94651 0.202316 0
M  V30 3547 C 335.18 1.50081 -3.24362 0
M  V30 3548 C 334.846 0.630816 -4.46466 0
M  V30 3549 C 333.508 0.391082 -4.79608 0
M  V30 3550 C 335.86 0.0279465 -5.21193 0
M  V30 3551 C 333.188 -0.460894 -5.84887 0
M  V30 3552 C 335.54 -0.811522 -6.27373 0
M  V30 3553 C 334.204 -1.06106 -6.59013 0
M  V30 3554 H 333.474 0.279224 -0.686378 0
M  V30 3555 H 336.121 0.0236726 -1.91485 0
M  V30 3556 H 334.426 2.31258 -3.16271 0
M  V30 3557 H 336.123 2.04571 -3.44894 0
M  V30 3558 H 332.713 0.8278 -4.2053 0
M  V30 3559 H 336.897 0.200262 -4.95896 0
M  V30 3560 H 332.153 -0.662907 -6.07796 0
M  V30 3561 H 336.327 -1.28537 -6.84435 0
M  V30 3562 H 333.954 -1.723 -7.40417 0
M  V30 3563 N 335.529 1.53961 0.336706 0
M  V30 3564 C 336.439 1.85432 1.43708 0
M  V30 3565 C 337.455 0.745053 1.57242 0
M  V30 3566 O 338.631 1.03804 1.72588 0
M  V30 3567 C 335.696 2.06349 2.78605 0
M  V30 3568 C 334.757 3.30191 2.74358 0
M  V30 3569 C 333.99 3.50101 4.02822 0
M  V30 3570 O 334.213 2.7371 5.00439 0
M  V30 3571 O 333.147 4.43547 4.06878 0
M  V30 3572 H 336.973 2.78975 1.20028 0
M  V30 3573 H 334.558 1.39701 0.52952 0
M  V30 3574 H 336.44 2.21513 3.58483 0
M  V30 3575 H 335.115 1.15995 3.02203 0
M  V30 3576 H 334.022 3.20425 1.93078 0
M  V30 3577 H 335.355 4.2056 2.55715 0
M  V30 3578 N 337.007 -0.598083 1.45811 0
M  V30 3579 C 338.235 -1.38322 1.53866 0
M  V30 3580 C 338.65 -1.87992 0.174479 0
M  V30 3581 O 338.007 -1.62756 -0.825627 0
M  V30 3582 C 338.058 -2.58125 2.53089 0
M  V30 3583 O 337.779 -2.10516 3.84206 0
M  V30 3584 C 339.28 -3.50869 2.70935 0
M  V30 3585 H 336.5 -0.423093 0.520801 0
M  V30 3586 H 339.044 -0.728527 1.91083 0
M  V30 3587 H 337.199 -3.19615 2.18917 0
M  V30 3588 H 337.613 -2.88425 4.38077 0
M  V30 3589 H 339.087 -4.31451 3.44317 0
M  V30 3590 H 339.564 -4.01822 1.77301 0
M  V30 3591 H 340.17 -2.95225 3.06141 0
M  V30 3592 N 338.485 -1.33259 -0.841409 0
M  V30 3593 C 339.901 -1.12538 -1.13169 0
M  V30 3594 C 340.101 0.0854037 -2.01319 0
M  V30 3595 O 339.157 0.766417 -2.40587 0
M  V30 3596 C 340.47 -2.41156 -1.79623 0
M  V30 3597 C 342.018 -2.47038 -1.922 0
M  V30 3598 C 342.493 -3.7561 -2.6207 0
M  V30 3599 N 343.984 -3.76667 -2.69585 0
M  V30 3600 C 344.719 -4.72861 -3.2433 0
M  V30 3601 N 344.215 -5.79428 -3.79783 0
M  V30 3602 N 346.008 -4.6034 -3.22558 0
M  V30 3603 H 338.159 -2.10868 -0.254676 0
M  V30 3604 H 340.422 -0.931615 -0.175493 0
M  V30 3605 H 340.128 -3.29747 -1.22311 0
M  V30 3606 H 340.002 -2.53114 -2.79666 0
M  V30 3607 H 342.389 -1.58898 -2.48667 0
M  V30 3608 H 342.47 -2.39022 -0.911148 0
M  V30 3609 H 342.114 -4.64131 -2.06263 0
M  V30 3610 H 342.044 -3.80902 -3.63622 0
M  V30 3611 H 344.535 -2.99648 -2.30259 0
M  V30 3612 H 344.848 -6.48867 -4.19752 0
M  V30 3613 H 343.193 -5.83166 -3.78078 0
M  V30 3614 H 346.384 -3.76244 -2.78492 0
M  V30 3615 H 346.557 -5.35478 -3.64921 0
M  V30 3616 N 339.963 1.05934 -1.16686 0
M  V30 3617 C 340.896 2.1295 -0.820225 0
M  V30 3618 C 341.874 1.61242 0.209722 0
M  V30 3619 O 343.058 1.88271 0.0929688 0
M  V30 3620 C 340.185 3.3797 -0.22223 0
M  V30 3621 C 339.231 4.08488 -1.22637 0
M  V30 3622 S 340.064 4.58015 -2.77457 0
M  V30 3623 C 341.22 5.86292 -2.19117 0
M  V30 3624 H 341.453 2.42025 -1.72659 0
M  V30 3625 H 338.986 1.18423 -0.990722 0
M  V30 3626 H 340.944 4.10335 0.116322 0
M  V30 3627 H 339.605 3.07045 0.66196 0
M  V30 3628 H 338.798 4.98291 -0.756455 0
M  V30 3629 H 338.4 3.42154 -1.51019 0
M  V30 3630 H 340.692 6.59246 -1.56209 0
M  V30 3631 H 341.635 6.38019 -3.07144 0
M  V30 3632 H 342.043 5.40497 -1.62858 0
M  V30 3633 N 341.441 0.965919 1.2453 0
M  V30 3634 C 342.389 0.486506 2.27455 0
M  V30 3635 C 343.383 -0.449041 1.6334 0
M  V30 3636 O 344.589 -0.324527 1.7705 0
M  V30 3637 H 340.964 0.138857 0.739069 0
M  V30 3638 H 342.935 1.3666 2.65267 0
M  V30 3639 C 341.684 -0.209481 3.47068 0
M  V30 3640 H 341.007 0.50129 3.96645 0
M  V30 3641 H 342.447 -0.508775 4.20936 0
M  V30 3642 C 340.906 -1.43586 3.0477 0
M  V30 3643 O 341.436 -2.53299 3.11773 0
M  V30 3644 N 339.642 -1.30126 2.59838 0
M  V30 3645 H 339.189 -0.408583 2.54339 0
M  V30 3646 H 339.147 -2.12294 2.31902 0
M  V30 3647 N 342.919 -1.39368 0.735821 0
M  V30 3648 C 343.829 -2.34395 0.0979693 0
M  V30 3649 C 344.845 -1.58361 -0.720968 0
M  V30 3650 O 346.021 -1.90648 -0.649245 0
M  V30 3651 C 343.086 -3.37393 -0.797916 0
M  V30 3652 C 342.147 -4.29287 0.0333662 0
M  V30 3653 C 341.38 -5.27365 -0.819854 0
M  V30 3654 O 341.603 -5.31959 -2.05855 0
M  V30 3655 O 340.537 -6.01389 -0.248079 0
M  V30 3656 H 344.363 -2.90601 0.882315 0
M  V30 3657 H 341.948 -1.40909 0.4965 0
M  V30 3658 H 343.83 -4.00505 -1.31048 0
M  V30 3659 H 342.505 -2.83571 -1.56106 0
M  V30 3660 H 341.412 -3.69395 0.591475 0
M  V30 3661 H 342.745 -4.86317 0.758752 0
M  V30 3662 N 344.397 -0.483516 -1.5 0
M  V30 3663 C 345.327 0.293829 -2.31644 0
M  V30 3664 C 346.308 0.978864 -1.39112 0
M  V30 3665 O 347.493 0.973644 -1.68029 0
M  V30 3666 C 344.623 1.36897 -3.19181 0
M  V30 3667 C 343.577 0.804833 -4.20365 0
M  V30 3668 C 342.903 1.9792 -4.96721 0
M  V30 3669 C 344.203 -0.192313 -5.21946 0
M  V30 3670 H 345.897 -0.387616 -2.9688 0
M  V30 3671 H 343.443 -0.187856 -1.42769 0
M  V30 3672 H 345.396 1.92037 -3.751 0
M  V30 3673 H 344.12 2.07936 -2.51853 0
M  V30 3674 H 342.779 0.275319 -3.65565 0
M  V30 3675 H 342.427 2.67686 -4.25856 0
M  V30 3676 H 342.127 1.60789 -5.65173 0
M  V30 3677 H 343.651 2.53526 -5.55479 0
M  V30 3678 H 345.065 0.270333 -5.72662 0
M  V30 3679 H 343.462 -0.478543 -5.98189 0
M  V30 3680 H 344.532 -1.11409 -4.71928 0
M  V30 3681 N 345.875 1.56104 -0.216619 0
M  V30 3682 C 347.124 1.97348 0.416744 0
M  V30 3683 C 347.437 1.10715 1.6125 0
M  V30 3684 O 348.643 1.41836 2.31506 0
M  V30 3685 C 347.099 3.51059 0.792835 0
M  V30 3686 C 346.707 4.46387 -0.379828 0
M  V30 3687 C 348.451 4.01026 1.39208 0
M  V30 3688 C 346.358 5.91397 0.0184223 0
M  V30 3689 H 345.288 0.736942 0.159475 0
M  V30 3690 H 347.939 1.80827 -0.31205 0
M  V30 3691 H 346.321 3.63162 1.57891 0
M  V30 3692 H 347.495 4.46029 -1.15737 0
M  V30 3693 H 345.81 4.06734 -0.891979 0
M  V30 3694 H 348.407 5.0686 1.70286 0
M  V30 3695 H 348.75 3.46587 2.30614 0
M  V30 3696 H 349.283 3.92125 0.669537 0
M  V30 3697 H 346.022 6.49807 -0.862002 0
M  V30 3698 H 345.542 5.94961 0.760384 0
M  V30 3699 H 347.221 6.45455 0.446818 0
M  V30 3700 N 347.353 -0.0568162 1.57498 0
M  V30 3701 C 348.764 -0.606858 1.76562 0
M  V30 3702 C 349.115 -1.77114 0.844094 0
M  V30 3703 O 348.24 -2.16376 0.0318911 0
M  V30 3704 C 348.835 -1.10766 3.20182 0
M  V30 3705 C 347.394 -1.60344 3.40539 0
M  V30 3706 C 346.541 -0.529311 2.72201 0
M  V30 3707 H 349.492 0.169393 1.57793 0
M  V30 3708 H 349.513 -1.97602 3.25167 0
M  V30 3709 H 349.025 -0.26006 3.87228 0
M  V30 3710 H 347.126 -2.47379 2.78629 0
M  V30 3711 H 347.239 -1.67006 4.4905 0
M  V30 3712 H 345.603 -0.977893 2.35179 0
M  V30 3713 H 346.386 0.308352 3.41912 0
M  V30 3714 N 348.832 -1.54138 -0.328536 0
M  V30 3715 C 349.762 -1.86167 -1.40939 0
M  V30 3716 C 350.743 -0.718044 -1.54202 0
M  V30 3717 O 351.928 -0.971328 -1.68163 0
M  V30 3718 C 349.058 -2.08461 -2.77779 0
M  V30 3719 C 348.012 -3.24299 -2.7931 0
M  V30 3720 C 347.338 -3.31955 -4.19178 0
M  V30 3721 C 348.638 -4.62065 -2.43502 0
M  V30 3722 H 350.332 -2.76689 -1.14383 0
M  V30 3723 H 347.878 -1.33132 -0.548806 0
M  V30 3724 H 349.831 -2.29453 -3.53454 0
M  V30 3725 H 348.555 -1.14684 -3.05802 0
M  V30 3726 H 347.214 -3.03187 -2.0609 0
M  V30 3727 H 346.862 -2.35745 -4.44335 0
M  V30 3728 H 346.562 -4.09805 -4.2111 0
M  V30 3729 H 348.086 -3.55175 -4.96672 0
M  V30 3730 H 349.5 -4.8297 -3.08889 0
M  V30 3731 H 347.897 -5.42429 -2.56693 0
M  V30 3732 H 348.967 -4.64652 -1.38659 0
M  V30 3733 N 350.31 0.590341 -1.46126 0
M  V30 3734 C 351.273 1.68194 -1.55703 0
M  V30 3735 C 352.273 1.54808 -0.434868 0
M  V30 3736 O 353.463 1.59564 -0.698928 0
M  V30 3737 C 350.595 3.07575 -1.47005 0
M  V30 3738 H 351.788 1.61064 -2.52979 0
M  V30 3739 H 349.341 0.807541 -1.33823 0
M  V30 3740 H 350.076 3.20268 -0.509785 0
M  V30 3741 H 349.861 3.187 -2.28414 0
M  V30 3742 H 351.351 3.87055 -1.56776 0
M  V30 3743 N 351.788 1.33704 0.83433 0
M  V30 3744 C 352.718 1.26967 1.95963 0
M  V30 3745 C 353.699 0.149337 1.69443 0
M  V30 3746 O 354.884 0.339852 1.91203 0
M  V30 3747 C 352.014 1.01275 3.32206 0
M  V30 3748 C 350.968 2.09652 3.73136 0
M  V30 3749 C 350.294 1.69166 5.07235 0
M  V30 3750 C 351.594 3.51372 3.86439 0
M  V30 3751 H 353.288 2.2112 2.01857 0
M  V30 3752 H 350.834 1.06447 0.969793 0
M  V30 3753 H 352.787 0.952106 4.10503 0
M  V30 3754 H 351.511 0.0356203 3.26581 0
M  V30 3755 H 350.17 2.14766 2.97104 0
M  V30 3756 H 349.818 0.701437 4.98085 0
M  V30 3757 H 349.518 2.41694 5.35591 0
M  V30 3758 H 351.042 1.64576 5.88003 0
M  V30 3759 H 352.456 3.48734 4.55036 0
M  V30 3760 H 350.853 4.22425 4.26236 0
M  V30 3761 H 351.923 3.89546 2.88759 0
M  V30 3762 N 353.266 -1.05314 1.17247 0
M  V30 3763 C 354.682 -1.30452 0.919473 0
M  V30 3764 C 354.882 -1.9703 -0.42209 0
M  V30 3765 O 353.938 -2.24311 -1.15935 0
M  V30 3766 C 355.251 -2.17551 2.07586 0
M  V30 3767 C 356.799 -2.30937 2.11275 0
M  V30 3768 C 357.274 -3.21396 3.26296 0
M  V30 3769 N 358.765 -3.28981 3.26076 0
M  V30 3770 C 359.5 -3.99095 4.11716 0
M  V30 3771 N 358.996 -4.71648 5.07465 0
M  V30 3772 N 360.789 -3.95247 3.9967 0
M  V30 3773 H 352.94 -0.604988 2.03602 0
M  V30 3774 H 355.203 -0.329368 0.888944 0
M  V30 3775 H 354.909 -1.75921 3.0454 0
M  V30 3776 H 354.783 -3.18182 2.02584 0
M  V30 3777 H 357.17 -2.71809 1.14907 0
M  V30 3778 H 357.251 -1.2994 2.20339 0
M  V30 3779 H 356.895 -2.81238 4.22927 0
M  V30 3780 H 356.825 -4.22395 3.14467 0
M  V30 3781 H 359.316 -2.77286 2.5675 0
M  V30 3782 H 359.629 -5.22705 5.6921 0
M  V30 3783 H 357.974 -4.70594 5.11435 0
M  V30 3784 H 361.165 -3.37691 3.24164 0
M  V30 3785 H 361.338 -4.4962 4.66632 0
M  V30 3786 N 354.744 -0.972509 -1.24016 0
M  V30 3787 C 355.674 -0.525548 -2.27509 0
M  V30 3788 C 356.655 0.437262 -1.64384 0
M  V30 3789 O 357.84 0.332343 -1.91335 0
M  V30 3790 C 354.97 0.180448 -3.46831 0
M  V30 3791 C 353.924 -0.698859 -4.22256 0
M  V30 3792 C 353.25 0.138903 -5.3452 0
M  V30 3793 C 354.55 -1.98582 -4.83076 0
M  V30 3794 H 356.244 -1.39058 -2.65148 0
M  V30 3795 H 353.79 -0.67009 -1.27459 0
M  V30 3796 H 355.743 0.504387 -4.18371 0
M  V30 3797 H 354.467 1.07987 -3.08231 0
M  V30 3798 H 353.126 -1.00614 -3.52523 0
M  V30 3799 H 352.774 1.03862 -4.9216 0
M  V30 3800 H 352.474 -0.446259 -5.85903 0
M  V30 3801 H 353.998 0.457404 -6.08884 0
M  V30 3802 H 355.412 -1.72715 -5.46665 0
M  V30 3803 H 353.809 -2.5181 -5.44713 0
M  V30 3804 H 354.879 -2.67769 -4.04262 0
M  V30 3805 N 356.222 1.38976 -0.743202 0
M  V30 3806 C 357.471 1.99581 -0.291592 0
M  V30 3807 C 357.784 1.59656 1.13001 0
M  V30 3808 O 358.99 2.13157 1.68156 0
M  V30 3809 C 357.446 3.56813 -0.470391 0
M  V30 3810 C 357.054 4.05695 -1.90041 0
M  V30 3811 C 358.798 4.24423 -0.0809709 0
M  V30 3812 C 356.705 5.5553 -2.02832 0
M  V30 3813 H 355.635 0.746615 -0.105272 0
M  V30 3814 H 358.286 1.58872 -0.918258 0
M  V30 3815 H 356.668 3.95359 0.225299 0
M  V30 3816 H 357.842 3.78464 -2.62872 0
M  V30 3817 H 356.157 3.50775 -2.24379 0
M  V30 3818 H 358.754 5.34474 -0.155445 0
M  V30 3819 H 359.097 4.04962 0.96497 0
M  V30 3820 H 359.63 3.9108 -0.728124 0
M  V30 3821 H 356.369 5.79881 -3.05643 0
M  V30 3822 H 355.889 5.84537 -1.34448 0
M  V30 3823 H 357.568 6.21069 -1.81335 0
M  V30 3824 N 357.7 0.491464 1.49741 0
M  V30 3825 C 358.61 -0.296835 2.32715 0
M  V30 3826 C 359.626 -0.976536 1.44013 0
M  V30 3827 O 360.802 -0.960023 1.77047 0
M  V30 3828 C 357.867 -1.35288 3.19215 0
M  V30 3829 C 356.928 -0.687632 4.23757 0
M  V30 3830 C 356.161 -1.69336 5.06123 0
M  V30 3831 O 356.384 -2.92219 4.89861 0
M  V30 3832 O 355.318 -1.25394 5.88693 0
M  V30 3833 H 359.144 0.382048 3.01287 0
M  V30 3834 H 356.729 0.252953 1.47243 0
M  V30 3835 H 358.611 -1.96411 3.72828 0
M  V30 3836 H 357.286 -2.01487 2.53347 0
M  V30 3837 H 356.193 -0.0369159 3.74082 0
M  V30 3838 H 357.526 -0.0682566 4.92153 0
M  V30 3839 N 359.178 -1.55987 0.224894 0
M  V30 3840 C 360.088 -2.24066 -0.69511 0
M  V30 3841 C 361.104 -1.24939 -1.21104 0
M  V30 3842 O 362.28 -1.5776 -1.25195 0
M  V30 3843 C 359.345 -2.90983 -1.88493 0
M  V30 3844 C 358.406 -4.05462 -1.41064 0
M  V30 3845 C 357.639 -4.69179 -2.54375 0
M  V30 3846 O 357.862 -4.31895 -3.72589 0
M  V30 3847 O 356.796 -5.58108 -2.25386 0
M  V30 3848 H 360.622 -3.03353 -0.145149 0
M  V30 3849 H 358.207 -1.49399 -0.00569476 0
M  V30 3850 H 360.089 -3.33209 -2.57972 0
M  V30 3851 H 358.764 -2.14653 -2.42293 0
M  V30 3852 H 357.671 -3.67798 -0.683774 0
M  V30 3853 H 359.004 -4.83545 -0.918985 0
M  V30 3854 N 360.656 0.0484629 -1.57525 0
M  V30 3855 C 361.904 0.741657 -1.88 0
M  V30 3856 C 362.225 1.76918 -0.820054 0
M  V30 3857 O 361.495 1.95335 0.148661 0
M  V30 3858 H 360.075 0.276908 -0.69378 0
M  V30 3859 H 362.737 0.019013 -1.94891 0
M  V30 3860 H 361.833 1.24336 -2.86264 0
M  V30 3861 N 362.134 1.5431 0.320358 0
M  V30 3862 C 363.381 1.72668 1.05792 0
M  V30 3863 C 363.709 0.502084 1.87908 0
M  V30 3864 O 362.964 -0.516149 1.88771 0
M  V30 3865 C 363.263 2.95639 2.00828 0
M  V30 3866 C 362.929 4.30265 1.34843 0
M  V30 3867 C 361.591 4.66865 1.16578 0
M  V30 3868 C 363.943 5.13801 0.875095 0
M  V30 3869 C 361.271 5.84597 0.496336 0
M  V30 3870 C 363.623 6.32219 0.219463 0
M  V30 3871 C 362.287 6.67495 0.0246915 0
M  V30 3872 H 361.557 0.631837 0.387121 0
M  V30 3873 H 364.204 1.88552 0.334735 0
M  V30 3874 H 362.509 2.74456 2.79609 0
M  V30 3875 H 364.206 3.07038 2.57932 0
M  V30 3876 H 360.796 4.01472 1.50061 0
M  V30 3877 H 364.98 4.86039 1.00398 0
M  V30 3878 H 360.236 6.10486 0.334264 0
M  V30 3879 H 364.41 6.96227 -0.155291 0
M  V30 3880 H 362.037 7.5858 -0.496065 0
M  V30 3881 N 363.613 -0.582584 1.46437 0
M  V30 3882 C 364.576 -1.67366 1.56592 0
M  V30 3883 C 365.576 -1.54575 0.443072 0
M  V30 3884 O 366.766 -1.59191 0.707381 0
M  V30 3885 C 363.898 -3.06791 1.48634 0
M  V30 3886 H 365.091 -1.5972 2.5383 0
M  V30 3887 H 362.644 -0.800432 1.34249 0
M  V30 3888 H 363.379 -3.19993 0.526763 0
M  V30 3889 H 363.164 -3.17484 2.30101 0
M  V30 3890 H 364.654 -3.86218 1.58826 0
M  V30 3891 N 365.091 -1.34144 -0.827227 0
M  V30 3892 C 366.021 -1.28005 -1.95287 0
M  V30 3893 C 367.002 -0.158321 -1.69362 0
M  V30 3894 O 368.187 -0.349987 -1.9102 0
M  V30 3895 C 365.317 -1.03036 -3.31664 0
M  V30 3896 C 364.271 -2.11628 -3.72019 0
M  V30 3897 C 363.597 -1.71854 -5.0633 0
M  V30 3898 C 364.897 -3.53417 -3.8457 0
M  V30 3899 H 366.591 -2.22187 -2.00682 0
M  V30 3900 H 364.137 -1.0696 -0.964135 0
M  V30 3901 H 366.09 -0.973863 -4.09993 0
M  V30 3902 H 364.814 -0.0529391 -3.26557 0
M  V30 3903 H 363.473 -2.16339 -2.95961 0
M  V30 3904 H 363.121 -0.727841 -4.97706 0
M  V30 3905 H 362.821 -2.44531 -5.34302 0
M  V30 3906 H 364.345 -1.67692 -5.87122 0
M  V30 3907 H 365.759 -3.51142 -4.5318 0
M  V30 3908 H 364.156 -4.24679 -4.2399 0
M  V30 3909 H 365.226 -3.91072 -2.86689 0
M  V30 3910 N 366.569 1.04691 -1.17803 0
M  V30 3911 C 367.799 1.81183 -0.992788 0
M  V30 3912 C 368.207 1.8347 0.462098 0
M  V30 3913 O 367.55 1.2643 1.33271 0
M  V30 3914 C 367.612 3.28363 -1.46349 0
M  V30 3915 C 367.276 3.49749 -2.94151 0
M  V30 3916 C 368.273 3.41456 -3.92051 0
M  V30 3917 C 365.958 3.76548 -3.32441 0
M  V30 3918 C 367.952 3.59656 -5.26238 0
M  V30 3919 C 365.639 3.94396 -4.66792 0
M  V30 3920 C 366.637 3.8595 -5.635 0
M  V30 3921 O 366.325 4.03294 -6.9542 0
M  V30 3922 H 366.057 0.577622 -0.351182 0
M  V30 3923 H 368.611 1.32876 -1.5663 0
M  V30 3924 H 366.841 3.77609 -0.833574 0
M  V30 3925 H 368.53 3.86395 -1.24313 0
M  V30 3926 H 369.296 3.20723 -3.63815 0
M  V30 3927 H 365.175 3.82224 -2.57732 0
M  V30 3928 H 368.719 3.52979 -6.01707 0
M  V30 3929 H 364.616 4.14622 -4.94731 0
M  V30 3930 H 365.384 4.2049 -7.02232 0
M  V30 3931 N 368.047 0.979072 1.23499 0
M  V30 3932 C 369.295 0.645941 1.91499 0
M  V30 3933 C 369.616 -0.822948 1.76784 0
M  V30 3934 O 368.886 -1.58854 1.14639 0
M  V30 3935 H 367.466 0.235919 0.708767 0
M  V30 3936 H 370.128 1.2426 1.50152 0
M  V30 3937 H 369.224 0.896411 2.9895 0
M  V30 3938 N 369.525 -1.3858 0.750561 0
M  V30 3939 C 370.802 -1.94231 0.231009 0
M  V30 3940 C 371.182 -1.68611 -1.27018 0
M  V30 3941 O 370.53 -1.02296 -2.04323 0
M  V30 3942 C 370.74 -3.44123 0.581428 0
M  V30 3943 C 372.088 -4.2116 0.539389 0
M  V30 3944 O 373.112 -3.52391 0.519541 0
M  V30 3945 O 371.971 -5.43749 0.54765 0
M  V30 3946 H 369.065 -0.825639 0.0474263 0
M  V30 3947 H 371.611 -1.4799 0.830478 0
M  V30 3948 H 370.383 -3.56267 1.61833 0
M  V30 3949 H 370.006 -3.97573 -0.0462047 0
M  V30 3950 N 371.003 -0.499398 -1.49478 0
M  V30 3951 C 371.935 0.316575 -2.27003 0
M  V30 3952 C 372.948 0.932047 -1.33479 0
M  V30 3953 O 374.137 0.815658 -1.58774 0
M  V30 3954 C 371.237 1.46055 -3.05812 0
M  V30 3955 C 370.41 0.952679 -4.26899 0
M  V30 3956 C 369.469 1.97407 -4.87767 0
M  V30 3957 O 368.495 1.54326 -5.4788 0
M  V30 3958 N 369.697 3.30436 -4.77276 0
M  V30 3959 H 372.462 -0.348168 -2.97671 0
M  V30 3960 H 370.023 -0.33185 -1.58463 0
M  V30 3961 H 372.015 2.14135 -3.43407 0
M  V30 3962 H 370.585 2.02948 -2.37762 0
M  V30 3963 H 369.805 0.0968248 -3.94081 0
M  V30 3964 H 371.093 0.59174 -5.05347 0
M  V30 3965 H 370.491 3.68126 -4.29534 0
M  V30 3966 H 369.048 3.94235 -5.19059 0
M  V30 3967 N 372.481 1.55866 -0.233164 0
M  V30 3968 C 373.892 1.847 0.272554 0
M  V30 3969 C 374.243 1.15477 1.58617 0
M  V30 3970 O 373.368 0.42841 2.12117 0
M  V30 3971 C 373.963 3.35071 0.501299 0
M  V30 3972 C 372.522 3.6418 0.951304 0
M  V30 3973 C 371.669 2.77292 0.0208209 0
M  V30 3974 H 374.62 1.52005 -0.456074 0
M  V30 3975 H 374.641 3.55906 1.34577 0
M  V30 3976 H 374.153 3.85424 -0.454936 0
M  V30 3977 H 372.254 3.19293 1.92049 0
M  V30 3978 H 372.367 4.72071 0.817675 0
M  V30 3979 H 370.731 2.49131 0.529723 0
M  V30 3980 H 371.514 3.30448 -0.93054 0
M  V30 3981 N 373.959 -0.0401083 1.57549 0
M  V30 3982 C 375.37 -0.588097 1.77196 0
M  V30 3983 C 375.721 -1.76209 0.862832 0
M  V30 3984 O 374.846 -2.16331 0.0548389 0
M  V30 3985 C 375.441 -1.07363 3.21339 0
M  V30 3986 C 374 -1.56723 3.42221 0
M  V30 3987 C 373.147 -0.50041 2.72747 0
M  V30 3988 H 376.098 0.186119 1.57605 0
M  V30 3989 H 376.119 -1.94143 3.27244 0
M  V30 3990 H 375.631 -0.218975 3.87482 0
M  V30 3991 H 373.732 -2.4441 2.81237 0
M  V30 3992 H 373.845 -1.62234 4.50796 0
M  V30 3993 H 372.209 -0.952894 2.36203 0
M  V30 3994 H 372.992 0.344599 3.41566 0
M  V30 3995 N 375.437 -1.54477 -0.31217 0
M  V30 3996 C 376.684 -1.73227 -1.04875 0
M  V30 3997 C 377.012 -0.512042 -1.87639 0
M  V30 3998 O 376.267 0.506131 -1.89042 0
M  V30 3999 C 376.566 -2.967 -1.99258 0
M  V30 4000 C 376.232 -4.30974 -1.32559 0
M  V30 4001 C 374.894 -4.67477 -1.141 0
M  V30 4002 C 377.246 -5.14258 -0.847835 0
M  V30 4003 C 374.574 -5.84852 -0.465326 0
M  V30 4004 C 376.926 -6.32327 -0.185931 0
M  V30 4005 C 375.59 -6.67499 0.0107077 0
M  V30 4006 H 374.86 -0.633881 -0.383765 0
M  V30 4007 H 377.507 -1.88727 -0.324731 0
M  V30 4008 H 375.812 -2.75935 -2.7815 0
M  V30 4009 H 377.509 -3.08401 -2.563 0
M  V30 4010 H 374.099 -4.02262 -1.4793 0
M  V30 4011 H 378.283 -4.86565 -0.978192 0
M  V30 4012 H 373.539 -6.10654 -0.301883 0
M  V30 4013 H 377.713 -6.96135 0.192211 0
M  V30 4014 H 375.34 -7.58306 0.536287 0
M  V30 4015 N 376.915 0.57481 -1.46744 0
M  V30 4016 C 378.192 1.3352 -1.4294 0
M  V30 4017 C 378.572 2.10775 -0.117009 0
M  V30 4018 O 377.92 2.09966 0.901474 0
M  V30 4019 C 378.13 2.25456 -2.66403 0
M  V30 4020 C 379.478 2.87035 -3.12883 0
M  V30 4021 O 380.502 2.35766 -2.67007 0
M  V30 4022 O 379.361 3.80179 -3.92589 0
M  V30 4023 H 376.455 0.600318 -0.568812 0
M  V30 4024 H 379.001 0.595171 -1.58921 0
M  V30 4025 H 377.773 1.67851 -3.53471 0
M  V30 4026 H 377.396 3.06785 -2.52921 0
M  V30 4027 N 378.394 1.34581 0.820102 0
M  V30 4028 C 379.324 1.29038 1.94606 0
M  V30 4029 C 380.305 0.1673 1.69275 0
M  V30 4030 O 381.49 0.360112 1.90832 0
M  V30 4031 C 378.62 1.04793 3.31113 0
M  V30 4032 C 377.574 2.13597 3.70891 0
M  V30 4033 C 376.9 1.74537 5.05412 0
M  V30 4034 C 378.2 3.55451 3.8269 0
M  V30 4035 H 379.894 2.23248 1.99501 0
M  V30 4036 H 377.44 1.0747 0.958449 0
M  V30 4037 H 379.393 0.995592 4.0947 0
M  V30 4038 H 378.117 0.0702565 3.26524 0
M  V30 4039 H 376.776 2.17905 2.9481 0
M  V30 4040 H 376.424 0.754226 4.97313 0
M  V30 4041 H 376.124 2.47361 5.32997 0
M  V30 4042 H 377.648 1.70803 5.86224 0
M  V30 4043 H 379.062 3.5354 4.51312 0
M  V30 4044 H 377.459 4.26922 4.21732 0
M  V30 4045 H 378.529 3.92587 2.84611 0
M  V30 4046 N 379.872 -1.04064 1.18357 0
M  V30 4047 C 381.097 -1.81454 1.00445 0
M  V30 4048 C 381.522 -1.82823 -0.442423 0
M  V30 4049 O 380.88 -1.24555 -1.31741 0
M  V30 4050 C 380.928 -3.24925 1.56384 0
M  V30 4051 O 380.032 -4.04856 0.785209 0
M  V30 4052 H 379.373 -0.560604 0.355835 0
M  V30 4053 H 381.903 -1.31059 1.57114 0
M  V30 4054 H 381.913 -3.75702 1.59097 0
M  V30 4055 H 380.588 -3.23244 2.61699 0
M  V30 4056 H 379.165 -3.63537 0.830399 0
M  V30 4057 N 381.35 -0.985608 -1.22978 0
M  V30 4058 C 382.297 -0.529825 -2.24636 0
M  V30 4059 C 383.267 0.434028 -1.60329 0
M  V30 4060 O 384.452 0.340414 -1.87739 0
M  V30 4061 C 381.592 0.156533 -3.44745 0
M  V30 4062 C 380.705 -0.848197 -4.23591 0
M  V30 4063 C 379.84 -0.136109 -5.31026 0
M  V30 4064 C 378.879 -1.1297 -6.01585 0
M  V30 4065 N 378.016 -0.446415 -7.00679 0
M  V30 4066 H 382.856 -1.40148 -2.62988 0
M  V30 4067 H 380.393 -0.702168 -1.29259 0
M  V30 4068 H 382.351 0.571324 -4.1327 0
M  V30 4069 H 380.981 0.992025 -3.07179 0
M  V30 4070 H 380.033 -1.38135 -3.54433 0
M  V30 4071 H 381.345 -1.60512 -4.72268 0
M  V30 4072 H 380.499 0.335784 -6.0577 0
M  V30 4073 H 379.238 0.653373 -4.83304 0
M  V30 4074 H 378.243 -1.6123 -5.25628 0
M  V30 4075 H 379.468 -1.91993 -6.51395 0
M  V30 4076 H 377.414 0.323763 -6.55201 0
M  V30 4077 H 377.331 -1.1419 -7.47326 0
M  V30 4078 H 378.599 0.00291697 -7.795 0
M  V30 4079 N 382.828 1.3818 -0.7579 0
M  V30 4080 C 384.105 1.94106 -0.241306 0
M  V30 4081 C 384.485 1.69282 1.26122 0
M  V30 4082 O 383.833 1.03378 2.03777 0
M  V30 4083 C 384.043 3.43809 -0.59967 0
M  V30 4084 C 385.391 4.20868 -0.561717 0
M  V30 4085 O 386.415 3.5211 -0.538222 0
M  V30 4086 O 385.274 5.43451 -0.576478 0
M  V30 4087 H 382.368 0.825376 -0.0518042 0
M  V30 4088 H 384.914 1.47548 -0.838315 0
M  V30 4089 H 383.686 3.55403 -1.6372 0
M  V30 4090 H 383.309 3.97592 0.0251197 0
M  V30 4091 N 384.306 0.507319 1.49211 0
M  V30 4092 C 385.583 -0.0982702 1.95353 0
M  V30 4093 C 385.963 -1.53516 1.449 0
M  V30 4094 O 385.311 -2.18594 0.66551 0
M  V30 4095 C 385.521 -0.00440283 3.49 0
M  V30 4096 C 386.869 -0.175147 4.24239 0
M  V30 4097 O 387.893 -0.0792891 3.56112 0
M  V30 4098 O 386.752 -0.37276 5.45227 0
M  V30 4099 H 383.846 -0.0918236 0.821887 0
M  V30 4100 H 386.392 0.570307 1.5983 0
M  V30 4101 H 385.164 0.997402 3.78375 0
M  V30 4102 H 384.787 -0.712845 3.91158 0
M  V30 4103 N 385.784 -1.5574 0.241426 0
M  V30 4104 C 387.031 -1.9881 -0.384836 0
M  V30 4105 C 387.359 -1.12947 -1.58346 0
M  V30 4106 O 386.614 -0.178993 -1.9488 0
M  V30 4107 C 386.913 -3.47308 -0.843317 0
M  V30 4108 C 386.579 -4.50223 0.246946 0
M  V30 4109 C 385.241 -4.78088 0.546399 0
M  V30 4110 C 387.593 -5.11841 0.983282 0
M  V30 4111 C 384.921 -5.64846 1.58636 0
M  V30 4112 C 387.273 -5.99727 2.01272 0
M  V30 4113 C 385.937 -6.25927 2.31888 0
M  V30 4114 H 385.207 -0.727496 -0.140821 0
M  V30 4115 H 387.854 -1.8831 0.348106 0
M  V30 4116 H 386.159 -3.55112 -1.65537 0
M  V30 4117 H 387.856 -3.78017 -1.33806 0
M  V30 4118 H 384.446 -4.286 0.00340639 0
M  V30 4119 H 388.63 -4.90366 0.765182 0
M  V30 4120 H 383.886 -5.83403 1.82896 0
M  V30 4121 H 388.06 -6.46517 2.58823 0
M  V30 4122 H 385.687 -6.92949 3.12611 0
M  V30 4123 N 387.262 0.0317525 -1.57568 0
M  V30 4124 C 388.192 1.03274 -2.0942 0
M  V30 4125 C 389.173 1.3788 -0.996143 0
M  V30 4126 O 390.358 1.46811 -1.27122 0
M  V30 4127 C 387.488 2.33448 -2.57137 0
M  V30 4128 C 386.442 2.13091 -3.71182 0
M  V30 4129 C 385.768 3.49001 -4.05095 0
M  V30 4130 C 387.068 1.51928 -4.99715 0
M  V30 4131 H 388.762 0.60112 -2.93303 0
M  V30 4132 H 386.308 0.287705 -1.41097 0
M  V30 4133 H 388.261 3.03802 -2.92032 0
M  V30 4134 H 386.985 2.78665 -1.70333 0
M  V30 4135 H 385.644 1.45171 -3.36632 0
M  V30 4136 H 385.292 3.91862 -3.15362 0
M  V30 4137 H 384.992 3.36207 -4.81911 0
M  V30 4138 H 386.516 4.20721 -4.42522 0
M  V30 4139 H 387.93 2.12196 -5.32584 0
M  V30 4140 H 386.327 1.49716 -5.81124 0
M  V30 4141 H 387.397 0.484811 -4.8247 0
M  V30 4142 N 388.74 1.54641 0.303973 0
M  V30 4143 C 389.672 1.81754 1.39636 0
M  V30 4144 C 390.685 0.70035 1.46966 0
M  V30 4145 O 391.874 0.97778 1.49338 0
M  V30 4146 C 388.974 1.93785 2.7803 0
M  V30 4147 C 388.147 3.24156 2.93669 0
M  V30 4148 C 387.206 3.26641 4.12544 0
M  V30 4149 O 386.232 4.00187 4.04771 0
M  V30 4150 N 387.434 2.5182 5.23036 0
M  V30 4151 H 390.199 2.76031 1.16734 0
M  V30 4152 H 387.76 1.54178 0.494033 0
M  V30 4153 H 389.752 1.92852 3.55795 0
M  V30 4154 H 388.322 1.06515 2.93893 0
M  V30 4155 H 387.542 3.37887 2.03042 0
M  V30 4156 H 388.83 4.10195 3.01027 0
M  V30 4157 H 388.228 1.91692 5.32232 0
M  V30 4158 H 386.785 2.56644 5.99147 0
M  V30 4159 N 390.218 -0.567019 1.47046 0
M  V30 4160 C 391.448 -1.34831 1.56538 0
M  V30 4161 C 391.856 -1.8802 0.21101 0
M  V30 4162 O 391.199 -1.65152 -0.804387 0
M  V30 4163 C 391.261 -2.56139 2.52256 0
M  V30 4164 C 390.925 -2.24307 3.98165 0
M  V30 4165 C 391.922 -1.82192 4.86931 0
M  V30 4166 C 389.607 -2.35968 4.43423 0
M  V30 4167 C 391.601 -1.52153 6.18973 0
M  V30 4168 C 389.288 -2.05542 5.75496 0
M  V30 4169 C 390.286 -1.63701 6.63092 0
M  V30 4170 O 389.974 -1.33657 7.92711 0
M  V30 4171 H 389.706 -0.417683 0.531523 0
M  V30 4172 H 392.26 -0.694726 1.93294 0
M  V30 4173 H 390.49 -3.24356 2.10548 0
M  V30 4174 H 392.179 -3.18214 2.51982 0
M  V30 4175 H 392.945 -1.72684 4.53217 0
M  V30 4176 H 388.824 -2.67495 3.75456 0
M  V30 4177 H 392.368 -1.19421 6.87302 0
M  V30 4178 H 388.265 -2.14679 6.08755 0
M  V30 4179 H 389.033 -1.4737 8.05124 0
M  V30 4180 N 391.696 -1.35014 -0.812953 0
M  V30 4181 C 392.921 -1.31187 -1.60639 0
M  V30 4182 C 393.346 0.109382 -1.87782 0
M  V30 4183 O 392.704 1.07424 -1.46047 0
M  V30 4184 C 392.752 -2.11809 -2.91838 0
M  V30 4185 O 391.856 -1.49444 -3.8437 0
M  V30 4186 H 391.197 -0.450084 -0.488181 0
M  V30 4187 H 393.727 -1.77963 -1.00947 0
M  V30 4188 H 393.737 -2.23531 -3.41318 0
M  V30 4189 H 392.412 -3.15137 -2.71407 0
M  V30 4190 H 390.989 -1.46524 -3.42907 0
M  V30 4191 N 393.175 1.03435 -1.18907 0
M  V30 4192 C 394.403 1.80381 -1.01342 0
M  V30 4193 C 394.818 1.83649 0.438005 0
M  V30 4194 O 394.175 1.27655 1.30424 0
M  V30 4195 C 394.226 3.25689 -1.56873 0
M  V30 4196 O 393.947 3.22673 -2.96334 0
M  V30 4197 C 395.448 4.19255 -1.44014 0
M  V30 4198 H 392.668 0.56784 -0.35749 0
M  V30 4199 H 395.212 1.30317 -1.576 0
M  V30 4200 H 393.367 3.72962 -1.04777 0
M  V30 4201 H 393.781 4.13748 -3.22355 0
M  V30 4202 H 395.255 5.19123 -1.87657 0
M  V30 4203 H 395.732 4.37467 -0.389815 0
M  V30 4204 H 396.338 3.77851 -1.95214 0
M  V30 4205 N 394.653 0.992116 1.22453 0
M  V30 4206 C 395.93 0.583508 1.86694 0
M  V30 4207 C 396.31 -0.9392 1.89056 0
M  V30 4208 O 395.658 -1.82081 1.38053 0
M  V30 4209 C 395.868 1.20304 3.2761 0
M  V30 4210 C 397.216 1.30308 4.0411 0
M  V30 4211 O 398.24 1.15737 3.36873 0
M  V30 4212 O 397.099 1.53615 5.24466 0
M  V30 4213 H 394.193 0.198129 0.802916 0
M  V30 4214 H 396.739 1.08794 1.30238 0
M  V30 4215 H 395.511 2.24461 3.2052 0
M  V30 4216 H 395.134 0.684144 3.9167 0
M  V30 4217 N 396.131 -1.37776 0.765217 0
M  V30 4218 C 397.078 -2.30342 0.145274 0
M  V30 4219 C 398.048 -1.5077 -0.696971 0
M  V30 4220 O 399.233 -1.79362 -0.650689 0
M  V30 4221 C 396.373 -3.37227 -0.732939 0
M  V30 4222 C 395.486 -4.31819 0.125199 0
M  V30 4223 C 394.621 -5.25777 -0.757107 0
M  V30 4224 C 393.66 -6.12012 0.103963 0
M  V30 4225 N 392.797 -6.98232 -0.735953 0
M  V30 4226 H 397.637 -2.8278 0.940195 0
M  V30 4227 H 395.174 -1.39211 0.475255 0
M  V30 4228 H 397.132 -3.97818 -1.25686 0
M  V30 4229 H 395.762 -2.86171 -1.49353 0
M  V30 4230 H 394.814 -3.7259 0.766865 0
M  V30 4231 H 396.126 -4.92509 0.789683 0
M  V30 4232 H 395.28 -5.91541 -1.34776 0
M  V30 4233 H 394.019 -4.65481 -1.45529 0
M  V30 4234 H 393.024 -5.45233 0.707197 0
M  V30 4235 H 394.249 -6.74379 0.799381 0
M  V30 4236 H 392.195 -6.40472 -1.41887 0
M  V30 4237 H 392.112 -7.55891 -0.128624 0
M  V30 4238 H 393.38 -7.68393 -1.31121 0
M  V30 4239 N 397.609 -0.515225 -1.4894 0
M  V30 4240 C 398.857 0.0241671 -2.02086 0
M  V30 4241 C 399.178 1.3616 -1.3959 0
M  V30 4242 O 398.448 1.87841 -0.556121 0
M  V30 4243 H 397.028 0.0119203 -0.746905 0
M  V30 4244 H 399.69 -0.675702 -1.82812 0
M  V30 4245 H 398.786 0.143385 -3.1177 0
M  V30 4246 N 399.087 1.5561 -0.249682 0
M  V30 4247 C 400.02 2.17537 0.689408 0
M  V30 4248 C 400.998 1.12829 1.17083 0
M  V30 4249 O 402.182 1.41229 1.24846 0
M  V30 4250 C 399.309 2.77828 1.93725 0
M  V30 4251 C 398.355 3.95615 1.59346 0
M  V30 4252 S 399.188 5.30988 0.69367 0
M  V30 4253 C 400.344 5.94734 1.95046 0
M  V30 4254 H 400.577 2.96852 0.163142 0
M  V30 4255 H 398.11 1.54362 -0.0341166 0
M  V30 4256 H 400.068 3.13199 2.65361 0
M  V30 4257 H 398.729 1.98454 2.43465 0
M  V30 4258 H 397.922 4.364 2.52132 0
M  V30 4259 H 397.524 3.61535 0.957512 0
M  V30 4260 H 399.816 6.12419 2.89739 0
M  V30 4261 H 400.759 6.90109 1.58604 0
M  V30 4262 H 401.167 5.23832 2.10381 0
M  V30 4263 N 400.565 -0.0233959 1.57583 0
M  V30 4264 C 401.981 -0.379134 1.55031 0
M  V30 4265 C 402.181 -1.76255 0.976548 0
M  V30 4266 O 401.237 -2.45266 0.600078 0
M  V30 4267 C 402.55 -0.275792 2.99433 0
M  V30 4268 C 404.098 -0.352458 3.11009 0
M  V30 4269 C 404.573 -0.278501 4.57152 0
M  V30 4270 N 406.064 -0.337123 4.61972 0
M  V30 4271 C 406.799 -0.302876 5.726 0
M  V30 4272 N 406.295 -0.220589 6.92449 0
M  V30 4273 N 408.088 -0.353023 5.6099 0
M  V30 4274 H 400.239 0.881869 1.93227 0
M  V30 4275 H 402.502 0.335867 0.886509 0
M  V30 4276 H 402.208 0.675108 3.4516 0
M  V30 4277 H 402.082 -1.06721 3.61788 0
M  V30 4278 H 404.469 -1.29379 2.65226 0
M  V30 4279 H 404.55 0.468409 2.51475 0
M  V30 4280 H 404.194 0.659189 5.03604 0
M  V30 4281 H 404.124 -1.11755 5.14605 0
M  V30 4282 H 406.615 -0.403002 3.75745 0
M  V30 4283 H 406.928 -0.199713 7.72542 0
M  V30 4284 H 405.273 -0.186555 6.9475 0
M  V30 4285 H 408.464 -0.415339 4.66254 0
M  V30 4286 H 408.637 -0.322866 6.47195 0
M  V30 4287 N 402.043 -1.548 -0.295768 0
M  V30 4288 C 403.459 -1.4613 -0.641722 0
M  V30 4289 C 403.659 -0.656771 -1.90496 0
M  V30 4290 O 402.715 -0.166547 -2.5195 0
M  V30 4291 C 404.028 -2.90141 -0.789852 0
M  V30 4292 C 405.576 -3.00216 -0.885396 0
M  V30 4293 C 406.051 -4.45434 -1.06548 0
M  V30 4294 N 407.542 -4.49166 -1.13156 0
M  V30 4295 C 408.277 -5.58717 -1.28929 0
M  V30 4296 N 407.773 -6.78182 -1.41567 0
M  V30 4297 N 409.566 -5.46415 -1.31859 0
M  V30 4298 H 401.717 -2.05574 0.534147 0
M  V30 4299 H 403.98 -0.931259 0.177372 0
M  V30 4300 H 403.686 -3.51635 0.0675598 0
M  V30 4301 H 403.56 -3.37859 -1.67724 0
M  V30 4302 H 405.947 -2.38833 -1.73329 0
M  V30 4303 H 406.028 -2.55787 0.0261185 0
M  V30 4304 H 405.672 -5.07413 -0.222335 0
M  V30 4305 H 405.602 -4.87499 -1.9913 0
M  V30 4306 H 408.093 -3.631 -1.04721 0
M  V30 4307 H 408.406 -7.57428 -1.53372 0
M  V30 4308 H 406.751 -6.81037 -1.38613 0
M  V30 4309 H 409.942 -4.5203 -1.21601 0
M  V30 4310 H 410.115 -6.31841 -1.43808 0
M  V30 4311 N 403.521 0.559213 -1.47345 0
M  V30 4312 C 404.768 1.31648 -1.53867 0
M  V30 4313 C 405.096 1.93468 -0.200104 0
M  V30 4314 O 404.351 1.78295 0.806799 0
M  V30 4315 C 404.65 2.44853 -2.6035 0
M  V30 4316 C 404.316 2.00876 -4.03683 0
M  V30 4317 C 402.978 1.88599 -4.42701 0
M  V30 4318 C 405.33 1.67279 -4.93626 0
M  V30 4319 C 402.658 1.41017 -5.69501 0
M  V30 4320 C 405.01 1.21169 -6.20887 0
M  V30 4321 C 403.674 1.07487 -6.58789 0
M  V30 4322 H 402.944 0.481734 -0.56304 0
M  V30 4323 H 405.591 0.627301 -1.80934 0
M  V30 4324 H 403.896 3.19318 -2.27032 0
M  V30 4325 H 405.593 3.03039 -2.62619 0
M  V30 4326 H 402.183 2.11374 -3.72853 0
M  V30 4327 H 406.367 1.75638 -4.64182 0
M  V30 4328 H 401.623 1.29086 -5.97618 0
M  V30 4329 H 405.797 0.942345 -6.89995 0
M  V30 4330 H 403.424 0.703946 -7.56934 0
M  V30 4331 N 404.999 1.35443 0.805782 0
M  V30 4332 C 406.247 1.28507 1.55982 0
M  V30 4333 C 406.568 -0.140046 1.94496 0
M  V30 4334 O 405.838 -1.07666 1.63661 0
M  V30 4335 H 404.418 0.472676 0.578434 0
M  V30 4336 H 407.08 1.69555 0.961098 0
M  V30 4337 H 406.176 1.90148 2.47488 0
M  V30 4338 N 406.477 -1.02803 1.19454 0
M  V30 4339 C 407.705 -1.79841 1.02297 0
M  V30 4340 C 408.12 -1.83879 -0.428259 0
M  V30 4341 O 407.477 -1.28345 -1.29745 0
M  V30 4342 C 407.528 -3.24852 1.58598 0
M  V30 4343 O 407.249 -3.21097 2.98041 0
M  V30 4344 C 408.75 -4.18485 1.46236 0
M  V30 4345 H 405.97 -0.565936 0.360496 0
M  V30 4346 H 408.514 -1.2948 1.58288 0
M  V30 4347 H 406.669 -3.72401 1.06753 0
M  V30 4348 H 407.083 -4.12033 3.24545 0
M  V30 4349 H 408.557 -5.18121 1.90407 0
M  V30 4350 H 409.034 -4.37254 0.41301 0
M  V30 4351 H 409.64 -3.76811 1.97215 0
M  V30 4352 N 407.956 -0.998596 -1.21925 0
M  V30 4353 C 409.205 -0.673085 -1.90138 0
M  V30 4354 C 409.518 0.79895 -1.78539 0
M  V30 4355 O 410.724 1.23628 -2.4172 0
M  V30 4356 C 409.18 -1.15339 -3.40918 0
M  V30 4357 C 408.788 -2.65106 -3.61141 0
M  V30 4358 C 410.532 -0.902476 -4.14796 0
M  V30 4359 C 408.439 -3.0671 -5.05651 0
M  V30 4360 H 407.369 -0.248057 -0.712028 0
M  V30 4361 H 410.02 -1.20891 -1.38049 0
M  V30 4362 H 408.402 -0.545658 -3.92223 0
M  V30 4363 H 409.576 -3.31274 -3.20304 0
M  V30 4364 H 407.891 -2.88142 -3.00605 0
M  V30 4365 H 410.488 -1.18895 -5.21314 0
M  V30 4366 H 410.831 0.161349 -4.15987 0
M  V30 4367 H 411.364 -1.47269 -3.69536 0
M  V30 4368 H 408.103 -4.12292 -5.09603 0
M  V30 4369 H 407.623 -2.45249 -5.47369 0
M  V30 4370 H 409.302 -2.9833 -5.74115 0
M  V30 4371 N 409.434 1.37368 -0.772513 0
M  V30 4372 C 410.659 2.0447 -0.347386 0
M  V30 4373 C 411.084 1.57882 1.0225 0
M  V30 4374 O 410.442 0.73941 1.65537 0
M  V30 4375 C 410.49 3.58369 -0.400479 0
M  V30 4376 O 409.594 4.0803 0.598789 0
M  V30 4377 H 408.935 0.646773 -0.15027 0
M  V30 4378 H 411.465 1.75667 -1.04892 0
M  V30 4379 H 411.475 4.07183 -0.258045 0
M  V30 4380 H 410.15 3.91633 -1.39986 0
M  V30 4381 H 408.727 3.70534 0.419411 0
M  V30 4382 N 410.912 0.523116 1.48665 0
M  V30 4383 C 411.86 -0.256859 2.31177 0
M  V30 4384 C 412.854 -0.94199 1.40794 0
M  V30 4385 O 414.06 -0.867157 1.57735 0
M  V30 4386 H 410.435 -0.1017 0.745091 0
M  V30 4387 H 412.406 0.458739 2.94853 0
M  V30 4388 C 411.155 -1.29503 3.22683 0
M  V30 4389 H 410.478 -0.777248 3.92172 0
M  V30 4390 H 411.918 -1.81233 3.83315 0
M  V30 4391 C 410.377 -2.32501 2.43813 0
M  V30 4392 O 410.907 -3.3881 2.15803 0
M  V30 4393 N 409.113 -2.05538 2.05432 0
M  V30 4394 H 408.66 -1.19104 2.28412 0
M  V30 4395 H 408.618 -2.74676 1.52973 0
M  V30 4396 N 412.39 -1.55475 0.257931 0
M  V30 4397 C 413.353 -2.20551 -0.623706 0
M  V30 4398 C 414.353 -1.17809 -1.09443 0
M  V30 4399 O 415.543 -1.42823 -0.997362 0
M  V30 4400 C 412.675 -2.85784 -1.8585 0
M  V30 4401 H 413.868 -2.99848 -0.0557743 0
M  V30 4402 H 411.421 -1.56298 0.0084422 0
M  V30 4403 H 412.156 -2.10453 -2.46739 0
M  V30 4404 H 411.941 -3.61057 -1.52907 0
M  V30 4405 H 413.431 -3.35553 -2.48584 0
M  V30 4406 N 413.868 0.0150385 -1.57593 0
M  V30 4407 C 415.284 0.370907 -1.5523 0
M  V30 4408 C 415.484 1.75735 -0.985882 0
M  V30 4409 O 414.54 2.44944 -0.613077 0
M  V30 4410 C 415.853 0.259908 -2.99575 0
M  V30 4411 C 417.401 0.335959 -3.11192 0
M  V30 4412 C 417.876 0.254253 -4.57294 0
M  V30 4413 N 419.367 0.312618 -4.62144 0
M  V30 4414 C 420.102 0.272505 -5.72752 0
M  V30 4415 N 419.598 0.183864 -6.92556 0
M  V30 4416 N 421.391 0.323267 -5.6117 0
M  V30 4417 H 413.542 -0.892104 -1.92757 0
M  V30 4418 H 415.805 -0.340563 -0.884715 0
M  V30 4419 H 415.511 -0.693403 -3.44797 0
M  V30 4420 H 415.385 1.048 -3.62349 0
M  V30 4421 H 417.772 1.27971 -2.65909 0
M  V30 4422 H 417.853 -0.481739 -2.51223 0
M  V30 4423 H 417.497 -0.685887 -5.03247 0
M  V30 4424 H 417.427 1.09024 -5.15191 0
M  V30 4425 H 419.918 0.38307 -3.75953 0
M  V30 4426 H 420.231 0.15874 -7.72637 0
M  V30 4427 H 418.576 0.149708 -6.94839 0
M  V30 4428 H 421.767 0.390607 -4.66467 0
M  V30 4429 H 421.94 0.288539 -6.47357 0
M  V30 4430 N 415.346 1.54954 0.287554 0
M  V30 4431 C 416.594 1.74528 1.01904 0
M  V30 4432 C 416.915 0.541349 1.87335 0
M  V30 4433 O 416.185 -0.444108 1.908 0
M  V30 4434 H 414.765 0.643576 0.379235 0
M  V30 4435 H 417.427 1.92333 0.315294 0
M  V30 4436 H 416.523 2.64015 1.6644 0
M  V30 4437 N 416.824 -0.551391 1.4764 0
M  V30 4438 C 418.24 -0.877887 1.33287 0
M  V30 4439 C 418.44 -1.98817 0.327721 0
M  V30 4440 O 417.496 -2.51171 -0.258695 0
M  V30 4441 C 418.809 -1.26563 2.72768 0
M  V30 4442 C 420.357 -1.37673 2.81097 0
M  V30 4443 C 420.832 -1.79799 4.21232 0
M  V30 4444 N 422.323 -1.8694 4.23802 0
M  V30 4445 C 423.058 -2.20876 5.29151 0
M  V30 4446 N 422.554 -2.53386 6.448 0
M  V30 4447 N 424.347 -2.217 5.16532 0
M  V30 4448 H 416.498 0.18153 2.11623 0
M  V30 4449 H 418.761 0.0185514 0.947818 0
M  V30 4450 H 418.467 -0.523591 3.47781 0
M  V30 4451 H 418.341 -2.22052 3.04915 0
M  V30 4452 H 420.728 -2.10956 2.06353 0
M  V30 4453 H 420.809 -0.40357 2.52596 0
M  V30 4454 H 420.453 -1.07083 4.96483 0
M  V30 4455 H 420.383 -2.78128 4.4716 0
M  V30 4456 H 422.874 -1.64179 3.40373 0
M  V30 4457 H 423.187 -2.78325 7.20941 0
M  V30 4458 H 421.532 -2.50953 6.48111 0
M  V30 4459 H 424.723 -1.95745 4.25207 0
M  V30 4460 H 424.896 -2.47818 5.98741 0
M  V30 4461 N 418.302 -1.35869 -0.798587 0
M  V30 4462 C 419.713 -1.26498 -1.37314 0
M  V30 4463 C 420.064 0.0991899 -1.95949 0
M  V30 4464 O 419.189 1.0004 -1.91888 0
M  V30 4465 C 419.784 -2.29054 -2.49639 0
M  V30 4466 C 418.343 -2.234 -3.02935 0
M  V30 4467 C 417.49 -2.14329 -1.75949 0
M  V30 4468 H 420.441 -1.46881 -0.600971 0
M  V30 4469 H 420.462 -1.92166 -3.28409 0
M  V30 4470 H 419.974 -3.2833 -2.06933 0
M  V30 4471 H 418.075 -1.27562 -3.50084 0
M  V30 4472 H 418.188 -3.15703 -3.60372 0
M  V30 4473 H 416.552 -1.60435 -1.9782 0
M  V30 4474 H 417.335 -3.15477 -1.35384 0
M  V30 4475 N 419.78 1.02168 -1.19998 0
M  V30 4476 C 421.026 1.75945 -1.00852 0
M  V30 4477 C 421.359 1.88702 0.458828 0
M  V30 4478 O 420.634 1.40911 1.34069 0
M  V30 4479 C 420.917 3.18154 -1.68671 0
M  V30 4480 C 420.77 3.13224 -3.22817 0
M  V30 4481 C 422.089 4.16711 -1.41561 0
M  V30 4482 H 419.208 0.638673 -0.367785 0
M  V30 4483 H 421.85 1.19222 -1.4794 0
M  V30 4484 H 420 3.66586 -1.28636 0
M  V30 4485 H 421.672 2.72635 -3.72112 0
M  V30 4486 H 419.915 2.50751 -3.53986 0
M  V30 4487 H 420.586 4.13728 -3.65422 0
M  V30 4488 H 423.062 3.76913 -1.76284 0
M  V30 4489 H 421.938 5.14391 -1.91553 0
M  V30 4490 H 422.199 4.40774 -0.342193 0
M  V30 4491 N 421.258 1.00505 1.21394 0
M  V30 4492 C 422.221 0.570459 2.21987 0
M  V30 4493 C 423.221 -0.353211 1.56873 0
M  V30 4494 O 424.411 -0.14349 1.73608 0
M  V30 4495 C 421.543 -0.168555 3.40483 0
M  V30 4496 H 422.736 1.46021 2.6195 0
M  V30 4497 H 420.289 0.793565 1.34656 0
M  V30 4498 H 421.024 -1.07374 3.06009 0
M  V30 4499 H 420.809 0.494823 3.88965 0
M  V30 4500 H 422.299 -0.460362 4.15055 0
M  V30 4501 N 422.737 -1.36956 0.779787 0
M  V30 4502 C 423.647 -2.33965 0.172491 0
M  V30 4503 C 424.663 -1.60574 -0.670222 0
M  V30 4504 O 425.839 -1.92617 -0.588263 0
M  V30 4505 C 422.904 -3.39761 -0.690173 0
M  V30 4506 C 421.965 -4.28964 0.169924 0
M  V30 4507 C 421.198 -5.29707 -0.651662 0
M  V30 4508 O 421.421 -5.38238 -1.88827 0
M  V30 4509 O 420.355 -6.01873 -0.0566264 0
M  V30 4510 H 424.181 -2.87647 0.974321 0
M  V30 4511 H 421.766 -1.39258 0.541078 0
M  V30 4512 H 423.648 -4.04471 -1.1824 0
M  V30 4513 H 422.323 -2.88394 -1.47006 0
M  V30 4514 H 421.23 -3.67326 0.708696 0
M  V30 4515 H 422.563 -4.83656 0.913085 0
M  V30 4516 N 424.215 -0.530993 -1.48385 0
M  V30 4517 C 425.464 0.00474348 -2.01699 0
M  V30 4518 C 425.777 1.35227 -1.41325 0
M  V30 4519 O 426.983 1.97643 -1.86144 0
M  V30 4520 C 425.439 0.0588473 -3.59852 0
M  V30 4521 C 425.047 -1.28385 -4.2921 0
M  V30 4522 C 426.791 0.543358 -4.21008 0
M  V30 4523 C 424.698 -1.19028 -5.79298 0
M  V30 4524 H 423.628 0.00554317 -0.75398 0
M  V30 4525 H 426.279 -0.674924 -1.70637 0
M  V30 4526 H 424.661 0.803612 -3.8776 0
M  V30 4527 H 425.835 -2.04426 -4.12973 0
M  V30 4528 H 424.15 -1.70418 -3.7993 0
M  V30 4529 H 426.747 0.631351 -5.3096 0
M  V30 4530 H 427.09 1.54937 -3.86394 0
M  V30 4531 H 427.623 -0.145754 -3.97533 0
M  V30 4532 H 424.362 -2.17147 -6.18488 0
M  V30 4533 H 423.882 -0.471246 -5.97946 0
M  V30 4534 H 425.561 -0.881365 -6.40969 0
M  V30 4535 N 425.693 1.55336 -0.266172 0
M  V30 4536 C 426.97 1.91372 0.404486 0
M  V30 4537 C 427.35 1.18935 1.74407 0
M  V30 4538 O 426.698 0.3132 2.26343 0
M  V30 4539 C 426.908 3.44581 0.553593 0
M  V30 4540 C 428.256 4.16196 0.840618 0
M  V30 4541 O 429.28 3.50426 0.638739 0
M  V30 4542 O 428.139 5.32567 1.22618 0
M  V30 4543 H 425.233 0.797194 0.220025 0
M  V30 4544 H 427.779 1.66813 -0.311664 0
M  V30 4545 H 426.551 3.89357 -0.389498 0
M  V30 4546 H 426.174 3.75065 1.31955 0
M  V30 4547 N 427.171 -0.0066808 1.57599 0
M  V30 4548 C 428.417 -0.693947 1.90558 0
M  V30 4549 C 428.75 -1.73792 0.866594 0
M  V30 4550 O 428.025 -1.94156 -0.115548 0
M  V30 4551 C 428.308 -1.34317 3.34112 0
M  V30 4552 C 428.161 -0.311189 4.48722 0
M  V30 4553 C 429.48 -2.27116 3.7697 0
M  V30 4554 H 426.599 -0.250803 0.693013 0
M  V30 4555 H 429.241 0.043242 1.89951 0
M  V30 4556 H 427.391 -1.9715 3.3476 0
M  V30 4557 H 429.063 0.316944 4.6021 0
M  V30 4558 H 427.306 0.367253 4.32243 0
M  V30 4559 H 427.977 -0.804366 5.46108 0
M  V30 4560 H 430.453 -1.74306 3.77831 0
M  V30 4561 H 429.329 -2.69511 4.78179 0
M  V30 4562 H 429.59 -3.14743 3.10466 0
M  V30 4563 N 428.649 -1.55105 -0.279332 0
M  V30 4564 C 429.926 -1.66119 -1.03267 0
M  V30 4565 C 430.306 -0.523525 -2.04505 0
M  V30 4566 O 429.654 0.477194 -2.23462 0
M  V30 4567 C 429.864 -3.05067 -1.69515 0
M  V30 4568 C 431.212 -3.62606 -2.20912 0
M  V30 4569 O 432.236 -3.07659 -1.79512 0
M  V30 4570 O 431.095 -4.58861 -2.96831 0
M  V30 4571 H 428.189 -0.674429 -0.478618 0
M  V30 4572 H 430.735 -1.67446 -0.275694 0
M  V30 4573 H 429.507 -3.79311 -0.9612 0
M  V30 4574 H 429.13 -3.07611 -2.51915 0
M  V30 4575 N 430.127 0.543554 -1.4793 0
M  V30 4576 C 431.357 1.32324 -1.58663 0
M  V30 4577 C 431.765 1.8766 -0.240896 0
M  V30 4578 O 431.108 1.66411 0.778011 0
M  V30 4579 C 431.17 2.52094 -2.56299 0
M  V30 4580 C 430.834 2.17944 -4.01683 0
M  V30 4581 C 431.831 1.74422 -4.89768 0
M  V30 4582 C 429.516 2.28884 -4.47121 0
M  V30 4583 C 431.51 1.42287 -6.21316 0
M  V30 4584 C 429.197 1.96361 -5.78693 0
M  V30 4585 C 430.195 1.53132 -6.65612 0
M  V30 4586 O 429.883 1.21029 -7.94737 0
M  V30 4587 H 429.615 0.409174 -0.538101 0
M  V30 4588 H 432.169 0.663887 -1.94375 0
M  V30 4589 H 430.399 3.20965 -2.15681 0
M  V30 4590 H 432.088 3.14165 -2.57012 0
M  V30 4591 H 432.854 1.65452 -4.55907 0
M  V30 4592 H 428.733 2.61488 -3.79664 0
M  V30 4593 H 432.277 1.08472 -6.89115 0
M  V30 4594 H 428.174 2.04967 -6.12094 0
M  V30 4595 H 428.942 1.34543 -8.07366 0
M  V30 4596 N 431.605 1.3629 0.791371 0
M  V30 4597 C 432.83 1.33726 1.58531 0
M  V30 4598 C 433.255 -0.0794933 1.87932 0
M  V30 4599 O 432.613 -1.05087 1.47738 0
M  V30 4600 C 432.661 2.16425 2.88431 0
M  V30 4601 O 431.765 1.5554 3.81944 0
M  V30 4602 H 431.106 0.457793 0.480959 0
M  V30 4603 H 433.636 1.79547 0.981031 0
M  V30 4604 H 433.646 2.28933 3.37718 0
M  V30 4605 H 432.321 3.19415 2.66359 0
M  V30 4606 H 430.898 1.51961 3.40532 0
M  V30 4607 N 433.083 -1.0153 1.20538 0
M  V30 4608 C 434.494 -1.56598 1.01657 0
M  V30 4609 C 434.845 -1.91505 -0.426668 0
M  V30 4610 O 433.97 -1.72375 -1.30827 0
M  V30 4611 C 434.565 -2.84542 1.83905 0
M  V30 4612 C 433.124 -3.36133 1.69386 0
M  V30 4613 C 432.271 -2.09427 1.81757 0
M  V30 4614 H 435.222 -0.838974 1.34711 0
M  V30 4615 H 435.243 -3.56004 1.34319 0
M  V30 4616 H 434.755 -2.59105 2.8894 0
M  V30 4617 H 432.856 -3.66528 0.669933 0
M  V30 4618 H 432.969 -4.08248 2.50739 0
M  V30 4619 H 431.333 -2.21941 1.24957 0
M  V30 4620 H 432.116 -1.86414 2.88279 0
M  V30 4621 N 434.561 -1.01147 -1.20859 0
M  V30 4622 C 435.524 -0.582224 -2.21682 0
M  V30 4623 C 436.524 0.344887 -1.57058 0
M  V30 4624 O 437.714 0.134281 -1.73682 0
M  V30 4625 C 434.846 0.150496 -3.40568 0
M  V30 4626 H 436.039 -1.47408 -2.61172 0
M  V30 4627 H 433.592 -0.800695 -1.34233 0
M  V30 4628 H 434.327 1.0575 -3.06574 0
M  V30 4629 H 434.112 -0.515444 -3.88697 0
M  V30 4630 H 435.602 0.438344 -4.15293 0
M  V30 4631 N 436.039 1.36541 -0.78704 0
M  V30 4632 C 436.971 2.28761 -0.141773 0
M  V30 4633 C 437.984 1.49365 0.647599 0
M  V30 4634 O 439.173 1.71836 0.483173 0
M  V30 4635 C 436.273 3.28771 0.822368 0
M  V30 4636 C 435.446 4.3732 0.0835594 0
M  V30 4637 C 434.505 5.17307 0.963296 0
M  V30 4638 O 433.531 5.67638 0.421419 0
M  V30 4639 N 434.733 5.33515 2.28784 0
M  V30 4640 H 437.498 2.84777 -0.933919 0
M  V30 4641 H 435.059 1.48682 -0.640735 0
M  V30 4642 H 437.051 3.79169 1.41468 0
M  V30 4643 H 435.621 2.73412 1.5154 0
M  V30 4644 H 434.841 3.88118 -0.689809 0
M  V30 4645 H 436.129 5.0701 -0.426358 0
M  V30 4646 H 435.527 4.94234 2.75226 0
M  V30 4647 H 434.084 5.87165 2.82985 0
M  V30 4648 N 437.518 0.538854 1.48102 0
M  V30 4649 C 438.448 -0.207654 2.32575 0
M  V30 4650 C 439.429 -0.926559 1.4265 0
M  V30 4651 O 440.614 -0.91061 1.71527 0
M  V30 4652 C 437.744 -1.24957 3.24042 0
M  V30 4653 C 436.698 -0.648263 4.23062 0
M  V30 4654 C 436.024 -1.79348 5.03725 0
M  V30 4655 C 437.324 0.385897 5.20872 0
M  V30 4656 H 439.018 0.497534 2.95237 0
M  V30 4657 H 436.564 0.240715 1.41974 0
M  V30 4658 H 438.517 -1.77983 3.81969 0
M  V30 4659 H 437.241 -1.98446 2.59397 0
M  V30 4660 H 435.9 -0.139452 3.66335 0
M  V30 4661 H 435.548 -2.51696 4.35498 0
M  V30 4662 H 435.248 -1.39702 5.70751 0
M  V30 4663 H 436.772 -2.32735 5.64506 0
M  V30 4664 H 438.186 -0.057607 5.73271 0
M  V30 4665 H 436.583 0.700227 5.96001 0
M  V30 4666 H 437.653 1.28848 4.67468 0
M  V30 4667 N 438.996 -1.55193 0.274407 0
M  V30 4668 C 439.906 -2.26164 -0.623473 0
M  V30 4669 C 440.922 -1.28729 -1.17068 0
M  V30 4670 O 442.098 -1.61663 -1.20112 0
M  V30 4671 C 439.163 -2.96833 -1.7914 0
M  V30 4672 C 438.224 -4.09745 -1.28093 0
M  V30 4673 C 437.457 -4.77034 -2.3932 0
M  V30 4674 O 437.68 -4.4353 -3.5866 0
M  V30 4675 O 436.614 -5.64996 -2.07516 0
M  V30 4676 H 440.44 -3.03661 -0.0485661 0
M  V30 4677 H 438.025 -1.49341 0.0418382 0
M  V30 4678 H 439.907 -3.41248 -2.4724 0
M  V30 4679 H 438.582 -2.22253 -2.35341 0
M  V30 4680 H 437.489 -3.69787 -0.566416 0
M  V30 4681 H 438.822 -4.86224 -0.764683 0
M  V30 4682 N 440.474 -0.00167713 -1.576 0
M  V30 4683 C 441.751 0.719951 -1.81868 0
M  V30 4684 C 442.131 1.91895 -0.879747 0
M  V30 4685 O 441.479 2.28389 0.0711423 0
M  V30 4686 C 441.689 1.12409 -3.30402 0
M  V30 4687 C 443.037 1.52724 -3.96182 0
M  V30 4688 O 444.061 1.21784 -3.34734 0
M  V30 4689 O 442.92 2.10265 -5.04431 0
M  V30 4690 H 440.014 0.350707 -0.748955 0
M  V30 4691 H 442.56 -0.0272597 -1.69678 0
M  V30 4692 H 441.332 0.269532 -3.90371 0
M  V30 4693 H 440.955 1.93035 -3.47596 0
M  V30 4694 N 441.952 1.55251 0.271103 0
M  V30 4695 C 443.18 1.79974 1.02064 0
M  V30 4696 C 443.595 0.574003 1.79863 0
M  V30 4697 O 442.952 -0.456962 1.76686 0
M  V30 4698 C 443.003 3.02603 1.97772 0
M  V30 4699 O 442.724 4.20443 1.23124 0
M  V30 4700 C 444.225 3.39944 2.84522 0
M  V30 4701 H 441.445 0.599489 0.301419 0
M  V30 4702 H 443.989 2.02268 0.301313 0
M  V30 4703 H 442.144 2.8243 2.65165 0
M  V30 4704 H 442.558 4.89783 1.87651 0
M  V30 4705 H 444.032 4.28915 3.47471 0
M  V30 4706 H 444.509 2.59432 3.54389 0
M  V30 4707 H 445.115 3.62383 2.22618 0
M  V30 4708 N 443.43 -0.535701 1.48216 0
M  V30 4709 C 444.677 -1.29183 1.55942 0
M  V30 4710 C 445.005 -1.93125 0.230857 0
M  V30 4711 O 444.26 -1.79556 -0.778331 0
M  V30 4712 C 444.559 -2.4068 2.64212 0
M  V30 4713 C 444.225 -1.94428 4.06827 0
M  V30 4714 C 442.887 -1.81532 4.45645 0
M  V30 4715 C 445.239 -1.59405 4.96225 0
M  V30 4716 C 442.567 -1.31939 5.71672 0
M  V30 4717 C 444.919 -1.11276 6.22736 0
M  V30 4718 C 443.583 -0.969924 6.60416 0
M  V30 4719 H 442.853 -0.472715 0.570632 0
M  V30 4720 H 445.5 -0.598437 1.81909 0
M  V30 4721 H 443.805 -3.15666 2.32083 0
M  V30 4722 H 445.502 -2.98822 2.67407 0
M  V30 4723 H 442.092 -2.05415 3.76168 0
M  V30 4724 H 446.276 -1.68231 4.66917 0
M  V30 4725 H 441.532 -1.19562 5.99596 0
M  V30 4726 H 445.706 -0.832453 6.91407 0
M  V30 4727 H 443.333 -0.583436 7.57958 0
M  V30 4728 N 444.908 -1.36708 -0.784132 0
M  V30 4729 C 445.871 -1.31307 -1.87859 0
M  V30 4730 C 446.871 -0.219654 -1.59293 0
M  V30 4731 O 448.061 -0.47476 -1.67606 0
M  V30 4732 C 445.193 -1.03679 -3.24751 0
M  V30 4733 H 446.386 -2.28647 -1.94064 0
M  V30 4734 H 443.939 -1.21558 -0.98252 0
M  V30 4735 H 444.674 -0.0681936 -3.24228 0
M  V30 4736 H 444.459 -1.82811 -3.46876 0
M  V30 4737 H 445.949 -1.02518 -4.04821 0
M  V30 4738 N 446.386 1.0089 -1.21074 0
M  V30 4739 C 447.663 1.71834 -0.934469 0
M  V30 4740 C 448.043 2.0368 0.554753 0
M  V30 4741 O 447.391 1.70742 1.51854 0
M  V30 4742 C 447.601 2.98061 -1.8155 0
M  V30 4743 C 448.949 3.7117 -2.06199 0
M  V30 4744 O 449.973 3.08034 -1.78867 0
M  V30 4745 O 448.832 4.84721 -2.52404 0
M  V30 4746 H 445.926 0.749253 -0.35007 0
M  V30 4747 H 448.472 1.06668 -1.31985 0
M  V30 4748 H 447.244 2.70908 -2.82355 0
M  V30 4749 H 446.867 3.70968 -1.43068 0
M  V30 4750 N 447.864 1.01787 1.20321 0
M  V30 4751 C 448.774 0.598898 2.26827 0
M  V30 4752 C 449.79 -0.36418 1.70146 0
M  V30 4753 O 450.966 -0.224812 2.00141 0
M  V30 4754 C 448.031 -0.0549769 3.46656 0
M  V30 4755 C 447.092 0.954205 4.18561 0
M  V30 4756 C 446.325 0.331439 5.3267 0
M  V30 4757 O 446.548 -0.86851 5.63749 0
M  V30 4758 O 445.482 1.0488 5.92692 0
M  V30 4759 H 449.308 1.48562 2.64883 0
M  V30 4760 H 446.893 0.787434 1.26964 0
M  V30 4761 H 448.775 -0.420102 4.19301 0
M  V30 4762 H 447.45 -0.915876 3.10473 0
M  V30 4763 H 446.357 1.37072 3.48083 0
M  V30 4764 H 447.69 1.78511 4.58688 0
M  V30 4765 N 449.342 -1.36122 0.79427 0
M  V30 4766 C 450.619 -1.93398 0.292685 0
M  V30 4767 C 450.999 -1.72567 -1.21589 0
M  V30 4768 O 450.347 -1.08745 -2.00965 0
M  V30 4769 C 450.557 -3.42099 0.690614 0
M  V30 4770 C 451.905 -4.19231 0.673105 0
M  V30 4771 O 452.929 -3.50559 0.631389 0
M  V30 4772 O 451.788 -5.41732 0.720362 0
M  V30 4773 H 448.882 -0.823712 0.0736693 0
M  V30 4774 H 451.428 -1.45273 0.87714 0
M  V30 4775 H 450.2 -3.50938 1.73085 0
M  V30 4776 H 449.823 -3.97519 0.0803036 0
M  V30 4777 N 450.82 -0.546701 -1.47814 0
M  V30 4778 C 452.236 -0.205717 -1.58269 0
M  V30 4779 C 452.436 1.29153 -1.54667 0
M  V30 4780 O 451.492 2.07098 -1.44453 0
M  V30 4781 C 452.805 -0.823065 -2.89216 0
M  V30 4782 C 454.353 -0.793328 -3.02779 0
M  V30 4783 C 454.828 -1.38955 -4.36412 0
M  V30 4784 N 456.319 -1.35227 -4.43021 0
M  V30 4785 C 457.054 -1.78333 -5.44963 0
M  V30 4786 N 456.55 -2.29246 -6.53772 0
M  V30 4787 N 458.343 -1.69467 -5.35945 0
M  V30 4788 H 450.494 -1.5196 -1.48398 0
M  V30 4789 H 452.757 -0.633078 -0.705632 0
M  V30 4790 H 452.463 -1.8749 -2.97558 0
M  V30 4791 H 452.337 -0.309915 -3.75925 0
M  V30 4792 H 454.724 0.249784 -2.94041 0
M  V30 4793 H 454.805 -1.34412 -2.17639 0
M  V30 4794 H 454.449 -2.43168 -4.45906 0
M  V30 4795 H 454.379 -0.814291 -5.20266 0
M  V30 4796 H 456.87 -0.979739 -3.64979 0
M  V30 4797 H 457.183 -2.60089 -7.27718 0
M  V30 4798 H 455.528 -2.3325 -6.5469 0
M  V30 4799 H 458.719 -1.29477 -4.49837 0
M  V30 4800 H 458.892 -2.03381 -6.15256 0
M  V30 4801 N 452.299 1.55045 -0.282633 0
M  V30 4802 C 453.715 1.59441 0.0712997 0
M  V30 4803 C 453.915 1.2998 1.53972 0
M  V30 4804 O 452.971 1.06431 2.28973 0
M  V30 4805 C 454.284 2.99097 -0.310104 0
M  V30 4806 C 455.832 3.1194 -0.257343 0
M  V30 4807 C 456.307 4.53875 -0.613297 0
M  V30 4808 N 457.798 4.5974 -0.565134 0
M  V30 4809 C 458.533 5.67603 -0.81326 0
M  V30 4810 N 458.029 6.83582 -1.1264 0
M  V30 4811 N 459.822 5.57187 -0.741553 0
M  V30 4812 H 451.973 1.72458 -1.23984 0
M  V30 4813 H 454.236 0.804549 -0.501403 0
M  V30 4814 H 453.942 3.25516 -1.33163 0
M  V30 4815 H 453.816 3.75616 0.345366 0
M  V30 4816 H 456.203 2.85281 0.754905 0
M  V30 4817 H 456.284 2.37618 -0.947178 0
M  V30 4818 H 455.928 4.81261 -1.62327 0
M  V30 4819 H 455.858 5.26508 0.09841 0
M  V30 4820 H 458.349 3.76427 -0.333294 0
M  V30 4821 H 458.662 7.6175 -1.30219 0
M  V30 4822 H 457.007 6.85179 -1.16425 0
M  V30 4823 H 460.198 4.65457 -0.496705 0
M  V30 4824 H 460.371 6.41171 -0.938306 0
M  V30 4825 N 453.777 0.010035 1.57597 0
M  V30 4826 C 455.005 -0.683413 1.95287 0
M  V30 4827 C 455.42 -1.66747 0.885481 0
M  V30 4828 O 454.777 -1.82003 -0.134629 0
M  V30 4829 C 454.828 -1.40652 3.33015 0
M  V30 4830 O 454.549 -0.461916 4.35658 0
M  V30 4831 C 456.05 -2.19356 3.85225 0
M  V30 4832 H 453.27 -0.189708 0.643624 0
M  V30 4833 H 455.814 0.0641359 2.04399 0
M  V30 4834 H 453.969 -2.10562 3.2518 0
M  V30 4835 H 454.383 -0.973215 5.15392 0
M  V30 4836 H 455.857 -2.65433 4.83993 0
M  V30 4837 H 456.334 -3.02457 3.18459 0
M  V30 4838 H 456.94 -1.54442 3.96267 0
M  V30 4839 N 455.255 -1.55392 -0.262866 0
M  V30 4840 C 456.185 -1.91978 -1.32917 0
M  V30 4841 C 457.166 -0.7828 -1.51017 0
M  V30 4842 O 458.351 -1.04178 -1.63892 0
M  V30 4843 C 455.481 -2.20055 -2.68687 0
M  V30 4844 C 454.435 -3.35854 -2.65304 0
M  V30 4845 C 453.761 -3.49435 -4.04721 0
M  V30 4846 C 455.061 -4.71977 -2.23685 0
M  V30 4847 H 456.755 -2.81292 -1.02544 0
M  V30 4848 H 454.301 -1.3534 -0.491846 0
M  V30 4849 H 456.254 -2.44237 -3.43404 0
M  V30 4850 H 454.978 -1.27551 -3.00663 0
M  V30 4851 H 453.637 -3.11655 -1.93045 0
M  V30 4852 H 453.285 -2.54379 -4.33936 0
M  V30 4853 H 452.985 -4.27297 -4.0335 0
M  V30 4854 H 454.509 -3.7592 -4.81161 0
M  V30 4855 H 455.923 -4.95637 -2.88127 0
M  V30 4856 H 454.32 -5.52828 -2.33456 0
M  V30 4857 H 455.39 -4.70115 -1.18827 0
M  V30 4858 N 456.733 0.527833 -1.48498 0
M  V30 4859 C 457.696 1.61439 -1.62696 0
M  V30 4860 C 458.696 1.52824 -0.500136 0
M  V30 4861 O 459.886 1.56456 -0.765976 0
M  V30 4862 C 457.018 3.01063 -1.59918 0
M  V30 4863 H 458.211 1.50189 -2.59583 0
M  V30 4864 H 455.764 0.750055 -1.37127 0
M  V30 4865 H 456.499 3.17818 -0.645163 0
M  V30 4866 H 456.284 3.08725 -2.41726 0
M  V30 4867 H 457.774 3.80057 -1.73051 0
M  V30 4868 N 458.211 1.37122 0.776871 0
M  V30 4869 C 459.174 1.32301 1.8716 0
M  V30 4870 C 460.174 0.228099 1.59174 0
M  V30 4871 O 461.364 0.483642 1.67352 0
M  V30 4872 C 458.496 1.054 3.24197 0
M  V30 4873 H 459.689 2.29673 1.92848 0
M  V30 4874 H 457.242 1.22077 0.97606 0
M  V30 4875 H 457.977 0.0853872 3.24188 0
M  V30 4876 H 457.762 1.84648 3.45901 0
M  V30 4877 H 459.252 1.04664 4.04271 0
M  V30 4878 N 459.689 -1.00246 1.21608 0
M  V30 4879 C 460.652 -2.07233 0.979133 0
M  V30 4880 C 461.652 -1.6072 -0.0508219 0
M  V30 4881 O 462.842 -1.73196 0.186712 0
M  V30 4882 C 459.974 -3.37546 0.477016 0
M  V30 4883 H 461.167 -2.29687 1.92831 0
M  V30 4884 H 458.72 -1.17261 1.03342 0
M  V30 4885 H 459.455 -3.20773 -0.476966 0
M  V30 4886 H 459.24 -3.72638 1.21997 0
M  V30 4887 H 460.73 -4.16285 0.331181 0
M  V30 4888 N 461.167 -1.02423 -1.1978 0
M  V30 4889 C 462.392 -0.7373 -1.93852 0
M  V30 4890 C 462.817 0.696923 -1.74713 0
M  V30 4891 O 462.175 1.48056 -1.04638 0
M  V30 4892 C 462.223 -1.08783 -3.438 0
M  V30 4893 O 461.327 -0.20383 -4.11896 0
M  V30 4894 H 460.668 -0.27284 -0.605355 0
M  V30 4895 H 463.198 -1.36966 -1.51992 0
M  V30 4896 H 463.208 -1.04276 -3.9445 0
M  V30 4897 H 461.883 -2.13274 -3.57053 0
M  V30 4898 H 460.46 -0.307091 -3.71633 0
M  V30 4899 N 462.645 1.35699 -0.801477 0
M  V30 4900 C 463.608 2.28199 -0.213994 0
M  V30 4901 C 464.608 1.49359 0.595691 0
M  V30 4902 O 465.798 1.69186 0.414921 0
M  V30 4903 C 462.93 3.33587 0.702297 0
M  V30 4904 H 464.123 2.81666 -1.02976 0
M  V30 4905 H 461.676 1.45467 -0.571759 0
M  V30 4906 H 462.411 2.85297 1.54195 0
M  V30 4907 H 462.196 3.91906 0.123484 0
M  V30 4908 H 463.686 4.02638 1.10783 0
M  V30 4909 O 464.162 0.695624 1.45751 0
M  V30 4910 H 464.853 0.234379 1.92277 0
M  V30 END ATOM
M  V30 BEGIN BOND
M  V30 END BOND
M  V30 END CTAB
M  END
$$$$
