drugbank_drug|DB05679 Ustekinumab heavy chain
 OpenBabel12092119123D

  0  0  0     0  0            999 V3000
M  V30 BEGIN CTAB
M  V30 COUNTS 3397 3442 0 0 0
M  V30 BEGIN ATOM
M  V30 1 H -0.908 1.98254 -0.117106 0
M  V30 2 N 0 1.576 0 0
M  V30 3 C 0.91 2.11853 1.00774 0
M  V30 4 C 1.926 1.06379 1.37693 0
M  V30 5 O 3.102 1.3828 1.46426 0
M  V30 6 C 0.167 2.61108 2.28087 0
M  V30 7 C -0.772 3.81183 1.9748 0
M  V30 8 C -1.539 4.28079 3.18723 0
M  V30 9 O -1.316 3.74307 4.30407 0
M  V30 10 O -2.382 5.20234 3.02721 0
M  V30 11 H 1.444 2.98177 0.576547 0
M  V30 12 H -0.971 1.47789 0.218828 0
M  V30 13 H 0.911 2.92987 3.0288 0
M  V30 14 H -0.414 1.77881 2.70444 0
M  V30 15 H -1.507 3.54277 1.20162 0
M  V30 16 H -0.174 4.65482 1.5996 0
M  V30 17 N 1.4781 -0.272755 1.55222 0
M  V30 18 C 2.7241 -1.00581 1.761 0
M  V30 19 C 3.0571 -1.85932 0.560625 0
M  V30 20 O 2.3321 -1.89416 -0.441801 0
M  V30 21 C 2.6151 -1.88816 3.06628 0
M  V30 22 C 2.4681 -1.06457 4.37021 0
M  V30 23 C 3.7871 -2.8752 3.33197 0
M  V30 24 H 0.9061 -0.364244 0.640699 0
M  V30 25 H 3.5481 -0.278189 1.87952 0
M  V30 26 H 1.6981 -2.50856 2.96654 0
M  V30 27 H 3.3701 -0.464863 4.58952 0
M  V30 28 H 1.6131 -0.368043 4.32236 0
M  V30 29 H 2.2841 -1.71514 5.24678 0
M  V30 30 H 4.7601 -2.35615 3.42965 0
M  V30 31 H 3.6361 -3.46399 4.25792 0
M  V30 32 H 3.8971 -3.62657 2.52849 0
M  V30 33 N 2.9562 -1.48159 -0.537278 0
M  V30 34 C 3.8882 -1.58218 -1.65831 0
M  V30 35 C 4.9012 -0.466948 -1.5596 0
M  V30 36 O 6.0902 -0.73747 -1.62553 0
M  V30 37 C 3.1902 -1.48906 -3.04434 0
M  V30 38 C 2.3632 -2.75343 -3.3986 0
M  V30 39 C 1.4222 -2.59588 -4.57712 0
M  V30 40 O 0.4482 -3.33457 -4.61297 0
M  V30 41 N 1.6502 -1.68724 -5.55439 0
M  V30 42 H 4.4152 -2.54891 -1.57641 0
M  V30 43 H 1.9762 -1.4479 -0.724386 0
M  V30 44 H 3.9682 -1.36072 -3.81139 0
M  V30 45 H 2.5382 -0.602368 -3.06741 0
M  V30 46 H 1.7582 -3.02795 -2.52406 0
M  V30 47 H 3.0462 -3.5924 -3.60311 0
M  V30 48 H 2.4442 -1.07898 -5.55315 0
M  V30 49 H 1.0012 -1.61832 -6.3139 0
M  V30 50 N 4.4343 0.785586 -1.36625 0
M  V30 51 C 5.3643 1.91259 -1.33949 0
M  V30 52 C 6.3453 1.68795 -0.210325 0
M  V30 53 O 7.5303 1.89854 -0.408561 0
M  V30 54 C 4.6603 3.28339 -1.13186 0
M  V30 55 C 3.6143 3.65335 -2.22967 0
M  V30 56 C 2.9403 5.00806 -1.87342 0
M  V30 57 C 4.2403 3.7352 -3.65075 0
M  V30 58 H 5.9343 1.93755 -2.28253 0
M  V30 59 H 3.4803 0.930788 -1.09874 0
M  V30 60 H 5.4333 4.06804 -1.09948 0
M  V30 61 H 4.1573 3.2624 -0.153332 0
M  V30 62 H 2.8163 2.89169 -2.25337 0
M  V30 63 H 2.4643 4.95233 -0.880545 0
M  V30 64 H 2.1643 5.26529 -2.60846 0
M  V30 65 H 3.6883 5.81687 -1.85667 0
M  V30 66 H 5.1023 4.42168 -3.64911 0
M  V30 67 H 3.4993 4.10731 -4.37516 0
M  V30 68 H 4.5693 2.74527 -3.99703 0
M  V30 69 N 5.9124 1.20967 1.01018 0
M  V30 70 C 7.1584 1.02526 1.74975 0
M  V30 71 C 7.4914 -0.4408 1.89131 0
M  V30 72 O 6.7664 -1.32718 1.42184 0
M  V30 73 C 7.0494 1.71699 3.1653 0
M  V30 74 C 6.9024 3.25791 3.10129 0
M  V30 75 C 8.2214 1.45531 4.15342 0
M  V30 76 H 5.3404 0.373863 0.635134 0
M  V30 77 H 7.9824 1.49071 1.17805 0
M  V30 78 H 6.1324 1.32128 3.65341 0
M  V30 79 H 7.8044 3.74697 2.69072 0
M  V30 80 H 6.0474 3.56363 2.47362 0
M  V30 81 H 6.7184 3.69353 4.10222 0
M  V30 82 H 9.1944 1.79872 3.75213 0
M  V30 83 H 8.0704 1.96453 5.1254 0
M  V30 84 H 8.3314 0.384237 4.40427 0
M  V30 85 N 7.3905 -1.2043 1.01659 0
M  V30 86 C 8.3225 -2.22626 0.544988 0
M  V30 87 C 9.3355 -1.58479 -0.372609 0
M  V30 88 O 10.5245 -1.77679 -0.170958 0
M  V30 89 C 7.6245 -3.38141 -0.22663 0
M  V30 90 C 6.7975 -4.31877 0.692876 0
M  V30 91 C 5.8565 -5.26191 -0.0311616 0
M  V30 92 O 4.8825 -5.6612 0.591343 0
M  V30 93 N 6.0845 -5.65618 -1.30601 0
M  V30 94 H 8.8495 -2.63716 1.42388 0
M  V30 95 H 6.4105 -1.34971 0.894116 0
M  V30 96 H 8.4025 -3.98239 -0.72024 0
M  V30 97 H 6.9725 -2.95943 -1.00681 0
M  V30 98 H 6.1925 -3.69746 1.36679 0
M  V30 99 H 7.4805 -4.91426 1.31824 0
M  V30 100 H 6.8785 -5.3519 -1.83269 0
M  V30 101 H 5.4355 -6.28025 -1.74435 0
M  V30 102 N 8.8686 -0.792821 -1.36206 0
M  V30 103 C 10.0936 -0.377701 -2.03932 0
M  V30 104 C 10.5186 0.998947 -1.59382 0
M  V30 105 O 9.8766 1.64421 -0.763903 0
M  V30 106 C 9.9246 -0.453635 -3.57735 0
M  V30 107 O 9.0286 0.538151 -4.08874 0
M  V30 108 H 8.3696 -0.159855 -0.644471 0
M  V30 109 H 10.8996 -1.07488 -1.7409 0
M  V30 110 H 10.9096 -0.318464 -4.06755 0
M  V30 111 H 9.5846 -1.45784 -3.89512 0
M  V30 112 H 8.1616 0.364359 -3.71116 0
M  V30 113 N 10.3467 1.47872 -0.545128 0
M  V30 114 C 11.5947 2.02093 -0.016553 0
M  V30 115 C 11.9157 1.42305 1.3332 0
M  V30 116 O 11.1857 0.593853 1.86682 0
M  V30 117 H 9.7657 0.746993 -0.00313038 0
M  V30 118 H 12.4277 1.81414 -0.712397 0
M  V30 119 H 11.5237 3.11996 0.0805422 0
M  V30 120 N 11.8248 0.280983 1.55075 0
M  V30 121 C 12.7878 -0.590896 2.21452 0
M  V30 122 C 13.7878 -1.07682 1.19421 0
M  V30 123 O 14.9778 -0.97605 1.44288 0
M  V30 124 C 12.1098 -1.81587 2.88511 0
M  V30 125 H 13.3028 -0.0112554 2.99898 0
M  V30 126 H 10.8558 0.0316438 1.56268 0
M  V30 127 H 11.5908 -2.43587 2.14093 0
M  V30 128 H 11.3758 -1.4753 3.63287 0
M  V30 129 H 12.8658 -2.43575 3.39206 0
M  V30 130 N 13.3029 -1.57598 0.00835791 0
M  V30 131 C 14.2129 -2.12385 -0.996487 0
M  V30 132 C 15.2289 -1.07108 -1.37127 0
M  V30 133 O 16.4049 -1.39055 -1.4569 0
M  V30 134 C 13.4699 -2.62314 -2.26699 0
M  V30 135 C 12.5309 -3.82225 -1.95456 0
M  V30 136 C 11.7639 -4.29763 -3.16449 0
M  V30 137 O 11.9869 -3.76584 -4.28416 0
M  V30 138 O 10.9209 -5.21832 -2.99958 0
M  V30 139 H 14.7469 -2.98479 -0.560725 0
M  V30 140 H 12.3319 -1.47903 -0.210987 0
M  V30 141 H 14.2139 -2.94589 -3.01322 0
M  V30 142 H 12.8889 -1.79313 -2.69497 0
M  V30 143 H 11.7959 -3.54909 -1.18282 0
M  V30 144 H 13.1289 -4.66324 -1.57489 0
M  V30 145 N 14.781 0.264519 -1.55364 0
M  V30 146 C 16.027 0.99646 -1.76631 0
M  V30 147 C 16.36 1.85632 -0.570478 0
M  V30 148 O 15.635 1.89647 0.43175 0
M  V30 149 C 15.918 1.87187 -3.07625 0
M  V30 150 C 15.771 1.04138 -4.37579 0
M  V30 151 C 17.09 2.85749 -3.34717 0
M  V30 152 H 14.209 0.360841 -0.642622 0
M  V30 153 H 16.851 0.268218 -1.88097 0
M  V30 154 H 15.001 2.49279 -2.9798 0
M  V30 155 H 16.673 0.440517 -4.59192 0
M  V30 156 H 14.916 0.345115 -4.32425 0
M  V30 157 H 15.587 1.68729 -5.2558 0
M  V30 158 H 18.063 2.33793 -3.4421 0
M  V30 159 H 16.939 3.44136 -4.27623 0
M  V30 160 H 17.2 3.61311 -2.54768 0
M  V30 161 N 16.2591 1.48442 0.529413 0
M  V30 162 C 17.2061 1.63007 1.63394 0
M  V30 163 C 18.1761 0.47212 1.59249 0
M  V30 164 O 19.3611 0.695673 1.77666 0
M  V30 165 C 16.5011 1.6763 3.01653 0
M  V30 166 C 15.6141 2.94535 3.16027 0
M  V30 167 C 14.7491 2.90316 4.44849 0
M  V30 168 C 13.7881 4.11923 4.52754 0
M  V30 169 N 12.9251 4.05777 5.72965 0
M  V30 170 H 17.7651 2.5733 1.50285 0
M  V30 171 H 15.3021 1.27613 0.731656 0
M  V30 172 H 17.2601 1.68292 3.81751 0
M  V30 173 H 15.8901 0.76797 3.13532 0
M  V30 174 H 14.9421 3.03615 2.29177 0
M  V30 175 H 16.2541 3.84512 3.17729 0
M  V30 176 H 15.4081 2.89382 5.33238 0
M  V30 177 H 14.1471 1.98068 4.45668 0
M  V30 178 H 13.1521 4.13131 3.62771 0
M  V30 179 H 14.3771 5.0533 4.53672 0
M  V30 180 H 12.3231 3.16351 5.74681 0
M  V30 181 H 12.2401 4.8946 5.76164 0
M  V30 182 H 13.5081 4.08904 6.6364 0
M  V30 183 N 17.7372 -0.778329 1.37039 0
M  V30 184 C 18.6842 -1.89139 1.32269 0
M  V30 185 C 19.6542 -1.65017 0.189387 0
M  V30 186 O 20.8392 -1.87024 0.377693 0
M  V30 187 C 17.9792 -3.26112 1.12894 0
M  V30 188 C 17.0922 -3.62233 2.35396 0
M  V30 189 C 16.2272 -4.8838 2.08946 0
M  V30 190 C 15.2662 -5.17212 3.2735 0
M  V30 191 N 14.4032 -6.34546 3.00492 0
M  V30 192 H 19.2432 -1.92552 2.27437 0
M  V30 193 H 16.7802 -0.941473 1.13025 0
M  V30 194 H 18.7382 -4.05116 0.996835 0
M  V30 195 H 17.3682 -3.22091 0.213758 0
M  V30 196 H 16.4202 -2.78265 2.5937 0
M  V30 197 H 17.7322 -3.79481 3.23721 0
M  V30 198 H 16.8862 -5.75274 1.92729 0
M  V30 199 H 15.6252 -4.73222 1.17949 0
M  V30 200 H 14.6302 -4.28796 3.44113 0
M  V30 201 H 15.8552 -5.34283 4.19188 0
M  V30 202 H 13.8012 -6.20759 2.12118 0
M  V30 203 H 13.7182 -6.52179 3.82358 0
M  V30 204 H 14.9862 -7.24394 2.87879 0
M  V30 205 N 19.2153 -1.21501 -1.00376 0
M  V30 206 C 20.6263 -1.03146 -1.55621 0
M  V30 207 C 20.9773 0.408375 -1.91903 0
M  V30 208 O 20.1023 1.29177 -1.73616 0
M  V30 209 C 20.6973 -1.86612 -2.82775 0
M  V30 210 C 19.2563 -1.72586 -3.34501 0
M  V30 211 C 18.4033 -1.83747 -2.07683 0
M  V30 212 H 21.3543 -1.35505 -0.826081 0
M  V30 213 H 21.3753 -1.3771 -3.54706 0
M  V30 214 H 20.8873 -2.91399 -2.56336 0
M  V30 215 H 18.9883 -0.704877 -3.65872 0
M  V30 216 H 19.1013 -2.54623 -4.05837 0
M  V30 217 H 17.4653 -1.27069 -2.20739 0
M  V30 218 H 18.2483 -2.90044 -1.83655 0
M  V30 219 N 20.6934 1.19889 -1.02296 0
M  V30 220 C 21.9414 1.89046 -0.714558 0
M  V30 221 C 22.2624 1.79636 0.758681 0
M  V30 222 O 21.5324 1.20292 1.54618 0
M  V30 223 H 20.1124 0.699802 -0.261317 0
M  V30 224 H 22.7744 1.45574 -1.29592 0
M  V30 225 H 21.8704 2.95524 -1.0036 0
M  V30 226 N 22.1715 0.800033 1.35784 0
M  V30 227 C 23.0815 0.207204 2.33683 0
M  V30 228 C 24.0975 -0.64631 1.61551 0
M  V30 229 O 25.2735 -0.559604 1.93469 0
M  V30 230 C 22.3385 -0.639659 3.40748 0
M  V30 231 C 21.3995 0.233585 4.28664 0
M  V30 232 C 20.6325 -0.572954 5.30616 0
M  V30 233 O 20.8555 -1.80816 5.40982 0
M  V30 234 O 19.7895 0.0327285 6.01891 0
M  V30 235 H 23.6155 1.01692 2.86169 0
M  V30 236 H 21.2005 0.561691 1.38439 0
M  V30 237 H 23.0825 -1.12223 4.06182 0
M  V30 238 H 21.7575 -1.42708 2.90544 0
M  V30 239 H 20.6645 0.763147 3.66233 0
M  V30 240 H 21.9975 0.984784 4.82248 0
M  V30 241 N 23.6496 -1.47581 0.552962 0
M  V30 242 C 24.8746 -2.07378 0.0300593 0
M  V30 243 C 25.2996 -1.40355 -1.25229 0
M  V30 244 O 24.6576 -0.477099 -1.7491 0
M  V30 245 C 24.7056 -3.60274 -0.153231 0
M  V30 246 O 23.8096 -3.94041 -1.21678 0
M  V30 247 H 23.1506 -0.662158 0.0494182 0
M  V30 248 H 25.6806 -1.89662 0.767434 0
M  V30 249 H 25.6906 -4.0633 -0.368761 0
M  V30 250 H 24.3656 -4.08455 0.783397 0
M  V30 251 H 22.9426 -3.59735 -0.982079 0
M  V30 252 N 25.1277 -0.289203 -1.54924 0
M  V30 253 C 26.0577 0.58549 -2.2604 0
M  V30 254 C 27.0387 1.14753 -1.25562 0
M  V30 255 O 28.2237 1.17906 -1.54311 0
M  V30 256 C 25.3537 1.76305 -2.99222 0
M  V30 257 C 24.3077 1.33191 -4.06748 0
M  V30 258 C 23.6337 2.5937 -4.6758 0
M  V30 259 C 24.9337 0.471775 -5.20165 0
M  V30 260 H 26.6277 -0.00763532 -2.99399 0
M  V30 261 H 24.1737 -0.00511229 -1.43999 0
M  V30 262 H 26.1267 2.38097 -3.47689 0
M  V30 263 H 24.8507 2.38223 -2.23422 0
M  V30 264 H 23.5097 0.737121 -3.59113 0
M  V30 265 H 23.1577 3.19576 -3.88433 0
M  V30 266 H 22.8577 2.31228 -5.40192 0
M  V30 267 H 24.3817 3.21985 -5.18804 0
M  V30 268 H 25.7957 0.995056 -5.64599 0
M  V30 269 H 24.1927 0.284639 -5.99425 0
M  V30 270 H 25.2627 -0.506041 -4.82252 0
M  V30 271 N 26.6058 1.57591 -0.0167156 0
M  V30 272 C 27.5528 2.09462 0.969251 0
M  V30 273 C 28.5228 0.99381 1.33089 0
M  V30 274 O 29.7078 1.26726 1.42636 0
M  V30 275 C 26.8478 2.61622 2.25051 0
M  V30 276 C 25.9608 3.85666 1.94642 0
M  V30 277 C 25.0958 4.26266 3.16972 0
M  V30 278 C 24.1348 5.43101 2.82326 0
M  V30 279 N 23.2718 5.78915 3.97243 0
M  V30 280 H 28.1118 2.93428 0.519997 0
M  V30 281 H 25.6488 1.45044 0.245087 0
M  V30 282 H 27.6068 2.89949 2.99976 0
M  V30 283 H 26.2368 1.80505 2.67615 0
M  V30 284 H 25.2888 3.64145 1.10013 0
M  V30 285 H 26.6008 4.70678 1.65117 0
M  V30 286 H 25.7548 4.55963 4.00228 0
M  V30 287 H 24.4938 3.39996 3.49648 0
M  V30 288 H 23.4988 5.1311 1.97479 0
M  V30 289 H 24.7238 6.3106 2.50879 0
M  V30 290 H 22.6698 4.95602 4.29785 0
M  V30 291 H 22.5868 6.58539 3.71299 0
M  V30 292 H 23.8548 6.13212 4.81239 0
M  V30 293 N 28.0839 -0.256276 1.55502 0
M  V30 294 C 29.3329 -0.983486 1.76098 0
M  V30 295 C 29.6459 -1.86837 0.578896 0
M  V30 296 O 30.8519 -2.63163 0.667648 0
M  V30 297 C 29.3079 -1.79868 3.1173 0
M  V30 298 C 28.9159 -0.961648 4.37557 0
M  V30 299 C 30.6599 -2.51919 3.41668 0
M  V30 300 C 28.5669 -1.77219 5.64223 0
M  V30 301 H 27.4969 -0.370936 0.656447 0
M  V30 302 H 30.1479 -0.238492 1.81944 0
M  V30 303 H 28.5299 -2.58527 2.99966 0
M  V30 304 H 29.7039 -0.218048 4.60284 0
M  V30 305 H 28.0189 -0.354913 4.14885 0
M  V30 306 H 30.6159 -3.12998 4.33516 0
M  V30 307 H 30.9589 -3.23059 2.62562 0
M  V30 308 H 31.4919 -1.80278 3.54605 0
M  V30 309 H 28.2309 -1.10471 6.46124 0
M  V30 310 H 27.7509 -2.49132 5.45613 0
M  V30 311 H 29.4299 -2.34169 6.03137 0
M  V30 312 N 29.562 -1.4872 -0.521534 0
M  V30 313 C 30.787 -1.61101 -1.30618 0
M  V30 314 C 31.212 -0.274611 -1.86085 0
M  V30 315 O 30.57 0.754937 -1.64834 0
M  V30 316 C 30.618 -2.66709 -2.4269 0
M  V30 317 O 29.722 -2.24456 -3.45967 0
M  V30 318 H 29.063 -0.539921 -0.386499 0
M  V30 319 H 31.593 -1.94767 -0.626645 0
M  V30 320 H 31.603 -2.88245 -2.88754 0
M  V30 321 H 30.278 -3.63727 -2.01682 0
M  V30 322 H 28.855 -2.13168 -3.05964 0
M  V30 323 N 31.0401 0.771051 -1.3745 0
M  V30 324 C 32.2801 1.54264 -1.34096 0
M  V30 325 C 32.6441 1.91858 0.0737639 0
M  V30 326 O 33.8451 2.67797 0.23203 0
M  V30 327 C 32.1161 2.77326 -2.25445 0
M  V30 328 S 33.6751 3.67383 -2.39948 0
M  V30 329 H 30.4931 0.528122 -0.476034 0
M  V30 330 H 33.0951 0.906633 -1.73206 0
M  V30 331 H 31.7991 2.47788 -3.27153 0
M  V30 332 H 31.3301 3.45886 -1.87421 0
M  V30 333 H 33.3451 4.69334 -1.61059 0
M  V30 334 N 32.5182 1.22032 0.997298 0
M  V30 335 C 33.4652 0.986467 2.08656 0
M  V30 336 C 34.4352 -0.0902671 1.65855 0
M  V30 337 O 35.6202 0.0584294 1.90711 0
M  V30 338 C 32.7602 0.565569 3.40434 0
M  V30 339 C 31.8732 1.71259 3.96604 0
M  V30 340 C 31.0082 1.24011 5.16522 0
M  V30 341 C 30.0472 2.35896 5.64818 0
M  V30 342 N 29.1842 1.89726 6.7598 0
M  V30 343 H 34.0242 1.91892 2.27994 0
M  V30 344 H 31.5612 0.956199 1.11782 0
M  V30 345 H 33.5192 0.302738 4.161 0
M  V30 346 H 32.1492 -0.329879 3.2111 0
M  V30 347 H 31.2012 2.08986 3.17851 0
M  V30 348 H 32.5132 2.55436 4.28432 0
M  V30 349 H 31.6672 0.934395 5.99461 0
M  V30 350 H 30.4062 0.368487 4.86306 0
M  V30 351 H 29.4112 2.67261 4.8047 0
M  V30 352 H 30.6362 3.23567 5.97061 0
M  V30 353 H 28.5822 1.0492 6.47555 0
M  V30 354 H 28.4992 2.67471 7.07103 0
M  V30 355 H 29.7672 1.62211 7.62435 0
M  V30 356 N 33.9963 -1.19345 1.0293 0
M  V30 357 C 35.2443 -1.88665 0.724574 0
M  V30 358 C 35.5653 -1.80036 -0.749144 0
M  V30 359 O 34.8353 -1.2111 -1.53978 0
M  V30 360 H 33.4153 -0.698406 0.265025 0
M  V30 361 H 36.0773 -1.44885 1.30362 0
M  V30 362 H 35.1733 -2.94987 1.01926 0
M  V30 363 N 35.4744 -0.807222 -1.35358 0
M  V30 364 C 36.6994 -0.399309 -2.0352 0
M  V30 365 C 37.1244 0.981986 -1.60433 0
M  V30 366 O 36.4824 1.63601 -0.781299 0
M  V30 367 C 36.5304 -0.491552 -3.57234 0
M  V30 368 O 35.6344 0.494754 -4.09421 0
M  V30 369 H 34.9754 -0.166682 -0.642739 0
M  V30 370 H 37.5054 -1.09328 -1.72941 0
M  V30 371 H 37.5154 -0.361588 -4.06395 0
M  V30 372 H 36.1904 -1.49907 -3.87944 0
M  V30 373 H 34.7674 0.324977 -3.71481 0
M  V30 374 N 36.9525 1.47285 -0.560781 0
M  V30 375 C 38.2005 2.02064 -0.0379868 0
M  V30 376 C 38.5215 1.43711 1.31803 0
M  V30 377 O 37.7915 0.61362 1.86042 0
M  V30 378 H 36.3715 0.746918 -0.0110531 0
M  V30 379 H 39.0335 1.80648 -0.731598 0
M  V30 380 H 38.1295 3.12064 0.0474463 0
M  V30 381 N 38.4306 0.297415 1.54768 0
M  V30 382 C 39.6606 -0.315165 2.04182 0
M  V30 383 C 40.0686 -1.4834 1.17439 0
M  V30 384 O 39.4116 -1.82695 0.191891 0
M  V30 385 C 39.4736 -0.837583 3.49607 0
M  V30 386 C 39.1376 0.204912 4.5654 0
M  V30 387 C 40.1346 1.03214 5.09552 0
M  V30 388 C 37.8196 0.345578 5.0111 0
M  V30 389 C 39.8136 1.986 6.05671 0
M  V30 390 C 37.5006 1.30289 5.97049 0
M  V30 391 C 38.4986 2.12159 6.49213 0
M  V30 392 O 38.1866 3.06268 7.43273 0
M  V30 393 H 37.9186 -0.0729646 0.672051 0
M  V30 394 H 40.4726 0.433907 2.00765 0
M  V30 395 H 38.7026 -1.63712 3.50336 0
M  V30 396 H 40.3916 -1.36566 3.82236 0
M  V30 397 H 41.1576 0.934312 4.75916 0
M  V30 398 H 37.0366 -0.28171 4.60138 0
M  V30 399 H 40.5806 2.62542 6.46311 0
M  V30 400 H 36.4776 1.40145 6.30103 0
M  V30 401 H 37.2456 3.01205 7.61064 0
M  V30 402 N 39.9087 -1.5758 0.0250728 0
M  V30 403 C 41.1337 -1.96337 -0.668317 0
M  V30 404 C 41.5587 -0.901314 -1.651 0
M  V30 405 O 40.9167 0.138187 -1.80773 0
M  V30 406 C 40.9647 -3.34191 -1.35457 0
M  V30 407 O 40.0687 -3.30269 -2.46974 0
M  V30 408 H 39.4097 -0.640281 -0.175887 0
M  V30 409 H 41.9397 -2.0442 0.0857224 0
M  V30 410 H 41.9497 -3.70331 -1.71228 0
M  V30 411 H 40.6247 -4.11036 -0.634218 0
M  V30 412 H 39.2017 -3.05841 -2.13344 0
M  V30 413 N 41.3868 0.248026 -1.55636 0
M  V30 414 C 42.6338 0.976224 -1.77415 0
M  V30 415 C 42.9618 1.85361 -0.589193 0
M  V30 416 O 42.2168 1.90973 0.427529 0
M  V30 417 C 42.5158 1.86819 -3.04686 0
M  V30 418 C 42.1818 1.14625 -4.36087 0
M  V30 419 C 40.8438 0.946723 -4.71795 0
M  V30 420 C 43.1958 0.634463 -5.17324 0
M  V30 421 C 40.5238 0.223091 -5.86276 0
M  V30 422 C 42.8758 -0.0756959 -6.32555 0
M  V30 423 C 41.5398 -0.286711 -6.66884 0
M  V30 424 H 40.8098 0.357226 -0.649208 0
M  V30 425 H 43.4568 0.246415 -1.89908 0
M  V30 426 H 41.7618 2.66502 -2.872 0
M  V30 427 H 43.4588 2.43329 -3.18735 0
M  V30 428 H 40.0488 1.3117 -4.08035 0
M  V30 429 H 44.2328 0.77616 -4.90193 0
M  V30 430 H 39.4888 0.0491185 -6.1138 0
M  V30 431 H 43.6628 -0.479899 -6.94745 0
M  V30 432 H 41.2898 -0.849389 -7.5544 0
M  V30 433 N 42.8649 1.48995 0.513639 0
M  V30 434 C 44.0929 1.61531 1.29288 0
M  V30 435 C 44.5079 0.281801 1.86685 0
M  V30 436 O 43.8649 -0.731111 1.67215 0
M  V30 437 C 43.9159 2.67449 2.43215 0
M  V30 438 O 43.6369 3.95626 1.88179 0
M  V30 439 C 45.1379 2.90575 3.34785 0
M  V30 440 H 42.3579 0.544165 0.392588 0
M  V30 441 H 44.9019 1.9494 0.617956 0
M  V30 442 H 43.0569 2.36853 3.0656 0
M  V30 443 H 43.4709 4.53868 2.62876 0
M  V30 444 H 44.9449 3.68449 4.11035 0
M  V30 445 H 45.4219 2.00011 3.91015 0
M  V30 446 H 46.0279 3.22538 2.77218 0
M  V30 447 N 44.343 -0.763751 1.37857 0
M  V30 448 C 45.571 -1.55293 1.36718 0
M  V30 449 C 45.986 -1.88745 -0.0455434 0
M  V30 450 O 45.343 -1.52039 -1.00947 0
M  V30 451 C 45.394 -2.85831 2.2132 0
M  V30 452 O 45.115 -2.5381 3.57089 0
M  V30 453 C 46.616 -3.80023 2.28249 0
M  V30 454 H 43.836 -0.480841 0.468009 0
M  V30 455 H 46.38 -0.946009 1.81303 0
M  V30 456 H 44.535 -3.42926 1.80223 0
M  V30 457 H 44.949 -3.37459 4.01524 0
M  V30 458 H 46.423 -4.68599 2.91752 0
M  V30 459 H 46.9 -4.1973 1.2932 0
M  V30 460 H 47.506 -3.28855 2.69693 0
M  V30 461 N 45.8211 -1.22559 -0.990812 0
M  V30 462 C 47.0511 -1.07623 -1.76355 0
M  V30 463 C 47.4591 0.37601 -1.85426 0
M  V30 464 O 46.8021 1.27228 -1.32509 0
M  V30 465 C 46.8641 -1.61507 -3.21179 0
M  V30 466 C 46.5281 -3.10146 -3.35646 0
M  V30 467 C 47.5251 -4.07553 -3.22796 0
M  V30 468 C 45.2101 -3.49644 -3.60631 0
M  V30 469 C 47.2041 -5.42442 -3.34716 0
M  V30 470 C 44.8911 -4.84682 -3.72192 0
M  V30 471 C 45.8891 -5.8089 -3.59243 0
M  V30 472 O 45.5771 -7.13476 -3.70415 0
M  V30 473 H 45.3091 -0.377745 -0.560611 0
M  V30 474 H 47.8631 -1.62658 -1.25425 0
M  V30 475 H 46.0931 -1.00881 -3.73309 0
M  V30 476 H 47.7821 -1.42202 -3.80175 0
M  V30 477 H 48.5481 -3.78381 -3.03403 0
M  V30 478 H 44.4271 -2.75282 -3.69785 0
M  V30 479 H 47.9711 -6.17518 -3.24526 0
M  V30 480 H 43.8681 -5.13534 -3.91092 0
M  V30 481 H 44.6361 -7.21083 -3.87275 0
M  V30 482 N 47.2992 1.18797 -1.03562 0
M  V30 483 C 48.5452 1.89192 -0.746867 0
M  V30 484 C 48.9002 1.78531 0.717245 0
M  V30 485 O 48.1932 1.17137 1.51622 0
M  V30 486 C 48.3872 3.38692 -1.14117 0
M  V30 487 C 48.2162 3.63902 -2.64207 0
M  V30 488 C 46.9862 3.81553 -3.31279 0
M  V30 489 C 49.1842 3.64903 -3.62423 0
M  V30 490 N 47.1662 3.94455 -4.70402 0
M  V30 491 C 48.5372 3.83458 -4.87196 0
M  V30 492 C 50.5922 3.47965 -3.56125 0
M  V30 493 C 49.2952 3.86829 -6.06429 0
M  V30 494 C 51.3212 3.52616 -4.7478 0
M  V30 495 C 50.6832 3.71663 -5.9837 0
M  V30 496 H 46.7822 0.711141 -0.325273 0
M  V30 497 H 49.3662 1.42727 -1.32428 0
M  V30 498 H 47.5372 3.83864 -0.591889 0
M  V30 499 H 49.2692 3.96634 -0.803966 0
M  V30 500 H 46.0242 3.80723 -2.81686 0
M  V30 501 H 46.4482 4.0474 -5.42692 0
M  V30 502 H 51.0902 3.32189 -2.61553 0
M  V30 503 H 48.8082 4.01395 -7.01362 0
M  V30 504 H 52.3942 3.40791 -4.71543 0
M  V30 505 H 51.2742 3.75145 -6.88648 0
M  V30 506 N 48.7773 0.814389 1.34928 0
M  V30 507 C 49.7073 0.244827 2.32213 0
M  V30 508 C 50.6883 -0.634024 1.57842 0
M  V30 509 O 51.8733 -0.562676 1.8587 0
M  V30 510 C 49.0033 -0.601106 3.42058 0
M  V30 511 C 47.9573 0.179896 4.27622 0
M  V30 512 C 47.2833 -0.788237 5.28858 0
M  V30 513 C 48.5833 1.38329 5.03649 0
M  V30 514 H 50.2773 1.05763 2.80097 0
M  V30 515 H 47.8233 0.510029 1.34665 0
M  V30 516 H 49.7763 -1.00968 4.09125 0
M  V30 517 H 48.5003 -1.44688 2.92802 0
M  V30 518 H 47.1593 0.569739 3.62146 0
M  V30 519 H 46.8073 -1.62973 4.75866 0
M  V30 520 H 46.5073 -0.269942 5.8698 0
M  V30 521 H 48.0313 -1.19485 5.98795 0
M  V30 522 H 49.4453 1.04918 5.63618 0
M  V30 523 H 47.8423 1.83662 5.71304 0
M  V30 524 H 48.9123 2.16592 4.33839 0
M  V30 525 N 50.2554 -1.46986 0.568584 0
M  V30 526 C 51.5034 -2.02041 0.0487022 0
M  V30 527 C 51.8244 -1.44408 -1.31039 0
M  V30 528 O 51.0944 -0.623477 -1.85714 0
M  V30 529 H 49.6744 -0.746849 0.015014 0
M  V30 530 H 52.3364 -1.80257 0.741168 0
M  V30 531 H 51.4324 -3.12085 -0.0308961 0
M  V30 532 N 51.7335 -0.305618 -1.54608 0
M  V30 533 C 52.9795 0.295595 -2.01241 0
M  V30 534 C 53.3345 1.51171 -1.19018 0
M  V30 535 O 52.6275 1.89832 -0.259684 0
M  V30 536 C 52.8215 0.698983 -3.50498 0
M  V30 537 C 52.6505 -0.476491 -4.47168 0
M  V30 538 C 51.4205 -0.969963 -4.95903 0
M  V30 539 C 53.6185 -1.32294 -4.96994 0
M  V30 540 N 51.6005 -2.11172 -5.76437 0
M  V30 541 C 52.9715 -2.31212 -5.75275 0
M  V30 542 C 55.0265 -1.35278 -4.7917 0
M  V30 543 C 53.7295 -3.32896 -6.37631 0
M  V30 544 C 55.7555 -2.35823 -5.42348 0
M  V30 545 C 55.1175 -3.33469 -6.20466 0
M  V30 546 H 51.2165 0.0724992 -0.778632 0
M  V30 547 H 53.8005 -0.436583 -1.89742 0
M  V30 548 H 51.9715 1.40032 -3.62278 0
M  V30 549 H 53.7035 1.28013 -3.8392 0
M  V30 550 H 50.4585 -0.544178 -4.70463 0
M  V30 551 H 50.8825 -2.68714 -6.21387 0
M  V30 552 H 55.5245 -0.61157 -4.18354 0
M  V30 553 H 53.2425 -4.07933 -6.97579 0
M  V30 554 H 56.8285 -2.38911 -5.30484 0
M  V30 555 H 55.7085 -4.09996 -6.68485 0
M  V30 556 N 53.2116 1.57565 -0.0334293 0
M  V30 557 C 54.4576 1.92262 0.645226 0
M  V30 558 C 54.7906 0.910543 1.71531 0
M  V30 559 O 54.0656 -0.066099 1.94388 0
M  V30 560 C 54.3486 3.37422 1.2577 0
M  V30 561 C 54.2016 4.49369 0.196891 0
M  V30 562 C 55.5206 3.82628 2.17449 0
M  V30 563 H 52.6396 0.699171 0.233085 0
M  V30 564 H 55.2816 1.89779 -0.0915694 0
M  V30 565 H 53.4316 3.39669 1.88566 0
M  V30 566 H 55.1036 4.59254 -0.433962 0
M  V30 567 H 53.3466 4.31168 -0.477137 0
M  V30 568 H 54.0176 5.47978 0.665124 0
M  V30 569 H 56.4936 3.82145 1.64634 0
M  V30 570 H 55.3696 4.84883 2.57254 0
M  V30 571 H 55.6306 3.18376 3.0674 0
M  V30 572 N 54.6897 -0.239769 1.55765 0
M  V30 573 C 56.1057 -0.588624 1.48349 0
M  V30 574 C 56.3057 -1.88005 0.72502 0
M  V30 575 O 55.3617 -2.51186 0.257269 0
M  V30 576 C 56.6747 -0.68474 2.928 0
M  V30 577 C 58.2227 -0.77659 3.03213 0
M  V30 578 C 58.6977 -0.904207 4.48986 0
M  V30 579 N 60.1887 -0.968896 4.52953 0
M  V30 580 C 60.9237 -1.08703 5.63002 0
M  V30 581 N 60.4197 -1.17026 6.82845 0
M  V30 582 N 62.2127 -1.12074 5.50814 0
M  V30 583 H 54.3637 0.607911 2.03515 0
M  V30 584 H 56.6267 0.21083 0.924259 0
M  V30 585 H 56.3327 0.194284 3.51163 0
M  V30 586 H 56.2067 -1.55435 3.43686 0
M  V30 587 H 58.5937 -1.64606 2.44926 0
M  V30 588 H 58.6747 0.118315 2.55526 0
M  V30 589 H 58.3187 -0.0392633 5.07885 0
M  V30 590 H 58.2487 -1.81426 4.9436 0
M  V30 591 H 60.7397 -0.915633 3.6664 0
M  V30 592 H 61.0527 -1.25966 7.62465 0
M  V30 593 H 59.3977 -1.13971 6.85591 0
M  V30 594 H 62.5887 -1.05226 4.5612 0
M  V30 595 H 62.7617 -1.20936 6.36615 0
M  V30 596 N 56.1678 -1.49265 -0.50573 0
M  V30 597 C 57.0998 -1.617 -1.62437 0
M  V30 598 C 58.1128 -0.499924 -1.54934 0
M  V30 599 O 59.3018 -0.771785 -1.60953 0
M  V30 600 C 56.4018 -1.5533 -3.01207 0
M  V30 601 C 55.5748 -2.8249 -3.33943 0
M  V30 602 C 54.6338 -2.69238 -4.52103 0
M  V30 603 O 53.6598 -3.43167 -4.5412 0
M  V30 604 N 54.8618 -1.80468 -5.51735 0
M  V30 605 H 57.6268 -2.58177 -1.52199 0
M  V30 606 H 55.1878 -1.46294 -0.693511 0
M  V30 607 H 57.1798 -1.44125 -3.78167 0
M  V30 608 H 55.7498 -0.667297 -3.05395 0
M  V30 609 H 54.9698 -3.08081 -2.45926 0
M  V30 610 H 56.2578 -3.66802 -3.5261 0
M  V30 611 H 55.6558 -1.19653 -5.52901 0
M  V30 612 H 54.2128 -1.75188 -6.27816 0
M  V30 613 N 57.6459 0.756429 -1.3826 0
M  V30 614 C 58.5789 1.87802 -1.29637 0
M  V30 615 C 59.5569 1.61667 -0.173939 0
M  V30 616 O 60.7409 1.85208 -0.350775 0
M  V30 617 C 57.8679 3.23354 -1.00797 0
M  V30 618 C 56.9139 3.68379 -2.14939 0
M  V30 619 S 57.7469 3.8025 -3.77054 0
M  V30 620 C 58.9029 5.18626 -3.50396 0
M  V30 621 H 59.1359 1.94829 -2.24564 0
M  V30 622 H 56.6689 0.919117 -1.24063 0
M  V30 623 H 58.6269 4.01637 -0.848413 0
M  V30 624 H 57.2879 3.14008 -0.0759369 0
M  V30 625 H 56.4809 4.66693 -1.90299 0
M  V30 626 H 56.0829 2.97242 -2.26988 0
M  V30 627 H 58.3749 6.04289 -3.06334 0
M  V30 628 H 59.3179 5.48286 -4.48094 0
M  V30 629 H 59.7259 4.87289 -2.84973 0
M  V30 630 N 59.124 1.23083 0.984299 0
M  V30 631 C 60.535 1.05609 1.5396 0
M  V30 632 C 60.886 -0.377793 1.92528 0
M  V30 633 O 60.011 -1.26398 1.75649 0
M  V30 634 C 60.606 1.91087 2.7977 0
M  V30 635 C 59.165 1.77885 3.31713 0
M  V30 636 C 58.312 1.87028 2.04733 0
M  V30 637 H 61.263 1.36802 0.804419 0
M  V30 638 H 61.284 1.43336 3.5247 0
M  V30 639 H 60.796 2.9544 2.51668 0
M  V30 640 H 58.897 0.762995 3.64704 0
M  V30 641 H 59.01 2.61047 4.01735 0
M  V30 642 H 57.374 1.30565 2.18689 0
M  V30 643 H 58.157 2.92929 1.79017 0
M  V30 644 N 60.6021 -1.18246 1.0419 0
M  V30 645 C 61.8501 -1.87886 0.744543 0
M  V30 646 C 62.1711 -1.8082 -0.730006 0
M  V30 647 O 61.4411 -1.22736 -1.52685 0
M  V30 648 H 60.0211 -0.695556 0.272417 0
M  V30 649 H 62.6831 -1.43494 1.31892 0
M  V30 650 H 61.7791 -2.9389 1.05049 0
M  V30 651 N 62.0802 -0.821533 -1.34494 0
M  V30 652 C 63.0272 -0.240397 -2.29545 0
M  V30 653 C 63.9972 0.634031 -1.53523 0
M  V30 654 O 65.1822 0.575966 -1.81899 0
M  V30 655 C 62.3222 0.592869 -3.39969 0
M  V30 656 C 61.4352 -0.30365 -4.30932 0
M  V30 657 C 60.5702 0.539049 -5.28458 0
M  V30 658 C 59.6092 -0.356942 -6.11058 0
M  V30 659 N 58.7462 0.446603 -7.00678 0
M  V30 660 H 63.5862 -1.05632 -2.7865 0
M  V30 661 H 61.1232 -0.532413 -1.37127 0
M  V30 662 H 63.0812 1.09129 -4.02675 0
M  V30 663 H 61.7112 1.37392 -2.92102 0
M  V30 664 H 60.7632 -0.920276 -3.691 0
M  V30 665 H 62.0752 -0.992661 -4.88823 0
M  V30 666 H 61.2292 1.102 -5.96608 0
M  V30 667 H 59.9682 1.26157 -4.71101 0
M  V30 668 H 58.9732 -0.932047 -5.41842 0
M  V30 669 H 60.1982 -1.07755 -6.70497 0
M  V30 670 H 58.1442 1.15282 -6.45791 0
M  V30 671 H 58.0612 -0.184048 -7.55776 0
M  V30 672 H 59.3292 0.992352 -7.73158 0
M  V30 673 N 63.5583 1.46682 -0.576371 0
M  V30 674 C 64.8063 2.02013 -0.0594163 0
M  V30 675 C 65.1273 1.45101 1.30271 0
M  V30 676 O 64.3973 0.633317 1.8538 0
M  V30 677 H 62.9773 0.746759 -0.0189745 0
M  V30 678 H 65.6393 1.79862 -0.750717 0
M  V30 679 H 64.7353 3.12097 0.014345 0
M  V30 680 N 65.0364 0.313813 1.54444 0
M  V30 681 C 65.9664 -0.549454 2.26943 0
M  V30 682 C 66.9474 -1.12741 1.27372 0
M  V30 683 O 68.1324 -1.15436 1.56167 0
M  V30 684 C 65.2624 -1.71523 3.01989 0
M  V30 685 C 64.2164 -1.26703 4.08816 0
M  V30 686 C 63.5424 -2.51898 4.71647 0
M  V30 687 C 64.8424 -0.388962 5.2085 0
M  V30 688 H 66.5364 0.0552661 2.99349 0
M  V30 689 H 64.0824 0.0280207 1.43973 0
M  V30 690 H 66.0354 -2.32535 3.51433 0
M  V30 691 H 64.7594 -2.34639 2.27183 0
M  V30 692 H 63.4184 -0.679896 3.6024 0
M  V30 693 H 63.0664 -3.13356 3.93468 0
M  V30 694 H 62.7664 -2.22605 5.43802 0
M  V30 695 H 64.2904 -3.1369 5.23861 0
M  V30 696 H 65.7044 -0.905107 5.6611 0
M  V30 697 H 64.1014 -0.18924 5.99802 0
M  V30 698 H 65.1714 0.582699 4.81386 0
M  V30 699 N 66.5145 -1.57545 0.0417849 0
M  V30 700 C 67.7915 -1.83642 -0.673433 0
M  V30 701 C 68.1715 -0.928298 -1.89594 0
M  V30 702 O 67.5195 0.0129955 -2.28496 0
M  V30 703 C 67.7295 -3.33155 -1.03964 0
M  V30 704 C 69.0775 -3.99941 -1.42592 0
M  V30 705 O 70.1015 -3.37725 -1.13226 0
M  V30 706 O 68.9605 -5.09619 -1.9736 0
M  V30 707 H 66.0545 -0.757638 -0.331533 0
M  V30 708 H 68.6005 -1.69554 0.070433 0
M  V30 709 H 67.3725 -3.9093 -0.170098 0
M  V30 710 H 66.9955 -3.52396 -1.84126 0
M  V30 711 N 67.9926 0.231505 -1.5589 0
M  V30 712 C 69.2386 0.954429 -1.79617 0
M  V30 713 C 69.5936 1.82367 -0.613199 0
M  V30 714 O 68.8866 1.87524 0.393094 0
M  V30 715 C 69.0806 1.83577 -3.0665 0
M  V30 716 C 68.9096 1.05334 -4.3719 0
M  V30 717 C 67.6796 0.75225 -4.99669 0
M  V30 718 C 69.8776 0.423444 -5.12554 0
M  V30 719 N 67.8596 -0.052627 -6.13877 0
M  V30 720 C 69.2306 -0.245287 -6.19515 0
M  V30 721 C 71.2856 0.335466 -4.96769 0
M  V30 722 C 69.9886 -0.993566 -7.12405 0
M  V30 723 C 72.0146 -0.399321 -5.9005 0
M  V30 724 C 71.3766 -1.05663 -6.9643 0
M  V30 725 H 67.4756 0.329846 -0.709031 0
M  V30 726 H 70.0596 0.226172 -1.93382 0
M  V30 727 H 68.2306 2.53592 -2.94186 0
M  V30 728 H 69.9626 2.49541 -3.18608 0
M  V30 729 H 66.7176 1.06783 -4.61405 0
M  V30 730 H 67.1416 -0.443609 -6.75545 0
M  V30 731 H 71.7836 0.829311 -4.14587 0
M  V30 732 H 69.5016 -1.49896 -7.94076 0
M  V30 733 H 73.0876 -0.468265 -5.79913 0
M  V30 734 H 71.9676 -1.61612 -7.67366 0
M  V30 735 N 69.4707 1.49531 0.497807 0
M  V30 736 C 70.7197 1.58426 1.24837 0
M  V30 737 C 71.0327 0.277643 1.93619 0
M  V30 738 O 72.2387 0.24517 2.70391 0
M  V30 739 C 70.6947 2.79538 2.26686 0
M  V30 740 C 70.3027 4.16971 1.63828 0
M  V30 741 C 72.0467 2.97764 3.0255 0
M  V30 742 C 69.9537 5.29301 2.63807 0
M  V30 743 H 68.8837 0.58989 0.469623 0
M  V30 744 H 71.5347 1.75923 0.521857 0
M  V30 745 H 69.9167 2.55542 3.02514 0
M  V30 746 H 71.0907 4.51116 0.939711 0
M  V30 747 H 69.4057 4.04129 1.00342 0
M  V30 748 H 72.0027 3.78856 3.77323 0
M  V30 749 H 72.3457 2.08448 3.60354 0
M  V30 750 H 72.8787 3.21815 2.33838 0
M  V30 751 H 69.6177 6.20687 2.10779 0
M  V30 752 H 69.1377 4.99606 3.31894 0
M  V30 753 H 70.8167 5.58768 3.2617 0
M  V30 754 N 70.9488 -0.749086 1.3866 0
M  V30 755 C 72.1968 -1.50535 1.34847 0
M  V30 756 C 72.5178 -1.94909 -0.0595016 0
M  V30 757 O 71.7878 -1.67973 -1.00806 0
M  V30 758 H 70.3678 -0.558395 0.49619 0
M  V30 759 H 73.0298 -0.890165 1.73384 0
M  V30 760 H 72.1258 -2.39413 2.00219 0
M  V30 761 N 72.4269 -1.23603 -0.977757 0
M  V30 762 C 73.6759 -1.06377 -1.71368 0
M  V30 763 C 73.9889 0.399062 -1.91486 0
M  V30 764 O 75.1949 0.691312 -2.62551 0
M  V30 765 C 73.6509 -1.85512 -3.08404 0
M  V30 766 C 73.2589 -3.36141 -2.96164 0
M  V30 767 C 75.0029 -1.76783 -3.85938 0
M  V30 768 C 72.9099 -4.07659 -4.28449 0
M  V30 769 H 71.8399 -0.394452 -0.642591 0
M  V30 770 H 74.4909 -1.47594 -1.09034 0
M  V30 771 H 72.8729 -1.37103 -3.71509 0
M  V30 772 H 74.0469 -3.92056 -2.42133 0
M  V30 773 H 72.3619 -3.45712 -2.32104 0
M  V30 774 H 74.9589 -2.27526 -4.83876 0
M  V30 775 H 75.3019 -0.731116 -4.0983 0
M  V30 776 H 75.8349 -2.22818 -3.2954 0
M  V30 777 H 72.5739 -5.11648 -4.09752 0
M  V30 778 H 72.0939 -3.5653 -4.82334 0
M  V30 779 H 73.7729 -4.141 -4.97122 0
M  V30 780 N 73.905 1.17692 -1.04816 0
M  V30 781 C 74.838 2.20436 -0.590173 0
M  V30 782 C 75.816 1.58115 0.379244 0
M  V30 783 O 77 1.86228 0.291762 0
M  V30 784 C 74.127 3.38424 0.136817 0
M  V30 785 C 73.173 4.19176 -0.787023 0
M  V30 786 S 74.006 4.84815 -2.27409 0
M  V30 787 C 75.162 6.06195 -1.55817 0
M  V30 788 H 75.395 2.58944 -1.46067 0
M  V30 789 H 72.928 1.28246 -0.859784 0
M  V30 790 H 74.886 4.06798 0.550076 0
M  V30 791 H 73.547 2.98312 0.983299 0
M  V30 792 H 72.74 5.03499 -0.224681 0
M  V30 793 H 72.342 3.56219 -1.13947 0
M  V30 794 H 74.634 6.72078 -0.855387 0
M  V30 795 H 75.577 6.6695 -2.37873 0
M  V30 796 H 75.985 5.54701 -1.04722 0
M  V30 797 N 75.3831 0.828654 1.34056 0
M  V30 798 C 76.6081 0.431637 2.02859 0
M  V30 799 C 77.0331 -0.956339 1.61975 0
M  V30 800 O 76.3911 -1.62338 0.807228 0
M  V30 801 C 76.4391 0.548323 3.56407 0
M  V30 802 O 75.5431 -0.429556 4.10157 0
M  V30 803 H 74.8841 0.176886 0.640006 0
M  V30 804 H 77.4141 1.12066 1.71179 0
M  V30 805 H 77.4241 0.426196 4.05768 0
M  V30 806 H 76.0991 1.5606 3.8551 0
M  V30 807 H 74.6761 -0.265836 3.71951 0
M  V30 808 N 76.8612 -1.46375 0.584142 0
M  V30 809 C 78.2722 -1.86031 0.157959 0
M  V30 810 C 78.6232 -1.48753 -1.27933 0
M  V30 811 O 77.7482 -0.903098 -1.96655 0
M  V30 812 C 78.3432 -3.37642 0.279892 0
M  V30 813 C 76.9022 -3.76289 -0.09143 0
M  V30 814 C 76.0492 -2.7039 0.615178 0
M  V30 815 H 79.0002 -1.37509 0.792274 0
M  V30 816 H 79.0212 -3.77275 -0.494364 0
M  V30 817 H 78.5332 -3.64742 1.32607 0
M  V30 818 H 76.6342 -3.54806 -1.13769 0
M  V30 819 H 76.7472 -4.78246 0.285886 0
M  V30 820 H 75.1112 -2.5464 0.0552833 0
M  V30 821 H 75.8942 -3.0033 1.66303 0
M  V30 822 N 78.3393 -0.321999 -1.54275 0
M  V30 823 C 79.5853 0.281461 -2.00837 0
M  V30 824 C 79.9183 1.51909 -1.20985 0
M  V30 825 O 79.1933 1.923 -0.291733 0
M  V30 826 C 79.4763 0.617162 -3.54772 0
M  V30 827 C 79.3293 -0.631064 -4.45351 0
M  V30 828 C 80.6483 1.43542 -4.16033 0
M  V30 829 H 77.7673 0.100826 -0.730071 0
M  V30 830 H 80.4093 -0.438268 -1.84876 0
M  V30 831 H 78.5593 1.23034 -3.68504 0
M  V30 832 H 80.2313 -1.26934 -4.43492 0
M  V30 833 H 78.4743 -1.26025 -4.15091 0
M  V30 834 H 79.1453 -0.351735 -5.50878 0
M  V30 835 H 81.6213 0.917134 -4.05867 0
M  V30 836 H 80.4973 1.63907 -5.23856 0
M  V30 837 H 80.7583 2.43108 -3.69257 0
M  V30 838 N 79.8174 1.5752 -0.0501392 0
M  V30 839 C 81.0944 1.83996 0.663685 0
M  V30 840 C 81.4744 0.938339 1.89099 0
M  V30 841 O 80.8224 -0.00087759 2.285 0
M  V30 842 C 81.0324 3.33702 1.02196 0
M  V30 843 C 82.3804 4.00691 1.40469 0
M  V30 844 O 83.4044 3.38321 1.11433 0
M  V30 845 O 82.2634 5.10658 1.94654 0
M  V30 846 H 79.3574 0.759385 0.32751 0
M  V30 847 H 81.9034 1.69514 -0.0794238 0
M  V30 848 H 80.6754 3.91015 0.149364 0
M  V30 849 H 80.2984 3.53368 1.82255 0
M  V30 850 N 81.2955 -0.223234 1.56011 0
M  V30 851 C 82.5205 -0.968978 1.83373 0
M  V30 852 C 82.9455 -1.77227 0.630254 0
M  V30 853 O 82.3035 -1.76345 -0.420959 0
M  V30 854 C 82.3515 -1.86363 3.08709 0
M  V30 855 O 81.4555 -2.95873 2.87285 0
M  V30 856 H 80.7965 -0.274461 0.604622 0
M  V30 857 H 83.3265 -0.237056 2.03222 0
M  V30 858 H 83.3365 -2.27376 3.38768 0
M  V30 859 H 82.0115 -1.27319 3.95933 0
M  V30 860 H 80.5885 -2.58818 2.68454 0
M  V30 861 N 82.7736 -1.49793 -0.48987 0
M  V30 862 C 84.0506 -1.50348 -1.25119 0
M  V30 863 C 84.4306 -0.237466 -2.0976 0
M  V30 864 O 83.7786 0.77981 -2.14782 0
M  V30 865 C 83.9886 -2.78872 -2.09837 0
M  V30 866 C 85.3366 -3.288 -2.68655 0
M  V30 867 O 86.3606 -2.80065 -2.20096 0
M  V30 868 O 85.2196 -4.13707 -3.57083 0
M  V30 869 H 82.3136 -0.602242 -0.566775 0
M  V30 870 H 84.8596 -1.62067 -0.503229 0
M  V30 871 H 83.6316 -3.62499 -1.47343 0
M  V30 872 H 83.2546 -2.70066 -2.91805 0
M  V30 873 N 84.2517 0.741722 -1.39055 0
M  V30 874 C 85.5007 1.49656 -1.35225 0
M  V30 875 C 85.8137 1.95533 0.0512708 0
M  V30 876 O 87.0197 2.7067 0.212138 0
M  V30 877 C 85.4757 2.70389 -2.37525 0
M  V30 878 C 85.0837 2.31489 -3.83558 0
M  V30 879 C 86.8277 3.48236 -2.42759 0
M  V30 880 C 84.7347 3.48903 -4.77515 0
M  V30 881 H 83.6647 0.56197 -0.502699 0
M  V30 882 H 86.3157 0.809727 -1.64668 0
M  V30 883 H 84.6977 3.41113 -2.01142 0
M  V30 884 H 85.8717 1.68354 -4.28945 0
M  V30 885 H 84.1867 1.66749 -3.81554 0
M  V30 886 H 86.7837 4.35558 -3.1015 0
M  V30 887 H 87.1267 3.90229 -1.45008 0
M  V30 888 H 87.6597 2.84535 -2.78002 0
M  V30 889 H 84.3987 3.11966 -5.76504 0
M  V30 890 H 83.9187 4.11041 -4.36813 0
M  V30 891 H 85.5977 4.15328 -4.96096 0
M  V30 892 N 85.7298 1.2412 0.971189 0
M  V30 893 C 87.1458 1.00584 1.23916 0
M  V30 894 C 87.3458 -0.287481 1.99439 0
M  V30 895 O 86.4018 -1.00454 2.31658 0
M  V30 896 C 87.7148 2.21864 2.0297 0
M  V30 897 C 89.2628 2.26452 2.16076 0
M  V30 898 C 89.7378 3.47343 2.98524 0
M  V30 899 N 91.2288 3.47639 3.06107 0
M  V30 900 C 91.9638 4.37837 3.70251 0
M  V30 901 N 91.4598 5.38286 4.36142 0
M  V30 902 N 93.2528 4.25558 3.67228 0
M  V30 903 H 85.4038 2.07236 0.465499 0
M  V30 904 H 87.6668 0.909236 0.268315 0
M  V30 905 H 87.3728 3.15771 1.54861 0
M  V30 906 H 87.2468 2.23698 3.03709 0
M  V30 907 H 89.6338 1.33078 2.6339 0
M  V30 908 H 89.7148 2.28645 1.14696 0
M  V30 909 H 89.3588 4.41029 2.51905 0
M  V30 910 H 89.2888 3.42393 4.00093 0
M  V30 911 H 91.7798 2.74966 2.59233 0
M  V30 912 H 92.0928 6.03352 4.82894 0
M  V30 913 H 90.4378 5.42176 4.34822 0
M  V30 914 H 93.6288 3.46322 3.14927 0
M  V30 915 H 93.8018 4.96054 4.16935 0
M  V30 916 N 87.2079 -1.17134 1.05439 0
M  V30 917 C 88.4379 -1.91094 0.785274 0
M  V30 918 C 88.8459 -1.77198 -0.663142 0
M  V30 919 O 88.1889 -1.10835 -1.46497 0
M  V30 920 C 88.2509 -3.42594 1.08949 0
M  V30 921 C 87.9149 -3.80274 2.53458 0
M  V30 922 C 88.9119 -3.82912 3.51673 0
M  V30 923 C 86.5969 -4.11162 2.88532 0
M  V30 924 C 88.5909 -4.15913 4.83006 0
M  V30 925 C 86.2779 -4.43831 4.20068 0
M  V30 926 C 87.2759 -4.46185 5.17115 0
M  V30 927 O 86.9639 -4.78083 6.46291 0
M  V30 928 H 86.6959 -0.613073 0.284811 0
M  V30 929 H 89.2499 -1.49461 1.40893 0
M  V30 930 H 87.4799 -3.84534 0.408741 0
M  V30 931 H 89.1689 -3.97817 0.805991 0
M  V30 932 H 89.9349 -3.5917 3.25917 0
M  V30 933 H 85.8139 -4.085 2.13656 0
M  V30 934 H 89.3579 -4.17665 5.5875 0
M  V30 935 H 85.2549 -4.67037 4.45586 0
M  V30 936 H 86.0229 -4.9593 6.51149 0
M  V30 937 N 88.686 -0.835752 -1.33615 0
M  V30 938 C 89.911 -0.442389 -2.02627 0
M  V30 939 C 90.336 0.947735 -1.62479 0
M  V30 940 O 89.694 1.61907 -0.815826 0
M  V30 941 C 89.742 -0.567216 -3.56111 0
M  V30 942 O 88.846 0.407799 -4.10379 0
M  V30 943 H 88.187 -0.180278 -0.639059 0
M  V30 944 H 90.717 -1.12972 -1.70583 0
M  V30 945 H 90.727 -0.447708 -4.05536 0
M  V30 946 H 89.402 -1.58103 -3.84677 0
M  V30 947 H 87.979 0.246107 -3.72087 0
M  V30 948 N 90.1641 1.46063 -0.591896 0
M  V30 949 C 91.5751 1.85944 -0.167822 0
M  V30 950 C 91.9261 1.49429 1.27143 0
M  V30 951 O 91.0511 0.913515 1.96173 0
M  V30 952 C 91.6461 3.37489 -0.297794 0
M  V30 953 C 90.2051 3.76332 0.0714732 0
M  V30 954 C 89.3521 2.7006 -0.629509 0
M  V30 955 H 92.3031 1.37087 -0.799555 0
M  V30 956 H 92.3241 3.77532 0.474349 0
M  V30 957 H 91.8361 3.64034 -1.3454 0
M  V30 958 H 89.9371 3.55405 1.11886 0
M  V30 959 H 90.0501 4.78088 -0.311245 0
M  V30 960 H 88.4141 2.54607 -0.0687867 0
M  V30 961 H 89.1971 2.99444 -1.67894 0
M  V30 962 N 91.6422 0.330177 1.54103 0
M  V30 963 C 92.8672 -0.274893 2.0557 0
M  V30 964 C 93.2922 -1.44487 1.20437 0
M  V30 965 O 92.6502 -1.80021 0.214991 0
M  V30 966 C 92.6982 -0.68079 3.54115 0
M  V30 967 O 91.8022 -1.7824 3.71893 0
M  V30 968 H 91.1432 -0.0483849 0.662235 0
M  V30 969 H 93.6732 0.480508 1.98878 0
M  V30 970 H 93.6832 -0.961635 3.96505 0
M  V30 971 H 92.3582 0.174903 4.15532 0
M  V30 972 H 90.9352 -1.49985 3.41407 0
M  V30 973 N 93.1203 -1.57491 0.0584922 0
M  V30 974 C 94.3673 -1.92978 -0.613648 0
M  V30 975 C 94.6953 -0.937461 -1.70417 0
M  V30 976 O 93.9503 0.049078 -1.95638 0
M  V30 977 C 94.2493 -3.3513 -1.24188 0
M  V30 978 C 93.9153 -4.50037 -0.278826 0
M  V30 979 C 92.5773 -4.81198 -0.0138447 0
M  V30 980 C 94.9293 -5.19807 0.380777 0
M  V30 981 C 92.2573 -5.79473 0.918052 0
M  V30 982 C 94.6093 -6.19079 1.30091 0
M  V30 983 C 93.2733 -6.48665 1.57449 0
M  V30 984 H 92.5433 -0.706157 -0.22455 0
M  V30 985 H 95.1903 -1.91082 0.126533 0
M  V30 986 H 93.4953 -3.33429 -2.05749 0
M  V30 987 H 95.1923 -3.59871 -1.769 0
M  V30 988 H 91.7823 -4.25726 -0.495539 0
M  V30 989 H 95.9663 -4.95939 0.189158 0
M  V30 990 H 91.2223 -6.00727 1.1374 0
M  V30 991 H 95.3963 -6.7225 1.81804 0
M  V30 992 H 93.0233 -7.24628 2.29822 0
M  V30 993 N 94.5984 0.214957 -1.56127 0
M  V30 994 C 95.5304 1.29004 -1.89448 0
M  V30 995 C 96.5434 1.42716 -0.783326 0
M  V30 996 O 97.7324 1.43496 -1.06166 0
M  V30 997 C 94.8324 2.66482 -2.09381 0
M  V30 998 C 94.0054 2.74633 -3.40434 0
M  V30 999 C 93.0644 3.9317 -3.49719 0
M  V30 1000 O 92.0904 3.812 -4.227 0
M  V30 1001 N 93.2924 5.07765 -2.81346 0
M  V30 1002 H 96.0574 1.00743 -2.82261 0
M  V30 1003 H 93.6184 0.40497 -1.56753 0
M  V30 1004 H 95.6104 3.44173 -2.12901 0
M  V30 1005 H 94.1804 2.87314 -1.23163 0
M  V30 1006 H 93.4004 1.83368 -3.48955 0
M  V30 1007 H 94.6884 2.77054 -4.26754 0
M  V30 1008 H 94.0864 5.20386 -2.21843 0
M  V30 1009 H 92.6434 5.83474 -2.90519 0
M  V30 1010 N 96.0765 1.50051 0.48192 0
M  V30 1011 C 97.3245 1.60181 1.23234 0
M  V30 1012 C 97.6455 0.299176 1.92691 0
M  V30 1013 O 96.9155 -0.682708 1.83619 0
M  V30 1014 H 95.4955 0.590232 0.457859 0
M  V30 1015 H 98.1575 1.86775 0.556881 0
M  V30 1016 H 97.2535 2.40753 1.98607 0
M  V30 1017 N 97.5546 -0.734337 1.39446 0
M  V30 1018 C 98.4866 -1.85861 1.34121 0
M  V30 1019 C 99.4996 -1.60871 0.249864 0
M  V30 1020 O 100.689 -1.71093 0.508865 0
M  V30 1021 C 97.7886 -3.21899 1.05991 0
M  V30 1022 C 96.9616 -3.74239 2.26415 0
M  V30 1023 C 96.0206 -4.88841 1.94733 0
M  V30 1024 O 95.0466 -5.02468 2.67422 0
M  V30 1025 N 96.2486 -5.73261 0.913884 0
M  V30 1026 H 99.0136 -1.90934 2.31007 0
M  V30 1027 H 96.5746 -0.915102 1.33557 0
M  V30 1028 H 98.5666 -3.96136 0.828147 0
M  V30 1029 H 97.1366 -3.12091 0.178361 0
M  V30 1030 H 96.3566 -2.91347 2.65539 0
M  V30 1031 H 97.6446 -4.05942 3.06738 0
M  V30 1032 H 97.0426 -5.64842 0.311476 0
M  V30 1033 H 95.5996 -6.47563 0.742015 0
M  V30 1034 N 99.0327 -1.24633 -0.964593 0
M  V30 1035 C 100.279 -1.08949 -1.71049 0
M  V30 1036 C 100.612 0.370302 -1.90637 0
M  V30 1037 O 99.8867 1.27349 -1.47011 0
M  V30 1038 C 100.17 -1.83329 -3.0994 0
M  V30 1039 C 100.023 -3.37077 -2.97824 0
M  V30 1040 C 101.342 -1.60846 -4.09654 0
M  V30 1041 H 98.4607 -0.397178 -0.620821 0
M  V30 1042 H 101.103 -1.5334 -1.12191 0
M  V30 1043 H 99.2527 -1.45597 -3.60186 0
M  V30 1044 H 100.925 -3.84425 -2.5498 0
M  V30 1045 H 99.1677 -3.65298 -2.33965 0
M  V30 1046 H 99.8387 -3.84324 -3.96231 0
M  V30 1047 H 102.315 -1.93674 -3.68279 0
M  V30 1048 H 101.191 -2.1534 -5.04896 0
M  V30 1049 H 101.452 -0.547434 -4.38698 0
M  V30 1050 N 100.511 1.16574 -1.06058 0
M  V30 1051 C 101.739 1.90952 -0.796552 0
M  V30 1052 C 102.154 1.77302 0.648808 0
M  V30 1053 O 101.511 1.11605 1.44397 0
M  V30 1054 C 101.562 3.41736 -1.17894 0
M  V30 1055 O 101.283 3.54975 -2.56758 0
M  V30 1056 C 102.784 4.33169 -0.942308 0
M  V30 1057 H 100.004 0.605594 -0.288959 0
M  V30 1058 H 102.548 1.47777 -1.41358 0
M  V30 1059 H 100.703 3.82623 -0.606491 0
M  V30 1060 H 101.117 4.4846 -2.72 0
M  V30 1061 H 102.591 5.37439 -1.25952 0
M  V30 1062 H 103.068 4.3903 0.122078 0
M  V30 1063 H 103.674 3.98007 -1.49902 0
M  V30 1064 N 101.989 0.842826 1.3317 0
M  V30 1065 C 102.922 0.223862 2.27099 0
M  V30 1066 C 103.9 -0.631311 1.49844 0
M  V30 1067 O 105.084 -0.590708 1.79005 0
M  V30 1068 C 102.211 -0.685313 3.31694 0
M  V30 1069 C 101.257 0.094919 4.26394 0
M  V30 1070 S 102.09 1.45546 5.15341 0
M  V30 1071 C 103.246 0.551685 6.23464 0
M  V30 1072 H 103.479 1.02015 2.79249 0
M  V30 1073 H 101.012 0.639797 1.4052 0
M  V30 1074 H 102.97 -1.20426 3.92438 0
M  V30 1075 H 101.631 -1.4553 2.78352 0
M  V30 1076 H 100.824 -0.597059 5.00451 0
M  V30 1077 H 100.426 0.545054 3.70007 0
M  V30 1078 H 102.718 -0.248877 6.77043 0
M  V30 1079 H 103.661 1.26253 6.96754 0
M  V30 1080 H 104.069 0.131275 5.64347 0
M  V30 1081 N 103.467 -1.45747 0.599634 0
M  V30 1082 C 104.692 -2.07178 0.0960198 0
M  V30 1083 C 105.117 -1.44268 -1.207 0
M  V30 1084 O 104.475 -0.532503 -1.73303 0
M  V30 1085 C 104.523 -3.60579 -0.0385348 0
M  V30 1086 O 103.627 -3.97713 -1.0908 0
M  V30 1087 H 102.968 -0.660251 0.0704593 0
M  V30 1088 H 105.498 -1.87124 0.827385 0
M  V30 1089 H 105.508 -4.07298 -0.239304 0
M  V30 1090 H 104.183 -4.05756 0.912947 0
M  V30 1091 H 102.76 -3.62678 -0.867135 0
M  V30 1092 N 104.945 -0.338344 -1.53925 0
M  V30 1093 C 106.191 0.260143 -2.01125 0
M  V30 1094 C 106.524 1.50617 -1.22589 0
M  V30 1095 O 105.799 1.91979 -0.312113 0
M  V30 1096 C 106.082 0.579499 -3.55407 0
M  V30 1097 C 105.935 -0.678264 -4.44657 0
M  V30 1098 C 107.254 1.39122 -4.17532 0
M  V30 1099 H 104.373 0.0930772 -0.731099 0
M  V30 1100 H 107.015 -0.457852 -1.84401 0
M  V30 1101 H 105.165 1.19118 -3.69788 0
M  V30 1102 H 106.837 -1.31631 -4.42121 0
M  V30 1103 H 105.08 -1.3042 -4.13731 0
M  V30 1104 H 105.751 -0.410143 -5.50474 0
M  V30 1105 H 108.227 0.874035 -4.06817 0
M  V30 1106 H 107.103 1.58342 -5.25565 0
M  V30 1107 H 107.364 2.39178 -3.71815 0
M  V30 1108 N 106.423 1.57458 -0.0668435 0
M  V30 1109 C 107.7 1.8469 0.644132 0
M  V30 1110 C 108.08 0.958343 1.88093 0
M  V30 1111 O 107.428 0.0233579 2.28488 0
M  V30 1112 C 107.638 3.34767 0.986509 0
M  V30 1113 C 108.986 4.02159 1.36212 0
M  V30 1114 O 110.01 3.39484 1.07839 0
M  V30 1115 O 108.869 5.12694 1.89227 0
M  V30 1116 H 105.963 0.762816 0.319437 0
M  V30 1117 H 108.509 1.6942 -0.0973986 0
M  V30 1118 H 107.281 3.91151 0.107883 0
M  V30 1119 H 106.904 3.55281 1.78497 0
M  V30 1120 N 107.901 -0.206675 1.56239 0
M  V30 1121 C 108.848 -1.25617 1.93621 0
M  V30 1122 C 109.818 -1.45824 0.795274 0
M  V30 1123 O 111.003 -1.59148 1.05245 0
M  V30 1124 C 108.143 -2.59839 2.27107 0
M  V30 1125 C 107.256 -2.47308 3.54207 0
M  V30 1126 C 106.391 -3.74155 3.7707 0
M  V30 1127 C 105.43 -3.56407 4.97635 0
M  V30 1128 N 104.567 -4.75238 5.1681 0
M  V30 1129 H 109.407 -0.930383 2.83104 0
M  V30 1130 H 106.944 -0.448065 1.4011 0
M  V30 1131 H 108.902 -3.38021 2.44535 0
M  V30 1132 H 107.532 -2.90485 1.40778 0
M  V30 1133 H 106.584 -1.60483 3.4489 0
M  V30 1134 H 107.896 -2.30122 4.42544 0
M  V30 1135 H 107.05 -4.60778 3.94675 0
M  V30 1136 H 105.789 -3.94282 2.87042 0
M  V30 1137 H 104.794 -2.68168 4.79964 0
M  V30 1138 H 106.019 -3.37736 5.89161 0
M  V30 1139 H 103.965 -4.95651 4.29728 0
M  V30 1140 H 103.882 -4.60835 5.99306 0
M  V30 1141 H 105.15 -5.63246 5.38864 0
M  V30 1142 N 109.379 -1.50304 -0.473955 0
M  V30 1143 C 110.604 -1.65175 -1.25427 0
M  V30 1144 C 111.029 -0.333673 -1.85117 0
M  V30 1145 O 110.387 0.702114 -1.67153 0
M  V30 1146 C 110.435 -2.74295 -2.34082 0
M  V30 1147 O 109.539 -2.35349 -3.38651 0
M  V30 1148 H 108.88 -0.551944 -0.369126 0
M  V30 1149 H 111.41 -1.96662 -0.564364 0
M  V30 1150 H 111.42 -2.97285 -2.79438 0
M  V30 1151 H 110.095 -3.69959 -1.90008 0
M  V30 1152 H 108.672 -2.22794 -2.99027 0
M  V30 1153 N 110.857 0.726932 -1.39834 0
M  V30 1154 C 112.106 1.48214 -1.36805 0
M  V30 1155 C 112.419 1.95576 0.0305291 0
M  V30 1156 O 113.625 2.7088 0.183417 0
M  V30 1157 C 112.081 2.67854 -2.40379 0
M  V30 1158 C 111.689 2.27408 -3.85992 0
M  V30 1159 C 113.433 3.45641 -2.46439 0
M  V30 1160 C 111.34 3.43819 -4.81189 0
M  V30 1161 H 110.27 0.556606 -0.508631 0
M  V30 1162 H 112.921 0.792216 -1.65518 0
M  V30 1163 H 111.303 3.3896 -2.04749 0
M  V30 1164 H 112.477 1.63795 -4.30706 0
M  V30 1165 H 110.792 1.62692 -3.83302 0
M  V30 1166 H 113.389 4.32244 -3.14753 0
M  V30 1167 H 113.732 3.88669 -1.49139 0
M  V30 1168 H 114.265 2.8157 -2.81004 0
M  V30 1169 H 111.004 3.05834 -5.79781 0
M  V30 1170 H 110.524 4.06385 -4.41148 0
M  V30 1171 H 112.203 4.10043 -5.00474 0
M  V30 1172 N 112.336 1.25143 0.95797 0
M  V30 1173 C 113.564 1.12424 1.73691 0
M  V30 1174 C 113.979 -0.322304 1.86029 0
M  V30 1175 O 113.336 -1.22186 1.35561 0
M  V30 1176 C 113.387 1.76933 3.15241 0
M  V30 1177 O 113.108 3.15932 3.03511 0
M  V30 1178 C 114.609 1.6995 4.09429 0
M  V30 1179 H 111.829 0.3923 0.544373 0
M  V30 1180 H 114.373 1.6544 1.20207 0
M  V30 1181 H 112.528 1.27895 3.6568 0
M  V30 1182 H 112.942 3.47598 3.9278 0
M  V30 1183 H 114.416 2.19753 5.06372 0
M  V30 1184 H 114.893 0.662619 4.34173 0
M  V30 1185 H 115.499 2.18461 3.64904 0
M  V30 1186 N 113.814 -1.1601 1.06675 0
M  V30 1187 C 115.042 -1.90527 0.806667 0
M  V30 1188 C 115.457 -1.77643 -0.639396 0
M  V30 1189 O 114.814 -1.12369 -1.43803 0
M  V30 1190 C 114.865 -3.41106 1.19705 0
M  V30 1191 O 114.586 -3.53608 2.58636 0
M  V30 1192 C 116.087 -4.32663 0.965266 0
M  V30 1193 H 113.307 -0.604053 0.292166 0
M  V30 1194 H 115.851 -1.47026 1.4214 0
M  V30 1195 H 114.006 -3.82296 0.626774 0
M  V30 1196 H 114.42 -4.47011 2.74375 0
M  V30 1197 H 115.894 -5.36763 1.288 0
M  V30 1198 H 116.371 -4.39089 -0.0987936 0
M  V30 1199 H 116.977 -3.97206 1.52011 0
M  V30 1200 N 115.292 -0.849877 -1.32721 0
M  V30 1201 C 116.255 -0.296122 -2.27279 0
M  V30 1202 C 117.255 0.541458 -1.5141 0
M  V30 1203 O 118.445 0.353658 -1.70572 0
M  V30 1204 C 115.577 0.581579 -3.35902 0
M  V30 1205 H 116.77 -1.13064 -2.77771 0
M  V30 1206 H 114.323 -0.62383 -1.43311 0
M  V30 1207 H 115.058 1.43809 -2.9067 0
M  V30 1208 H 114.843 -0.0178814 -3.92096 0
M  V30 1209 H 116.333 0.961951 -4.0637 0
M  V30 1210 N 116.77 1.45427 -0.607355 0
M  V30 1211 C 118 2.06314 -0.108656 0
M  V30 1212 C 118.408 1.45269 1.21217 0
M  V30 1213 O 117.751 0.561115 1.74921 0
M  V30 1214 C 117.813 3.59345 0.105618 0
M  V30 1215 C 117.477 4.42723 -1.13337 0
M  V30 1216 C 118.474 4.77715 -2.05145 0
M  V30 1217 C 116.159 4.83478 -1.36213 0
M  V30 1218 C 118.153 5.52317 -3.18158 0
M  V30 1219 C 115.84 5.57835 -2.49527 0
M  V30 1220 C 116.838 5.92171 -3.40327 0
M  V30 1221 O 116.526 6.65019 -4.51669 0
M  V30 1222 H 116.258 0.672782 -0.0658842 0
M  V30 1223 H 118.812 1.87664 -0.834945 0
M  V30 1224 H 117.042 3.76394 0.886796 0
M  V30 1225 H 118.731 4.02076 0.555886 0
M  V30 1226 H 119.497 4.46787 -1.88697 0
M  V30 1227 H 115.376 4.56188 -0.664362 0
M  V30 1228 H 118.92 5.79036 -3.89054 0
M  V30 1229 H 114.817 5.88177 -2.65928 0
M  V30 1230 H 115.585 6.83469 -4.50348 0
M  V30 1231 N 118.248 0.346503 1.53744 0
M  V30 1232 C 119.178 -0.501193 2.28058 0
M  V30 1233 C 120.159 -1.10014 1.29734 0
M  V30 1234 O 121.344 -1.12097 1.58581 0
M  V30 1235 C 118.474 -1.65078 3.05559 0
M  V30 1236 C 117.428 -1.18003 4.11411 0
M  V30 1237 C 116.754 -2.41837 4.76884 0
M  V30 1238 C 118.054 -0.278394 5.21558 0
M  V30 1239 H 119.748 0.11875 2.99164 0
M  V30 1240 H 117.294 0.0585531 1.43881 0
M  V30 1241 H 119.247 -2.25028 3.56287 0
M  V30 1242 H 117.971 -2.29767 2.32109 0
M  V30 1243 H 116.63 -0.603331 3.61601 0
M  V30 1244 H 116.278 -3.0494 4.00026 0
M  V30 1245 H 115.978 -2.1102 5.48402 0
M  V30 1246 H 117.502 -3.02508 5.30397 0
M  V30 1247 H 118.916 -0.784823 5.67903 0
M  V30 1248 H 117.313 -0.0619707 6.00068 0
M  V30 1249 H 118.383 0.684677 4.80042 0
M  V30 1250 N 119.726 -1.57421 0.075193 0
M  V30 1251 C 120.658 -2.09904 -0.920483 0
M  V30 1252 C 121.671 -1.03191 -1.25918 0
M  V30 1253 O 122.86 -1.30695 -1.21577 0
M  V30 1254 C 119.96 -2.54726 -2.23534 0
M  V30 1255 C 119.133 -3.8505 -2.07498 0
M  V30 1256 C 118.192 -4.15929 -3.22319 0
M  V30 1257 O 117.218 -4.85474 -2.9716 0
M  V30 1258 N 118.42 -3.69745 -4.47514 0
M  V30 1259 H 121.185 -2.95954 -0.472359 0
M  V30 1260 H 118.746 -1.61523 -0.110444 0
M  V30 1261 H 120.738 -2.72443 -2.9926 0
M  V30 1262 H 119.308 -1.73795 -2.59835 0
M  V30 1263 H 118.528 -3.76679 -1.16219 0
M  V30 1264 H 119.816 -4.70348 -1.94038 0
M  V30 1265 H 119.214 -3.13569 -4.7084 0
M  V30 1266 H 117.771 -3.92655 -5.20255 0
M  V30 1267 N 121.204 0.198386 -1.56346 0
M  V30 1268 C 122.45 0.916115 -1.81601 0
M  V30 1269 C 122.805 1.81025 -0.651744 0
M  V30 1270 O 122.098 1.88316 0.353229 0
M  V30 1271 C 122.292 1.77031 -3.10475 0
M  V30 1272 C 122.121 0.960365 -4.39326 0
M  V30 1273 C 120.891 0.646093 -5.01152 0
M  V30 1274 C 123.089 0.314628 -5.13337 0
M  V30 1275 N 121.071 -0.182828 -6.13628 0
M  V30 1276 C 122.442 -0.37664 -6.18855 0
M  V30 1277 C 124.497 0.230019 -4.97368 0
M  V30 1278 C 123.2 -1.14445 -7.10137 0
M  V30 1279 C 125.226 -0.524389 -5.89071 0
M  V30 1280 C 124.588 -1.20412 -6.94032 0
M  V30 1281 H 120.687 0.314732 -0.715868 0
M  V30 1282 H 123.271 0.185102 -1.93818 0
M  V30 1283 H 121.442 2.47295 -2.99499 0
M  V30 1284 H 123.174 2.42727 -3.2383 0
M  V30 1285 H 119.929 0.969724 -4.63566 0
M  V30 1286 H 120.353 -0.586802 -6.74452 0
M  V30 1287 H 124.995 0.741184 -4.16253 0
M  V30 1288 H 122.713 -1.66706 -7.90718 0
M  V30 1289 H 126.299 -0.591167 -5.78789 0
M  V30 1290 H 125.179 -1.77853 -7.63766 0
M  V30 1291 N 122.682 1.50554 0.465978 0
M  V30 1292 C 123.63 1.70324 1.58406 0
M  V30 1293 C 124.624 0.569139 1.59553 0
M  V30 1294 O 125.83 0.749776 1.63641 0
M  V30 1295 H 122.205 0.537688 0.525734 0
M  V30 1296 H 124.176 2.64104 1.38894 0
M  V30 1297 C 122.925 1.81928 2.96307 0
M  V30 1298 H 122.248 2.68586 2.96144 0
M  V30 1299 H 123.688 1.99784 3.73982 0
M  V30 1300 C 122.147 0.572095 3.32007 0
M  V30 1301 O 122.677 -0.286416 4.00678 0
M  V30 1302 N 120.883 0.424606 2.87481 0
M  V30 1303 H 120.43 1.12427 2.31771 0
M  V30 1304 H 120.388 -0.408697 3.11732 0
M  V30 1305 N 124.16 -0.719506 1.40217 0
M  V30 1306 C 125.385 -1.51371 1.4178 0
M  V30 1307 C 125.81 -1.88091 0.0182355 0
M  V30 1308 O 125.168 -1.52997 -0.972707 0
M  V30 1309 C 125.216 -2.768 2.31115 0
M  V30 1310 O 124.32 -3.73349 1.7517 0
M  V30 1311 H 123.661 -0.456529 0.482159 0
M  V30 1312 H 126.191 -0.88644 1.844 0
M  V30 1313 H 126.201 -3.25371 2.46167 0
M  V30 1314 H 124.876 -2.49407 3.3282 0
M  V30 1315 H 123.453 -3.32179 1.69444 0
M  V30 1316 N 125.638 -1.25649 -0.95132 0
M  V30 1317 C 126.568 -1.08808 -2.06599 0
M  V30 1318 C 127.549 0.00382547 -1.701 0
M  V30 1319 O 128.734 -0.166325 -1.93486 0
M  V30 1320 C 125.864 -0.709542 -3.39975 0
M  V30 1321 C 124.818 -1.75206 -3.90496 0
M  V30 1322 C 124.144 -1.22811 -5.20405 0
M  V30 1323 C 125.444 -3.15153 -4.16504 0
M  V30 1324 H 127.138 -2.02048 -2.20946 0
M  V30 1325 H 124.684 -0.972835 -1.06169 0
M  V30 1326 H 126.637 -0.578649 -4.17408 0
M  V30 1327 H 125.361 0.258556 -3.25575 0
M  V30 1328 H 124.02 -1.87145 -3.15234 0
M  V30 1329 H 123.668 -0.250145 -5.02378 0
M  V30 1330 H 123.368 -1.92492 -5.55176 0
M  V30 1331 H 124.892 -1.10968 -6.00432 0
M  V30 1332 H 126.306 -3.06349 -4.84586 0
M  V30 1333 H 124.703 -3.82333 -4.62538 0
M  V30 1334 H 125.773 -3.61966 -3.22658 0
M  V30 1335 N 127.117 1.15442 -1.07289 0
M  V30 1336 C 128.064 2.20161 -0.692653 0
M  V30 1337 C 129.034 1.63073 0.31564 0
M  V30 1338 O 130.219 1.89725 0.202235 0
M  V30 1339 C 127.359 3.44967 -0.0959509 0
M  V30 1340 C 126.472 4.16256 -1.15564 0
M  V30 1341 C 125.607 5.28609 -0.524011 0
M  V30 1342 C 124.646 5.91715 -1.56653 0
M  V30 1343 N 123.783 6.9554 -0.957531 0
M  V30 1344 H 128.623 2.52037 -1.59002 0
M  V30 1345 H 126.16 1.2378 -0.794798 0
M  V30 1346 H 128.118 4.16341 0.267628 0
M  V30 1347 H 126.748 3.1361 0.764772 0
M  V30 1348 H 125.8 3.43385 -1.6368 0
M  V30 1349 H 127.112 4.59268 -1.94613 0
M  V30 1350 H 126.266 6.06604 -0.108032 0
M  V30 1351 H 125.005 4.86787 0.29825 0
M  V30 1352 H 124.01 5.12433 -1.9923 0
M  V30 1353 H 125.235 6.35614 -2.39107 0
M  V30 1354 H 123.181 6.55814 -0.156162 0
M  V30 1355 H 123.098 7.36977 -1.68526 0
M  V30 1356 H 124.366 7.77435 -0.567032 0
M  V30 1357 N 128.595 0.856903 1.32268 0
M  V30 1358 C 129.558 0.308171 2.27119 0
M  V30 1359 C 130.558 -0.533421 1.51695 0
M  V30 1360 O 131.748 -0.344607 1.70757 0
M  V30 1361 C 128.88 -0.563757 3.36206 0
M  V30 1362 H 130.073 1.14535 2.77167 0
M  V30 1363 H 127.626 0.631421 1.42978 0
M  V30 1364 H 128.361 -1.42266 2.91429 0
M  V30 1365 H 128.146 0.0386749 3.92081 0
M  V30 1366 H 129.636 -0.940386 4.06874 0
M  V30 1367 N 130.073 -1.45103 0.615059 0
M  V30 1368 C 131.298 -2.07064 0.117988 0
M  V30 1369 C 131.723 -1.4554 -1.19163 0
M  V30 1370 O 131.081 -0.550855 -1.72729 0
M  V30 1371 C 131.129 -3.606 -0.000288387 0
M  V30 1372 O 130.233 -3.98847 -1.04856 0
M  V30 1373 H 129.574 -0.659467 0.0774581 0
M  V30 1374 H 132.104 -1.86236 0.847186 0
M  V30 1375 H 132.114 -4.07529 -0.196091 0
M  V30 1376 H 130.789 -4.04765 0.955932 0
M  V30 1377 H 129.366 -3.63577 -0.828619 0
M  V30 1378 N 131.551 -0.354651 -1.53558 0
M  V30 1379 C 132.828 0.294281 -1.93374 0
M  V30 1380 C 133.208 1.67313 -1.28723 0
M  V30 1381 O 132.556 2.24179 -0.442247 0
M  V30 1382 C 132.766 0.355445 -3.47185 0
M  V30 1383 C 134.114 0.601007 -4.20325 0
M  V30 1384 O 135.138 0.437106 -3.53508 0
M  V30 1385 O 133.997 0.919322 -5.38712 0
M  V30 1386 H 131.091 0.174033 -0.808481 0
M  V30 1387 H 133.637 -0.406638 -1.64756 0
M  V30 1388 H 132.409 -0.611729 -3.86489 0
M  V30 1389 H 132.032 1.1027 -3.82003 0
M  V30 1390 N 133.029 1.57378 -0.0835403 0
M  V30 1391 C 134.257 1.98263 0.59157 0
M  V30 1392 C 134.672 0.962302 1.62435 0
M  V30 1393 O 134.029 -0.049581 1.82433 0
M  V30 1394 C 134.08 3.39214 1.24965 0
M  V30 1395 O 133.801 4.37339 0.258186 0
M  V30 1396 C 135.302 3.95038 2.01147 0
M  V30 1397 H 132.522 0.651773 0.159477 0
M  V30 1398 H 135.066 2.03878 -0.159415 0
M  V30 1399 H 133.221 3.34649 1.95164 0
M  V30 1400 H 133.635 5.19371 0.731734 0
M  V30 1401 H 135.109 4.95848 2.42567 0
M  V30 1402 H 135.586 3.32222 2.87272 0
M  V30 1403 H 136.192 4.0304 1.35789 0
M  V30 1404 N 134.507 -0.190092 1.56449 0
M  V30 1405 C 135.47 -1.21925 1.9408 0
M  V30 1406 C 136.47 -1.38176 0.822431 0
M  V30 1407 O 137.66 -1.35903 1.08977 0
M  V30 1408 C 134.792 -2.58773 2.21922 0
M  V30 1409 H 135.985 -0.897464 2.86157 0
M  V30 1410 H 133.538 -0.43181 1.50217 0
M  V30 1411 H 134.273 -2.95998 1.32499 0
M  V30 1412 H 134.058 -2.48348 3.03424 0
M  V30 1413 H 135.548 -3.32978 2.52022 0
M  V30 1414 N 135.985 -1.50799 -0.457987 0
M  V30 1415 C 136.918 -1.65273 -1.57353 0
M  V30 1416 C 137.896 -0.500578 -1.54703 0
M  V30 1417 O 139.08 -0.721781 -1.74134 0
M  V30 1418 C 136.207 -1.64737 -2.95938 0
M  V30 1419 C 135.253 -2.8567 -3.16693 0
M  V30 1420 S 136.086 -4.46791 -2.95191 0
M  V30 1421 C 137.242 -4.48968 -4.36095 0
M  V30 1422 H 137.475 -2.59633 -1.44838 0
M  V30 1423 H 135.008 -1.40225 -0.64625 0
M  V30 1424 H 136.966 -1.65112 -3.7583 0
M  V30 1425 H 135.627 -0.715899 -3.05833 0
M  V30 1426 H 134.82 -2.81637 -4.17967 0
M  V30 1427 H 134.422 -2.8293 -2.44594 0
M  V30 1428 H 136.714 -4.23337 -5.28954 0
M  V30 1429 H 137.657 -5.50664 -4.45168 0
M  V30 1430 H 138.065 -3.78522 -4.18786 0
M  V30 1431 N 137.463 0.71206 -1.40597 0
M  V30 1432 C 138.693 1.49894 -1.42181 0
M  V30 1433 C 139.101 1.89189 -0.0208078 0
M  V30 1434 O 138.444 1.56223 0.966436 0
M  V30 1435 C 138.506 2.80215 -2.25211 0
M  V30 1436 C 138.17 2.63221 -3.73582 0
M  V30 1437 C 139.167 2.30249 -4.66135 0
M  V30 1438 C 136.852 2.79376 -4.17438 0
M  V30 1439 C 138.846 2.13645 -6.00529 0
M  V30 1440 C 136.533 2.6239 -5.51901 0
M  V30 1441 C 137.531 2.29573 -6.43262 0
M  V30 1442 O 137.219 2.12719 -7.75246 0
M  V30 1443 H 136.951 0.469031 -0.486812 0
M  V30 1444 H 139.505 0.88564 -1.85326 0
M  V30 1445 H 137.735 3.4389 -1.76852 0
M  V30 1446 H 139.424 3.41947 -2.18694 0
M  V30 1447 H 140.19 2.17398 -4.33547 0
M  V30 1448 H 136.069 3.03906 -3.46644 0
M  V30 1449 H 139.613 1.87953 -6.71803 0
M  V30 1450 H 135.51 2.74826 -5.84073 0
M  V30 1451 H 136.278 2.27611 -7.86216 0
M  V30 1452 N 138.941 1.26152 0.944643 0
M  V30 1453 C 140.171 1.14094 1.72239 0
M  V30 1454 C 140.579 -0.306931 1.86694 0
M  V30 1455 O 139.922 -1.22222 1.3714 0
M  V30 1456 C 139.984 1.73316 3.14963 0
M  V30 1457 C 139.648 3.2239 3.23904 0
M  V30 1458 C 140.645 4.19252 3.07447 0
M  V30 1459 C 138.33 3.62788 3.47405 0
M  V30 1460 C 140.324 5.54491 3.14353 0
M  V30 1461 C 138.011 4.98162 3.53947 0
M  V30 1462 C 139.009 5.93823 3.37436 0
M  V30 1463 O 138.697 7.26732 3.43679 0
M  V30 1464 H 138.429 0.398292 0.546205 0
M  V30 1465 H 140.983 1.67201 1.19301 0
M  V30 1466 H 139.213 1.14667 3.69308 0
M  V30 1467 H 140.902 1.56214 3.74636 0
M  V30 1468 H 141.668 3.8938 2.8915 0
M  V30 1469 H 137.547 2.88816 3.59313 0
M  V30 1470 H 141.091 6.29137 3.01384 0
M  V30 1471 H 136.988 5.27695 3.71763 0
M  V30 1472 H 137.756 7.3496 3.60245 0
M  V30 1473 N 140.419 -1.14872 1.07899 0
M  V30 1474 C 141.659 -1.8745 0.814965 0
M  V30 1475 C 142.023 -1.80758 -0.64733 0
M  V30 1476 O 143.224 -2.48422 -1.02664 0
M  V30 1477 C 141.495 -3.32286 1.31607 0
M  V30 1478 S 143.054 -4.22537 1.18357 0
M  V30 1479 H 139.872 -0.646833 0.295174 0
M  V30 1480 H 142.474 -1.38555 1.37923 0
M  V30 1481 H 141.178 -3.34703 2.37491 0
M  V30 1482 H 140.709 -3.86238 0.747261 0
M  V30 1483 H 142.724 -4.96044 0.124586 0
M  V30 1484 N 141.898 -0.863906 -1.31812 0
M  V30 1485 C 142.861 -0.320212 -2.26952 0
M  V30 1486 C 143.861 0.525369 -1.51975 0
M  V30 1487 O 145.051 0.335547 -1.70938 0
M  V30 1488 C 142.183 0.545919 -3.365 0
M  V30 1489 H 143.376 -1.16004 -2.76556 0
M  V30 1490 H 140.929 -0.638995 -1.42641 0
M  V30 1491 H 141.664 1.40718 -2.92179 0
M  V30 1492 H 141.449 -0.0594674 -3.92055 0
M  V30 1493 H 142.939 0.918796 -4.07367 0
M  V30 1494 N 143.376 1.44774 -0.622745 0
M  V30 1495 C 144.792 1.56986 -0.287652 0
M  V30 1496 C 144.992 1.61167 1.20944 0
M  V30 1497 O 144.048 1.55015 1.99315 0
M  V30 1498 C 145.361 2.84551 -0.972188 0
M  V30 1499 C 146.909 2.9825 -0.949536 0
M  V30 1500 C 147.384 4.28605 -1.61437 0
M  V30 1501 N 148.875 4.35399 -1.58057 0
M  V30 1502 C 149.61 5.34964 -2.064 0
M  V30 1503 N 149.106 6.40981 -2.62897 0
M  V30 1504 N 150.899 5.26419 -1.97078 0
M  V30 1505 H 143.05 1.40304 -1.59463 0
M  V30 1506 H 145.313 0.671794 -0.668878 0
M  V30 1507 H 145.019 2.87417 -2.02693 0
M  V30 1508 H 144.893 3.73807 -0.504771 0
M  V30 1509 H 147.28 2.94941 0.0967067 0
M  V30 1510 H 147.361 2.10364 -1.45536 0
M  V30 1511 H 147.005 4.32672 -2.66002 0
M  V30 1512 H 146.935 5.15334 -1.08344 0
M  V30 1513 H 149.426 3.59397 -1.16801 0
M  V30 1514 H 149.739 7.13225 -2.97539 0
M  V30 1515 H 148.084 6.4169 -2.66943 0
M  V30 1516 H 151.275 4.42504 -1.52669 0
M  V30 1517 H 151.448 6.03861 -2.35066 0
M  V30 1518 N 144.854 0.36279 1.53368 0
M  V30 1519 C 146.27 0.0116182 1.59596 0
M  V30 1520 C 146.47 -1.47012 1.37803 0
M  V30 1521 O 145.526 -2.23136 1.18181 0
M  V30 1522 C 146.839 0.465052 2.97082 0
M  V30 1523 C 148.387 0.419033 3.10182 0
M  V30 1524 C 148.862 0.848235 4.50077 0
M  V30 1525 N 150.353 0.803183 4.56183 0
M  V30 1526 C 151.088 1.107 5.62613 0
M  V30 1527 N 150.584 1.47996 6.76808 0
M  V30 1528 N 152.377 1.02998 5.52583 0
M  V30 1529 H 144.528 1.32775 1.65785 0
M  V30 1530 H 146.791 0.542518 0.777417 0
M  V30 1531 H 146.497 1.49892 3.18159 0
M  V30 1532 H 146.371 -0.149786 3.76902 0
M  V30 1533 H 148.758 -0.605696 2.88817 0
M  V30 1534 H 148.839 1.06933 2.32377 0
M  V30 1535 H 148.483 1.87107 4.7218 0
M  V30 1536 H 148.413 0.175218 5.26308 0
M  V30 1537 H 150.904 0.52838 3.74188 0
M  V30 1538 H 151.217 1.69613 7.53957 0
M  V30 1539 H 149.562 1.51859 6.78206 0
M  V30 1540 H 152.753 0.737817 4.62249 0
M  V30 1541 H 152.926 1.2701 6.35431 0
M  V30 1542 N 146.332 -1.57332 0.0918853 0
M  V30 1543 C 147.748 -1.57389 -0.264766 0
M  V30 1544 C 147.948 -1.10281 -1.68643 0
M  V30 1545 O 147.004 -0.777801 -2.40222 0
M  V30 1546 C 148.317 -3.00648 -0.0561195 0
M  V30 1547 C 149.865 -3.12754 -0.124116 0
M  V30 1548 C 150.34 -4.57965 0.0564972 0
M  V30 1549 N 151.831 -4.632 0.00155611 0
M  V30 1550 C 152.566 -5.73281 0.116598 0
M  V30 1551 N 152.062 -6.92208 0.286294 0
M  V30 1552 N 153.855 -5.6207 0.0580973 0
M  V30 1553 H 146.006 -1.86262 1.02079 0
M  V30 1554 H 148.269 -0.859579 0.399786 0
M  V30 1555 H 147.975 -3.393 0.925669 0
M  V30 1556 H 147.849 -3.68623 -0.799823 0
M  V30 1557 H 150.236 -2.73976 -1.09641 0
M  V30 1558 H 150.317 -2.47377 0.651024 0
M  V30 1559 H 149.961 -4.97436 1.02564 0
M  V30 1560 H 149.891 -5.21399 -0.738297 0
M  V30 1561 H 152.382 -3.77686 -0.127192 0
M  V30 1562 H 152.695 -7.71934 0.365676 0
M  V30 1563 H 151.04 -6.94254 0.32192 0
M  V30 1564 H 154.231 -4.68043 -0.0733204 0
M  V30 1565 H 154.404 -6.47824 0.151203 0
M  V30 1566 N 147.81 0.181792 -1.56548 0
M  V30 1567 C 149.221 0.745244 -1.71181 0
M  V30 1568 C 149.572 1.83262 -0.70068 0
M  V30 1569 O 148.697 2.15946 0.140154 0
M  V30 1570 C 149.292 1.35859 -3.10367 0
M  V30 1571 C 147.851 1.86898 -3.2672 0
M  V30 1572 C 146.998 0.743942 -2.67134 0
M  V30 1573 H 149.949 -0.0434661 -1.5864 0
M  V30 1574 H 149.97 2.22817 -3.08436 0
M  V30 1575 H 149.482 0.566948 -3.83937 0
M  V30 1576 H 147.583 2.68738 -2.5809 0
M  V30 1577 H 147.696 2.02162 -4.34359 0
M  V30 1578 H 146.06 1.16169 -2.26665 0
M  V30 1579 H 146.843 -0.035676 -3.43281 0
M  V30 1580 N 149.288 1.51039 0.449983 0
M  V30 1581 C 150.536 1.62759 1.19808 0
M  V30 1582 C 150.857 0.339981 1.92013 0
M  V30 1583 O 150.127 -0.643606 1.85026 0
M  V30 1584 H 148.707 0.599811 0.445237 0
M  V30 1585 H 151.369 1.87914 0.517138 0
M  V30 1586 H 150.465 2.44911 1.93455 0
M  V30 1587 N 150.766 -0.704594 1.40972 0
M  V30 1588 C 151.698 -1.82974 1.38033 0
M  V30 1589 C 152.711 -1.60305 0.283931 0
M  V30 1590 O 153.9 -1.69975 0.545042 0
M  V30 1591 C 151 -3.19578 1.12795 0
M  V30 1592 C 150.173 -3.69352 2.34302 0
M  V30 1593 C 149.232 -4.84601 2.05058 0
M  V30 1594 O 148.258 -4.96682 2.7802 0
M  V30 1595 N 149.46 -5.71194 1.03528 0
M  V30 1596 H 152.225 -1.85991 2.35005 0
M  V30 1597 H 149.786 -0.886567 1.35468 0
M  V30 1598 H 151.778 -3.9429 0.911987 0
M  V30 1599 H 150.348 -3.11642 0.24452 0
M  V30 1600 H 149.568 -2.85649 2.71659 0
M  V30 1601 H 150.856 -3.99345 3.1528 0
M  V30 1602 H 150.254 -5.64054 0.431217 0
M  V30 1603 H 148.811 -6.45843 0.879205 0
M  V30 1604 N 152.244 -1.26651 -0.937939 0
M  V30 1605 C 153.492 -1.12165 -1.68118 0
M  V30 1606 C 153.813 0.334983 -1.92101 0
M  V30 1607 O 153.083 1.23583 -1.52 0
M  V30 1608 H 151.663 -0.412093 -0.623048 0
M  V30 1609 H 154.325 -1.59027 -1.12678 0
M  V30 1610 H 153.421 -1.64289 -2.6536 0
M  V30 1611 N 153.722 1.14298 -1.08507 0
M  V30 1612 C 154.952 1.88945 -0.835663 0
M  V30 1613 C 155.36 1.78894 0.615928 0
M  V30 1614 O 154.703 1.1468 1.43506 0
M  V30 1615 C 154.765 3.39585 -1.17994 0
M  V30 1616 C 154.429 3.7342 -2.63451 0
M  V30 1617 C 155.426 3.73454 -3.61702 0
M  V30 1618 C 153.111 4.03368 -2.99332 0
M  V30 1619 C 155.105 4.02961 -4.93864 0
M  V30 1620 C 152.792 4.32538 -4.31687 0
M  V30 1621 C 153.79 4.32318 -5.28763 0
M  V30 1622 O 153.478 4.6078 -6.58739 0
M  V30 1623 H 153.21 0.605307 -0.300965 0
M  V30 1624 H 155.764 1.45673 -1.44806 0
M  V30 1625 H 153.994 3.83315 -0.51055 0
M  V30 1626 H 155.683 3.9554 -0.911182 0
M  V30 1627 H 156.449 3.50403 -3.35325 0
M  V30 1628 H 152.328 4.02692 -2.24411 0
M  V30 1629 H 155.872 4.02704 -5.69627 0
M  V30 1630 H 151.769 4.55059 -4.57812 0
M  V30 1631 H 152.537 4.78492 -6.64069 0
M  V30 1632 N 155.201 0.870884 1.31352 0
M  V30 1633 C 156.448 0.482273 1.96673 0
M  V30 1634 C 156.776 -0.965638 1.68836 0
M  V30 1635 O 156.031 -1.69514 0.977937 0
M  V30 1636 C 156.33 0.687157 3.50732 0
M  V30 1637 C 155.996 2.108 3.9859 0
M  V30 1638 C 154.658 2.49656 4.1137 0
M  V30 1639 C 157.01 3.03459 4.23748 0
M  V30 1640 C 154.338 3.80412 4.46659 0
M  V30 1641 C 156.69 4.3373 4.60501 0
M  V30 1642 C 155.354 4.725 4.71487 0
M  V30 1643 H 154.624 0.176476 0.719679 0
M  V30 1644 H 157.271 1.10405 1.56471 0
M  V30 1645 H 155.576 -0.0177476 3.91796 0
M  V30 1646 H 157.273 0.366284 3.99324 0
M  V30 1647 H 153.863 1.79633 3.8914 0
M  V30 1648 H 158.047 2.74665 4.13368 0
M  V30 1649 H 153.303 4.1021 4.53362 0
M  V30 1650 H 157.477 5.05578 4.78919 0
M  V30 1651 H 155.104 5.73859 4.98588 0
M  V30 1652 N 156.679 -1.44442 0.630414 0
M  V30 1653 C 157.956 -1.9549 0.0655657 0
M  V30 1654 C 158.336 -1.5724 -1.40851 0
M  V30 1655 O 157.684 -0.846116 -2.12257 0
M  V30 1656 C 157.894 -3.47812 0.287691 0
M  V30 1657 C 159.242 -4.24216 0.180513 0
M  V30 1658 O 160.266 -3.55526 0.219019 0
M  V30 1659 O 159.125 -5.46434 0.0848493 0
M  V30 1660 H 156.219 -0.826688 -0.0227177 0
M  V30 1661 H 158.765 -1.54496 0.702068 0
M  V30 1662 H 157.537 -3.687 1.31056 0
M  V30 1663 H 157.16 -3.95751 -0.382984 0
M  V30 1664 N 158.157 -0.370918 -1.53173 0
M  V30 1665 C 159.404 0.217102 -2.01333 0
M  V30 1666 C 159.732 1.48338 -1.25802 0
M  V30 1667 O 158.987 1.92698 -0.34146 0
M  V30 1668 C 159.286 0.549696 -3.53147 0
M  V30 1669 C 158.952 -0.622872 -4.46577 0
M  V30 1670 C 157.614 -0.944595 -4.71838 0
M  V30 1671 C 159.966 -1.40819 -5.01816 0
M  V30 1672 C 157.294 -2.05351 -5.49589 0
M  V30 1673 C 159.646 -2.50757 -5.80778 0
M  V30 1674 C 158.31 -2.83458 -6.04324 0
M  V30 1675 H 157.58 0.0794431 -0.736729 0
M  V30 1676 H 160.227 -0.504481 -1.84736 0
M  V30 1677 H 158.532 1.35237 -3.6772 0
M  V30 1678 H 160.229 1.017 -3.87889 0
M  V30 1679 H 156.819 -0.36209 -4.27068 0
M  V30 1680 H 161.003 -1.17289 -4.82242 0
M  V30 1681 H 156.259 -2.3108 -5.6605 0
M  V30 1682 H 160.433 -3.12022 -6.22588 0
M  V30 1683 H 158.06 -3.69508 -6.64355 0
M  V30 1684 N 159.635 1.57281 -0.100228 0
M  V30 1685 C 160.881 1.95626 0.556946 0
M  V30 1686 C 161.236 0.981655 1.65473 0
M  V30 1687 O 160.529 0.00849847 1.91598 0
M  V30 1688 C 160.723 3.38305 1.15259 0
M  V30 1689 C 160.552 4.49555 0.114035 0
M  V30 1690 C 159.322 5.0434 -0.311266 0
M  V30 1691 C 161.52 5.10051 -0.659768 0
M  V30 1692 N 159.502 5.99152 -1.33755 0
M  V30 1693 C 160.873 6.00628 -1.53774 0
M  V30 1694 C 162.928 4.92772 -0.712723 0
M  V30 1695 C 161.631 6.7578 -2.46403 0
M  V30 1696 C 163.657 5.6859 -1.62663 0
M  V30 1697 C 163.019 6.58838 -2.49222 0
M  V30 1698 H 159.118 0.7624 0.173982 0
M  V30 1699 H 161.702 1.93829 -0.183988 0
M  V30 1700 H 159.873 3.40786 1.86332 0
M  V30 1701 H 161.605 3.63817 1.77254 0
M  V30 1702 H 158.36 4.73537 0.0774812 0
M  V30 1703 H 158.784 6.5126 -1.84905 0
M  V30 1704 H 163.426 4.22761 -0.0576648 0
M  V30 1705 H 161.144 7.4505 -3.12931 0
M  V30 1706 H 164.73 5.57233 -1.67281 0
M  V30 1707 H 163.61 7.16479 -3.18791 0
M  V30 1708 N 161.113 -0.173488 1.56642 0
M  V30 1709 C 162.361 -0.888706 1.81512 0
M  V30 1710 C 162.682 -1.82875 0.676872 0
M  V30 1711 O 161.952 -1.93536 -0.303414 0
M  V30 1712 H 160.532 -0.331164 0.669582 0
M  V30 1713 H 163.194 -0.173823 1.94123 0
M  V30 1714 H 162.29 -1.46691 2.75478 0
M  V30 1715 N 162.591 -1.51276 -0.441967 0
M  V30 1716 C 163.523 -1.68444 -1.55433 0
M  V30 1717 C 164.536 -0.565187 -1.52674 0
M  V30 1718 O 165.725 -0.839356 -1.57534 0
M  V30 1719 C 162.825 -1.67966 -2.94348 0
M  V30 1720 C 161.998 -2.964 -3.21661 0
M  V30 1721 C 161.057 -2.88171 -4.40277 0
M  V30 1722 O 160.083 -3.62119 -4.39157 0
M  V30 1723 N 161.285 -2.03706 -5.43584 0
M  V30 1724 H 164.05 -2.644 -1.41112 0
M  V30 1725 H 161.611 -1.49104 -0.630838 0
M  V30 1726 H 163.603 -1.60035 -3.71713 0
M  V30 1727 H 162.173 -0.796225 -3.0229 0
M  V30 1728 H 161.393 -3.18234 -2.32638 0
M  V30 1729 H 162.681 -3.81427 -3.36736 0
M  V30 1730 H 162.079 -1.42995 -5.47329 0
M  V30 1731 H 160.636 -2.01658 -6.1982 0
M  V30 1732 N 164.069 0.697108 -1.41344 0
M  V30 1733 C 165.317 1.45426 -1.40341 0
M  V30 1734 C 165.638 1.94996 -0.0128787 0
M  V30 1735 O 164.908 1.71599 0.945027 0
M  V30 1736 H 163.488 0.539594 -0.516573 0
M  V30 1737 H 166.15 0.825201 -1.76569 0
M  V30 1738 H 165.246 2.31817 -2.08967 0
M  V30 1739 N 165.547 1.27147 0.931209 0
M  V30 1740 C 166.775 1.16082 1.71267 0
M  V30 1741 C 167.19 -0.282772 1.8667 0
M  V30 1742 O 166.547 -1.19283 1.38122 0
M  V30 1743 C 166.598 1.8358 3.11417 0
M  V30 1744 O 166.319 3.22299 2.96741 0
M  V30 1745 C 167.82 1.78597 4.05732 0
M  V30 1746 H 165.04 0.403758 0.535929 0
M  V30 1747 H 167.584 1.67953 1.16671 0
M  V30 1748 H 165.739 1.35623 3.62885 0
M  V30 1749 H 166.153 3.55851 3.85319 0
M  V30 1750 H 167.627 2.30444 5.01597 0
M  V30 1751 H 168.104 0.754564 4.3267 0
M  V30 1752 H 168.71 2.26152 3.60188 0
M  V30 1753 N 167.025 -1.13721 1.09112 0
M  V30 1754 C 167.955 -2.21148 0.749385 0
M  V30 1755 C 168.936 -1.6792 -0.271475 0
M  V30 1756 O 170.121 -1.93693 -0.140251 0
M  V30 1757 C 167.251 -3.46905 0.165659 0
M  V30 1758 C 166.205 -4.13203 1.11567 0
M  V30 1759 C 165.531 -5.33248 0.393809 0
M  V30 1760 C 166.831 -4.60912 2.45678 0
M  V30 1761 H 168.525 -2.4999 1.64758 0
M  V30 1762 H 166.071 -1.20156 0.793626 0
M  V30 1763 H 168.024 -4.21313 -0.085466 0
M  V30 1764 H 166.748 -3.17449 -0.767714 0
M  V30 1765 H 165.407 -3.40758 1.35202 0
M  V30 1766 H 165.055 -5.00054 -0.543599 0
M  V30 1767 H 164.755 -5.78552 1.02721 0
M  V30 1768 H 166.279 -6.10413 0.150908 0
M  V30 1769 H 167.693 -5.26759 2.26269 0
M  V30 1770 H 166.09 -5.16944 3.04776 0
M  V30 1771 H 167.16 -3.75603 3.06677 0
M  V30 1772 N 168.503 -0.877838 -1.30888 0
M  V30 1773 C 169.749 -0.493426 -1.96706 0
M  V30 1774 C 170.082 0.953504 -1.6918 0
M  V30 1775 O 169.357 1.67266 -0.992594 0
M  V30 1776 C 169.64 -0.760429 -3.51979 0
M  V30 1777 C 169.493 -2.25747 -3.89048 0
M  V30 1778 C 170.812 -0.232148 -4.39487 0
M  V30 1779 H 167.931 -0.180746 -0.714493 0
M  V30 1780 H 170.573 -1.10052 -1.54882 0
M  V30 1781 H 168.723 -0.243715 -3.87735 0
M  V30 1782 H 170.395 -2.84204 -3.63354 0
M  V30 1783 H 168.638 -2.72694 -3.37373 0
M  V30 1784 H 169.309 -2.39491 -4.97341 0
M  V30 1785 H 171.785 -0.674314 -4.106 0
M  V30 1786 H 170.661 -0.448355 -5.47066 0
M  V30 1787 H 170.922 0.866297 -4.33529 0
M  V30 1788 N 169.982 1.44106 -0.638065 0
M  V30 1789 C 171.21 2.06336 -0.152615 0
M  V30 1790 C 171.625 1.47731 1.17563 0
M  V30 1791 O 170.982 0.602806 1.72257 0
M  V30 1792 C 171.033 3.61479 -0.0391491 0
M  V30 1793 O 170.754 4.17903 -1.31487 0
M  V30 1794 C 172.255 4.40757 0.474176 0
M  V30 1795 H 169.475 0.665862 -0.0828776 0
M  V30 1796 H 172.019 1.84862 -0.87443 0
M  V30 1797 H 170.174 3.82191 0.633142 0
M  V30 1798 H 170.588 5.11416 -1.16421 0
M  V30 1799 H 172.062 5.49707 0.502562 0
M  V30 1800 H 172.539 4.12697 1.50258 0
M  V30 1801 H 173.145 4.24979 -0.165102 0
M  V30 1802 N 171.46 0.379036 1.52974 0
M  V30 1803 C 172.706 -0.206727 2.01744 0
M  V30 1804 C 173.039 -1.47314 1.26539 0
M  V30 1805 O 172.314 -1.91084 0.362903 0
M  V30 1806 C 172.597 -0.485066 3.56818 0
M  V30 1807 C 172.45 0.795919 4.42702 0
M  V30 1808 C 173.769 -1.28003 4.21074 0
M  V30 1809 H 170.888 -0.0736607 0.73331 0
M  V30 1810 H 173.53 0.506581 1.83122 0
M  V30 1811 H 171.68 -1.09272 3.72816 0
M  V30 1812 H 173.352 1.43307 4.38476 0
M  V30 1813 H 171.595 1.41344 4.10127 0
M  V30 1814 H 172.266 0.555947 5.49193 0
M  V30 1815 H 174.742 -0.765867 4.08991 0
M  V30 1816 H 173.618 -1.44352 5.29579 0
M  V30 1817 H 173.879 -2.29236 3.78026 0
M  V30 1818 N 172.938 -1.57226 0.108567 0
M  V30 1819 C 174.163 -1.99604 -0.563303 0
M  V30 1820 C 174.588 -0.987563 -1.6009 0
M  V30 1821 O 173.946 0.0421687 -1.81251 0
M  V30 1822 C 173.994 -3.40902 -1.17552 0
M  V30 1823 O 173.098 -3.42896 -2.2912 0
M  V30 1824 H 172.439 -0.648704 -0.1417 0
M  V30 1825 H 174.969 -2.03679 0.193961 0
M  V30 1826 H 174.979 -3.78886 -1.51357 0
M  V30 1827 H 173.654 -4.1382 -0.415445 0
M  V30 1828 H 172.231 -3.1672 -1.96832 0
M  V30 1829 N 174.416 0.165178 -1.56732 0
M  V30 1830 C 175.641 0.900253 -1.86843 0
M  V30 1831 C 176.066 1.74766 -0.695596 0
M  V30 1832 O 175.424 1.77786 0.35522 0
M  V30 1833 C 175.472 1.74777 -3.15413 0
M  V30 1834 O 174.576 2.85007 -2.98068 0
M  V30 1835 H 173.917 0.251832 -0.614391 0
M  V30 1836 H 176.447 0.161468 -2.03962 0
M  V30 1837 H 176.457 2.14646 -3.46974 0
M  V30 1838 H 175.132 1.12537 -4.00385 0
M  V30 1839 H 173.709 2.48676 -2.77875 0
M  V30 1840 N 175.894 1.51508 0.433938 0
M  V30 1841 C 177.119 1.68443 1.21003 0
M  V30 1842 C 177.544 0.382636 1.84167 0
M  V30 1843 O 176.902 -0.65755 1.68956 0
M  V30 1844 C 176.95 2.80405 2.26727 0
M  V30 1845 O 176.054 2.44245 3.32292 0
M  V30 1846 H 175.395 0.561536 0.354363 0
M  V30 1847 H 177.925 1.9809 0.512024 0
M  V30 1848 H 177.935 3.0459 2.71457 0
M  V30 1849 H 176.61 3.74867 1.80132 0
M  V30 1850 H 175.187 2.30644 2.93015 0
M  V30 1851 N 177.372 -0.689602 1.41712 0
M  V30 1852 C 178.597 -1.48329 1.44959 0
M  V30 1853 C 179.022 -1.8801 0.0581283 0
M  V30 1854 O 178.38 -1.55026 -0.940035 0
M  V30 1855 C 178.428 -2.71835 2.36935 0
M  V30 1856 O 177.532 -3.69549 1.8305 0
M  V30 1857 H 176.873 -0.446199 0.491734 0
M  V30 1858 H 179.403 -0.847127 1.86239 0
M  V30 1859 H 179.413 -3.20076 2.53013 0
M  V30 1860 H 178.088 -2.42291 3.38035 0
M  V30 1861 H 176.665 -3.2851 1.76452 0
M  V30 1862 N 178.85 -1.27639 -0.924453 0
M  V30 1863 C 180.078 -1.16989 -1.70649 0
M  V30 1864 C 180.493 0.272869 -1.86818 0
M  V30 1865 O 179.85 1.18549 -1.38753 0
M  V30 1866 C 179.901 -1.85229 -3.10439 0
M  V30 1867 O 179.622 -3.23868 -2.95028 0
M  V30 1868 C 181.123 -1.80746 -4.04779 0
M  V30 1869 H 178.343 -0.406595 -0.53378 0
M  V30 1870 H 180.887 -1.68569 -1.15778 0
M  V30 1871 H 179.042 -1.37545 -3.6216 0
M  V30 1872 H 179.456 -3.57889 -3.83426 0
M  V30 1873 H 180.93 -2.33101 -5.00368 0
M  V30 1874 H 181.407 -0.777499 -4.32263 0
M  V30 1875 H 182.013 -2.28059 -3.58984 0
M  V30 1876 N 180.328 1.1314 -1.09713 0
M  V30 1877 C 181.275 2.18642 -0.739196 0
M  V30 1878 C 182.245 1.63706 0.280978 0
M  V30 1879 O 183.43 1.90111 0.161946 0
M  V30 1880 C 180.57 3.44685 -0.169102 0
M  V30 1881 C 179.683 4.13711 -1.24367 0
M  V30 1882 C 178.818 5.27379 -0.636019 0
M  V30 1883 C 177.857 5.88259 -1.69169 0
M  V30 1884 N 176.994 6.93352 -1.10485 0
M  V30 1885 H 181.834 2.48607 -1.64312 0
M  V30 1886 H 179.371 1.22066 -0.820875 0
M  V30 1887 H 181.329 4.16815 0.179256 0
M  V30 1888 H 179.959 3.15161 0.698079 0
M  V30 1889 H 179.011 3.39835 -1.70927 0
M  V30 1890 H 180.323 4.55037 -2.04311 0
M  V30 1891 H 179.477 6.06238 -0.236677 0
M  V30 1892 H 178.216 4.8731 0.194928 0
M  V30 1893 H 177.221 5.08092 -2.10055 0
M  V30 1894 H 178.446 6.30399 -2.52536 0
M  V30 1895 H 176.392 6.55335 -0.295234 0
M  V30 1896 H 176.309 7.33236 -1.84121 0
M  V30 1897 H 177.577 7.76057 -0.73181 0
M  V30 1898 N 181.806 0.884767 1.30421 0
M  V30 1899 C 183.054 0.502112 1.95763 0
M  V30 1900 C 183.375 -0.951815 1.70192 0
M  V30 1901 O 182.645 -1.6692 1.0254 0
M  V30 1902 H 181.225 0.182694 0.724315 0
M  V30 1903 H 183.887 1.1278 1.58955 0
M  V30 1904 H 182.983 0.672188 3.04775 0
M  V30 1905 N 183.284 -1.43765 0.645699 0
M  V30 1906 C 184.695 -1.85193 0.236719 0
M  V30 1907 C 185.046 -1.54045 -1.21509 0
M  V30 1908 O 184.171 -0.985694 -1.92647 0
M  V30 1909 C 184.766 -3.36151 0.422845 0
M  V30 1910 C 183.325 -3.76338 0.0682492 0
M  V30 1911 C 182.472 -2.67538 0.729306 0
M  V30 1912 H 185.423 -1.34025 0.849883 0
M  V30 1913 H 185.444 -3.79032 -0.333904 0
M  V30 1914 H 184.956 -3.5879 1.47958 0
M  V30 1915 H 183.057 -3.59312 -0.986179 0
M  V30 1916 H 183.17 -4.76603 0.488469 0
M  V30 1917 H 181.534 -2.54176 0.163235 0
M  V30 1918 H 182.317 -2.93006 1.78892 0
M  V30 1919 N 184.763 -0.387143 -1.52771 0
M  V30 1920 C 185.988 0.198407 -2.06449 0
M  V30 1921 C 186.413 1.39918 -1.25716 0
M  V30 1922 O 185.771 1.79099 -0.281657 0
M  V30 1923 C 185.819 0.548893 -3.56398 0
M  V30 1924 O 184.923 1.64315 -3.78252 0
M  V30 1925 H 184.264 0.0237731 -0.663574 0
M  V30 1926 H 186.794 -0.553989 -1.96957 0
M  V30 1927 H 186.804 0.813812 -3.99801 0
M  V30 1928 H 185.479 -0.329005 -4.14597 0
M  V30 1929 H 184.056 1.37211 -3.46738 0
M  V30 1930 N 186.241 1.57166 -0.116904 0
M  V30 1931 C 187.487 1.95412 0.542405 0
M  V30 1932 C 187.82 1.00019 1.66463 0
M  V30 1933 O 187.095 0.0370346 1.94465 0
M  V30 1934 C 187.378 3.43615 1.07708 0
M  V30 1935 C 187.231 4.49781 -0.0415868 0
M  V30 1936 C 188.55 3.93616 1.96861 0
M  V30 1937 H 185.669 0.710543 0.195696 0
M  V30 1938 H 188.311 1.89027 -0.192038 0
M  V30 1939 H 186.461 3.49187 1.70296 0
M  V30 1940 H 188.133 4.56308 -0.676793 0
M  V30 1941 H 186.376 4.28033 -0.705019 0
M  V30 1942 H 187.047 5.50733 0.373717 0
M  V30 1943 H 189.523 3.90335 1.44146 0
M  V30 1944 H 188.399 4.97838 2.3119 0
M  V30 1945 H 188.66 3.34188 2.89432 0
M  V30 1946 N 187.719 -0.156864 1.56817 0
M  V30 1947 C 188.966 -0.871125 1.82805 0
M  V30 1948 C 189.294 -1.81611 0.696262 0
M  V30 1949 O 188.549 -1.93141 -0.315459 0
M  V30 1950 C 188.848 -1.68737 3.1506 0
M  V30 1951 C 188.514 -0.890045 4.42028 0
M  V30 1952 C 187.176 -0.670042 4.76512 0
M  V30 1953 C 189.528 -0.331769 5.20143 0
M  V30 1954 C 186.856 0.119104 5.86579 0
M  V30 1955 C 189.208 0.444365 6.31037 0
M  V30 1956 C 187.872 0.675035 6.64078 0
M  V30 1957 H 187.142 -0.318767 0.668931 0
M  V30 1958 H 189.789 -0.135274 1.91022 0
M  V30 1959 H 188.094 -2.49304 3.0225 0
M  V30 1960 H 189.791 -2.24331 3.3238 0
M  V30 1961 H 186.381 -1.07157 4.14988 0
M  V30 1962 H 190.565 -0.489043 4.93885 0
M  V30 1963 H 185.821 0.307417 6.10627 0
M  V30 1964 H 189.995 0.884139 6.90765 0
M  V30 1965 H 187.622 1.28839 7.49203 0
M  V30 1966 N 189.197 -1.51736 -0.425897 0
M  V30 1967 C 190.608 -1.5732 -1.00536 0
M  V30 1968 C 190.959 -0.403537 -1.92005 0
M  V30 1969 O 190.084 0.478256 -2.11049 0
M  V30 1970 C 190.679 -2.85119 -1.8301 0
M  V30 1971 C 189.238 -2.93236 -2.35987 0
M  V30 1972 C 188.385 -2.52098 -1.15508 0
M  V30 1973 H 191.336 -1.57348 -0.206739 0
M  V30 1974 H 191.357 -2.69526 -2.68581 0
M  V30 1975 H 190.869 -3.7023 -1.16411 0
M  V30 1976 H 188.97 -2.12581 -3.06007 0
M  V30 1977 H 189.083 -3.9713 -2.68001 0
M  V30 1978 H 187.447 -2.05558 -1.50393 0
M  V30 1979 H 188.23 -3.39565 -0.505014 0
M  V30 1980 N 190.675 0.682077 -1.42076 0
M  V30 1981 C 191.605 1.80796 -1.47767 0
M  V30 1982 C 192.586 1.6677 -0.334954 0
M  V30 1983 O 193.771 1.863 -0.548264 0
M  V30 1984 C 190.901 3.19038 -1.37229 0
M  V30 1985 C 189.855 3.47789 -2.49453 0
M  V30 1986 C 189.181 4.8553 -2.23975 0
M  V30 1987 C 190.481 3.45411 -3.91776 0
M  V30 1988 H 192.175 1.7629 -2.41997 0
M  V30 1989 H 189.721 0.846721 -1.16476 0
M  V30 1990 H 191.674 3.97528 -1.39821 0
M  V30 1991 H 190.398 3.24204 -0.394907 0
M  V30 1992 H 189.057 2.71657 -2.46166 0
M  V30 1993 H 188.705 4.87337 -1.24547 0
M  V30 1994 H 188.405 5.0573 -2.99184 0
M  V30 1995 H 189.929 5.66312 -2.28304 0
M  V30 1996 H 191.343 4.13882 -3.96705 0
M  V30 1997 H 189.74 3.77145 -4.66778 0
M  V30 1998 H 190.81 2.44122 -4.18966 0
M  V30 1999 N 192.153 1.28127 0.917671 0
M  V30 2000 C 193.116 1.11744 2.00115 0
M  V30 2001 C 194.116 0.0583052 1.60694 0
M  V30 2002 O 195.306 0.303755 1.71531 0
M  V30 2003 C 192.438 0.704862 3.33533 0
M  V30 2004 H 193.631 2.07966 2.16079 0
M  V30 2005 H 191.184 1.11058 1.09981 0
M  V30 2006 H 191.919 -0.258299 3.2327 0
M  V30 2007 H 191.704 1.4699 3.63505 0
M  V30 2008 H 193.194 0.612768 4.1308 0
M  V30 2009 N 193.631 -1.12557 1.10312 0
M  V30 2010 C 195.042 -1.65574 0.862678 0
M  V30 2011 C 195.393 -1.86566 -0.607256 0
M  V30 2012 O 194.518 -1.59121 -1.46662 0
M  V30 2013 C 195.113 -3.00776 1.55947 0
M  V30 2014 C 193.672 -3.50748 1.36576 0
M  V30 2015 C 192.819 -2.25797 1.60968 0
M  V30 2016 H 195.77 -0.963552 1.26101 0
M  V30 2017 H 195.791 -3.67185 0.997753 0
M  V30 2018 H 195.303 -2.85465 2.62928 0
M  V30 2019 H 193.404 -3.71245 0.317531 0
M  V30 2020 H 193.517 -4.30289 2.10686 0
M  V30 2021 H 191.881 -2.32841 1.03234 0
M  V30 2022 H 192.664 -2.13043 2.69198 0
M  V30 2023 N 195.109 -0.891671 -1.2995 0
M  V30 2024 C 196.334 -0.527932 -2.00568 0
M  V30 2025 C 196.759 0.877969 -1.66353 0
M  V30 2026 O 196.117 1.58301 -0.883762 0
M  V30 2027 C 196.165 -0.717745 -3.53385 0
M  V30 2028 O 195.269 0.233376 -4.11739 0
M  V30 2029 H 194.61 -0.20722 -0.630837 0
M  V30 2030 H 197.14 -1.20105 -1.65638 0
M  V30 2031 H 197.15 -0.619307 -4.03272 0
M  V30 2032 H 195.825 -1.74276 -3.77625 0
M  V30 2033 H 194.402 0.0880706 -3.72796 0
M  V30 2034 N 196.587 1.43421 -0.653314 0
M  V30 2035 C 197.812 2.06678 -0.172846 0
M  V30 2036 C 198.237 1.48648 1.15262 0
M  V30 2037 O 197.595 0.596457 1.71208 0
M  V30 2038 C 197.643 3.60474 -0.0953184 0
M  V30 2039 O 196.747 4.01487 0.942442 0
M  V30 2040 H 196.088 0.657181 -0.0949155 0
M  V30 2041 H 198.618 1.83925 -0.896265 0
M  V30 2042 H 198.628 4.07905 0.0879728 0
M  V30 2043 H 197.303 4.02088 -1.06291 0
M  V30 2044 H 195.88 3.65646 0.731932 0
M  V30 2045 N 198.065 0.39524 1.52563 0
M  V30 2046 C 199.012 -0.437036 2.26624 0
M  V30 2047 C 199.982 -1.05281 1.28472 0
M  V30 2048 O 201.167 -1.07971 1.57311 0
M  V30 2049 C 198.307 -1.55524 3.08069 0
M  V30 2050 C 197.42 -0.961745 4.21158 0
M  V30 2051 C 196.555 -2.05149 4.89987 0
M  V30 2052 C 195.594 -1.4342 5.95061 0
M  V30 2053 N 194.731 -2.46351 6.57462 0
M  V30 2054 H 199.571 0.200976 2.97322 0
M  V30 2055 H 197.108 0.110944 1.46681 0
M  V30 2056 H 199.066 -2.21437 3.53584 0
M  V30 2057 H 197.696 -2.16348 2.3957 0
M  V30 2058 H 196.748 -0.192048 3.79915 0
M  V30 2059 H 198.06 -0.470701 4.96574 0
M  V30 2060 H 197.214 -2.78819 5.38837 0
M  V30 2061 H 195.953 -2.57615 4.14109 0
M  V30 2062 H 194.958 -0.682774 5.45544 0
M  V30 2063 H 196.183 -0.917416 6.72875 0
M  V30 2064 H 194.129 -2.97975 5.8442 0
M  V30 2065 H 194.046 -2.02019 7.28508 0
M  V30 2066 H 195.314 -3.19633 7.10954 0
M  V30 2067 N 199.544 -1.57102 0.125237 0
M  V30 2068 C 200.769 -2.0019 -0.542101 0
M  V30 2069 C 201.194 -1.00449 -1.59034 0
M  V30 2070 O 200.552 0.0229423 -1.81285 0
M  V30 2071 C 200.6 -3.42129 -1.13929 0
M  V30 2072 O 199.704 -3.45307 -2.2547 0
M  V30 2073 H 199.045 -0.650171 -0.134812 0
M  V30 2074 H 201.575 -2.03461 0.215553 0
M  V30 2075 H 201.585 -3.80471 -1.4733 0
M  V30 2076 H 200.26 -4.14237 -0.371531 0
M  V30 2077 H 198.837 -3.1879 -1.93462 0
M  V30 2078 N 201.022 0.148545 -1.56898 0
M  V30 2079 C 202.25 0.876389 -1.87422 0
M  V30 2080 C 202.665 1.74809 -0.713256 0
M  V30 2081 O 202.022 1.79725 0.317025 0
M  V30 2082 C 202.073 1.73438 -3.17178 0
M  V30 2083 O 201.794 0.897809 -4.28802 0
M  V30 2084 C 203.295 2.56993 -3.61205 0
M  V30 2085 H 200.515 0.253489 -0.621277 0
M  V30 2086 H 203.059 0.141798 -2.04008 0
M  V30 2087 H 201.214 2.42205 -3.0235 0
M  V30 2088 H 201.628 1.48672 -5.02988 0
M  V30 2089 H 203.102 3.12773 -4.54838 0
M  V30 2090 H 203.579 3.32958 -2.86419 0
M  V30 2091 H 204.185 1.9352 -3.78722 0
M  V30 2092 N 202.5 1.5196 0.417844 0
M  V30 2093 C 203.725 1.69717 1.1921 0
M  V30 2094 C 204.15 0.402148 1.83751 0
M  V30 2095 O 203.508 -0.639593 1.69643 0
M  V30 2096 C 203.556 2.82794 2.2374 0
M  V30 2097 O 202.66 2.47756 3.29683 0
M  V30 2098 H 202.001 0.565263 0.348387 0
M  V30 2099 H 204.531 1.98621 0.490985 0
M  V30 2100 H 204.541 3.07452 2.68212 0
M  V30 2101 H 203.216 3.76756 1.76146 0
M  V30 2102 H 201.793 2.33739 2.90552 0
M  V30 2103 N 203.978 -0.674533 1.42435 0
M  V30 2104 C 205.226 -1.43175 1.42637 0
M  V30 2105 C 205.547 -1.94951 0.0438992 0
M  V30 2106 O 204.817 -1.7308 -0.917607 0
M  V30 2107 H 203.397 -0.531307 0.525092 0
M  V30 2108 H 206.059 -0.797006 1.77859 0
M  V30 2109 H 205.155 -2.28463 2.12629 0
M  V30 2110 N 205.456 -1.28612 -0.910864 0
M  V30 2111 C 206.704 -1.15705 -1.65701 0
M  V30 2112 C 207.025 0.29416 -1.92769 0
M  V30 2113 O 206.295 1.20331 -1.54588 0
M  V30 2114 H 204.875 -0.425216 -0.614167 0
M  V30 2115 H 207.537 -1.61381 -1.0928 0
M  V30 2116 H 206.633 -1.6988 -2.61815 0
M  V30 2117 N 206.934 1.1197 -1.10907 0
M  V30 2118 C 208.162 1.87402 -0.876824 0
M  V30 2119 C 208.577 1.79894 0.573025 0
M  V30 2120 O 207.934 1.17629 1.39534 0
M  V30 2121 C 207.985 3.36428 -1.32282 0
M  V30 2122 O 207.706 3.43765 -2.71582 0
M  V30 2123 C 209.207 4.28783 -1.12518 0
M  V30 2124 H 206.427 0.592793 -0.314384 0
M  V30 2125 H 208.971 1.41649 -1.47499 0
M  V30 2126 H 207.126 3.79706 -0.768229 0
M  V30 2127 H 207.54 4.3652 -2.90776 0
M  V30 2128 H 209.014 5.31613 -1.48633 0
M  V30 2129 H 209.491 4.39153 -0.0642394 0
M  V30 2130 H 210.097 3.91291 -1.66648 0
M  V30 2131 N 208.412 0.89855 1.29475 0
M  V30 2132 C 209.375 0.380272 2.26023 0
M  V30 2133 C 210.375 -0.484891 1.53315 0
M  V30 2134 O 211.565 -0.290108 1.71767 0
M  V30 2135 C 208.697 -0.45651 3.3783 0
M  V30 2136 H 209.89 1.23295 2.73383 0
M  V30 2137 H 207.443 0.676589 1.40897 0
M  V30 2138 H 208.178 -1.32922 2.95808 0
M  V30 2139 H 207.963 0.163393 3.91759 0
M  V30 2140 H 209.453 -0.810466 4.0966 0
M  V30 2141 N 209.89 -1.43072 0.660911 0
M  V30 2142 C 210.853 -2.29194 -0.0166406 0
M  V30 2143 C 211.853 -1.42609 -0.742912 0
M  V30 2144 O 213.043 -1.64155 -0.583004 0
M  V30 2145 C 210.175 -3.24831 -1.0343 0
M  V30 2146 H 211.368 -2.90596 0.741208 0
M  V30 2147 H 208.921 -1.5048 0.422532 0
M  V30 2148 H 209.656 -2.68339 -1.82111 0
M  V30 2149 H 209.441 -3.88676 -0.517082 0
M  V30 2150 H 210.931 -3.89451 -1.50723 0
M  V30 2151 N 211.368 -0.403325 -1.52352 0
M  V30 2152 C 212.298 0.416205 -2.29761 0
M  V30 2153 C 213.279 1.05123 -1.33728 0
M  V30 2154 O 214.464 1.06134 -1.62632 0
M  V30 2155 C 211.594 1.53624 -3.11475 0
M  V30 2156 C 210.548 1.02653 -4.15507 0
M  V30 2157 C 209.874 2.23971 -4.85532 0
M  V30 2158 C 211.174 0.08463 -5.22231 0
M  V30 2159 H 212.868 -0.229701 -2.98518 0
M  V30 2160 H 210.414 -0.111913 -1.43564 0
M  V30 2161 H 212.367 2.1165 -3.64393 0
M  V30 2162 H 211.091 2.20994 -2.40477 0
M  V30 2163 H 209.75 0.46871 -3.63591 0
M  V30 2164 H 209.398 2.89883 -4.11068 0
M  V30 2165 H 209.098 1.90521 -5.55856 0
M  V30 2166 H 210.622 2.82614 -5.41259 0
M  V30 2167 H 212.036 0.573509 -5.70424 0
M  V30 2168 H 210.433 -0.160783 -5.99885 0
M  V30 2169 H 211.503 -0.86237 -4.7717 0
M  V30 2170 N 212.846 1.57033 -0.133567 0
M  V30 2171 C 214.094 1.953 0.519848 0
M  V30 2172 C 214.415 1.01866 1.66278 0
M  V30 2173 O 213.685 0.0776513 1.95746 0
M  V30 2174 H 212.265 0.721091 0.195032 0
M  V30 2175 H 214.927 1.93809 -0.205921 0
M  V30 2176 H 214.023 2.98695 0.904854 0
M  V30 2177 N 214.325 -0.140222 1.56975 0
M  V30 2178 C 215.565 -0.857823 1.85528 0
M  V30 2179 C 215.929 -1.78039 0.718768 0
M  V30 2180 O 217.13 -2.53795 0.885521 0
M  V30 2181 C 215.401 -1.60615 3.19277 0
M  V30 2182 S 216.96 -2.36824 3.69405 0
M  V30 2183 H 213.778 -0.286727 0.650622 0
M  V30 2184 H 216.38 -0.117408 1.95147 0
M  V30 2185 H 215.084 -0.919994 3.99955 0
M  V30 2186 H 214.615 -2.38735 3.12681 0
M  V30 2187 H 216.63 -3.62148 3.3921 0
M  V30 2188 N 215.803 -1.52179 -0.40978 0
M  V30 2189 C 216.733 -1.78435 -1.5061 0
M  V30 2190 C 217.714 -0.635295 -1.57791 0
M  V30 2191 O 218.899 -0.880823 -1.73076 0
M  V30 2192 C 216.029 -1.93444 -2.88439 0
M  V30 2193 C 214.983 -3.09038 -2.96108 0
M  V30 2194 C 214.309 -3.09268 -4.36185 0
M  V30 2195 C 215.609 -4.48508 -2.67652 0
M  V30 2196 H 217.303 -2.70237 -1.28889 0
M  V30 2197 H 214.849 -1.30036 -0.618605 0
M  V30 2198 H 216.802 -2.10394 -3.65119 0
M  V30 2199 H 215.526 -0.983129 -3.11452 0
M  V30 2200 H 214.185 -2.91837 -2.21872 0
M  V30 2201 H 213.833 -2.11861 -4.56206 0
M  V30 2202 H 213.533 -3.86907 -4.42241 0
M  V30 2203 H 215.057 -3.28348 -5.14801 0
M  V30 2204 H 216.471 -4.65918 -3.34056 0
M  V30 2205 H 214.868 -5.28059 -2.85085 0
M  V30 2206 H 215.938 -4.56649 -1.63095 0
M  V30 2207 N 217.281 0.66697 -1.42791 0
M  V30 2208 C 218.527 1.4291 -1.43891 0
M  V30 2209 C 218.86 1.94114 -0.0578972 0
M  V30 2210 O 218.135 1.71414 0.91911 0
M  V30 2211 C 218.418 2.62049 -2.46987 0
M  V30 2212 C 218.271 2.16426 -3.94309 0
M  V30 2213 C 219.59 3.64266 -2.46978 0
M  V30 2214 H 216.709 0.518306 -0.523954 0
M  V30 2215 H 219.351 0.757321 -1.74255 0
M  V30 2216 H 217.501 3.19361 -2.21225 0
M  V30 2217 H 219.173 1.64221 -4.31079 0
M  V30 2218 H 217.416 1.47925 -4.078 0
M  V30 2219 H 218.087 3.02038 -4.62036 0
M  V30 2220 H 220.563 3.16686 -2.69906 0
M  V30 2221 H 219.439 4.45196 -3.21079 0
M  V30 2222 H 219.7 4.15927 -1.49857 0
M  V30 2223 N 218.759 1.29093 0.90403 0
M  V30 2224 C 219.706 1.13853 2.00764 0
M  V30 2225 C 220.676 0.0330084 1.66067 0
M  V30 2226 O 221.861 0.199733 1.89752 0
M  V30 2227 C 219.001 0.816537 3.35301 0
M  V30 2228 C 218.114 2.00206 3.82807 0
M  V30 2229 C 217.249 1.61983 5.059 0
M  V30 2230 C 216.288 2.77143 5.45764 0
M  V30 2231 N 215.425 2.39346 6.60044 0
M  V30 2232 H 220.265 2.08276 2.13132 0
M  V30 2233 H 217.802 1.03648 1.04381 0
M  V30 2234 H 219.76 0.610557 4.12708 0
M  V30 2235 H 218.39 -0.090779 3.22672 0
M  V30 2236 H 217.442 2.31988 3.01473 0
M  V30 2237 H 218.754 2.86512 4.08304 0
M  V30 2238 H 217.908 1.37649 5.90879 0
M  V30 2239 H 216.647 0.728202 4.82233 0
M  V30 2240 H 215.652 3.02165 4.59322 0
M  V30 2241 H 216.877 3.66964 5.71414 0
M  V30 2242 H 214.823 1.52665 6.37989 0
M  V30 2243 H 214.74 3.19185 6.85315 0
M  V30 2244 H 216.008 2.1832 7.48303 0
M  V30 2245 N 220.237 -1.11381 1.11499 0
M  V30 2246 C 221.514 -1.7955 0.775965 0
M  V30 2247 C 221.894 -1.97859 -0.73588 0
M  V30 2248 O 221.242 -1.56376 -1.66609 0
M  V30 2249 C 221.452 -3.13196 1.53977 0
M  V30 2250 C 222.8 -3.88227 1.71944 0
M  V30 2251 O 223.824 -3.22887 1.50407 0
M  V30 2252 O 222.683 -5.05477 2.07738 0
M  V30 2253 H 219.777 -0.777728 0.28119 0
M  V30 2254 H 222.323 -1.18118 1.21845 0
M  V30 2255 H 221.095 -2.95229 2.56818 0
M  V30 2256 H 220.718 -3.82342 1.09088 0
M  V30 2257 N 221.715 -0.905404 -1.28997 0
M  V30 2258 C 222.945 -0.549049 -1.99171 0
M  V30 2259 C 223.353 0.87203 -1.67906 0
M  V30 2260 O 222.696 1.58796 -0.923561 0
M  V30 2261 C 222.758 -0.668306 -3.53234 0
M  V30 2262 C 222.422 -2.0574 -4.08069 0
M  V30 2263 C 223.419 -3.0292 -4.22534 0
M  V30 2264 C 221.104 -2.36833 -4.42962 0
M  V30 2265 C 223.098 -4.29314 -4.71135 0
M  V30 2266 C 220.785 -3.63467 -4.91258 0
M  V30 2267 C 221.783 -4.59522 -5.053 0
M  V30 2268 O 221.471 -5.83907 -5.52546 0
M  V30 2269 H 221.203 -0.208784 -0.64295 0
M  V30 2270 H 223.757 -1.21836 -1.65363 0
M  V30 2271 H 221.987 0.0580547 -3.86656 0
M  V30 2272 H 223.676 -0.320273 -4.04634 0
M  V30 2273 H 224.442 -2.80216 -3.95859 0
M  V30 2274 H 220.321 -1.62824 -4.31288 0
M  V30 2275 H 223.865 -5.04293 -4.8201 0
M  V30 2276 H 219.762 -3.86 -5.17372 0
M  V30 2277 H 220.53 -5.86578 -5.70849 0
M  V30 2278 N 223.193 1.4272 -0.668489 0
M  V30 2279 C 224.44 2.01624 -0.18814 0
M  V30 2280 C 224.768 1.5282 1.20317 0
M  V30 2281 O 224.023 0.718323 1.8204 0
M  V30 2282 C 224.322 3.57021 -0.164499 0
M  V30 2283 C 223.988 4.25232 -1.49962 0
M  V30 2284 C 222.65 4.4358 -1.8652 0
M  V30 2285 C 225.002 4.63727 -2.37921 0
M  V30 2286 C 222.33 4.97694 -3.10674 0
M  V30 2287 C 224.682 5.19218 -3.6138 0
M  V30 2288 C 223.346 5.3578 -3.98115 0
M  V30 2289 H 222.616 0.737795 -0.0688454 0
M  V30 2290 H 225.263 1.70991 -0.862225 0
M  V30 2291 H 223.568 3.87285 0.593079 0
M  V30 2292 H 225.265 4.00372 0.224271 0
M  V30 2293 H 221.855 4.11306 -1.20522 0
M  V30 2294 H 226.039 4.4923 -2.10964 0
M  V30 2295 H 221.295 5.08702 -3.39164 0
M  V30 2296 H 225.469 5.4799 -4.29743 0
M  V30 2297 H 223.096 5.77475 -4.94395 0
M  V30 2298 N 224.671 0.411399 1.52136 0
M  V30 2299 C 226.082 -0.0576826 1.86611 0
M  V30 2300 C 226.433 -1.44238 1.33003 0
M  V30 2301 O 225.558 -2.05759 0.670228 0
M  V30 2302 C 226.153 -0.111448 3.38617 0
M  V30 2303 C 224.712 -0.52487 3.72723 0
M  V30 2304 C 223.859 0.299176 2.75681 0
M  V30 2305 H 226.81 0.628368 1.4573 0
M  V30 2306 H 226.831 -0.926252 3.69054 0
M  V30 2307 H 226.343 0.896488 3.77604 0
M  V30 2308 H 224.444 -1.53936 3.39315 0
M  V30 2309 H 224.557 -0.267681 4.78352 0
M  V30 2310 H 222.921 -0.238814 2.53578 0
M  V30 2311 H 223.704 1.3055 3.17508 0
M  V30 2312 N 226.149 -1.5696 0.141893 0
M  V30 2313 C 227.059 -2.20066 -0.812905 0
M  V30 2314 C 228.075 -1.18344 -1.27557 0
M  V30 2315 O 229.251 -1.50902 -1.33381 0
M  V30 2316 C 226.316 -2.80583 -2.03652 0
M  V30 2317 C 225.377 -3.97414 -1.62359 0
M  V30 2318 C 224.61 -4.55036 -2.78887 0
M  V30 2319 O 224.833 -4.11538 -3.94959 0
M  V30 2320 O 223.767 -5.45376 -2.54653 0
M  V30 2321 H 227.593 -3.02157 -0.305746 0
M  V30 2322 H 225.178 -1.49159 -0.0848799 0
M  V30 2323 H 227.06 -3.19067 -2.75272 0
M  V30 2324 H 225.735 -2.01508 -2.5333 0
M  V30 2325 H 224.642 -3.63656 -0.877775 0
M  V30 2326 H 225.975 -4.77994 -1.17401 0
M  V30 2327 N 227.627 0.131896 -1.57047 0
M  V30 2328 C 229.038 0.690407 -1.73465 0
M  V30 2329 C 229.389 1.8094 -0.758629 0
M  V30 2330 O 228.514 2.16282 0.0713813 0
M  V30 2331 C 229.109 1.25916 -3.14532 0
M  V30 2332 C 227.668 1.76409 -3.32501 0
M  V30 2333 C 226.815 0.658579 -2.69366 0
M  V30 2334 H 229.766 -0.0939144 -1.58422 0
M  V30 2335 H 229.787 2.12892 -3.15369 0
M  V30 2336 H 229.299 0.444515 -3.85546 0
M  V30 2337 H 227.4 2.60391 -2.66509 0
M  V30 2338 H 227.513 1.88241 -4.4057 0
M  V30 2339 H 225.877 1.08899 -2.30246 0
M  V30 2340 H 226.66 -0.14487 -3.42994 0
M  V30 2341 N 229.106 1.52395 0.401703 0
M  V30 2342 C 230.352 1.67065 1.14966 0
M  V30 2343 C 230.685 0.403052 1.89971 0
M  V30 2344 O 229.96 -0.598774 1.85054 0
M  V30 2345 C 230.243 2.8975 2.13815 0
M  V30 2346 C 230.096 4.26578 1.42658 0
M  V30 2347 C 231.415 3.07965 3.14397 0
M  V30 2348 H 228.534 0.607968 0.416587 0
M  V30 2349 H 231.176 1.84965 0.434511 0
M  V30 2350 H 229.326 2.74619 2.74803 0
M  V30 2351 H 230.998 4.53451 0.847329 0
M  V30 2352 H 229.241 4.27639 0.72849 0
M  V30 2353 H 229.912 5.08483 2.14823 0
M  V30 2354 H 232.388 3.22043 2.63491 0
M  V30 2355 H 231.264 3.95308 3.80819 0
M  V30 2356 H 231.525 2.21611 3.82545 0
M  V30 2357 N 230.584 -0.659388 1.43143 0
M  V30 2358 C 231.812 -1.44723 1.47861 0
M  V30 2359 C 232.227 -1.88563 0.0945886 0
M  V30 2360 O 231.584 -1.59108 -0.893915 0
M  V30 2361 C 231.635 -2.68627 2.41913 0
M  V30 2362 O 231.356 -2.26623 3.74932 0
M  V30 2363 C 232.857 -3.62045 2.55809 0
M  V30 2364 H 230.077 -0.444801 0.502387 0
M  V30 2365 H 232.621 -0.808916 1.87821 0
M  V30 2366 H 230.776 -3.28613 2.05164 0
M  V30 2367 H 231.19 -3.06745 4.2545 0
M  V30 2368 H 232.664 -4.45666 3.25708 0
M  V30 2369 H 233.141 -4.08981 1.60099 0
M  V30 2370 H 233.747 -3.07944 2.93344 0
M  V30 2371 N 232.062 -1.29571 -0.897171 0
M  V30 2372 C 233.308 -1.17863 -1.65034 0
M  V30 2373 C 233.641 0.268729 -1.92332 0
M  V30 2374 O 232.916 1.19378 -1.53555 0
M  V30 2375 C 233.199 -1.995 -2.99786 0
M  V30 2376 C 233.052 -3.5239 -2.79538 0
M  V30 2377 C 234.371 -1.82335 -4.00552 0
M  V30 2378 H 231.49 -0.429528 -0.598895 0
M  V30 2379 H 234.132 -1.59072 -1.03905 0
M  V30 2380 H 232.282 -1.64485 -3.51962 0
M  V30 2381 H 233.954 -3.97401 -2.34244 0
M  V30 2382 H 232.197 -3.77187 -2.14273 0
M  V30 2383 H 232.868 -4.04787 -3.75302 0
M  V30 2384 H 235.344 -2.12924 -3.57495 0
M  V30 2385 H 234.22 -2.41801 -4.92771 0
M  V30 2386 H 234.481 -0.779209 -4.35179 0
M  V30 2387 N 233.54 1.10788 -1.12088 0
M  V30 2388 C 234.765 1.87002 -0.896949 0
M  V30 2389 C 235.19 1.79933 0.548261 0
M  V30 2390 O 234.548 1.16662 1.38779 0
M  V30 2391 C 234.596 3.3349 -1.37174 0
M  V30 2392 O 233.7 4.08745 -0.547831 0
M  V30 2393 H 233.041 0.580397 -0.322545 0
M  V30 2394 H 235.571 1.39996 -1.49206 0
M  V30 2395 H 235.581 3.84339 -1.36922 0
M  V30 2396 H 234.256 3.37951 -2.42408 0
M  V30 2397 H 232.833 3.6776 -0.617034 0
M  V30 2398 N 235.018 0.912232 1.28515 0
M  V30 2399 C 236.264 0.554851 1.95686 0
M  V30 2400 C 236.619 -0.89138 1.70506 0
M  V30 2401 O 235.912 -1.62529 1.01464 0
M  V30 2402 C 236.106 0.798392 3.48368 0
M  V30 2403 C 235.935 2.26674 3.88393 0
M  V30 2404 C 234.705 2.91657 4.12631 0
M  V30 2405 C 236.903 3.24303 3.99164 0
M  V30 2406 N 234.885 4.28805 4.39317 0
M  V30 2407 C 236.256 4.4661 4.30046 0
M  V30 2408 C 238.311 3.19723 3.81683 0
M  V30 2409 C 237.014 5.64915 4.45268 0
M  V30 2410 C 239.04 4.37325 3.98121 0
M  V30 2411 C 238.402 5.58406 4.29375 0
M  V30 2412 H 234.501 0.252876 0.739985 0
M  V30 2413 H 237.085 1.17565 1.55199 0
M  V30 2414 H 235.256 0.20688 3.87849 0
M  V30 2415 H 236.988 0.405193 4.02666 0
M  V30 2416 H 233.743 2.42393 4.06869 0
M  V30 2417 H 234.167 4.99712 4.56746 0
M  V30 2418 H 238.809 2.27191 3.56573 0
M  V30 2419 H 236.527 6.57927 4.6921 0
M  V30 2420 H 240.113 4.35282 3.86033 0
M  V30 2421 H 238.993 6.47889 4.41825 0
M  V30 2422 N 236.496 -1.42363 0.676048 0
M  V30 2423 C 237.444 -2.32596 -0.0131507 0
M  V30 2424 C 238.438 -1.49891 -0.789238 0
M  V30 2425 O 239.644 -1.65955 -0.697061 0
M  V30 2426 H 236.019 -0.751647 -0.0230481 0
M  V30 2427 H 237.99 -2.88421 0.765243 0
M  V30 2428 C 236.739 -3.34479 -0.949702 0
M  V30 2429 H 236.062 -3.98158 -0.361938 0
M  V30 2430 H 237.502 -4.00199 -1.4006 0
M  V30 2431 C 235.961 -2.66838 -2.05667 0
M  V30 2432 O 236.491 -2.50124 -3.14326 0
M  V30 2433 N 234.697 -2.25843 -1.82875 0
M  V30 2434 H 234.244 -2.39637 -0.945085 0
M  V30 2435 H 234.202 -1.80918 -2.5713 0
M  V30 2436 N 237.974 -0.419461 -1.51915 0
M  V30 2437 C 239.199 0.154572 -2.06823 0
M  V30 2438 C 239.624 1.3722 -1.28656 0
M  V30 2439 O 238.982 1.78461 -0.319583 0
M  V30 2440 C 239.03 0.473172 -3.57482 0
M  V30 2441 O 238.134 1.56255 -3.81652 0
M  V30 2442 H 237.475 0.0096924 -0.663929 0
M  V30 2443 H 240.005 -0.595642 -1.95738 0
M  V30 2444 H 240.015 0.728825 -4.01438 0
M  V30 2445 H 238.69 -0.416873 -4.13805 0
M  V30 2446 H 237.267 1.29825 -3.49571 0
M  V30 2447 N 239.452 1.56882 -0.150215 0
M  V30 2448 C 240.7 1.9584 0.499105 0
M  V30 2449 C 241.021 1.03623 1.65188 0
M  V30 2450 O 240.291 0.0984084 1.95653 0
M  V30 2451 H 238.871 0.723119 0.187373 0
M  V30 2452 H 241.533 1.9358 -0.226466 0
M  V30 2453 H 240.629 2.99638 0.873122 0
M  V30 2454 N 240.93 -0.123565 1.57115 0
M  V30 2455 C 241.893 -1.13583 1.99076 0
M  V30 2456 C 242.893 -1.34564 0.880296 0
M  V30 2457 O 244.083 -1.31158 1.14644 0
M  V30 2458 C 241.215 -2.49128 2.32698 0
M  V30 2459 H 242.408 -0.775287 2.89706 0
M  V30 2460 H 239.961 -0.36771 1.51913 0
M  V30 2461 H 240.696 -2.90111 1.44934 0
M  V30 2462 H 240.481 -2.35255 3.13684 0
M  V30 2463 H 241.971 -3.2199 2.65918 0
M  V30 2464 N 242.408 -1.52605 -0.393616 0
M  V30 2465 C 243.338 -1.80022 -1.48709 0
M  V30 2466 C 244.319 -0.651995 -1.57108 0
M  V30 2467 O 245.504 -0.89913 -1.72132 0
M  V30 2468 C 242.634 -1.96492 -2.86371 0
M  V30 2469 C 241.588 -3.12161 -2.92813 0
M  V30 2470 C 240.914 -3.13877 -4.3288 0
M  V30 2471 C 242.214 -4.51322 -2.6288 0
M  V30 2472 H 243.908 -2.71589 -1.26015 0
M  V30 2473 H 241.454 -1.30684 -0.604778 0
M  V30 2474 H 243.407 -2.14255 -3.62867 0
M  V30 2475 H 242.131 -1.01611 -3.10391 0
M  V30 2476 H 240.79 -2.94173 -2.18764 0
M  V30 2477 H 240.438 -2.16687 -4.53933 0
M  V30 2478 H 240.138 -3.91576 -4.38112 0
M  V30 2479 H 241.662 -3.33789 -5.1129 0
M  V30 2480 H 243.076 -4.69435 -3.29096 0
M  V30 2481 H 241.473 -5.31053 -2.79468 0
M  V30 2482 H 242.543 -4.58353 -1.58242 0
M  V30 2483 N 243.887 0.651787 -1.4349 0
M  V30 2484 C 245.115 1.43937 -1.48626 0
M  V30 2485 C 245.53 1.8851 -0.104587 0
M  V30 2486 O 244.887 1.5958 0.885464 0
M  V30 2487 C 244.938 2.6734 -2.43334 0
M  V30 2488 O 244.659 2.24631 -3.76128 0
M  V30 2489 C 246.16 3.60683 -2.57726 0
M  V30 2490 H 243.38 0.44213 -0.504739 0
M  V30 2491 H 245.924 0.798944 -1.88248 0
M  V30 2492 H 244.079 3.2752 -2.06904 0
M  V30 2493 H 244.493 3.04485 -4.2707 0
M  V30 2494 H 245.967 4.43933 -3.28067 0
M  V30 2495 H 246.444 4.08126 -1.62265 0
M  V30 2496 H 247.05 3.06384 -2.94973 0
M  V30 2497 N 245.365 1.30045 0.890287 0
M  V30 2498 C 246.59 1.21598 1.68014 0
M  V30 2499 C 247.015 -0.218678 1.86825 0
M  V30 2500 O 246.373 -1.15756 1.39536 0
M  V30 2501 C 246.421 1.94434 3.03691 0
M  V30 2502 O 245.525 1.2678 3.92429 0
M  V30 2503 H 244.866 0.420856 0.513592 0
M  V30 2504 H 247.396 1.71775 1.11151 0
M  V30 2505 H 247.406 2.03251 3.5377 0
M  V30 2506 H 246.081 2.98777 2.89318 0
M  V30 2507 H 244.658 1.26282 3.50866 0
M  V30 2508 N 246.843 -1.10192 1.12674 0
M  V30 2509 C 248.091 -1.81845 0.881861 0
M  V30 2510 C 248.412 -1.85737 -0.593867 0
M  V30 2511 O 247.682 -1.33724 -1.4316 0
M  V30 2512 H 246.262 -0.673432 0.323261 0
M  V30 2513 H 248.924 -1.33316 1.42172 0
M  V30 2514 H 248.02 -2.85288 1.2656 0
M  V30 2515 N 248.321 -0.919034 -1.28029 0
M  V30 2516 C 249.567 -0.555757 -1.95036 0
M  V30 2517 C 249.9 0.899198 -1.72128 0
M  V30 2518 O 249.175 1.64023 -1.04531 0
M  V30 2519 C 249.458 -0.872024 -3.49382 0
M  V30 2520 C 249.311 -2.3801 -3.81669 0
M  V30 2521 C 250.63 -0.37185 -4.38526 0
M  V30 2522 H 247.749 -0.203386 -0.708381 0
M  V30 2523 H 250.391 -1.14924 -1.51303 0
M  V30 2524 H 248.541 -0.366946 -3.86763 0
M  V30 2525 H 250.213 -2.9562 -3.54128 0
M  V30 2526 H 248.456 -2.83289 -3.28526 0
M  V30 2527 H 249.127 -2.55192 -4.8947 0
M  V30 2528 H 251.603 -0.804602 -4.08247 0
M  V30 2529 H 250.479 -0.622173 -5.45362 0
M  V30 2530 H 250.74 0.727934 -4.36066 0
M  V30 2531 N 249.799 1.42003 -0.683588 0
M  V30 2532 C 250.749 2.27997 0.0121992 0
M  V30 2533 C 251.733 1.4156 0.764822 0
M  V30 2534 O 252.925 1.64935 0.642287 0
M  V30 2535 C 250.054 3.29706 0.956482 0
M  V30 2536 C 249.14 4.23625 0.200739 0
M  V30 2537 N 249.531 4.99448 -0.799087 0
M  V30 2538 C 247.829 4.43845 0.437937 0
M  V30 2539 C 248.53 5.68102 -1.25041 0
M  V30 2540 N 247.506 5.40511 -0.578648 0
M  V30 2541 H 251.308 2.84048 -0.754564 0
M  V30 2542 H 248.822 1.54071 -0.513398 0
M  V30 2543 H 250.819 3.90124 1.47 0
M  V30 2544 H 249.479 2.75216 1.72297 0
M  V30 2545 H 250.49 5.04303 -1.17893 0
M  V30 2546 H 247.167 4.00382 1.18325 0
M  V30 2547 H 248.557 6.38913 -2.07942 0
M  V30 2548 N 251.277 0.427512 1.51691 0
M  V30 2549 C 252.505 -0.141191 2.06418 0
M  V30 2550 C 252.92 -1.37303 1.29589 0
M  V30 2551 O 252.277 -1.79059 0.352732 0
M  V30 2552 C 252.328 -0.473266 3.58389 0
M  V30 2553 O 252.049 0.709673 4.32314 0
M  V30 2554 C 253.55 -1.09371 4.29596 0
M  V30 2555 H 250.77 -0.0122747 0.670888 0
M  V30 2556 H 253.314 0.603764 1.95384 0
M  V30 2557 H 251.469 -1.16812 3.69369 0
M  V30 2558 H 251.883 0.42807 5.2275 0
M  V30 2559 H 253.357 -1.27613 5.37046 0
M  V30 2560 H 253.834 -2.072 3.87253 0
M  V30 2561 H 254.44 -0.43853 4.23033 0
M  V30 2562 N 252.755 -1.56801 0.158532 0
M  V30 2563 C 254.002 -1.9649 -0.489679 0
M  V30 2564 C 254.33 -1.04394 -1.6411 0
M  V30 2565 O 253.585 -0.0754401 -1.95555 0
M  V30 2566 C 253.884 -3.4235 -1.02623 0
M  V30 2567 C 253.55 -4.50899 0.00794526 0
M  V30 2568 C 252.212 -4.80312 0.292207 0
M  V30 2569 C 254.564 -5.16333 0.710584 0
M  V30 2570 C 251.892 -5.72461 1.28472 0
M  V30 2571 C 254.244 -6.09553 1.69199 0
M  V30 2572 C 252.908 -6.37339 1.98383 0
M  V30 2573 H 252.178 -0.719009 -0.179186 0
M  V30 2574 H 254.825 -1.8989 0.247798 0
M  V30 2575 H 253.13 -3.45838 -1.84128 0
M  V30 2576 H 254.827 -3.70393 -1.53656 0
M  V30 2577 H 251.417 -4.28015 -0.22379 0
M  V30 2578 H 255.601 -4.93732 0.504174 0
M  V30 2579 H 250.857 -5.92278 1.51714 0
M  V30 2580 H 255.031 -6.59327 2.24189 0
M  V30 2581 H 252.658 -7.08546 2.7544 0
M  V30 2582 N 254.233 0.115231 -1.57178 0
M  V30 2583 C 255.644 0.67197 -1.74188 0
M  V30 2584 C 255.995 1.80125 -0.777777 0
M  V30 2585 O 255.12 2.16346 0.0484376 0
M  V30 2586 C 255.715 1.22573 -3.1585 0
M  V30 2587 C 254.274 1.72872 -3.34353 0
M  V30 2588 C 253.421 0.629972 -2.70049 0
M  V30 2589 H 256.372 -0.110712 -1.58313 0
M  V30 2590 H 256.393 2.09535 -3.17609 0
M  V30 2591 H 255.905 0.403598 -3.85996 0
M  V30 2592 H 254.006 2.5755 -2.69256 0
M  V30 2593 H 254.119 1.83557 -4.42542 0
M  V30 2594 H 252.483 1.0645 -2.31388 0
M  V30 2595 H 253.266 -0.181241 -3.42821 0
M  V30 2596 N 255.711 1.52812 0.385517 0
M  V30 2597 C 256.674 1.77188 1.45386 0
M  V30 2598 C 257.674 0.641953 1.4743 0
M  V30 2599 O 258.864 0.910033 1.4854 0
M  V30 2600 C 255.996 1.87582 2.8465 0
M  V30 2601 H 257.189 2.72583 1.25054 0
M  V30 2602 H 254.742 1.43586 0.617467 0
M  V30 2603 H 255.477 0.941849 3.10322 0
M  V30 2604 H 255.262 2.69748 2.84567 0
M  V30 2605 H 256.752 2.08102 3.62054 0
M  V30 2606 N 257.189 -0.644168 1.43834 0
M  V30 2607 C 258.435 -1.40603 1.46146 0
M  V30 2608 C 258.768 -1.93997 0.0887717 0
M  V30 2609 O 258.043 -1.72854 -0.891724 0
M  V30 2610 C 258.326 -2.58086 2.51124 0
M  V30 2611 C 258.179 -2.10126 3.97702 0
M  V30 2612 C 259.498 -3.60291 2.52742 0
M  V30 2613 H 256.617 -0.509905 0.532134 0
M  V30 2614 H 259.259 -0.729502 1.75437 0
M  V30 2615 H 257.409 -3.15801 2.26278 0
M  V30 2616 H 259.081 -1.57342 4.33637 0
M  V30 2617 H 257.324 -1.41419 4.10101 0
M  V30 2618 H 257.995 -2.94649 4.66783 0
M  V30 2619 H 260.471 -3.12352 2.7491 0
M  V30 2620 H 259.347 -4.40032 3.28121 0
M  V30 2621 H 259.608 -4.1349 1.56455 0
M  V30 2622 N 258.668 -1.30515 -0.883378 0
M  V30 2623 C 259.598 -1.19607 -2.00541 0
M  V30 2624 C 260.579 -0.086346 -1.69881 0
M  V30 2625 O 261.764 -0.268654 -1.92333 0
M  V30 2626 C 258.894 -0.888758 -3.35736 0
M  V30 2627 C 257.848 -1.95659 -3.8066 0
M  V30 2628 C 257.174 -1.50224 -5.13164 0
M  V30 2629 C 258.474 -3.36788 -3.99213 0
M  V30 2630 H 260.168 -2.13476 -2.09925 0
M  V30 2631 H 257.714 -1.02775 -1.00863 0
M  V30 2632 H 259.667 -0.799094 -4.13754 0
M  V30 2633 H 258.391 0.0856125 -3.26488 0
M  V30 2634 H 257.05 -2.03591 -3.04871 0
M  V30 2635 H 256.698 -0.516092 -5.00345 0
M  V30 2636 H 256.398 -2.2165 -5.44192 0
M  V30 2637 H 257.922 -1.42639 -5.93706 0
M  V30 2638 H 259.336 -3.31605 -4.67665 0
M  V30 2639 H 257.733 -4.06314 -4.41621 0
M  V30 2640 H 258.803 -3.78561 -3.03017 0
M  V30 2641 N 260.146 1.09593 -1.13257 0
M  V30 2642 C 261.078 2.16015 -0.766167 0
M  V30 2643 C 262.091 1.61423 0.211303 0
M  V30 2644 O 263.28 1.78498 -0.00863946 0
M  V30 2645 C 260.38 3.38706 -0.114662 0
M  V30 2646 C 259.553 4.22717 -1.12379 0
M  V30 2647 C 258.612 5.23835 -0.498301 0
M  V30 2648 O 257.638 5.573 -1.15781 0
M  V30 2649 N 258.84 5.75886 0.730417 0
M  V30 2650 H 261.605 2.48055 -1.68193 0
M  V30 2651 H 259.166 1.25292 -1.02535 0
M  V30 2652 H 261.158 4.03464 0.315991 0
M  V30 2653 H 259.728 3.04569 0.704011 0
M  V30 2654 H 258.948 3.54122 -1.73179 0
M  V30 2655 H 260.236 4.75673 -1.80589 0
M  V30 2656 H 259.634 5.50911 1.28504 0
M  V30 2657 H 258.191 6.42387 1.10376 0
M  V30 2658 N 261.624 0.925811 1.2754 0
M  V30 2659 C 262.849 0.580924 1.99098 0
M  V30 2660 C 263.274 -0.833555 1.68622 0
M  V30 2661 O 262.632 -1.55903 0.925422 0
M  V30 2662 C 262.68 0.811186 3.51358 0
M  V30 2663 O 261.784 -0.124129 4.12213 0
M  V30 2664 H 261.125 0.223873 0.625122 0
M  V30 2665 H 263.655 1.24455 1.62395 0
M  V30 2666 H 263.665 0.72601 4.01489 0
M  V30 2667 H 262.34 1.84227 3.72872 0
M  V30 2668 H 260.917 0.0108006 3.72898 0
M  V30 2669 N 263.102 -1.41638 0.69111 0
M  V30 2670 C 264.327 -2.06148 0.227583 0
M  V30 2671 C 264.752 -1.51652 -1.11281 0
M  V30 2672 O 264.11 -0.64164 -1.69566 0
M  V30 2673 C 264.158 -3.60095 0.190858 0
M  V30 2674 O 263.262 -4.03845 -0.835664 0
M  V30 2675 H 262.603 -0.654434 0.112306 0
M  V30 2676 H 265.133 -1.81484 0.944714 0
M  V30 2677 H 265.143 -4.07995 0.020207 0
M  V30 2678 H 263.818 -3.99129 1.16915 0
M  V30 2679 H 262.395 -3.67458 -0.63473 0
M  V30 2680 N 264.58 -0.43555 -1.51462 0
M  V30 2681 C 265.828 0.131254 -2.01673 0
M  V30 2682 C 266.149 1.43368 -1.32177 0
M  V30 2683 O 265.419 1.90524 -0.455769 0
M  V30 2684 H 263.999 0.0514954 -0.745223 0
M  V30 2685 H 266.661 -0.577847 -1.86137 0
M  V30 2686 H 265.757 0.308446 -3.10572 0
M  V30 2687 N 266.058 1.56714 -0.166846 0
M  V30 2688 C 266.988 2.20754 0.760913 0
M  V30 2689 C 267.969 1.16178 1.24244 0
M  V30 2690 O 269.154 1.44592 1.29641 0
M  V30 2691 C 266.284 2.84478 1.99223 0
M  V30 2692 C 265.238 3.95053 1.64672 0
M  V30 2693 C 264.564 4.45805 2.95232 0
M  V30 2694 C 265.864 5.14865 0.878155 0
M  V30 2695 H 267.558 2.98537 0.22713 0
M  V30 2696 H 265.104 1.43596 0.107805 0
M  V30 2697 H 267.057 3.27951 2.64624 0
M  V30 2698 H 265.781 2.04056 2.55007 0
M  V30 2699 H 264.44 3.52228 1.01641 0
M  V30 2700 H 264.088 3.62181 3.49047 0
M  V30 2701 H 263.788 5.204 2.7287 0
M  V30 2702 H 265.312 4.91962 3.6167 0
M  V30 2703 H 266.726 5.55059 1.43466 0
M  V30 2704 H 265.123 5.95348 0.753738 0
M  V30 2705 H 266.193 4.84735 -0.126377 0
M  V30 2706 N 267.536 -0.106894 1.57237 0
M  V30 2707 C 268.766 -0.825191 1.89405 0
M  V30 2708 C 269.174 -1.73374 0.757496 0
M  V30 2709 O 268.517 -1.81552 -0.280115 0
M  V30 2710 C 268.579 -1.70102 3.1671 0
M  V30 2711 C 268.243 -0.965523 4.46684 0
M  V30 2712 C 269.24 -0.300741 5.19029 0
M  V30 2713 C 266.925 -0.943105 4.93367 0
M  V30 2714 C 268.919 0.376622 6.36286 0
M  V30 2715 C 266.606 -0.261949 6.10538 0
M  V30 2716 C 267.604 0.396748 6.81847 0
M  V30 2717 O 267.292 1.06701 7.96787 0
M  V30 2718 H 267.024 -0.241852 0.631255 0
M  V30 2719 H 269.578 -0.0921491 2.05193 0
M  V30 2720 H 267.808 -2.47601 2.97036 0
M  V30 2721 H 269.497 -2.29483 3.34802 0
M  V30 2722 H 270.263 -0.309599 4.84011 0
M  V30 2723 H 266.142 -1.44524 4.3776 0
M  V30 2724 H 269.686 0.891334 6.91882 0
M  V30 2725 H 265.583 -0.250896 6.45012 0
M  V30 2726 H 266.351 0.972707 8.127 0
M  V30 2727 N 269.014 -1.53014 -0.377408 0
M  V30 2728 C 270.239 -1.72818 -1.14668 0
M  V30 2729 C 270.664 -0.450725 -1.8262 0
M  V30 2730 O 270.022 0.59439 -1.7128 0
M  V30 2731 C 270.07 -2.88627 -2.16164 0
M  V30 2732 O 269.174 -2.56409 -3.22998 0
M  V30 2733 H 268.515 -0.574301 -0.333278 0
M  V30 2734 H 271.045 -1.99853 -0.438152 0
M  V30 2735 H 271.055 -3.14455 -2.59966 0
M  V30 2736 H 269.73 -3.81294 -1.66095 0
M  V30 2737 H 268.307 -2.4136 -2.84253 0
M  V30 2738 N 270.492 0.636531 -1.44174 0
M  V30 2739 C 271.422 1.76003 -1.53444 0
M  V30 2740 C 272.403 1.65619 -0.387841 0
M  V30 2741 O 273.588 1.84461 -0.607257 0
M  V30 2742 C 270.718 3.14511 -1.4731 0
M  V30 2743 C 269.672 3.39677 -2.60391 0
M  V30 2744 C 268.998 4.78159 -2.39308 0
M  V30 2745 C 270.298 3.32772 -4.02567 0
M  V30 2746 H 271.992 1.68501 -2.47483 0
M  V30 2747 H 269.538 0.809237 -1.19111 0
M  V30 2748 H 271.491 3.92878 -1.52397 0
M  V30 2749 H 270.215 3.22783 -0.49785 0
M  V30 2750 H 268.874 2.63688 -2.54684 0
M  V30 2751 H 268.522 4.83128 -1.39988 0
M  V30 2752 H 268.222 4.95956 -3.15122 0
M  V30 2753 H 269.746 5.58762 -2.46205 0
M  V30 2754 H 271.16 4.01051 -4.09672 0
M  V30 2755 H 269.557 3.62104 -4.7854 0
M  V30 2756 H 270.627 2.30669 -4.2652 0
M  V30 2757 N 271.97 1.30982 0.876444 0
M  V30 2758 C 273.195 1.23373 1.66715 0
M  V30 2759 C 273.62 -0.19885 1.87046 0
M  V30 2760 O 272.978 -1.1427 1.40756 0
M  V30 2761 C 273.026 1.97644 3.01611 0
M  V30 2762 O 272.13 1.30935 3.91062 0
M  V30 2763 H 271.471 0.426279 0.509099 0
M  V30 2764 H 274.001 1.72944 1.09323 0
M  V30 2765 H 274.011 2.06992 3.51594 0
M  V30 2766 H 272.686 3.01829 2.86133 0
M  V30 2767 H 271.263 1.29996 3.49507 0
M  V30 2768 N 273.449 -1.08991 1.13837 0
M  V30 2769 C 274.674 -1.85551 0.926585 0
M  V30 2770 C 275.099 -1.80782 -0.519566 0
M  V30 2771 O 274.457 -1.18855 -1.36906 0
M  V30 2772 C 274.505 -3.31266 1.42462 0
M  V30 2773 O 273.609 -4.07822 0.612789 0
M  V30 2774 H 272.95 -0.575192 0.331738 0
M  V30 2775 H 275.48 -1.37604 1.51414 0
M  V30 2776 H 275.49 -3.82112 1.43019 0
M  V30 2777 H 274.165 -3.34052 2.47754 0
M  V30 2778 H 272.742 -3.66731 0.675463 0
M  V30 2779 N 274.927 -0.932562 -1.27047 0
M  V30 2780 C 276.173 -0.576412 -1.94436 0
M  V30 2781 C 276.506 0.880891 -1.73072 0
M  V30 2782 O 275.781 1.62905 -1.06264 0
M  V30 2783 C 276.064 -0.909031 -3.48437 0
M  V30 2784 C 275.917 -2.42044 -3.79123 0
M  V30 2785 C 277.236 -0.418341 -4.38107 0
M  V30 2786 H 274.355 -0.210888 -0.706184 0
M  V30 2787 H 276.997 -1.16522 -1.50075 0
M  V30 2788 H 275.147 -0.407947 -3.86352 0
M  V30 2789 H 276.819 -2.99359 -3.50973 0
M  V30 2790 H 275.062 -2.86758 -3.25503 0
M  V30 2791 H 275.733 -2.6037 -4.86736 0
M  V30 2792 H 278.209 -0.847856 -4.0737 0
M  V30 2793 H 277.085 -0.679981 -5.44672 0
M  V30 2794 H 277.346 0.681642 -4.36814 0
M  V30 2795 N 276.405 1.4127 -0.698611 0
M  V30 2796 C 277.651 2.01478 -0.231207 0
M  V30 2797 C 277.984 1.55215 1.16713 0
M  V30 2798 O 277.259 0.764672 1.78838 0
M  V30 2799 C 277.542 3.58912 -0.292281 0
M  V30 2800 C 277.395 4.15293 -1.72778 0
M  V30 2801 C 278.714 4.38736 0.346194 0
M  V30 2802 H 275.833 0.732025 -0.0854878 0
M  V30 2803 H 278.475 1.67977 -0.887906 0
M  V30 2804 H 276.625 3.87582 0.26686 0
M  V30 2805 H 278.297 3.97486 -2.341 0
M  V30 2806 H 276.54 3.7022 -2.26096 0
M  V30 2807 H 277.211 5.24452 -1.72202 0
M  V30 2808 H 279.687 4.15897 -0.130035 0
M  V30 2809 H 278.563 5.48221 0.272932 0
M  V30 2810 H 278.824 4.18425 1.42734 0
M  V30 2811 N 277.883 0.443576 1.51229 0
M  V30 2812 C 279.111 -0.11929 2.06556 0
M  V30 2813 C 279.526 -1.35921 1.31038 0
M  V30 2814 O 278.883 -1.78675 0.371704 0
M  V30 2815 C 278.934 -0.435228 3.5887 0
M  V30 2816 O 278.655 0.755486 4.31537 0
M  V30 2817 C 280.156 -1.04808 4.30732 0
M  V30 2818 H 277.376 -0.0051584 0.67098 0
M  V30 2819 H 279.92 0.624453 1.94733 0
M  V30 2820 H 278.075 -1.12887 3.70588 0
M  V30 2821 H 278.489 0.483491 5.22267 0
M  V30 2822 H 279.963 -1.2191 5.3837 0
M  V30 2823 H 280.44 -2.03081 3.89429 0
M  V30 2824 H 281.046 -0.393637 4.23474 0
M  V30 2825 N 279.361 -1.56624 0.175154 0
M  V30 2826 C 280.607 -1.9729 -0.469506 0
M  V30 2827 C 280.94 -1.06128 -1.62636 0
M  V30 2828 O 280.215 -0.109183 -1.94193 0
M  V30 2829 C 280.498 -3.47375 -0.948804 0
M  V30 2830 C 280.351 -4.49317 0.208491 0
M  V30 2831 C 281.67 -4.00652 -1.82116 0
M  V30 2832 H 278.789 -0.717317 -0.16919 0
M  V30 2833 H 281.431 -1.88184 0.262062 0
M  V30 2834 H 279.581 -3.55267 -1.57219 0
M  V30 2835 H 281.253 -4.53482 0.845682 0
M  V30 2836 H 279.496 -4.25121 0.863395 0
M  V30 2837 H 280.167 -5.51741 -0.169059 0
M  V30 2838 H 282.643 -3.95416 -1.2956 0
M  V30 2839 H 281.519 -5.06075 -2.12554 0
M  V30 2840 H 281.78 -3.44699 -2.7683 0
M  V30 2841 N 280.839 0.0985539 -1.57292 0
M  V30 2842 C 282.25 0.653457 -1.74891 0
M  V30 2843 C 282.601 1.7929 -0.796838 0
M  V30 2844 O 281.726 2.16385 0.0254886 0
M  V30 2845 C 282.321 1.19216 -3.17133 0
M  V30 2846 C 280.88 1.69316 -3.36168 0
M  V30 2847 C 280.027 0.601294 -2.70702 0
M  V30 2848 H 282.978 -0.127497 -1.58187 0
M  V30 2849 H 282.999 2.06154 -3.19814 0
M  V30 2850 H 282.511 0.362635 -3.86402 0
M  V30 2851 H 280.612 2.5468 -2.71972 0
M  V30 2852 H 280.725 1.78853 -4.44464 0
M  V30 2853 H 279.089 1.0399 -2.32504 0
M  V30 2854 H 279.872 -0.217592 -3.4261 0
M  V30 2855 N 282.317 1.53212 0.369288 0
M  V30 2856 C 283.542 1.73423 1.1375 0
M  V30 2857 C 283.967 0.460404 1.82378 0
M  V30 2858 O 283.325 -0.585298 1.71592 0
M  V30 2859 C 283.373 2.89769 2.1463 0
M  V30 2860 O 282.477 2.58119 3.21634 0
M  V30 2861 H 281.818 0.576061 0.330227 0
M  V30 2862 H 284.348 2.00083 0.427547 0
M  V30 2863 H 284.358 3.15829 2.58294 0
M  V30 2864 H 283.033 3.8217 1.64071 0
M  V30 2865 H 281.61 2.42864 2.82969 0
M  V30 2866 N 283.795 -0.628877 1.44509 0
M  V30 2867 C 285.02 -1.42048 1.5112 0
M  V30 2868 C 285.445 -1.87594 0.137818 0
M  V30 2869 O 284.803 -1.58873 -0.873437 0
M  V30 2870 C 284.851 -2.61541 2.48251 0
M  V30 2871 O 283.955 -3.61453 1.98559 0
M  V30 2872 H 283.296 -0.424942 0.510216 0
M  V30 2873 H 285.826 -0.767374 1.89664 0
M  V30 2874 H 285.836 -3.09057 2.66361 0
M  V30 2875 H 284.511 -2.27736 3.48007 0
M  V30 2876 H 283.088 -3.20731 1.90227 0
M  V30 2877 N 285.273 -1.31445 -0.869486 0
M  V30 2878 C 286.498 -1.24256 -1.66058 0
M  V30 2879 C 286.923 0.188928 -1.87149 0
M  V30 2880 O 286.281 1.13522 -1.4136 0
M  V30 2881 C 286.329 -1.9924 -3.00559 0
M  V30 2882 O 285.433 -1.33007 -3.90362 0
M  V30 2883 H 284.774 -0.428973 -0.506831 0
M  V30 2884 H 287.304 -1.73521 -1.08404 0
M  V30 2885 H 287.314 -2.08854 -3.50491 0
M  V30 2886 H 285.989 -3.03342 -2.84528 0
M  V30 2887 H 284.566 -1.31848 -3.48813 0
M  V30 2888 N 286.751 1.08385 -1.14413 0
M  V30 2889 C 287.681 2.17321 -0.854044 0
M  V30 2890 C 288.662 1.69024 0.191049 0
M  V30 2891 O 289.847 1.94141 0.0476779 0
M  V30 2892 C 286.977 3.45719 -0.330983 0
M  V30 2893 C 285.931 4.07409 -1.31155 0
M  V30 2894 C 285.257 5.30762 -0.64778 0
M  V30 2895 C 286.557 4.48665 -2.67388 0
M  V30 2896 H 288.251 2.41845 -1.76498 0
M  V30 2897 H 285.797 1.16233 -0.850051 0
M  V30 2898 H 287.75 4.21241 -0.115645 0
M  V30 2899 H 286.474 3.2075 0.615381 0
M  V30 2900 H 285.133 3.33919 -1.51306 0
M  V30 2901 H 284.781 5.02078 0.304398 0
M  V30 2902 H 284.481 5.72992 -1.30207 0
M  V30 2903 H 286.005 6.08998 -0.441972 0
M  V30 2904 H 287.419 5.15364 -2.51143 0
M  V30 2905 H 285.816 5.01814 -3.29093 0
M  V30 2906 H 286.886 3.60543 -3.24248 0
M  V30 2907 N 288.23 0.939286 1.26551 0
M  V30 2908 C 289.478 0.58469 1.93457 0
M  V30 2909 C 289.799 -0.878774 1.74076 0
M  V30 2910 O 289.069 -1.62421 1.09528 0
M  V30 2911 H 287.649 0.21325 0.715914 0
M  V30 2912 H 290.311 1.1942 1.54029 0
M  V30 2913 H 289.407 0.800849 3.0165 0
M  V30 2914 N 289.708 -1.40897 0.706093 0
M  V30 2915 C 290.936 -2.05373 0.250887 0
M  V30 2916 C 291.351 -1.53172 -1.10381 0
M  V30 2917 O 290.708 -0.684305 -1.69185 0
M  V30 2918 C 290.759 -3.6088 0.211571 0
M  V30 2919 O 290.48 -4.11153 1.51276 0
M  V30 2920 C 291.981 -4.42517 -0.263346 0
M  V30 2921 H 289.201 -0.66115 0.114552 0
M  V30 2922 H 291.745 -1.80479 0.961635 0
M  V30 2923 H 289.9 -3.84777 -0.450073 0
M  V30 2924 H 290.314 -5.05279 1.40689 0
M  V30 2925 H 291.788 -5.51479 -0.239718 0
M  V30 2926 H 292.265 -4.19396 -1.30397 0
M  V30 2927 H 292.871 -4.23708 0.367677 0
M  V30 2928 N 291.186 -0.45159 -1.50991 0
M  V30 2929 C 292.118 0.388634 -2.25881 0
M  V30 2930 C 293.131 0.974041 -1.30446 0
M  V30 2931 O 294.32 0.865758 -1.56099 0
M  V30 2932 C 291.42 1.5571 -3.01011 0
M  V30 2933 C 290.593 1.08801 -4.23652 0
M  V30 2934 C 289.652 2.12825 -4.8124 0
M  V30 2935 O 288.678 1.71678 -5.42693 0
M  V30 2936 N 289.88 3.45453 -4.66522 0
M  V30 2937 H 292.645 -0.25329 -2.98628 0
M  V30 2938 H 290.206 -0.281268 -1.59438 0
M  V30 2939 H 292.198 2.24952 -3.3642 0
M  V30 2940 H 290.768 2.10409 -2.31186 0
M  V30 2941 H 289.988 0.22215 -3.93574 0
M  V30 2942 H 291.276 0.752213 -5.03209 0
M  V30 2943 H 290.674 3.81605 -4.17605 0
M  V30 2944 H 289.231 4.10549 -5.06254 0
M  V30 2945 N 292.664 1.56529 -0.183458 0
M  V30 2946 C 293.892 2.01623 0.464285 0
M  V30 2947 C 294.307 1.06366 1.55986 0
M  V30 2948 O 293.664 0.0665398 1.82379 0
M  V30 2949 C 293.715 3.46475 1.03139 0
M  V30 2950 O 293.436 4.38095 -0.0204675 0
M  V30 2951 C 294.937 4.0703 1.75617 0
M  V30 2952 H 292.157 0.660596 0.117704 0
M  V30 2953 H 294.701 2.02451 -0.288751 0
M  V30 2954 H 292.856 3.46383 1.73486 0
M  V30 2955 H 293.27 5.22973 0.399952 0
M  V30 2956 H 294.744 5.10271 2.10542 0
M  V30 2957 H 295.221 3.49819 2.65563 0
M  V30 2958 H 295.827 4.1086 1.09882 0
M  V30 2959 N 294.142 -0.090211 1.57342 0
M  V30 2960 C 295.372 -0.805055 1.90269 0
M  V30 2961 C 295.78 -1.72561 0.775842 0
M  V30 2962 O 295.123 -1.81839 -0.260843 0
M  V30 2963 C 295.185 -1.66734 3.18497 0
M  V30 2964 C 294.849 -0.918092 4.47683 0
M  V30 2965 C 295.846 -0.245674 5.19319 0
M  V30 2966 C 293.531 -0.890724 4.94339 0
M  V30 2967 C 295.525 0.444088 6.35851 0
M  V30 2968 C 293.212 -0.197179 6.10782 0
M  V30 2969 C 294.21 0.469044 6.81388 0
M  V30 2970 O 293.898 1.15146 7.95611 0
M  V30 2971 H 293.63 -0.235143 0.633785 0
M  V30 2972 H 296.184 -0.0703805 2.05279 0
M  V30 2973 H 294.414 -2.44437 2.99646 0
M  V30 2974 H 296.103 -2.25919 3.37217 0
M  V30 2975 H 296.869 -0.258246 4.84312 0
M  V30 2976 H 292.748 -1.39873 4.39268 0
M  V30 2977 H 296.292 0.964667 6.90898 0
M  V30 2978 H 292.189 -0.18247 6.45242 0
M  V30 2979 H 292.957 1.05885 8.11622 0
M  V30 2980 N 295.62 -1.53406 -0.361157 0
M  V30 2981 C 296.869 -1.69022 -1.10066 0
M  V30 2982 C 297.182 -0.450838 -1.90333 0
M  V30 2983 O 298.388 -0.487617 -2.67085 0
M  V30 2984 C 296.844 -2.98812 -2.00598 0
M  V30 2985 C 296.452 -4.30027 -1.25621 0
M  V30 2986 C 298.196 -3.23795 -2.74513 0
M  V30 2987 C 296.103 -5.50903 -2.1508 0
M  V30 2988 H 295.033 -0.629776 -0.414606 0
M  V30 2989 H 297.684 -1.79907 -0.361348 0
M  V30 2990 H 296.066 -2.8174 -2.78278 0
M  V30 2991 H 297.24 -4.57745 -0.529739 0
M  V30 2992 H 295.555 -4.11522 -0.635496 0
M  V30 2993 H 298.152 -4.11289 -3.41681 0
M  V30 2994 H 298.495 -2.40045 -3.40123 0
M  V30 2995 H 299.028 -3.41561 -2.03914 0
M  V30 2996 H 295.767 -6.37143 -1.54041 0
M  V30 2997 H 295.287 -5.27459 -2.85565 0
M  V30 2998 H 296.966 -5.85865 -2.74538 0
M  V30 2999 N 297.098 0.621204 -1.44841 0
M  V30 3000 C 298.338 1.39201 -1.49674 0
M  V30 3001 C 298.702 1.91561 -0.129764 0
M  V30 3002 O 299.903 2.68748 -0.0527814 0
M  V30 3003 C 298.174 2.519 -2.53537 0
M  V30 3004 S 299.733 3.39916 -2.77494 0
M  V30 3005 H 296.551 0.474758 -0.529269 0
M  V30 3006 H 299.153 0.718171 -1.81831 0
M  V30 3007 H 297.857 2.11761 -3.51547 0
M  V30 3008 H 297.388 3.241 -2.22986 0
M  V30 3009 H 299.403 4.49646 -2.0984 0
M  V30 3010 N 298.576 1.31904 0.862503 0
M  V30 3011 C 299.524 1.20125 1.9918 0
M  V30 3012 C 300.518 0.107824 1.69056 0
M  V30 3013 O 301.724 0.270223 1.7796 0
M  V30 3014 H 298.099 0.372148 0.65346 0
M  V30 3015 H 300.07 2.15652 2.06244 0
M  V30 3016 C 298.819 0.933099 3.34946 0
M  V30 3017 H 298.142 1.76664 3.5865 0
M  V30 3018 H 299.582 0.890892 4.14535 0
M  V30 3019 C 298.041 -0.364172 3.34926 0
M  V30 3020 O 298.571 -1.37858 3.77304 0
M  V30 3021 N 296.777 -0.383362 2.8806 0
M  V30 3022 H 296.324 0.442651 2.53768 0
M  V30 3023 H 296.282 -1.25123 2.8843 0
M  V30 3024 N 300.054 -1.07777 1.14986 0
M  V30 3025 C 301.3 -1.80557 0.923422 0
M  V30 3026 C 301.633 -1.86298 -0.548337 0
M  V30 3027 O 300.908 -1.34354 -1.40639 0
M  V30 3028 C 301.191 -3.25839 1.53299 0
M  V30 3029 C 301.044 -3.28269 3.07505 0
M  V30 3030 C 302.363 -4.22991 1.21518 0
M  V30 3031 H 299.482 -0.655493 0.336894 0
M  V30 3032 H 302.124 -1.26144 1.42083 0
M  V30 3033 H 300.274 -3.72306 1.10999 0
M  V30 3034 H 301.946 -2.90079 3.58681 0
M  V30 3035 H 300.189 -2.67355 3.4162 0
M  V30 3036 H 300.86 -4.30691 3.45266 0
M  V30 3037 H 303.336 -3.84894 1.581 0
M  V30 3038 H 302.212 -5.22945 1.66793 0
M  V30 3039 H 302.473 -4.41904 0.131505 0
M  V30 3040 N 301.532 -0.945985 -1.26051 0
M  V30 3041 C 302.48 -0.450259 -2.282 0
M  V30 3042 C 303.474 0.47497 -1.62605 0
M  V30 3043 O 304.68 0.352653 -1.76512 0
M  V30 3044 H 301.055 -0.127081 -0.741184 0
M  V30 3045 H 303.026 -1.32422 -2.67408 0
M  V30 3046 C 301.775 0.26467 -3.46691 0
M  V30 3047 H 301.098 -0.438123 -3.97392 0
M  V30 3048 H 302.538 0.575678 -4.20074 0
M  V30 3049 C 300.997 1.48416 -3.02447 0
M  V30 3050 O 301.527 2.58227 -3.07704 0
M  V30 3051 N 299.733 1.34243 -2.57735 0
M  V30 3052 H 299.28 0.448994 -2.53657 0
M  V30 3053 H 299.238 2.15957 -2.28495 0
M  V30 3054 N 303.011 1.40521 -0.713556 0
M  V30 3055 C 303.961 2.27971 -0.036165 0
M  V30 3056 C 304.945 1.43151 0.734623 0
M  V30 3057 O 306.137 1.66261 0.607158 0
M  V30 3058 C 303.266 3.31661 0.886331 0
M  V30 3059 C 302.352 4.23955 0.110836 0
M  V30 3060 N 302.743 4.97641 -0.904847 0
M  V30 3061 C 301.041 4.44674 0.343692 0
M  V30 3062 C 301.742 5.65322 -1.37064 0
M  V30 3063 N 300.718 5.39162 -0.693168 0
M  V30 3064 H 304.52 2.82384 -0.814645 0
M  V30 3065 H 302.034 1.52948 -0.545963 0
M  V30 3066 H 304.031 3.93154 1.38692 0
M  V30 3067 H 302.691 2.78808 1.66421 0
M  V30 3068 H 303.702 5.01689 -1.28563 0
M  V30 3069 H 300.379 4.02801 1.09805 0
M  V30 3070 H 301.769 6.34359 -2.21447 0
M  V30 3071 N 304.489 0.459591 1.5075 0
M  V30 3072 C 305.436 -0.340524 2.28274 0
M  V30 3073 C 306.406 -0.997371 1.32822 0
M  V30 3074 O 307.591 -1.01202 1.61749 0
M  V30 3075 C 304.731 -1.42317 3.14388 0
M  V30 3076 C 303.844 -0.782251 4.24859 0
M  V30 3077 C 302.979 -1.84182 4.98247 0
M  V30 3078 C 302.018 -1.18053 6.00608 0
M  V30 3079 N 301.155 -2.18244 6.67319 0
M  V30 3080 H 305.995 0.326899 2.96202 0
M  V30 3081 H 303.532 0.173057 1.46078 0
M  V30 3082 H 305.49 -2.06241 3.62658 0
M  V30 3083 H 304.12 -2.05992 2.4853 0
M  V30 3084 H 303.172 -0.0307404 3.80388 0
M  V30 3085 H 304.484 -0.259663 4.98124 0
M  V30 3086 H 303.638 -2.55714 5.50177 0
M  V30 3087 H 302.377 -2.39819 4.24662 0
M  V30 3088 H 301.382 -0.450776 5.47949 0
M  V30 3089 H 302.607 -0.631202 6.7616 0
M  V30 3090 H 300.553 -2.72919 5.96533 0
M  V30 3091 H 300.47 -1.70938 7.36421 0
M  V30 3092 H 301.738 -2.89191 7.23871 0
M  V30 3093 N 305.967 -1.56429 0.191757 0
M  V30 3094 C 307.378 -1.83912 -0.321428 0
M  V30 3095 C 307.729 -1.11231 -1.61623 0
M  V30 3096 O 306.854 -0.37202 -2.13178 0
M  V30 3097 C 307.449 -3.33624 -0.589961 0
M  V30 3098 C 306.008 -3.6153 -1.04753 0
M  V30 3099 C 305.155 -2.7714 -0.0943327 0
M  V30 3100 H 308.106 -1.53161 0.415612 0
M  V30 3101 H 308.127 -3.52213 -1.43966 0
M  V30 3102 H 307.639 -3.86495 0.352588 0
M  V30 3103 H 305.74 -3.14089 -2.00447 0
M  V30 3104 H 305.853 -4.69737 -0.942549 0
M  V30 3105 H 304.217 -2.47638 -0.595589 0
M  V30 3106 H 305 -3.32799 0.842601 0
M  V30 3107 N 307.445 0.0818655 -1.57387 0
M  V30 3108 C 308.67 0.799946 -1.91352 0
M  V30 3109 C 309.095 1.70833 -0.787258 0
M  V30 3110 O 308.453 1.79419 0.26048 0
M  V30 3111 C 308.501 1.57812 -3.24234 0
M  V30 3112 O 307.605 2.68806 -3.12757 0
M  V30 3113 H 306.946 0.21891 -0.626877 0
M  V30 3114 H 309.476 0.0531256 -2.04531 0
M  V30 3115 H 309.486 1.95952 -3.57864 0
M  V30 3116 H 308.161 0.911548 -4.05788 0
M  V30 3117 H 306.738 2.33597 -2.90666 0
M  V30 3118 N 308.923 1.53595 0.353017 0
M  V30 3119 C 309.871 1.81605 1.45335 0
M  V30 3120 C 310.865 0.685923 1.54892 0
M  V30 3121 O 312.071 0.869095 1.57628 0
M  V30 3122 H 308.446 0.575204 0.484401 0
M  V30 3123 H 310.417 2.73679 1.18921 0
M  V30 3124 C 309.166 2.03406 2.81995 0
M  V30 3125 H 308.489 2.89814 2.75405 0
M  V30 3126 H 309.929 2.26975 3.58132 0
M  V30 3127 C 308.388 0.816794 3.26849 0
M  V30 3128 O 308.918 0.0115856 4.01698 0
M  V30 3129 N 307.124 0.636682 2.8354 0
M  V30 3130 H 306.671 1.2931 2.22793 0
M  V30 3131 H 306.629 -0.176336 3.13905 0
M  V30 3132 N 310.401 -0.613514 1.45168 0
M  V30 3133 C 311.629 -1.39946 1.5239 0
M  V30 3134 C 312.044 -1.88167 0.154531 0
M  V30 3135 O 311.401 -1.61872 -0.842843 0
M  V30 3136 C 311.452 -2.60795 2.50337 0
M  V30 3137 O 311.173 -2.1458 3.81952 0
M  V30 3138 C 312.674 -3.53723 2.67198 0
M  V30 3139 H 309.894 -0.428593 0.516284 0
M  V30 3140 H 312.438 -0.748753 1.903 0
M  V30 3141 H 310.593 -3.21919 2.15515 0
M  V30 3142 H 311.007 -2.93055 4.34993 0
M  V30 3143 H 312.481 -4.35079 3.39721 0
M  V30 3144 H 312.958 -4.0368 1.73029 0
M  V30 3145 H 313.564 -2.98456 3.02992 0
M  V30 3146 N 311.879 -1.3236 -0.855495 0
M  V30 3147 C 312.826 -1.21225 -1.964 0
M  V30 3148 C 313.796 -0.0946204 -1.6583 0
M  V30 3149 O 314.981 -0.27002 -1.8888 0
M  V30 3150 C 312.121 -0.940419 -3.32039 0
M  V30 3151 C 311.234 -2.14276 -3.75113 0
M  V30 3152 C 310.369 -1.80648 -4.9954 0
M  V30 3153 C 309.408 -2.97208 -5.35102 0
M  V30 3154 N 308.545 -2.63678 -6.50706 0
M  V30 3155 H 313.385 -2.16042 -2.05255 0
M  V30 3156 H 310.922 -1.07451 -1.00463 0
M  V30 3157 H 312.88 -0.763311 -4.10158 0
M  V30 3158 H 311.51 -0.0290413 -3.22787 0
M  V30 3159 H 310.562 -2.43017 -2.92655 0
M  V30 3160 H 311.874 -3.01468 -3.97389 0
M  V30 3161 H 311.028 -1.59484 -5.85363 0
M  V30 3162 H 309.767 -0.906678 -4.79198 0
M  V30 3163 H 308.772 -3.19004 -4.47791 0
M  V30 3164 H 309.997 -3.87918 -5.57401 0
M  V30 3165 H 307.943 -1.76238 -6.31883 0
M  V30 3166 H 307.86 -3.444 -6.72997 0
M  V30 3167 H 309.128 -2.45942 -7.39684 0
M  V30 3168 N 313.357 1.07166 -1.15556 0
M  V30 3169 C 314.603 1.80065 -0.932984 0
M  V30 3170 C 314.936 1.86586 0.53845 0
M  V30 3171 O 314.211 1.35098 1.39924 0
M  V30 3172 C 314.494 3.25022 -1.55025 0
M  V30 3173 C 314.347 3.26634 -3.09242 0
M  V30 3174 C 315.666 4.22341 -1.2376 0
M  V30 3175 H 312.785 0.653697 -0.340366 0
M  V30 3176 H 315.427 1.25389 -1.4275 0
M  V30 3177 H 313.577 3.71712 -1.12972 0
M  V30 3178 H 315.249 2.88173 -3.60214 0
M  V30 3179 H 313.492 2.65539 -3.43033 0
M  V30 3180 H 314.163 4.28854 -3.47546 0
M  V30 3181 H 316.639 3.8405 -1.60139 0
M  V30 3182 H 315.515 5.22053 -1.69564 0
M  V30 3183 H 315.776 4.41828 -0.154938 0
M  V30 3184 N 314.835 0.952656 1.25548 0
M  V30 3185 C 316.112 0.523818 1.88456 0
M  V30 3186 C 316.492 -0.998871 1.85973 0
M  V30 3187 O 315.84 -1.86381 1.3219 0
M  V30 3188 C 316.05 1.0982 3.31271 0
M  V30 3189 C 317.398 1.17385 4.08051 0
M  V30 3190 O 318.422 1.04961 3.40384 0
M  V30 3191 O 317.281 1.36852 5.29088 0
M  V30 3192 H 314.375 0.172485 0.808813 0
M  V30 3193 H 316.921 1.04596 1.33633 0
M  V30 3194 H 315.693 2.1415 3.27499 0
M  V30 3195 H 315.316 0.559191 3.93648 0
M  V30 3196 N 316.313 -1.40141 0.720998 0
M  V30 3197 C 317.26 -2.30688 0.071919 0
M  V30 3198 C 318.23 -1.48476 -0.744584 0
M  V30 3199 O 319.415 -1.77201 -0.707423 0
M  V30 3200 C 316.555 -3.34724 -0.839855 0
M  V30 3201 C 315.668 -4.31998 -0.0122438 0
M  V30 3202 C 314.803 -5.23102 -0.923995 0
M  V30 3203 C 313.842 -6.12033 -0.0907969 0
M  V30 3204 N 312.979 -6.95537 -0.957718 0
M  V30 3205 H 317.819 -2.85628 0.849755 0
M  V30 3206 H 315.356 -1.40653 0.430726 0
M  V30 3207 H 317.314 -3.93618 -1.38279 0
M  V30 3208 H 315.944 -2.81274 -1.58381 0
M  V30 3209 H 314.996 -3.74841 0.64794 0
M  V30 3210 H 316.308 -4.94772 0.632595 0
M  V30 3211 H 315.462 -5.86953 -1.53527 0
M  V30 3212 H 314.201 -4.60615 -1.60264 0
M  V30 3213 H 313.206 -5.47207 0.533377 0
M  V30 3214 H 314.431 -6.76581 0.584428 0
M  V30 3215 H 312.377 -6.35633 -1.62192 0
M  V30 3216 H 312.294 -7.55099 -0.36904 0
M  V30 3217 H 313.562 -7.63832 -1.555 0
M  V30 3218 N 317.792 -0.46758 -1.50504 0
M  V30 3219 C 319.208 -0.121533 -1.59137 0
M  V30 3220 C 319.408 1.3717 -1.47603 0
M  V30 3221 O 318.464 2.14464 -1.33272 0
M  V30 3222 C 319.777 -0.6686 -2.93173 0
M  V30 3223 C 321.325 -0.631716 -3.06559 0
M  V30 3224 C 321.8 -1.15627 -4.43164 0
M  V30 3225 N 323.291 -1.11553 -4.49567 0
M  V30 3226 C 324.026 -1.49195 -5.5365 0
M  V30 3227 N 323.522 -1.94269 -6.65005 0
M  V30 3228 N 325.315 -1.4082 -5.44175 0
M  V30 3229 H 317.466 -1.4388 -1.56245 0
M  V30 3230 H 319.729 -0.594784 -0.738198 0
M  V30 3231 H 319.435 -1.71453 -3.07078 0
M  V30 3232 H 319.309 -0.11021 -3.77039 0
M  V30 3233 H 321.696 0.405297 -2.92304 0
M  V30 3234 H 321.777 -1.22687 -2.24458 0
M  V30 3235 H 321.421 -2.1919 -4.58168 0
M  V30 3236 H 321.351 -0.537365 -5.23851 0
M  V30 3237 H 323.842 -0.784895 -3.69659 0
M  V30 3238 H 324.155 -2.21148 -7.40482 0
M  V30 3239 H 322.5 -1.98219 -6.66134 0
M  V30 3240 H 325.691 -1.0545 -4.56068 0
M  V30 3241 H 325.864 -1.70481 -6.25172 0
M  V30 3242 N 319.27 1.56325 -0.20005 0
M  V30 3243 C 320.516 1.98012 0.438059 0
M  V30 3244 C 320.849 1.08702 1.60927 0
M  V30 3245 O 320.124 0.140064 1.93995 0
M  V30 3246 C 320.407 3.48841 0.893419 0
M  V30 3247 C 320.26 4.48928 -0.279947 0
M  V30 3248 C 321.579 4.03498 1.75719 0
M  V30 3249 H 318.698 0.719918 0.157757 0
M  V30 3250 H 321.34 1.87743 -0.291968 0
M  V30 3251 H 319.49 3.57723 1.51547 0
M  V30 3252 H 321.162 4.52079 -0.91772 0
M  V30 3253 H 319.405 4.23694 -0.930919 0
M  V30 3254 H 320.076 5.5194 0.0812601 0
M  V30 3255 H 322.552 3.97427 1.23253 0
M  V30 3256 H 321.428 5.09393 2.04476 0
M  V30 3257 H 321.689 3.4906 2.71311 0
M  V30 3258 N 320.748 -0.0735177 1.57428 0
M  V30 3259 C 321.658 -1.10547 2.06922 0
M  V30 3260 C 322.674 -1.42506 0.998402 0
M  V30 3261 O 323.85 -1.52717 1.31299 0
M  V30 3262 C 320.915 -2.40019 2.50184 0
M  V30 3263 C 319.976 -2.15046 3.71556 0
M  V30 3264 C 319.209 -3.38345 4.12745 0
M  V30 3265 O 319.432 -4.47399 3.53822 0
M  V30 3266 O 318.366 -3.2666 5.05546 0
M  V30 3267 H 322.192 -0.715013 2.95163 0
M  V30 3268 H 319.777 -0.287531 1.46607 0
M  V30 3269 H 321.659 -3.16218 2.78539 0
M  V30 3270 H 320.334 -2.78447 1.65072 0
M  V30 3271 H 319.241 -1.36558 3.48285 0
M  V30 3272 H 320.574 -1.81499 4.57514 0
M  V30 3273 N 322.226 -1.5378 -0.344866 0
M  V30 3274 C 323.637 -1.62428 -0.920552 0
M  V30 3275 C 323.988 -0.504747 -1.89596 0
M  V30 3276 O 323.113 0.365711 -2.13287 0
M  V30 3277 C 323.708 -2.94419 -1.67639 0
M  V30 3278 C 322.267 -3.05333 -2.20111 0
M  V30 3279 C 321.414 -2.57866 -1.01982 0
M  V30 3280 H 324.365 -1.58222 -0.123042 0
M  V30 3281 H 324.386 -2.83384 -2.53917 0
M  V30 3282 H 323.898 -3.7588 -0.966224 0
M  V30 3283 H 321.999 -2.28502 -2.94308 0
M  V30 3284 H 322.112 -4.10778 -2.46573 0
M  V30 3285 H 320.476 -2.13241 -1.39285 0
M  V30 3286 H 321.259 -3.41765 -0.324308 0
M  V30 3287 N 323.704 0.605807 -1.45491 0
M  V30 3288 C 324.651 1.7164 -1.54299 0
M  V30 3289 C 325.621 1.61486 -0.388761 0
M  V30 3290 O 326.806 1.81039 -0.602445 0
M  V30 3291 C 323.946 3.09953 -1.51734 0
M  V30 3292 C 323.059 3.309 -2.77721 0
M  V30 3293 C 322.194 4.59329 -2.66816 0
M  V30 3294 C 321.233 4.7354 -3.87848 0
M  V30 3295 N 320.37 5.9327 -3.75467 0
M  V30 3296 H 325.21 1.63449 -2.49176 0
M  V30 3297 H 322.747 0.796957 -1.23641 0
M  V30 3298 H 324.705 3.89977 -1.48235 0
M  V30 3299 H 323.335 3.17098 -0.604068 0
M  V30 3300 H 322.387 2.44639 -2.913 0
M  V30 3301 H 323.699 3.37274 -3.67488 0
M  V30 3302 H 322.853 5.4755 -2.61292 0
M  V30 3303 H 321.592 4.55355 -1.74651 0
M  V30 3304 H 320.597 3.83741 -3.93729 0
M  V30 3305 H 321.822 4.79309 -4.81082 0
M  V30 3306 H 319.768 5.90338 -2.86072 0
M  V30 3307 H 319.685 6.00811 -4.5887 0
M  V30 3308 H 320.953 6.83984 -3.73879 0
M  V30 3309 N 325.182 1.32811 0.848464 0
M  V30 3310 C 326.407 1.26882 1.6406 0
M  V30 3311 C 326.832 -0.15913 1.87426 0
M  V30 3312 O 326.19 -1.11258 1.43148 0
M  V30 3313 C 326.238 2.03997 2.97351 0
M  V30 3314 O 325.342 1.39201 3.88197 0
M  V30 3315 H 324.683 0.436982 0.499943 0
M  V30 3316 H 327.213 1.75224 1.0563 0
M  V30 3317 H 327.223 2.14403 3.47124 0
M  V30 3318 H 325.898 3.0783 2.79666 0
M  V30 3319 H 324.475 1.37381 3.46671 0
M  V30 3320 N 326.66 -1.06551 1.16123 0
M  V30 3321 C 327.9 -1.80889 0.951766 0
M  V30 3322 C 328.264 -1.85062 -0.511465 0
M  V30 3323 O 329.465 -2.55353 -0.83954 0
M  V30 3324 C 327.736 -3.21609 1.55893 0
M  V30 3325 S 329.295 -4.12593 1.49373 0
M  V30 3326 H 326.113 -0.623156 0.342341 0
M  V30 3327 H 328.715 -1.27943 1.47821 0
M  V30 3328 H 327.419 -3.16165 2.61664 0
M  V30 3329 H 326.95 -3.79631 1.0317 0
M  V30 3330 H 328.965 -4.93753 0.492196 0
M  V30 3331 N 328.138 -0.959301 -1.25041 0
M  V30 3332 C 329.415 -0.533805 -1.88175 0
M  V30 3333 C 329.795 0.988994 -1.865 0
M  V30 3334 O 329.143 1.85677 -1.33177 0
M  V30 3335 C 329.353 -1.11575 -3.30684 0
M  V30 3336 C 330.701 -1.19548 -4.07423 0
M  V30 3337 O 331.725 -1.06765 -3.39823 0
M  V30 3338 O 330.584 -1.39656 -5.28354 0
M  V30 3339 H 327.678 -0.176772 -0.807887 0
M  V30 3340 H 330.224 -1.05303 -1.33076 0
M  V30 3341 H 328.996 -2.15884 -3.26358 0
M  V30 3342 H 328.619 -0.580059 -3.93346 0
M  V30 3343 N 329.616 1.39756 -0.72842 0
M  V30 3344 C 330.563 2.30647 -0.0841519 0
M  V30 3345 C 331.533 1.48869 0.7367 0
M  V30 3346 O 332.718 1.77574 0.698015 0
M  V30 3347 C 329.858 3.35165 0.822091 0
M  V30 3348 C 328.971 4.31999 -0.0106663 0
M  V30 3349 C 328.106 5.23585 0.896241 0
M  V30 3350 C 327.145 6.12072 0.0583381 0
M  V30 3351 N 326.282 6.96035 0.920818 0
M  V30 3352 H 331.122 2.85173 -0.864891 0
M  V30 3353 H 328.659 1.40422 -0.438179 0
M  V30 3354 H 330.617 3.94345 1.36189 0
M  V30 3355 H 329.247 2.8211 1.56888 0
M  V30 3356 H 328.299 3.74492 -0.66781 0
M  V30 3357 H 329.611 4.9443 -0.658825 0
M  V30 3358 H 328.765 5.87759 1.50412 0
M  V30 3359 H 327.504 4.61459 1.57819 0
M  V30 3360 H 326.509 5.46916 -0.562389 0
M  V30 3361 H 327.734 6.76261 -0.6203 0
M  V30 3362 H 325.68 6.36485 1.58818 0
M  V30 3363 H 325.597 7.55284 0.32899 0
M  V30 3364 H 326.865 7.64646 1.51447 0
M  V30 3365 N 331.094 0.475555 1.50254 0
M  V30 3366 C 332.322 -0.0754493 2.06762 0
M  V30 3367 C 332.737 -1.33111 1.33891 0
M  V30 3368 O 332.094 -1.77846 0.40952 0
M  V30 3369 C 332.145 -0.359008 3.59713 0
M  V30 3370 O 331.866 0.846851 4.29837 0
M  V30 3371 C 333.367 -0.956484 4.32858 0
M  V30 3372 H 330.587 0.00907525 0.670939 0
M  V30 3373 H 333.131 0.665618 1.93364 0
M  V30 3374 H 331.286 -1.05001 3.72899 0
M  V30 3375 H 331.7 0.594162 5.21124 0
M  V30 3376 H 333.174 -1.10463 5.40834 0
M  V30 3377 H 333.651 -1.94775 3.93649 0
M  V30 3378 H 334.257 -0.303723 4.24214 0
M  V30 3379 N 332.573 -1.56217 0.208337 0
M  V30 3380 C 333.523 -2.16324 -0.720281 0
M  V30 3381 C 334.507 -1.10775 -1.16695 0
M  V30 3382 O 335.699 -1.36801 -1.12314 0
M  V30 3383 C 332.828 -2.83644 -1.93393 0
M  V30 3384 C 331.914 -3.96401 -1.50755 0
M  V30 3385 N 332.305 -4.99546 -0.792937 0
M  V30 3386 C 330.603 -4.08246 -1.79585 0
M  V30 3387 C 331.304 -5.78828 -0.577364 0
M  V30 3388 N 330.28 -5.31723 -1.1301 0
M  V30 3389 H 334.082 -2.93432 -0.165725 0
M  V30 3390 H 331.596 -1.62397 0.00906463 0
M  V30 3391 H 333.593 -3.25107 -2.60981 0
M  V30 3392 H 332.253 -2.08027 -2.49308 0
M  V30 3393 H 333.264 -5.15967 -0.447004 0
M  V30 3394 H 329.941 -3.4377 -2.36915 0
M  V30 3395 H 331.331 -6.71899 -0.00952956 0
M  V30 3396 O 334.09 -0.071647 -1.61341 0
M  V30 3397 H 334.781 0.534597 -1.86177 0
M  V30 END ATOM
M  V30 BEGIN BOND
M  V30 END BOND
M  V30 END CTAB
M  END
$$$$
