drugbank_target|P36404 ADP-ribosylation factor-like protein 2 (DB14731)
 OpenBabel12092121193D

  0  0  0     0  0            999 V3000
M  V30 BEGIN CTAB
M  V30 COUNTS 2955 2978 0 0 0
M  V30 BEGIN ATOM
M  V30 1 H -0.908 1.98254 -0.117106 0
M  V30 2 N 0 1.576 0 0
M  V30 3 C 0.933 2.03868 1.02534 0
M  V30 4 C 1.911 0.928543 1.3348 0
M  V30 5 O 3.095 1.19667 1.45644 0
M  V30 6 C 0.222 2.43627 2.35294 0
M  V30 7 C -0.732 3.65373 2.2001 0
M  V30 8 S 0.101 5.13292 1.52614 0
M  V30 9 C 1.257 5.56322 2.86805 0
M  V30 10 H 1.49 2.90518 0.631377 0
M  V30 11 H -0.977 1.52953 0.210867 0
M  V30 12 H 0.981 2.67203 3.11629 0
M  V30 13 H -0.358 1.57376 2.7183 0
M  V30 14 H -1.165 3.90944 3.18086 0
M  V30 15 H -1.563 3.418 1.51819 0
M  V30 16 H 0.729 5.58782 3.83104 0
M  V30 17 H 1.672 6.56266 2.65933 0
M  V30 18 H 2.08 4.83886 2.90714 0
M  V30 19 N 1.4781 -0.272755 1.55222 0
M  V30 20 C 2.7261 -1.00234 1.75492 0
M  V30 21 C 3.0471 -1.8681 0.5592 0
M  V30 22 O 2.3171 -1.91215 -0.425882 0
M  V30 23 H 0.8971 -0.373076 0.647166 0
M  V30 24 H 3.5591 -0.296926 1.92625 0
M  V30 25 H 2.6551 -1.63913 2.65592 0
M  V30 26 N 2.9562 -1.48159 -0.537278 0
M  V30 27 C 3.8862 -1.65029 -1.6519 0
M  V30 28 C 4.8672 -0.499281 -1.62607 0
M  V30 29 O 6.0522 -0.730972 -1.79918 0
M  V30 30 C 3.1822 -1.68303 -3.03795 0
M  V30 31 C 2.1362 -2.8283 -3.21234 0
M  V30 32 C 1.4622 -2.71189 -4.60826 0
M  V30 33 C 2.7622 -4.24211 -3.04701 0
M  V30 34 H 4.4562 -2.58341 -1.51328 0
M  V30 35 H 2.0022 -1.24325 -0.726585 0
M  V30 36 H 3.9552 -1.78693 -3.81637 0
M  V30 37 H 2.6792 -0.715635 -3.18663 0
M  V30 38 H 1.3382 -2.71983 -2.45807 0
M  V30 39 H 0.9862 -1.72435 -4.7252 0
M  V30 40 H 0.6862 -3.48035 -4.7344 0
M  V30 41 H 2.2102 -2.83537 -5.40777 0
M  V30 42 H 3.6242 -4.3593 -3.72341 0
M  V30 43 H 2.0212 -5.01998 -3.28813 0
M  V30 44 H 3.0912 -4.41184 -2.01209 0
M  V30 45 N 4.4343 0.785586 -1.36625 0
M  V30 46 C 5.3643 1.91259 -1.33949 0
M  V30 47 C 6.3453 1.68795 -0.210325 0
M  V30 48 O 7.5303 1.89854 -0.408561 0
M  V30 49 C 4.6603 3.28339 -1.13186 0
M  V30 50 C 3.6143 3.65335 -2.22967 0
M  V30 51 C 2.9403 5.00806 -1.87342 0
M  V30 52 C 4.2403 3.7352 -3.65075 0
M  V30 53 H 5.9343 1.93755 -2.28253 0
M  V30 54 H 3.4803 0.930788 -1.09874 0
M  V30 55 H 5.4333 4.06804 -1.09948 0
M  V30 56 H 4.1573 3.2624 -0.153332 0
M  V30 57 H 2.8163 2.89169 -2.25337 0
M  V30 58 H 2.4643 4.95233 -0.880545 0
M  V30 59 H 2.1643 5.26529 -2.60846 0
M  V30 60 H 3.6883 5.81687 -1.85667 0
M  V30 61 H 5.1023 4.42168 -3.64911 0
M  V30 62 H 3.4993 4.10731 -4.37516 0
M  V30 63 H 4.5693 2.74527 -3.99703 0
M  V30 64 N 5.9124 1.20967 1.01018 0
M  V30 65 C 7.1404 1.04956 1.78303 0
M  V30 66 C 7.5554 -0.400915 1.84494 0
M  V30 67 O 6.9124 -1.27826 1.30257 0
M  V30 68 C 6.9634 1.63403 3.22462 0
M  V30 69 O 6.6844 3.02775 3.16637 0
M  V30 70 C 8.1854 1.52432 4.16268 0
M  V30 71 H 5.4054 0.368858 0.560522 0
M  V30 72 H 7.9494 1.60193 1.27116 0
M  V30 73 H 6.1044 1.1227 3.70775 0
M  V30 74 H 6.5184 3.30626 4.07169 0
M  V30 75 H 7.9924 1.98078 5.15237 0
M  V30 76 H 8.4694 0.477875 4.36592 0
M  V30 77 H 9.0754 2.02787 3.73841 0
M  V30 78 N 7.3905 -1.2043 1.01659 0
M  V30 79 C 8.6395 -1.89118 0.701237 0
M  V30 80 C 8.9525 -1.79705 -0.772358 0
M  V30 81 O 10.1585 -2.43528 -1.20026 0
M  V30 82 C 8.6145 -3.39168 1.20388 0
M  V30 83 C 8.2225 -3.57166 2.70438 0
M  V30 84 C 9.9665 -4.1341 0.963953 0
M  V30 85 C 7.8735 -5.01042 3.14183 0
M  V30 86 H 6.8035 -0.708267 0.2586 0
M  V30 87 H 9.4545 -1.36239 1.22927 0
M  V30 88 H 7.8365 -3.91369 0.603824 0
M  V30 89 H 9.0105 -3.15351 3.35992 0
M  V30 90 H 7.3255 -2.96294 2.92572 0
M  V30 91 H 9.9225 -5.19491 1.26621 0
M  V30 92 H 10.2655 -4.16181 -0.099578 0
M  V30 93 H 10.7985 -3.67309 1.52738 0
M  V30 94 H 7.5375 -5.03426 4.19812 0
M  V30 95 H 7.0575 -5.43668 2.53348 0
M  V30 96 H 8.7365 -5.69623 3.0682 0
M  V30 97 N 8.8686 -0.792821 -1.36206 0
M  V30 98 C 9.7986 -0.207853 -2.32573 0
M  V30 99 C 10.7796 0.659055 -1.56813 0
M  V30 100 O 11.9646 0.592176 -1.84951 0
M  V30 101 C 9.0946 0.655449 -3.41059 0
M  V30 102 C 8.0486 -0.111842 -4.27854 0
M  V30 103 C 7.3746 0.872274 -5.27537 0
M  V30 104 C 8.6746 -1.30299 -5.05786 0
M  V30 105 H 10.3686 -1.01294 -2.81744 0
M  V30 106 H 7.9146 -0.48854 -1.3546 0
M  V30 107 H 9.8676 1.07464 -4.07467 0
M  V30 108 H 8.5916 1.49328 -2.90463 0
M  V30 109 H 7.2506 -0.512053 -3.63006 0
M  V30 110 H 6.8986 1.70523 -4.73214 0
M  V30 111 H 6.5986 0.363291 -5.86476 0
M  V30 112 H 8.1226 1.28996 -5.96818 0
M  V30 113 H 9.5366 -0.959379 -5.65216 0
M  V30 114 H 7.9336 -1.7455 -5.74154 0
M  V30 115 H 9.0036 -2.09663 -4.37229 0
M  V30 116 N 10.3467 1.47872 -0.545128 0
M  V30 117 C 11.2937 2.29849 0.2093 0
M  V30 118 C 12.2637 1.38313 0.919707 0
M  V30 119 O 13.4487 1.67277 0.917772 0
M  V30 120 C 10.5887 3.22019 1.24088 0
M  V30 121 C 9.7017 4.2864 0.537778 0
M  V30 122 C 8.8367 5.07973 1.5536 0
M  V30 123 C 7.8757 6.06381 0.8348 0
M  V30 124 N 7.0127 6.78717 1.79688 0
M  V30 125 H 11.8527 2.93845 -0.49591 0
M  V30 126 H 9.3897 1.44848 -0.256389 0
M  V30 127 H 11.3477 3.73868 1.85144 0
M  V30 128 H 9.9777 2.59914 1.91428 0
M  V30 129 H 9.0297 3.7994 -0.187046 0
M  V30 130 H 10.3417 4.98793 -0.0258907 0
M  V30 131 H 9.4957 5.63912 2.23803 0
M  V30 132 H 8.2347 4.37693 2.15118 0
M  V30 133 H 7.2397 5.49631 0.136388 0
M  V30 134 H 8.4647 6.78665 0.24313 0
M  V30 135 H 6.4107 6.11177 2.38326 0
M  V30 136 H 6.3277 7.44998 1.28505 0
M  V30 137 H 7.5957 7.39237 2.47282 0
M  V30 138 N 11.8248 0.280983 1.55075 0
M  V30 139 C 12.7718 -0.603937 2.22758 0
M  V30 140 C 13.7418 -1.1452 1.20309 0
M  V30 141 O 14.9268 -1.19343 1.48869 0
M  V30 142 C 12.0668 -1.77947 2.95684 0
M  V30 143 C 11.1798 -1.2715 4.12864 0
M  V30 144 C 10.3148 -2.4093 4.7342 0
M  V30 145 C 9.3538 -1.87165 5.82783 0
M  V30 146 N 8.4908 -2.94441 6.37377 0
M  V30 147 H 13.3308 -0.020124 2.97993 0
M  V30 148 H 10.8678 0.00183425 1.471 0
M  V30 149 H 12.8258 -2.47055 3.36184 0
M  V30 150 H 11.4558 -2.33522 2.22861 0
M  V30 151 H 10.5078 -0.473331 3.77444 0
M  V30 152 H 11.8198 -0.837751 4.91715 0
M  V30 153 H 10.9738 -3.18021 5.1667 0
M  V30 154 H 9.7128 -2.87623 3.93859 0
M  V30 155 H 8.7178 -1.08556 5.38976 0
M  V30 156 H 9.9428 -1.41401 6.64216 0
M  V30 157 H 7.8888 -3.40505 5.60707 0
M  V30 158 H 7.8058 -2.55501 7.11516 0
M  V30 159 H 9.0738 -3.71489 6.85285 0
M  V30 160 N 13.3029 -1.57598 0.00835791 0
M  V30 161 C 14.2359 -2.04409 -1.01451 0
M  V30 162 C 15.2139 -0.935609 -1.32985 0
M  V30 163 O 16.3979 -1.20437 -1.45007 0
M  V30 164 C 13.5249 -2.44872 -2.33999 0
M  V30 165 C 12.5709 -3.66535 -2.18069 0
M  V30 166 S 13.4039 -5.14095 -1.4989 0
M  V30 167 C 14.5599 -5.57835 -2.8385 0
M  V30 168 H 14.7929 -2.90849 -0.615961 0
M  V30 169 H 12.3259 -1.53063 -0.202752 0
M  V30 170 H 14.2839 -2.68852 -3.10208 0
M  V30 171 H 12.9449 -1.58815 -2.70992 0
M  V30 172 H 12.1379 -3.92626 -3.16008 0
M  V30 173 H 11.7399 -3.426 -1.50004 0
M  V30 174 H 14.0319 -5.60806 -3.80136 0
M  V30 175 H 14.9749 -6.57667 -2.62449 0
M  V30 176 H 15.3829 -4.85421 -2.88144 0
M  V30 177 N 14.781 0.264519 -1.55364 0
M  V30 178 C 15.728 1.32717 -1.88825 0
M  V30 179 C 16.698 1.48675 -0.740605 0
M  V30 180 O 17.883 1.62945 -0.992657 0
M  V30 181 C 15.023 2.68089 -2.17307 0
M  V30 182 C 14.136 2.60284 -3.44785 0
M  V30 183 C 13.271 3.87892 -3.62924 0
M  V30 184 C 12.31 3.74631 -4.84064 0
M  V30 185 N 11.447 4.94092 -4.98816 0
M  V30 186 H 16.287 1.03481 -2.79456 0
M  V30 187 H 13.824 0.499757 -1.3835 0
M  V30 188 H 15.782 3.46864 -2.31821 0
M  V30 189 H 14.412 2.95509 -1.299 0
M  V30 190 H 13.464 1.73173 -3.38697 0
M  V30 191 H 14.776 2.46388 -4.33698 0
M  V30 192 H 13.93 4.75109 -3.77302 0
M  V30 193 H 12.669 4.04664 -2.7221 0
M  V30 194 H 11.674 2.85797 -4.69681 0
M  V30 195 H 12.899 3.5937 -5.76221 0
M  V30 196 H 10.845 5.11259 -4.11036 0
M  V30 197 H 10.762 4.8276 -5.81789 0
M  V30 198 H 12.03 5.82857 -5.17588 0
M  V30 199 N 16.2591 1.48442 0.529413 0
M  V30 200 C 17.1911 1.59095 1.64989 0
M  V30 201 C 18.2041 0.475212 1.5571 0
M  V30 202 O 19.3931 0.746081 1.6216 0
M  V30 203 C 16.4931 1.50518 3.0364 0
M  V30 204 C 15.6661 2.77142 3.38395 0
M  V30 205 C 14.7251 2.62012 4.56329 0
M  V30 206 O 13.7511 3.35898 4.59522 0
M  V30 207 N 14.9531 1.71667 5.54536 0
M  V30 208 H 17.7181 2.55723 1.56287 0
M  V30 209 H 15.2791 1.45173 0.716697 0
M  V30 210 H 17.2711 1.38091 3.80412 0
M  V30 211 H 15.8411 0.618627 3.06418 0
M  V30 212 H 15.0611 3.0413 2.50796 0
M  V30 213 H 16.3491 3.61146 3.58401 0
M  V30 214 H 15.7471 1.10841 5.54735 0
M  V30 215 H 14.3041 1.65178 6.30523 0
M  V30 216 N 17.7372 -0.778329 1.37039 0
M  V30 217 C 18.6842 -1.89139 1.32269 0
M  V30 218 C 19.6542 -1.65017 0.189387 0
M  V30 219 O 20.8392 -1.87024 0.377693 0
M  V30 220 C 17.9792 -3.26112 1.12894 0
M  V30 221 C 17.0922 -3.62233 2.35396 0
M  V30 222 C 16.2272 -4.8838 2.08946 0
M  V30 223 C 15.2662 -5.17212 3.2735 0
M  V30 224 N 14.4032 -6.34546 3.00492 0
M  V30 225 H 19.2432 -1.92552 2.27437 0
M  V30 226 H 16.7802 -0.941473 1.13025 0
M  V30 227 H 18.7382 -4.05116 0.996835 0
M  V30 228 H 17.3682 -3.22091 0.213758 0
M  V30 229 H 16.4202 -2.78265 2.5937 0
M  V30 230 H 17.7322 -3.79481 3.23721 0
M  V30 231 H 16.8862 -5.75274 1.92729 0
M  V30 232 H 15.6252 -4.73222 1.17949 0
M  V30 233 H 14.6302 -4.28796 3.44113 0
M  V30 234 H 15.8552 -5.34283 4.19188 0
M  V30 235 H 13.8012 -6.20759 2.12118 0
M  V30 236 H 13.7182 -6.52179 3.82358 0
M  V30 237 H 14.9862 -7.24394 2.87879 0
M  V30 238 N 19.2153 -1.21501 -1.00376 0
M  V30 239 C 20.1253 -0.991447 -2.12621 0
M  V30 240 C 21.1413 0.0568446 -1.73907 0
M  V30 241 O 22.3173 -0.13348 -2.00957 0
M  V30 242 C 19.3823 -0.560312 -3.42142 0
M  V30 243 C 18.4433 -1.68096 -3.95022 0
M  V30 244 C 17.6763 -1.2703 -5.18362 0
M  V30 245 O 17.8993 -0.144438 -5.70217 0
M  V30 246 O 16.8333 -2.08269 -5.64719 0
M  V30 247 H 20.6593 -1.93158 -2.34358 0
M  V30 248 H 18.2443 -0.999999 -1.10997 0
M  V30 249 H 20.1263 -0.329724 -4.20108 0
M  V30 250 H 18.8013 0.351089 -3.2179 0
M  V30 251 H 17.7083 -1.96597 -3.18278 0
M  V30 252 H 19.0413 -2.56983 -4.19786 0
M  V30 253 N 20.6934 1.19889 -1.02296 0
M  V30 254 C 22.1094 1.41462 -0.738954 0
M  V30 255 C 22.3094 1.89721 0.678846 0
M  V30 256 O 21.3654 2.07016 1.4457 0
M  V30 257 C 22.6784 2.43083 -1.77005 0
M  V30 258 C 24.2264 2.5684 -1.78892 0
M  V30 259 C 24.7014 3.61709 -2.80945 0
M  V30 260 N 26.1924 3.69199 -2.79725 0
M  V30 261 C 26.9274 4.50019 -3.55345 0
M  V30 262 N 26.4234 5.34592 -4.40662 0
M  V30 263 N 28.2164 4.44612 -3.43914 0
M  V30 264 H 20.3674 0.868827 -1.93817 0
M  V30 265 H 22.6304 0.44399 -0.837602 0
M  V30 266 H 22.3364 2.14636 -2.78612 0
M  V30 267 H 22.2104 3.4217 -1.58744 0
M  V30 268 H 24.5974 2.84614 -0.779674 0
M  V30 269 H 24.6784 1.57927 -2.01228 0
M  V30 270 H 24.3224 3.34678 -3.82038 0
M  V30 271 H 24.2524 4.60259 -2.5587 0
M  V30 272 H 26.7434 3.08794 -2.17842 0
M  V30 273 H 27.0564 5.93363 -4.95116 0
M  V30 274 H 25.4014 5.34073 -4.44737 0
M  V30 275 H 28.5924 3.7758 -2.76679 0
M  V30 276 H 28.7654 5.0736 -4.031 0
M  V30 277 N 22.1715 0.800033 1.35784 0
M  V30 278 C 23.0815 0.207204 2.33683 0
M  V30 279 C 24.0975 -0.64631 1.61551 0
M  V30 280 O 25.2735 -0.559604 1.93469 0
M  V30 281 C 22.3385 -0.639659 3.40748 0
M  V30 282 C 21.3995 0.233585 4.28664 0
M  V30 283 C 20.6325 -0.572954 5.30616 0
M  V30 284 O 20.8555 -1.80816 5.40982 0
M  V30 285 O 19.7895 0.0327285 6.01891 0
M  V30 286 H 23.6155 1.01692 2.86169 0
M  V30 287 H 21.2005 0.561691 1.38439 0
M  V30 288 H 23.0825 -1.12223 4.06182 0
M  V30 289 H 21.7575 -1.42708 2.90544 0
M  V30 290 H 20.6645 0.763147 3.66233 0
M  V30 291 H 21.9975 0.984784 4.82248 0
M  V30 292 N 23.6496 -1.47581 0.552962 0
M  V30 293 C 24.5796 -2.32762 -0.185451 0
M  V30 294 C 25.5606 -1.43527 -0.912905 0
M  V30 295 O 26.7456 -1.72388 -0.894201 0
M  V30 296 C 23.8756 -3.25219 -1.21859 0
M  V30 297 C 22.8296 -4.23661 -0.607864 0
M  V30 298 C 22.1556 -5.05413 -1.74533 0
M  V30 299 C 23.4556 -5.20481 0.435582 0
M  V30 300 H 25.1496 -2.94749 0.525684 0
M  V30 301 H 22.6956 -1.41738 0.254251 0
M  V30 302 H 24.6486 -3.8365 -1.7433 0
M  V30 303 H 23.3726 -2.61279 -1.95961 0
M  V30 304 H 22.0316 -3.66451 -0.104489 0
M  V30 305 H 21.6796 -4.3788 -2.47529 0
M  V30 306 H 21.3796 -5.72059 -1.34249 0
M  V30 307 H 22.9036 -5.66701 -2.27338 0
M  V30 308 H 24.3176 -5.733 -0.00290157 0
M  V30 309 H 22.7146 -5.95305 0.757067 0
M  V30 310 H 23.7846 -4.66217 1.33303 0
M  V30 311 N 25.1277 -0.289203 -1.54924 0
M  V30 312 C 26.5437 0.0645403 -1.59469 0
M  V30 313 C 26.7437 1.53419 -1.30632 0
M  V30 314 O 25.7997 2.2852 -1.074 0
M  V30 315 C 27.1127 -0.32278 -2.98963 0
M  V30 316 C 28.6607 -0.270564 -3.11828 0
M  V30 317 C 29.1357 -0.632532 -4.53611 0
M  V30 318 N 30.6267 -0.584617 -4.59496 0
M  V30 319 C 31.3617 -0.837314 -5.67254 0
M  V30 320 N 30.8577 -1.15536 -6.83098 0
M  V30 321 N 32.6507 -0.765166 -5.56868 0
M  V30 322 H 24.8017 -1.24714 -1.71931 0
M  V30 323 H 27.0647 -0.504809 -0.802416 0
M  V30 324 H 26.7707 -1.34541 -3.24948 0
M  V30 325 H 26.6447 0.32944 -3.75759 0
M  V30 326 H 29.0317 0.742805 -2.85598 0
M  V30 327 H 29.1127 -0.957242 -2.37214 0
M  V30 328 H 28.7567 -1.64365 -4.80569 0
M  V30 329 H 28.6867 0.07609 -5.26545 0
M  V30 330 H 31.1777 -0.349248 -3.76283 0
M  V30 331 H 31.4907 -1.33447 -7.61191 0
M  V30 332 H 29.8357 -1.19328 -6.84679 0
M  V30 333 H 33.0267 -0.516432 -4.65243 0
M  V30 334 H 33.1997 -0.965477 -6.40767 0
M  V30 335 N 26.6058 1.57591 -0.0167156 0
M  V30 336 C 27.5358 2.12496 0.967858 0
M  V30 337 C 28.5168 1.03807 1.34752 0
M  V30 338 O 29.7018 1.31577 1.42833 0
M  V30 339 C 26.8318 2.64194 2.25431 0
M  V30 340 C 25.7858 3.77559 2.01576 0
M  V30 341 C 25.1118 4.15636 3.36379 0
M  V30 342 C 26.4118 5.04151 1.36489 0
M  V30 343 H 28.1058 2.95013 0.510643 0
M  V30 344 H 25.6518 1.41915 0.244181 0
M  V30 345 H 27.6048 3.01236 2.94678 0
M  V30 346 H 26.3288 1.78821 2.73296 0
M  V30 347 H 24.9878 3.40937 1.34751 0
M  V30 348 H 24.6358 3.27263 3.81979 0
M  V30 349 H 24.3358 4.92022 3.21229 0
M  V30 350 H 25.8598 4.5525 4.06915 0
M  V30 351 H 27.2738 5.38857 1.95718 0
M  V30 352 H 25.6708 5.85453 1.31776 0
M  V30 353 H 26.7408 4.83733 0.336219 0
M  V30 354 N 28.0839 -0.256276 1.55502 0
M  V30 355 C 29.0139 -1.32102 1.92539 0
M  V30 356 C 29.9949 -1.50684 0.789194 0
M  V30 357 O 31.1799 -1.63449 1.04872 0
M  V30 358 C 28.3099 -2.67752 2.21192 0
M  V30 359 C 27.2639 -2.63878 3.36975 0
M  V30 360 C 26.5899 -4.03236 3.51147 0
M  V30 361 C 27.8899 -2.21682 4.72921 0
M  V30 362 H 29.5839 -1.01351 2.81724 0
M  V30 363 H 27.1299 -0.486105 1.35547 0
M  V30 364 H 29.0829 -3.42365 2.45691 0
M  V30 365 H 27.8069 -3.0012 1.28824 0
M  V30 366 H 26.4659 -1.91722 3.12471 0
M  V30 367 H 26.1139 -4.32854 2.56216 0
M  V30 368 H 25.8139 -4.01535 4.29003 0
M  V30 369 H 27.3379 -4.79563 3.77957 0
M  V30 370 H 28.7519 -2.86023 4.96854 0
M  V30 371 H 27.1489 -2.3111 5.53812 0
M  V30 372 H 28.2189 -1.16833 4.70615 0
M  V30 373 N 29.562 -1.4872 -0.521534 0
M  V30 374 C 30.495 -1.58451 -1.64221 0
M  V30 375 C 31.473 -0.434513 -1.56687 0
M  V30 376 O 32.657 -0.647275 -1.77038 0
M  V30 377 C 29.784 -1.52037 -3.02659 0
M  V30 378 C 28.83 -2.71981 -3.28525 0
M  V30 379 S 29.663 -4.33869 -3.13876 0
M  V30 380 C 30.819 -4.30067 -4.54745 0
M  V30 381 H 31.052 -2.53256 -1.55719 0
M  V30 382 H 28.585 -1.37358 -0.705143 0
M  V30 383 H 30.543 -1.49023 -3.82495 0
M  V30 384 H 29.204 -0.585541 -3.08594 0
M  V30 385 H 28.397 -2.63656 -4.29536 0
M  V30 386 H 27.999 -2.72302 -2.56374 0
M  V30 387 H 30.291 -4.00521 -5.46433 0
M  V30 388 H 31.234 -5.31287 -4.68123 0
M  V30 389 H 31.642 -3.60419 -4.34463 0
M  V30 390 N 31.0401 0.771051 -1.3745 0
M  V30 391 C 31.9701 1.89827 -1.3597 0
M  V30 392 C 32.9511 1.68562 -0.228216 0
M  V30 393 O 34.1361 1.8941 -0.428675 0
M  V30 394 C 31.2661 3.2712 -1.16662 0
M  V30 395 C 30.2201 3.6295 -2.2683 0
M  V30 396 C 29.5461 4.98791 -1.92644 0
M  V30 397 C 30.8461 3.69627 -3.69017 0
M  V30 398 H 32.5401 1.91323 -2.30295 0
M  V30 399 H 30.0861 0.919082 -1.10855 0
M  V30 400 H 32.0391 4.05615 -1.14256 0
M  V30 401 H 30.7631 3.26059 -0.187926 0
M  V30 402 H 29.4221 2.86763 -2.28392 0
M  V30 403 H 29.0701 4.94271 -0.933021 0
M  V30 404 H 28.7701 5.23733 -2.66416 0
M  V30 405 H 30.2941 5.79685 -1.91826 0
M  V30 406 H 31.7081 4.38273 -3.69581 0
M  V30 407 H 30.1051 4.06067 -4.41848 0
M  V30 408 H 31.1751 2.70273 -4.02592 0
M  V30 409 N 32.5182 1.22032 0.997298 0
M  V30 410 C 33.7662 1.04016 1.73278 0
M  V30 411 C 34.0872 -0.426255 1.90284 0
M  V30 412 O 33.3572 -1.30694 1.45931 0
M  V30 413 H 31.9372 0.381897 0.642 0
M  V30 414 H 34.5992 1.5347 1.20137 0
M  V30 415 H 33.6952 1.51441 2.72896 0
M  V30 416 N 33.9963 -1.19345 1.0293 0
M  V30 417 C 34.9263 -2.2481 0.631105 0
M  V30 418 C 35.9073 -1.66245 -0.360104 0
M  V30 419 O 37.0923 -1.92677 -0.242726 0
M  V30 420 C 34.2223 -3.47295 -0.0184607 0
M  V30 421 C 33.1763 -4.18536 0.895073 0
M  V30 422 C 32.5023 -5.34586 0.110592 0
M  V30 423 C 33.8023 -4.73287 2.209 0
M  V30 424 H 35.4963 -2.58372 1.51275 0
M  V30 425 H 33.0423 -1.24194 0.728818 0
M  V30 426 H 34.9953 -4.20268 -0.308675 0
M  V30 427 H 33.7193 -3.12933 -0.934907 0
M  V30 428 H 32.3783 -3.47446 1.16949 0
M  V30 429 H 32.0263 -4.96469 -0.807902 0
M  V30 430 H 31.7263 -5.83183 0.719087 0
M  V30 431 H 33.2503 -6.10355 -0.172871 0
M  V30 432 H 34.6643 -5.38013 1.98028 0
M  V30 433 H 33.0613 -5.32373 2.76946 0
M  V30 434 H 34.1313 -3.91331 2.86336 0
M  V30 435 N 35.4744 -0.807222 -1.35358 0
M  V30 436 C 36.7514 -0.311126 -1.9311 0
M  V30 437 C 37.1314 1.19937 -1.73719 0
M  V30 438 O 36.4794 1.99918 -1.10657 0
M  V30 439 C 36.6894 -0.723226 -3.41424 0
M  V30 440 C 38.0374 -0.713078 -4.18569 0
M  V30 441 O 39.0614 -0.664811 -3.49941 0
M  V30 442 O 37.9204 -0.772022 -5.41019 0
M  V30 443 H 35.0144 -0.081526 -0.822972 0
M  V30 444 H 37.5604 -0.890962 -1.4443 0
M  V30 445 H 36.3324 -1.76426 -3.4927 0
M  V30 446 H 35.9554 -0.118232 -3.97424 0
M  V30 447 N 36.9525 1.47285 -0.560781 0
M  V30 448 C 37.9005 2.31756 0.197942 0
M  V30 449 C 38.8945 1.43146 0.905854 0
M  V30 450 O 40.1005 1.59891 0.826733 0
M  V30 451 H 36.4755 0.747438 0.0827049 0
M  V30 452 H 38.4465 2.9359 -0.533629 0
M  V30 453 C 37.1955 3.25874 1.21249 0
M  V30 454 H 36.5185 3.94023 0.67719 0
M  V30 455 H 37.9585 3.87803 1.71419 0
M  V30 456 C 36.4175 2.49651 2.26221 0
M  V30 457 O 36.9475 2.24355 3.33208 0
M  V30 458 N 35.1535 2.10597 2.00243 0
M  V30 459 H 34.7005 2.31369 1.13252 0
M  V30 460 H 34.6585 1.59913 2.70694 0
M  V30 461 N 38.4306 0.297415 1.54768 0
M  V30 462 C 39.3936 -0.567375 2.22066 0
M  V30 463 C 40.3936 -1.06409 1.20556 0
M  V30 464 O 41.5836 -0.960691 1.45315 0
M  V30 465 C 38.7156 -1.78517 2.90421 0
M  V30 466 H 39.9086 0.0205534 2.99893 0
M  V30 467 H 37.4616 0.0482163 1.56226 0
M  V30 468 H 38.1966 -2.41303 2.16664 0
M  V30 469 H 37.9816 -1.43669 3.64831 0
M  V30 470 H 39.4716 -2.39964 3.41771 0
M  V30 471 N 39.9087 -1.5758 0.0250728 0
M  V30 472 C 41.1567 -1.91255 -0.653151 0
M  V30 473 C 41.4777 -0.901691 -1.729 0
M  V30 474 O 40.7477 0.0573785 -1.95816 0
M  V30 475 H 39.3277 -0.705942 -0.244243 0
M  V30 476 H 41.9897 -1.94767 0.0719209 0
M  V30 477 H 41.0857 -2.91752 -1.10847 0
M  V30 478 N 41.3868 0.248026 -1.55636 0
M  V30 479 C 42.3338 1.30707 -1.90222 0
M  V30 480 C 43.3038 1.47881 -0.756332 0
M  V30 481 O 44.4888 1.61883 -1.00988 0
M  V30 482 C 41.6288 2.65769 -2.20138 0
M  V30 483 C 40.7418 2.56612 -3.47526 0
M  V30 484 C 39.8768 3.8402 -3.67017 0
M  V30 485 C 38.9158 3.69476 -4.8801 0
M  V30 486 N 38.0528 4.88774 -5.04029 0
M  V30 487 H 42.8928 1.00512 -2.80538 0
M  V30 488 H 40.4298 0.485055 -1.38873 0
M  V30 489 H 42.3878 3.44386 -2.35487 0
M  V30 490 H 41.0178 2.94115 -1.33027 0
M  V30 491 H 40.0698 1.69571 -3.40514 0
M  V30 492 H 41.3818 2.41774 -4.36287 0
M  V30 493 H 40.5358 4.7108 -3.8232 0
M  V30 494 H 39.2748 4.01754 -2.76487 0
M  V30 495 H 38.2798 2.80799 -4.72686 0
M  V30 496 H 39.5048 3.53238 -5.8 0
M  V30 497 H 37.4508 5.0687 -4.16435 0
M  V30 498 H 37.3678 4.76562 -5.86877 0
M  V30 499 H 38.6358 5.77335 -5.23741 0
M  V30 500 N 42.8649 1.48995 0.513639 0
M  V30 501 C 44.0929 1.61531 1.29288 0
M  V30 502 C 44.5079 0.281801 1.86685 0
M  V30 503 O 43.8649 -0.731111 1.67215 0
M  V30 504 C 43.9159 2.67449 2.43215 0
M  V30 505 O 43.6369 3.95626 1.88179 0
M  V30 506 C 45.1379 2.90575 3.34785 0
M  V30 507 H 42.3579 0.544165 0.392588 0
M  V30 508 H 44.9019 1.9494 0.617956 0
M  V30 509 H 43.0569 2.36853 3.0656 0
M  V30 510 H 43.4709 4.53868 2.62876 0
M  V30 511 H 44.9449 3.68449 4.11035 0
M  V30 512 H 45.4219 2.00011 3.91015 0
M  V30 513 H 46.0279 3.22538 2.77218 0
M  V30 514 N 44.343 -0.763751 1.37857 0
M  V30 515 C 45.571 -1.55293 1.36718 0
M  V30 516 C 45.986 -1.88745 -0.0455434 0
M  V30 517 O 45.343 -1.52039 -1.00947 0
M  V30 518 C 45.394 -2.85831 2.2132 0
M  V30 519 O 45.115 -2.5381 3.57089 0
M  V30 520 C 46.616 -3.80023 2.28249 0
M  V30 521 H 43.836 -0.480841 0.468009 0
M  V30 522 H 46.38 -0.946009 1.81303 0
M  V30 523 H 44.535 -3.42926 1.80223 0
M  V30 524 H 44.949 -3.37459 4.01524 0
M  V30 525 H 46.423 -4.68599 2.91752 0
M  V30 526 H 46.9 -4.1973 1.2932 0
M  V30 527 H 47.506 -3.28855 2.69693 0
M  V30 528 N 45.8211 -1.22559 -0.990812 0
M  V30 529 C 47.0701 -1.04553 -1.72486 0
M  V30 530 C 47.3831 0.419349 -1.91052 0
M  V30 531 O 48.5891 0.719121 -2.61803 0
M  V30 532 C 47.0451 -1.82231 -3.10355 0
M  V30 533 C 46.6531 -3.32981 -2.99713 0
M  V30 534 C 48.3971 -1.7268 -3.87791 0
M  V30 535 C 46.3041 -4.03091 -4.32748 0
M  V30 536 H 45.2341 -0.387614 -0.646739 0
M  V30 537 H 47.8851 -1.46429 -1.10593 0
M  V30 538 H 46.2671 -1.33155 -3.72942 0
M  V30 539 H 47.4411 -3.89466 -2.46278 0
M  V30 540 H 45.7561 -3.43231 -2.35758 0
M  V30 541 H 48.3531 -2.22381 -4.86262 0
M  V30 542 H 48.6961 -0.687607 -4.10582 0
M  V30 543 H 49.2291 -2.1931 -3.31885 0
M  V30 544 H 45.9681 -5.07273 -4.15156 0
M  V30 545 H 45.4881 -3.51394 -4.86089 0
M  V30 546 H 47.1671 -4.08804 -5.01486 0
M  V30 547 N 47.2992 1.18797 -1.03562 0
M  V30 548 C 48.2292 2.24472 -0.643019 0
M  V30 549 C 49.2102 1.66433 0.351283 0
M  V30 550 O 50.3952 1.92803 0.232505 0
M  V30 551 C 47.5252 3.473 4.24935e-05 0
M  V30 552 C 46.4792 4.18055 -0.917257 0
M  V30 553 C 45.8052 5.34519 -0.138941 0
M  V30 554 C 47.1052 4.72109 -2.23407 0
M  V30 555 H 48.7992 2.57566 -1.52643 0
M  V30 556 H 46.3452 1.23806 -0.735394 0
M  V30 557 H 48.2982 4.20426 0.286383 0
M  V30 558 H 47.0222 3.13424 0.918299 0
M  V30 559 H 45.6812 3.46821 -1.1879 0
M  V30 560 H 45.3292 4.96891 0.781562 0
M  V30 561 H 45.0292 5.82794 -0.750005 0
M  V30 562 H 46.5532 6.10438 0.1405 0
M  V30 563 H 47.9672 5.36955 -2.00879 0
M  V30 564 H 46.3642 5.30897 -2.79765 0
M  V30 565 H 47.4342 3.89807 -2.88407 0
M  V30 566 N 48.7773 0.814389 1.34928 0
M  V30 567 C 49.7243 0.22822 2.29669 0
M  V30 568 C 50.6943 -0.642164 1.53184 0
M  V30 569 O 51.8793 -0.585605 1.81591 0
M  V30 570 C 49.0193 -0.61089 3.3965 0
M  V30 571 C 48.1323 0.280792 4.31086 0
M  V30 572 C 47.2673 -0.567067 5.28165 0
M  V30 573 C 46.3063 0.324531 6.11239 0
M  V30 574 N 45.4433 -0.483756 7.00431 0
M  V30 575 H 50.2833 1.04153 2.79206 0
M  V30 576 H 47.8203 0.525133 1.37407 0
M  V30 577 H 49.7783 -1.11263 4.0209 0
M  V30 578 H 48.4083 -1.38939 2.91369 0
M  V30 579 H 47.4603 0.900688 3.69583 0
M  V30 580 H 48.7723 0.966723 4.89342 0
M  V30 581 H 47.9263 -1.13363 5.96015 0
M  V30 582 H 46.6653 -1.28654 4.70425 0
M  V30 583 H 45.6703 0.903298 5.42329 0
M  V30 584 H 46.8953 1.04198 6.71059 0
M  V30 585 H 44.8413 -1.18706 6.45171 0
M  V30 586 H 44.7583 0.143965 7.55863 0
M  V30 587 H 46.0263 -1.03334 7.7262 0
M  V30 588 N 50.2554 -1.46986 0.568584 0
M  V30 589 C 51.2024 -2.30153 -0.172707 0
M  V30 590 C 52.1724 -1.39759 -0.897586 0
M  V30 591 O 53.3574 -1.68716 -0.891044 0
M  V30 592 C 50.4974 -3.23952 -1.1895 0
M  V30 593 C 49.6104 -4.29441 -0.469517 0
M  V30 594 C 48.7454 -5.1038 -1.47259 0
M  V30 595 C 47.7844 -6.07632 -0.738225 0
M  V30 596 N 46.9214 -6.8149 -1.68868 0
M  V30 597 H 51.7614 -2.93019 0.542596 0
M  V30 598 H 49.2984 -1.44422 0.279401 0
M  V30 599 H 51.2564 -3.76767 -1.79173 0
M  V30 600 H 49.8864 -2.62926 -1.87269 0
M  V30 601 H 48.9384 -3.79594 0.247467 0
M  V30 602 H 50.2504 -4.98689 0.105241 0
M  V30 603 H 49.4044 -5.67402 -2.14803 0
M  V30 604 H 48.1434 -4.4106 -2.08128 0
M  V30 605 H 47.1484 -5.49778 -0.0489293 0
M  V30 606 H 48.3734 -6.78966 -0.135129 0
M  V30 607 H 46.3194 -6.14891 -2.28573 0
M  V30 608 H 46.2364 -7.46948 -1.16636 0
M  V30 609 H 47.5044 -7.43078 -2.3549 0
M  V30 610 N 51.7335 -0.305618 -1.54608 0
M  V30 611 C 52.9805 0.302298 -2.00231 0
M  V30 612 C 53.3085 1.5354 -1.19398 0
M  V30 613 O 52.5635 1.93973 -0.259423 0
M  V30 614 C 52.8625 0.698983 -3.50498 0
M  V30 615 C 52.5285 -0.432903 -4.48817 0
M  V30 616 C 51.1905 -0.743622 -4.75419 0
M  V30 617 C 53.5425 -1.19409 -5.07337 0
M  V30 618 C 50.8705 -1.81857 -5.57804 0
M  V30 619 C 53.2225 -2.25899 -5.90891 0
M  V30 620 C 51.8865 -2.57572 -6.15803 0
M  V30 621 H 51.1565 0.110619 -0.732697 0
M  V30 622 H 53.8035 -0.425674 -1.86709 0
M  V30 623 H 52.1085 1.50711 -3.61654 0
M  V30 624 H 53.8055 1.1806 -3.83227 0
M  V30 625 H 50.3955 -0.18063 -4.28219 0
M  V30 626 H 54.5795 -0.967295 -4.86782 0
M  V30 627 H 49.8355 -2.06864 -5.75341 0
M  V30 628 H 54.0095 -2.85335 -6.35261 0
M  V30 629 H 51.6365 -3.40998 -6.7943 0
M  V30 630 N 53.2116 1.57565 -0.0334293 0
M  V30 631 C 54.1596 2.1164 0.96496 0
M  V30 632 C 55.1536 1.04398 1.33407 0
M  V30 633 O 56.3596 1.22828 1.3158 0
M  V30 634 H 52.7346 0.676222 0.32898 0
M  V30 635 H 54.7056 2.94455 0.483614 0
M  V30 636 C 53.4546 2.66207 2.23672 0
M  V30 637 H 52.7776 3.48378 1.96145 0
M  V30 638 H 54.2176 3.07685 2.9173 0
M  V30 639 C 52.6766 1.59151 2.96939 0
M  V30 640 O 53.2066 0.993858 3.89211 0
M  V30 641 N 51.4126 1.31093 2.59351 0
M  V30 642 H 50.9596 1.7988 1.84393 0
M  V30 643 H 50.9176 0.596889 3.08682 0
M  V30 644 N 54.6897 -0.239769 1.55765 0
M  V30 645 C 55.9377 -0.964892 1.77579 0
M  V30 646 C 56.2587 -1.85582 0.598699 0
M  V30 647 O 55.5287 -1.92075 -0.385226 0
M  V30 648 H 54.1087 -0.359265 0.654933 0
M  V30 649 H 56.7707 -0.256001 1.93211 0
M  V30 650 H 55.8667 -1.58243 2.69009 0
M  V30 651 N 56.1678 -1.49265 -0.50573 0
M  V30 652 C 57.0778 -1.68312 -1.63427 0
M  V30 653 C 58.0938 -0.565682 -1.64548 0
M  V30 654 O 59.2698 -0.839801 -1.83055 0
M  V30 655 C 56.3348 -1.74107 -2.99813 0
M  V30 656 C 55.3958 -2.97653 -3.09356 0
M  V30 657 C 54.6288 -3.03163 -4.39236 0
M  V30 658 O 54.8518 -2.16396 -5.27758 0
M  V30 659 O 53.7858 -3.9558 -4.53652 0
M  V30 660 H 57.6118 -2.63907 -1.50289 0
M  V30 661 H 55.1968 -1.32951 -0.681502 0
M  V30 662 H 57.0788 -1.803 -3.80881 0
M  V30 663 H 55.7538 -0.816901 -3.13223 0
M  V30 664 H 54.6608 -2.96981 -2.27493 0
M  V30 665 H 55.9938 -3.89535 -3.00871 0
M  V30 666 N 57.6459 0.756429 -1.3826 0
M  V30 667 C 58.9229 1.50584 -1.24835 0
M  V30 668 C 59.3029 2.10556 0.151485 0
M  V30 669 O 58.6509 1.96825 1.1607 0
M  V30 670 C 58.8609 2.57448 -2.3563 0
M  V30 671 C 60.2089 3.24429 -2.73917 0
M  V30 672 O 61.2329 2.67751 -2.34921 0
M  V30 673 O 60.0919 4.26937 -3.41156 0
M  V30 674 H 57.1859 0.667664 -0.48801 0
M  V30 675 H 59.7319 0.792083 -1.5008 0
M  V30 676 H 58.5039 2.11362 -3.29305 0
M  V30 677 H 58.1269 3.36408 -2.11933 0
M  V30 678 N 59.124 1.23083 0.984299 0
M  V30 679 C 60.373 1.05466 1.71929 0
M  V30 680 C 60.686 -0.409211 1.91272 0
M  V30 681 O 61.892 -0.705226 2.62181 0
M  V30 682 C 60.348 1.83874 3.09384 0
M  V30 683 C 59.956 3.34566 2.97943 0
M  V30 684 C 61.7 1.74734 3.8687 0
M  V30 685 C 59.607 4.05381 4.30605 0
M  V30 686 H 58.537 0.391039 0.644674 0
M  V30 687 H 61.188 1.47013 1.09815 0
M  V30 688 H 59.57 1.35131 3.72231 0
M  V30 689 H 60.744 3.90767 2.44209 0
M  V30 690 H 59.059 3.44476 2.33934 0
M  V30 691 H 61.656 2.24957 4.85076 0
M  V30 692 H 61.999 0.709372 4.10212 0
M  V30 693 H 62.532 2.21067 3.30717 0
M  V30 694 H 59.271 5.09467 4.1246 0
M  V30 695 H 58.791 3.53967 4.84218 0
M  V30 696 H 60.47 4.11458 4.99311 0
M  V30 697 N 60.6021 -1.18246 1.0419 0
M  V30 698 C 61.8791 -1.84121 0.660208 0
M  V30 699 C 62.2591 -1.92778 -0.860221 0
M  V30 700 O 61.6071 -1.45464 -1.76217 0
M  V30 701 C 61.8171 -3.22355 1.33747 0
M  V30 702 C 63.1651 -3.98376 1.46906 0
M  V30 703 O 64.1891 -3.31799 1.29568 0
M  V30 704 O 63.0481 -5.17665 1.75171 0
M  V30 705 H 60.1421 -0.794036 0.231161 0
M  V30 706 H 62.6881 -1.25628 1.14087 0
M  V30 707 H 61.4601 -3.10964 2.37522 0
M  V30 708 H 61.0831 -3.88506 0.845515 0
M  V30 709 N 62.0802 -0.821533 -1.34494 0
M  V30 710 C 63.3082 -0.421884 -2.02553 0
M  V30 711 C 63.7232 0.971745 -1.61872 0
M  V30 712 O 63.0802 1.62864 -0.823496 0
M  V30 713 C 63.1312 -0.51285 -3.57844 0
M  V30 714 O 62.8522 -1.85155 -3.97051 0
M  V30 715 C 64.3532 -0.107921 -4.43169 0
M  V30 716 H 61.5732 -0.169482 -0.649243 0
M  V30 717 H 64.1172 -1.1093 -1.71798 0
M  V30 718 H 62.2722 0.126474 -3.87193 0
M  V30 719 H 62.6862 -1.82482 -4.91732 0
M  V30 720 H 64.1602 -0.222657 -5.51551 0
M  V30 721 H 64.6372 0.948401 -4.28838 0
M  V30 722 H 65.2432 -0.720989 -4.19144 0
M  V30 723 N 63.5583 1.46682 -0.576371 0
M  V30 724 C 64.8073 2.01619 -0.0572825 0
M  V30 725 C 65.1203 1.45417 1.30818 0
M  V30 726 O 66.3263 1.92133 1.91825 0
M  V30 727 C 64.7823 3.59863 -0.0518371 0
M  V30 728 C 64.3903 4.25059 -1.41523 0
M  V30 729 C 66.1343 4.2248 0.413639 0
M  V30 730 C 64.0413 5.75364 -1.36785 0
M  V30 731 H 62.9713 0.753794 -0.0176448 0
M  V30 732 H 65.6223 1.68481 -0.727076 0
M  V30 733 H 64.0043 3.90048 0.683994 0
M  V30 734 H 65.1783 4.06491 -2.17029 0
M  V30 735 H 63.4933 3.7451 -1.8202 0
M  V30 736 H 66.0903 5.3265 0.467779 0
M  V30 737 H 66.4333 3.90976 1.42982 0
M  V30 738 H 66.9663 3.96897 -0.267929 0
M  V30 739 H 63.7053 6.11518 -2.36063 0
M  V30 740 H 63.2253 5.96214 -0.654895 0
M  V30 741 H 64.9043 6.37955 -1.07805 0
M  V30 742 N 65.0364 0.313813 1.54444 0
M  V30 743 C 66.2614 -0.296681 2.05267 0
M  V30 744 C 66.6864 -1.45757 1.18897 0
M  V30 745 O 66.0444 -1.80239 0.195886 0
M  V30 746 C 66.0924 -0.71831 3.53373 0
M  V30 747 O 65.1964 -1.82175 3.69981 0
M  V30 748 H 64.5374 -0.0554061 0.661684 0
M  V30 749 H 67.0674 0.459387 1.99376 0
M  V30 750 H 67.0774 -1.00364 3.95463 0
M  V30 751 H 65.7524 0.130821 4.15694 0
M  V30 752 H 64.3294 -1.53598 3.39797 0
M  V30 753 N 66.5145 -1.57545 0.0417849 0
M  V30 754 C 67.9255 -1.80011 -0.495259 0
M  V30 755 C 68.2765 -0.953199 -1.71489 0
M  V30 756 O 67.4015 -0.167138 -2.15754 0
M  V30 757 C 67.9965 -3.26482 -0.905265 0
M  V30 758 C 66.5555 -3.499 -1.38734 0
M  V30 759 C 65.7025 -2.74979 -0.358056 0
M  V30 760 H 68.6535 -1.56425 0.267736 0
M  V30 761 H 68.6745 -3.36887 -1.76882 0
M  V30 762 H 68.1865 -3.88096 -0.017401 0
M  V30 763 H 66.2875 -2.93553 -2.29471 0
M  V30 764 H 66.4005 -4.58615 -1.38598 0
M  V30 765 H 64.7645 -2.40834 -0.828912 0
M  V30 766 H 65.5475 -3.39315 0.521561 0
M  V30 767 N 67.9926 0.231505 -1.5589 0
M  V30 768 C 69.2206 0.974505 -1.82513 0
M  V30 769 C 69.6356 1.78344 -0.619591 0
M  V30 770 O 68.9926 1.77792 0.411848 0
M  V30 771 C 69.0436 1.90007 -3.07538 0
M  V30 772 O 68.7646 1.12385 -4.2344 0
M  V30 773 C 70.2656 2.75779 -3.47075 0
M  V30 774 H 67.4856 0.286065 -0.606966 0
M  V30 775 H 70.0296 0.249739 -2.02969 0
M  V30 776 H 68.1846 2.57891 -2.89086 0
M  V30 777 H 68.5986 1.75125 -4.944 0
M  V30 778 H 70.0726 3.36443 -4.37619 0
M  V30 779 H 70.5496 3.47672 -2.68367 0
M  V30 780 H 71.1556 2.13323 -3.67931 0
M  V30 781 N 69.4707 1.49531 0.497807 0
M  V30 782 C 70.4007 1.6935 1.60757 0
M  V30 783 C 71.3817 0.542218 1.61227 0
M  V30 784 O 72.5667 0.778417 1.77917 0
M  V30 785 C 69.6967 1.76298 2.99226 0
M  V30 786 C 68.6507 2.91248 3.13622 0
M  V30 787 C 67.9767 2.83312 4.53474 0
M  V30 788 C 69.2767 4.3214 2.93346 0
M  V30 789 H 70.9707 2.62263 1.44425 0
M  V30 790 H 68.5167 1.26208 0.693367 0
M  V30 791 H 70.4697 1.88749 3.76765 0
M  V30 792 H 69.1937 0.799871 3.16654 0
M  V30 793 H 67.8527 2.78404 2.38509 0
M  V30 794 H 67.5007 1.84902 4.67782 0
M  V30 795 H 67.2007 3.60465 4.64046 0
M  V30 796 H 68.7247 2.97775 5.33069 0
M  V30 797 H 70.1387 4.45649 3.60652 0
M  V30 798 H 68.5357 5.1054 3.15387 0
M  V30 799 H 69.6057 4.46363 1.89441 0
M  V30 800 N 70.9488 -0.749086 1.3866 0
M  V30 801 C 72.1968 -1.50535 1.34847 0
M  V30 802 C 72.5178 -1.94909 -0.0595016 0
M  V30 803 O 71.7878 -1.67973 -1.00806 0
M  V30 804 H 70.3678 -0.558395 0.49619 0
M  V30 805 H 73.0298 -0.890165 1.73384 0
M  V30 806 H 72.1258 -2.39413 2.00219 0
M  V30 807 N 72.4269 -1.23603 -0.977757 0
M  V30 808 C 73.6739 -1.06971 -1.71941 0
M  V30 809 C 74.0019 0.393009 -1.90488 0
M  V30 810 O 73.2569 1.30719 -1.4564 0
M  V30 811 C 73.5559 -1.7433 -3.11999 0
M  V30 812 C 73.2219 -3.24252 -3.13323 0
M  V30 813 C 71.8839 -3.65156 -3.13392 0
M  V30 814 C 74.2359 -4.20141 -3.08433 0
M  V30 815 C 71.5639 -5.00403 -3.0629 0
M  V30 816 C 73.9159 -5.55384 -3.02873 0
M  V30 817 C 72.5799 -5.95647 -3.01265 0
M  V30 818 H 71.8499 -0.391433 -0.629175 0
M  V30 819 H 74.4969 -1.53572 -1.14403 0
M  V30 820 H 72.8019 -1.20096 -3.7294 0
M  V30 821 H 74.4989 -1.58936 -3.68158 0
M  V30 822 H 71.0889 -2.91692 -3.14029 0
M  V30 823 H 75.2729 -3.89547 -3.07517 0
M  V30 824 H 70.5289 -5.3081 -3.03399 0
M  V30 825 H 74.7029 -6.29398 -2.98046 0
M  V30 826 H 72.3299 -7.0041 -2.95516 0
M  V30 827 N 73.905 1.17692 -1.04816 0
M  V30 828 C 74.853 2.23632 -0.63966 0
M  V30 829 C 75.847 1.6601 0.337219 0
M  V30 830 O 77.053 1.78844 0.203693 0
M  V30 831 H 73.428 0.727949 -0.188665 0
M  V30 832 H 75.399 2.55387 -1.54337 0
M  V30 833 C 74.148 3.4769 -0.0264051 0
M  V30 834 H 73.471 3.92331 -0.769164 0
M  V30 835 H 74.911 4.23418 0.222098 0
M  V30 836 C 73.37 3.13807 1.22584 0
M  V30 837 O 73.9 3.28236 2.31569 0
M  V30 838 N 72.106 2.68065 1.12202 0
M  V30 839 H 71.653 2.56525 0.235133 0
M  V30 840 H 71.611 2.45767 1.96076 0
M  V30 841 N 75.3831 0.828654 1.34056 0
M  V30 842 C 76.6321 0.415828 1.97367 0
M  V30 843 C 76.9451 -1.02796 1.6641 0
M  V30 844 O 78.1511 -1.54497 2.23255 0
M  V30 845 C 76.6071 0.692601 3.53173 0
M  V30 846 C 76.2151 2.15038 3.93017 0
M  V30 847 C 77.9591 0.346222 4.23086 0
M  V30 848 C 75.8661 2.37174 5.41758 0
M  V30 849 H 74.7961 0.151755 0.738571 0
M  V30 850 H 77.4471 1.01581 1.52819 0
M  V30 851 H 75.8291 0.0223764 3.95994 0
M  V30 852 H 77.0031 2.86024 3.61285 0
M  V30 853 H 75.3181 2.45875 3.36057 0
M  V30 854 H 77.9151 0.48937 5.32456 0
M  V30 855 H 78.2581 -0.709842 4.10204 0
M  V30 856 H 78.7911 0.971258 3.85761 0
M  V30 857 H 75.5301 3.41308 5.59633 0
M  V30 858 H 75.0501 1.70738 5.74986 0
M  V30 859 H 76.7291 2.19818 6.08514 0
M  V30 860 N 76.8612 -1.46375 0.584142 0
M  V30 861 C 77.8082 -2.30323 -0.148286 0
M  V30 862 C 78.7782 -1.40703 -0.882713 0
M  V30 863 O 79.9632 -1.69651 -0.873099 0
M  V30 864 C 77.1032 -3.25196 -1.15507 0
M  V30 865 C 76.2162 -4.29915 -0.423943 0
M  V30 866 C 75.3512 -5.11914 -1.41838 0
M  V30 867 C 74.3902 -6.08381 -0.673736 0
M  V30 868 N 73.5272 -6.83242 -1.6163 0
M  V30 869 H 78.3672 -2.92427 0.573644 0
M  V30 870 H 75.9042 -1.44118 0.294703 0
M  V30 871 H 77.8622 -3.78646 -1.75166 0
M  V30 872 H 76.4922 -2.64898 -1.8447 0
M  V30 873 H 75.5442 -3.7931 0.287714 0
M  V30 874 H 76.8562 -4.98549 0.158128 0
M  V30 875 H 76.0102 -5.69648 -2.08773 0
M  V30 876 H 74.7492 -4.43243 -2.03438 0
M  V30 877 H 73.7542 -5.49799 0.00938483 0
M  V30 878 H 74.9792 -6.79071 -0.0631082 0
M  V30 879 H 72.9252 -6.1728 -2.22038 0
M  V30 880 H 72.8422 -7.48144 -1.08707 0
M  V30 881 H 74.1102 -7.45534 -2.27596 0
M  V30 882 N 78.3393 -0.321999 -1.54275 0
M  V30 883 C 79.5673 0.283052 -2.04955 0
M  V30 884 C 79.9823 1.45904 -1.19823 0
M  V30 885 O 79.3393 1.81063 -0.228545 0
M  V30 886 C 79.3903 0.719028 -3.54277 0
M  V30 887 O 79.1113 -0.410175 -4.36176 0
M  V30 888 C 80.6123 1.38705 -4.21041 0
M  V30 889 H 77.8323 0.0584616 -0.668448 0
M  V30 890 H 80.3763 -0.467734 -1.99079 0
M  V30 891 H 78.5313 1.41979 -3.60445 0
M  V30 892 H 78.9453 -0.0669416 -5.24457 0
M  V30 893 H 80.4193 1.64306 -5.2698 0
M  V30 894 H 80.8963 2.33385 -3.72059 0
M  V30 895 H 81.5023 0.728906 -4.19007 0
M  V30 896 N 79.8174 1.5752 -0.0501392 0
M  V30 897 C 80.7474 2.14502 0.922566 0
M  V30 898 C 81.7284 1.06642 1.3252 0
M  V30 899 O 82.9134 1.34577 1.4001 0
M  V30 900 C 80.0434 2.68916 2.19776 0
M  V30 901 C 78.9974 3.8175 1.93523 0
M  V30 902 C 78.3234 4.22677 3.27487 0
M  V30 903 C 79.6234 5.06932 1.25765 0
M  V30 904 H 81.3174 2.9603 0.447952 0
M  V30 905 H 78.8634 1.42401 0.214024 0
M  V30 906 H 80.8164 3.07419 2.88222 0
M  V30 907 H 79.5404 1.84578 2.69441 0
M  V30 908 H 78.1994 3.43718 1.27489 0
M  V30 909 H 77.8474 3.35291 3.74952 0
M  V30 910 H 77.5474 4.98725 3.1072 0
M  V30 911 H 79.0714 4.63779 3.97166 0
M  V30 912 H 80.4854 5.42888 1.84244 0
M  V30 913 H 78.8824 5.88116 1.19328 0
M  V30 914 H 79.9524 4.84337 0.233536 0
M  V30 915 N 81.2955 -0.223234 1.56011 0
M  V30 916 C 82.2055 -1.29766 1.95443 0
M  V30 917 C 83.2215 -1.51373 0.858028 0
M  V30 918 O 84.3975 -1.64536 1.16146 0
M  V30 919 C 81.4625 -2.62772 2.26167 0
M  V30 920 C 80.5235 -2.49482 3.49367 0
M  V30 921 C 79.7565 -3.76145 3.78616 0
M  V30 922 O 79.9795 -4.79087 3.09568 0
M  V30 923 O 78.9135 -3.73358 4.72109 0
M  V30 924 H 82.7395 -0.99309 2.87004 0
M  V30 925 H 80.3245 -0.425958 1.43199 0
M  V30 926 H 82.2065 -3.41327 2.47131 0
M  V30 927 H 80.8815 -2.92913 1.37781 0
M  V30 928 H 79.7885 -1.69133 3.33684 0
M  V30 929 H 81.1215 -2.2428 4.38131 0
M  V30 930 N 82.7736 -1.49793 -0.48987 0
M  V30 931 C 83.7236 -1.63673 -1.5873 0
M  V30 932 C 84.7076 -0.491956 -1.53195 0
M  V30 933 O 85.8996 -0.745461 -1.60536 0
M  V30 934 C 83.0286 -1.71689 -2.97284 0
M  V30 935 C 82.1146 -2.91781 -3.07774 0
M  V30 936 N 82.5056 -4.15714 -2.88124 0
M  V30 937 C 80.8036 -2.89949 -3.38889 0
M  V30 938 C 81.5046 -4.965 -3.03088 0
M  V30 939 N 80.4806 -4.30083 -3.3246 0
M  V30 940 H 84.2826 -2.57204 -1.42208 0
M  V30 941 H 81.7966 -1.46719 -0.69623 0
M  V30 942 H 83.7936 -1.79732 -3.76168 0
M  V30 943 H 82.4536 -0.793024 -3.14867 0
M  V30 944 H 83.4646 -4.45515 -2.64077 0
M  V30 945 H 80.1416 -2.06987 -3.62578 0
M  V30 946 H 81.5316 -6.04991 -2.92294 0
M  V30 947 N 84.2517 0.741722 -1.39055 0
M  V30 948 C 85.6677 1.04638 -1.20512 0
M  V30 949 C 85.8677 2.01405 -0.0620218 0
M  V30 950 O 84.9237 2.45547 0.588457 0
M  V30 951 C 86.2367 1.6151 -2.53643 0
M  V30 952 C 87.7847 1.73623 -2.6043 0
M  V30 953 C 88.2597 2.33906 -3.93767 0
M  V30 954 N 89.7507 2.41323 -3.9537 0
M  V30 955 C 90.4857 2.88888 -4.95309 0
M  V30 956 N 89.9817 3.36401 -6.05645 0
M  V30 957 N 91.7747 2.88037 -4.82692 0
M  V30 958 H 83.9257 0.0998155 -2.12165 0
M  V30 959 H 86.1887 0.106907 -0.941953 0
M  V30 960 H 85.8947 0.978739 -3.37807 0
M  V30 961 H 85.7687 2.60411 -2.72885 0
M  V30 962 H 88.1557 2.36384 -1.76655 0
M  V30 963 H 88.2367 0.733945 -2.45045 0
M  V30 964 H 87.8807 1.71776 -4.7797 0
M  V30 965 H 87.8107 3.34799 -4.06469 0
M  V30 966 H 90.3017 2.07734 -3.15682 0
M  V30 967 H 90.6147 3.71186 -6.77821 0
M  V30 968 H 88.9597 3.34427 -6.09248 0
M  V30 969 H 92.1507 2.50237 -3.95599 0
M  V30 970 H 92.3237 3.24792 -5.60726 0
M  V30 971 N 85.7298 1.2412 0.971189 0
M  V30 972 C 86.9778 1.07668 1.71032 0
M  V30 973 C 87.2988 -0.385797 1.91146 0
M  V30 974 O 86.5688 -1.27569 1.4867 0
M  V30 975 H 85.1488 0.395429 0.633755 0
M  V30 976 H 87.8108 1.55984 1.16855 0
M  V30 977 H 86.9068 1.57195 2.69622 0
M  V30 978 N 87.2079 -1.17134 1.05439 0
M  V30 979 C 88.4549 -1.87456 0.765942 0
M  V30 980 C 88.7829 -1.81189 -0.707153 0
M  V30 981 O 88.0379 -1.21633 -1.5331 0
M  V30 982 C 88.3369 -3.36833 1.19491 0
M  V30 983 C 88.0029 -3.63301 2.67063 0
M  V30 984 C 86.6649 -3.70234 3.07376 0
M  V30 985 C 89.0169 -3.74575 3.62413 0
M  V30 986 C 86.3449 -3.85933 4.41896 0
M  V30 987 C 88.6969 -3.91793 4.9667 0
M  V30 988 C 87.3609 -3.96966 5.36633 0
M  V30 989 H 86.6309 -0.685948 0.280278 0
M  V30 990 H 89.2779 -1.38556 1.32192 0
M  V30 991 H 87.5829 -3.87807 0.557969 0
M  V30 992 H 89.2799 -3.89611 0.948893 0
M  V30 993 H 85.8699 -3.58532 2.34846 0
M  V30 994 H 90.0539 -3.68537 3.32406 0
M  V30 995 H 85.3099 -3.88187 4.72357 0
M  V30 996 H 89.4839 -3.99458 5.70444 0
M  V30 997 H 87.1109 -4.08883 6.40874 0
M  V30 998 N 88.686 -0.835752 -1.33615 0
M  V30 999 C 89.633 -0.26473 -2.29277 0
M  V30 1000 C 90.603 0.617712 -1.54187 0
M  V30 1001 O 91.788 0.556641 -1.825 0
M  V30 1002 C 88.928 0.556777 -3.40579 0
M  V30 1003 C 88.041 -0.349339 -4.30585 0
M  V30 1004 C 87.176 0.482969 -5.29 0
M  V30 1005 C 86.215 -0.421732 -6.10645 0
M  V30 1006 N 85.352 0.372262 -7.01112 0
M  V30 1007 H 90.192 -1.08582 -2.77514 0
M  V30 1008 H 87.729 -0.546927 -1.36554 0
M  V30 1009 H 89.687 1.04852 -4.03809 0
M  V30 1010 H 88.317 1.34286 -2.93542 0
M  V30 1011 H 87.369 -0.959372 -3.68104 0
M  V30 1012 H 88.681 -1.04445 -4.87742 0
M  V30 1013 H 87.835 1.03866 -5.97743 0
M  V30 1014 H 86.574 1.21153 -4.72412 0
M  V30 1015 H 85.579 -0.989464 -5.40823 0
M  V30 1016 H 86.804 -1.14861 -6.69316 0
M  V30 1017 H 84.75 1.08426 -6.46977 0
M  V30 1018 H 84.667 -0.264198 -7.55538 0
M  V30 1019 H 85.935 0.910293 -7.74167 0
M  V30 1020 N 90.1641 1.46063 -0.591896 0
M  V30 1021 C 91.0941 2.33172 0.123673 0
M  V30 1022 C 92.0751 1.45897 0.87453 0
M  V30 1023 O 93.2601 1.74698 0.848181 0
M  V30 1024 C 90.3901 3.28336 1.13194 0
M  V30 1025 C 89.3441 4.25124 0.495324 0
M  V30 1026 C 88.6701 5.09863 1.61071 0
M  V30 1027 C 89.9701 5.19143 -0.573425 0
M  V30 1028 H 91.6641 2.93252 -0.603646 0
M  V30 1029 H 89.2101 1.41014 -0.291741 0
M  V30 1030 H 91.1631 3.88137 1.64097 0
M  V30 1031 H 89.8871 2.66383 1.88965 0
M  V30 1032 H 88.5461 3.66599 0.00729452 0
M  V30 1033 H 88.1941 4.44288 2.35832 0
M  V30 1034 H 87.8941 5.75417 1.19035 0
M  V30 1035 H 89.4181 5.72529 2.12233 0
M  V30 1036 H 90.8321 5.73106 -0.1491 0
M  V30 1037 H 89.2291 5.93089 -0.914636 0
M  V30 1038 H 90.2991 4.62519 -1.45617 0
M  V30 1039 N 91.6422 0.330177 1.54103 0
M  V30 1040 C 92.5902 -0.548226 2.26047 0
M  V30 1041 C 93.5842 -1.11309 1.27698 0
M  V30 1042 O 94.7902 -1.06036 1.45452 0
M  V30 1043 H 91.1652 -0.195456 0.726155 0
M  V30 1044 H 93.1362 0.0807567 2.98291 0
M  V30 1045 C 91.8852 -1.69415 3.03634 0
M  V30 1046 H 91.2082 -1.26876 3.79134 0
M  V30 1047 H 92.6482 -2.28423 3.5721 0
M  V30 1048 C 91.1072 -2.61569 2.12328 0
M  V30 1049 O 91.6372 -3.63462 1.7105 0
M  V30 1050 N 89.8432 -2.29952 1.77681 0
M  V30 1051 H 89.3902 -1.47134 2.11446 0
M  V30 1052 H 89.3482 -2.91871 1.16869 0
M  V30 1053 N 93.1203 -1.57491 0.0584922 0
M  V30 1054 C 94.3693 -1.92155 -0.613146 0
M  V30 1055 C 94.6823 -0.939334 -1.71569 0
M  V30 1056 O 95.8883 -1.17829 -2.44599 0
M  V30 1057 C 94.3443 -3.41303 -1.14195 0
M  V30 1058 C 93.9523 -4.47944 -0.0711265 0
M  V30 1059 C 95.6963 -3.84988 -1.78841 0
M  V30 1060 C 93.6033 -5.88212 -0.613225 0
M  V30 1061 H 92.5333 -0.717162 -0.232796 0
M  V30 1062 H 95.1843 -1.83049 0.12857 0
M  V30 1063 H 93.5663 -3.45437 -1.93621 0
M  V30 1064 H 94.7403 -4.55408 0.702836 0
M  V30 1065 H 93.0553 -4.13644 0.478313 0
M  V30 1066 H 95.6523 -4.87159 -2.20408 0
M  V30 1067 H 95.9953 -3.21632 -2.64308 0
M  V30 1068 H 96.5283 -3.83401 -1.06059 0
M  V30 1069 H 93.2673 -6.55183 0.203978 0
M  V30 1070 H 92.7873 -5.84294 -1.35501 0
M  V30 1071 H 94.4663 -6.37687 -1.09383 0
M  V30 1072 N 94.5984 0.214957 -1.56127 0
M  V30 1073 C 95.8444 0.935325 -1.80619 0
M  V30 1074 C 96.1994 1.81706 -0.632507 0
M  V30 1075 O 95.4924 1.87931 0.373182 0
M  V30 1076 C 95.6864 1.80314 -3.0858 0
M  V30 1077 C 95.5154 1.00691 -4.38282 0
M  V30 1078 C 94.2854 0.699211 -5.00439 0
M  V30 1079 C 96.4834 0.369057 -5.12974 0
M  V30 1080 N 94.4654 -0.117734 -6.13787 0
M  V30 1081 C 95.8364 -0.310981 -6.1922 0
M  V30 1082 C 97.8914 0.282759 -4.97096 0
M  V30 1083 C 96.5944 -1.06907 -7.11311 0
M  V30 1084 C 98.6204 -0.461881 -5.89594 0
M  V30 1085 C 97.9824 -1.13044 -6.9527 0
M  V30 1086 H 94.0814 0.322307 -0.71249 0
M  V30 1087 H 96.6654 0.205649 -1.93611 0
M  V30 1088 H 94.8364 2.50458 -2.96859 0
M  V30 1089 H 96.5684 2.46148 -3.21237 0
M  V30 1090 H 93.3234 1.01884 -4.62511 0
M  V30 1091 H 93.7474 -0.515235 -6.75037 0
M  V30 1092 H 98.3894 0.785292 -4.15443 0
M  V30 1093 H 96.1074 -1.5831 -7.92442 0
M  V30 1094 H 99.6934 -0.529746 -5.79383 0
M  V30 1095 H 98.5734 -1.69742 -7.65609 0
M  V30 1096 N 96.0765 1.50051 0.48192 0
M  V30 1097 C 97.3535 1.51009 1.2432 0
M  V30 1098 C 97.7335 0.248587 2.09631 0
M  V30 1099 O 97.0815 -0.768409 2.15192 0
M  V30 1100 C 97.2915 2.79981 2.08355 0
M  V30 1101 C 98.6395 3.3022 2.66908 0
M  V30 1102 O 99.6635 2.81228 2.18607 0
M  V30 1103 O 98.5225 4.15595 3.54884 0
M  V30 1104 H 95.6165 0.605239 0.563573 0
M  V30 1105 H 98.1625 1.62332 0.494627 0
M  V30 1106 H 96.9345 3.63275 1.45419 0
M  V30 1107 H 96.5575 2.7161 2.90368 0
M  V30 1108 N 97.5546 -0.734337 1.39446 0
M  V30 1109 C 98.8006 -1.49613 1.36908 0
M  V30 1110 C 99.1336 -1.94169 -0.0347829 0
M  V30 1111 O 98.4086 -1.66833 -0.999847 0
M  V30 1112 C 98.6916 -2.73534 2.34203 0
M  V30 1113 C 98.5446 -2.34993 3.83534 0
M  V30 1114 C 99.8636 -3.75635 2.29317 0
M  V30 1115 H 96.9826 -0.542714 0.498629 0
M  V30 1116 H 99.6246 -0.839597 1.70443 0
M  V30 1117 H 97.7746 -3.29553 2.05736 0
M  V30 1118 H 99.4466 -1.84601 4.22753 0
M  V30 1119 H 97.6896 -1.67213 4.00278 0
M  V30 1120 H 98.3606 -3.23738 4.47099 0
M  V30 1121 H 100.837 -3.29203 2.54489 0
M  V30 1122 H 99.7126 -4.60008 2.99472 0
M  V30 1123 H 99.9736 -4.22603 1.29842 0
M  V30 1124 N 99.0327 -1.24633 -0.964593 0
M  V30 1125 C 100.281 -1.08573 -1.70459 0
M  V30 1126 C 100.602 0.375655 -1.91347 0
M  V30 1127 O 99.8717 1.26779 -1.49345 0
M  V30 1128 H 98.4517 -0.398784 -0.631649 0
M  V30 1129 H 101.114 -1.56601 -1.16026 0
M  V30 1130 H 100.21 -1.58623 -2.68785 0
M  V30 1131 N 100.511 1.16574 -1.06058 0
M  V30 1132 C 101.759 1.86677 -0.77434 0
M  V30 1133 C 102.08 1.81959 0.701147 0
M  V30 1134 O 101.35 1.2515 1.50713 0
M  V30 1135 H 99.9298 0.691134 -0.283449 0
M  V30 1136 H 102.592 1.41378 -1.34158 0
M  V30 1137 H 101.688 2.92181 -1.09711 0
M  V30 1138 N 101.989 0.842826 1.3317 0
M  V30 1139 C 102.921 0.236245 2.27979 0
M  V30 1140 C 103.934 -0.585282 1.51915 0
M  V30 1141 O 105.123 -0.411705 1.73687 0
M  V30 1142 C 102.223 -0.685717 3.3189 0
M  V30 1143 C 101.396 0.0973448 4.37292 0
M  V30 1144 C 100.455 -0.748565 5.20848 0
M  V30 1145 O 99.4809 -0.186339 5.68895 0
M  V30 1146 N 100.683 -2.06527 5.42519 0
M  V30 1147 H 103.448 1.05088 2.80672 0
M  V30 1148 H 101.009 0.701667 1.45905 0
M  V30 1149 H 103.001 -1.25669 3.84694 0
M  V30 1150 H 101.571 -1.40105 2.79445 0
M  V30 1151 H 100.791 0.849706 3.84933 0
M  V30 1152 H 102.079 0.635643 5.04814 0
M  V30 1153 H 101.477 -2.54554 5.05192 0
M  V30 1154 H 100.034 -2.58464 5.98364 0
M  V30 1155 N 103.467 -1.45747 0.599634 0
M  V30 1156 C 104.414 -2.30467 -0.123849 0
M  V30 1157 C 105.384 -1.41632 -0.86774 0
M  V30 1158 O 106.569 -1.70568 -0.855056 0
M  V30 1159 C 103.709 -3.26402 -1.12051 0
M  V30 1160 C 102.822 -4.3034 -0.37832 0
M  V30 1161 C 101.957 -5.13389 -1.364 0
M  V30 1162 C 100.996 -6.09061 -0.609171 0
M  V30 1163 N 100.133 -6.84918 -1.54374 0
M  V30 1164 H 104.973 -2.91802 0.604627 0
M  V30 1165 H 102.51 -1.43797 0.309972 0
M  V30 1166 H 104.468 -3.80482 -1.7114 0
M  V30 1167 H 103.098 -2.66839 -1.8165 0
M  V30 1168 H 102.15 -3.78984 0.327929 0
M  V30 1169 H 103.462 -4.98354 0.210997 0
M  V30 1170 H 102.616 -5.7183 -2.02719 0
M  V30 1171 H 101.355 -4.45376 -1.98725 0
M  V30 1172 H 100.36 -5.49758 0.0676979 0
M  V30 1173 H 101.585 -6.79099 0.00891991 0
M  V30 1174 H 99.531 -6.19601 -2.15478 0
M  V30 1175 H 99.448 -7.49254 -1.00766 0
M  V30 1176 H 100.716 -7.47906 -2.19676 0
M  V30 1177 N 104.945 -0.338344 -1.53925 0
M  V30 1178 C 106.17 0.263987 -2.05713 0
M  V30 1179 C 106.595 1.43847 -1.21201 0
M  V30 1180 O 105.953 1.79904 -0.224535 0
M  V30 1181 C 106.001 0.662 -3.54471 0
M  V30 1182 O 105.105 1.76265 -3.72833 0
M  V30 1183 H 104.446 0.0448722 -0.662482 0
M  V30 1184 H 106.976 -0.491048 -1.9862 0
M  V30 1185 H 106.986 0.940594 -3.9701 0
M  V30 1186 H 105.661 -0.196937 -4.15433 0
M  V30 1187 H 104.238 1.48173 -3.42198 0
M  V30 1188 N 106.423 1.57458 -0.0668435 0
M  V30 1189 C 107.353 2.15468 0.899764 0
M  V30 1190 C 108.334 1.08042 1.31381 0
M  V30 1191 O 109.519 1.36054 1.38574 0
M  V30 1192 C 106.649 2.71232 2.16911 0
M  V30 1193 C 105.603 3.83781 1.89463 0
M  V30 1194 C 104.929 4.26127 3.22986 0
M  V30 1195 C 106.229 5.08238 1.20381 0
M  V30 1196 H 107.923 2.96488 0.416529 0
M  V30 1197 H 105.469 1.4262 0.198908 0
M  V30 1198 H 107.422 3.10458 2.84945 0
M  V30 1199 H 106.146 1.87426 2.67468 0
M  V30 1200 H 104.805 3.45051 1.23836 0
M  V30 1201 H 104.453 3.39249 3.71374 0
M  V30 1202 H 104.153 5.01993 3.05413 0
M  V30 1203 H 105.677 4.67966 3.92225 0
M  V30 1204 H 107.091 5.44811 1.78475 0
M  V30 1205 H 105.488 5.89349 1.13083 0
M  V30 1206 H 106.558 4.84558 0.182153 0
M  V30 1207 N 107.901 -0.206675 1.56239 0
M  V30 1208 C 109.317 -0.557025 1.49564 0
M  V30 1209 C 109.517 -1.86424 0.764735 0
M  V30 1210 O 108.573 -2.50584 0.310491 0
M  V30 1211 C 109.886 -0.622478 2.94186 0
M  V30 1212 C 111.434 -0.712099 3.04792 0
M  V30 1213 C 111.909 -0.808767 4.50803 0
M  V30 1214 N 113.4 -0.8726 4.54907 0
M  V30 1215 C 114.135 -0.967365 5.65181 0
M  V30 1216 N 113.631 -1.02515 6.85173 0
M  V30 1217 N 115.424 -1.00366 5.53067 0
M  V30 1218 H 107.575 0.650943 2.02179 0
M  V30 1219 H 109.838 0.230387 0.919579 0
M  V30 1220 H 109.544 0.268727 3.50672 0
M  V30 1221 H 109.418 -1.4811 3.46905 0
M  V30 1222 H 111.805 -1.59374 2.48363 0
M  V30 1223 H 111.886 0.172489 2.55218 0
M  V30 1224 H 111.53 0.0684754 5.07854 0
M  V30 1225 H 111.46 -1.70899 4.98098 0
M  V30 1226 H 113.951 -0.837657 3.68499 0
M  V30 1227 H 114.264 -1.09765 7.64965 0
M  V30 1228 H 112.609 -0.994026 6.87855 0
M  V30 1229 H 115.8 -0.95527 4.58249 0
M  V30 1230 H 115.973 -1.07405 6.39037 0
M  V30 1231 N 109.379 -1.50304 -0.473955 0
M  V30 1232 C 110.604 -1.65175 -1.25427 0
M  V30 1233 C 111.029 -0.333673 -1.85117 0
M  V30 1234 O 110.387 0.702114 -1.67153 0
M  V30 1235 C 110.435 -2.74295 -2.34082 0
M  V30 1236 O 109.539 -2.35349 -3.38651 0
M  V30 1237 H 108.88 -0.551944 -0.369126 0
M  V30 1238 H 111.41 -1.96662 -0.564364 0
M  V30 1239 H 111.42 -2.97285 -2.79438 0
M  V30 1240 H 110.095 -3.69959 -1.90008 0
M  V30 1241 H 108.672 -2.22794 -2.99027 0
M  V30 1242 N 110.857 0.726932 -1.39834 0
M  V30 1243 C 112.087 1.51393 -1.40583 0
M  V30 1244 C 112.495 1.892 -0.000740625 0
M  V30 1245 O 111.838 1.55189 0.982951 0
M  V30 1246 C 111.9 2.82588 -2.22226 0
M  V30 1247 C 111.564 2.67169 -3.70769 0
M  V30 1248 C 112.561 2.3518 -4.63666 0
M  V30 1249 C 110.246 2.83788 -4.14451 0
M  V30 1250 C 112.24 2.20002 -5.98229 0
M  V30 1251 C 109.927 2.68229 -5.49087 0
M  V30 1252 C 110.925 2.36382 -6.4079 0
M  V30 1253 O 110.613 2.2093 -7.72946 0
M  V30 1254 H 110.345 0.474168 -0.48181 0
M  V30 1255 H 112.899 0.905247 -1.84376 0
M  V30 1256 H 111.129 3.45746 -1.73195 0
M  V30 1257 H 112.818 3.44247 -2.15055 0
M  V30 1258 H 113.584 2.21984 -4.31217 0
M  V30 1259 H 109.463 3.07566 -3.43401 0
M  V30 1260 H 113.007 1.95067 -6.69772 0
M  V30 1261 H 108.904 2.81006 -5.81125 0
M  V30 1262 H 109.672 2.35937 -7.83757 0
M  V30 1263 N 112.336 1.25143 0.95797 0
M  V30 1264 C 113.582 1.10863 1.70531 0
M  V30 1265 C 113.937 -0.347391 1.89238 0
M  V30 1266 O 113.23 -1.25262 1.44983 0
M  V30 1267 C 113.424 1.79272 3.09187 0
M  V30 1268 C 113.253 3.31376 3.04006 0
M  V30 1269 C 112.023 4.0062 3.07948 0
M  V30 1270 C 114.221 4.27825 2.8543 0
M  V30 1271 N 112.203 5.39526 2.9289 0
M  V30 1272 C 113.574 5.53794 2.78769 0
M  V30 1273 C 115.629 4.1828 2.70085 0
M  V30 1274 C 114.332 6.7131 2.58331 0
M  V30 1275 C 116.358 5.35485 2.51017 0
M  V30 1276 C 115.72 6.60393 2.45073 0
M  V30 1277 H 111.819 0.460362 0.632132 0
M  V30 1278 H 114.403 1.58196 1.13499 0
M  V30 1279 H 112.574 1.34439 3.64391 0
M  V30 1280 H 114.306 1.57764 3.72683 0
M  V30 1281 H 111.061 3.51855 3.17009 0
M  V30 1282 H 111.485 6.12416 2.88574 0
M  V30 1283 H 116.127 3.22461 2.73457 0
M  V30 1284 H 113.845 7.67243 2.53701 0
M  V30 1285 H 117.431 5.29959 2.40073 0
M  V30 1286 H 116.311 7.49557 2.30509 0
M  V30 1287 N 113.814 -1.1601 1.06675 0
M  V30 1288 C 115.23 -1.38622 0.790948 0
M  V30 1289 C 115.43 -1.92109 -0.607965 0
M  V30 1290 O 114.486 -2.12239 -1.36787 0
M  V30 1291 C 115.799 -2.36347 1.85905 0
M  V30 1292 C 117.347 -2.50023 1.88301 0
M  V30 1293 C 117.822 -3.51033 2.94176 0
M  V30 1294 N 119.313 -3.58563 2.93235 0
M  V30 1295 C 120.048 -4.36521 3.71803 0
M  V30 1296 N 119.544 -5.17869 4.602 0
M  V30 1297 N 121.337 -4.31541 3.60178 0
M  V30 1298 H 113.488 -0.796294 1.96908 0
M  V30 1299 H 115.751 -0.412597 0.853503 0
M  V30 1300 H 115.457 -2.04147 2.86386 0
M  V30 1301 H 115.331 -3.36042 1.71334 0
M  V30 1302 H 117.718 -2.81524 0.884769 0
M  V30 1303 H 117.799 -1.5035 2.06951 0
M  V30 1304 H 117.443 -3.20268 3.94196 0
M  V30 1305 H 117.373 -4.50445 2.72776 0
M  V30 1306 H 119.864 -3.00496 2.29152 0
M  V30 1307 H 120.177 -5.74578 5.16797 0
M  V30 1308 H 118.522 -5.17199 4.64253 0
M  V30 1309 H 121.713 -3.67051 2.90502 0
M  V30 1310 H 121.886 -4.9205 4.21653 0
M  V30 1311 N 115.292 -0.849877 -1.32721 0
M  V30 1312 C 116.24 -0.279745 -2.30912 0
M  V30 1313 C 117.234 0.594278 -1.58634 0
M  V30 1314 O 118.44 0.482613 -1.73409 0
M  V30 1315 H 114.815 -0.0717521 -0.748569 0
M  V30 1316 H 116.786 -1.12222 -2.76494 0
M  V30 1317 C 115.535 0.521108 -3.43773 0
M  V30 1318 H 114.858 -0.142141 -3.99547 0
M  V30 1319 H 116.298 0.885693 -4.14646 0
M  V30 1320 C 114.757 1.70442 -2.90605 0
M  V30 1321 O 115.287 2.8034 -2.87702 0
M  V30 1322 N 113.493 1.52991 -2.47067 0
M  V30 1323 H 113.04 0.635914 -2.49628 0
M  V30 1324 H 112.998 2.32311 -2.11847 0
M  V30 1325 N 116.77 1.45427 -0.607355 0
M  V30 1326 C 118 2.06314 -0.108656 0
M  V30 1327 C 118.408 1.45269 1.21217 0
M  V30 1328 O 117.751 0.561115 1.74921 0
M  V30 1329 C 117.813 3.59345 0.105618 0
M  V30 1330 C 117.477 4.42723 -1.13337 0
M  V30 1331 C 118.474 4.77715 -2.05145 0
M  V30 1332 C 116.159 4.83478 -1.36213 0
M  V30 1333 C 118.153 5.52317 -3.18158 0
M  V30 1334 C 115.84 5.57835 -2.49527 0
M  V30 1335 C 116.838 5.92171 -3.40327 0
M  V30 1336 O 116.526 6.65019 -4.51669 0
M  V30 1337 H 116.258 0.672782 -0.0658842 0
M  V30 1338 H 118.812 1.87664 -0.834945 0
M  V30 1339 H 117.042 3.76394 0.886796 0
M  V30 1340 H 118.731 4.02076 0.555886 0
M  V30 1341 H 119.497 4.46787 -1.88697 0
M  V30 1342 H 115.376 4.56188 -0.664362 0
M  V30 1343 H 118.92 5.79036 -3.89054 0
M  V30 1344 H 114.817 5.88177 -2.65928 0
M  V30 1345 H 115.585 6.83469 -4.50348 0
M  V30 1346 N 118.248 0.346503 1.53744 0
M  V30 1347 C 119.495 -0.249104 2.00962 0
M  V30 1348 C 119.823 -1.5032 1.23426 0
M  V30 1349 O 119.078 -1.93217 0.310761 0
M  V30 1350 C 119.377 -0.605809 3.52228 0
M  V30 1351 C 119.043 0.551747 4.47512 0
M  V30 1352 C 117.705 0.86941 4.73281 0
M  V30 1353 C 120.057 1.32818 5.03993 0
M  V30 1354 C 117.385 1.96582 5.52786 0
M  V30 1355 C 119.737 2.41486 5.84694 0
M  V30 1356 C 118.401 2.73808 6.08757 0
M  V30 1357 H 117.671 -0.0911538 0.735372 0
M  V30 1358 H 120.318 0.475027 1.85515 0
M  V30 1359 H 118.623 -1.4107 3.65522 0
M  V30 1360 H 120.32 -1.07858 3.86222 0
M  V30 1361 H 116.91 0.294102 4.2759 0
M  V30 1362 H 121.094 1.09602 4.84047 0
M  V30 1363 H 116.35 2.22045 5.69654 0
M  V30 1364 H 120.524 3.02078 6.27473 0
M  V30 1365 H 118.151 3.58892 6.7015 0
M  V30 1366 N 119.726 -1.57421 0.075193 0
M  V30 1367 C 120.636 -2.1642 -0.905511 0
M  V30 1368 C 121.652 -1.12828 -1.32461 0
M  V30 1369 O 122.828 -1.45109 -1.39661 0
M  V30 1370 C 119.893 -2.71693 -2.15369 0
M  V30 1371 C 118.954 -3.90171 -1.79068 0
M  V30 1372 C 118.187 -4.42798 -2.97936 0
M  V30 1373 O 118.41 -3.94416 -4.12058 0
M  V30 1374 O 117.344 -5.34085 -2.77555 0
M  V30 1375 H 121.17 -3.00588 -0.433626 0
M  V30 1376 H 118.755 -1.48664 -0.148067 0
M  V30 1377 H 120.637 -3.07104 -2.88557 0
M  V30 1378 H 119.312 -1.90582 -2.61649 0
M  V30 1379 H 118.219 -3.59606 -1.03122 0
M  V30 1380 H 119.552 -4.72584 -1.37569 0
M  V30 1381 N 121.204 0.198386 -1.56346 0
M  V30 1382 C 122.429 0.939682 -1.84891 0
M  V30 1383 C 122.854 1.76202 -0.658369 0
M  V30 1384 O 122.212 1.76993 0.392851 0
M  V30 1385 C 122.26 1.81428 -3.11635 0
M  V30 1386 O 121.364 2.91265 -2.91956 0
M  V30 1387 H 120.705 0.264807 -0.608912 0
M  V30 1388 H 123.235 0.204695 -2.03573 0
M  V30 1389 H 123.245 2.21958 -3.42343 0
M  V30 1390 H 121.92 1.21004 -3.97908 0
M  V30 1391 H 120.497 2.54514 -2.72538 0
M  V30 1392 N 122.682 1.50554 0.465978 0
M  V30 1393 C 123.91 1.65563 1.24083 0
M  V30 1394 C 124.325 0.341051 1.85694 0
M  V30 1395 O 123.682 -0.677543 1.69457 0
M  V30 1396 C 123.733 2.75051 2.34583 0
M  V30 1397 O 123.454 4.01413 1.75497 0
M  V30 1398 C 124.955 3.01078 3.25372 0
M  V30 1399 H 122.175 0.55638 0.375077 0
M  V30 1400 H 124.719 1.96807 0.555624 0
M  V30 1401 H 122.874 2.46486 2.9887 0
M  V30 1402 H 123.288 4.62002 2.48303 0
M  V30 1403 H 124.762 3.81339 3.99105 0
M  V30 1404 H 125.239 2.12349 3.84453 0
M  V30 1405 H 125.845 3.31194 2.66816 0
M  V30 1406 N 124.16 -0.719506 1.40217 0
M  V30 1407 C 125.437 -1.47221 1.28784 0
M  V30 1408 C 125.817 -2.10883 -0.0956067 0
M  V30 1409 O 125.165 -1.99833 -1.10811 0
M  V30 1410 C 125.375 -2.5111 2.42373 0
M  V30 1411 C 126.723 -3.17053 2.82423 0
M  V30 1412 O 127.747 -2.61429 2.41937 0
M  V30 1413 O 126.606 -4.17742 3.52355 0
M  V30 1414 H 123.7 -0.654491 0.50554 0
M  V30 1415 H 126.246 -0.752014 1.52128 0
M  V30 1416 H 125.018 -2.02556 3.34793 0
M  V30 1417 H 124.641 -3.3067 2.20778 0
M  V30 1418 N 125.638 -1.25649 -0.95132 0
M  V30 1419 C 126.886 -1.10375 -1.69298 0
M  V30 1420 C 127.207 0.355339 -1.91735 0
M  V30 1421 O 126.477 1.25188 -1.50681 0
M  V30 1422 H 125.057 -0.405461 -0.627384 0
M  V30 1423 H 127.719 -1.57823 -1.14358 0
M  V30 1424 H 126.815 -1.61465 -2.67087 0
M  V30 1425 N 127.117 1.15442 -1.07289 0
M  V30 1426 C 128.047 2.22312 -0.714107 0
M  V30 1427 C 129.028 1.67467 0.298155 0
M  V30 1428 O 130.213 1.93445 0.171048 0
M  V30 1429 C 127.343 3.47124 -0.110448 0
M  V30 1430 C 126.297 4.14926 -1.04979 0
M  V30 1431 C 125.623 5.33807 -0.308924 0
M  V30 1432 C 126.923 4.64762 -2.38314 0
M  V30 1433 H 128.617 2.5258 -1.6076 0
M  V30 1434 H 126.163 1.21404 -0.77441 0
M  V30 1435 H 128.116 4.21124 0.152482 0
M  V30 1436 H 126.84 3.16187 0.81812 0
M  V30 1437 H 125.499 3.42866 -1.29764 0
M  V30 1438 H 125.147 4.99126 0.623084 0
M  V30 1439 H 124.847 5.80113 -0.935036 0
M  V30 1440 H 126.371 6.10576 -0.0537771 0
M  V30 1441 H 127.785 5.30292 -2.1786 0
M  V30 1442 H 126.182 5.21728 -2.96514 0
M  V30 1443 H 127.252 3.80434 -3.00663 0
M  V30 1444 N 128.595 0.856903 1.32268 0
M  V30 1445 C 129.844 0.457599 1.96441 0
M  V30 1446 C 130.157 -0.992426 1.68553 0
M  V30 1447 O 131.363 -1.49727 2.26482 0
M  V30 1448 C 129.819 0.767358 3.51624 0
M  V30 1449 C 129.427 2.23326 3.88367 0
M  V30 1450 C 131.171 0.435887 4.22256 0
M  V30 1451 C 129.078 2.48613 5.36606 0
M  V30 1452 H 128.008 0.167387 0.735185 0
M  V30 1453 H 130.659 1.048 1.5063 0
M  V30 1454 H 129.041 0.106367 3.95857 0
M  V30 1455 H 130.215 2.93623 3.55137 0
M  V30 1456 H 128.53 2.52948 3.30766 0
M  V30 1457 H 131.127 0.602202 5.31298 0
M  V30 1458 H 131.47 -0.622672 4.11617 0
M  V30 1459 H 132.003 1.05286 3.83614 0
M  V30 1460 H 128.742 3.53101 5.52268 0
M  V30 1461 H 128.262 1.82896 5.71235 0
M  V30 1462 H 129.941 2.32676 6.03714 0
M  V30 1463 N 130.073 -1.45103 0.615059 0
M  V30 1464 C 131.319 -2.03035 0.121804 0
M  V30 1465 C 131.674 -1.47393 -1.23665 0
M  V30 1466 O 130.967 -0.642061 -1.80522 0
M  V30 1467 C 131.161 -3.57386 0.0318797 0
M  V30 1468 C 130.99 -4.28 1.38007 0
M  V30 1469 C 129.76 -4.65624 1.9627 0
M  V30 1470 C 131.958 -4.5948 2.31047 0
M  V30 1471 N 129.94 -5.21132 3.24492 0
M  V30 1472 C 131.311 -5.159 3.43872 0
M  V30 1473 C 133.366 -4.41423 2.30326 0
M  V30 1474 C 132.069 -5.56165 4.5615 0
M  V30 1475 C 134.095 -4.82726 3.41658 0
M  V30 1476 C 133.457 -5.39245 4.53205 0
M  V30 1477 H 129.556 -0.77702 0.0881159 0
M  V30 1478 H 132.14 -1.76819 0.815044 0
M  V30 1479 H 130.311 -3.83247 -0.630599 0
M  V30 1480 H 132.043 -4.01976 -0.468721 0
M  V30 1481 H 128.798 -4.49421 1.49392 0
M  V30 1482 H 129.222 -5.53377 3.90004 0
M  V30 1483 H 133.864 -3.97033 1.45343 0
M  V30 1484 H 131.582 -5.99517 5.41854 0
M  V30 1485 H 135.168 -4.7048 3.42257 0
M  V30 1486 H 134.048 -5.70616 5.37929 0
M  V30 1487 N 131.551 -0.354651 -1.53558 0
M  V30 1488 C 132.797 0.238797 -2.01389 0
M  V30 1489 C 133.13 1.49309 -1.2418 0
M  V30 1490 O 132.405 1.91638 -0.332457 0
M  V30 1491 C 132.688 0.541771 -3.56001 0
M  V30 1492 C 132.541 -0.725388 -4.43912 0
M  V30 1493 C 133.86 1.34685 -4.18984 0
M  V30 1494 H 130.979 0.0853177 -0.732045 0
M  V30 1495 H 133.621 -0.477384 -1.83905 0
M  V30 1496 H 131.771 1.15189 -3.71031 0
M  V30 1497 H 133.443 -1.36313 -4.407 0
M  V30 1498 H 131.686 -1.34801 -4.12324 0
M  V30 1499 H 132.357 -0.468505 -5.50008 0
M  V30 1500 H 134.833 0.830837 -4.07721 0
M  V30 1501 H 133.709 1.52759 -5.27215 0
M  V30 1502 H 133.97 2.35221 -3.74331 0
M  V30 1503 N 133.029 1.57378 -0.0835403 0
M  V30 1504 C 134.275 1.94217 0.583733 0
M  V30 1505 C 134.608 0.964653 1.68547 0
M  V30 1506 O 133.883 -0.00422258 1.945 0
M  V30 1507 C 134.166 3.41253 1.14972 0
M  V30 1508 C 134.019 4.49768 0.0538277 0
M  V30 1509 C 135.338 3.89352 2.05166 0
M  V30 1510 H 132.457 0.706233 0.210724 0
M  V30 1511 H 135.099 1.89392 -0.1519 0
M  V30 1512 H 133.249 3.45496 1.77665 0
M  V30 1513 H 134.921 4.57641 -0.579851 0
M  V30 1514 H 133.164 4.29432 -0.614068 0
M  V30 1515 H 133.835 5.49817 0.490452 0
M  V30 1516 H 136.311 3.87189 1.52393 0
M  V30 1517 H 135.187 4.92822 2.41698 0
M  V30 1518 H 135.448 3.27973 2.96456 0
M  V30 1519 N 134.507 -0.190092 1.56449 0
M  V30 1520 C 135.784 -0.935886 1.71757 0
M  V30 1521 C 136.164 -2.01173 0.639726 0
M  V30 1522 O 135.512 -2.25827 -0.348502 0
M  V30 1523 C 135.722 -1.51775 3.1427 0
M  V30 1524 C 137.07 -1.99794 3.74656 0
M  V30 1525 O 138.094 -1.61607 3.1743 0
M  V30 1526 O 136.953 -2.70079 4.751 0
M  V30 1527 H 134.047 -0.439229 0.700719 0
M  V30 1528 H 136.593 -0.179395 1.68749 0
M  V30 1529 H 135.365 -0.742505 3.84191 0
M  V30 1530 H 134.988 -2.33894 3.21527 0
M  V30 1531 N 135.985 -1.50799 -0.457987 0
M  V30 1532 C 137.21 -1.66496 -1.23668 0
M  V30 1533 C 137.635 -0.353288 -1.84752 0
M  V30 1534 O 136.993 0.684346 -1.67888 0
M  V30 1535 C 137.041 -2.76763 -2.3116 0
M  V30 1536 O 136.145 -2.38928 -3.36136 0
M  V30 1537 H 135.486 -0.555828 -0.363252 0
M  V30 1538 H 138.016 -1.9725 -0.543474 0
M  V30 1539 H 138.026 -3.00232 -2.76269 0
M  V30 1540 H 136.701 -3.71954 -1.86073 0
M  V30 1541 H 135.278 -2.25953 -2.96647 0
M  V30 1542 N 137.463 0.71206 -1.40597 0
M  V30 1543 C 138.426 1.80785 -1.40888 0
M  V30 1544 C 139.426 1.57937 -0.302103 0
M  V30 1545 O 140.616 1.64913 -0.561182 0
M  V30 1546 C 137.748 3.18927 -1.20409 0
M  V30 1547 H 138.941 1.81924 -2.38419 0
M  V30 1548 H 136.494 0.91805 -1.26497 0
M  V30 1549 H 137.229 3.23436 -0.236522 0
M  V30 1550 H 137.014 3.36911 -2.00582 0
M  V30 1551 H 138.504 3.98949 -1.23408 0
M  V30 1552 N 138.941 1.26152 0.944643 0
M  V30 1553 C 140.218 1.02247 1.66748 0
M  V30 1554 C 140.598 -0.448202 2.06287 0
M  V30 1555 O 139.946 -1.42779 1.78399 0
M  V30 1556 C 140.156 1.96788 2.88228 0
M  V30 1557 C 141.504 2.25201 3.59958 0
M  V30 1558 O 142.528 1.94626 2.98327 0
M  V30 1559 O 141.387 2.77242 4.70956 0
M  V30 1560 H 138.481 0.388517 0.730057 0
M  V30 1561 H 141.027 1.37348 0.99668 0
M  V30 1562 H 139.799 2.96047 2.55875 0
M  V30 1563 H 139.422 1.62145 3.63035 0
M  V30 1564 N 140.419 -1.14872 1.07899 0
M  V30 1565 C 141.835 -1.37776 0.805606 0
M  V30 1566 C 142.035 -1.92743 -0.587555 0
M  V30 1567 O 141.091 -2.13678 -1.34528 0
M  V30 1568 C 142.404 -2.34361 1.88402 0
M  V30 1569 C 143.952 -2.48012 1.90942 0
M  V30 1570 C 144.427 -3.47893 2.97883 0
M  V30 1571 N 145.918 -3.55433 2.97021 0
M  V30 1572 C 146.653 -4.32553 3.76412 0
M  V30 1573 N 146.149 -5.12959 4.65666 0
M  V30 1574 N 147.942 -4.27697 3.64735 0
M  V30 1575 H 140.093 -0.775365 1.97742 0
M  V30 1576 H 142.356 -0.403521 0.857831 0
M  V30 1577 H 142.062 -2.01098 2.88535 0
M  V30 1578 H 141.936 -3.34206 1.74889 0
M  V30 1579 H 144.323 -2.8057 0.914579 0
M  V30 1580 H 144.404 -1.48147 2.08534 0
M  V30 1581 H 144.048 -3.16069 3.97571 0
M  V30 1582 H 143.978 -4.47527 2.77538 0
M  V30 1583 H 146.469 -2.98048 2.32326 0
M  V30 1584 H 146.782 -5.69065 5.22862 0
M  V30 1585 H 145.127 -5.12245 4.69712 0
M  V30 1586 H 148.318 -3.63949 2.94378 0
M  V30 1587 H 148.491 -4.8755 4.26848 0
M  V30 1588 N 141.898 -0.863906 -1.31812 0
M  V30 1589 C 142.83 -0.272485 -2.27575 0
M  V30 1590 C 143.843 0.56104 -1.52827 0
M  V30 1591 O 145.032 0.384021 -1.7432 0
M  V30 1592 C 142.132 0.63283 -3.32939 0
M  V30 1593 C 141.305 -0.166902 -4.37081 0
M  V30 1594 C 140.364 0.665608 -5.21973 0
M  V30 1595 O 139.39 0.0958091 -5.69119 0
M  V30 1596 N 140.592 1.9787 -5.45736 0
M  V30 1597 H 143.357 -1.0954 -2.78964 0
M  V30 1598 H 140.918 -0.724791 -1.4477 0
M  V30 1599 H 142.91 1.19532 -3.86645 0
M  V30 1600 H 141.48 1.35642 -2.81638 0
M  V30 1601 H 140.7 -0.910838 -3.83533 0
M  V30 1602 H 141.988 -0.715874 -5.03739 0
M  V30 1603 H 141.386 2.46484 -5.09178 0
M  V30 1604 H 139.943 2.48911 -6.024 0
M  V30 1605 N 143.376 1.44774 -0.622745 0
M  V30 1606 C 144.792 1.56986 -0.287652 0
M  V30 1607 C 144.992 1.61167 1.20944 0
M  V30 1608 O 144.048 1.55015 1.99315 0
M  V30 1609 C 145.361 2.84551 -0.972188 0
M  V30 1610 C 146.909 2.9825 -0.949536 0
M  V30 1611 C 147.384 4.28605 -1.61437 0
M  V30 1612 N 148.875 4.35399 -1.58057 0
M  V30 1613 C 149.61 5.34964 -2.064 0
M  V30 1614 N 149.106 6.40981 -2.62897 0
M  V30 1615 N 150.899 5.26419 -1.97078 0
M  V30 1616 H 143.05 1.40304 -1.59463 0
M  V30 1617 H 145.313 0.671794 -0.668878 0
M  V30 1618 H 145.019 2.87417 -2.02693 0
M  V30 1619 H 144.893 3.73807 -0.504771 0
M  V30 1620 H 147.28 2.94941 0.0967067 0
M  V30 1621 H 147.361 2.10364 -1.45536 0
M  V30 1622 H 147.005 4.32672 -2.66002 0
M  V30 1623 H 146.935 5.15334 -1.08344 0
M  V30 1624 H 149.426 3.59397 -1.16801 0
M  V30 1625 H 149.739 7.13225 -2.97539 0
M  V30 1626 H 148.084 6.4169 -2.66943 0
M  V30 1627 H 151.275 4.42504 -1.52669 0
M  V30 1628 H 151.448 6.03861 -2.35066 0
M  V30 1629 N 144.854 0.36279 1.53368 0
M  V30 1630 C 145.787 -0.528507 2.21996 0
M  V30 1631 C 146.765 -1.0852 1.21087 0
M  V30 1632 O 147.949 -1.14186 1.4998 0
M  V30 1633 C 145.076 -1.72893 2.91249 0
M  V30 1634 C 144.122 -1.29994 4.06207 0
M  V30 1635 S 144.955 -0.303575 5.34639 0
M  V30 1636 C 146.111 -1.51039 6.07403 0
M  V30 1637 H 146.344 0.0543423 2.9725 0
M  V30 1638 H 143.877 0.146889 1.537 0
M  V30 1639 H 145.835 -2.41751 3.31763 0
M  V30 1640 H 144.496 -2.28303 2.15724 0
M  V30 1641 H 143.689 -2.19549 4.53667 0
M  V30 1642 H 143.291 -0.690608 3.67569 0
M  V30 1643 H 145.583 -2.44186 6.31965 0
M  V30 1644 H 146.526 -1.07721 6.99858 0
M  V30 1645 H 146.934 -1.71518 5.37812 0
M  V30 1646 N 146.332 -1.57332 0.0918853 0
M  V30 1647 C 147.264 -2.10869 -0.898168 0
M  V30 1648 C 148.277 -1.04521 -1.24817 0
M  V30 1649 O 149.466 -1.31977 -1.20184 0
M  V30 1650 C 146.566 -2.57083 -2.2082 0
M  V30 1651 C 145.739 -3.87229 -2.03402 0
M  V30 1652 C 144.798 -4.19324 -3.17889 0
M  V30 1653 O 143.824 -4.88598 -2.91994 0
M  V30 1654 N 145.026 -3.74471 -4.43567 0
M  V30 1655 H 147.791 -2.96439 -0.440943 0
M  V30 1656 H 145.352 -1.61631 -0.0933064 0
M  V30 1657 H 147.344 -2.75602 -2.96354 0
M  V30 1658 H 145.914 -1.76541 -2.57977 0
M  V30 1659 H 145.134 -3.7789 -1.12218 0
M  V30 1660 H 146.422 -4.72379 -1.89038 0
M  V30 1661 H 145.82 -3.18546 -4.67488 0
M  V30 1662 H 144.377 -3.98151 -5.16061 0
M  V30 1663 N 147.81 0.181792 -1.56548 0
M  V30 1664 C 149.087 0.926765 -1.72251 0
M  V30 1665 C 149.467 2.00831 -0.650386 0
M  V30 1666 O 148.815 2.26008 0.336521 0
M  V30 1667 C 149.025 1.50106 -3.1507 0
M  V30 1668 C 150.373 1.97805 -3.75711 0
M  V30 1669 O 151.397 1.59922 -3.18282 0
M  V30 1670 O 150.256 2.67555 -4.76525 0
M  V30 1671 H 147.35 0.435506 -0.703039 0
M  V30 1672 H 149.896 0.170443 -1.68842 0
M  V30 1673 H 148.668 0.72212 -3.84579 0
M  V30 1674 H 148.291 2.32186 -3.22763 0
M  V30 1675 N 149.288 1.51039 0.449983 0
M  V30 1676 C 150.528 1.64732 1.21007 0
M  V30 1677 C 150.892 0.349865 1.88785 0
M  V30 1678 O 152.093 0.362431 2.66345 0
M  V30 1679 C 150.364 2.80902 2.20973 0
M  V30 1680 S 151.923 3.14851 3.05638 0
M  V30 1681 H 148.741 0.5805 0.410538 0
M  V30 1682 H 151.343 1.88901 0.503634 0
M  V30 1683 H 150.047 3.73627 1.69796 0
M  V30 1684 H 149.578 2.58882 2.96215 0
M  V30 1685 H 151.593 2.60306 4.22439 0
M  V30 1686 N 150.766 -0.704594 1.40972 0
M  V30 1687 C 151.698 -1.82974 1.38033 0
M  V30 1688 C 152.711 -1.60305 0.283931 0
M  V30 1689 O 153.9 -1.69975 0.545042 0
M  V30 1690 C 151 -3.19578 1.12795 0
M  V30 1691 C 150.173 -3.69352 2.34302 0
M  V30 1692 C 149.232 -4.84601 2.05058 0
M  V30 1693 O 148.258 -4.96682 2.7802 0
M  V30 1694 N 149.46 -5.71194 1.03528 0
M  V30 1695 H 152.225 -1.85991 2.35005 0
M  V30 1696 H 149.786 -0.886567 1.35468 0
M  V30 1697 H 151.778 -3.9429 0.911987 0
M  V30 1698 H 150.348 -3.11642 0.24452 0
M  V30 1699 H 149.568 -2.85649 2.71659 0
M  V30 1700 H 150.856 -3.99345 3.1528 0
M  V30 1701 H 150.254 -5.64054 0.431217 0
M  V30 1702 H 148.811 -6.45843 0.879205 0
M  V30 1703 N 152.244 -1.26651 -0.937939 0
M  V30 1704 C 153.66 -1.03834 -1.21205 0
M  V30 1705 C 153.86 0.234502 -2.00131 0
M  V30 1706 O 152.916 0.942767 -2.3424 0
M  V30 1707 C 154.229 -2.27167 -1.97017 0
M  V30 1708 C 155.777 -2.32101 -2.09996 0
M  V30 1709 C 156.252 -3.55136 -2.8921 0
M  V30 1710 N 157.743 -3.55632 -2.96783 0
M  V30 1711 C 158.478 -4.475 -3.58512 0
M  V30 1712 N 157.974 -5.4966 -4.21717 0
M  V30 1713 N 159.767 -4.35145 -3.55816 0
M  V30 1714 H 151.918 -2.08398 -0.410391 0
M  V30 1715 H 154.181 -0.916031 -0.244114 0
M  V30 1716 H 153.887 -3.19765 -1.46434 0
M  V30 1717 H 153.761 -2.31672 -2.97671 0
M  V30 1718 H 156.148 -1.40015 -2.59769 0
M  V30 1719 H 156.229 -2.31605 -1.08594 0
M  V30 1720 H 155.873 -4.47553 -2.40123 0
M  V30 1721 H 155.803 -3.5288 -3.90875 0
M  V30 1722 H 158.294 -2.81743 -2.51852 0
M  V30 1723 H 158.607 -6.15943 -4.66727 0
M  V30 1724 H 156.952 -5.53514 -4.20294 0
M  V30 1725 H 160.143 -3.5455 -3.05634 0
M  V30 1726 H 160.316 -5.06934 -4.03636 0
M  V30 1727 N 153.722 1.14298 -1.08507 0
M  V30 1728 C 154.632 2.23027 -0.727753 0
M  V30 1729 C 155.648 1.71952 0.26619 0
M  V30 1730 O 156.824 2.011 0.109882 0
M  V30 1731 C 153.889 3.46403 -0.143541 0
M  V30 1732 C 152.95 4.12413 -1.19223 0
M  V30 1733 C 152.183 5.29899 -0.635798 0
M  V30 1734 O 152.406 5.67796 0.544393 0
M  V30 1735 O 151.34 5.85717 -1.38634 0
M  V30 1736 H 155.166 2.55945 -1.63481 0
M  V30 1737 H 152.751 1.22248 -0.858817 0
M  V30 1738 H 154.633 4.21018 0.179404 0
M  V30 1739 H 153.308 3.15206 0.736659 0
M  V30 1740 H 152.215 3.39667 -1.56772 0
M  V30 1741 H 153.548 4.47718 -2.04474 0
M  V30 1742 N 155.201 0.870884 1.31352 0
M  V30 1743 C 156.131 0.343096 2.30966 0
M  V30 1744 C 157.112 -0.566507 1.60389 0
M  V30 1745 O 158.297 -0.483336 1.88089 0
M  V30 1746 C 155.427 -0.455487 3.443 0
M  V30 1747 C 154.381 0.361103 4.26474 0
M  V30 1748 C 153.707 -0.563221 5.31725 0
M  V30 1749 C 155.007 1.59566 4.97329 0
M  V30 1750 H 156.701 1.17548 2.75359 0
M  V30 1751 H 154.247 0.566686 1.32381 0
M  V30 1752 H 156.2 -0.83525 4.13039 0
M  V30 1753 H 154.924 -1.32139 2.98675 0
M  V30 1754 H 153.583 0.722825 3.59403 0
M  V30 1755 H 153.231 -1.42643 4.82351 0
M  V30 1756 H 152.931 -0.0207409 5.87596 0
M  V30 1757 H 154.455 -0.939808 6.03324 0
M  V30 1758 H 155.869 1.28728 5.58661 0
M  V30 1759 H 154.266 2.07728 5.63 0
M  V30 1760 H 155.336 2.34798 4.24262 0
M  V30 1761 N 156.679 -1.44442 0.630414 0
M  V30 1762 C 157.611 -2.2892 -0.113347 0
M  V30 1763 C 158.624 -1.41243 -0.80959 0
M  V30 1764 O 159.813 -1.65402 -0.671156 0
M  V30 1765 C 156.913 -3.17594 -1.18266 0
M  V30 1766 C 156.086 -4.33682 -0.569073 0
M  V30 1767 C 155.145 -5.03397 -1.53226 0
M  V30 1768 O 154.171 -5.59438 -1.04967 0
M  V30 1769 N 155.373 -5.04783 -2.86661 0
M  V30 1770 H 158.138 -2.93392 0.611636 0
M  V30 1771 H 155.699 -1.54881 0.471523 0
M  V30 1772 H 157.691 -3.61097 -1.82732 0
M  V30 1773 H 156.261 -2.54876 -1.80988 0
M  V30 1774 H 155.481 -3.9338 0.254187 0
M  V30 1775 H 156.769 -5.08608 -0.139767 0
M  V30 1776 H 156.167 -4.60584 -3.28449 0
M  V30 1777 H 154.724 -5.52077 -3.46489 0
M  V30 1778 N 158.157 -0.370918 -1.53173 0
M  V30 1779 C 159.382 0.220293 -2.06227 0
M  V30 1780 C 159.807 1.41243 -1.24225 0
M  V30 1781 O 159.165 1.79387 -0.262645 0
M  V30 1782 C 159.213 0.586663 -3.55796 0
M  V30 1783 O 158.317 1.68317 -3.76488 0
M  V30 1784 H 157.658 0.0308099 -0.663285 0
M  V30 1785 H 160.188 -0.533068 -1.97534 0
M  V30 1786 H 160.198 0.85617 -3.98916 0
M  V30 1787 H 158.873 -0.285013 -4.14922 0
M  V30 1788 H 157.45 1.40881 -3.45264 0
M  V30 1789 N 159.635 1.57281 -0.100228 0
M  V30 1790 C 160.565 2.17328 0.853857 0
M  V30 1791 C 161.546 1.10804 1.2906 0
M  V30 1792 O 162.731 1.38963 1.35657 0
M  V30 1793 C 159.861 2.75772 2.11109 0
M  V30 1794 C 158.815 3.87713 1.81279 0
M  V30 1795 C 158.141 4.32882 3.13874 0
M  V30 1796 C 159.441 5.10677 1.09574 0
M  V30 1797 H 161.135 2.97305 0.353545 0
M  V30 1798 H 158.681 1.43009 0.168612 0
M  V30 1799 H 160.634 3.16433 2.78296 0
M  V30 1800 H 159.358 1.93057 2.63432 0
M  V30 1801 H 158.017 3.476 1.16489 0
M  V30 1802 H 157.665 3.47051 3.64095 0
M  V30 1803 H 157.365 5.08358 2.94696 0
M  V30 1804 H 158.889 4.7618 3.82211 0
M  V30 1805 H 160.303 5.48474 1.66879 0
M  V30 1806 H 158.7 5.91615 1.00557 0
M  V30 1807 H 159.77 4.84835 0.0793299 0
M  V30 1808 N 161.113 -0.173488 1.56642 0
M  V30 1809 C 162.043 -1.2171 1.99271 0
M  V30 1810 C 163.024 -1.46289 0.867959 0
M  V30 1811 O 164.209 -1.5766 1.13388 0
M  V30 1812 C 161.339 -2.55651 2.35074 0
M  V30 1813 C 160.293 -2.45645 3.50489 0
M  V30 1814 C 159.619 -3.84056 3.72028 0
M  V30 1815 C 160.919 -1.96302 4.84007 0
M  V30 1816 H 162.613 -0.86275 2.867 0
M  V30 1817 H 160.159 -0.413571 1.37933 0
M  V30 1818 H 162.112 -3.2886 2.63494 0
M  V30 1819 H 160.836 -2.92869 1.44552 0
M  V30 1820 H 159.495 -1.7489 3.22194 0
M  V30 1821 H 159.143 -4.18664 2.788 0
M  V30 1822 H 158.843 -3.7823 4.49684 0
M  V30 1823 H 160.367 -4.58854 4.02846 0
M  V30 1824 H 161.781 -2.59284 5.11317 0
M  V30 1825 H 160.178 -2.01429 5.65284 0
M  V30 1826 H 161.248 -0.917226 4.76146 0
M  V30 1827 N 162.591 -1.51276 -0.441967 0
M  V30 1828 C 163.837 -1.63958 -1.19355 0
M  V30 1829 C 164.17 -0.352543 -1.90973 0
M  V30 1830 O 163.445 0.647627 -1.83401 0
M  V30 1831 C 163.728 -2.83979 -2.21422 0
M  V30 1832 C 163.581 -4.22646 -1.53918 0
M  V30 1833 C 164.9 -2.99521 -3.22451 0
M  V30 1834 H 162.019 -0.596709 -0.432559 0
M  V30 1835 H 164.661 -1.83748 -0.483398 0
M  V30 1836 H 162.811 -2.67237 -2.81987 0
M  V30 1837 H 164.483 -4.51045 -0.967256 0
M  V30 1838 H 162.726 -4.25558 -0.841615 0
M  V30 1839 H 163.397 -5.02609 -2.28229 0
M  V30 1840 H 165.873 -3.14944 -2.71937 0
M  V30 1841 H 164.749 -3.85072 -3.91166 0
M  V30 1842 H 165.01 -2.11391 -3.88287 0
M  V30 1843 N 164.069 0.697108 -1.41344 0
M  V30 1844 C 164.979 1.84088 -1.45427 0
M  V30 1845 C 165.995 1.70545 -0.34501 0
M  V30 1846 O 167.171 1.92488 -0.592492 0
M  V30 1847 C 164.236 3.20056 -1.33286 0
M  V30 1848 C 163.297 3.45718 -2.54514 0
M  V30 1849 C 162.53 4.75199 -2.42944 0
M  V30 1850 O 162.753 5.51579 -1.45318 0
M  V30 1851 O 161.687 5.0161 -3.32672 0
M  V30 1852 H 165.513 1.836 -2.41919 0
M  V30 1853 H 163.098 0.849966 -1.22866 0
M  V30 1854 H 164.98 4.01236 -1.28794 0
M  V30 1855 H 163.655 3.2123 -0.39909 0
M  V30 1856 H 162.562 2.64474 -2.64583 0
M  V30 1857 H 163.895 3.49356 -3.46715 0
M  V30 1858 N 165.547 1.27147 0.931209 0
M  V30 1859 C 166.457 1.11372 2.06478 0
M  V30 1860 C 167.473 0.044645 1.73943 0
M  V30 1861 O 168.649 0.250417 1.99837 0
M  V30 1862 C 165.714 0.758838 3.38294 0
M  V30 1863 C 164.775 1.90841 3.84549 0
M  V30 1864 C 164.008 1.57036 5.10074 0
M  V30 1865 O 164.231 0.476645 5.68405 0
M  V30 1866 O 163.165 2.40839 5.51616 0
M  V30 1867 H 166.991 2.06493 2.22698 0
M  V30 1868 H 164.576 1.06301 1.04978 0
M  V30 1869 H 166.458 0.574098 4.17471 0
M  V30 1870 H 165.133 -0.162879 3.2329 0
M  V30 1871 H 164.04 2.14819 3.06274 0
M  V30 1872 H 165.373 2.81021 4.04089 0
M  V30 1873 N 167.025 -1.13721 1.09112 0
M  V30 1874 C 168.441 -1.36914 0.820174 0
M  V30 1875 C 168.641 -1.93356 -0.567079 0
M  V30 1876 O 167.697 -2.15093 -1.32255 0
M  V30 1877 C 169.01 -2.3235 1.90877 0
M  V30 1878 C 170.558 -2.45973 1.93562 0
M  V30 1879 C 171.033 -3.44714 3.01556 0
M  V30 1880 N 172.524 -3.52263 3.00775 0
M  V30 1881 C 173.259 -4.28536 3.80978 0
M  V30 1882 N 172.755 -5.07991 4.71081 0
M  V30 1883 N 174.548 -4.23804 3.69251 0
M  V30 1884 H 166.699 -0.754348 1.98553 0
M  V30 1885 H 168.962 -0.3944 0.862063 0
M  V30 1886 H 168.668 -1.98027 2.90651 0
M  V30 1887 H 168.542 -3.32332 1.78424 0
M  V30 1888 H 170.929 -2.79584 0.944286 0
M  V30 1889 H 171.01 -1.45926 2.10093 0
M  V30 1890 H 170.654 -3.11835 4.00901 0
M  V30 1891 H 170.584 -4.44558 2.82269 0
M  V30 1892 H 173.075 -2.95567 2.35475 0
M  V30 1893 H 173.388 -5.63487 5.28869 0
M  V30 1894 H 171.733 -5.07235 4.75119 0
M  V30 1895 H 174.924 -3.60806 2.98222 0
M  V30 1896 H 175.097 -4.82995 4.31995 0
M  V30 1897 N 168.503 -0.877838 -1.30888 0
M  V30 1898 C 169.433 -0.35534 -2.3078 0
M  V30 1899 C 170.414 0.557994 -1.60687 0
M  V30 1900 O 171.599 0.473355 -1.88343 0
M  V30 1901 C 168.729 0.437221 -3.44537 0
M  V30 1902 C 167.683 -0.383715 -4.26276 0
M  V30 1903 C 167.009 0.535014 -5.32017 0
M  V30 1904 C 168.309 -1.62201 -4.96476 0
M  V30 1905 H 170.003 -1.19007 -2.74732 0
M  V30 1906 H 167.549 -0.573698 -1.32078 0
M  V30 1907 H 169.502 0.813334 -4.13477 0
M  V30 1908 H 168.226 1.30553 -2.99372 0
M  V30 1909 H 166.885 -0.741874 -3.59015 0
M  V30 1910 H 166.533 1.40083 -4.831 0
M  V30 1911 H 166.233 -0.0104211 -5.87599 0
M  V30 1912 H 167.757 0.907799 -6.03814 0
M  V30 1913 H 169.171 -1.31689 -5.5797 0
M  V30 1914 H 167.568 -2.10711 -5.61891 0
M  V30 1915 H 168.638 -2.37044 -4.23011 0
M  V30 1916 N 169.982 1.44106 -0.638065 0
M  V30 1917 C 170.945 2.29138 0.0531013 0
M  V30 1918 C 171.945 1.41409 0.765506 0
M  V30 1919 O 173.135 1.63206 0.609046 0
M  V30 1920 C 170.267 3.23144 1.08584 0
M  V30 1921 H 171.46 2.91739 -0.694883 0
M  V30 1922 H 169.013 1.51134 -0.398538 0
M  V30 1923 H 169.748 2.65408 1.86357 0
M  V30 1924 H 169.533 3.87804 0.578852 0
M  V30 1925 H 171.023 3.87004 1.56899 0
M  V30 1926 N 171.46 0.379036 1.52974 0
M  V30 1927 C 172.708 -0.206014 2.01047 0
M  V30 1928 C 173.029 -1.48175 1.26765 0
M  V30 1929 O 172.299 -1.92085 0.384743 0
M  V30 1930 H 170.879 -0.0791184 0.742798 0
M  V30 1931 H 173.541 0.508366 1.88153 0
M  V30 1932 H 172.637 -0.423501 3.09213 0
M  V30 1933 N 172.938 -1.57226 0.108567 0
M  V30 1934 C 173.901 -2.13602 -0.831082 0
M  V30 1935 C 174.901 -1.06841 -1.20173 0
M  V30 1936 O 176.091 -1.32666 -1.12895 0
M  V30 1937 C 173.223 -2.66769 -2.12243 0
M  V30 1938 H 174.416 -2.97951 -0.341317 0
M  V30 1939 H 171.969 -1.55667 -0.14057 0
M  V30 1940 H 172.704 -1.85977 -2.65675 0
M  V30 1941 H 172.489 -3.44839 -1.86625 0
M  V30 1942 H 173.979 -3.10332 -2.79435 0
M  V30 1943 N 174.416 0.165178 -1.56732 0
M  V30 1944 C 175.644 0.896218 -1.86482 0
M  V30 1945 C 176.059 1.75555 -0.694675 0
M  V30 1946 O 175.416 1.79379 0.33607 0
M  V30 1947 C 175.467 1.76792 -3.1532 0
M  V30 1948 O 175.188 0.943239 -4.27825 0
M  V30 1949 C 176.689 2.6081 -3.58459 0
M  V30 1950 H 173.909 0.260064 -0.618553 0
M  V30 1951 H 176.453 0.163428 -2.03846 0
M  V30 1952 H 174.608 2.45398 -2.99764 0
M  V30 1953 H 175.022 1.53998 -5.01383 0
M  V30 1954 H 176.496 3.17579 -4.51495 0
M  V30 1955 H 176.973 3.35977 -2.82872 0
M  V30 1956 H 177.579 1.97526 -3.76648 0
M  V30 1957 N 175.894 1.51508 0.433938 0
M  V30 1958 C 176.824 1.76016 1.53429 0
M  V30 1959 C 177.805 0.610112 1.58782 0
M  V30 1960 O 178.99 0.853177 1.74455 0
M  V30 1961 C 176.12 1.88831 2.9148 0
M  V30 1962 C 175.074 3.04288 3.00987 0
M  V30 1963 C 174.4 3.0229 4.4105 0
M  V30 1964 C 175.7 4.44193 2.74754 0
M  V30 1965 H 177.394 2.68152 1.33171 0
M  V30 1966 H 174.94 1.29035 0.639214 0
M  V30 1967 H 176.893 2.04559 3.6842 0
M  V30 1968 H 175.617 0.933455 3.12976 0
M  V30 1969 H 174.276 2.8827 2.26486 0
M  V30 1970 H 173.924 2.04576 4.59519 0
M  V30 1971 H 173.624 3.79822 4.4834 0
M  V30 1972 H 175.148 3.20116 5.1996 0
M  V30 1973 H 176.562 4.60544 3.41426 0
M  V30 1974 H 174.959 5.23457 2.9345 0
M  V30 1975 H 176.029 4.53996 1.70339 0
M  V30 1976 N 177.372 -0.689602 1.41712 0
M  V30 1977 C 178.302 -1.81577 1.46806 0
M  V30 1978 C 179.283 -1.66945 0.326105 0
M  V30 1979 O 180.468 -1.86588 0.538377 0
M  V30 1980 C 177.598 -3.19762 1.35535 0
M  V30 1981 C 176.552 -3.49107 2.47605 0
M  V30 1982 C 175.878 -4.86711 2.21397 0
M  V30 1983 C 177.178 -3.47483 3.89939 0
M  V30 1984 H 178.872 -1.7757 2.41058 0
M  V30 1985 H 176.418 -0.852887 1.16025 0
M  V30 1986 H 178.371 -3.98263 1.3771 0
M  V30 1987 H 177.095 -3.24409 0.377708 0
M  V30 1988 H 175.754 -2.72959 2.44722 0
M  V30 1989 H 175.402 -4.8799 1.21961 0
M  V30 1990 H 175.102 -5.0731 2.96497 0
M  V30 1991 H 176.626 -5.67515 2.25297 0
M  V30 1992 H 178.04 -4.1598 3.94505 0
M  V30 1993 H 176.437 -3.79615 4.64771 0
M  V30 1994 H 177.507 -2.46341 4.17665 0
M  V30 1995 N 178.85 -1.27639 -0.924453 0
M  V30 1996 C 180.099 -1.13549 -1.66702 0
M  V30 1997 C 180.412 0.317487 -1.93006 0
M  V30 1998 O 181.618 0.579333 -2.65247 0
M  V30 1999 C 180.074 -1.98426 -3.00259 0
M  V30 2000 C 179.682 -3.484 -2.81641 0
M  V30 2001 C 181.426 -1.92993 -3.78092 0
M  V30 2002 C 179.333 -4.25464 -4.10773 0
M  V30 2003 H 178.263 -0.421351 -0.625283 0
M  V30 2004 H 180.914 -1.52085 -1.02676 0
M  V30 2005 H 179.296 -1.52736 -3.6536 0
M  V30 2006 H 180.47 -4.01973 -2.25287 0
M  V30 2007 H 178.785 -3.55245 -2.17232 0
M  V30 2008 H 181.382 -2.47844 -4.7379 0
M  V30 2009 H 181.725 -0.904281 -4.0636 0
M  V30 2010 H 182.258 -2.36595 -3.19793 0
M  V30 2011 H 178.997 -5.28566 -3.87683 0
M  V30 2012 H 178.517 -3.76667 -4.66779 0
M  V30 2013 H 180.196 -4.34812 -4.79111 0
M  V30 2014 N 180.328 1.1314 -1.09713 0
M  V30 2015 C 181.575 1.84484 -0.834987 0
M  V30 2016 C 181.903 1.83689 0.639418 0
M  V30 2017 O 181.158 1.2724 1.4869 0
M  V30 2018 C 181.457 3.32167 -1.3191 0
M  V30 2019 C 181.123 3.53139 -2.80363 0
M  V30 2020 C 179.785 3.58571 -3.20905 0
M  V30 2021 C 182.137 3.60866 -3.76065 0
M  V30 2022 C 179.465 3.69267 -4.55916 0
M  V30 2023 C 181.817 3.73089 -5.10869 0
M  V30 2024 C 180.481 3.76775 -5.50996 0
M  V30 2025 H 179.751 0.675073 -0.305544 0
M  V30 2026 H 182.398 1.33554 -1.37243 0
M  V30 2027 H 180.703 3.85469 -0.701517 0
M  V30 2028 H 182.4 3.85821 -1.09284 0
M  V30 2029 H 178.99 3.49569 -2.47991 0
M  V30 2030 H 183.174 3.55946 -3.45855 0
M  V30 2031 H 178.43 3.70388 -4.86438 0
M  V30 2032 H 182.604 3.78011 -5.84877 0
M  V30 2033 H 180.231 3.84815 -6.55608 0
M  V30 2034 N 181.806 0.884767 1.30421 0
M  V30 2035 C 182.769 0.356277 2.26414 0
M  V30 2036 C 183.769 -0.501124 1.52792 0
M  V30 2037 O 184.959 -0.30831 1.7145 0
M  V30 2038 C 182.091 -0.492316 3.37326 0
M  V30 2039 H 183.284 1.20389 2.74675 0
M  V30 2040 H 180.837 0.661607 1.41607 0
M  V30 2041 H 181.572 -1.36052 2.94381 0
M  V30 2042 H 181.357 0.121832 3.91911 0
M  V30 2043 H 182.847 -0.853871 4.08777 0
M  V30 2044 N 183.284 -1.43765 0.645699 0
M  V30 2045 C 184.232 -2.32516 -0.0624849 0
M  V30 2046 C 185.226 -1.48183 -0.820855 0
M  V30 2047 O 186.432 -1.64439 -0.732106 0
M  V30 2048 H 182.807 -0.750989 -0.0389864 0
M  V30 2049 H 184.778 -2.89979 0.703892 0
M  V30 2050 C 183.527 -3.32389 -1.02044 0
M  V30 2051 H 182.85 -3.97301 -0.446312 0
M  V30 2052 H 184.29 -3.97138 -1.48517 0
M  V30 2053 C 182.749 -2.62416 -2.11281 0
M  V30 2054 O 183.279 -2.434 -3.19561 0
M  V30 2055 N 181.485 -2.21913 -1.87624 0
M  V30 2056 H 181.032 -2.37578 -0.995703 0
M  V30 2057 H 180.99 -1.75424 -2.6091 0
M  V30 2058 N 184.763 -0.387143 -1.52771 0
M  V30 2059 C 185.71 0.449048 -2.26389 0
M  V30 2060 C 186.68 1.05961 -1.27912 0
M  V30 2061 O 187.865 1.08804 -1.56737 0
M  V30 2062 C 185.005 1.57155 -3.0724 0
M  V30 2063 C 184.118 0.984066 -4.20643 0
M  V30 2064 C 183.253 2.07745 -4.88892 0
M  V30 2065 C 182.292 1.46574 -5.94292 0
M  V30 2066 N 181.429 2.49834 -6.56146 0
M  V30 2067 H 186.269 -0.185205 -2.97424 0
M  V30 2068 H 183.806 -0.103164 -1.46738 0
M  V30 2069 H 185.764 2.23309 -3.52405 0
M  V30 2070 H 184.394 2.17615 -2.38419 0
M  V30 2071 H 183.446 0.212193 -3.79808 0
M  V30 2072 H 184.758 0.497029 -4.96318 0
M  V30 2073 H 183.912 2.81673 -5.3735 0
M  V30 2074 H 182.651 2.59807 -4.12737 0
M  V30 2075 H 181.656 0.711696 -5.45174 0
M  V30 2076 H 182.881 0.953088 -6.72379 0
M  V30 2077 H 180.827 3.0107 -5.82832 0
M  V30 2078 H 180.744 2.05879 -7.27427 0
M  V30 2079 H 182.012 3.23399 -7.09249 0
M  V30 2080 N 186.241 1.57166 -0.116904 0
M  V30 2081 C 187.173 2.12271 0.864507 0
M  V30 2082 C 188.186 1.06494 1.23138 0
M  V30 2083 O 189.375 1.33873 1.18069 0
M  V30 2084 C 186.475 2.60564 2.16702 0
M  V30 2085 C 185.648 3.90416 1.97216 0
M  V30 2086 C 184.707 4.24329 3.11178 0
M  V30 2087 O 183.733 4.93182 2.84184 0
M  V30 2088 N 184.935 3.8148 4.37554 0
M  V30 2089 H 187.7 2.97102 0.393726 0
M  V30 2090 H 185.261 1.61759 0.0675805 0
M  V30 2091 H 187.253 2.80282 2.91932 0
M  V30 2092 H 185.823 1.80623 2.55135 0
M  V30 2093 H 185.043 3.79627 1.06192 0
M  V30 2094 H 186.331 4.75327 1.81499 0
M  V30 2095 H 185.729 3.25943 4.62361 0
M  V30 2096 H 184.286 4.06311 5.09661 0
M  V30 2097 N 187.719 -0.156864 1.56817 0
M  V30 2098 C 188.996 -0.899244 1.73704 0
M  V30 2099 C 189.376 -1.99771 0.682254 0
M  V30 2100 O 188.724 -2.26515 -0.300522 0
M  V30 2101 C 188.934 -1.45075 3.17418 0
M  V30 2102 C 190.282 -1.91802 3.7881 0
M  V30 2103 O 191.306 -1.54838 3.20786 0
M  V30 2104 O 190.165 -2.5994 4.80722 0
M  V30 2105 H 187.259 -0.424267 0.709878 0
M  V30 2106 H 189.805 -0.143561 1.69092 0
M  V30 2107 H 188.577 -0.660846 3.85679 0
M  V30 2108 H 188.2 -2.27021 3.26416 0
M  V30 2109 N 189.197 -1.51736 -0.425897 0
M  V30 2110 C 190.127 -1.76827 -1.52494 0
M  V30 2111 C 191.108 -0.618524 -1.58456 0
M  V30 2112 O 192.293 -0.862416 -1.74 0
M  V30 2113 C 189.423 -1.90374 -2.90474 0
M  V30 2114 C 188.377 -3.0588 -2.99369 0
M  V30 2115 C 187.703 -3.04625 -4.3944 0
M  V30 2116 C 189.003 -4.45644 -2.72394 0
M  V30 2117 H 190.697 -2.68855 -1.31748 0
M  V30 2118 H 188.243 -1.29372 -0.632362 0
M  V30 2119 H 190.196 -2.0651 -3.6733 0
M  V30 2120 H 188.92 -0.95004 -3.12477 0
M  V30 2121 H 187.579 -2.89467 -2.24954 0
M  V30 2122 H 187.227 -2.0701 -4.58428 0
M  V30 2123 H 186.927 -3.82195 -4.46319 0
M  V30 2124 H 188.451 -3.22869 -5.18255 0
M  V30 2125 H 189.865 -4.62348 -3.38979 0
M  V30 2126 H 188.262 -5.25006 -2.9067 0
M  V30 2127 H 189.332 -4.54893 -1.67929 0
M  V30 2128 N 190.675 0.682077 -1.42076 0
M  V30 2129 C 192.086 1.26246 -1.37546 0
M  V30 2130 C 192.437 1.96092 -0.0651481 0
M  V30 2131 O 191.562 1.99587 0.836297 0
M  V30 2132 C 192.157 2.29594 -2.49143 0
M  V30 2133 C 190.716 2.83175 -2.47969 0
M  V30 2134 C 189.863 1.57395 -2.28303 0
M  V30 2135 H 192.814 0.475937 -1.51395 0
M  V30 2136 H 192.835 3.11175 -2.18976 0
M  V30 2137 H 192.347 1.78729 -3.44496 0
M  V30 2138 H 190.448 3.3818 -1.56413 0
M  V30 2139 H 190.561 3.32687 -3.44755 0
M  V30 2140 H 188.925 1.83699 -1.76428 0
M  V30 2141 H 189.708 1.08507 -3.25701 0
M  V30 2142 N 192.153 1.28127 0.917671 0
M  V30 2143 C 193.401 1.14825 1.66312 0
M  V30 2144 C 193.722 -0.304379 1.9261 0
M  V30 2145 O 192.992 -1.21149 1.53947 0
M  V30 2146 H 191.572 0.421953 0.616413 0
M  V30 2147 H 194.234 1.608 1.10134 0
M  V30 2148 H 193.33 1.68489 2.62712 0
M  V30 2149 N 193.631 -1.12557 1.10312 0
M  V30 2150 C 194.594 -2.16434 0.75424 0
M  V30 2151 C 195.594 -1.59278 -0.220685 0
M  V30 2152 O 196.784 -1.742 0.00230591 0
M  V30 2153 C 193.916 -3.40699 0.116987 0
M  V30 2154 H 195.109 -2.48811 1.67431 0
M  V30 2155 H 192.662 -1.27542 0.903475 0
M  V30 2156 H 193.397 -3.13921 -0.813877 0
M  V30 2157 H 193.182 -3.83459 0.818613 0
M  V30 2158 H 194.672 -4.17451 -0.111387 0
M  V30 2159 N 195.109 -0.891671 -1.2995 0
M  V30 2160 C 196.039 -0.379797 -2.30391 0
M  V30 2161 C 197.02 0.540919 -1.6127 0
M  V30 2162 O 198.205 0.453352 -1.88834 0
M  V30 2163 C 195.335 0.400654 -3.44981 0
M  V30 2164 C 194.289 -0.428905 -4.25846 0
M  V30 2165 C 193.615 0.478557 -5.32554 0
M  V30 2166 C 194.915 -1.67458 -4.94727 0
M  V30 2167 H 196.609 -1.21914 -2.73454 0
M  V30 2168 H 194.155 -0.587675 -1.31462 0
M  V30 2169 H 196.108 0.769434 -4.14316 0
M  V30 2170 H 194.832 1.27371 -3.0074 0
M  V30 2171 H 193.491 -0.779911 -3.58208 0
M  V30 2172 H 193.139 1.34951 -4.84559 0
M  V30 2173 H 192.839 -0.0727433 -5.87555 0
M  V30 2174 H 194.363 0.843705 -6.04743 0
M  V30 2175 H 195.777 -1.376 -5.56542 0
M  V30 2176 H 194.174 -2.16659 -5.59624 0
M  V30 2177 H 195.244 -2.41518 -4.20473 0
M  V30 2178 N 196.587 1.43421 -0.653314 0
M  V30 2179 C 197.812 2.06678 -0.172846 0
M  V30 2180 C 198.237 1.48648 1.15262 0
M  V30 2181 O 197.595 0.596457 1.71208 0
M  V30 2182 C 197.643 3.60474 -0.0953184 0
M  V30 2183 O 196.747 4.01487 0.942442 0
M  V30 2184 H 196.088 0.657181 -0.0949155 0
M  V30 2185 H 198.618 1.83925 -0.896265 0
M  V30 2186 H 198.628 4.07905 0.0879728 0
M  V30 2187 H 197.303 4.02088 -1.06291 0
M  V30 2188 H 195.88 3.65646 0.731932 0
M  V30 2189 N 198.065 0.39524 1.52563 0
M  V30 2190 C 199.29 -0.187456 2.06551 0
M  V30 2191 C 199.715 -1.39249 1.26457 0
M  V30 2192 O 199.073 -1.78947 0.291151 0
M  V30 2193 C 199.121 -0.529985 3.56684 0
M  V30 2194 O 198.225 -1.62307 3.79118 0
M  V30 2195 H 197.566 -0.0202537 0.663691 0
M  V30 2196 H 200.096 0.564426 1.96661 0
M  V30 2197 H 200.106 -0.792598 4.00227 0
M  V30 2198 H 198.781 0.350987 4.14416 0
M  V30 2199 H 197.358 -1.3537 3.47461 0
M  V30 2200 N 199.544 -1.57102 0.125237 0
M  V30 2201 C 200.492 -2.16905 -0.839927 0
M  V30 2202 C 201.486 -1.11998 -1.27094 0
M  V30 2203 O 202.692 -1.3029 -1.24195 0
M  V30 2204 H 199.067 -0.694252 -0.288995 0
M  V30 2205 H 201.038 -2.96774 -0.311115 0
M  V30 2206 C 199.787 -2.78795 -2.07771 0
M  V30 2207 H 199.11 -3.59221 -1.755 0
M  V30 2208 H 200.55 -3.2417 -2.73295 0
M  V30 2209 C 199.009 -1.76193 -2.87155 0
M  V30 2210 O 199.539 -1.21909 -3.82755 0
M  V30 2211 N 197.745 -1.45991 -2.51267 0
M  V30 2212 H 197.292 -1.90325 -1.73592 0
M  V30 2213 H 197.25 -0.775844 -3.04677 0
M  V30 2214 N 201.022 0.148545 -1.56898 0
M  V30 2215 C 201.985 1.16736 -1.97244 0
M  V30 2216 C 202.985 1.35947 -0.858777 0
M  V30 2217 O 204.175 1.32966 -1.12542 0
M  V30 2218 C 201.307 2.52798 -2.28705 0
M  V30 2219 H 202.5 0.821279 -2.88435 0
M  V30 2220 H 200.053 0.391831 -1.51309 0
M  V30 2221 H 200.788 2.92381 -1.403 0
M  V30 2222 H 200.573 2.40216 -3.09901 0
M  V30 2223 H 202.063 3.26179 -2.60762 0
M  V30 2224 N 202.5 1.5196 0.417844 0
M  V30 2225 C 203.749 1.6482 1.16264 0
M  V30 2226 C 204.062 0.379886 1.91876 0
M  V30 2227 O 205.268 0.388154 2.68711 0
M  V30 2228 C 203.724 2.91161 2.1155 0
M  V30 2229 C 203.332 4.25068 1.41495 0
M  V30 2230 C 205.076 3.13383 2.86341 0
M  V30 2231 C 202.983 5.42541 2.35379 0
M  V30 2232 H 201.913 0.613954 0.437694 0
M  V30 2233 H 204.564 1.78442 0.427871 0
M  V30 2234 H 202.946 2.71218 2.88543 0
M  V30 2235 H 204.12 4.55463 0.699263 0
M  V30 2236 H 202.435 4.0888 0.787792 0
M  V30 2237 H 205.032 3.98324 3.5671 0
M  V30 2238 H 205.375 2.27256 3.48798 0
M  V30 2239 H 205.908 3.33757 2.1645 0
M  V30 2240 H 202.647 6.30987 1.77582 0
M  V30 2241 H 202.167 5.16497 3.04945 0
M  V30 2242 H 203.846 5.75272 2.96093 0
M  V30 2243 N 203.978 -0.674533 1.42435 0
M  V30 2244 C 205.394 -0.98769 1.25367 0
M  V30 2245 C 205.594 -2.00879 0.158044 0
M  V30 2246 O 204.65 -2.48075 -0.470633 0
M  V30 2247 C 205.963 -1.49224 2.6106 0
M  V30 2248 C 207.511 -1.61 2.68417 0
M  V30 2249 C 207.986 -2.14852 4.04478 0
M  V30 2250 N 209.477 -2.22185 4.06434 0
M  V30 2251 C 210.212 -2.64928 5.08528 0
M  V30 2252 N 209.708 -3.07121 6.21006 0
M  V30 2253 N 211.501 -2.64679 4.95885 0
M  V30 2254 H 203.652 0.00152503 2.124 0
M  V30 2255 H 205.915 -0.0618434 0.945981 0
M  V30 2256 H 205.621 -0.816453 3.42092 0
M  V30 2257 H 205.495 -2.47094 2.84999 0
M  V30 2258 H 207.882 -2.27686 1.87732 0
M  V30 2259 H 207.963 -0.616195 2.48267 0
M  V30 2260 H 207.607 -1.48775 4.85622 0
M  V30 2261 H 207.537 -3.15024 4.2198 0
M  V30 2262 H 210.028 -1.92435 3.25234 0
M  V30 2263 H 210.341 -3.38423 6.94759 0
M  V30 2264 H 208.686 -3.04978 6.24511 0
M  V30 2265 H 211.877 -2.31078 4.07088 0
M  V30 2266 H 212.05 -2.9767 5.75584 0
M  V30 2267 N 205.456 -1.28612 -0.910864 0
M  V30 2268 C 206.366 -1.14643 -2.0468 0
M  V30 2269 C 207.382 -0.0723121 -1.7385 0
M  V30 2270 O 208.558 -0.282178 -1.99413 0
M  V30 2271 C 205.623 -0.812561 -3.37044 0
M  V30 2272 C 204.684 -1.96935 -3.81465 0
M  V30 2273 C 203.917 -1.65131 -5.07511 0
M  V30 2274 O 204.14 -0.567013 -5.67575 0
M  V30 2275 O 203.074 -2.49585 -5.47714 0
M  V30 2276 H 206.9 -2.1001 -2.19384 0
M  V30 2277 H 204.485 -1.07958 -1.03274 0
M  V30 2278 H 206.367 -0.640441 -4.16505 0
M  V30 2279 H 205.042 0.111426 -3.23508 0
M  V30 2280 H 203.949 -2.19664 -3.02818 0
M  V30 2281 H 205.282 -2.87414 -3.99567 0
M  V30 2282 N 206.934 1.1197 -1.10907 0
M  V30 2283 C 208.18 1.8386 -0.855773 0
M  V30 2284 C 208.513 1.84134 0.617103 0
M  V30 2285 O 207.788 1.29041 1.45529 0
M  V30 2286 C 208.071 3.31305 -1.411 0
M  V30 2287 C 207.924 3.39456 -2.9511 0
M  V30 2288 C 209.243 4.2721 -1.05736 0
M  V30 2289 H 206.362 0.667545 -0.312334 0
M  V30 2290 H 209.004 1.31331 -1.37303 0
M  V30 2291 H 207.154 3.76169 -0.97105 0
M  V30 2292 H 208.826 3.03191 -3.47668 0
M  V30 2293 H 207.069 2.79849 -3.31462 0
M  V30 2294 H 207.74 4.43209 -3.29044 0
M  V30 2295 H 210.216 3.90497 -1.43706 0
M  V30 2296 H 209.092 5.28775 -1.47269 0
M  V30 2297 H 209.353 4.42088 0.0325958 0
M  V30 2298 N 208.412 0.89855 1.29475 0
M  V30 2299 C 209.342 0.39201 2.30186 0
M  V30 2300 C 210.323 -0.532359 1.61555 0
M  V30 2301 O 211.508 -0.443331 1.89072 0
M  V30 2302 C 208.638 -0.382353 3.45189 0
M  V30 2303 C 207.592 0.451483 4.25612 0
M  V30 2304 C 206.918 -0.450307 5.328 0
M  V30 2305 C 208.218 1.70079 4.93832 0
M  V30 2306 H 209.912 1.23362 2.72804 0
M  V30 2307 H 207.458 0.594638 1.31149 0
M  V30 2308 H 209.411 -0.747451 4.14718 0
M  V30 2309 H 208.135 -1.25774 3.01411 0
M  V30 2310 H 206.794 0.798897 3.57789 0
M  V30 2311 H 206.442 -1.32379 4.85268 0
M  V30 2312 H 206.142 0.103902 5.87508 0
M  V30 2313 H 207.666 -0.811623 6.05182 0
M  V30 2314 H 209.08 1.40549 5.55805 0
M  V30 2315 H 207.477 2.19623 5.58467 0
M  V30 2316 H 208.547 2.43744 4.19186 0
M  V30 2317 N 209.89 -1.43072 0.660911 0
M  V30 2318 C 210.8 -2.34585 -0.0264163 0
M  V30 2319 C 211.816 -1.54316 -0.803898 0
M  V30 2320 O 212.992 -1.86939 -0.749391 0
M  V30 2321 C 210.057 -3.32689 -0.975639 0
M  V30 2322 C 209.118 -4.2886 -0.194236 0
M  V30 2323 C 208.351 -5.22278 -1.09825 0
M  V30 2324 O 208.574 -5.20299 -2.33763 0
M  V30 2325 O 207.508 -5.99228 -0.566513 0
M  V30 2326 H 211.334 -2.94869 0.727034 0
M  V30 2327 H 208.919 -1.43342 0.42111 0
M  V30 2328 H 210.801 -3.92995 -1.52094 0
M  V30 2329 H 209.476 -2.74898 -1.70918 0
M  V30 2330 H 208.383 -3.72011 0.394835 0
M  V30 2331 H 209.716 -4.89655 0.499899 0
M  V30 2332 N 211.368 -0.403325 -1.52352 0
M  V30 2333 C 212.298 0.416205 -2.29761 0
M  V30 2334 C 213.279 1.05123 -1.33728 0
M  V30 2335 O 214.464 1.06134 -1.62632 0
M  V30 2336 C 211.594 1.53624 -3.11475 0
M  V30 2337 C 210.548 1.02653 -4.15507 0
M  V30 2338 C 209.874 2.23971 -4.85532 0
M  V30 2339 C 211.174 0.08463 -5.22231 0
M  V30 2340 H 212.868 -0.229701 -2.98518 0
M  V30 2341 H 210.414 -0.111913 -1.43564 0
M  V30 2342 H 212.367 2.1165 -3.64393 0
M  V30 2343 H 211.091 2.20994 -2.40477 0
M  V30 2344 H 209.75 0.46871 -3.63591 0
M  V30 2345 H 209.398 2.89883 -4.11068 0
M  V30 2346 H 209.098 1.90521 -5.55856 0
M  V30 2347 H 210.622 2.82614 -5.41259 0
M  V30 2348 H 212.036 0.573509 -5.70424 0
M  V30 2349 H 210.433 -0.160783 -5.99885 0
M  V30 2350 H 211.503 -0.86237 -4.7717 0
M  V30 2351 N 212.846 1.57033 -0.133567 0
M  V30 2352 C 214.123 1.87256 0.56522 0
M  V30 2353 C 214.503 1.03726 1.83859 0
M  V30 2354 O 213.851 0.120247 2.28183 0
M  V30 2355 C 214.061 3.3865 0.843636 0
M  V30 2356 C 215.409 4.07574 1.19032 0
M  V30 2357 O 216.433 3.43752 0.933429 0
M  V30 2358 O 215.292 5.20259 1.67312 0
M  V30 2359 H 212.386 0.775678 0.286796 0
M  V30 2360 H 214.932 1.68855 -0.169168 0
M  V30 2361 H 213.704 3.91257 -0.0581149 0
M  V30 2362 H 213.327 3.62532 1.63268 0
M  V30 2363 N 214.325 -0.140222 1.56975 0
M  V30 2364 C 215.55 -0.870414 1.88251 0
M  V30 2365 C 215.975 -1.73637 0.723312 0
M  V30 2366 O 215.333 -1.78329 -0.32689 0
M  V30 2367 C 215.381 -1.69737 3.18154 0
M  V30 2368 O 214.485 -2.80229 3.02565 0
M  V30 2369 H 213.826 -0.242025 0.61832 0
M  V30 2370 H 216.356 -0.128999 2.04193 0
M  V30 2371 H 216.366 -2.09099 3.50345 0
M  V30 2372 H 215.041 -1.06152 4.02125 0
M  V30 2373 H 213.618 -2.44224 2.81796 0
M  V30 2374 N 215.803 -1.52179 -0.40978 0
M  V30 2375 C 217.052 -1.65434 -1.15388 0
M  V30 2376 C 217.365 -0.390056 -1.91671 0
M  V30 2377 O 218.571 -0.402399 -2.68501 0
M  V30 2378 C 217.027 -2.92279 -2.10003 0
M  V30 2379 C 216.635 -4.25813 -1.39239 0
M  V30 2380 C 218.379 -3.14897 -2.84675 0
M  V30 2381 C 216.286 -5.43782 -2.32498 0
M  V30 2382 H 215.216 -0.616267 -0.434432 0
M  V30 2383 H 217.867 -1.78666 -0.418401 0
M  V30 2384 H 216.249 -2.72744 -2.871 0
M  V30 2385 H 217.423 -4.55828 -0.675099 0
M  V30 2386 H 215.738 -4.09292 -0.766097 0
M  V30 2387 H 218.335 -4.0021 -3.54593 0
M  V30 2388 H 218.678 -2.29103 -3.47588 0
M  V30 2389 H 219.211 -3.34901 -2.14677 0
M  V30 2390 H 215.95 -6.3192 -1.74233 0
M  V30 2391 H 215.47 -5.18106 -3.02201 0
M  V30 2392 H 217.149 -5.76834 -2.93038 0
M  V30 2393 N 217.281 0.66697 -1.42791 0
M  V30 2394 C 218.697 0.981027 -1.25889 0
M  V30 2395 C 218.897 2.00793 -0.168695 0
M  V30 2396 O 217.953 2.48321 0.45747 0
M  V30 2397 C 219.266 1.47838 -2.61848 0
M  V30 2398 C 220.814 1.59575 -2.69267 0
M  V30 2399 C 221.289 2.12704 -4.05612 0
M  V30 2400 N 222.78 2.20026 -4.07606 0
M  V30 2401 C 223.515 2.62227 -5.09926 0
M  V30 2402 N 223.011 3.03824 -6.22626 0
M  V30 2403 N 224.804 2.62045 -4.97281 0
M  V30 2404 H 216.955 -0.0127891 -2.12396 0
M  V30 2405 H 219.218 0.0568258 -0.946295 0
M  V30 2406 H 218.924 0.798299 -3.4252 0
M  V30 2407 H 218.798 2.45579 -2.86305 0
M  V30 2408 H 221.185 2.26687 -1.88936 0
M  V30 2409 H 221.266 0.60302 -2.48591 0
M  V30 2410 H 220.91 1.46198 -4.86404 0
M  V30 2411 H 220.84 3.12782 -4.23645 0
M  V30 2412 H 223.331 1.90708 -3.2625 0
M  V30 2413 H 223.644 3.34734 -6.96544 0
M  V30 2414 H 221.989 3.01662 -6.26119 0
M  V30 2415 H 225.18 2.28916 -4.08308 0
M  V30 2416 H 225.353 2.94613 -5.77154 0
M  V30 2417 N 218.759 1.29093 0.90403 0
M  V30 2418 C 219.984 1.19809 1.69294 0
M  V30 2419 C 220.409 -0.238481 1.86582 0
M  V30 2420 O 219.767 -1.1723 1.383 0
M  V30 2421 C 219.815 1.91202 3.05736 0
M  V30 2422 O 218.919 1.22611 3.93752 0
M  V30 2423 H 218.26 0.415385 0.518027 0
M  V30 2424 H 220.79 1.70586 1.12967 0
M  V30 2425 H 220.8 1.99487 3.55906 0
M  V30 2426 H 219.475 2.95692 2.92471 0
M  V30 2427 H 218.052 1.22554 3.52186 0
M  V30 2428 N 220.237 -1.11381 1.11499 0
M  V30 2429 C 221.187 -2.15555 0.74298 0
M  V30 2430 C 222.171 -1.58894 -0.253276 0
M  V30 2431 O 223.363 -1.76897 -0.0602918 0
M  V30 2432 C 220.492 -3.42782 0.188481 0
M  V30 2433 C 219.578 -4.064 1.21244 0
M  V30 2434 N 219.969 -4.44864 2.40685 0
M  V30 2435 C 218.267 -4.3333 1.05552 0
M  V30 2436 C 218.968 -4.94715 3.05994 0
M  V30 2437 N 217.944 -4.90909 2.33472 0
M  V30 2438 H 221.746 -2.43074 1.65203 0
M  V30 2439 H 219.26 -1.28401 0.994329 0
M  V30 2440 H 221.257 -4.16789 -0.0961693 0
M  V30 2441 H 219.917 -3.16727 -0.715149 0
M  V30 2442 H 220.928 -4.36876 2.78136 0
M  V30 2443 H 217.605 -4.1698 0.208372 0
M  V30 2444 H 218.995 -5.34103 4.07656 0
M  V30 2445 N 221.715 -0.905404 -1.28997 0
M  V30 2446 C 222.665 -0.358713 -2.25161 0
M  V30 2447 C 223.649 0.524449 -1.52113 0
M  V30 2448 O 224.841 0.365534 -1.73184 0
M  V30 2449 C 221.97 0.407609 -3.40872 0
M  V30 2450 C 221.056 -0.490797 -4.21251 0
M  V30 2451 N 221.447 -1.60061 -4.79806 0
M  V30 2452 C 219.745 -0.289636 -4.45059 0
M  V30 2453 C 220.446 -2.15757 -5.40207 0
M  V30 2454 N 219.422 -1.44988 -5.23908 0
M  V30 2455 H 223.224 -1.20642 -2.67998 0
M  V30 2456 H 220.738 -0.757103 -1.43672 0
M  V30 2457 H 222.735 0.816046 -4.08835 0
M  V30 2458 H 221.395 1.25251 -2.9957 0
M  V30 2459 H 222.406 -1.98329 -4.7842 0
M  V30 2460 H 219.083 0.51643 -4.14294 0
M  V30 2461 H 220.473 -3.09069 -5.96595 0
M  V30 2462 N 223.193 1.4272 -0.668489 0
M  V30 2463 C 224.439 2.02443 -0.197076 0
M  V30 2464 C 224.794 1.51882 1.18109 0
M  V30 2465 O 224.087 0.708618 1.78015 0
M  V30 2466 C 224.281 3.57021 -0.164499 0
M  V30 2467 C 224.11 4.22583 -1.53797 0
M  V30 2468 C 222.88 4.58019 -2.13416 0
M  V30 2469 C 225.078 4.50588 -2.47941 0
M  V30 2470 N 223.06 5.08729 -3.4361 0
M  V30 2471 C 224.431 5.02782 -3.62782 0
M  V30 2472 C 226.486 4.32571 -2.46551 0
M  V30 2473 C 225.189 5.38852 -4.76478 0
M  V30 2474 C 227.215 4.69713 -3.59338 0
M  V30 2475 C 226.577 5.22053 -4.72906 0
M  V30 2476 H 222.676 0.773214 -0.116894 0
M  V30 2477 H 225.26 1.73673 -0.880108 0
M  V30 2478 H 223.431 3.85323 0.487925 0
M  V30 2479 H 225.163 4.03439 0.319207 0
M  V30 2480 H 221.918 4.43566 -1.65969 0
M  V30 2481 H 222.342 5.38521 -4.10273 0
M  V30 2482 H 226.984 3.91365 -1.59978 0
M  V30 2483 H 224.702 5.78993 -5.63731 0
M  V30 2484 H 228.288 4.57454 -3.59482 0
M  V30 2485 H 227.168 5.50258 -5.58736 0
M  V30 2486 N 224.671 0.411399 1.52136 0
M  V30 2487 C 225.911 -0.163143 2.03748 0
M  V30 2488 C 226.275 -1.42187 1.29022 0
M  V30 2489 O 227.476 -2.075 1.70872 0
M  V30 2490 C 225.747 -0.402651 3.55125 0
M  V30 2491 S 227.306 -0.944315 4.28519 0
M  V30 2492 H 224.124 -0.0439833 0.709638 0
M  V30 2493 H 226.726 0.56484 1.87163 0
M  V30 2494 H 225.43 0.520212 4.0709 0
M  V30 2495 H 224.961 -1.15844 3.75957 0
M  V30 2496 H 226.976 -2.22463 4.43536 0
M  V30 2497 N 226.149 -1.5696 0.141893 0
M  V30 2498 C 227.398 -1.95135 -0.510427 0
M  V30 2499 C 227.711 -1.02896 -1.66348 0
M  V30 2500 O 228.917 -1.30629 -2.38009 0
M  V30 2501 C 227.373 -3.46876 -0.959427 0
M  V30 2502 C 226.981 -4.47691 0.166419 0
M  V30 2503 C 228.725 -3.93927 -1.58183 0
M  V30 2504 C 226.632 -5.90636 -0.300565 0
M  V30 2505 H 225.562 -0.728494 -0.194454 0
M  V30 2506 H 228.213 -1.8211 0.22542 0
M  V30 2507 H 226.595 -3.55215 -1.75038 0
M  V30 2508 H 227.769 -4.51043 0.94325 0
M  V30 2509 H 226.084 -4.10527 0.696905 0
M  V30 2510 H 228.681 -4.98158 -1.94275 0
M  V30 2511 H 229.024 -3.3519 -2.46888 0
M  V30 2512 H 229.557 -3.88484 -0.855863 0
M  V30 2513 H 226.296 -6.5318 0.550989 0
M  V30 2514 H 225.816 -5.90655 -1.04338 0
M  V30 2515 H 227.495 -6.42588 -0.754265 0
M  V30 2516 N 227.627 0.131896 -1.57047 0
M  V30 2517 C 228.559 1.1878 -1.9602 0
M  V30 2518 C 229.572 1.38363 -0.857875 0
M  V30 2519 O 230.761 1.37666 -1.13623 0
M  V30 2520 C 227.861 2.55008 -2.23213 0
M  V30 2521 C 227.034 2.56201 -3.54513 0
M  V30 2522 C 226.093 3.7408 -3.70069 0
M  V30 2523 O 225.119 3.58258 -4.42312 0
M  V30 2524 N 226.321 4.92137 -3.07866 0
M  V30 2525 H 229.086 0.85639 -2.87204 0
M  V30 2526 H 226.647 0.321309 -1.5868 0
M  V30 2527 H 228.639 3.32404 -2.30846 0
M  V30 2528 H 227.209 2.80382 -1.3822 0
M  V30 2529 H 226.429 1.64613 -3.58185 0
M  V30 2530 H 227.717 2.54043 -4.4084 0
M  V30 2531 H 227.115 5.07895 -2.49116 0
M  V30 2532 H 225.672 5.67254 -3.21039 0
M  V30 2533 N 229.106 1.52395 0.401703 0
M  V30 2534 C 230.354 1.66488 1.14569 0
M  V30 2535 C 230.675 0.400897 1.90835 0
M  V30 2536 O 229.945 -0.584415 1.8698 0
M  V30 2537 H 228.525 0.613672 0.425929 0
M  V30 2538 H 231.187 1.89464 0.457093 0
M  V30 2539 H 230.283 2.50942 1.85566 0
M  V30 2540 N 230.584 -0.659388 1.43143 0
M  V30 2541 C 231.824 -1.43121 1.45931 0
M  V30 2542 C 232.188 -1.91838 0.0789298 0
M  V30 2543 O 233.389 -2.68794 -0.018491 0
M  V30 2544 C 231.66 -2.58534 2.46769 0
M  V30 2545 S 233.219 -3.47154 2.68384 0
M  V30 2546 H 230.037 -0.488624 0.516496 0
M  V30 2547 H 232.639 -0.766128 1.79863 0
M  V30 2548 H 231.343 -2.21007 3.45809 0
M  V30 2549 H 230.874 -3.29898 2.14315 0
M  V30 2550 H 232.889 -4.55051 1.97845 0
M  V30 2551 N 232.062 -1.29571 -0.897171 0
M  V30 2552 C 233.287 -1.20705 -1.68656 0
M  V30 2553 C 233.712 0.228582 -1.86706 0
M  V30 2554 O 233.07 1.16494 -1.3892 0
M  V30 2555 C 233.118 -1.9282 -3.04717 0
M  V30 2556 O 232.222 -1.24697 -3.93096 0
M  V30 2557 H 231.563 -0.418126 -0.515816 0
M  V30 2558 H 234.093 -1.71183 -1.12061 0
M  V30 2559 H 234.103 -2.01372 -3.54843 0
M  V30 2560 H 232.778 -2.97239 -2.90899 0
M  V30 2561 H 231.355 -1.2442 -3.51531 0
M  V30 2562 N 233.54 1.10788 -1.12088 0
M  V30 2563 C 234.503 2.15207 -0.788577 0
M  V30 2564 C 235.503 1.59609 0.195317 0
M  V30 2565 O 236.693 1.74174 -0.0300193 0
M  V30 2566 C 233.825 3.4047 -0.171174 0
M  V30 2567 H 235.018 2.46116 -1.71368 0
M  V30 2568 H 232.571 1.26089 -0.923652 0
M  V30 2569 H 233.306 3.15176 0.763832 0
M  V30 2570 H 233.091 3.82109 -0.879514 0
M  V30 2571 H 234.581 4.17576 0.04496 0
M  V30 2572 N 235.018 0.912232 1.28515 0
M  V30 2573 C 236.264 0.545405 1.95328 0
M  V30 2574 C 236.597 -0.908313 1.71649 0
M  V30 2575 O 235.872 -1.64575 1.03659 0
M  V30 2576 C 236.155 0.853483 3.4984 0
M  V30 2577 C 236.008 2.35982 3.82926 0
M  V30 2578 C 237.327 0.348589 4.38717 0
M  V30 2579 H 234.446 0.199626 0.709449 0
M  V30 2580 H 237.088 1.1412 1.5191 0
M  V30 2581 H 235.238 0.34643 3.86952 0
M  V30 2582 H 236.91 2.93738 3.55691 0
M  V30 2583 H 235.153 2.81543 3.30024 0
M  V30 2584 H 235.824 2.52593 4.90816 0
M  V30 2585 H 238.3 0.78294 4.08668 0
M  V30 2586 H 237.176 0.593242 5.45685 0
M  V30 2587 H 237.437 -0.751049 4.35674 0
M  V30 2588 N 236.496 -1.42363 0.676048 0
M  V30 2589 C 237.724 -2.05859 0.207268 0
M  V30 2590 C 238.139 -1.50796 -1.13605 0
M  V30 2591 O 237.496 -0.648265 -1.70598 0
M  V30 2592 C 237.547 -3.61248 0.134975 0
M  V30 2593 O 237.268 -4.1427 1.42521 0
M  V30 2594 C 238.769 -4.41859 -0.357151 0
M  V30 2595 H 235.989 -0.663431 0.100503 0
M  V30 2596 H 238.533 -1.82479 0.923136 0
M  V30 2597 H 236.688 -3.83735 -0.531588 0
M  V30 2598 H 237.102 -5.0815 1.29939 0
M  V30 2599 H 238.576 -5.50847 -0.356641 0
M  V30 2600 H 239.053 -4.16536 -1.39264 0
M  V30 2601 H 239.659 -4.24392 0.27772 0
M  V30 2602 N 237.974 -0.419461 -1.51915 0
M  V30 2603 C 239.222 0.152637 -2.01523 0
M  V30 2604 C 239.543 1.44762 -1.30649 0
M  V30 2605 O 238.813 1.90997 -0.435535 0
M  V30 2606 H 237.393 0.0593966 -0.744635 0
M  V30 2607 H 240.055 -0.558073 -1.86739 0
M  V30 2608 H 239.151 0.341369 -3.10227 0
M  V30 2609 N 239.452 1.56882 -0.150215 0
M  V30 2610 C 240.362 2.20494 0.801222 0
M  V30 2611 C 241.378 1.19019 1.26927 0
M  V30 2612 O 242.554 1.51607 1.32579 0
M  V30 2613 C 239.619 2.81659 2.02161 0
M  V30 2614 C 238.68 3.9827 1.60249 0
M  V30 2615 C 237.913 4.56508 2.7647 0
M  V30 2616 O 238.136 4.13627 3.92771 0
M  V30 2617 O 237.07 5.46719 2.51757 0
M  V30 2618 H 240.896 3.02315 0.289717 0
M  V30 2619 H 238.481 1.49202 0.0769684 0
M  V30 2620 H 240.363 3.20522 2.73576 0
M  V30 2621 H 239.038 2.02849 2.52258 0
M  V30 2622 H 237.945 3.64117 0.858477 0
M  V30 2623 H 239.278 4.78609 1.14864 0
M  V30 2624 N 240.93 -0.123565 1.57115 0
M  V30 2625 C 241.878 -1.17082 2.00984 0
M  V30 2626 C 242.872 -1.43136 0.906009 0
M  V30 2627 O 244.078 -1.43152 1.09121 0
M  V30 2628 H 240.453 -0.394653 0.64012 0
M  V30 2629 H 242.424 -0.774292 2.88179 0
M  V30 2630 C 241.173 -2.49057 2.42623 0
M  V30 2631 H 240.496 -2.29846 3.27125 0
M  V30 2632 H 241.936 -3.20906 2.7712 0
M  V30 2633 C 240.395 -3.11305 1.28805 0
M  V30 2634 O 240.925 -3.97171 0.60153 0
M  V30 2635 N 239.131 -2.71111 1.04628 0
M  V30 2636 H 238.678 -2.01382 1.60634 0
M  V30 2637 H 238.636 -3.1309 0.286685 0
M  V30 2638 N 242.408 -1.52605 -0.393616 0
M  V30 2639 C 243.338 -1.80022 -1.48709 0
M  V30 2640 C 244.319 -0.651995 -1.57108 0
M  V30 2641 O 245.504 -0.89913 -1.72132 0
M  V30 2642 C 242.634 -1.96492 -2.86371 0
M  V30 2643 C 241.588 -3.12161 -2.92813 0
M  V30 2644 C 240.914 -3.13877 -4.3288 0
M  V30 2645 C 242.214 -4.51322 -2.6288 0
M  V30 2646 H 243.908 -2.71589 -1.26015 0
M  V30 2647 H 241.454 -1.30684 -0.604778 0
M  V30 2648 H 243.407 -2.14255 -3.62867 0
M  V30 2649 H 242.131 -1.01611 -3.10391 0
M  V30 2650 H 240.79 -2.94173 -2.18764 0
M  V30 2651 H 240.438 -2.16687 -4.53933 0
M  V30 2652 H 240.138 -3.91576 -4.38112 0
M  V30 2653 H 241.662 -3.33789 -5.1129 0
M  V30 2654 H 243.076 -4.69435 -3.29096 0
M  V30 2655 H 241.473 -5.31053 -2.79468 0
M  V30 2656 H 242.543 -4.58353 -1.58242 0
M  V30 2657 N 243.887 0.651787 -1.4349 0
M  V30 2658 C 244.817 1.77621 -1.51569 0
M  V30 2659 C 245.798 1.66022 -0.370253 0
M  V30 2660 O 246.983 1.85095 -0.587658 0
M  V30 2661 C 244.113 3.16056 -1.43966 0
M  V30 2662 C 243.067 3.4242 -2.56774 0
M  V30 2663 C 242.393 4.8067 -2.34223 0
M  V30 2664 C 243.693 3.37023 -3.99015 0
M  V30 2665 H 245.387 1.71117 -2.45681 0
M  V30 2666 H 242.933 0.821825 -1.18246 0
M  V30 2667 H 244.886 3.94472 -1.48221 0
M  V30 2668 H 243.61 3.23293 -0.463586 0
M  V30 2669 H 242.269 2.66375 -2.51873 0
M  V30 2670 H 241.917 4.84585 -1.34856 0
M  V30 2671 H 241.617 4.9927 -3.09844 0
M  V30 2672 H 243.141 5.61342 -2.40265 0
M  V30 2673 H 244.555 4.05374 -4.05395 0
M  V30 2674 H 242.952 3.67159 -4.74673 0
M  V30 2675 H 244.022 2.3518 -4.2405 0
M  V30 2676 N 245.365 1.30045 0.890287 0
M  V30 2677 C 246.776 1.16738 1.45702 0
M  V30 2678 C 247.127 -0.233939 1.948 0
M  V30 2679 O 246.252 -1.13021 1.84541 0
M  V30 2680 C 246.847 2.11313 2.64825 0
M  V30 2681 C 245.406 2.02001 3.17604 0
M  V30 2682 C 244.553 2.01699 1.90296 0
M  V30 2683 H 247.504 1.42392 0.700726 0
M  V30 2684 H 247.525 1.69086 3.40867 0
M  V30 2685 H 247.037 3.13294 2.2906 0
M  V30 2686 H 245.138 1.03142 3.5804 0
M  V30 2687 H 245.251 2.90128 3.81264 0
M  V30 2688 H 243.615 1.46427 2.08402 0
M  V30 2689 H 244.398 3.05402 1.56795 0
M  V30 2690 N 246.843 -1.10192 1.12674 0
M  V30 2691 C 248.091 -1.81845 0.881861 0
M  V30 2692 C 248.412 -1.85737 -0.593867 0
M  V30 2693 O 247.682 -1.33724 -1.4316 0
M  V30 2694 H 246.262 -0.673432 0.323261 0
M  V30 2695 H 248.924 -1.33316 1.42172 0
M  V30 2696 H 248.02 -2.85288 1.2656 0
M  V30 2697 N 248.321 -0.919034 -1.28029 0
M  V30 2698 C 249.57 -0.550802 -1.94034 0
M  V30 2699 C 249.883 0.910877 -1.73096 0
M  V30 2700 O 251.089 1.3875 -2.33368 0
M  V30 2701 C 249.545 -0.934249 -3.47563 0
M  V30 2702 C 249.153 -2.41602 -3.7727 0
M  V30 2703 C 250.897 -0.636854 -4.19696 0
M  V30 2704 C 248.804 -2.73932 -5.24133 0
M  V30 2705 H 247.734 -0.202273 -0.726362 0
M  V30 2706 H 250.385 -1.11867 -1.45458 0
M  V30 2707 H 248.767 -0.295115 -3.94899 0
M  V30 2708 H 249.941 -3.10233 -3.40723 0
M  V30 2709 H 248.256 -2.68441 -3.18321 0
M  V30 2710 H 250.853 -0.855005 -5.2782 0
M  V30 2711 H 251.196 0.425575 -4.14119 0
M  V30 2712 H 251.729 -1.23469 -3.78154 0
M  V30 2713 H 248.468 -3.79049 -5.34792 0
M  V30 2714 H 247.988 -2.09942 -5.61858 0
M  V30 2715 H 249.667 -2.61215 -5.91925 0
M  V30 2716 N 249.799 1.42003 -0.683588 0
M  V30 2717 C 251.076 1.95112 -0.138075 0
M  V30 2718 C 251.456 1.62359 1.34918 0
M  V30 2719 O 250.804 0.924311 2.08971 0
M  V30 2720 C 251.014 3.46505 -0.416581 0
M  V30 2721 C 252.362 4.23254 -0.337834 0
M  V30 2722 O 253.386 3.54468 -0.35082 0
M  V30 2723 O 252.245 5.45743 -0.287596 0
M  V30 2724 H 249.339 0.826961 -0.00797996 0
M  V30 2725 H 251.885 1.51784 -0.758924 0
M  V30 2726 H 250.657 3.63582 -1.4465 0
M  V30 2727 H 250.28 3.969 0.235839 0
M  V30 2728 N 251.277 0.427512 1.51691 0
M  V30 2729 C 252.523 -0.134744 2.02953 0
M  V30 2730 C 252.878 -1.41235 1.30654 0
M  V30 2731 O 252.171 -1.87168 0.409713 0
M  V30 2732 C 252.365 -0.418249 3.54944 0
M  V30 2733 C 252.194 0.830327 4.41968 0
M  V30 2734 C 250.964 1.36097 4.86627 0
M  V30 2735 C 253.162 1.7137 4.84909 0
M  V30 2736 N 251.144 2.56311 5.57833 0
M  V30 2737 C 252.515 2.76195 5.55082 0
M  V30 2738 C 254.57 1.72928 4.66905 0
M  V30 2739 C 253.273 3.82512 6.09161 0
M  V30 2740 C 255.299 2.78175 5.21894 0
M  V30 2741 C 254.661 3.8172 5.92004 0
M  V30 2742 H 250.76 -0.0103958 0.781931 0
M  V30 2743 H 253.344 0.585981 1.85673 0
M  V30 2744 H 251.515 -1.10801 3.7226 0
M  V30 2745 H 253.247 -0.970999 3.92879 0
M  V30 2746 H 250.002 0.916311 4.64651 0
M  V30 2747 H 250.426 3.17242 5.98069 0
M  V30 2748 H 255.068 0.942081 4.12171 0
M  V30 2749 H 252.786 4.62077 6.62956 0
M  V30 2750 H 256.372 2.8031 5.09821 0
M  V30 2751 H 255.252 4.61821 6.33791 0
M  V30 2752 N 252.755 -1.56801 0.158532 0
M  V30 2753 C 253.685 -2.20347 -0.772609 0
M  V30 2754 C 254.666 -1.15518 -1.24859 0
M  V30 2755 O 255.851 -1.43902 -1.30406 0
M  V30 2756 C 252.981 -2.83417 -2.00729 0
M  V30 2757 C 251.935 -3.94174 -1.66765 0
M  V30 2758 C 251.261 -4.44233 -2.97592 0
M  V30 2759 C 252.561 -5.14392 -0.905447 0
M  V30 2760 H 254.255 -2.98413 -0.242959 0
M  V30 2761 H 251.801 -1.43537 -0.115419 0
M  V30 2762 H 253.754 -3.26543 -2.6636 0
M  V30 2763 H 252.478 -2.02701 -2.56086 0
M  V30 2764 H 251.137 -3.51684 -1.03508 0
M  V30 2765 H 250.785 -3.60325 -3.50963 0
M  V30 2766 H 250.485 -5.18945 -2.75626 0
M  V30 2767 H 252.009 -4.90037 -3.64274 0
M  V30 2768 H 253.423 -5.5429 -1.46408 0
M  V30 2769 H 251.82 -5.9494 -0.7853 0
M  V30 2770 H 252.89 -4.84795 0.100668 0
M  V30 2771 N 254.233 0.115231 -1.57178 0
M  V30 2772 C 255.163 1.1423 -2.03651 0
M  V30 2773 C 256.144 1.42967 -0.921655 0
M  V30 2774 O 257.329 1.53343 -1.19162 0
M  V30 2775 C 254.459 2.4675 -2.44401 0
M  V30 2776 C 253.413 2.32467 -3.59365 0
M  V30 2777 C 252.739 3.69984 -3.86026 0
M  V30 2778 C 254.039 1.78203 -4.90959 0
M  V30 2779 H 255.733 0.755749 -2.89705 0
M  V30 2780 H 253.279 0.362093 -1.39373 0
M  V30 2781 H 255.232 3.18854 -2.75517 0
M  V30 2782 H 253.956 2.87302 -1.55322 0
M  V30 2783 H 252.615 1.62811 -3.28463 0
M  V30 2784 H 252.263 4.08028 -2.94147 0
M  V30 2785 H 251.963 3.61279 -4.63412 0
M  V30 2786 H 253.487 4.43587 -4.19599 0
M  V30 2787 H 254.901 2.40128 -5.20587 0
M  V30 2788 H 253.298 1.8031 -5.72371 0
M  V30 2789 H 254.368 0.739876 -4.79222 0
M  V30 2790 N 255.711 1.52812 0.385517 0
M  V30 2791 C 256.988 1.5861 1.14465 0
M  V30 2792 C 257.368 0.381402 2.07626 0
M  V30 2793 O 256.716 -0.629999 2.19643 0
M  V30 2794 C 256.926 2.92664 1.90128 0
M  V30 2795 C 258.274 3.46526 2.45367 0
M  V30 2796 O 259.298 2.94562 2.0028 0
M  V30 2797 O 258.157 4.37323 3.27736 0
M  V30 2798 H 255.251 0.639855 0.523941 0
M  V30 2799 H 257.797 1.65149 0.390389 0
M  V30 2800 H 256.569 3.71788 1.22022 0
M  V30 2801 H 256.192 2.89527 2.72507 0
M  V30 2802 N 257.189 -0.644168 1.43834 0
M  V30 2803 C 258.466 -1.40188 1.36406 0
M  V30 2804 C 258.846 -2.11094 0.0163124 0
M  V30 2805 O 258.194 -2.05426 -1.00062 0
M  V30 2806 C 258.404 -2.3791 2.55343 0
M  V30 2807 C 259.752 -3.01637 2.98832 0
M  V30 2808 O 260.776 -2.48237 2.55455 0
M  V30 2809 O 259.635 -3.98477 3.74003 0
M  V30 2810 H 256.729 -0.626773 0.539523 0
M  V30 2811 H 259.275 -0.670317 1.559 0
M  V30 2812 H 258.047 -1.84525 3.4506 0
M  V30 2813 H 257.67 -3.18503 2.37995 0
M  V30 2814 N 258.668 -1.30515 -0.883378 0
M  V30 2815 C 259.917 -1.18795 -1.63005 0
M  V30 2816 C 260.23 0.255923 -1.93919 0
M  V30 2817 O 261.436 0.494654 -2.66956 0
M  V30 2818 C 259.892 -2.07878 -2.93794 0
M  V30 2819 C 259.5 -3.57184 -2.70414 0
M  V30 2820 C 261.244 -2.04924 -3.71761 0
M  V30 2821 C 259.151 -4.38317 -3.97029 0
M  V30 2822 H 258.081 -0.441031 -0.611562 0
M  V30 2823 H 260.732 -1.55275 -0.977854 0
M  V30 2824 H 259.114 -1.64283 -3.60315 0
M  V30 2825 H 260.288 -4.08937 -2.12384 0
M  V30 2826 H 258.603 -3.61976 -2.0582 0
M  V30 2827 H 261.2 -2.62792 -4.65665 0
M  V30 2828 H 261.543 -1.0331 -4.03277 0
M  V30 2829 H 262.076 -2.46649 -3.12104 0
M  V30 2830 H 258.815 -5.40632 -3.70671 0
M  V30 2831 H 258.335 -3.91326 -4.54559 0
M  V30 2832 H 260.014 -4.49834 -4.65036 0
M  V30 2833 N 260.146 1.09593 -1.13257 0
M  V30 2834 C 261.371 1.8604 -0.916732 0
M  V30 2835 C 261.796 1.80504 0.529146 0
M  V30 2836 O 261.154 1.18127 1.37534 0
M  V30 2837 C 261.202 3.32017 -1.40703 0
M  V30 2838 O 260.306 4.08141 -0.591153 0
M  V30 2839 H 259.647 0.576943 -0.328683 0
M  V30 2840 H 262.177 1.38405 -1.50682 0
M  V30 2841 H 262.187 3.82865 -1.4099 0
M  V30 2842 H 260.862 3.35361 -2.45979 0
M  V30 2843 H 259.439 3.67084 -0.656005 0
M  V30 2844 N 261.624 0.925811 1.2754 0
M  V30 2845 C 262.849 0.580924 1.99098 0
M  V30 2846 C 263.274 -0.833555 1.68622 0
M  V30 2847 O 262.632 -1.55903 0.925422 0
M  V30 2848 C 262.68 0.811186 3.51358 0
M  V30 2849 O 261.784 -0.124129 4.12213 0
M  V30 2850 H 261.125 0.223873 0.625122 0
M  V30 2851 H 263.655 1.24455 1.62395 0
M  V30 2852 H 263.665 0.72601 4.01489 0
M  V30 2853 H 262.34 1.84227 3.72872 0
M  V30 2854 H 260.917 0.0108006 3.72898 0
M  V30 2855 N 263.102 -1.41638 0.69111 0
M  V30 2856 C 264.518 -1.55435 0.362224 0
M  V30 2857 C 264.718 -1.66754 -1.13117 0
M  V30 2858 O 263.774 -1.64348 -1.91692 0
M  V30 2859 C 265.087 -2.79588 1.10684 0
M  V30 2860 C 266.635 -2.9338 1.09075 0
M  V30 2861 C 267.11 -4.20414 1.81703 0
M  V30 2862 N 268.601 -4.27362 1.7865 0
M  V30 2863 C 269.336 -5.24507 2.31689 0
M  V30 2864 N 268.832 -6.27708 2.93179 0
M  V30 2865 N 270.625 -5.16416 2.2197 0
M  V30 2866 H 262.776 -1.32536 1.65976 0
M  V30 2867 H 265.039 -0.639115 0.700168 0
M  V30 2868 H 264.745 -2.77419 2.16175 0
M  V30 2869 H 264.619 -3.70973 0.682545 0
M  V30 2870 H 267.006 -2.95067 0.0441238 0
M  V30 2871 H 267.087 -2.0318 1.55407 0
M  V30 2872 H 266.731 -4.19488 2.86343 0
M  V30 2873 H 266.661 -5.09578 1.32808 0
M  V30 2874 H 269.152 -3.53415 1.33815 0
M  V30 2875 H 269.465 -6.98217 3.31229 0
M  V30 2876 H 267.81 -6.28223 2.97255 0
M  V30 2877 H 271.001 -4.34716 1.73607 0
M  V30 2878 H 271.174 -5.91958 2.63609 0
M  V30 2879 N 264.58 -0.43555 -1.51462 0
M  V30 2880 C 265.829 0.133007 -2.01261 0
M  V30 2881 C 266.142 1.43942 -1.32439 0
M  V30 2882 O 267.348 2.09081 -1.73198 0
M  V30 2883 C 265.804 0.287581 -3.58749 0
M  V30 2884 C 265.412 -1.00829 -4.36506 0
M  V30 2885 C 267.156 0.810004 -4.167 0
M  V30 2886 C 265.063 -0.819454 -5.85695 0
M  V30 2887 H 263.993 0.0534822 -0.752101 0
M  V30 2888 H 266.644 -0.565038 -1.74584 0
M  V30 2889 H 265.026 1.04859 -3.81865 0
M  V30 2890 H 266.2 -1.77749 -4.25138 0
M  V30 2891 H 264.515 -1.45911 -3.89999 0
M  V30 2892 H 267.112 0.967743 -5.2587 0
M  V30 2893 H 267.455 1.79196 -3.75758 0
M  V30 2894 H 267.988 0.107357 -3.97655 0
M  V30 2895 H 264.727 -1.77374 -6.31046 0
M  V30 2896 H 264.247 -0.0900208 -5.99732 0
M  V30 2897 H 265.926 -0.471949 -6.45276 0
M  V30 2898 N 266.058 1.56714 -0.166846 0
M  V30 2899 C 267.305 1.96747 0.479252 0
M  V30 2900 C 267.633 1.05263 1.63554 0
M  V30 2901 O 266.888 0.0858098 1.95512 0
M  V30 2902 C 267.187 3.42889 1.00806 0
M  V30 2903 C 266.853 4.50889 -0.0318574 0
M  V30 2904 C 265.515 4.8015 -0.317675 0
M  V30 2905 C 267.867 5.15949 -0.737956 0
M  V30 2906 C 265.195 5.71772 -1.31506 0
M  V30 2907 C 267.547 6.08647 -1.72429 0
M  V30 2908 C 266.211 6.36277 -2.0176 0
M  V30 2909 H 265.481 0.719949 0.175371 0
M  V30 2910 H 268.128 1.89756 -0.257864 0
M  V30 2911 H 266.433 3.4681 1.82291 0
M  V30 2912 H 268.13 3.71203 1.51689 0
M  V30 2913 H 264.72 4.28128 0.201088 0
M  V30 2914 H 268.904 4.93458 -0.530351 0
M  V30 2915 H 264.16 5.91465 -1.54853 0
M  V30 2916 H 268.334 6.58129 -2.27682 0
M  V30 2917 H 265.961 7.07075 -2.79194 0
M  V30 2918 N 267.536 -0.106894 1.57237 0
M  V30 2919 C 268.764 -0.826389 1.8968 0
M  V30 2920 C 269.179 -1.72856 0.759353 0
M  V30 2921 O 268.536 -1.80503 -0.269263 0
M  V30 2922 C 268.587 -1.64967 3.21665 0
M  V30 2923 O 268.308 -0.783804 4.31031 0
M  V30 2924 C 269.809 -2.47326 3.67892 0
M  V30 2925 H 267.029 -0.236927 0.627779 0
M  V30 2926 H 269.573 -0.0876593 2.04312 0
M  V30 2927 H 267.728 -2.34103 3.08666 0
M  V30 2928 H 268.142 -1.35284 5.06753 0
M  V30 2929 H 269.616 -3.00604 4.6297 0
M  V30 2930 H 270.093 -3.25247 2.95146 0
M  V30 2931 H 270.699 -1.83411 3.83719 0
M  V30 2932 N 269.014 -1.53014 -0.377408 0
M  V30 2933 C 269.977 -1.77957 -1.44444 0
M  V30 2934 C 270.977 -0.649763 -1.47087 0
M  V30 2935 O 272.167 -0.917897 -1.48055 0
M  V30 2936 C 269.299 -1.89089 -2.83651 0
M  V30 2937 H 270.492 -2.73243 -1.23606 0
M  V30 2938 H 268.045 -1.43912 -0.609844 0
M  V30 2939 H 268.78 -0.958293 -3.09818 0
M  V30 2940 H 268.565 -2.71254 -2.83132 0
M  V30 2941 H 270.055 -2.1002 -3.60945 0
M  V30 2942 N 270.492 0.636531 -1.44174 0
M  V30 2943 C 271.769 1.39463 -1.37148 0
M  V30 2944 C 272.149 2.11082 -0.027507 0
M  V30 2945 O 271.497 2.05954 0.989716 0
M  V30 2946 C 271.707 2.36552 -2.56601 0
M  V30 2947 C 273.055 3.00048 -3.00427 0
M  V30 2948 O 274.079 2.46878 -2.56767 0
M  V30 2949 O 272.938 3.96488 -3.76111 0
M  V30 2950 H 270.032 0.623903 -0.542839 0
M  V30 2951 H 272.578 0.662039 -1.56253 0
M  V30 2952 H 271.35 1.82692 -3.46034 0
M  V30 2953 H 270.973 3.17236 -2.39681 0
M  V30 2954 O 272.009 1.41421 0.779892 0
M  V30 2955 H 272.7 1.31013 1.42672 0
M  V30 END ATOM
M  V30 BEGIN BOND
M  V30 END BOND
M  V30 END CTAB
M  END
$$$$
