drugbank_target|Q96GD4 Aurora kinase B (DB04703; DB05169; DB06486; DB07340; DB12010)
 OpenBabel12092120313D

  0  0  0     0  0            999 V3000
M  V30 BEGIN CTAB
M  V30 COUNTS 5582 5650 0 0 0
M  V30 BEGIN ATOM
M  V30 1 H -0.908 1.98254 -0.117106 0
M  V30 2 N 0 1.576 0 0
M  V30 3 C 0.933 2.03868 1.02534 0
M  V30 4 C 1.911 0.928543 1.3348 0
M  V30 5 O 3.095 1.19667 1.45644 0
M  V30 6 C 0.222 2.43627 2.35294 0
M  V30 7 C -0.732 3.65373 2.2001 0
M  V30 8 S 0.101 5.13292 1.52614 0
M  V30 9 C 1.257 5.56322 2.86805 0
M  V30 10 H 1.49 2.90518 0.631377 0
M  V30 11 H -0.977 1.52953 0.210867 0
M  V30 12 H 0.981 2.67203 3.11629 0
M  V30 13 H -0.358 1.57376 2.7183 0
M  V30 14 H -1.165 3.90944 3.18086 0
M  V30 15 H -1.563 3.418 1.51819 0
M  V30 16 H 0.729 5.58782 3.83104 0
M  V30 17 H 1.672 6.56266 2.65933 0
M  V30 18 H 2.08 4.83886 2.90714 0
M  V30 19 N 1.4781 -0.272755 1.55222 0
M  V30 20 C 2.4411 -1.32041 1.87344 0
M  V30 21 C 3.4411 -1.42342 0.74803 0
M  V30 22 O 4.6311 -1.41488 1.0162 0
M  V30 23 C 1.7631 -2.70173 2.07893 0
M  V30 24 H 2.9561 -1.04789 2.80997 0
M  V30 25 H 0.5091 -0.51083 1.47717 0
M  V30 26 H 1.2441 -3.02605 1.16622 0
M  V30 27 H 1.0291 -2.64082 2.89833 0
M  V30 28 H 2.5191 -3.45869 2.34017 0
M  V30 29 N 2.9562 -1.48159 -0.537278 0
M  V30 30 C 3.8882 -1.58218 -1.65831 0
M  V30 31 C 4.9012 -0.466948 -1.5596 0
M  V30 32 O 6.0902 -0.73747 -1.62553 0
M  V30 33 C 3.1902 -1.48906 -3.04434 0
M  V30 34 C 2.3632 -2.75343 -3.3986 0
M  V30 35 C 1.4222 -2.59588 -4.57712 0
M  V30 36 O 0.4482 -3.33457 -4.61297 0
M  V30 37 N 1.6502 -1.68724 -5.55439 0
M  V30 38 H 4.4152 -2.54891 -1.57641 0
M  V30 39 H 1.9762 -1.4479 -0.724386 0
M  V30 40 H 3.9682 -1.36072 -3.81139 0
M  V30 41 H 2.5382 -0.602368 -3.06741 0
M  V30 42 H 1.7582 -3.02795 -2.52406 0
M  V30 43 H 3.0462 -3.5924 -3.60311 0
M  V30 44 H 2.4442 -1.07898 -5.55315 0
M  V30 45 H 1.0012 -1.61832 -6.3139 0
M  V30 46 N 4.4343 0.785586 -1.36625 0
M  V30 47 C 5.3813 1.89838 -1.31264 0
M  V30 48 C 6.3513 1.65115 -0.180633 0
M  V30 49 O 7.5363 1.87222 -0.36777 0
M  V30 50 C 4.6763 3.26706 -1.11163 0
M  V30 51 C 3.7893 3.63476 -2.33472 0
M  V30 52 C 2.9243 4.89481 -2.06353 0
M  V30 53 C 1.9633 5.18941 -3.24602 0
M  V30 54 N 1.1003 6.36131 -2.97123 0
M  V30 55 H 5.9403 1.93756 -2.26413 0
M  V30 56 H 3.4773 0.947454 -1.12524 0
M  V30 57 H 5.4353 4.05639 -0.975337 0
M  V30 58 H 4.0653 3.222 -0.196674 0
M  V30 59 H 3.1173 2.79636 -2.57891 0
M  V30 60 H 4.4293 3.81193 -3.21704 0
M  V30 61 H 3.5833 5.76288 -1.89675 0
M  V30 62 H 2.3223 4.73841 -1.15437 0
M  V30 63 H 1.3273 4.30615 -3.41834 0
M  V30 64 H 2.5523 5.36498 -4.16349 0
M  V30 65 H 0.4983 6.21875 -2.08823 0
M  V30 66 H 0.4153 6.54198 -3.78894 0
M  V30 67 H 1.6833 7.2591 -2.84033 0
M  V30 68 N 5.9124 1.20967 1.01018 0
M  V30 69 C 6.8224 0.980157 2.13143 0
M  V30 70 C 7.8384 -0.0660665 1.73875 0
M  V30 71 O 9.0144 0.122821 2.01025 0
M  V30 72 C 6.0794 0.54216 3.42435 0
M  V30 73 C 5.1404 1.65999 3.95908 0
M  V30 74 C 4.3734 1.2428 5.19028 0
M  V30 75 O 4.5964 0.114196 5.70286 0
M  V30 76 O 3.5304 2.05271 5.65816 0
M  V30 77 H 7.3564 1.91913 2.35379 0
M  V30 78 H 4.9414 0.994099 1.11526 0
M  V30 79 H 6.8234 0.30744 4.20277 0
M  V30 80 H 5.4984 -0.36815 3.216 0
M  V30 81 H 4.4054 1.94906 3.19316 0
M  V30 82 H 5.7384 2.54753 4.21143 0
M  V30 83 N 7.3905 -1.2043 1.01659 0
M  V30 84 C 8.3385 -2.25249 0.580143 0
M  V30 85 C 9.3325 -1.65057 -0.381115 0
M  V30 86 O 10.5385 -1.78241 -0.251039 0
M  V30 87 H 6.9135 -0.732695 0.169299 0
M  V30 88 H 8.8845 -2.59389 1.47512 0
M  V30 89 C 7.6335 -3.47638 -0.065788 0
M  V30 90 H 6.9565 -3.94233 0.664874 0
M  V30 91 H 8.3965 -4.2268 -0.334282 0
M  V30 92 C 6.8555 -3.10447 -1.3086 0
M  V30 93 O 7.3855 -3.21981 -2.4019 0
M  V30 94 N 5.5915 -2.64996 -1.1927 0
M  V30 95 H 5.1385 -2.55811 -0.303064 0
M  V30 96 H 5.0965 -2.40482 -2.02523 0
M  V30 97 N 8.8686 -0.792821 -1.36206 0
M  V30 98 C 10.0936 -0.377701 -2.03932 0
M  V30 99 C 10.5186 0.998947 -1.59382 0
M  V30 100 O 9.8766 1.64421 -0.763903 0
M  V30 101 C 9.9246 -0.453635 -3.57735 0
M  V30 102 O 9.0286 0.538151 -4.08874 0
M  V30 103 H 8.3696 -0.159855 -0.644471 0
M  V30 104 H 10.8996 -1.07488 -1.7409 0
M  V30 105 H 10.9096 -0.318464 -4.06755 0
M  V30 106 H 9.5846 -1.45784 -3.89512 0
M  V30 107 H 8.1616 0.364359 -3.71116 0
M  V30 108 N 10.3467 1.47872 -0.545128 0
M  V30 109 C 11.5767 2.06589 -0.0210534 0
M  V30 110 C 11.9847 1.39997 1.27269 0
M  V30 111 O 11.3277 0.486421 1.77143 0
M  V30 112 C 11.3897 3.58574 0.257933 0
M  V30 113 C 11.0537 4.47132 -0.944573 0
M  V30 114 C 12.0507 4.85986 -1.84699 0
M  V30 115 C 9.7357 4.88821 -1.15584 0
M  V30 116 C 11.7297 5.65314 -2.94446 0
M  V30 117 C 9.4167 5.67916 -2.25642 0
M  V30 118 C 10.4147 6.06073 -3.14905 0
M  V30 119 O 10.1027 6.83578 -4.23057 0
M  V30 120 H 9.8347 0.674971 -0.0372899 0
M  V30 121 H 12.3887 1.91037 -0.754599 0
M  V30 122 H 10.6187 3.72295 1.04564 0
M  V30 123 H 12.3077 3.99356 0.72592 0
M  V30 124 H 13.0737 4.54388 -1.69577 0
M  V30 125 H 8.9527 4.58595 -0.470279 0
M  V30 126 H 12.4967 5.95016 -3.64145 0
M  V30 127 H 8.3937 5.98927 -2.40742 0
M  V30 128 H 9.1617 7.01954 -4.20954 0
M  V30 129 N 11.8248 0.280983 1.55075 0
M  V30 130 C 13.2358 -0.215629 1.85451 0
M  V30 131 C 13.5868 -1.54991 1.203 0
M  V30 132 O 12.7118 -2.10699 0.493435 0
M  V30 133 C 13.3068 -0.398026 3.36454 0
M  V30 134 C 11.8658 -0.838866 3.66933 0
M  V30 135 C 11.0128 0.064458 2.77225 0
M  V30 136 H 13.9638 0.502601 1.50531 0
M  V30 137 H 13.9848 -1.23569 3.59876 0
M  V30 138 H 13.4968 0.573241 3.83843 0
M  V30 139 H 11.5978 -1.8214 3.25048 0
M  V30 140 H 11.7108 -0.672123 4.74362 0
M  V30 141 H 10.0748 -0.452863 2.50642 0
M  V30 142 H 10.8578 1.03172 3.2743 0
M  V30 143 N 13.3029 -1.57598 0.00835791 0
M  V30 144 C 14.5489 -1.92046 -0.670055 0
M  V30 145 C 14.9039 -0.88351 -1.70915 0
M  V30 146 O 14.1969 0.103223 -1.91322 0
M  V30 147 C 14.3909 -3.3101 -1.34787 0
M  V30 148 C 14.2199 -4.48126 -0.375945 0
M  V30 149 C 12.9899 -5.05297 0.0166914 0
M  V30 150 C 15.1879 -5.1303 0.361272 0
M  V30 151 N 13.1699 -6.05931 0.985952 0
M  V30 152 C 14.5409 -6.08571 1.18495 0
M  V30 153 C 16.5959 -4.9609 0.42421 0
M  V30 154 C 15.2989 -6.88996 2.06584 0
M  V30 155 C 17.3249 -5.77107 1.29236 0
M  V30 156 C 16.6869 -6.72248 2.10386 0
M  V30 157 H 12.7859 -0.75096 -0.218136 0
M  V30 158 H 15.3699 -1.94572 0.0706669 0
M  V30 159 H 13.5409 -3.29342 -2.05884 0
M  V30 160 H 15.2729 -3.52864 -1.98164 0
M  V30 161 H 12.0279 -4.72279 -0.353435 0
M  V30 162 H 12.4519 -6.60932 1.4662 0
M  V30 163 H 17.0939 -4.22378 -0.188915 0
M  V30 164 H 14.8119 -7.62028 2.6896 0
M  V30 165 H 18.3979 -5.66038 1.34508 0
M  V30 166 H 17.2779 -7.33846 2.76476 0
M  V30 167 N 14.781 0.264519 -1.55364 0
M  V30 168 C 16.192 0.834936 -1.6699 0
M  V30 169 C 16.543 1.86718 -0.602552 0
M  V30 170 O 15.668 2.14899 0.254425 0
M  V30 171 C 16.263 1.5212 -3.02729 0
M  V30 172 C 14.822 2.03954 -3.16354 0
M  V30 173 C 13.969 0.884498 -2.62815 0
M  V30 174 H 16.92 0.0406869 -1.58648 0
M  V30 175 H 16.941 2.38853 -2.96191 0
M  V30 176 H 16.453 0.769668 -3.80392 0
M  V30 177 H 14.554 2.82041 -2.43482 0
M  V30 178 H 14.667 2.24902 -4.23032 0
M  V30 179 H 13.031 1.2802 -2.20188 0
M  V30 180 H 13.814 0.14634 -3.42988 0
M  V30 181 N 16.2591 1.48442 0.529413 0
M  V30 182 C 17.4891 1.59919 1.30804 0
M  V30 183 C 17.8971 0.258792 1.87422 0
M  V30 184 O 17.2401 -0.762096 1.67146 0
M  V30 185 C 17.3021 2.58693 2.49636 0
M  V30 186 C 16.9661 4.03745 2.14101 0
M  V30 187 C 17.9631 4.9141 1.6974 0
M  V30 188 C 15.6481 4.49285 2.24607 0
M  V30 189 C 17.6421 6.22645 1.36351 0
M  V30 190 C 15.3291 5.8054 1.9083 0
M  V30 191 C 16.3271 6.67043 1.46773 0
M  V30 192 O 16.0151 7.95856 1.1344 0
M  V30 193 H 15.7471 0.541981 0.404021 0
M  V30 194 H 18.3011 1.95 0.645309 0
M  V30 195 H 16.5311 2.18734 3.18892 0
M  V30 196 H 18.2201 2.59999 3.11698 0
M  V30 197 H 18.9861 4.57465 1.61094 0
M  V30 198 H 14.8651 3.82142 2.57854 0
M  V30 199 H 18.4091 6.90119 1.01891 0
M  V30 200 H 14.3061 6.14022 1.99117 0
M  V30 201 H 15.0741 8.08613 1.26832 0
M  V30 202 N 17.7372 -0.778329 1.37039 0
M  V30 203 C 18.9852 -1.53361 1.31623 0
M  V30 204 C 19.3062 -1.94739 -0.100831 0
M  V30 205 O 18.5762 -1.65797 -1.04347 0
M  V30 206 H 17.1562 -0.568794 0.484234 0
M  V30 207 H 19.8182 -0.926742 1.71457 0
M  V30 208 H 18.9142 -2.43606 1.95096 0
M  V30 209 N 19.2153 -1.21501 -1.00376 0
M  V30 210 C 20.6313 -0.972629 -1.26539 0
M  V30 211 C 20.8313 0.340257 -1.98606 0
M  V30 212 O 19.8873 1.06561 -2.28913 0
M  V30 213 C 21.2003 -2.16404 -2.08781 0
M  V30 214 C 22.7483 -2.20643 -2.22004 0
M  V30 215 C 23.2233 -3.39306 -3.07629 0
M  V30 216 N 24.7143 -3.39401 -3.15217 0
M  V30 217 C 25.4493 -4.27867 -3.81729 0
M  V30 218 N 24.9453 -5.26533 -4.5026 0
M  V30 219 N 26.7383 -4.15672 -3.78382 0
M  V30 220 H 18.8893 -2.05929 -0.520281 0
M  V30 221 H 21.1523 -0.901803 -0.292328 0
M  V30 222 H 20.8583 -3.11554 -1.63178 0
M  V30 223 H 20.7323 -2.15567 -3.09533 0
M  V30 224 H 23.1193 -1.26048 -2.66825 0
M  V30 225 H 23.2003 -2.25523 -1.20718 0
M  V30 226 H 22.8443 -4.34195 -2.63509 0
M  V30 227 H 22.7743 -3.31665 -4.09031 0
M  V30 228 H 25.2653 -2.67997 -2.66432 0
M  V30 229 H 25.5783 -5.90337 -4.98721 0
M  V30 230 H 23.9233 -5.30457 -4.49044 0
M  V30 231 H 27.1143 -3.3785 -3.23998 0
M  V30 232 H 27.2873 -4.84825 -4.2994 0
M  V30 233 N 20.6934 1.19889 -1.02296 0
M  V30 234 C 21.6254 2.22334 -0.556787 0
M  V30 235 C 22.6384 1.58674 0.364199 0
M  V30 236 O 23.8274 1.77768 0.161533 0
M  V30 237 C 20.9274 3.38257 0.208694 0
M  V30 238 C 20.1004 4.31504 -0.71577 0
M  V30 239 C 19.1594 5.262 0.00325597 0
M  V30 240 O 18.1854 5.65798 -0.621357 0
M  V30 241 N 19.3874 5.66303 1.27599 0
M  V30 242 H 22.1524 2.62957 -1.43784 0
M  V30 243 H 19.7134 1.34495 -0.901261 0
M  V30 244 H 21.7054 3.98616 0.699111 0
M  V30 245 H 20.2754 2.96472 0.991102 0
M  V30 246 H 19.4954 3.69016 -1.38638 0
M  V30 247 H 20.7834 4.9072 -1.34428 0
M  V30 248 H 20.1814 5.36155 1.80429 0
M  V30 249 H 18.7384 6.28942 1.71102 0
M  V30 250 N 22.1715 0.800033 1.35784 0
M  V30 251 C 23.3995 0.389606 2.03199 0
M  V30 252 C 23.8145 -0.997375 1.60306 0
M  V30 253 O 23.1715 -1.64154 0.797481 0
M  V30 254 C 23.2225 0.455855 3.58614 0
M  V30 255 O 22.9435 1.78815 3.99946 0
M  V30 256 C 24.4445 0.0374032 4.43284 0
M  V30 257 H 21.6645 0.159132 0.651857 0
M  V30 258 H 24.2085 1.08183 1.73541 0
M  V30 259 H 22.3635 -0.188057 3.86943 0
M  V30 260 H 22.7775 1.74636 4.94573 0
M  V30 261 H 24.2515 0.134882 5.51835 0
M  V30 262 H 24.7285 -1.01651 4.27275 0
M  V30 263 H 25.3345 0.654215 4.20238 0
M  V30 264 N 23.6496 -1.47581 0.552962 0
M  V30 265 C 24.6126 -2.28439 -0.186605 0
M  V30 266 C 25.6126 -1.36706 -0.84665 0
M  V30 267 O 26.8026 -1.59378 -0.703164 0
M  V30 268 C 23.9346 -3.16264 -1.2724 0
M  V30 269 H 25.1276 -2.95294 0.523609 0
M  V30 270 H 22.6806 -1.532 0.309745 0
M  V30 271 H 23.4156 -2.54091 -2.01514 0
M  V30 272 H 23.2006 -3.83769 -0.803968 0
M  V30 273 H 24.6906 -3.77198 -1.79196 0
M  V30 274 N 25.1277 -0.289203 -1.54924 0
M  V30 275 C 26.5387 0.205791 -1.85562 0
M  V30 276 C 26.8897 1.54351 -1.2112 0
M  V30 277 O 26.0147 2.10435 -0.504601 0
M  V30 278 C 26.6097 0.380177 -3.3666 0
M  V30 279 C 25.1687 0.819395 -3.67373 0
M  V30 280 C 24.3157 -0.079159 -2.77187 0
M  V30 281 H 27.2667 -0.510577 -1.50262 0
M  V30 282 H 27.2877 1.21659 -3.60526 0
M  V30 283 H 26.7997 -0.593589 -3.83534 0
M  V30 284 H 24.9007 1.80413 -3.26009 0
M  V30 285 H 25.0137 0.646957 -4.74712 0
M  V30 286 H 23.3777 0.439565 -2.50878 0
M  V30 287 H 24.1607 -1.04906 -3.26878 0
M  V30 288 N 26.6058 1.57591 -0.0167156 0
M  V30 289 C 27.8308 1.9598 0.67872 0
M  V30 290 C 28.2558 0.892546 1.65575 0
M  V30 291 O 27.6138 -0.147772 1.80697 0
M  V30 292 C 27.6618 3.33468 1.37227 0
M  V30 293 O 26.7658 3.28954 2.48722 0
M  V30 294 H 26.1068 0.639339 0.17928 0
M  V30 295 H 28.6368 2.04463 -0.0748802 0
M  V30 296 H 28.6468 3.69417 1.7319 0
M  V30 297 H 27.3218 4.10694 0.656007 0
M  V30 298 H 25.8988 3.04705 2.14963 0
M  V30 299 N 28.0839 -0.256276 1.55502 0
M  V30 300 C 29.3319 -0.983672 1.76545 0
M  V30 301 C 29.6529 -1.86206 0.578982 0
M  V30 302 O 28.9229 -1.91656 -0.405577 0
M  V30 303 H 27.5029 -0.366191 0.651086 0
M  V30 304 H 30.1649 -0.276479 1.92929 0
M  V30 305 H 29.2609 -1.61087 2.67315 0
M  V30 306 N 29.562 -1.4872 -0.521534 0
M  V30 307 C 30.492 -1.66771 -1.63431 0
M  V30 308 C 31.473 -0.516499 -1.62069 0
M  V30 309 O 32.658 -0.750013 -1.79132 0
M  V30 310 C 29.788 -1.71515 -3.01993 0
M  V30 311 C 28.742 -2.86222 -3.18216 0
M  V30 312 C 28.068 -2.76061 -4.57924 0
M  V30 313 C 29.368 -4.27419 -3.00184 0
M  V30 314 H 31.062 -2.59932 -1.48579 0
M  V30 315 H 28.608 -1.25089 -0.713358 0
M  V30 316 H 30.561 -1.82731 -3.7972 0
M  V30 317 H 29.285 -0.749393 -3.17886 0
M  V30 318 H 27.944 -2.74575 -2.42908 0
M  V30 319 H 27.592 -1.77437 -4.70665 0
M  V30 320 H 27.292 -3.53037 -4.69722 0
M  V30 321 H 28.816 -2.89256 -5.37739 0
M  V30 322 H 30.23 -4.39855 -3.67697 0
M  V30 323 H 28.627 -5.05458 -3.2347 0
M  V30 324 H 29.697 -4.43293 -1.96518 0
M  V30 325 N 31.0401 0.771051 -1.3745 0
M  V30 326 C 32.2651 1.56529 -1.36065 0
M  V30 327 C 32.6901 1.88029 0.0515859 0
M  V30 328 O 32.0481 1.49282 1.02882 0
M  V30 329 C 32.0961 2.85187 -2.20683 0
M  V30 330 O 31.2001 3.79593 -1.61193 0
M  V30 331 H 30.5411 0.47411 -0.464883 0
M  V30 332 H 33.0711 0.954269 -1.80983 0
M  V30 333 H 33.0811 3.34283 -2.33921 0
M  V30 334 H 31.7561 2.61588 -3.23334 0
M  V30 335 H 30.3331 3.38239 -1.56999 0
M  V30 336 N 32.5182 1.22032 0.997298 0
M  V30 337 C 33.7462 1.06841 1.7718 0
M  V30 338 C 34.1612 -0.381325 1.84909 0
M  V30 339 O 33.5182 -1.26437 1.31605 0
M  V30 340 C 33.5692 1.66814 3.20711 0
M  V30 341 O 33.2902 3.06116 3.13408 0
M  V30 342 C 34.7912 1.56838 4.14628 0
M  V30 343 H 32.0112 0.374782 0.556578 0
M  V30 344 H 34.5552 1.61532 1.2541 0
M  V30 345 H 32.7102 1.16196 3.69564 0
M  V30 346 H 33.1242 3.34926 4.0364 0
M  V30 347 H 34.5982 2.03532 5.13107 0
M  V30 348 H 35.0752 0.524155 4.36061 0
M  V30 349 H 35.6812 2.06741 3.7167 0
M  V30 350 N 33.9963 -1.19345 1.0293 0
M  V30 351 C 34.9263 -2.2481 0.631105 0
M  V30 352 C 35.9073 -1.66245 -0.360104 0
M  V30 353 O 37.0923 -1.92677 -0.242726 0
M  V30 354 C 34.2223 -3.47295 -0.0184607 0
M  V30 355 C 33.1763 -4.18536 0.895073 0
M  V30 356 C 32.5023 -5.34586 0.110592 0
M  V30 357 C 33.8023 -4.73287 2.209 0
M  V30 358 H 35.4963 -2.58372 1.51275 0
M  V30 359 H 33.0423 -1.24194 0.728818 0
M  V30 360 H 34.9953 -4.20268 -0.308675 0
M  V30 361 H 33.7193 -3.12933 -0.934907 0
M  V30 362 H 32.3783 -3.47446 1.16949 0
M  V30 363 H 32.0263 -4.96469 -0.807902 0
M  V30 364 H 31.7263 -5.83183 0.719087 0
M  V30 365 H 33.2503 -6.10355 -0.172871 0
M  V30 366 H 34.6643 -5.38013 1.98028 0
M  V30 367 H 33.0613 -5.32373 2.76946 0
M  V30 368 H 34.1313 -3.91331 2.86336 0
M  V30 369 N 35.4744 -0.807222 -1.35358 0
M  V30 370 C 36.8854 -0.44876 -1.81226 0
M  V30 371 C 37.2364 1.02929 -1.67033 0
M  V30 372 O 36.3614 1.79991 -1.20133 0
M  V30 373 C 36.9564 -0.807774 -3.2903 0
M  V30 374 C 35.5154 -0.501901 -3.73039 0
M  V30 375 C 34.6624 -1.03304 -2.57339 0
M  V30 376 H 37.6134 -0.998808 -1.23327 0
M  V30 377 H 37.6344 -0.10554 -3.80354 0
M  V30 378 H 37.1464 -1.88357 -3.39328 0
M  V30 379 H 35.2474 0.565128 -3.68289 0
M  V30 380 H 35.3604 -1.03497 -4.67787 0
M  V30 381 H 33.7244 -0.455339 -2.50597 0
M  V30 382 H 34.5074 -2.11496 -2.70415 0
M  V30 383 N 36.9525 1.47285 -0.560781 0
M  V30 384 C 37.8845 2.28118 0.222438 0
M  V30 385 C 38.8975 1.37219 0.876056 0
M  V30 386 O 40.0865 1.62011 0.749307 0
M  V30 387 C 37.1865 3.1159 1.33285 0
M  V30 388 C 36.3595 4.30473 0.77534 0
M  V30 389 C 35.4185 4.95513 1.77069 0
M  V30 390 O 34.4445 5.53792 1.31539 0
M  V30 391 N 35.6465 4.90531 3.10418 0
M  V30 392 H 38.4115 2.95976 -0.470958 0
M  V30 393 H 35.9725 1.56955 -0.39709 0
M  V30 394 H 37.9645 3.51967 1.99752 0
M  V30 395 H 36.5345 2.45951 1.92943 0
M  V30 396 H 35.7545 3.94144 -0.0662113 0
M  V30 397 H 37.0425 5.07362 0.382272 0
M  V30 398 H 36.4405 4.44389 3.5005 0
M  V30 399 H 34.9975 5.34917 3.72434 0
M  V30 400 N 38.4306 0.297415 1.54768 0
M  V30 401 C 39.8466 -0.0560823 1.59501 0
M  V30 402 C 40.0466 -1.52725 1.31444 0
M  V30 403 O 39.1026 -2.27947 1.08611 0
M  V30 404 C 40.4156 0.338631 2.98787 0
M  V30 405 C 41.9636 0.287097 3.11681 0
M  V30 406 C 42.4386 0.656579 4.53269 0
M  V30 407 N 43.9296 0.608977 4.59179 0
M  V30 408 C 44.6646 0.867385 5.66802 0
M  V30 409 N 44.1606 1.19157 6.82476 0
M  V30 410 N 45.9536 0.794687 5.56454 0
M  V30 411 H 38.1046 1.25624 1.71267 0
M  V30 412 H 40.3676 0.509057 0.799728 0
M  V30 413 H 40.0736 1.36263 3.2423 0
M  V30 414 H 39.9476 -0.309508 3.75928 0
M  V30 415 H 42.3346 -0.727649 2.85988 0
M  V30 416 H 42.4156 0.969809 2.36703 0
M  V30 417 H 42.0596 1.66912 4.7969 0
M  V30 418 H 41.9896 -0.0481649 5.26578 0
M  V30 419 H 44.4806 0.369198 3.76092 0
M  V30 420 H 44.7936 1.37482 7.60473 0
M  V30 421 H 43.1386 1.22958 6.84037 0
M  V30 422 H 46.3296 0.541098 4.64962 0
M  V30 423 H 46.5026 0.999445 6.40246 0
M  V30 424 N 39.9087 -1.5758 0.0250728 0
M  V30 425 C 41.1547 -1.91917 -0.655413 0
M  V30 426 C 41.4877 -0.901433 -1.72011 0
M  V30 427 O 40.7627 0.0764069 -1.9435 0
M  V30 428 C 41.0457 -3.36751 -1.27558 0
M  V30 429 C 40.8987 -4.49258 -0.220719 0
M  V30 430 C 42.2177 -3.81469 -2.19475 0
M  V30 431 H 39.3367 -0.697925 -0.23679 0
M  V30 432 H 41.9787 -1.89825 0.0815036 0
M  V30 433 H 40.1287 -3.38664 -1.90365 0
M  V30 434 H 41.8007 -4.59478 0.409601 0
M  V30 435 H 40.0437 -4.31415 0.454264 0
M  V30 436 H 40.7147 -5.47618 -0.694175 0
M  V30 437 H 43.1907 -3.81266 -1.66659 0
M  V30 438 H 42.0667 -4.83512 -2.59822 0
M  V30 439 H 42.3277 -3.16744 -3.08424 0
M  V30 440 N 41.3868 0.248026 -1.55636 0
M  V30 441 C 42.3168 1.31079 -1.93237 0
M  V30 442 C 43.2978 1.50264 -0.797174 0
M  V30 443 O 44.4828 1.62891 -1.05737 0
M  V30 444 C 41.6128 2.66575 -2.22609 0
M  V30 445 C 40.5668 2.62087 -3.3837 0
M  V30 446 C 39.8928 4.01369 -3.53281 0
M  V30 447 C 41.1928 2.19171 -4.7409 0
M  V30 448 H 42.8868 0.998556 -2.82257 0
M  V30 449 H 40.4328 0.47891 -1.35803 0
M  V30 450 H 42.3858 3.41057 -2.47503 0
M  V30 451 H 41.1098 2.99432 -1.30414 0
M  V30 452 H 39.7688 1.90063 -3.13483 0
M  V30 453 H 39.4168 4.31489 -2.58508 0
M  V30 454 H 39.1168 3.99254 -4.31127 0
M  V30 455 H 40.6408 4.77552 -3.80495 0
M  V30 456 H 42.0548 2.83384 -4.98363 0
M  V30 457 H 40.4518 2.2817 -5.5503 0
M  V30 458 H 41.5218 1.14336 -4.71227 0
M  V30 459 N 42.8649 1.48995 0.513639 0
M  V30 460 C 44.2809 1.35478 0.843682 0
M  V30 461 C 44.4809 0.378213 1.97919 0
M  V30 462 O 43.5369 -0.194689 2.51748 0
M  V30 463 C 44.8499 2.75901 1.1958 0
M  V30 464 C 46.3979 2.84509 1.30474 0
M  V30 465 C 46.8729 4.25671 1.69021 0
M  V30 466 N 48.3639 4.28422 1.76094 0
M  V30 467 C 49.0989 5.34601 2.07338 0
M  V30 468 N 48.5949 6.5104 2.36894 0
M  V30 469 N 50.3879 5.22007 2.08483 0
M  V30 470 H 42.5389 2.11092 -0.235328 0
M  V30 471 H 44.8019 0.947039 -0.0426669 0
M  V30 472 H 44.5079 3.49001 0.434913 0
M  V30 473 H 44.3819 3.10467 2.1422 0
M  V30 474 H 46.7689 2.11655 2.05637 0
M  V30 475 H 46.8499 2.53542 0.339155 0
M  V30 476 H 46.4939 4.99048 0.944135 0
M  V30 477 H 46.4239 4.54094 2.66658 0
M  V30 478 H 48.9149 3.44441 1.55464 0
M  V30 479 H 49.2279 7.2779 2.59887 0
M  V30 480 H 47.5729 6.54287 2.34378 0
M  V30 481 H 50.7639 4.30051 1.84861 0
M  V30 482 H 50.9369 6.04854 2.325 0
M  V30 483 N 44.343 -0.763751 1.37857 0
M  V30 484 C 45.29 -1.87726 1.34267 0
M  V30 485 C 46.26 -1.64807 0.206879 0
M  V30 486 O 47.445 -1.86613 0.397508 0
M  V30 487 C 44.585 -3.24896 1.16346 0
M  V30 488 C 43.698 -3.59716 2.39225 0
M  V30 489 C 42.833 -4.86137 2.14114 0
M  V30 490 C 41.872 -5.13711 3.32817 0
M  V30 491 N 41.009 -6.31323 3.07206 0
M  V30 492 H 45.849 -1.90129 2.29466 0
M  V30 493 H 43.386 -0.929433 1.14017 0
M  V30 494 H 45.344 -4.04036 1.03975 0
M  V30 495 H 43.974 -3.21847 0.247909 0
M  V30 496 H 43.026 -2.75498 2.62307 0
M  V30 497 H 44.338 -3.76027 3.27728 0
M  V30 498 H 43.492 -5.73198 1.9882 0
M  V30 499 H 42.231 -4.71945 1.22961 0
M  V30 500 H 41.236 -4.25123 3.48641 0
M  V30 501 H 42.461 -5.29807 4.24832 0
M  V30 502 H 40.407 -6.18474 2.1869 0
M  V30 503 H 40.324 -6.48087 3.89254 0
M  V30 504 H 41.592 -7.213 2.95546 0
M  V30 505 N 45.8211 -1.22559 -0.990812 0
M  V30 506 C 46.7311 -1.01394 -2.11557 0
M  V30 507 C 47.7471 0.0383962 -1.73958 0
M  V30 508 O 48.9231 -0.154787 -2.00804 0
M  V30 509 C 45.9881 -0.596569 -3.41529 0
M  V30 510 C 45.0491 -1.72276 -3.93217 0
M  V30 511 C 44.2821 -1.32521 -5.16985 0
M  V30 512 O 44.5051 -0.204909 -5.70032 0
M  V30 513 O 43.4391 -2.14247 -5.62478 0
M  V30 514 H 47.2651 -1.95633 -2.32296 0
M  V30 515 H 44.8501 -1.01172 -1.0993 0
M  V30 516 H 46.7321 -0.374263 -4.19735 0
M  V30 517 H 45.4071 0.316939 -3.22145 0
M  V30 518 H 44.3141 -1.99961 -3.16174 0
M  V30 519 H 45.6471 -2.61421 -4.17037 0
M  V30 520 N 47.2992 1.18797 -1.03562 0
M  V30 521 C 48.7102 1.70322 -0.764676 0
M  V30 522 C 49.0612 1.82708 0.714996 0
M  V30 523 O 48.1862 1.50299 1.55689 0
M  V30 524 C 48.7812 3.09356 -1.38145 0
M  V30 525 C 47.3402 3.58114 -1.15895 0
M  V30 526 C 46.4872 2.34798 -1.4753 0
M  V30 527 H 49.4382 1.03543 -1.20268 0
M  V30 528 H 49.4592 3.72378 -0.781977 0
M  V30 529 H 48.9712 3.00309 -2.45837 0
M  V30 530 H 47.0722 3.72464 -0.100544 0
M  V30 531 H 47.1852 4.4184 -1.8524 0
M  V30 532 H 45.5492 2.38464 -0.894829 0
M  V30 533 H 46.3322 2.28375 -2.56319 0
M  V30 534 N 48.7773 0.814389 1.34928 0
M  V30 535 C 50.0233 0.399013 1.98836 0
M  V30 536 C 50.3563 -1.03314 1.64438 0
M  V30 537 O 49.6313 -1.71811 0.911659 0
M  V30 538 C 49.9143 0.591629 3.55207 0
M  V30 539 C 49.7673 2.06928 3.99376 0
M  V30 540 C 51.0863 0.022199 4.40094 0
M  V30 541 H 48.2053 0.146451 0.722303 0
M  V30 542 H 50.8473 1.02537 1.59957 0
M  V30 543 H 48.9973 0.0584441 3.88456 0
M  V30 544 H 50.6693 2.66544 3.76499 0
M  V30 545 H 48.9123 2.56287 3.49999 0
M  V30 546 H 49.5833 2.1549 5.08201 0
M  V30 547 H 52.0593 0.477643 4.13349 0
M  V30 548 H 50.9353 0.186832 5.48582 0
M  V30 549 H 51.1963 -1.07215 4.28902 0
M  V30 550 N 50.2554 -1.46986 0.568584 0
M  V30 551 C 51.4834 -2.0683 0.0539956 0
M  V30 552 C 51.8984 -1.41953 -1.24478 0
M  V30 553 O 51.2554 -0.519933 -1.74937 0
M  V30 554 C 51.3064 -3.61254 -0.133362 0
M  V30 555 O 51.0274 -4.237 1.11399 0
M  V30 556 C 52.5284 -4.37992 -0.683927 0
M  V30 557 H 49.7484 -0.669058 0.0510141 0
M  V30 558 H 52.2924 -1.88824 0.785234 0
M  V30 559 H 50.4474 -3.78735 -0.81477 0
M  V30 560 H 50.8614 -5.16388 0.91888 0
M  V30 561 H 52.3354 -5.46684 -0.764263 0
M  V30 562 H 52.8124 -4.05058 -1.69778 0
M  V30 563 H 53.4184 -4.25283 -0.0378494 0
M  V30 564 N 51.7335 -0.305618 -1.54608 0
M  V30 565 C 53.1445 0.186098 -1.8577 0
M  V30 566 C 53.4955 1.53058 -1.22751 0
M  V30 567 O 52.6205 2.09888 -0.526893 0
M  V30 568 C 53.2155 0.344449 -3.37044 0
M  V30 569 C 51.7745 0.780384 -3.68221 0
M  V30 570 C 50.9215 -0.108554 -2.77087 0
M  V30 571 H 53.8725 -0.526485 -1.49712 0
M  V30 572 H 53.8935 1.17828 -3.61796 0
M  V30 573 H 53.4055 -0.634235 -3.82883 0
M  V30 574 H 51.5065 1.76945 -3.27904 0
M  V30 575 H 51.6195 0.596572 -4.75371 0
M  V30 576 H 49.9835 0.412931 -2.5133 0
M  V30 577 H 50.7665 -1.08368 -3.25747 0
M  V30 578 N 53.2116 1.57565 -0.0334293 0
M  V30 579 C 54.4366 1.96689 0.657895 0
M  V30 580 C 54.8616 0.910057 1.64619 0
M  V30 581 O 54.2196 -0.128598 1.80843 0
M  V30 582 C 54.2676 3.34905 1.33683 0
M  V30 583 O 53.3716 3.31574 2.45219 0
M  V30 584 H 52.7126 0.641205 0.172489 0
M  V30 585 H 55.2426 2.04372 -0.0965621 0
M  V30 586 H 55.2526 3.71234 1.69262 0
M  V30 587 H 53.9276 4.11366 0.612411 0
M  V30 588 H 52.5046 3.06968 2.11719 0
M  V30 589 N 54.6897 -0.239769 1.55765 0
M  V30 590 C 55.6527 -1.28038 1.90103 0
M  V30 591 C 56.6527 -1.40723 0.778055 0
M  V30 592 O 57.8427 -1.39301 1.04599 0
M  V30 593 C 54.9747 -2.65702 2.13577 0
M  V30 594 H 56.1677 -0.988048 2.83157 0
M  V30 595 H 53.7207 -0.479382 1.48767 0
M  V30 596 H 54.4557 -3.00063 1.23015 0
M  V30 597 H 54.2407 -2.57875 2.95369 0
M  V30 598 H 55.7307 -3.40828 2.41301 0
M  V30 599 N 56.1678 -1.49265 -0.50573 0
M  V30 600 C 57.0978 -1.68495 -1.61653 0
M  V30 601 C 58.0788 -0.53366 -1.61512 0
M  V30 602 O 59.2638 -0.76897 -1.78327 0
M  V30 603 C 56.3938 -1.74709 -3.00157 0
M  V30 604 C 55.3478 -2.89581 -3.15162 0
M  V30 605 C 54.6738 -2.80903 -4.5497 0
M  V30 606 C 55.9738 -4.30578 -2.95634 0
M  V30 607 H 57.6678 -2.61493 -1.45814 0
M  V30 608 H 55.2138 -1.25838 -0.70005 0
M  V30 609 H 57.1668 -1.86748 -3.77761 0
M  V30 610 H 55.8908 -0.783067 -3.17074 0
M  V30 611 H 54.5498 -2.77136 -2.39982 0
M  V30 612 H 54.1978 -1.82419 -4.68756 0
M  V30 613 H 53.8978 -3.57999 -4.65951 0
M  V30 614 H 55.4218 -2.94944 -5.34641 0
M  V30 615 H 56.8358 -4.4373 -3.63011 0
M  V30 616 H 55.2328 -5.0886 -3.18091 0
M  V30 617 H 56.3028 -4.45352 -1.91806 0
M  V30 618 N 57.6459 0.756429 -1.3826 0
M  V30 619 C 58.8919 1.51772 -1.34511 0
M  V30 620 C 59.2249 1.94089 0.0656691 0
M  V30 621 O 58.4999 1.65221 1.02626 0
M  V30 622 C 58.7829 2.77226 -2.29821 0
M  V30 623 C 58.6359 2.41065 -3.79747 0
M  V30 624 C 59.9549 3.79236 -2.23312 0
M  V30 625 H 57.0739 0.550578 -0.489931 0
M  V30 626 H 59.7159 0.866607 -1.69086 0
M  V30 627 H 57.8659 3.32784 -2.00467 0
M  V30 628 H 59.5379 1.91303 -4.19763 0
M  V30 629 H 57.7809 1.7356 -3.97567 0
M  V30 630 H 58.4519 3.3081 -4.41892 0
M  V30 631 H 60.9279 3.3321 -2.49219 0
M  V30 632 H 59.8039 4.64714 -2.92116 0
M  V30 633 H 60.0649 4.24615 -1.23102 0
M  V30 634 N 59.124 1.23083 0.984299 0
M  V30 635 C 60.054 1.03292 2.09411 0
M  V30 636 C 61.035 -0.048923 1.7003 0
M  V30 637 O 62.22 0.114967 1.93859 0
M  V30 638 C 59.35 0.619155 3.41736 0
M  V30 639 C 58.304 1.64791 3.95004 0
M  V30 640 C 57.63 1.0897 5.23478 0
M  V30 641 C 58.93 3.03999 4.24714 0
M  V30 642 H 60.624 1.96119 2.26225 0
M  V30 643 H 58.17 0.944344 1.08711 0
M  V30 644 H 60.123 0.467777 4.18796 0
M  V30 645 H 58.847 -0.344786 3.24775 0
M  V30 646 H 57.506 1.78721 3.20085 0
M  V30 647 H 57.154 0.11686 5.02864 0
M  V30 648 H 56.854 1.77704 5.60085 0
M  V30 649 H 58.378 0.950093 6.03163 0
M  V30 650 H 59.792 2.93393 4.92538 0
M  V30 651 H 58.189 3.69936 4.72512 0
M  V30 652 H 59.259 3.53285 3.32142 0
M  V30 653 N 60.6021 -1.18246 1.0419 0
M  V30 654 C 61.5351 -2.20746 0.578474 0
M  V30 655 C 62.5131 -1.57912 -0.387624 0
M  V30 656 O 63.6971 -1.86071 -0.301634 0
M  V30 657 C 60.8241 -3.38346 -0.154762 0
M  V30 658 C 59.8701 -4.19587 0.764782 0
M  V30 659 S 60.7031 -4.86014 2.24835 0
M  V30 660 C 61.8591 -6.07012 1.526 0
M  V30 661 H 62.0921 -2.59715 1.44691 0
M  V30 662 H 59.6251 -1.287 0.85297 0
M  V30 663 H 61.5831 -4.065 -0.571641 0
M  V30 664 H 60.2441 -2.97786 -0.999105 0
M  V30 665 H 59.4371 -5.03611 0.197976 0
M  V30 666 H 59.0391 -3.56818 1.12057 0
M  V30 667 H 61.3311 -6.72523 0.819733 0
M  V30 668 H 62.2741 -6.68202 2.34333 0
M  V30 669 H 62.6821 -5.55249 1.01779 0
M  V30 670 N 62.0802 -0.821533 -1.34494 0
M  V30 671 C 63.3052 -0.420873 -2.03085 0
M  V30 672 C 63.7302 0.964915 -1.61465 0
M  V30 673 O 63.0882 1.62763 -0.798607 0
M  V30 674 C 63.1362 -0.529414 -3.56693 0
M  V30 675 O 62.2402 0.451302 -4.09923 0
M  V30 676 H 61.5812 -0.173489 -0.640935 0
M  V30 677 H 64.1112 -1.11157 -1.71771 0
M  V30 678 H 64.1212 -0.404671 -4.05988 0
M  V30 679 H 62.7962 -1.54014 -3.86332 0
M  V30 680 H 61.3732 0.285558 -3.71805 0
M  V30 681 N 63.5583 1.46682 -0.576371 0
M  V30 682 C 64.9743 1.57822 -0.237562 0
M  V30 683 C 65.1743 1.57237 1.26011 0
M  V30 684 O 64.2303 1.48596 2.04146 0
M  V30 685 C 65.5433 2.87499 -0.881168 0
M  V30 686 C 67.0913 3.01119 -0.85417 0
M  V30 687 C 67.5663 4.33524 -1.4772 0
M  V30 688 N 69.0573 4.40207 -1.44125 0
M  V30 689 C 69.7923 5.4126 -1.89276 0
M  V30 690 N 69.2883 6.49021 -2.42371 0
M  V30 691 N 71.0813 5.32422 -1.80231 0
M  V30 692 H 63.2323 1.45306 -1.54919 0
M  V30 693 H 65.4953 0.692733 -0.647167 0
M  V30 694 H 65.2013 2.9372 -1.93447 0
M  V30 695 H 65.0753 3.75224 -0.385592 0
M  V30 696 H 67.4623 2.94485 0.190491 0
M  V30 697 H 67.5433 2.14887 -1.3877 0
M  V30 698 H 67.1873 4.40916 -2.52103 0
M  V30 699 H 67.1173 5.1852 -0.918947 0
M  V30 700 H 69.6083 3.62931 -1.05307 0
M  V30 701 H 69.9213 7.2233 -2.74698 0
M  V30 702 H 68.2663 6.49858 -2.46393 0
M  V30 703 H 71.4573 4.47137 -1.38514 0
M  V30 704 H 71.6303 6.11034 -2.15735 0
M  V30 705 N 65.0364 0.313813 1.54444 0
M  V30 706 C 66.2614 -0.296681 2.05267 0
M  V30 707 C 66.6864 -1.45757 1.18897 0
M  V30 708 O 66.0444 -1.80239 0.195886 0
M  V30 709 C 66.0924 -0.71831 3.53373 0
M  V30 710 O 65.1964 -1.82175 3.69981 0
M  V30 711 H 64.5374 -0.0554061 0.661684 0
M  V30 712 H 67.0674 0.459387 1.99376 0
M  V30 713 H 67.0774 -1.00364 3.95463 0
M  V30 714 H 65.7524 0.130821 4.15694 0
M  V30 715 H 64.3294 -1.53598 3.39797 0
M  V30 716 N 66.5145 -1.57545 0.0417849 0
M  V30 717 C 67.4625 -2.12148 -0.953723 0
M  V30 718 C 68.4565 -1.05104 -1.32852 0
M  V30 719 O 69.6625 -1.23524 -1.30927 0
M  V30 720 H 66.0375 -0.677957 -0.325389 0
M  V30 721 H 68.0085 -2.94707 -0.467991 0
M  V30 722 C 66.7575 -2.6739 -2.22257 0
M  V30 723 H 66.0805 -3.49413 -1.94295 0
M  V30 724 H 67.5205 -3.09227 -2.90094 0
M  V30 725 C 65.9795 -1.60723 -2.96091 0
M  V30 726 O 66.5095 -1.01449 -3.88679 0
M  V30 727 N 64.7155 -1.32466 -2.58652 0
M  V30 728 H 64.2625 -1.80856 -1.83437 0
M  V30 729 H 64.2205 -0.61325 -3.08361 0
M  V30 730 N 67.9926 0.231505 -1.5589 0
M  V30 731 C 69.2386 0.95877 -1.78705 0
M  V30 732 C 69.5716 1.8438 -0.609725 0
M  V30 733 O 68.8466 1.90521 0.391426 0
M  V30 734 C 69.1296 1.8062 -3.11526 0
M  V30 735 C 68.9826 0.948328 -4.39689 0
M  V30 736 C 70.3016 2.78585 -3.40703 0
M  V30 737 H 67.4206 0.347129 -0.650131 0
M  V30 738 H 70.0626 0.228259 -1.88624 0
M  V30 739 H 68.2126 2.42902 -3.03201 0
M  V30 740 H 69.8846 0.343016 -4.60023 0
M  V30 741 H 68.1276 0.253314 -4.3306 0
M  V30 742 H 68.7986 1.57543 -5.29041 0
M  V30 743 H 71.2746 2.26439 -3.49091 0
M  V30 744 H 70.1506 3.34988 -4.34826 0
M  V30 745 H 70.4116 3.55825 -2.62375 0
M  V30 746 N 69.4707 1.49531 0.497807 0
M  V30 747 C 70.4027 1.62559 1.61578 0
M  V30 748 C 71.4157 0.508134 1.54667 0
M  V30 749 O 72.6047 0.780309 1.60541 0
M  V30 750 C 69.7047 1.56925 3.00379 0
M  V30 751 C 68.8777 2.84257 3.3244 0
M  V30 752 C 67.9367 2.71632 4.50669 0
M  V30 753 O 66.9627 3.4557 4.52294 0
M  V30 754 N 68.1647 1.83391 5.5077 0
M  V30 755 H 70.9297 2.58981 1.50828 0
M  V30 756 H 68.4907 1.4666 0.685743 0
M  V30 757 H 70.4827 1.46129 3.77397 0
M  V30 758 H 69.0527 0.683483 3.05037 0
M  V30 759 H 68.2727 3.09381 2.44289 0
M  V30 760 H 69.5607 3.68666 3.5066 0
M  V30 761 H 68.9587 1.22583 5.52259 0
M  V30 762 H 67.5157 1.78515 6.26878 0
M  V30 763 N 70.9488 -0.749086 1.3866 0
M  V30 764 C 72.3598 -1.32664 1.31366 0
M  V30 765 C 72.7108 -1.96179 -0.028484 0
M  V30 766 O 71.8358 -1.9537 -0.93057 0
M  V30 767 C 72.4308 -2.41219 2.37905 0
M  V30 768 C 70.9898 -2.94684 2.34176 0
M  V30 769 C 70.1368 -1.68108 2.20533 0
M  V30 770 H 73.0878 -0.547628 1.48952 0
M  V30 771 H 73.1088 -3.21268 2.0388 0
M  V30 772 H 72.6208 -1.94962 3.35576 0
M  V30 773 H 70.7218 -3.45258 1.401 0
M  V30 774 H 70.8348 -3.48757 3.2849 0
M  V30 775 H 69.1988 -1.91907 1.67463 0
M  V30 776 H 69.9818 -1.23923 3.20153 0
M  V30 777 N 72.4269 -1.23603 -0.977757 0
M  V30 778 C 73.6549 -1.09646 -1.75458 0
M  V30 779 C 74.0699 0.351859 -1.85492 0
M  V30 780 O 73.4269 1.24327 -1.336 0
M  V30 781 C 73.4779 -1.71895 -3.18016 0
M  V30 782 O 73.1989 -3.11063 -3.08498 0
M  V30 783 C 74.6999 -1.63415 -4.12081 0
M  V30 784 H 71.9199 -0.38359 -0.550545 0
M  V30 785 H 74.4639 -1.63507 -1.22824 0
M  V30 786 H 72.6189 -1.22061 -3.67668 0
M  V30 787 H 73.0329 -3.41305 -3.9826 0
M  V30 788 H 74.5069 -2.11669 -5.09804 0
M  V30 789 H 74.9839 -0.593462 -4.35172 0
M  V30 790 H 75.5899 -2.12628 -3.68334 0
M  V30 791 N 73.905 1.17692 -1.04816 0
M  V30 792 C 74.868 2.19787 -0.650117 0
M  V30 793 C 75.868 1.58044 0.296427 0
M  V30 794 O 77.058 1.74012 0.0808097 0
M  V30 795 C 74.19 3.40869 0.0456987 0
M  V30 796 H 75.383 2.56516 -1.5537 0
M  V30 797 H 72.936 1.31708 -0.841594 0
M  V30 798 H 73.671 3.09681 0.962726 0
M  V30 799 H 73.456 3.86928 -0.634727 0
M  V30 800 H 74.946 4.16445 0.310432 0
M  V30 801 N 75.3831 0.828654 1.34056 0
M  V30 802 C 76.3461 0.259927 2.27721 0
M  V30 803 C 77.3461 -0.565478 1.50529 0
M  V30 804 O 78.5361 -0.38075 1.69988 0
M  V30 805 C 75.6681 -0.634944 3.34935 0
M  V30 806 H 76.8611 1.0863 2.79534 0
M  V30 807 H 74.4141 0.600951 1.44285 0
M  V30 808 H 75.1491 -1.48416 2.88346 0
M  V30 809 H 74.9341 -0.0444999 3.92075 0
M  V30 810 H 76.4241 -1.02648 4.04788 0
M  V30 811 N 76.8612 -1.46375 0.584142 0
M  V30 812 C 78.2722 -1.86031 0.157959 0
M  V30 813 C 78.6232 -1.48753 -1.27933 0
M  V30 814 O 77.7482 -0.903098 -1.96655 0
M  V30 815 C 78.3432 -3.37642 0.279892 0
M  V30 816 C 76.9022 -3.76289 -0.09143 0
M  V30 817 C 76.0492 -2.7039 0.615178 0
M  V30 818 H 79.0002 -1.37509 0.792274 0
M  V30 819 H 79.0212 -3.77275 -0.494364 0
M  V30 820 H 78.5332 -3.64742 1.32607 0
M  V30 821 H 76.6342 -3.54806 -1.13769 0
M  V30 822 H 76.7472 -4.78246 0.285886 0
M  V30 823 H 75.1112 -2.5464 0.0552833 0
M  V30 824 H 75.8942 -3.0033 1.66303 0
M  V30 825 N 78.3393 -0.321999 -1.54275 0
M  V30 826 C 79.5873 0.280489 -2.00144 0
M  V30 827 C 79.9083 1.52777 -1.21178 0
M  V30 828 O 79.1783 1.9338 -0.313187 0
M  V30 829 H 77.7583 0.106632 -0.73935 0
M  V30 830 H 80.4203 -0.438184 -1.8991 0
M  V30 831 H 79.5163 0.537972 -3.07428 0
M  V30 832 N 79.8174 1.5752 -0.0501392 0
M  V30 833 C 80.7494 2.08413 0.95376 0
M  V30 834 C 81.7624 1.01175 1.27544 0
M  V30 835 O 82.9514 1.28744 1.23641 0
M  V30 836 C 80.0514 2.51138 2.27559 0
M  V30 837 C 79.2244 3.817 2.13598 0
M  V30 838 C 78.2834 4.10749 3.28895 0
M  V30 839 O 77.3094 4.80685 3.04845 0
M  V30 840 N 78.5114 3.62579 4.5334 0
M  V30 841 H 81.2764 2.95165 0.519383 0
M  V30 842 H 78.8374 1.61327 0.136127 0
M  V30 843 H 80.8294 2.67648 3.03557 0
M  V30 844 H 79.3994 1.6964 2.62567 0
M  V30 845 H 78.6194 3.74782 1.22197 0
M  V30 846 H 79.9074 4.67201 2.01496 0
M  V30 847 H 79.3054 3.06039 4.75769 0
M  V30 848 H 77.8624 3.84329 5.26436 0
M  V30 849 N 81.2955 -0.223234 1.56011 0
M  V30 850 C 82.2425 -1.27664 1.92277 0
M  V30 851 C 83.2125 -1.46659 0.779763 0
M  V30 852 O 84.3975 -1.60256 1.03551 0
M  V30 853 C 81.5375 -2.62234 2.24338 0
M  V30 854 C 80.6505 -2.51051 3.51564 0
M  V30 855 C 79.7855 -3.78133 3.7308 0
M  V30 856 C 78.8245 -3.61665 4.93827 0
M  V30 857 N 77.9615 -4.80693 5.11741 0
M  V30 858 H 82.8015 -0.960358 2.82101 0
M  V30 859 H 80.3385 -0.462901 1.39627 0
M  V30 860 H 82.2965 -3.40596 2.40936 0
M  V30 861 H 80.9265 -2.91961 1.3769 0
M  V30 862 H 79.9785 -1.64132 3.43169 0
M  V30 863 H 81.2905 -2.34803 4.40079 0
M  V30 864 H 80.4445 -4.64938 3.89766 0
M  V30 865 H 79.1835 -3.97304 2.82844 0
M  V30 866 H 78.1885 -2.73244 4.77093 0
M  V30 867 H 79.4135 -3.43966 5.85546 0
M  V30 868 H 77.3595 -5.00181 4.24446 0
M  V30 869 H 77.2765 -4.67165 5.94384 0
M  V30 870 H 78.5445 -5.6893 5.3286 0
M  V30 871 N 82.7736 -1.49793 -0.48987 0
M  V30 872 C 84.0196 -1.60078 -1.24511 0
M  V30 873 C 84.3526 -0.291608 -1.91998 0
M  V30 874 O 83.6276 0.705647 -1.81248 0
M  V30 875 C 83.9106 -2.76791 -2.30345 0
M  V30 876 C 83.7636 -4.17535 -1.67286 0
M  V30 877 C 85.0826 -2.89111 -3.31817 0
M  V30 878 H 82.2016 -0.582645 -0.451324 0
M  V30 879 H 84.8436 -1.82117 -0.541612 0
M  V30 880 H 82.9936 -2.5813 -2.90346 0
M  V30 881 H 84.6656 -4.4774 -1.11026 0
M  V30 882 H 82.9086 -4.22665 -0.976577 0
M  V30 883 H 83.5796 -4.95094 -2.44103 0
M  V30 884 H 86.0556 -3.06133 -2.81819 0
M  V30 885 H 84.9316 -3.72433 -4.03219 0
M  V30 886 H 85.1926 -1.9893 -3.94815 0
M  V30 887 N 84.2517 0.741722 -1.39055 0
M  V30 888 C 85.1847 1.86416 -1.31622 0
M  V30 889 C 86.1627 1.61473 -0.191076 0
M  V30 890 O 87.3467 1.84825 -0.370399 0
M  V30 891 C 84.4737 3.22266 -1.04221 0
M  V30 892 C 83.5197 3.66079 -2.18834 0
M  V30 893 S 84.3527 3.7623 -3.81066 0
M  V30 894 C 85.5087 5.14881 -3.55877 0
M  V30 895 H 85.7417 1.92437 -2.26617 0
M  V30 896 H 83.2747 0.905907 -1.25031 0
M  V30 897 H 85.2327 4.00714 -0.890964 0
M  V30 898 H 83.8937 3.1391 -0.109237 0
M  V30 899 H 83.0867 4.64648 -1.95238 0
M  V30 900 H 82.6887 2.94817 -2.30128 0
M  V30 901 H 84.9807 6.01006 -3.12726 0
M  V30 902 H 85.9237 5.43503 -4.53884 0
M  V30 903 H 86.3317 4.84239 -2.90126 0
M  V30 904 N 85.7298 1.2412 0.971189 0
M  V30 905 C 86.6398 1.04747 2.09917 0
M  V30 906 C 87.6558 -0.0107162 1.73997 0
M  V30 907 O 88.8318 0.186714 2.00533 0
M  V30 908 C 85.8968 0.650828 3.40537 0
M  V30 909 C 84.9578 1.7851 3.90426 0
M  V30 910 C 84.1908 1.40729 5.14812 0
M  V30 911 O 84.4138 0.29557 5.69634 0
M  V30 912 O 83.3478 2.23168 5.58999 0
M  V30 913 H 87.1738 1.99304 2.29154 0
M  V30 914 H 84.7588 1.02908 1.08307 0
M  V30 915 H 86.6408 0.440992 4.19086 0
M  V30 916 H 85.3158 -0.265649 3.22608 0
M  V30 917 H 84.2228 2.04966 3.12953 0
M  V30 918 H 85.5558 2.68023 4.12825 0
M  V30 919 N 87.2079 -1.17134 1.05439 0
M  V30 920 C 88.1559 -2.23289 0.651511 0
M  V30 921 C 89.1499 -1.66186 -0.328411 0
M  V30 922 O 90.3559 -1.78949 -0.194206 0
M  V30 923 H 86.7309 -0.726938 0.192523 0
M  V30 924 H 88.7019 -2.54565 1.55689 0
M  V30 925 C 87.4509 -3.47671 0.0448436 0
M  V30 926 H 86.7739 -3.91918 0.78996 0
M  V30 927 H 88.2139 -4.2353 -0.19964 0
M  V30 928 C 86.6729 -3.14453 -1.20918 0
M  V30 929 O 87.2029 -3.29459 -2.29825 0
M  V30 930 N 85.4089 -2.68657 -1.10779 0
M  V30 931 H 84.9559 -2.56646 -0.221526 0
M  V30 932 H 84.9139 -2.46804 -1.9477 0
M  V30 933 N 88.686 -0.835752 -1.33615 0
M  V30 934 C 89.911 -0.442389 -2.02627 0
M  V30 935 C 90.336 0.947735 -1.62479 0
M  V30 936 O 89.694 1.61907 -0.815826 0
M  V30 937 C 89.742 -0.567216 -3.56111 0
M  V30 938 O 88.846 0.407799 -4.10379 0
M  V30 939 H 88.187 -0.180278 -0.639059 0
M  V30 940 H 90.717 -1.12972 -1.70583 0
M  V30 941 H 90.727 -0.447708 -4.05536 0
M  V30 942 H 89.402 -1.58103 -3.84677 0
M  V30 943 H 87.979 0.246107 -3.72087 0
M  V30 944 N 90.1641 1.46063 -0.591896 0
M  V30 945 C 91.3891 2.07226 -0.0850314 0
M  V30 946 C 91.8141 1.43625 1.21463 0
M  V30 947 O 91.1721 0.523305 1.73583 0
M  V30 948 C 91.2201 3.60554 0.0576567 0
M  V30 949 O 90.3241 3.97128 1.11188 0
M  V30 950 H 89.6651 0.660615 -0.0669568 0
M  V30 951 H 92.1951 1.8756 -0.81745 0
M  V30 952 H 92.2051 4.07165 0.2609 0
M  V30 953 H 90.8801 4.06235 -0.891416 0
M  V30 954 H 89.4571 3.62213 0.886356 0
M  V30 955 N 91.6422 0.330177 1.54103 0
M  V30 956 C 92.8902 -0.269871 2.0029 0
M  V30 957 C 93.2112 -1.52133 1.21986 0
M  V30 958 O 92.4812 -1.93212 0.323438 0
M  V30 959 H 91.0612 -0.10271 0.739905 0
M  V30 960 H 93.7232 0.448249 1.89675 0
M  V30 961 H 92.8192 -0.52166 3.07709 0
M  V30 962 N 93.1203 -1.57491 0.0584922 0
M  V30 963 C 94.3483 -1.97296 -0.623037 0
M  V30 964 C 94.7633 -0.936338 -1.63946 0
M  V30 965 O 94.1203 0.0785981 -1.82331 0
M  V30 966 C 94.1713 -3.37183 -1.30345 0
M  V30 967 O 93.8923 -4.36872 -0.32773 0
M  V30 968 C 95.3933 -3.91788 -2.07406 0
M  V30 969 H 92.6133 -0.649153 -0.169826 0
M  V30 970 H 95.1573 -2.04106 0.12696 0
M  V30 971 H 93.3123 -3.31502 -2.00463 0
M  V30 972 H 93.7263 -5.18141 -0.814269 0
M  V30 973 H 95.2003 -4.91926 -2.50425 0
M  V30 974 H 95.6773 -3.27609 -2.92521 0
M  V30 975 H 96.2833 -4.00829 -1.42184 0
M  V30 976 N 94.5984 0.214957 -1.56127 0
M  V30 977 C 96.0094 0.781386 -1.69562 0
M  V30 978 C 96.3604 1.84707 -0.66165 0
M  V30 979 O 95.4854 2.156 0.185927 0
M  V30 980 C 96.0804 1.42411 -3.07416 0
M  V30 981 C 94.6394 1.93786 -3.22683 0
M  V30 982 C 93.7864 0.800438 -2.65496 0
M  V30 983 H 96.7374 -0.00980633 -1.58697 0
M  V30 984 H 96.7584 2.29309 -3.0364 0
M  V30 985 H 96.2704 0.64826 -3.82648 0
M  V30 986 H 94.3714 2.74152 -2.52332 0
M  V30 987 H 94.4844 2.1133 -4.29973 0
M  V30 988 H 92.8484 1.2095 -2.2415 0
M  V30 989 H 93.6314 0.0371471 -3.4328 0
M  V30 990 N 96.0765 1.50051 0.48192 0
M  V30 991 C 97.3535 1.51009 1.2432 0
M  V30 992 C 97.7335 0.248587 2.09631 0
M  V30 993 O 97.0815 -0.768409 2.15192 0
M  V30 994 C 97.2915 2.79981 2.08355 0
M  V30 995 C 98.6395 3.3022 2.66908 0
M  V30 996 O 99.6635 2.81228 2.18607 0
M  V30 997 O 98.5225 4.15595 3.54884 0
M  V30 998 H 95.6165 0.605239 0.563573 0
M  V30 999 H 98.1625 1.62332 0.494627 0
M  V30 1000 H 96.9345 3.63275 1.45419 0
M  V30 1001 H 96.5575 2.7161 2.90368 0
M  V30 1002 N 97.5546 -0.734337 1.39446 0
M  V30 1003 C 98.8036 -1.48937 1.36017 0
M  V30 1004 C 99.1166 -1.95557 -0.0409005 0
M  V30 1005 O 100.323 -2.70779 -0.19778 0
M  V30 1006 C 98.7786 -2.69125 2.38955 0
M  V30 1007 C 98.3866 -2.29452 3.8478 0
M  V30 1008 C 100.131 -3.46944 2.44603 0
M  V30 1009 C 98.0376 -3.46366 4.79358 0
M  V30 1010 H 96.9676 -0.559296 0.505672 0
M  V30 1011 H 99.6186 -0.800983 1.65095 0
M  V30 1012 H 98.0006 -3.40041 2.02948 0
M  V30 1013 H 99.1746 -1.66077 4.29831 0
M  V30 1014 H 97.4896 -1.64723 3.82433 0
M  V30 1015 H 100.087 -4.33907 3.12456 0
M  V30 1016 H 100.43 -3.89454 1.47076 0
M  V30 1017 H 100.963 -2.83056 2.79507 0
M  V30 1018 H 97.7016 -3.08905 5.78151 0
M  V30 1019 H 97.2216 -4.08719 4.38986 0
M  V30 1020 H 98.9006 -4.12691 4.98292 0
M  V30 1021 N 99.0327 -1.24633 -0.964593 0
M  V30 1022 C 99.9627 -1.06611 -2.07741 0
M  V30 1023 C 100.944 0.0218666 -1.70086 0
M  V30 1024 O 102.129 -0.145793 -1.93652 0
M  V30 1025 C 99.2587 -0.673444 -3.40708 0
M  V30 1026 C 98.2127 -1.71054 -3.92332 0
M  V30 1027 C 97.5387 -1.17285 -5.21678 0
M  V30 1028 C 98.8387 -3.10718 -4.19824 0
M  V30 1029 H 100.533 -1.99693 -2.23076 0
M  V30 1030 H 98.0787 -0.96152 -1.07195 0
M  V30 1031 H 100.032 -0.534345 -4.17998 0
M  V30 1032 H 98.7557 0.293073 -3.25282 0
M  V30 1033 H 97.4147 -1.83791 -3.17201 0
M  V30 1034 H 97.0627 -0.196847 -5.02615 0
M  V30 1035 H 96.7627 -1.86592 -5.57187 0
M  V30 1036 H 98.2867 -1.04593 -6.01575 0
M  V30 1037 H 99.7007 -3.01192 -4.87808 0
M  V30 1038 H 98.0977 -3.77406 -4.66567 0
M  V30 1039 H 99.1677 -3.58524 -3.26479 0
M  V30 1040 N 100.511 1.16574 -1.06058 0
M  V30 1041 C 101.739 1.90952 -0.796552 0
M  V30 1042 C 102.154 1.77302 0.648808 0
M  V30 1043 O 101.511 1.11605 1.44397 0
M  V30 1044 C 101.562 3.41736 -1.17894 0
M  V30 1045 O 101.283 3.54975 -2.56758 0
M  V30 1046 C 102.784 4.33169 -0.942308 0
M  V30 1047 H 100.004 0.605594 -0.288959 0
M  V30 1048 H 102.548 1.47777 -1.41358 0
M  V30 1049 H 100.703 3.82623 -0.606491 0
M  V30 1050 H 101.117 4.4846 -2.72 0
M  V30 1051 H 102.591 5.37439 -1.25952 0
M  V30 1052 H 103.068 4.3903 0.122078 0
M  V30 1053 H 103.674 3.98007 -1.49902 0
M  V30 1054 N 101.989 0.842826 1.3317 0
M  V30 1055 C 103.405 0.531128 1.50503 0
M  V30 1056 C 103.605 -0.940734 1.78192 0
M  V30 1057 O 102.661 -1.72436 1.84451 0
M  V30 1058 C 103.974 1.40789 2.65705 0
M  V30 1059 C 105.522 1.40708 2.79589 0
M  V30 1060 C 105.997 2.26878 3.97857 0
M  V30 1061 N 107.488 2.24609 4.05099 0
M  V30 1062 C 108.223 2.88019 4.95815 0
M  V30 1063 N 107.719 3.60496 5.9162 0
M  V30 1064 N 109.512 2.77469 4.88843 0
M  V30 1065 H 101.663 1.79557 1.1346 0
M  V30 1066 H 103.926 0.766267 0.558156 0
M  V30 1067 H 103.632 2.454 2.51936 0
M  V30 1068 H 103.506 1.08677 3.61205 0
M  V30 1069 H 105.893 0.368668 2.92788 0
M  V30 1070 H 105.974 1.76829 1.84838 0
M  V30 1071 H 105.618 3.3078 3.85418 0
M  V30 1072 H 105.548 1.88096 4.91861 0
M  V30 1073 H 108.039 1.71906 3.36536 0
M  V30 1074 H 108.352 4.06076 6.57512 0
M  V30 1075 H 106.697 3.64604 5.91683 0
M  V30 1076 H 109.888 2.20406 4.12963 0
M  V30 1077 H 110.061 3.2717 5.59342 0
M  V30 1078 N 103.467 -1.45747 0.599634 0
M  V30 1079 C 104.417 -2.27538 -0.145107 0
M  V30 1080 C 105.401 -1.3686 -0.846055 0
M  V30 1081 O 106.593 -1.6091 -0.737357 0
M  V30 1082 C 103.722 -3.23569 -1.14708 0
M  V30 1083 C 102.808 -4.21734 -0.447383 0
M  V30 1084 N 103.199 -5.03257 0.506535 0
M  V30 1085 C 101.497 -4.40536 -0.695966 0
M  V30 1086 C 102.198 -5.74426 0.917068 0
M  V30 1087 N 101.174 -5.42966 0.26253 0
M  V30 1088 H 104.976 -2.87965 0.587672 0
M  V30 1089 H 102.49 -1.56803 0.422697 0
M  V30 1090 H 104.487 -3.8089 -1.69495 0
M  V30 1091 H 103.147 -2.64702 -1.8805 0
M  V30 1092 H 104.158 -5.10319 0.882899 0
M  V30 1093 H 100.835 -3.92802 -1.41467 0
M  V30 1094 H 102.225 -6.4995 1.70338 0
M  V30 1095 N 104.945 -0.338344 -1.53925 0
M  V30 1096 C 106.192 0.259758 -2.00827 0
M  V30 1097 C 106.52 1.50973 -1.22628 0
M  V30 1098 O 105.775 1.93379 -0.300509 0
M  V30 1099 C 106.074 0.62448 -3.51902 0
M  V30 1100 C 105.74 -0.528006 -4.47798 0
M  V30 1101 C 104.402 -0.844298 -4.73735 0
M  V30 1102 C 106.754 -1.30143 -5.0469 0
M  V30 1103 C 104.082 -1.93648 -5.53821 0
M  V30 1104 C 106.434 -2.38382 -5.85967 0
M  V30 1105 C 105.098 -2.70576 -6.10201 0
M  V30 1106 H 104.368 0.0950523 -0.734878 0
M  V30 1107 H 107.015 -0.465182 -1.85764 0
M  V30 1108 H 105.32 1.43006 -3.64769 0
M  V30 1109 H 107.017 1.09905 -3.85645 0
M  V30 1110 H 103.607 -0.271421 -4.2774 0
M  V30 1111 H 107.791 -1.07033 -4.84621 0
M  V30 1112 H 103.047 -2.19021 -5.70824 0
M  V30 1113 H 107.221 -2.98746 -6.29066 0
M  V30 1114 H 104.848 -3.55333 -6.72044 0
M  V30 1115 N 106.423 1.57458 -0.0668435 0
M  V30 1116 C 107.651 1.97624 0.612565 0
M  V30 1117 C 108.066 0.94502 1.63447 0
M  V30 1118 O 107.423 -0.0689276 1.8237 0
M  V30 1119 C 107.474 3.37869 1.28555 0
M  V30 1120 O 107.195 4.3704 0.304557 0
M  V30 1121 C 108.696 3.92882 2.05325 0
M  V30 1122 H 105.916 0.650045 0.166381 0
M  V30 1123 H 108.46 2.04035 -0.137782 0
M  V30 1124 H 106.615 3.3256 1.98702 0
M  V30 1125 H 107.029 5.18565 0.786779 0
M  V30 1126 H 108.503 4.93247 2.47812 0
M  V30 1127 H 108.98 3.29156 2.9078 0
M  V30 1128 H 109.586 4.01577 1.40056 0
M  V30 1129 N 107.901 -0.206675 1.56239 0
M  V30 1130 C 109.15 -0.926964 1.79138 0
M  V30 1131 C 109.463 -1.84901 0.638043 0
M  V30 1132 O 110.669 -2.60906 0.751033 0
M  V30 1133 C 109.125 -1.6986 3.17294 0
M  V30 1134 C 108.733 -0.821956 4.40395 0
M  V30 1135 C 110.477 -2.40922 3.4951 0
M  V30 1136 C 108.384 -1.59179 5.69575 0
M  V30 1137 H 107.314 -0.349864 0.667915 0
M  V30 1138 H 109.965 -0.180487 1.8261 0
M  V30 1139 H 108.347 -2.48853 3.08039 0
M  V30 1140 H 109.521 -0.0715019 4.60745 0
M  V30 1141 H 107.836 -0.222741 4.15804 0
M  V30 1142 H 110.433 -2.99047 4.43255 0
M  V30 1143 H 110.776 -3.14542 2.72707 0
M  V30 1144 H 111.309 -1.68905 3.60161 0
M  V30 1145 H 108.048 -0.898589 6.49312 0
M  V30 1146 H 107.568 -2.31648 5.53262 0
M  V30 1147 H 109.247 -2.14862 6.10281 0
M  V30 1148 N 109.379 -1.50304 -0.473955 0
M  V30 1149 C 110.656 -1.51667 -1.23518 0
M  V30 1150 C 111.036 -0.259701 -2.09496 0
M  V30 1151 O 110.384 0.756986 -2.15597 0
M  V30 1152 C 110.594 -2.81082 -2.06868 0
M  V30 1153 C 111.942 -3.31631 -2.65153 0
M  V30 1154 O 112.966 -2.82384 -2.17113 0
M  V30 1155 O 111.825 -4.17471 -3.52675 0
M  V30 1156 H 108.919 -0.60822 -0.560355 0
M  V30 1157 H 111.465 -1.62592 -0.486011 0
M  V30 1158 H 110.237 -3.64041 -1.4349 0
M  V30 1159 H 109.86 -2.73146 -2.88924 0
M  V30 1160 N 110.857 0.726932 -1.39834 0
M  V30 1161 C 112.134 1.47902 -1.28001 0
M  V30 1162 C 112.514 2.1083 0.106789 0
M  V30 1163 O 111.862 1.99242 1.11869 0
M  V30 1164 C 112.072 2.52392 -2.41038 0
M  V30 1165 C 113.42 3.18546 -2.80737 0
M  V30 1166 O 114.444 2.62708 -2.40547 0
M  V30 1167 O 113.303 4.19604 -3.50135 0
M  V30 1168 H 110.397 0.657163 -0.502062 0
M  V30 1169 H 112.943 0.760071 -1.51727 0
M  V30 1170 H 111.715 2.04329 -3.33715 0
M  V30 1171 H 111.338 3.31837 -2.19021 0
M  V30 1172 N 112.336 1.25143 0.95797 0
M  V30 1173 C 113.583 1.09692 1.70217 0
M  V30 1174 C 113.911 -0.362654 1.91089 0
M  V30 1175 O 113.166 -1.28386 1.47701 0
M  V30 1176 C 113.465 1.79272 3.09187 0
M  V30 1177 C 113.131 3.29196 3.08125 0
M  V30 1178 C 111.793 3.70096 3.07543 0
M  V30 1179 C 114.145 4.24995 3.0171 0
M  V30 1180 C 111.473 5.05213 2.9829 0
M  V30 1181 C 113.825 5.60132 2.93999 0
M  V30 1182 C 112.489 6.00365 2.9175 0
M  V30 1183 H 111.759 0.401393 0.622868 0
M  V30 1184 H 114.406 1.55372 1.11945 0
M  V30 1185 H 112.711 1.26014 3.70982 0
M  V30 1186 H 114.408 1.64773 3.65583 0
M  V30 1187 H 110.998 2.96651 3.09348 0
M  V30 1188 H 115.182 3.9439 3.01281 0
M  V30 1189 H 110.438 5.35569 2.94916 0
M  V30 1190 H 114.612 6.3406 2.87996 0
M  V30 1191 H 112.239 7.05023 2.84336 0
M  V30 1192 N 113.814 -1.1601 1.06675 0
M  V30 1193 C 114.724 -2.24156 0.692179 0
M  V30 1194 C 115.74 -1.71507 -0.293513 0
M  V30 1195 O 116.916 -2.009 -0.141861 0
M  V30 1196 C 113.981 -3.46587 0.0884131 0
M  V30 1197 C 113.042 -4.14257 1.12646 0
M  V30 1198 C 112.275 -5.30844 0.551416 0
M  V30 1199 O 112.498 -5.66858 -0.634656 0
M  V30 1200 O 111.432 -5.87848 1.29298 0
M  V30 1201 H 115.258 -2.58513 1.59388 0
M  V30 1202 H 112.843 -1.23599 0.83926 0
M  V30 1203 H 114.725 -4.20679 -0.246361 0
M  V30 1204 H 113.4 -3.13994 -0.786712 0
M  V30 1205 H 112.307 -3.42118 1.51348 0
M  V30 1206 H 113.64 -4.50914 1.97325 0
M  V30 1207 N 115.292 -0.849877 -1.32721 0
M  V30 1208 C 116.541 -0.447175 -1.96681 0
M  V30 1209 C 116.854 1.00135 -1.68025 0
M  V30 1210 O 118.06 1.50926 -2.25685 0
M  V30 1211 C 116.516 -0.7487 -3.52026 0
M  V30 1212 C 116.124 -2.21264 -3.89546 0
M  V30 1213 C 117.868 -0.413487 -4.22481 0
M  V30 1214 C 115.775 -2.45763 -5.37917 0
M  V30 1215 H 114.705 -0.163486 -0.736063 0
M  V30 1216 H 117.356 -1.03999 -1.51183 0
M  V30 1217 H 115.738 -0.0853727 -3.95908 0
M  V30 1218 H 116.912 -2.91736 -3.56689 0
M  V30 1219 H 115.227 -2.5119 -3.32103 0
M  V30 1220 H 117.824 -0.574017 -5.3161 0
M  V30 1221 H 118.167 0.644492 -4.11281 0
M  V30 1222 H 118.7 -1.03251 -3.84167 0
M  V30 1223 H 115.439 -3.50168 -5.54132 0
M  V30 1224 H 114.959 -1.79864 -5.72197 0
M  V30 1225 H 116.638 -2.29471 -6.0494 0
M  V30 1226 N 116.77 1.45427 -0.607355 0
M  V30 1227 C 118.018 2.01841 -0.102253 0
M  V30 1228 C 118.339 1.47832 1.27164 0
M  V30 1229 O 117.609 0.672497 1.83995 0
M  V30 1230 H 116.189 0.746188 -0.0348101 0
M  V30 1231 H 118.851 1.78229 -0.7887 0
M  V30 1232 H 117.947 3.12057 -0.0518585 0
M  V30 1233 N 118.248 0.346503 1.53744 0
M  V30 1234 C 119.664 -0.00530975 1.59599 0
M  V30 1235 C 119.864 -1.48465 1.36236 0
M  V30 1236 O 118.92 -2.24376 1.15808 0
M  V30 1237 C 120.233 0.433516 2.97559 0
M  V30 1238 C 121.781 0.386111 3.10609 0
M  V30 1239 C 122.256 0.800451 4.50951 0
M  V30 1240 N 123.747 0.754753 4.5701 0
M  V30 1241 C 124.482 1.04727 5.63755 0
M  V30 1242 N 123.978 1.4081 6.7834 0
M  V30 1243 N 125.771 0.971316 5.53644 0
M  V30 1244 H 117.922 1.31009 1.67184 0
M  V30 1245 H 120.185 0.534242 0.783128 0
M  V30 1246 H 119.891 1.46509 3.19731 0
M  V30 1247 H 119.765 -0.189753 3.76722 0
M  V30 1248 H 122.152 -0.636295 2.88158 0
M  V30 1249 H 122.233 1.04462 2.33498 0
M  V30 1250 H 121.877 1.82088 4.74137 0
M  V30 1251 H 121.807 0.119386 5.26465 0
M  V30 1252 H 124.298 0.488662 3.74727 0
M  V30 1253 H 124.611 1.61607 7.55714 0
M  V30 1254 H 122.956 1.44657 6.79779 0
M  V30 1255 H 126.147 0.688748 4.63005 0
M  V30 1256 H 126.32 1.20263 6.36742 0
M  V30 1257 N 119.726 -1.57421 0.075193 0
M  V30 1258 C 121.137 -1.81021 -0.456964 0
M  V30 1259 C 121.488 -0.98936 -1.69429 0
M  V30 1260 O 120.613 -0.212865 -2.15351 0
M  V30 1261 C 121.208 -3.28329 -0.83581 0
M  V30 1262 C 119.767 -3.52764 -1.31281 0
M  V30 1263 C 118.914 -2.75676 -0.299648 0
M  V30 1264 H 121.865 -1.55822 0.300856 0
M  V30 1265 H 121.886 -3.40564 -1.69696 0
M  V30 1266 H 121.398 -3.88046 0.0649238 0
M  V30 1267 H 119.499 -2.98355 -2.23193 0
M  V30 1268 H 119.612 -4.61451 -1.28839 0
M  V30 1269 H 117.976 -2.42538 -0.777641 0
M  V30 1270 H 118.759 -3.38132 0.593417 0
M  V30 1271 N 121.204 0.198386 -1.56346 0
M  V30 1272 C 122.134 1.24865 -1.9731 0
M  V30 1273 C 123.115 1.47651 -0.844576 0
M  V30 1274 O 124.3 1.59444 -1.10866 0
M  V30 1275 C 121.43 2.59358 -2.30977 0
M  V30 1276 C 120.384 2.5119 -3.46537 0
M  V30 1277 C 119.71 3.89926 -3.65871 0
M  V30 1278 C 121.01 2.03977 -4.80823 0
M  V30 1279 H 122.704 0.908252 -2.85291 0
M  V30 1280 H 120.25 0.435462 -1.37258 0
M  V30 1281 H 122.203 3.33011 -2.58228 0
M  V30 1282 H 120.927 2.95132 -1.39874 0
M  V30 1283 H 119.586 1.79993 -3.19371 0
M  V30 1284 H 119.234 4.23046 -2.72105 0
M  V30 1285 H 118.934 3.85336 -4.4361 0
M  V30 1286 H 120.458 4.65205 -3.95495 0
M  V30 1287 H 121.872 2.67386 -5.07127 0
M  V30 1288 H 120.269 2.10397 -5.62008 0
M  V30 1289 H 121.339 0.992861 -4.74626 0
M  V30 1290 N 122.682 1.50554 0.465978 0
M  V30 1291 C 123.93 1.61479 1.21528 0
M  V30 1292 C 124.251 0.319596 1.92363 0
M  V30 1293 O 123.521 -0.663194 1.84333 0
M  V30 1294 H 122.101 0.595055 0.451573 0
M  V30 1295 H 124.763 1.87355 0.53704 0
M  V30 1296 H 123.859 2.42846 1.96042 0
M  V30 1297 N 124.16 -0.719506 1.40217 0
M  V30 1298 C 125.107 -1.83359 1.40172 0
M  V30 1299 C 126.077 -1.64065 0.259206 0
M  V30 1300 O 127.262 -1.85254 0.456677 0
M  V30 1301 C 124.402 -3.2103 1.26624 0
M  V30 1302 C 123.515 -3.51923 2.50548 0
M  V30 1303 C 122.65 -4.79079 2.29471 0
M  V30 1304 C 121.689 -5.02863 3.48992 0
M  V30 1305 N 120.826 -6.2123 3.27135 0
M  V30 1306 H 125.666 -1.82733 2.35399 0
M  V30 1307 H 123.203 -0.892688 1.16917 0
M  V30 1308 H 125.161 -4.00524 1.16776 0
M  V30 1309 H 123.791 -3.20895 0.350176 0
M  V30 1310 H 122.843 -2.67014 2.70939 0
M  V30 1311 H 124.155 -3.6541 3.39525 0
M  V30 1312 H 123.309 -5.66582 2.16955 0
M  V30 1313 H 122.048 -4.67794 1.37913 0
M  V30 1314 H 121.053 -4.13816 3.6199 0
M  V30 1315 H 122.278 -5.16023 4.41472 0
M  V30 1316 H 120.224 -6.11204 2.38256 0
M  V30 1317 H 120.141 -6.35375 4.09675 0
M  V30 1318 H 121.409 -7.11532 3.18344 0
M  V30 1319 N 125.638 -1.25649 -0.95132 0
M  V30 1320 C 126.886 -1.10375 -1.69298 0
M  V30 1321 C 127.207 0.355339 -1.91735 0
M  V30 1322 O 126.477 1.25188 -1.50681 0
M  V30 1323 H 125.057 -0.405461 -0.627384 0
M  V30 1324 H 127.719 -1.57823 -1.14358 0
M  V30 1325 H 126.815 -1.61465 -2.67087 0
M  V30 1326 N 127.117 1.15442 -1.07289 0
M  V30 1327 C 128.064 2.20161 -0.692653 0
M  V30 1328 C 129.034 1.63073 0.31564 0
M  V30 1329 O 130.219 1.89725 0.202235 0
M  V30 1330 C 127.359 3.44967 -0.0959509 0
M  V30 1331 C 126.472 4.16256 -1.15564 0
M  V30 1332 C 125.607 5.28609 -0.524011 0
M  V30 1333 C 124.646 5.91715 -1.56653 0
M  V30 1334 N 123.783 6.9554 -0.957531 0
M  V30 1335 H 128.623 2.52037 -1.59002 0
M  V30 1336 H 126.16 1.2378 -0.794798 0
M  V30 1337 H 128.118 4.16341 0.267628 0
M  V30 1338 H 126.748 3.1361 0.764772 0
M  V30 1339 H 125.8 3.43385 -1.6368 0
M  V30 1340 H 127.112 4.59268 -1.94613 0
M  V30 1341 H 126.266 6.06604 -0.108032 0
M  V30 1342 H 125.005 4.86787 0.29825 0
M  V30 1343 H 124.01 5.12433 -1.9923 0
M  V30 1344 H 125.235 6.35614 -2.39107 0
M  V30 1345 H 123.181 6.55814 -0.156162 0
M  V30 1346 H 123.098 7.36977 -1.68526 0
M  V30 1347 H 124.366 7.77435 -0.567032 0
M  V30 1348 N 128.595 0.856903 1.32268 0
M  V30 1349 C 129.842 0.461386 1.97174 0
M  V30 1350 C 130.17 -0.983491 1.67803 0
M  V30 1351 O 129.425 -1.70541 0.959903 0
M  V30 1352 C 129.724 0.649919 3.51441 0
M  V30 1353 C 129.39 2.0656 4.00804 0
M  V30 1354 C 128.052 2.45279 4.13995 0
M  V30 1355 C 130.404 2.98947 4.26943 0
M  V30 1356 C 127.732 3.75653 4.50668 0
M  V30 1357 C 130.084 4.28822 4.65075 0
M  V30 1358 C 128.748 4.67472 4.76472 0
M  V30 1359 H 128.018 0.168833 0.72151 0
M  V30 1360 H 130.665 1.08739 1.57633 0
M  V30 1361 H 128.97 -0.0593018 3.91755 0
M  V30 1362 H 130.667 0.32391 3.9969 0
M  V30 1363 H 127.257 1.75495 3.91024 0
M  V30 1364 H 131.441 2.70265 4.16258 0
M  V30 1365 H 126.697 4.05379 4.57688 0
M  V30 1366 H 130.871 5.0047 4.84255 0
M  V30 1367 H 128.498 5.68539 5.04646 0
M  V30 1368 N 130.073 -1.45103 0.615059 0
M  V30 1369 C 131.321 -2.01784 0.112955 0
M  V30 1370 C 131.642 -1.48504 -1.26378 0
M  V30 1371 O 130.912 -0.682245 -1.83636 0
M  V30 1372 H 129.492 -0.745993 0.0387668 0
M  V30 1373 H 132.154 -1.77808 0.798141 0
M  V30 1374 H 131.25 -3.12025 0.0684069 0
M  V30 1375 N 131.551 -0.354651 -1.53558 0
M  V30 1376 C 132.499 0.512195 -2.26891 0
M  V30 1377 C 133.493 1.09263 -1.29452 0
M  V30 1378 O 134.699 1.03709 -1.47121 0
M  V30 1379 H 131.074 0.183878 -0.729173 0
M  V30 1380 H 133.045 -0.128202 -2.98124 0
M  V30 1381 C 131.794 1.64563 -3.06291 0
M  V30 1382 H 131.117 1.20829 -3.81104 0
M  V30 1383 H 132.557 2.22711 -3.60799 0
M  V30 1384 C 131.016 2.58158 -2.16462 0
M  V30 1385 O 131.546 3.60695 -1.76811 0
M  V30 1386 N 129.752 2.27096 -1.81317 0
M  V30 1387 H 129.299 1.43751 -2.1376 0
M  V30 1388 H 129.257 2.89975 -1.21498 0
M  V30 1389 N 133.029 1.57378 -0.0835403 0
M  V30 1390 C 134.275 1.94217 0.583733 0
M  V30 1391 C 134.608 0.964653 1.68547 0
M  V30 1392 O 133.883 -0.00422258 1.945 0
M  V30 1393 C 134.166 3.41253 1.14972 0
M  V30 1394 C 134.019 4.49768 0.0538277 0
M  V30 1395 C 135.338 3.89352 2.05166 0
M  V30 1396 H 132.457 0.706233 0.210724 0
M  V30 1397 H 135.099 1.89392 -0.1519 0
M  V30 1398 H 133.249 3.45496 1.77665 0
M  V30 1399 H 134.921 4.57641 -0.579851 0
M  V30 1400 H 133.164 4.29432 -0.614068 0
M  V30 1401 H 133.835 5.49817 0.490452 0
M  V30 1402 H 136.311 3.87189 1.52393 0
M  V30 1403 H 135.187 4.92822 2.41698 0
M  V30 1404 H 135.448 3.27973 2.96456 0
M  V30 1405 N 134.507 -0.190092 1.56449 0
M  V30 1406 C 135.737 -0.92443 1.84764 0
M  V30 1407 C 136.145 -1.77146 0.664529 0
M  V30 1408 O 135.488 -1.79812 -0.375957 0
M  V30 1409 C 135.55 -1.86651 3.07248 0
M  V30 1410 C 135.214 -1.20094 4.40938 0
M  V30 1411 C 136.211 -0.575445 5.16706 0
M  V30 1412 C 133.896 -1.2033 4.87674 0
M  V30 1413 C 135.89 0.0388111 6.37388 0
M  V30 1414 C 133.577 -0.585214 6.08291 0
M  V30 1415 C 134.575 0.0347578 6.82991 0
M  V30 1416 O 134.263 0.643147 8.01323 0
M  V30 1417 H 133.995 -0.274974 0.617548 0
M  V30 1418 H 136.549 -0.200788 2.04416 0
M  V30 1419 H 134.779 -2.62998 2.83494 0
M  V30 1420 H 136.468 -2.46907 3.22167 0
M  V30 1421 H 137.234 -0.565728 4.81689 0
M  V30 1422 H 133.113 -1.67526 4.29484 0
M  V30 1423 H 136.657 0.523329 6.95634 0
M  V30 1424 H 132.554 -0.592451 6.42775 0
M  V30 1425 H 133.322 0.540545 8.16713 0
M  V30 1426 N 135.985 -1.50799 -0.457987 0
M  V30 1427 C 136.915 -1.73553 -1.5621 0
M  V30 1428 C 137.896 -0.584774 -1.59732 0
M  V30 1429 O 139.081 -0.825314 -1.7579 0
M  V30 1430 C 136.211 -1.84169 -2.94447 0
M  V30 1431 C 135.165 -2.99461 -3.0579 0
M  V30 1432 C 134.491 -2.95235 -4.45803 0
M  V30 1433 C 135.791 -4.39766 -2.81786 0
M  V30 1434 H 137.485 -2.66 -1.37421 0
M  V30 1435 H 135.031 -1.28002 -0.659662 0
M  V30 1436 H 136.984 -1.98672 -3.71628 0
M  V30 1437 H 135.708 -0.883545 -3.14422 0
M  V30 1438 H 134.367 -2.8463 -2.31044 0
M  V30 1439 H 134.015 -1.97239 -4.62715 0
M  V30 1440 H 133.715 -3.72642 -4.54326 0
M  V30 1441 H 135.239 -3.11803 -5.24987 0
M  V30 1442 H 136.653 -4.55054 -3.4871 0
M  V30 1443 H 135.05 -5.18722 -3.0174 0
M  V30 1444 H 136.12 -4.51229 -1.7754 0
M  V30 1445 N 137.463 0.71206 -1.40597 0
M  V30 1446 C 138.426 1.80785 -1.40888 0
M  V30 1447 C 139.426 1.57937 -0.302103 0
M  V30 1448 O 140.616 1.64913 -0.561182 0
M  V30 1449 C 137.748 3.18927 -1.20409 0
M  V30 1450 H 138.941 1.81924 -2.38419 0
M  V30 1451 H 136.494 0.91805 -1.26497 0
M  V30 1452 H 137.229 3.23436 -0.236522 0
M  V30 1453 H 137.014 3.36911 -2.00582 0
M  V30 1454 H 138.504 3.98949 -1.23408 0
M  V30 1455 N 138.941 1.26152 0.944643 0
M  V30 1456 C 140.357 1.03189 1.21754 0
M  V30 1457 C 140.557 -0.245112 2.00004 0
M  V30 1458 O 139.613 -0.955176 2.33736 0
M  V30 1459 C 140.926 2.26119 1.98219 0
M  V30 1460 C 142.474 2.30984 2.11224 0
M  V30 1461 C 142.949 3.53597 2.91089 0
M  V30 1462 N 144.44 3.54053 2.98664 0
M  V30 1463 C 145.175 4.45593 3.60881 0
M  V30 1464 N 144.671 5.47416 4.24626 0
M  V30 1465 N 146.464 4.33252 3.58119 0
M  V30 1466 H 138.615 2.08177 0.421437 0
M  V30 1467 H 140.878 0.914723 0.248969 0
M  V30 1468 H 140.584 3.18984 1.48128 0
M  V30 1469 H 140.458 2.3009 2.98895 0
M  V30 1470 H 142.845 1.38635 2.60508 0
M  V30 1471 H 142.926 2.31026 1.09821 0
M  V30 1472 H 142.57 4.46273 2.42493 0
M  V30 1473 H 142.5 3.50802 3.92741 0
M  V30 1474 H 144.991 2.80403 2.53343 0
M  V30 1475 H 145.304 6.13459 4.69987 0
M  V30 1476 H 143.649 5.51278 4.23223 0
M  V30 1477 H 146.84 3.52924 3.0751 0
M  V30 1478 H 147.013 5.04786 4.06319 0
M  V30 1479 N 140.419 -1.14872 1.07899 0
M  V30 1480 C 141.329 -2.2341 0.715915 0
M  V30 1481 C 142.345 -1.71808 -0.275306 0
M  V30 1482 O 143.521 -2.01039 -0.120545 0
M  V30 1483 C 140.586 -3.46474 0.125168 0
M  V30 1484 C 139.647 -4.13039 1.17034 0
M  V30 1485 C 138.88 -5.30229 0.607688 0
M  V30 1486 O 139.103 -5.675 -0.574497 0
M  V30 1487 O 138.037 -5.86444 1.35526 0
M  V30 1488 H 141.863 -2.56808 1.62121 0
M  V30 1489 H 139.448 -1.22702 0.852322 0
M  V30 1490 H 141.33 -4.20917 -0.201729 0
M  V30 1491 H 140.005 -3.14811 -0.753364 0
M  V30 1492 H 138.912 -3.40493 1.54968 0
M  V30 1493 H 140.245 -4.48796 2.02097 0
M  V30 1494 N 141.898 -0.863906 -1.31812 0
M  V30 1495 C 142.845 -0.313303 -2.28664 0
M  V30 1496 C 143.815 0.584868 -1.55462 0
M  V30 1497 O 145 0.517805 -1.83639 0
M  V30 1498 C 142.14 0.48441 -3.41683 0
M  V30 1499 C 141.253 -0.440594 -4.29747 0
M  V30 1500 C 140.388 0.370652 -5.29905 0
M  V30 1501 C 139.427 -0.551164 -6.09613 0
M  V30 1502 N 138.564 0.223462 -7.01744 0
M  V30 1503 H 143.404 -1.14444 -2.75148 0
M  V30 1504 H 140.941 -0.575769 -1.35364 0
M  V30 1505 H 142.899 0.962627 -4.05943 0
M  V30 1506 H 141.529 1.28029 -2.96325 0
M  V30 1507 H 140.581 -1.03724 -3.65986 0
M  V30 1508 H 141.893 -1.14767 -4.85417 0
M  V30 1509 H 141.047 0.911638 -5.99812 0
M  V30 1510 H 139.786 1.11105 -4.74876 0
M  V30 1511 H 138.791 -1.10396 -5.38603 0
M  V30 1512 H 140.016 -1.29032 -6.66729 0
M  V30 1513 H 137.962 0.946787 -6.49132 0
M  V30 1514 H 137.879 -0.424399 -7.54808 0
M  V30 1515 H 139.147 0.745876 -7.75923 0
M  V30 1516 N 143.376 1.44774 -0.622745 0
M  V30 1517 C 144.323 2.30635 0.0871679 0
M  V30 1518 C 145.293 1.42994 0.845097 0
M  V30 1519 O 146.478 1.71907 0.827812 0
M  V30 1520 C 143.618 3.28144 1.06844 0
M  V30 1521 C 142.731 4.30888 0.309809 0
M  V30 1522 C 141.866 5.15494 1.28215 0
M  V30 1523 C 140.905 6.09953 0.512198 0
M  V30 1524 N 140.042 6.87287 1.43458 0
M  V30 1525 H 144.882 2.90803 -0.650974 0
M  V30 1526 H 142.419 1.43286 -0.33281 0
M  V30 1527 H 144.377 3.83157 1.65066 0
M  V30 1528 H 143.007 2.69695 1.77382 0
M  V30 1529 H 142.059 3.78414 -0.388181 0
M  V30 1530 H 143.371 4.97955 -0.290254 0
M  V30 1531 H 142.525 5.74983 1.93596 0
M  V30 1532 H 141.264 4.48481 1.91614 0
M  V30 1533 H 140.269 5.49581 -0.155151 0
M  V30 1534 H 141.494 6.78999 -0.116958 0
M  V30 1535 H 139.44 6.2295 2.05594 0
M  V30 1536 H 139.357 7.50763 0.888335 0
M  V30 1537 H 140.625 7.51306 2.07749 0
M  V30 1538 N 144.854 0.36279 1.53368 0
M  V30 1539 C 146.079 -0.231226 2.06107 0
M  V30 1540 C 146.504 -1.419 1.23474 0
M  V30 1541 O 145.862 -1.79524 0.253128 0
M  V30 1542 C 145.91 -0.605523 3.5548 0
M  V30 1543 O 145.014 -1.70312 3.7559 0
M  V30 1544 H 144.355 -0.034327 0.663112 0
M  V30 1545 H 146.885 0.522584 1.97814 0
M  V30 1546 H 146.895 -0.877314 3.98456 0
M  V30 1547 H 145.57 0.263004 4.15068 0
M  V30 1548 H 144.147 -1.4271 3.44512 0
M  V30 1549 N 146.332 -1.57332 0.0918853 0
M  V30 1550 C 147.282 -2.10385 -0.87876 0
M  V30 1551 C 148.266 -1.01814 -1.24591 0
M  V30 1552 O 149.458 -1.28093 -1.22152 0
M  V30 1553 C 146.587 -2.68517 -2.13901 0
M  V30 1554 C 145.673 -3.84126 -1.79744 0
M  V30 1555 N 146.064 -4.92288 -1.1613 0
M  V30 1556 C 144.362 -3.93801 -2.09373 0
M  V30 1557 C 145.063 -5.7295 -1.00513 0
M  V30 1558 N 144.039 -5.21876 -1.5214 0
M  V30 1559 H 147.841 -2.91395 -0.38293 0
M  V30 1560 H 145.355 -1.62017 -0.111423 0
M  V30 1561 H 147.352 -3.04852 -2.84378 0
M  V30 1562 H 146.012 -1.88961 -2.64053 0
M  V30 1563 H 147.023 -5.1123 -0.828504 0
M  V30 1564 H 143.7 -3.25249 -2.61762 0
M  V30 1565 H 145.09 -6.69978 -0.507902 0
M  V30 1566 N 147.81 0.181792 -1.56548 0
M  V30 1567 C 149.057 0.900097 -1.81396 0
M  V30 1568 C 149.385 1.82695 -0.667281 0
M  V30 1569 O 148.64 1.92614 0.346146 0
M  V30 1570 C 148.939 1.73728 -3.12335 0
M  V30 1571 C 148.605 0.960255 -4.40556 0
M  V30 1572 C 147.267 0.745766 -4.75386 0
M  V30 1573 C 149.619 0.414477 -5.19549 0
M  V30 1574 C 146.947 -0.0257694 -5.86694 0
M  V30 1575 C 149.299 -0.343916 -6.31664 0
M  V30 1576 C 147.963 -0.569301 -6.65068 0
M  V30 1577 H 147.233 0.329369 -0.663775 0
M  V30 1578 H 149.88 0.165647 -1.90782 0
M  V30 1579 H 148.185 2.54081 -2.98245 0
M  V30 1580 H 149.882 2.29591 -3.28769 0
M  V30 1581 H 146.472 1.13746 -4.13231 0
M  V30 1582 H 150.656 0.567554 -4.93044 0
M  V30 1583 H 145.912 -0.210233 -6.11038 0
M  V30 1584 H 150.086 -0.774133 -6.92084 0
M  V30 1585 H 147.713 -1.16903 -7.51158 0
M  V30 1586 N 149.288 1.51039 0.449983 0
M  V30 1587 C 150.537 1.62317 1.19733 0
M  V30 1588 C 150.85 0.339101 1.92638 0
M  V30 1589 O 152.056 0.331069 2.69474 0
M  V30 1590 C 150.512 2.86608 2.17678 0
M  V30 1591 C 150.12 4.21972 1.50479 0
M  V30 1592 C 151.864 3.07239 2.92924 0
M  V30 1593 C 149.771 5.37426 2.46834 0
M  V30 1594 H 148.701 0.604532 0.450619 0
M  V30 1595 H 151.352 1.77494 0.465625 0
M  V30 1596 H 149.734 2.65037 2.94231 0
M  V30 1597 H 150.908 4.53878 0.795716 0
M  V30 1598 H 149.223 4.07117 0.874344 0
M  V30 1599 H 151.82 3.90668 3.65079 0
M  V30 1600 H 152.163 2.19807 3.5354 0
M  V30 1601 H 152.696 3.29091 2.23481 0
M  V30 1602 H 149.435 6.27079 1.90926 0
M  V30 1603 H 148.955 5.09912 3.15832 0
M  V30 1604 H 150.634 5.68862 3.08228 0
M  V30 1605 N 150.766 -0.704594 1.40972 0
M  V30 1606 C 152.012 -1.46675 1.40051 0
M  V30 1607 C 152.345 -1.94199 0.00641102 0
M  V30 1608 O 151.62 -1.68916 -0.964235 0
M  V30 1609 C 151.903 -2.68505 2.39952 0
M  V30 1610 C 151.756 -2.26805 3.88432 0
M  V30 1611 C 153.075 -3.70686 2.37233 0
M  V30 1612 H 150.194 -0.532015 0.510028 0
M  V30 1613 H 152.836 -0.803255 1.72185 0
M  V30 1614 H 150.986 -3.25114 2.1268 0
M  V30 1615 H 152.658 -1.75592 4.26574 0
M  V30 1616 H 150.901 -1.58685 4.03734 0
M  V30 1617 H 151.572 -3.14181 4.53866 0
M  V30 1618 H 154.048 -3.23731 2.61415 0
M  V30 1619 H 152.924 -4.53553 3.09162 0
M  V30 1620 H 153.185 -4.19754 1.38777 0
M  V30 1621 N 152.244 -1.26651 -0.937939 0
M  V30 1622 C 153.207 -1.08546 -2.01867 0
M  V30 1623 C 154.207 -0.0327327 -1.60767 0
M  V30 1624 O 155.397 -0.276427 -1.71993 0
M  V30 1625 C 152.529 -0.651711 -3.34613 0
M  V30 1626 H 153.722 -2.04502 -2.1936 0
M  V30 1627 H 151.275 -1.09294 -1.11734 0
M  V30 1628 H 152.01 0.309696 -3.22818 0
M  V30 1629 H 151.795 -1.41189 -3.65798 0
M  V30 1630 H 153.285 -0.546973 -4.14002 0
M  V30 1631 N 153.722 1.14298 -1.08507 0
M  V30 1632 C 154.652 2.21542 -0.737646 0
M  V30 1633 C 155.633 1.67773 0.280377 0
M  V30 1634 O 156.818 1.93616 0.150521 0
M  V30 1635 C 153.948 3.46988 -0.147259 0
M  V30 1636 C 152.902 4.13789 -1.09374 0
M  V30 1637 C 152.228 5.33449 -0.365524 0
M  V30 1638 C 153.528 4.62208 -2.4323 0
M  V30 1639 H 155.222 2.5086 -1.6343 0
M  V30 1640 H 152.768 1.20576 -0.787243 0
M  V30 1641 H 154.721 4.21262 0.107808 0
M  V30 1642 H 153.445 3.17037 0.784538 0
M  V30 1643 H 152.104 3.4147 -1.33393 0
M  V30 1644 H 151.752 4.99759 0.57011 0
M  V30 1645 H 151.452 5.79088 -0.996512 0
M  V30 1646 H 152.976 6.10485 -0.118534 0
M  V30 1647 H 154.39 5.27952 -2.23472 0
M  V30 1648 H 152.787 5.18553 -3.02031 0
M  V30 1649 H 153.857 3.77224 -3.04681 0
M  V30 1650 N 155.201 0.870884 1.31352 0
M  V30 1651 C 156.148 0.325425 2.28494 0
M  V30 1652 C 157.118 -0.576615 1.5577 0
M  V30 1653 O 158.303 -0.508059 1.83911 0
M  V30 1654 C 155.443 -0.466283 3.41935 0
M  V30 1655 C 154.556 0.463378 4.29508 0
M  V30 1656 C 153.691 -0.342544 5.30094 0
M  V30 1657 C 152.73 0.583486 6.09313 0
M  V30 1658 N 151.867 -0.186244 7.01853 0
M  V30 1659 H 156.707 1.15901 2.74538 0
M  V30 1660 H 154.244 0.58294 1.35056 0
M  V30 1661 H 156.202 -0.941085 4.06447 0
M  V30 1662 H 154.832 -1.26456 2.97 0
M  V30 1663 H 153.884 1.05663 3.65431 0
M  V30 1664 H 155.196 1.1734 4.84802 0
M  V30 1665 H 154.35 -0.879816 6.00287 0
M  V30 1666 H 153.089 -1.08585 4.75458 0
M  V30 1667 H 152.094 1.13251 5.3801 0
M  V30 1668 H 153.319 1.32566 6.66035 0
M  V30 1669 H 151.265 -0.912348 6.49625 0
M  V30 1670 H 151.182 0.464422 7.54572 0
M  V30 1671 H 152.45 -0.704716 7.76308 0
M  V30 1672 N 156.679 -1.44442 0.630414 0
M  V30 1673 C 157.925 -2.02351 0.134816 0
M  V30 1674 C 158.258 -1.4947 -1.23986 0
M  V30 1675 O 157.533 -0.678475 -1.82283 0
M  V30 1676 C 157.816 -3.59898 0.120707 0
M  V30 1677 C 157.669 -4.23063 1.52767 0
M  V30 1678 C 158.988 -4.36585 -0.555127 0
M  V30 1679 H 156.107 -0.73527 0.0504646 0
M  V30 1680 H 158.749 -1.72022 0.806751 0
M  V30 1681 H 156.899 -3.85868 -0.451477 0
M  V30 1682 H 158.571 -4.08202 2.14869 0
M  V30 1683 H 156.814 -3.80586 2.08175 0
M  V30 1684 H 157.485 -5.32071 1.46984 0
M  V30 1685 H 159.961 -4.16044 -0.0685429 0
M  V30 1686 H 158.837 -5.46294 -0.534185 0
M  V30 1687 H 159.098 -4.11138 -1.62535 0
M  V30 1688 N 158.157 -0.370918 -1.53173 0
M  V30 1689 C 159.087 0.464847 -2.28826 0
M  V30 1690 C 160.068 1.07936 -1.31468 0
M  V30 1691 O 161.253 1.0956 -1.60344 0
M  V30 1692 C 158.383 1.60196 -3.08147 0
M  V30 1693 C 157.337 1.11443 -4.13237 0
M  V30 1694 C 156.663 2.3422 -4.80672 0
M  V30 1695 C 157.963 0.195384 -5.21934 0
M  V30 1696 H 159.657 -0.166329 -2.98938 0
M  V30 1697 H 157.203 -0.0814359 -1.4377 0
M  V30 1698 H 159.156 2.19332 -3.59822 0
M  V30 1699 H 157.88 2.26045 -2.35735 0
M  V30 1700 H 156.539 0.545727 -3.62515 0
M  V30 1701 H 156.187 2.98537 -4.04827 0
M  V30 1702 H 155.887 2.02269 -5.51689 0
M  V30 1703 H 157.411 2.94032 -5.35143 0
M  V30 1704 H 158.825 0.694375 -5.69079 0
M  V30 1705 H 157.222 -0.0335027 -6.00091 0
M  V30 1706 H 158.292 -0.760961 -4.78892 0
M  V30 1707 N 159.635 1.57281 -0.100228 0
M  V30 1708 C 160.882 1.94537 0.562268 0
M  V30 1709 C 161.21 0.982315 1.67871 0
M  V30 1710 O 160.465 0.00280936 1.957 0
M  V30 1711 C 160.764 3.38305 1.15259 0
M  V30 1712 C 160.43 4.50618 0.159409 0
M  V30 1713 C 159.092 4.81066 -0.113741 0
M  V30 1714 C 161.444 5.18615 -0.518461 0
M  V30 1715 C 158.772 5.76835 -1.07137 0
M  V30 1716 C 161.124 6.15412 -1.46459 0
M  V30 1717 C 159.788 6.44262 -1.74592 0
M  V30 1718 H 159.058 0.711863 0.205748 0
M  V30 1719 H 161.705 1.90679 -0.17715 0
M  V30 1720 H 160.01 3.38766 1.96836 0
M  V30 1721 H 161.707 3.64435 1.67297 0
M  V30 1722 H 158.297 4.2689 0.382491 0
M  V30 1723 H 162.481 4.95264 -0.320581 0
M  V30 1724 H 157.737 5.975 -1.29628 0
M  V30 1725 H 161.911 6.67194 -1.99564 0
M  V30 1726 H 159.538 7.1828 -2.48953 0
M  V30 1727 N 161.113 -0.173488 1.56642 0
M  V30 1728 C 162.06 -1.21482 1.96242 0
M  V30 1729 C 163.03 -1.44104 0.826027 0
M  V30 1730 O 164.215 -1.5688 1.08597 0
M  V30 1731 C 161.355 -2.54964 2.32567 0
M  V30 1732 C 160.468 -2.39739 3.59373 0
M  V30 1733 C 159.603 -3.66072 3.84921 0
M  V30 1734 C 158.642 -3.45771 5.05083 0
M  V30 1735 N 157.779 -4.64169 5.26775 0
M  V30 1736 H 162.619 -0.870123 2.85014 0
M  V30 1737 H 160.156 -0.418245 1.41029 0
M  V30 1738 H 162.114 -3.32758 2.5165 0
M  V30 1739 H 160.744 -2.87433 1.46908 0
M  V30 1740 H 159.796 -1.53131 3.48217 0
M  V30 1741 H 161.108 -2.20683 4.47326 0
M  V30 1742 H 160.262 -4.52303 4.0436 0
M  V30 1743 H 159.001 -3.88105 2.9534 0
M  V30 1744 H 158.006 -2.57927 4.85545 0
M  V30 1745 H 159.231 -3.25163 5.96193 0
M  V30 1746 H 157.177 -4.86425 4.40144 0
M  V30 1747 H 157.094 -4.48019 6.08946 0
M  V30 1748 H 158.362 -5.51689 5.5069 0
M  V30 1749 N 162.591 -1.51276 -0.441967 0
M  V30 1750 C 163.816 -1.67799 -1.21895 0
M  V30 1751 C 164.241 -0.372864 -1.84367 0
M  V30 1752 O 163.599 0.666501 -1.68604 0
M  V30 1753 C 163.647 -2.79199 -2.28211 0
M  V30 1754 O 162.751 -2.42479 -3.33583 0
M  V30 1755 H 162.092 -0.559649 -0.357336 0
M  V30 1756 H 164.622 -1.97815 -0.522522 0
M  V30 1757 H 164.632 -3.03146 -2.73069 0
M  V30 1758 H 163.307 -3.73906 -1.82118 0
M  V30 1759 H 161.884 -2.29087 -2.94234 0
M  V30 1760 N 164.069 0.697108 -1.41344 0
M  V30 1761 C 165.001 1.8224 -1.39001 0
M  V30 1762 C 166.014 1.60152 -0.292428 0
M  V30 1763 O 167.203 1.69684 -0.554048 0
M  V30 1764 C 164.303 3.18976 -1.14489 0
M  V30 1765 C 163.476 3.68105 -2.36258 0
M  V30 1766 C 162.535 4.83506 -2.07625 0
M  V30 1767 O 161.561 4.95201 -2.8065 0
M  V30 1768 N 162.763 5.70637 -1.06555 0
M  V30 1769 H 165.528 1.84742 -2.35988 0
M  V30 1770 H 163.089 0.87937 -1.35936 0
M  V30 1771 H 165.081 3.93801 -0.932885 0
M  V30 1772 H 163.651 3.11508 -0.261043 0
M  V30 1773 H 162.871 2.84204 -2.7317 0
M  V30 1774 H 164.159 3.97667 -3.17393 0
M  V30 1775 H 163.557 5.63817 -0.461125 0
M  V30 1776 H 162.114 6.45368 -0.913444 0
M  V30 1777 N 165.547 1.27147 0.931209 0
M  V30 1778 C 166.796 1.12664 1.67302 0
M  V30 1779 C 167.109 -0.327718 1.92835 0
M  V30 1780 O 168.315 -0.593392 2.64936 0
M  V30 1781 C 166.771 1.9683 3.01307 0
M  V30 1782 C 166.379 3.46901 2.83485 0
M  V30 1783 C 168.123 1.90985 3.79111 0
M  V30 1784 C 166.03 4.23279 4.13024 0
M  V30 1785 H 164.96 0.41803 0.627509 0
M  V30 1786 H 167.611 1.51539 1.03481 0
M  V30 1787 H 165.993 1.50797 3.66164 0
M  V30 1788 H 167.167 4.00773 2.27415 0
M  V30 1789 H 165.482 3.54088 2.19113 0
M  V30 1790 H 168.079 2.45328 4.75098 0
M  V30 1791 H 168.422 0.882718 4.06834 0
M  V30 1792 H 168.955 2.34895 3.21044 0
M  V30 1793 H 165.694 5.26503 3.90481 0
M  V30 1794 H 165.214 3.74186 4.6877 0
M  V30 1795 H 166.893 4.32265 4.81411 0
M  V30 1796 N 167.025 -1.13721 1.09112 0
M  V30 1797 C 167.935 -2.22638 0.73957 0
M  V30 1798 C 168.951 -1.72091 -0.257068 0
M  V30 1799 O 170.127 -2.01155 -0.0992154 0
M  V30 1800 C 167.192 -3.46322 0.16191 0
M  V30 1801 C 166.253 -4.11775 1.21408 0
M  V30 1802 C 165.486 -5.29555 0.663891 0
M  V30 1803 O 165.709 -5.68077 -0.514274 0
M  V30 1804 O 164.643 -5.84973 1.41738 0
M  V30 1805 H 168.469 -2.55074 1.64836 0
M  V30 1806 H 166.054 -1.21791 0.865289 0
M  V30 1807 H 167.936 -4.21107 -0.157073 0
M  V30 1808 H 166.611 -3.15593 -0.719932 0
M  V30 1809 H 165.518 -3.3883 1.58571 0
M  V30 1810 H 166.851 -4.46627 2.06845 0
M  V30 1811 N 168.503 -0.877838 -1.30888 0
M  V30 1812 C 169.45 -0.337538 -2.28318 0
M  V30 1813 C 170.42 0.568346 -1.56074 0
M  V30 1814 O 171.605 0.498298 -1.84178 0
M  V30 1815 C 168.745 0.448142 -3.42178 0
M  V30 1816 C 167.858 -0.48615 -4.29256 0
M  V30 1817 C 166.993 0.314427 -5.30269 0
M  V30 1818 C 166.032 -0.615791 -6.08995 0
M  V30 1819 N 165.169 0.14902 -7.01942 0
M  V30 1820 H 170.009 -1.17356 -2.73919 0
M  V30 1821 H 167.546 -0.590094 -1.34745 0
M  V30 1822 H 169.504 0.919517 -4.06941 0
M  V30 1823 H 168.134 1.24879 -2.97666 0
M  V30 1824 H 167.186 -1.076 -3.64865 0
M  V30 1825 H 168.498 -1.19909 -4.84173 0
M  V30 1826 H 167.652 0.847969 -6.00745 0
M  V30 1827 H 166.391 1.06062 -4.76027 0
M  V30 1828 H 165.396 -1.16102 -5.37401 0
M  V30 1829 H 166.621 -1.36097 -6.65323 0
M  V30 1830 H 164.567 0.877884 -6.50099 0
M  V30 1831 H 164.484 -0.504433 -7.54315 0
M  V30 1832 H 165.752 0.663537 -7.76671 0
M  V30 1833 N 169.982 1.44106 -0.638065 0
M  V30 1834 C 170.892 2.34513 0.0637334 0
M  V30 1835 C 171.908 1.53018 0.828346 0
M  V30 1836 O 173.084 1.85723 0.779036 0
M  V30 1837 C 170.149 3.31095 1.02844 0
M  V30 1838 C 169.21 4.28497 0.26244 0
M  V30 1839 C 168.443 5.20465 1.1812 0
M  V30 1840 O 168.666 5.16514 2.42011 0
M  V30 1841 O 167.6 5.98251 0.661774 0
M  V30 1842 H 171.426 2.95989 -0.68003 0
M  V30 1843 H 169.011 1.43994 -0.398252 0
M  V30 1844 H 170.893 3.90526 1.58327 0
M  V30 1845 H 169.568 2.72144 1.7527 0
M  V30 1846 H 168.475 3.72592 -0.335602 0
M  V30 1847 H 169.808 4.90388 -0.421936 0
M  V30 1848 N 171.46 0.379036 1.52974 0
M  V30 1849 C 172.708 -0.206014 2.01047 0
M  V30 1850 C 173.029 -1.48175 1.26765 0
M  V30 1851 O 172.299 -1.92085 0.384743 0
M  V30 1852 H 170.879 -0.0791184 0.742798 0
M  V30 1853 H 173.541 0.508366 1.88153 0
M  V30 1854 H 172.637 -0.423501 3.09213 0
M  V30 1855 N 172.938 -1.57226 0.108567 0
M  V30 1856 C 174.184 -1.95121 -0.552761 0
M  V30 1857 C 174.517 -0.991345 -1.66991 0
M  V30 1858 O 173.792 -0.0267211 -1.94482 0
M  V30 1859 C 174.075 -3.43039 -1.09528 0
M  V30 1860 C 173.928 -4.49797 0.0177332 0
M  V30 1861 C 175.247 -3.92567 -1.98945 0
M  V30 1862 H 172.366 -0.709496 -0.199461 0
M  V30 1863 H 175.008 -1.89126 0.182011 0
M  V30 1864 H 173.158 -3.48279 -1.72146 0
M  V30 1865 H 174.83 -4.56661 0.652584 0
M  V30 1866 H 173.073 -4.284 0.682309 0
M  V30 1867 H 173.744 -5.50528 -0.402919 0
M  V30 1868 H 176.22 -3.89565 -1.46214 0
M  V30 1869 H 175.096 -4.96605 -2.33827 0
M  V30 1870 H 175.357 -3.32648 -2.91201 0
M  V30 1871 N 174.416 0.165178 -1.56732 0
M  V30 1872 C 175.326 1.22423 -2.00125 0
M  V30 1873 C 176.342 1.48084 -0.913619 0
M  V30 1874 O 177.518 1.60112 -1.22172 0
M  V30 1875 C 174.583 2.54197 -2.35764 0
M  V30 1876 C 173.644 2.36343 -3.58386 0
M  V30 1877 C 172.877 3.61834 -3.92316 0
M  V30 1878 O 173.1 4.67267 -3.27135 0
M  V30 1879 O 172.034 3.55579 -4.85641 0
M  V30 1880 H 175.86 0.885886 -2.90492 0
M  V30 1881 H 173.445 0.372518 -1.44681 0
M  V30 1882 H 175.327 3.3192 -2.59629 0
M  V30 1883 H 174.002 2.87598 -1.48557 0
M  V30 1884 H 172.909 1.56632 -3.39731 0
M  V30 1885 H 174.242 2.07865 -4.46154 0
M  V30 1886 N 175.894 1.51508 0.433938 0
M  V30 1887 C 176.844 1.69451 1.52546 0
M  V30 1888 C 177.828 0.548474 1.51263 0
M  V30 1889 O 179.02 0.804529 1.57659 0
M  V30 1890 C 176.149 1.82604 2.90707 0
M  V30 1891 C 175.235 3.03002 2.96733 0
M  V30 1892 N 175.626 4.26121 2.72496 0
M  V30 1893 C 173.924 3.02327 3.27894 0
M  V30 1894 C 174.625 5.07407 2.84452 0
M  V30 1895 N 173.601 4.42126 3.16269 0
M  V30 1896 H 177.403 2.62305 1.32564 0
M  V30 1897 H 174.917 1.49202 0.641297 0
M  V30 1898 H 176.914 1.93569 3.69238 0
M  V30 1899 H 175.574 0.909339 3.11707 0
M  V30 1900 H 176.585 4.55009 2.4736 0
M  V30 1901 H 173.262 2.20301 3.54646 0
M  V30 1902 H 174.652 6.15422 2.69639 0
M  V30 1903 N 177.372 -0.689602 1.41712 0
M  V30 1904 C 178.304 -1.815 1.39966 0
M  V30 1905 C 179.317 -1.59995 0.300917 0
M  V30 1906 O 180.506 -1.69387 0.563039 0
M  V30 1907 C 177.606 -3.18364 1.16179 0
M  V30 1908 C 176.779 -3.66847 2.38206 0
M  V30 1909 C 175.838 -4.82398 2.10186 0
M  V30 1910 O 174.864 -4.93706 2.83272 0
M  V30 1911 N 176.066 -5.70064 1.0958 0
M  V30 1912 H 178.831 -1.83488 2.36965 0
M  V30 1913 H 176.392 -0.872149 1.36401 0
M  V30 1914 H 178.384 -3.93301 0.953756 0
M  V30 1915 H 176.954 -3.11365 0.27756 0
M  V30 1916 H 176.174 -2.82751 2.74673 0
M  V30 1917 H 177.462 -3.95978 3.19498 0
M  V30 1918 H 176.86 -5.63565 0.491019 0
M  V30 1919 H 175.417 -6.44874 0.947656 0
M  V30 1920 N 178.85 -1.27639 -0.924453 0
M  V30 1921 C 179.78 -1.13166 -2.04244 0
M  V30 1922 C 180.761 -0.032256 -1.70069 0
M  V30 1923 O 181.946 -0.207328 -1.9309 0
M  V30 1924 C 179.076 -0.781496 -3.38393 0
M  V30 1925 C 178.03 -1.83449 -3.86692 0
M  V30 1926 C 177.356 -1.33822 -5.17683 0
M  V30 1927 C 178.656 -3.23917 -4.09726 0
M  V30 1928 H 180.35 -2.06689 -2.1661 0
M  V30 1929 H 177.896 -0.995136 -1.04082 0
M  V30 1930 H 179.849 -0.667057 -4.16087 0
M  V30 1931 H 178.573 0.189439 -3.2605 0
M  V30 1932 H 177.232 -1.93789 -3.11193 0
M  V30 1933 H 176.88 -0.35665 -5.01734 0
M  V30 1934 H 176.58 -2.04224 -5.50968 0
M  V30 1935 H 178.104 -1.23679 -5.97943 0
M  V30 1936 H 179.518 -3.16559 -4.77978 0
M  V30 1937 H 177.915 -3.92059 -4.54324 0
M  V30 1938 H 178.985 -3.68729 -3.14908 0
M  V30 1939 N 180.328 1.1314 -1.09713 0
M  V30 1940 C 181.744 1.36477 -0.827423 0
M  V30 1941 C 181.944 1.93654 0.556817 0
M  V30 1942 O 181 2.15791 1.31112 0
M  V30 1943 C 182.313 2.31334 -1.92106 0
M  V30 1944 C 183.861 2.44943 -1.94864 0
M  V30 1945 C 184.336 3.4311 -3.0338 0
M  V30 1946 N 185.827 3.50662 -3.02639 0
M  V30 1947 C 186.562 4.2651 -3.83246 0
M  V30 1948 N 186.058 5.05485 -4.73768 0
M  V30 1949 N 187.851 4.2184 -3.71493 0
M  V30 1950 H 180.002 0.743807 -1.9895 0
M  V30 1951 H 182.265 0.389823 -0.864143 0
M  V30 1952 H 181.971 1.96483 -2.91698 0
M  V30 1953 H 181.845 3.31381 -1.80184 0
M  V30 1954 H 184.232 2.79079 -0.959099 0
M  V30 1955 H 184.313 1.4481 -2.10864 0
M  V30 1956 H 183.957 3.09704 -4.02549 0
M  V30 1957 H 183.887 4.43055 -2.84622 0
M  V30 1958 H 186.378 2.94315 -2.37039 0
M  V30 1959 H 186.691 5.60675 -5.3185 0
M  V30 1960 H 185.036 5.04708 -4.77802 0
M  V30 1961 H 188.227 3.5922 -3.00131 0
M  V30 1962 H 188.4 4.80697 -4.3455 0
M  V30 1963 N 181.806 0.884767 1.30421 0
M  V30 1964 C 183.222 0.57874 1.48737 0
M  V30 1965 C 183.422 -0.883567 1.81095 0
M  V30 1966 O 182.478 -1.6648 1.89844 0
M  V30 1967 C 183.791 1.49171 2.61091 0
M  V30 1968 C 185.339 1.49532 2.74971 0
M  V30 1969 C 185.814 2.39421 3.90438 0
M  V30 1970 N 187.305 2.37383 3.97748 0
M  V30 1971 C 188.04 3.03647 4.86401 0
M  V30 1972 N 187.536 3.79136 5.79852 0
M  V30 1973 N 189.329 2.9288 4.79768 0
M  V30 1974 H 181.48 1.83075 1.0769 0
M  V30 1975 H 183.743 0.783637 0.533495 0
M  V30 1976 H 183.449 2.53291 2.44001 0
M  V30 1977 H 183.323 1.20113 3.57565 0
M  V30 1978 H 185.71 0.46163 2.91467 0
M  V30 1979 H 185.791 1.8262 1.79119 0
M  V30 1980 H 185.435 3.42874 3.74699 0
M  V30 1981 H 185.365 2.03649 4.85628 0
M  V30 1982 H 187.856 1.82525 3.30897 0
M  V30 1983 H 188.169 4.26789 6.4426 0
M  V30 1984 H 186.514 3.83243 5.79784 0
M  V30 1985 H 189.705 2.33433 4.05742 0
M  V30 1986 H 189.878 3.448 5.4865 0
M  V30 1987 N 183.284 -1.43765 0.645699 0
M  V30 1988 C 184.194 -2.34544 -0.0512957 0
M  V30 1989 C 185.21 -1.53455 -0.82022 0
M  V30 1990 O 186.386 -1.86133 -0.769176 0
M  V30 1991 C 183.451 -3.31636 -1.01087 0
M  V30 1992 C 182.512 -4.2863 -0.239712 0
M  V30 1993 C 181.745 -5.21084 -1.15358 0
M  V30 1994 O 181.968 -5.1779 -2.39269 0
M  V30 1995 O 180.902 -5.98593 -0.630038 0
M  V30 1996 H 184.728 -2.95624 0.695718 0
M  V30 1997 H 182.313 -1.43781 0.405882 0
M  V30 1998 H 184.195 -3.9136 -1.56254 0
M  V30 1999 H 182.87 -2.73069 -1.73824 0
M  V30 2000 H 181.777 -3.72408 0.355356 0
M  V30 2001 H 183.11 -4.90157 0.447936 0
M  V30 2002 N 184.763 -0.387143 -1.52771 0
M  V30 2003 C 186.012 0.19697 -2.00736 0
M  V30 2004 C 186.325 1.48082 -1.27793 0
M  V30 2005 O 187.531 2.14485 -1.66458 0
M  V30 2006 C 185.987 0.401568 -3.57653 0
M  V30 2007 C 185.595 -0.868907 -4.39493 0
M  V30 2008 C 187.339 0.942164 -4.13912 0
M  V30 2009 C 185.246 -0.632705 -5.88006 0
M  V30 2010 H 184.176 0.0773827 -0.750019 0
M  V30 2011 H 186.827 -0.50921 -1.76293 0
M  V30 2012 H 185.209 1.16954 -3.78335 0
M  V30 2013 H 186.383 -1.64133 -4.30577 0
M  V30 2014 H 184.698 -1.33429 -3.94443 0
M  V30 2015 H 187.295 1.13455 -5.22525 0
M  V30 2016 H 187.638 1.9106 -3.69867 0
M  V30 2017 H 188.171 0.233814 -3.97112 0
M  V30 2018 H 184.91 -1.57208 -6.36369 0
M  V30 2019 H 184.43 0.100825 -5.99715 0
M  V30 2020 H 186.109 -0.26642 -6.46451 0
M  V30 2021 N 186.241 1.57166 -0.116904 0
M  V30 2022 C 187.151 2.18745 0.847812 0
M  V30 2023 C 188.167 1.163 1.29423 0
M  V30 2024 O 189.343 1.48761 1.35765 0
M  V30 2025 C 186.408 2.77307 2.0809 0
M  V30 2026 C 185.469 3.94781 1.68661 0
M  V30 2027 C 184.702 4.50541 2.86091 0
M  V30 2028 O 184.925 4.05202 4.01456 0
M  V30 2029 O 183.859 5.41256 2.63298 0
M  V30 2030 H 187.685 3.01632 0.353778 0
M  V30 2031 H 185.27 1.49005 0.108599 0
M  V30 2032 H 187.152 3.14647 2.80313 0
M  V30 2033 H 185.827 1.97452 2.56504 0
M  V30 2034 H 184.734 3.62214 0.935518 0
M  V30 2035 H 186.067 4.76065 1.24991 0
M  V30 2036 N 187.719 -0.156864 1.56817 0
M  V30 2037 C 188.968 -0.869504 1.81996 0
M  V30 2038 C 189.281 -1.82777 0.696545 0
M  V30 2039 O 190.487 -2.58384 0.833658 0
M  V30 2040 C 188.943 -1.59679 3.22538 0
M  V30 2041 C 188.551 -0.681431 4.42787 0
M  V30 2042 C 190.295 -2.2968 3.56997 0
M  V30 2043 C 188.202 -1.40978 5.74351 0
M  V30 2044 H 187.132 -0.328438 0.678708 0
M  V30 2045 H 189.783 -0.1223 1.83092 0
M  V30 2046 H 188.165 -2.38927 3.158 0
M  V30 2047 H 189.339 0.0751166 4.60739 0
M  V30 2048 H 187.654 -0.0903431 4.16302 0
M  V30 2049 H 190.251 -2.84794 4.52544 0
M  V30 2050 H 190.594 -3.05707 2.82576 0
M  V30 2051 H 191.127 -1.57361 3.65352 0
M  V30 2052 H 187.866 -0.691561 6.51842 0
M  V30 2053 H 187.386 -2.13929 5.60352 0
M  V30 2054 H 189.065 -1.95337 6.16808 0
M  V30 2055 N 189.197 -1.51736 -0.425897 0
M  V30 2056 C 190.129 -1.70083 -1.53638 0
M  V30 2057 C 191.142 -0.581349 -1.52066 0
M  V30 2058 O 192.331 -0.856017 -1.56635 0
M  V30 2059 C 189.431 -1.71078 -2.9255 0
M  V30 2060 C 188.604 -2.99795 -3.185 0
M  V30 2061 C 187.663 -2.92825 -4.37196 0
M  V30 2062 O 186.689 -3.66756 -4.35291 0
M  V30 2063 N 187.891 -2.0946 -5.41393 0
M  V30 2064 H 190.656 -2.65882 -1.383 0
M  V30 2065 H 188.217 -1.49765 -0.614988 0
M  V30 2066 H 190.209 -1.63969 -3.69995 0
M  V30 2067 H 188.779 -0.828242 -3.01428 0
M  V30 2068 H 187.999 -3.20684 -2.2925 0
M  V30 2069 H 189.287 -3.84977 -3.32671 0
M  V30 2070 H 188.685 -1.48792 -5.45781 0
M  V30 2071 H 187.242 -2.08221 -6.17647 0
M  V30 2072 N 190.675 0.682077 -1.42076 0
M  V30 2073 C 191.638 1.77756 -1.44691 0
M  V30 2074 C 192.638 1.5726 -0.335535 0
M  V30 2075 O 193.828 1.63686 -0.596037 0
M  V30 2076 C 190.96 3.16301 -1.27146 0
M  V30 2077 H 192.153 1.76826 -2.42224 0
M  V30 2078 H 189.706 0.891012 -1.28416 0
M  V30 2079 H 190.441 3.22862 -0.305075 0
M  V30 2080 H 190.226 3.32581 -2.07683 0
M  V30 2081 H 191.716 3.96241 -1.31843 0
M  V30 2082 N 192.153 1.28127 0.917671 0
M  V30 2083 C 193.103 1.08361 2.00604 0
M  V30 2084 C 194.087 0.00847518 1.60898 0
M  V30 2085 O 195.279 0.228167 1.75523 0
M  V30 2086 C 192.408 0.743376 3.35155 0
M  V30 2087 C 191.494 1.85716 3.81275 0
M  V30 2088 N 191.885 3.09822 3.99805 0
M  V30 2089 C 190.183 1.74612 4.10398 0
M  V30 2090 C 190.884 3.82368 4.38372 0
M  V30 2091 N 189.86 3.10192 4.4641 0
M  V30 2092 H 193.662 2.02531 2.12975 0
M  V30 2093 H 191.176 1.18989 1.10523 0
M  V30 2094 H 193.173 0.582859 4.12805 0
M  V30 2095 H 191.833 -0.190595 3.2414 0
M  V30 2096 H 192.844 3.45475 3.85833 0
M  V30 2097 H 189.521 0.883657 4.08041 0
M  V30 2098 H 190.911 4.89082 4.60704 0
M  V30 2099 N 193.631 -1.12557 1.10312 0
M  V30 2100 C 194.561 -2.20341 0.772798 0
M  V30 2101 C 195.542 -1.68198 -0.25365 0
M  V30 2102 O 196.727 -1.93831 -0.119699 0
M  V30 2103 C 193.857 -3.46709 0.202443 0
M  V30 2104 C 192.811 -4.11996 1.15943 0
M  V30 2105 C 192.137 -5.328 0.450345 0
M  V30 2106 C 193.437 -4.5828 2.50552 0
M  V30 2107 H 195.131 -2.48229 1.674 0
M  V30 2108 H 192.677 -1.19308 0.806326 0
M  V30 2109 H 194.63 -4.2138 -0.0407752 0
M  V30 2110 H 193.354 -3.18245 -0.734001 0
M  V30 2111 H 192.013 -3.39305 1.38808 0
M  V30 2112 H 191.661 -5.00602 -0.490531 0
M  V30 2113 H 191.361 -5.7743 1.08851 0
M  V30 2114 H 192.885 -6.10219 0.215642 0
M  V30 2115 H 194.299 -5.2433 2.31843 0
M  V30 2116 H 192.696 -5.13683 3.10242 0
M  V30 2117 H 193.766 -3.72329 3.10643 0
M  V30 2118 N 195.109 -0.891671 -1.2995 0
M  V30 2119 C 196.059 -0.334811 -2.25528 0
M  V30 2120 C 197.043 0.540553 -1.51548 0
M  V30 2121 O 198.235 0.383882 -1.72787 0
M  V30 2122 C 195.364 0.44374 -3.4042 0
M  V30 2123 C 194.45 -0.44609 -4.21747 0
M  V30 2124 N 194.841 -1.54963 -4.81477 0
M  V30 2125 C 193.139 -0.242415 -4.45341 0
M  V30 2126 C 193.84 -2.10015 -5.42465 0
M  V30 2127 N 192.816 -1.39423 -5.25416 0
M  V30 2128 H 196.618 -1.17792 -2.69262 0
M  V30 2129 H 194.132 -0.741822 -1.44467 0
M  V30 2130 H 196.129 0.859362 -4.07947 0
M  V30 2131 H 194.789 1.28421 -2.98225 0
M  V30 2132 H 195.8 -1.93244 -4.80497 0
M  V30 2133 H 192.477 0.560342 -4.13723 0
M  V30 2134 H 193.867 -3.02724 -5.9984 0
M  V30 2135 N 196.587 1.43421 -0.653314 0
M  V30 2136 C 197.537 2.2792 0.060558 0
M  V30 2137 C 198.521 1.39906 0.794677 0
M  V30 2138 O 199.713 1.63536 0.677128 0
M  V30 2139 C 196.842 3.27603 1.0262 0
M  V30 2140 C 195.928 4.23104 0.290551 0
M  V30 2141 N 196.319 5.01031 -0.692967 0
M  V30 2142 C 194.617 4.42816 0.531984 0
M  V30 2143 C 195.318 5.70626 -1.12963 0
M  V30 2144 N 194.294 5.41617 -0.463867 0
M  V30 2145 H 198.096 2.85585 -0.694143 0
M  V30 2146 H 195.61 1.55126 -0.480602 0
M  V30 2147 H 197.607 3.86918 1.55242 0
M  V30 2148 H 196.267 2.71499 1.78096 0
M  V30 2149 H 197.278 5.0669 -1.07169 0
M  V30 2150 H 193.955 3.97782 1.26791 0
M  V30 2151 H 195.345 6.4318 -1.94343 0
M  V30 2152 N 198.065 0.39524 1.52563 0
M  V30 2153 C 199.476 -0.0774719 1.86539 0
M  V30 2154 C 199.827 -1.45641 1.31466 0
M  V30 2155 O 198.952 -2.06459 0.648367 0
M  V30 2156 C 199.547 -0.147356 3.38479 0
M  V30 2157 C 198.106 -0.564373 3.72145 0
M  V30 2158 C 197.253 0.269919 2.75983 0
M  V30 2159 H 200.204 0.612876 1.46388 0
M  V30 2160 H 200.225 -0.965343 3.68051 0
M  V30 2161 H 199.737 0.856387 3.78534 0
M  V30 2162 H 197.838 -1.57527 3.37663 0
M  V30 2163 H 197.951 -0.318402 4.78041 0
M  V30 2164 H 196.315 -0.265696 2.5331 0
M  V30 2165 H 197.098 1.27175 3.18875 0
M  V30 2166 N 199.544 -1.57102 0.125237 0
M  V30 2167 C 200.492 -2.16905 -0.839927 0
M  V30 2168 C 201.486 -1.11998 -1.27094 0
M  V30 2169 O 202.692 -1.3029 -1.24195 0
M  V30 2170 H 199.067 -0.694252 -0.288995 0
M  V30 2171 H 201.038 -2.96774 -0.311115 0
M  V30 2172 C 199.787 -2.78795 -2.07771 0
M  V30 2173 H 199.11 -3.59221 -1.755 0
M  V30 2174 H 200.55 -3.2417 -2.73295 0
M  V30 2175 C 199.009 -1.76193 -2.87155 0
M  V30 2176 O 199.539 -1.21909 -3.82755 0
M  V30 2177 N 197.745 -1.45991 -2.51267 0
M  V30 2178 H 197.292 -1.90325 -1.73592 0
M  V30 2179 H 197.25 -0.775844 -3.04677 0
M  V30 2180 N 201.022 0.148545 -1.56898 0
M  V30 2181 C 202.271 0.85984 -1.82454 0
M  V30 2182 C 202.584 1.82406 -0.706229 0
M  V30 2183 O 203.79 2.57938 -0.847349 0
M  V30 2184 C 202.246 1.57967 -3.2338 0
M  V30 2185 C 201.854 0.65794 -4.43142 0
M  V30 2186 C 203.598 2.27784 -3.58211 0
M  V30 2187 C 201.505 1.3793 -5.75091 0
M  V30 2188 H 200.435 0.324834 -0.68044 0
M  V30 2189 H 203.086 0.112588 -1.83154 0
M  V30 2190 H 201.468 2.37249 -3.17063 0
M  V30 2191 H 202.642 -0.0995497 -4.60692 0
M  V30 2192 H 200.957 0.0682643 -4.16344 0
M  V30 2193 H 203.554 2.8239 -4.54048 0
M  V30 2194 H 203.897 3.04204 -2.84193 0
M  V30 2195 H 204.43 1.55421 -3.66182 0
M  V30 2196 H 201.169 0.656982 -6.52199 0
M  V30 2197 H 200.689 2.10954 -5.61479 0
M  V30 2198 H 202.368 1.92063 -6.17835 0
M  V30 2199 N 202.5 1.5196 0.417844 0
M  V30 2200 C 203.43 1.77634 1.51554 0
M  V30 2201 C 204.411 0.626918 1.58126 0
M  V30 2202 O 205.596 0.871632 1.7354 0
M  V30 2203 C 202.726 1.91911 2.8946 0
M  V30 2204 C 201.68 3.07463 2.97743 0
M  V30 2205 C 201.006 3.06951 4.37819 0
M  V30 2206 C 202.306 4.47082 2.70027 0
M  V30 2207 H 204 2.6955 1.3032 0
M  V30 2208 H 201.546 1.29706 0.625492 0
M  V30 2209 H 203.499 2.08455 3.6623 0
M  V30 2210 H 202.223 0.966598 3.11969 0
M  V30 2211 H 200.882 2.90656 2.23416 0
M  V30 2212 H 200.53 2.09438 4.57323 0
M  V30 2213 H 200.23 3.84556 4.44286 0
M  V30 2214 H 201.754 3.25613 5.16535 0
M  V30 2215 H 203.168 4.6414 3.36522 0
M  V30 2216 H 201.565 5.2654 2.87881 0
M  V30 2217 H 202.635 4.55777 1.65514 0
M  V30 2218 N 203.978 -0.674533 1.42435 0
M  V30 2219 C 205.394 -0.98769 1.25367 0
M  V30 2220 C 205.594 -2.00879 0.158044 0
M  V30 2221 O 204.65 -2.48075 -0.470633 0
M  V30 2222 C 205.963 -1.49224 2.6106 0
M  V30 2223 C 207.511 -1.61 2.68417 0
M  V30 2224 C 207.986 -2.14852 4.04478 0
M  V30 2225 N 209.477 -2.22185 4.06434 0
M  V30 2226 C 210.212 -2.64928 5.08528 0
M  V30 2227 N 209.708 -3.07121 6.21006 0
M  V30 2228 N 211.501 -2.64679 4.95885 0
M  V30 2229 H 203.652 0.00152503 2.124 0
M  V30 2230 H 205.915 -0.0618434 0.945981 0
M  V30 2231 H 205.621 -0.816453 3.42092 0
M  V30 2232 H 205.495 -2.47094 2.84999 0
M  V30 2233 H 207.882 -2.27686 1.87732 0
M  V30 2234 H 207.963 -0.616195 2.48267 0
M  V30 2235 H 207.607 -1.48775 4.85622 0
M  V30 2236 H 207.537 -3.15024 4.2198 0
M  V30 2237 H 210.028 -1.92435 3.25234 0
M  V30 2238 H 210.341 -3.38423 6.94759 0
M  V30 2239 H 208.686 -3.04978 6.24511 0
M  V30 2240 H 211.877 -2.31078 4.07088 0
M  V30 2241 H 212.05 -2.9767 5.75584 0
M  V30 2242 N 205.456 -1.28612 -0.910864 0
M  V30 2243 C 206.386 -1.15326 -2.03032 0
M  V30 2244 C 207.367 -0.0502924 -1.70026 0
M  V30 2245 O 208.552 -0.227797 -1.92859 0
M  V30 2246 C 205.682 -0.817343 -3.37545 0
M  V30 2247 C 204.636 -1.8754 -3.84724 0
M  V30 2248 C 203.962 -1.39305 -5.16235 0
M  V30 2249 C 205.262 -3.28244 -4.06267 0
M  V30 2250 H 206.956 -2.08975 -2.14406 0
M  V30 2251 H 204.502 -1.00612 -1.03021 0
M  V30 2252 H 206.455 -0.711151 -4.15356 0
M  V30 2253 H 205.179 0.154846 -3.26233 0
M  V30 2254 H 203.838 -1.97079 -3.09121 0
M  V30 2255 H 203.486 -0.409846 -5.01328 0
M  V30 2256 H 203.186 -2.10057 -5.48771 0
M  V30 2257 H 204.71 -1.30014 -5.96598 0
M  V30 2258 H 206.124 -3.21611 -4.74594 0
M  V30 2259 H 204.521 -3.96855 -4.5014 0
M  V30 2260 H 205.591 -3.72048 -3.10979 0
M  V30 2261 N 206.934 1.1197 -1.10907 0
M  V30 2262 C 208.164 1.8713 -0.875553 0
M  V30 2263 C 208.572 1.8016 0.577843 0
M  V30 2264 O 207.915 1.17699 1.41042 0
M  V30 2265 C 207.977 3.37005 -1.2517 0
M  V30 2266 C 207.641 3.67748 -2.71313 0
M  V30 2267 C 208.638 3.65698 -3.69542 0
M  V30 2268 C 206.323 3.96928 -3.07821 0
M  V30 2269 C 208.317 3.92395 -5.023 0
M  V30 2270 C 206.004 4.23284 -4.40765 0
M  V30 2271 C 207.002 4.21005 -5.37814 0
M  V30 2272 O 206.69 4.46704 -6.68364 0
M  V30 2273 H 206.422 0.598786 -0.313737 0
M  V30 2274 H 208.976 1.42568 -1.47863 0
M  V30 2275 H 207.206 3.82146 -0.591741 0
M  V30 2276 H 208.895 3.93519 -0.994877 0
M  V30 2277 H 209.661 3.43211 -3.42682 0
M  V30 2278 H 205.54 3.97841 -2.32902 0
M  V30 2279 H 209.084 3.90531 -5.78041 0
M  V30 2280 H 204.981 4.45246 -4.67361 0
M  V30 2281 H 205.749 4.64299 -6.74069 0
M  V30 2282 N 208.412 0.89855 1.29475 0
M  V30 2283 C 209.36 0.365253 2.29714 0
M  V30 2284 C 210.354 -0.534993 1.6073 0
M  V30 2285 O 211.56 -0.417921 1.75081 0
M  V30 2286 H 207.935 0.0994853 0.74539 0
M  V30 2287 H 209.906 1.22406 2.72138 0
M  V30 2288 C 208.655 -0.393159 3.4547 0
M  V30 2289 H 207.978 0.290332 3.98744 0
M  V30 2290 H 209.418 -0.731189 4.17648 0
M  V30 2291 C 207.877 -1.59539 2.9673 0
M  V30 2292 O 208.407 -2.69469 2.97908 0
M  V30 2293 N 206.613 -1.43716 2.52575 0
M  V30 2294 H 206.16 -0.542828 2.51816 0
M  V30 2295 H 206.118 -2.24288 2.20323 0
M  V30 2296 N 209.89 -1.43072 0.660911 0
M  V30 2297 C 211.12 -2.05769 0.185153 0
M  V30 2298 C 211.528 -1.49668 -1.15742 0
M  V30 2299 O 210.871 -0.625649 -1.72717 0
M  V30 2300 C 210.933 -3.59489 0.0278237 0
M  V30 2301 C 210.597 -4.38212 1.2969 0
M  V30 2302 C 211.594 -4.69772 2.22734 0
M  V30 2303 C 209.279 -4.7809 1.54063 0
M  V30 2304 C 211.273 -5.40129 3.38437 0
M  V30 2305 C 208.96 -5.4819 2.70058 0
M  V30 2306 C 209.958 -5.79132 3.62071 0
M  V30 2307 O 209.646 -6.47798 4.76039 0
M  V30 2308 H 209.378 -0.669873 0.0908086 0
M  V30 2309 H 211.932 -1.84436 0.90402 0
M  V30 2310 H 210.162 -3.79426 -0.746489 0
M  V30 2311 H 211.851 -4.03862 -0.406275 0
M  V30 2312 H 212.617 -4.39476 2.05149 0
M  V30 2313 H 208.496 -4.53408 0.833215 0
M  V30 2314 H 212.04 -5.64198 4.10277 0
M  V30 2315 H 207.937 -5.77902 2.87574 0
M  V30 2316 H 208.705 -6.66283 4.75404 0
M  V30 2317 N 211.368 -0.403325 -1.52352 0
M  V30 2318 C 212.615 0.174347 -2.01748 0
M  V30 2319 C 212.943 1.45636 -1.2892 0
M  V30 2320 O 212.198 1.9193 -0.382258 0
M  V30 2321 C 212.497 0.474665 -3.54234 0
M  V30 2322 C 212.163 -0.717458 -4.45155 0
M  V30 2323 C 210.825 -1.04447 -4.69728 0
M  V30 2324 C 213.177 -1.51432 -4.98716 0
M  V30 2325 C 210.505 -2.16963 -5.45109 0
M  V30 2326 C 212.857 -2.6302 -5.75329 0
M  V30 2327 C 211.521 -2.96213 -5.98175 0
M  V30 2328 H 210.791 0.0637981 -0.738248 0
M  V30 2329 H 213.438 -0.543553 -1.83624 0
M  V30 2330 H 211.743 1.27406 -3.70506 0
M  V30 2331 H 213.44 0.934496 -3.89959 0
M  V30 2332 H 210.03 -0.452596 -4.26204 0
M  V30 2333 H 214.214 -1.27491 -4.79645 0
M  V30 2334 H 209.47 -2.43034 -5.61021 0
M  V30 2335 H 213.644 -3.25158 -6.15829 0
M  V30 2336 H 211.271 -3.83516 -6.56368 0
M  V30 2337 N 212.846 1.57033 -0.133567 0
M  V30 2338 C 214.076 1.99754 0.527429 0
M  V30 2339 C 214.484 1.01245 1.59832 0
M  V30 2340 O 213.827 -0.000645496 1.837 0
M  V30 2341 C 213.889 3.38903 1.19939 0
M  V30 2342 C 213.553 4.56174 0.274709 0
M  V30 2343 C 214.55 5.17563 -0.492398 0
M  V30 2344 C 212.235 5.01972 0.18153 0
M  V30 2345 C 214.229 6.2315 -1.34027 0
M  V30 2346 C 211.916 6.07416 -0.669958 0
M  V30 2347 C 212.914 6.67874 -1.42947 0
M  V30 2348 O 212.602 7.71279 -2.2668 0
M  V30 2349 H 212.334 0.660702 0.142999 0
M  V30 2350 H 214.888 2.04207 -0.221099 0
M  V30 2351 H 213.118 3.31248 1.99528 0
M  V30 2352 H 214.807 3.65818 1.75875 0
M  V30 2353 H 215.573 4.83087 -0.430367 0
M  V30 2354 H 211.452 4.54652 0.762422 0
M  V30 2355 H 214.996 6.70268 -1.93357 0
M  V30 2356 H 210.893 6.41321 -0.73333 0
M  V30 2357 H 211.661 7.88441 -2.1978 0
M  V30 2358 N 214.325 -0.140222 1.56975 0
M  V30 2359 C 215.602 -0.880769 1.74648 0
M  V30 2360 C 215.982 -1.99036 0.703404 0
M  V30 2361 O 215.33 -2.26821 -0.27648 0
M  V30 2362 C 215.54 -1.417 3.18939 0
M  V30 2363 C 216.888 -1.87774 3.80823 0
M  V30 2364 O 217.912 -1.51427 3.2241 0
M  V30 2365 O 216.771 -2.54827 4.83452 0
M  V30 2366 H 213.865 -0.416713 0.714338 0
M  V30 2367 H 216.411 -0.125618 1.69234 0
M  V30 2368 H 215.183 -0.619902 3.86359 0
M  V30 2369 H 214.806 -2.23546 3.28805 0
M  V30 2370 N 215.803 -1.52179 -0.40978 0
M  V30 2371 C 217.219 -1.40968 -0.74835 0
M  V30 2372 C 217.419 -0.513657 -1.94843 0
M  V30 2373 O 216.475 0.0208026 -2.52491 0
M  V30 2374 C 217.788 -2.83483 -1.0029 0
M  V30 2375 C 219.336 -2.92821 -1.10565 0
M  V30 2376 C 219.811 -4.36303 -1.39296 0
M  V30 2377 N 221.302 -4.39535 -1.46162 0
M  V30 2378 C 222.037 -5.47614 -1.70018 0
M  V30 2379 N 221.533 -6.65812 -1.91483 0
M  V30 2380 N 223.326 -5.35129 -1.72027 0
M  V30 2381 H 215.477 -2.0897 0.380186 0
M  V30 2382 H 217.74 -0.94185 0.107805 0
M  V30 2383 H 217.446 -3.51168 -0.193461 0
M  V30 2384 H 217.32 -3.24487 -1.92323 0
M  V30 2385 H 219.707 -2.25318 -1.90568 0
M  V30 2386 H 219.788 -2.55276 -0.16369 0
M  V30 2387 H 219.432 -5.04366 -0.598109 0
M  V30 2388 H 219.362 -4.71385 -2.34743 0
M  V30 2389 H 221.853 -3.54332 -1.31367 0
M  V30 2390 H 222.166 -7.43964 -2.09134 0
M  V30 2391 H 220.511 -6.68879 -1.88749 0
M  V30 2392 H 223.702 -4.41764 -1.54796 0
M  V30 2393 H 223.875 -6.19433 -1.9028 0
M  V30 2394 N 217.281 0.66697 -1.42791 0
M  V30 2395 C 218.697 0.981027 -1.25889 0
M  V30 2396 C 218.897 2.00793 -0.168695 0
M  V30 2397 O 217.953 2.48321 0.45747 0
M  V30 2398 C 219.266 1.47838 -2.61848 0
M  V30 2399 C 220.814 1.59575 -2.69267 0
M  V30 2400 C 221.289 2.12704 -4.05612 0
M  V30 2401 N 222.78 2.20026 -4.07606 0
M  V30 2402 C 223.515 2.62227 -5.09926 0
M  V30 2403 N 223.011 3.03824 -6.22626 0
M  V30 2404 N 224.804 2.62045 -4.97281 0
M  V30 2405 H 216.955 -0.0127891 -2.12396 0
M  V30 2406 H 219.218 0.0568258 -0.946295 0
M  V30 2407 H 218.924 0.798299 -3.4252 0
M  V30 2408 H 218.798 2.45579 -2.86305 0
M  V30 2409 H 221.185 2.26687 -1.88936 0
M  V30 2410 H 221.266 0.60302 -2.48591 0
M  V30 2411 H 220.91 1.46198 -4.86404 0
M  V30 2412 H 220.84 3.12782 -4.23645 0
M  V30 2413 H 223.331 1.90708 -3.2625 0
M  V30 2414 H 223.644 3.34734 -6.96544 0
M  V30 2415 H 221.989 3.01662 -6.26119 0
M  V30 2416 H 225.18 2.28916 -4.08308 0
M  V30 2417 H 225.353 2.94613 -5.77154 0
M  V30 2418 N 218.759 1.29093 0.90403 0
M  V30 2419 C 220.175 1.07011 1.1841 0
M  V30 2420 C 220.375 -0.181358 2.00682 0
M  V30 2421 O 219.431 -0.880331 2.36657 0
M  V30 2422 C 220.744 2.32311 1.90924 0
M  V30 2423 C 222.292 2.37587 2.03768 0
M  V30 2424 C 222.767 3.62679 2.79693 0
M  V30 2425 N 224.258 3.63376 2.87249 0
M  V30 2426 C 224.993 4.56848 3.46522 0
M  V30 2427 N 224.489 5.60648 4.06996 0
M  V30 2428 N 226.282 4.44426 3.44154 0
M  V30 2429 H 218.433 2.09412 0.354993 0
M  V30 2430 H 220.696 0.922181 0.219742 0
M  V30 2431 H 220.402 3.23536 1.37905 0
M  V30 2432 H 220.276 2.39483 2.91424 0
M  V30 2433 H 222.663 1.46853 2.55965 0
M  V30 2434 H 222.744 2.34403 1.02415 0
M  V30 2435 H 222.388 4.53762 2.28173 0
M  V30 2436 H 222.318 3.63119 3.81381 0
M  V30 2437 H 224.809 2.88321 2.44293 0
M  V30 2438 H 225.122 6.28101 4.50232 0
M  V30 2439 H 223.467 5.64463 4.05471 0
M  V30 2440 H 226.658 3.62529 2.96126 0
M  V30 2441 H 226.831 5.17457 3.90054 0
M  V30 2442 N 220.237 -1.11381 1.11499 0
M  V30 2443 C 221.486 -1.82494 0.858993 0
M  V30 2444 C 221.799 -1.85605 -0.617278 0
M  V30 2445 O 223.005 -2.52824 -0.989552 0
M  V30 2446 C 221.461 -3.27745 1.48699 0
M  V30 2447 C 221.069 -3.32961 2.99735 0
M  V30 2448 C 222.813 -4.03754 1.31085 0
M  V30 2449 C 220.72 -4.72612 3.55516 0
M  V30 2450 H 219.65 -0.683802 0.317696 0
M  V30 2451 H 222.301 -1.25331 1.34031 0
M  V30 2452 H 220.683 -3.84844 0.933339 0
M  V30 2453 H 221.857 -2.85741 3.61509 0
M  V30 2454 H 220.172 -2.70433 3.16631 0
M  V30 2455 H 222.769 -5.06891 1.70192 0
M  V30 2456 H 223.112 -4.15527 0.253496 0
M  V30 2457 H 223.645 -3.53043 1.83318 0
M  V30 2458 H 220.384 -4.66036 4.60967 0
M  V30 2459 H 219.904 -5.2024 2.98513 0
M  V30 2460 H 221.583 -5.4157 3.53992 0
M  V30 2461 N 221.715 -0.905404 -1.28997 0
M  V30 2462 C 222.945 -0.549049 -1.99171 0
M  V30 2463 C 223.353 0.87203 -1.67906 0
M  V30 2464 O 222.696 1.58796 -0.923561 0
M  V30 2465 C 222.758 -0.668306 -3.53234 0
M  V30 2466 C 222.422 -2.0574 -4.08069 0
M  V30 2467 C 223.419 -3.0292 -4.22534 0
M  V30 2468 C 221.104 -2.36833 -4.42962 0
M  V30 2469 C 223.098 -4.29314 -4.71135 0
M  V30 2470 C 220.785 -3.63467 -4.91258 0
M  V30 2471 C 221.783 -4.59522 -5.053 0
M  V30 2472 O 221.471 -5.83907 -5.52546 0
M  V30 2473 H 221.203 -0.208784 -0.64295 0
M  V30 2474 H 223.757 -1.21836 -1.65363 0
M  V30 2475 H 221.987 0.0580547 -3.86656 0
M  V30 2476 H 223.676 -0.320273 -4.04634 0
M  V30 2477 H 224.442 -2.80216 -3.95859 0
M  V30 2478 H 220.321 -1.62824 -4.31288 0
M  V30 2479 H 223.865 -5.04293 -4.8201 0
M  V30 2480 H 219.762 -3.86 -5.17372 0
M  V30 2481 H 220.53 -5.86578 -5.70849 0
M  V30 2482 N 223.193 1.4272 -0.668489 0
M  V30 2483 C 224.123 2.335 -0.000100175 0
M  V30 2484 C 225.104 1.50328 0.795964 0
M  V30 2485 O 226.289 1.78949 0.754385 0
M  V30 2486 C 223.419 3.33874 0.956302 0
M  V30 2487 C 222.373 4.27152 0.269278 0
M  V30 2488 C 221.699 5.17684 1.33818 0
M  V30 2489 C 222.999 5.15373 -0.847805 0
M  V30 2490 H 224.693 2.89639 -0.758244 0
M  V30 2491 H 222.239 1.39269 -0.366079 0
M  V30 2492 H 224.192 3.9629 1.43292 0
M  V30 2493 H 222.916 2.76025 1.74579 0
M  V30 2494 H 221.575 3.66123 -0.187042 0
M  V30 2495 H 221.223 4.56165 2.1195 0
M  V30 2496 H 220.923 5.80918 0.883659 0
M  V30 2497 H 222.447 5.82974 1.81586 0
M  V30 2498 H 223.861 5.7151 -0.452681 0
M  V30 2499 H 222.258 5.87407 -1.22773 0
M  V30 2500 H 223.328 4.5415 -1.69929 0
M  V30 2501 N 224.671 0.411399 1.52136 0
M  V30 2502 C 225.92 -0.165009 2.01024 0
M  V30 2503 C 226.233 -1.4603 1.30133 0
M  V30 2504 O 227.439 -2.1181 1.69849 0
M  V30 2505 C 225.895 -0.344618 3.58246 0
M  V30 2506 C 225.503 0.938716 4.38055 0
M  V30 2507 C 227.247 -0.876195 4.15359 0
M  V30 2508 C 225.154 0.726172 5.86925 0
M  V30 2509 H 224.084 -0.0654407 0.751155 0
M  V30 2510 H 226.735 0.537192 1.75461 0
M  V30 2511 H 225.117 -1.10921 3.80148 0
M  V30 2512 H 226.291 1.70963 4.27912 0
M  V30 2513 H 224.606 1.39688 3.92271 0
M  V30 2514 H 227.203 -1.05128 5.24263 0
M  V30 2515 H 227.546 -1.85152 3.7286 0
M  V30 2516 H 228.079 -0.170607 3.97434 0
M  V30 2517 H 224.818 1.67312 6.33788 0
M  V30 2518 H 224.338 -0.00540283 5.998 0
M  V30 2519 H 226.017 0.369231 6.45946 0
M  V30 2520 N 226.149 -1.5696 0.141893 0
M  V30 2521 C 227.079 -2.19516 -0.795936 0
M  V30 2522 C 228.06 -1.14187 -1.26077 0
M  V30 2523 O 229.245 -1.42511 -1.31925 0
M  V30 2524 C 226.375 -2.81272 -2.03723 0
M  V30 2525 C 225.329 -3.92384 -1.70936 0
M  V30 2526 C 224.655 -4.41052 -3.02287 0
M  V30 2527 C 225.955 -5.13403 -0.959954 0
M  V30 2528 H 227.649 -2.98138 -0.274596 0
M  V30 2529 H 225.195 -1.43406 -0.130636 0
M  V30 2530 H 227.148 -3.237 -2.69808 0
M  V30 2531 H 225.872 -1.99973 -2.58221 0
M  V30 2532 H 224.531 -3.50566 -1.07232 0
M  V30 2533 H 224.179 -3.56582 -3.54765 0
M  V30 2534 H 223.879 -5.15993 -2.81114 0
M  V30 2535 H 225.403 -4.86146 -3.69451 0
M  V30 2536 H 226.817 -5.52706 -1.52279 0
M  V30 2537 H 225.214 -5.94073 -0.848357 0
M  V30 2538 H 226.284 -4.84875 0.0492434 0
M  V30 2539 N 227.627 0.131896 -1.57047 0
M  V30 2540 C 228.537 1.1815 -2.02676 0
M  V30 2541 C 229.553 1.46113 -0.944824 0
M  V30 2542 O 230.729 1.57485 -1.25541 0
M  V30 2543 C 227.794 2.49139 -2.41103 0
M  V30 2544 C 226.855 2.28688 -3.63318 0
M  V30 2545 C 226.088 3.53431 -3.99903 0
M  V30 2546 O 226.311 4.60223 -3.36973 0
M  V30 2547 O 225.245 3.45198 -4.93074 0
M  V30 2548 H 229.071 0.824069 -2.92306 0
M  V30 2549 H 226.656 0.341745 -1.45439 0
M  V30 2550 H 228.538 3.26338 -2.66611 0
M  V30 2551 H 227.213 2.84382 -1.54624 0
M  V30 2552 H 226.12 1.4939 -3.42977 0
M  V30 2553 H 227.453 1.98355 -4.50462 0
M  V30 2554 N 229.106 1.52395 0.401703 0
M  V30 2555 C 230.336 1.70429 1.1678 0
M  V30 2556 C 230.744 0.416702 1.84554 0
M  V30 2557 O 230.087 -0.617697 1.73003 0
M  V30 2558 C 230.149 2.78919 2.26814 0
M  V30 2559 C 229.813 4.20437 1.79113 0
M  V30 2560 C 230.81 5.04028 1.27482 0
M  V30 2561 C 228.495 4.66704 1.85722 0
M  V30 2562 C 230.489 6.31961 0.830913 0
M  V30 2563 C 228.176 5.94625 1.40942 0
M  V30 2564 C 229.174 6.77082 0.897128 0
M  V30 2565 O 228.862 8.02607 0.455822 0
M  V30 2566 H 228.594 0.574272 0.356634 0
M  V30 2567 H 231.148 1.99767 0.477724 0
M  V30 2568 H 229.378 2.44973 2.99207 0
M  V30 2569 H 231.067 2.8548 2.88541 0
M  V30 2570 H 231.833 4.69471 1.21744 0
M  V30 2571 H 227.712 4.0262 2.24539 0
M  V30 2572 H 231.256 6.96271 0.430368 0
M  V30 2573 H 227.153 6.28688 1.46362 0
M  V30 2574 H 227.921 8.16453 0.578457 0
M  V30 2575 N 230.584 -0.659388 1.43143 0
M  V30 2576 C 231.547 -1.75432 1.47501 0
M  V30 2577 C 232.547 -1.56707 0.360512 0
M  V30 2578 O 233.737 -1.62717 0.622002 0
M  V30 2579 C 230.869 -3.14239 1.32162 0
M  V30 2580 H 232.062 -1.7295 2.45006 0
M  V30 2581 H 229.615 -0.870469 1.29817 0
M  V30 2582 H 230.35 -3.22336 0.356401 0
M  V30 2583 H 230.135 -3.29235 2.12948 0
M  V30 2584 H 231.625 -3.94094 1.3813 0
M  V30 2585 N 232.062 -1.29571 -0.897171 0
M  V30 2586 C 233.473 -1.15964 -1.46319 0
M  V30 2587 C 233.824 0.244267 -1.94674 0
M  V30 2588 O 232.949 1.13998 -1.83939 0
M  V30 2589 C 233.544 -2.09906 -2.65942 0
M  V30 2590 C 232.103 -2.00314 -3.18671 0
M  V30 2591 C 231.25 -2.00687 -1.91363 0
M  V30 2592 H 234.201 -1.42019 -0.708268 0
M  V30 2593 H 234.222 -1.67276 -3.41759 0
M  V30 2594 H 233.734 -3.12075 -2.30718 0
M  V30 2595 H 231.835 -1.01242 -3.58582 0
M  V30 2596 H 231.948 -2.88102 -3.82798 0
M  V30 2597 H 230.312 -1.45319 -2.09175 0
M  V30 2598 H 231.095 -3.04566 -1.58413 0
M  V30 2599 N 233.54 1.10788 -1.12088 0
M  V30 2600 C 234.956 1.34691 -0.856186 0
M  V30 2601 C 235.156 1.94791 0.515615 0
M  V30 2602 O 234.212 2.18524 1.26505 0
M  V30 2603 C 235.525 2.27208 -1.9697 0
M  V30 2604 C 237.073 2.40755 -2.00016 0
M  V30 2605 C 237.548 3.36598 -3.1059 0
M  V30 2606 N 239.039 3.44164 -3.10008 0
M  V30 2607 C 239.774 4.18284 -3.92206 0
M  V30 2608 N 239.27 4.95322 -4.84384 0
M  V30 2609 N 241.063 4.13865 -3.80357 0
M  V30 2610 H 233.214 0.70144 -2.00483 0
M  V30 2611 H 235.477 0.371405 -0.872217 0
M  V30 2612 H 235.183 1.90251 -2.958 0
M  V30 2613 H 235.057 3.27485 -1.87172 0
M  V30 2614 H 237.444 2.76982 -1.01808 0
M  V30 2615 H 237.525 1.40305 -2.13888 0
M  V30 2616 H 237.169 3.01096 -4.09028 0
M  V30 2617 H 237.099 4.36918 -2.93956 0
M  V30 2618 H 239.59 2.8922 -2.43228 0
M  V30 2619 H 239.903 5.49267 -5.43623 0
M  V30 2620 H 238.248 4.94459 -4.884 0
M  V30 2621 H 241.439 3.52773 -3.07683 0
M  V30 2622 H 241.612 4.71372 -4.44649 0
M  V30 2623 N 235.018 0.912232 1.28515 0
M  V30 2624 C 236.266 0.543523 1.94654 0
M  V30 2625 C 236.587 -0.9155 1.72173 0
M  V30 2626 O 235.857 -1.64708 1.06058 0
M  V30 2627 H 234.437 0.198017 0.720277 0
M  V30 2628 H 237.099 1.16126 1.56527 0
M  V30 2629 H 236.195 0.736684 3.03281 0
M  V30 2630 N 236.496 -1.42363 0.676048 0
M  V30 2631 C 237.406 -2.346 -0.00153389 0
M  V30 2632 C 238.422 -1.5516 -0.787485 0
M  V30 2633 O 239.598 -1.87723 -0.729521 0
M  V30 2634 C 236.663 -3.33705 -0.940298 0
M  V30 2635 C 235.724 -4.29042 -0.148739 0
M  V30 2636 C 234.957 -5.23413 -1.04279 0
M  V30 2637 O 235.18 -5.22749 -2.28232 0
M  V30 2638 O 234.114 -5.99795 -0.502925 0
M  V30 2639 H 237.94 -2.94082 0.758268 0
M  V30 2640 H 235.525 -1.42888 0.436289 0
M  V30 2641 H 237.407 -3.94586 -1.47917 0
M  V30 2642 H 236.082 -2.76695 -1.67993 0
M  V30 2643 H 234.989 -3.71571 0.43427 0
M  V30 2644 H 236.322 -4.89097 0.551805 0
M  V30 2645 N 237.974 -0.419461 -1.51915 0
M  V30 2646 C 238.904 0.391813 -2.30189 0
M  V30 2647 C 239.885 1.03699 -1.34836 0
M  V30 2648 O 241.07 1.04403 -1.63748 0
M  V30 2649 C 238.2 1.50312 -3.13087 0
M  V30 2650 C 237.154 0.9824 -4.16573 0
M  V30 2651 C 236.48 2.18809 -4.8788 0
M  V30 2652 C 237.78 0.0292356 -5.22292 0
M  V30 2653 H 239.474 -0.26135 -2.98257 0
M  V30 2654 H 237.02 -0.127134 -1.43438 0
M  V30 2655 H 238.973 2.07773 -3.66617 0
M  V30 2656 H 237.697 2.18431 -2.42807 0
M  V30 2657 H 236.356 0.430119 -3.64068 0
M  V30 2658 H 236.004 2.85507 -4.14119 0
M  V30 2659 H 235.704 1.84615 -5.57845 0
M  V30 2660 H 237.228 2.76858 -5.44226 0
M  V30 2661 H 238.642 0.512976 -5.71 0
M  V30 2662 H 237.039 -0.2244 -5.9968 0
M  V30 2663 H 238.109 -0.912931 -4.76228 0
M  V30 2664 N 239.452 1.56882 -0.150215 0
M  V30 2665 C 240.682 2.00302 0.506213 0
M  V30 2666 C 241.09 1.02934 1.58749 0
M  V30 2667 O 240.433 0.0188384 1.8369 0
M  V30 2668 C 240.495 3.40156 1.16337 0
M  V30 2669 C 240.159 4.56439 0.226311 0
M  V30 2670 C 241.156 5.17012 -0.547265 0
M  V30 2671 C 238.841 5.02136 0.128279 0
M  V30 2672 C 240.835 6.21693 -1.40629 0
M  V30 2673 C 238.522 6.06672 -0.734345 0
M  V30 2674 C 239.52 6.6632 -1.50023 0
M  V30 2675 O 239.208 7.68831 -2.34848 0
M  V30 2676 H 238.94 0.662182 0.135984 0
M  V30 2677 H 241.494 2.03961 -0.242746 0
M  V30 2678 H 239.724 3.33346 1.96004 0
M  V30 2679 H 241.413 3.67663 1.71985 0
M  V30 2680 H 242.179 4.82603 -0.48158 0
M  V30 2681 H 238.058 4.55435 0.714157 0
M  V30 2682 H 241.602 6.68179 -2.00455 0
M  V30 2683 H 237.499 6.40507 -0.801309 0
M  V30 2684 H 238.267 7.86065 -2.28131 0
M  V30 2685 N 240.93 -0.123565 1.57115 0
M  V30 2686 C 241.877 -1.15177 2.00007 0
M  V30 2687 C 242.847 -1.41403 0.871454 0
M  V30 2688 O 244.032 -1.53346 1.13533 0
M  V30 2689 C 241.172 -2.47436 2.40561 0
M  V30 2690 C 240.285 -2.28184 3.66819 0
M  V30 2691 C 239.42 -3.53641 3.96373 0
M  V30 2692 C 238.459 -3.29528 5.15827 0
M  V30 2693 N 237.596 -4.47175 5.41275 0
M  V30 2694 H 242.436 -0.779008 2.87638 0
M  V30 2695 H 239.973 -0.373166 1.42288 0
M  V30 2696 H 241.931 -3.24584 2.62109 0
M  V30 2697 H 240.561 -2.82614 1.55978 0
M  V30 2698 H 239.613 -1.41976 3.52912 0
M  V30 2699 H 240.925 -2.0634 4.5412 0
M  V30 2700 H 240.079 -4.39209 4.18545 0
M  V30 2701 H 238.818 -3.78512 3.07538 0
M  V30 2702 H 237.823 -2.42349 4.93505 0
M  V30 2703 H 239.048 -3.06031 6.06236 0
M  V30 2704 H 236.994 -4.72175 4.55397 0
M  V30 2705 H 236.911 -4.28419 6.22891 0
M  V30 2706 H 238.179 -5.3389 5.67963 0
M  V30 2707 N 242.408 -1.52605 -0.393616 0
M  V30 2708 C 243.318 -1.79971 -1.50492 0
M  V30 2709 C 244.334 -0.686181 -1.59899 0
M  V30 2710 O 245.51 -0.973274 -1.76322 0
M  V30 2711 C 242.575 -1.95867 -2.86072 0
M  V30 2712 C 241.636 -3.19781 -2.86424 0
M  V30 2713 C 240.869 -3.34909 -4.15538 0
M  V30 2714 O 241.092 -2.54948 -5.10253 0
M  V30 2715 O 240.026 -4.28141 -4.23059 0
M  V30 2716 H 243.852 -2.74328 -1.30299 0
M  V30 2717 H 241.437 -1.3764 -0.581005 0
M  V30 2718 H 243.319 -2.08056 -3.66457 0
M  V30 2719 H 241.994 -1.04699 -3.063 0
M  V30 2720 H 240.901 -3.13038 -2.04837 0
M  V30 2721 H 242.234 -4.1078 -2.71147 0
M  V30 2722 N 243.887 0.651787 -1.4349 0
M  V30 2723 C 244.817 1.77621 -1.51569 0
M  V30 2724 C 245.798 1.66022 -0.370253 0
M  V30 2725 O 246.983 1.85095 -0.587658 0
M  V30 2726 C 244.113 3.16056 -1.43966 0
M  V30 2727 C 243.067 3.4242 -2.56774 0
M  V30 2728 C 242.393 4.8067 -2.34223 0
M  V30 2729 C 243.693 3.37023 -3.99015 0
M  V30 2730 H 245.387 1.71117 -2.45681 0
M  V30 2731 H 242.933 0.821825 -1.18246 0
M  V30 2732 H 244.886 3.94472 -1.48221 0
M  V30 2733 H 243.61 3.23293 -0.463586 0
M  V30 2734 H 242.269 2.66375 -2.51873 0
M  V30 2735 H 241.917 4.84585 -1.34856 0
M  V30 2736 H 241.617 4.9927 -3.09844 0
M  V30 2737 H 243.141 5.61342 -2.40265 0
M  V30 2738 H 244.555 4.05374 -4.05395 0
M  V30 2739 H 242.952 3.67159 -4.74673 0
M  V30 2740 H 244.022 2.3518 -4.2405 0
M  V30 2741 N 245.365 1.30045 0.890287 0
M  V30 2742 C 246.297 1.11786 2.00091 0
M  V30 2743 C 247.31 0.0626307 1.62679 0
M  V30 2744 O 248.499 0.308112 1.75821 0
M  V30 2745 C 245.599 0.681527 3.31977 0
M  V30 2746 C 244.772 1.81735 3.97858 0
M  V30 2747 C 243.831 1.37045 5.08041 0
M  V30 2748 O 242.857 2.07677 5.29961 0
M  V30 2749 N 244.059 0.246525 5.79976 0
M  V30 2750 H 246.824 2.07441 2.16306 0
M  V30 2751 H 244.385 1.2211 1.06305 0
M  V30 2752 H 246.377 0.365675 4.03045 0
M  V30 2753 H 244.947 -0.182828 3.12065 0
M  V30 2754 H 244.167 2.30159 3.20032 0
M  V30 2755 H 245.455 2.57865 4.38615 0
M  V30 2756 H 244.853 -0.34215 5.64664 0
M  V30 2757 H 243.41 -0.00990438 6.51799 0
M  V30 2758 N 246.843 -1.10192 1.12674 0
M  V30 2759 C 247.79 -2.16606 0.796906 0
M  V30 2760 C 248.76 -1.64394 -0.237476 0
M  V30 2761 O 249.945 -1.90474 -0.111484 0
M  V30 2762 C 247.085 -3.44116 0.26043 0
M  V30 2763 C 246.198 -4.10268 1.35293 0
M  V30 2764 C 245.333 -5.25507 0.775621 0
M  V30 2765 C 244.372 -5.83567 1.84706 0
M  V30 2766 N 243.509 -6.90179 1.28829 0
M  V30 2767 H 248.349 -2.44163 1.70846 0
M  V30 2768 H 245.886 -1.19846 0.85295 0
M  V30 2769 H 247.844 -4.17143 -0.0686814 0
M  V30 2770 H 246.474 -3.16901 -0.614274 0
M  V30 2771 H 245.526 -3.35184 1.79877 0
M  V30 2772 H 246.838 -4.4946 2.16303 0
M  V30 2773 H 245.992 -6.05398 0.397327 0
M  V30 2774 H 244.731 -4.87656 -0.0656581 0
M  V30 2775 H 243.736 -5.02344 2.23452 0
M  V30 2776 H 244.961 -6.23482 2.69161 0
M  V30 2777 H 242.907 -6.54322 0.468881 0
M  V30 2778 H 242.824 -7.28097 2.03497 0
M  V30 2779 H 244.092 -7.73844 0.937311 0
M  V30 2780 N 248.321 -0.919034 -1.28029 0
M  V30 2781 C 249.546 -0.570357 -1.99403 0
M  V30 2782 C 249.971 0.842486 -1.68178 0
M  V30 2783 O 249.329 1.56391 -0.917141 0
M  V30 2784 C 249.377 -0.792541 -3.51783 0
M  V30 2785 O 248.481 0.145988 -4.12142 0
M  V30 2786 H 247.822 -0.220555 -0.6263 0
M  V30 2787 H 250.352 -1.23592 -1.63053 0
M  V30 2788 H 250.362 -0.704708 -4.01868 0
M  V30 2789 H 249.037 -1.82247 -3.73844 0
M  V30 2790 H 247.614 0.00897528 -3.72899 0
M  V30 2791 N 249.799 1.42003 -0.683588 0
M  V30 2792 C 251.039 2.03282 -0.213513 0
M  V30 2793 C 251.403 1.52924 1.16097 0
M  V30 2794 O 252.604 2.06048 1.7262 0
M  V30 2795 C 250.875 3.56483 -0.255856 0
M  V30 2796 S 252.434 4.3857 0.14193 0
M  V30 2797 H 249.252 0.705659 -0.0869853 0
M  V30 2798 H 251.854 1.73619 -0.8987 0
M  V30 2799 H 250.558 3.90631 -1.25841 0
M  V30 2800 H 250.089 3.90831 0.448875 0
M  V30 2801 H 252.104 4.76828 1.37295 0
M  V30 2802 N 251.277 0.427512 1.51691 0
M  V30 2803 C 252.505 -0.141191 2.06418 0
M  V30 2804 C 252.92 -1.37303 1.29589 0
M  V30 2805 O 252.277 -1.79059 0.352732 0
M  V30 2806 C 252.328 -0.473266 3.58389 0
M  V30 2807 O 252.049 0.709673 4.32314 0
M  V30 2808 C 253.55 -1.09371 4.29596 0
M  V30 2809 H 250.77 -0.0122747 0.670888 0
M  V30 2810 H 253.314 0.603764 1.95384 0
M  V30 2811 H 251.469 -1.16812 3.69369 0
M  V30 2812 H 251.883 0.42807 5.2275 0
M  V30 2813 H 253.357 -1.27613 5.37046 0
M  V30 2814 H 253.834 -2.072 3.87253 0
M  V30 2815 H 254.44 -0.43853 4.23033 0
M  V30 2816 N 252.755 -1.56801 0.158532 0
M  V30 2817 C 254.002 -1.9649 -0.489679 0
M  V30 2818 C 254.33 -1.04394 -1.6411 0
M  V30 2819 O 253.585 -0.0754401 -1.95555 0
M  V30 2820 C 253.884 -3.4235 -1.02623 0
M  V30 2821 C 253.55 -4.50899 0.00794526 0
M  V30 2822 C 252.212 -4.80312 0.292207 0
M  V30 2823 C 254.564 -5.16333 0.710584 0
M  V30 2824 C 251.892 -5.72461 1.28472 0
M  V30 2825 C 254.244 -6.09553 1.69199 0
M  V30 2826 C 252.908 -6.37339 1.98383 0
M  V30 2827 H 252.178 -0.719009 -0.179186 0
M  V30 2828 H 254.825 -1.8989 0.247798 0
M  V30 2829 H 253.13 -3.45838 -1.84128 0
M  V30 2830 H 254.827 -3.70393 -1.53656 0
M  V30 2831 H 251.417 -4.28015 -0.22379 0
M  V30 2832 H 255.601 -4.93732 0.504174 0
M  V30 2833 H 250.857 -5.92278 1.51714 0
M  V30 2834 H 255.031 -6.59327 2.24189 0
M  V30 2835 H 252.658 -7.08546 2.7544 0
M  V30 2836 N 254.233 0.115231 -1.57178 0
M  V30 2837 C 255.51 0.852873 -1.76027 0
M  V30 2838 C 255.89 1.97892 -0.73498 0
M  V30 2839 O 255.238 2.27232 0.24036 0
M  V30 2840 C 255.448 1.36608 -3.21153 0
M  V30 2841 C 256.796 1.81692 -3.83762 0
M  V30 2842 O 257.82 1.46278 -3.24779 0
M  V30 2843 O 256.679 2.47104 -4.87444 0
M  V30 2844 H 253.773 0.405296 -0.720877 0
M  V30 2845 H 256.319 0.0986785 -1.69413 0
M  V30 2846 H 255.091 0.558357 -3.87296 0
M  V30 2847 H 254.714 2.18287 -3.3232 0
M  V30 2848 N 255.711 1.52812 0.385517 0
M  V30 2849 C 256.621 1.80766 1.49535 0
M  V30 2850 C 257.637 0.694651 1.59532 0
M  V30 2851 O 258.813 0.982611 1.75803 0
M  V30 2852 C 255.878 1.97381 2.85029 0
M  V30 2853 C 254.939 3.21295 2.84724 0
M  V30 2854 C 254.172 3.37108 4.13756 0
M  V30 2855 O 254.395 2.5765 5.08893 0
M  V30 2856 O 253.329 4.30378 4.20783 0
M  V30 2857 H 257.155 2.75015 1.28842 0
M  V30 2858 H 254.74 1.37946 0.573697 0
M  V30 2859 H 256.622 2.09996 3.65349 0
M  V30 2860 H 255.297 1.06322 3.05741 0
M  V30 2861 H 254.204 3.1412 2.03174 0
M  V30 2862 H 255.537 4.12212 2.68965 0
M  V30 2863 N 257.189 -0.644168 1.43834 0
M  V30 2864 C 258.121 -1.76955 1.45669 0
M  V30 2865 C 259.134 -1.58956 0.351666 0
M  V30 2866 O 260.323 -1.6751 0.616644 0
M  V30 2867 C 257.423 -3.14507 1.26248 0
M  V30 2868 C 256.596 -3.59083 2.49757 0
M  V30 2869 C 255.655 -4.75467 2.25427 0
M  V30 2870 O 254.681 -4.84444 2.98836 0
M  V30 2871 N 255.883 -5.66289 1.27661 0
M  V30 2872 H 258.648 -1.75856 2.42682 0
M  V30 2873 H 256.209 -0.828312 1.39106 0
M  V30 2874 H 258.201 -3.90067 1.0784 0
M  V30 2875 H 256.771 -3.10325 0.376478 0
M  V30 2876 H 255.991 -2.7387 2.8353 0
M  V30 2877 H 257.279 -3.85613 3.31934 0
M  V30 2878 H 256.677 -5.61718 0.670064 0
M  V30 2879 H 255.234 -6.41533 1.15234 0
M  V30 2880 N 258.668 -1.30515 -0.883378 0
M  V30 2881 C 260.084 -1.08881 -1.16692 0
M  V30 2882 C 260.284 0.149409 -2.00945 0
M  V30 2883 O 259.34 0.84257 -2.38027 0
M  V30 2884 C 260.653 -2.35319 -1.87204 0
M  V30 2885 C 262.201 -2.40799 -1.99962 0
M  V30 2886 C 262.676 -3.67083 -2.73887 0
M  V30 2887 N 264.167 -3.679 -2.81432 0
M  V30 2888 C 264.902 -4.62303 -3.3921 0
M  V30 2889 N 264.398 -5.67052 -3.98025 0
M  V30 2890 N 266.191 -4.49845 -3.3704 0
M  V30 2891 H 258.342 -2.09951 -0.321633 0
M  V30 2892 H 260.605 -0.92556 -0.205043 0
M  V30 2893 H 260.311 -3.25689 -1.3274 0
M  V30 2894 H 260.185 -2.44089 -2.87577 0
M  V30 2895 H 262.572 -1.50907 -2.53597 0
M  V30 2896 H 262.653 -2.36003 -0.98673 0
M  V30 2897 H 262.297 -4.57334 -2.20925 0
M  V30 2898 H 262.227 -3.69141 -3.75556 0
M  V30 2899 H 264.718 -2.92171 -2.39676 0
M  V30 2900 H 265.031 -6.35184 -4.40183 0
M  V30 2901 H 263.376 -5.70842 -3.96439 0
M  V30 2902 H 266.567 -3.67194 -2.90321 0
M  V30 2903 H 266.74 -5.23597 -3.81772 0
M  V30 2904 N 260.146 1.09593 -1.13257 0
M  V30 2905 C 261.374 1.855 -0.916378 0
M  V30 2906 C 261.789 1.81069 0.534738 0
M  V30 2907 O 261.146 1.20562 1.37007 0
M  V30 2908 C 261.197 3.33546 -1.39388 0
M  V30 2909 O 260.918 3.37927 -2.78813 0
M  V30 2910 C 262.419 4.26299 -1.21588 0
M  V30 2911 H 259.639 0.585991 -0.326887 0
M  V30 2912 H 262.183 1.38488 -1.5047 0
M  V30 2913 H 260.338 3.77992 -0.848597 0
M  V30 2914 H 260.752 4.30254 -2.9997 0
M  V30 2915 H 262.226 5.28341 -1.59876 0
M  V30 2916 H 262.703 4.38918 -0.157376 0
M  V30 2917 H 263.309 3.87668 -1.7491 0
M  V30 2918 N 261.624 0.925811 1.2754 0
M  V30 2919 C 262.587 0.428129 2.25166 0
M  V30 2920 C 263.587 -0.452261 1.54309 0
M  V30 2921 O 264.777 -0.253608 1.72344 0
M  V30 2922 C 261.909 -0.384749 3.38722 0
M  V30 2923 H 263.102 1.29066 2.70706 0
M  V30 2924 H 260.655 0.706323 1.3943 0
M  V30 2925 H 261.39 -1.26618 2.98561 0
M  V30 2926 H 261.175 0.246454 3.91325 0
M  V30 2927 H 262.665 -0.723389 4.11287 0
M  V30 2928 N 263.102 -1.41638 0.69111 0
M  V30 2929 C 264.33 -2.05628 0.22909 0
M  V30 2930 C 264.745 -1.51992 -1.11999 0
M  V30 2931 O 264.102 -0.666322 -1.69901 0
M  V30 2932 C 264.153 -3.61084 0.173283 0
M  V30 2933 O 263.874 -4.12735 1.46907 0
M  V30 2934 C 265.375 -4.42213 -0.310266 0
M  V30 2935 H 262.595 -0.662327 0.107534 0
M  V30 2936 H 265.139 -1.81489 0.942438 0
M  V30 2937 H 263.294 -3.84278 -0.490858 0
M  V30 2938 H 263.708 -5.06743 1.35322 0
M  V30 2939 H 265.182 -5.51194 -0.298196 0
M  V30 2940 H 265.659 -4.1799 -1.34838 0
M  V30 2941 H 266.265 -4.24074 0.322716 0
M  V30 2942 N 264.58 -0.43555 -1.51462 0
M  V30 2943 C 265.829 0.133007 -2.01261 0
M  V30 2944 C 266.142 1.43942 -1.32439 0
M  V30 2945 O 267.348 2.09081 -1.73198 0
M  V30 2946 C 265.804 0.287581 -3.58749 0
M  V30 2947 C 265.412 -1.00829 -4.36506 0
M  V30 2948 C 267.156 0.810004 -4.167 0
M  V30 2949 C 265.063 -0.819454 -5.85695 0
M  V30 2950 H 263.993 0.0534822 -0.752101 0
M  V30 2951 H 266.644 -0.565038 -1.74584 0
M  V30 2952 H 265.026 1.04859 -3.81865 0
M  V30 2953 H 266.2 -1.77749 -4.25138 0
M  V30 2954 H 264.515 -1.45911 -3.89999 0
M  V30 2955 H 267.112 0.967743 -5.2587 0
M  V30 2956 H 267.455 1.79196 -3.75758 0
M  V30 2957 H 267.988 0.107357 -3.97655 0
M  V30 2958 H 264.727 -1.77374 -6.31046 0
M  V30 2959 H 264.247 -0.0900208 -5.99732 0
M  V30 2960 H 265.926 -0.471949 -6.45276 0
M  V30 2961 N 266.058 1.56714 -0.166846 0
M  V30 2962 C 266.991 2.13577 0.80375 0
M  V30 2963 C 267.969 1.06464 1.22899 0
M  V30 2964 O 269.153 1.34413 1.32157 0
M  V30 2965 C 266.28 2.67168 2.0818 0
M  V30 2966 C 265.326 3.86612 1.80093 0
M  V30 2967 S 266.159 5.26565 0.97416 0
M  V30 2968 C 267.315 5.83558 2.26297 0
M  V30 2969 H 267.548 2.9557 0.320267 0
M  V30 2970 H 265.081 1.54326 0.0477555 0
M  V30 2971 H 267.039 2.98692 2.8159 0
M  V30 2972 H 265.7 1.85269 2.53642 0
M  V30 2973 H 264.893 4.22422 2.7491 0
M  V30 2974 H 264.495 3.55951 1.14781 0
M  V30 2975 H 266.787 5.962 3.21795 0
M  V30 2976 H 267.73 6.80731 1.94962 0
M  V30 2977 H 268.138 5.11944 2.37853 0
M  V30 2978 N 267.536 -0.106894 1.57237 0
M  V30 2979 C 268.446 -1.14911 2.0453 0
M  V30 2980 C 269.462 -1.44592 0.96795 0
M  V30 2981 O 270.638 -1.55468 1.2803 0
M  V30 2982 C 267.703 -2.45272 2.45036 0
M  V30 2983 C 266.764 -2.22879 3.66911 0
M  V30 2984 C 265.997 -3.47024 4.05475 0
M  V30 2985 O 266.22 -4.54804 3.44252 0
M  V30 2986 O 265.154 -3.3731 4.98504 0
M  V30 2987 H 268.98 -0.777461 2.9358 0
M  V30 2988 H 266.565 -0.318563 1.45964 0
M  V30 2989 H 268.447 -3.22055 2.71769 0
M  V30 2990 H 267.122 -2.81886 1.59129 0
M  V30 2991 H 266.029 -1.43915 3.45311 0
M  V30 2992 H 267.362 -1.91163 4.53561 0
M  V30 2993 N 269.014 -1.53014 -0.377408 0
M  V30 2994 C 269.924 -1.81557 -1.48574 0
M  V30 2995 C 270.94 -0.703102 -1.59162 0
M  V30 2996 O 272.116 -0.99192 -1.75279 0
M  V30 2997 C 269.181 -1.9889 -2.83978 0
M  V30 2998 C 268.242 -3.22801 -2.83016 0
M  V30 2999 C 267.475 -3.39298 -4.11962 0
M  V30 3000 O 267.698 -2.60345 -5.0752 0
M  V30 3001 O 266.632 -4.32604 -4.18494 0
M  V30 3002 H 270.458 -2.75695 -1.27382 0
M  V30 3003 H 268.043 -1.38248 -0.566373 0
M  V30 3004 H 269.925 -2.11931 -3.6423 0
M  V30 3005 H 268.6 -1.07942 -3.05172 0
M  V30 3006 H 267.507 -3.15193 -2.01505 0
M  V30 3007 H 268.84 -4.13632 -2.66775 0
M  V30 3008 N 270.492 0.636531 -1.44174 0
M  V30 3009 C 271.422 1.76003 -1.53444 0
M  V30 3010 C 272.403 1.65619 -0.387841 0
M  V30 3011 O 273.588 1.84461 -0.607257 0
M  V30 3012 C 270.718 3.14511 -1.4731 0
M  V30 3013 C 269.672 3.39677 -2.60391 0
M  V30 3014 C 268.998 4.78159 -2.39308 0
M  V30 3015 C 270.298 3.32772 -4.02567 0
M  V30 3016 H 271.992 1.68501 -2.47483 0
M  V30 3017 H 269.538 0.809237 -1.19111 0
M  V30 3018 H 271.491 3.92878 -1.52397 0
M  V30 3019 H 270.215 3.22783 -0.49785 0
M  V30 3020 H 268.874 2.63688 -2.54684 0
M  V30 3021 H 268.522 4.83128 -1.39988 0
M  V30 3022 H 268.222 4.95956 -3.15122 0
M  V30 3023 H 269.746 5.58762 -2.46205 0
M  V30 3024 H 271.16 4.01051 -4.09672 0
M  V30 3025 H 269.557 3.62104 -4.7854 0
M  V30 3026 H 270.627 2.30669 -4.2652 0
M  V30 3027 N 271.97 1.30982 0.876444 0
M  V30 3028 C 272.933 1.18054 1.96459 0
M  V30 3029 C 273.933 0.109399 1.60427 0
M  V30 3030 O 275.123 0.358173 1.70478 0
M  V30 3031 C 272.255 0.810616 3.31122 0
M  V30 3032 H 273.448 2.14735 2.09354 0
M  V30 3033 H 271.001 1.145 1.06392 0
M  V30 3034 H 271.736 -0.155322 3.23928 0
M  V30 3035 H 271.521 1.58481 3.58645 0
M  V30 3036 H 273.011 0.743876 4.10921 0
M  V30 3037 N 273.449 -1.08991 1.13837 0
M  V30 3038 C 274.726 -1.77863 0.813876 0
M  V30 3039 C 275.106 -1.99375 -0.693746 0
M  V30 3040 O 274.454 -1.59875 -1.63255 0
M  V30 3041 C 274.664 -3.0986 1.60586 0
M  V30 3042 C 276.012 -3.84493 1.8014 0
M  V30 3043 O 277.036 -3.19624 1.57222 0
M  V30 3044 O 275.895 -5.00957 2.18413 0
M  V30 3045 H 272.989 -0.771589 0.297624 0
M  V30 3046 H 275.535 -1.15507 1.24323 0
M  V30 3047 H 274.307 -2.89715 2.63022 0
M  V30 3048 H 273.93 -3.79942 1.17173 0
M  V30 3049 N 274.927 -0.932562 -1.27047 0
M  V30 3050 C 275.89 -0.440064 -2.24936 0
M  V30 3051 C 276.89 0.444071 -1.54547 0
M  V30 3052 O 278.08 0.244465 -1.72476 0
M  V30 3053 C 275.212 0.36678 -3.38921 0
M  V30 3054 H 276.405 -1.305 -2.70018 0
M  V30 3055 H 273.958 -0.713707 -1.39054 0
M  V30 3056 H 274.693 1.25033 -2.99228 0
M  V30 3057 H 274.478 -0.267204 -3.91188 0
M  V30 3058 H 275.968 0.701567 -4.11665 0
M  V30 3059 N 276.405 1.4127 -0.698611 0
M  V30 3060 C 277.335 2.33447 -0.049629 0
M  V30 3061 C 278.316 1.51982 0.763898 0
M  V30 3062 O 279.501 1.80509 0.716257 0
M  V30 3063 C 276.631 3.35828 0.885267 0
M  V30 3064 C 275.585 4.27627 0.178613 0
M  V30 3065 C 274.911 5.20406 1.22807 0
M  V30 3066 C 276.211 5.13459 -0.956933 0
M  V30 3067 H 277.905 2.87966 -0.81951 0
M  V30 3068 H 275.451 1.38461 -0.395538 0
M  V30 3069 H 277.404 3.9924 1.34854 0
M  V30 3070 H 276.128 2.79666 1.68685 0
M  V30 3071 H 274.787 3.65643 -0.26466 0
M  V30 3072 H 274.435 4.60558 2.02226 0
M  V30 3073 H 274.135 5.82661 0.760239 0
M  V30 3074 H 275.659 5.86695 1.69179 0
M  V30 3075 H 277.073 5.70421 -0.573805 0
M  V30 3076 H 275.47 5.8467 -1.35205 0
M  V30 3077 H 276.54 4.50443 -1.79524 0
M  V30 3078 N 277.883 0.443576 1.51229 0
M  V30 3079 C 278.816 -0.410089 2.24485 0
M  V30 3080 C 279.794 -1.01949 1.26669 0
M  V30 3081 O 280.978 -1.06075 1.55821 0
M  V30 3082 C 278.105 -1.57211 3.00004 0
M  V30 3083 C 277.151 -1.08279 4.12526 0
M  V30 3084 S 277.984 -0.0197476 5.35496 0
M  V30 3085 C 279.14 -1.18629 6.14555 0
M  V30 3086 H 279.373 0.211832 2.96544 0
M  V30 3087 H 276.906 0.228156 1.52705 0
M  V30 3088 H 278.864 -2.23825 3.44111 0
M  V30 3089 H 277.525 -2.16547 2.27522 0
M  V30 3090 H 276.718 -1.95193 4.64667 0
M  V30 3091 H 276.32 -0.494797 3.70713 0
M  V30 3092 H 278.612 -2.10344 6.4402 0
M  V30 3093 H 279.555 -0.70472 7.04584 0
M  V30 3094 H 279.963 -1.42768 5.46148 0
M  V30 3095 N 279.361 -1.56624 0.175154 0
M  V30 3096 C 280.591 -2.01082 -0.474283 0
M  V30 3097 C 280.999 -1.05447 -1.57091 0
M  V30 3098 O 280.342 -0.0480595 -1.83637 0
M  V30 3099 C 280.404 -3.41963 -1.10911 0
M  V30 3100 C 280.068 -4.56742 -0.153666 0
M  V30 3101 C 281.065 -5.16076 0.629448 0
M  V30 3102 C 278.75 -5.02277 -0.0483776 0
M  V30 3103 C 280.744 -6.19377 1.50501 0
M  V30 3104 C 278.431 -6.05427 0.830768 0
M  V30 3105 C 279.429 -6.63849 1.60605 0
M  V30 3106 O 279.117 -7.64998 2.47049 0
M  V30 3107 H 278.849 -0.664261 -0.125432 0
M  V30 3108 H 281.403 -2.03549 0.275163 0
M  V30 3109 H 279.633 -3.36422 -1.90676 0
M  V30 3110 H 281.322 -3.70352 -1.66114 0
M  V30 3111 H 282.088 -4.81776 0.558297 0
M  V30 3112 H 277.967 -4.56513 -0.641611 0
M  V30 3113 H 281.511 -6.64906 2.1106 0
M  V30 3114 H 277.408 -6.39151 0.903107 0
M  V30 3115 H 278.176 -7.82336 2.40607 0
M  V30 3116 N 280.839 0.0985539 -1.57292 0
M  V30 3117 C 282.079 0.808332 -1.87737 0
M  V30 3118 C 282.443 1.7607 -0.76572 0
M  V30 3119 O 283.644 2.51358 -0.952499 0
M  V30 3120 C 281.915 1.52093 -3.23423 0
M  V30 3121 S 283.474 2.26947 -3.75554 0
M  V30 3122 H 280.292 0.269377 -0.657995 0
M  V30 3123 H 282.894 0.0656269 -1.9539 0
M  V30 3124 H 281.598 0.81363 -4.02254 0
M  V30 3125 H 281.129 2.30361 -3.189 0
M  V30 3126 H 283.144 3.53027 -3.48692 0
M  V30 3127 N 282.317 1.53212 0.369288 0
M  V30 3128 C 283.267 1.75769 1.45222 0
M  V30 3129 C 284.251 0.612136 1.48801 0
M  V30 3130 O 285.443 0.870674 1.54105 0
M  V30 3131 C 282.572 1.94769 2.82701 0
M  V30 3132 C 281.658 3.15315 2.83615 0
M  V30 3133 N 282.049 4.37295 2.54178 0
M  V30 3134 C 280.347 3.15962 3.14776 0
M  V30 3135 C 281.048 5.19015 2.62675 0
M  V30 3136 N 280.024 4.55142 2.97232 0
M  V30 3137 H 283.826 2.67691 1.2132 0
M  V30 3138 H 281.34 1.51787 0.577438 0
M  V30 3139 H 283.337 2.09056 3.60696 0
M  V30 3140 H 281.997 1.04073 3.07569 0
M  V30 3141 H 283.008 4.65091 2.27839 0
M  V30 3142 H 279.685 2.35144 3.44983 0
M  V30 3143 H 281.075 6.26305 2.43294 0
M  V30 3144 N 283.795 -0.628877 1.44509 0
M  V30 3145 C 285.043 -1.38565 1.4712 0
M  V30 3146 C 285.364 -1.94712 0.105899 0
M  V30 3147 O 284.634 -1.75912 -0.862079 0
M  V30 3148 H 283.214 -0.514333 0.541729 0
M  V30 3149 H 285.876 -0.740018 1.80305 0
M  V30 3150 H 284.972 -2.21583 2.19789 0
M  V30 3151 N 285.273 -1.31445 -0.869486 0
M  V30 3152 C 286.22 -1.19135 -1.97675 0
M  V30 3153 C 287.19 -0.0770266 -1.65921 0
M  V30 3154 O 288.375 -0.249972 -1.89155 0
M  V30 3155 C 285.515 -0.905149 -3.33018 0
M  V30 3156 C 284.628 -2.10285 -3.77365 0
M  V30 3157 C 283.763 -1.75339 -5.01427 0
M  V30 3158 C 282.802 -2.91515 -5.38224 0
M  V30 3159 N 281.939 -2.56762 -6.53466 0
M  V30 3160 H 286.779 -2.13853 -2.07535 0
M  V30 3161 H 284.316 -1.06379 -1.01597 0
M  V30 3162 H 286.274 -0.719765 -4.10944 0
M  V30 3163 H 284.904 0.00519624 -3.228 0
M  V30 3164 H 283.956 -2.39899 -2.95216 0
M  V30 3165 H 285.268 -2.97237 -4.00564 0
M  V30 3166 H 284.422 -1.53266 -5.87022 0
M  V30 3167 H 283.161 -0.855801 -4.80133 0
M  V30 3168 H 282.166 -3.14237 -4.51149 0
M  V30 3169 H 283.391 -3.81985 -5.61484 0
M  V30 3170 H 281.337 -1.69526 -6.33717 0
M  V30 3171 H 281.254 -3.37243 -6.76612 0
M  V30 3172 H 282.522 -2.38083 -7.42251 0
M  V30 3173 N 286.751 1.08385 -1.14413 0
M  V30 3174 C 287.698 2.15311 -0.831265 0
M  V30 3175 C 288.668 1.64751 0.211292 0
M  V30 3176 O 289.853 1.90627 0.0811674 0
M  V30 3177 C 286.993 3.43658 -0.315143 0
M  V30 3178 C 286.106 4.08064 -1.41802 0
M  V30 3179 C 285.241 5.24207 -0.859126 0
M  V30 3180 C 284.28 5.80554 -1.93967 0
M  V30 3181 N 283.417 6.88042 -1.39793 0
M  V30 3182 H 288.257 2.41415 -1.74708 0
M  V30 3183 H 285.794 1.18474 -0.871909 0
M  V30 3184 H 287.752 4.172 0.00230884 0
M  V30 3185 H 286.382 3.17839 0.56378 0
M  V30 3186 H 285.434 3.3228 -1.85187 0
M  V30 3187 H 286.746 4.45962 -2.23427 0
M  V30 3188 H 285.9 6.04689 -0.49359 0
M  V30 3189 H 284.639 4.87699 -0.011932 0
M  V30 3190 H 283.644 4.98725 -2.31415 0
M  V30 3191 H 284.869 6.19121 -2.79046 0
M  V30 3192 H 282.815 6.53493 -0.572919 0
M  V30 3193 H 282.732 7.24767 -2.15054 0
M  V30 3194 H 284 7.72255 -1.0603 0
M  V30 3195 N 288.23 0.939286 1.26551 0
M  V30 3196 C 289.476 0.586715 1.94128 0
M  V30 3197 C 289.809 -0.8717 1.73537 0
M  V30 3198 O 289.084 -1.62339 1.07127 0
M  V30 3199 C 289.367 0.927497 3.4795 0
M  V30 3200 C 289.22 2.44052 3.77834 0
M  V30 3201 C 290.539 0.441569 4.37879 0
M  V30 3202 H 287.658 0.21463 0.705055 0
M  V30 3203 H 290.3 1.17316 1.49455 0
M  V30 3204 H 288.45 0.428431 3.8613 0
M  V30 3205 H 290.122 3.01216 3.4938 0
M  V30 3206 H 288.365 2.8848 3.23978 0
M  V30 3207 H 289.036 2.62947 4.85348 0
M  V30 3208 H 291.512 0.869448 4.06915 0
M  V30 3209 H 290.388 0.708856 5.44304 0
M  V30 3210 H 290.649 -0.658467 4.37169 0
M  V30 3211 N 289.708 -1.40897 0.706093 0
M  V30 3212 C 290.957 -2.00284 0.238574 0
M  V30 3213 C 291.27 -1.56604 -1.17194 0
M  V30 3214 O 292.476 -2.08624 -1.73748 0
M  V30 3215 C 290.932 -3.57934 0.375623 0
M  V30 3216 C 290.54 -4.10591 1.79217 0
M  V30 3217 C 292.284 -4.24488 -0.0315857 0
M  V30 3218 C 290.191 -5.60712 1.88032 0
M  V30 3219 H 289.121 -0.749144 0.0854398 0
M  V30 3220 H 291.772 -1.61251 0.875813 0
M  V30 3221 H 290.154 -3.94622 -0.330042 0
M  V30 3222 H 291.328 -3.85301 2.52745 0
M  V30 3223 H 289.643 -3.56601 2.15 0
M  V30 3224 H 292.24 -5.34698 0.0136842 0
M  V30 3225 H 292.583 -4.02261 -1.072 0
M  V30 3226 H 293.116 -3.92873 0.624181 0
M  V30 3227 H 289.855 -5.87781 2.90161 0
M  V30 3228 H 289.375 -5.87896 1.18903 0
M  V30 3229 H 291.054 -6.25658 1.64805 0
M  V30 3230 N 291.186 -0.45159 -1.50991 0
M  V30 3231 C 292.136 0.370861 -2.24964 0
M  V30 3232 C 293.12 0.978074 -1.2776 0
M  V30 3233 O 294.312 0.893854 -1.52772 0
M  V30 3234 C 291.441 1.46344 -3.10545 0
M  V30 3235 C 290.527 0.864924 -4.15187 0
M  V30 3236 N 290.918 -0.00311354 -5.058 0
M  V30 3237 C 289.216 1.13099 -4.31422 0
M  V30 3238 C 289.917 -0.340772 -5.80701 0
M  V30 3239 N 288.893 0.279203 -5.42883 0
M  V30 3240 H 292.695 -0.298134 -2.92384 0
M  V30 3241 H 290.209 -0.264528 -1.60231 0
M  V30 3242 H 292.206 2.06565 -3.62128 0
M  V30 3243 H 290.866 2.13463 -2.4467 0
M  V30 3244 H 291.877 -0.37058 -5.16572 0
M  V30 3245 H 288.554 1.79861 -3.76771 0
M  V30 3246 H 289.944 -1.048 -6.63677 0
M  V30 3247 N 292.664 1.56529 -0.183458 0
M  V30 3248 C 294.08 1.58664 0.172554 0
M  V30 3249 C 294.28 1.19925 1.61926 0
M  V30 3250 O 293.336 0.916534 2.35278 0
M  V30 3251 C 294.649 3.00463 -0.119262 0
M  V30 3252 C 296.197 3.12945 -0.0584396 0
M  V30 3253 C 296.672 4.56857 -0.323408 0
M  V30 3254 N 298.163 4.62403 -0.271612 0
M  V30 3255 C 298.898 5.71626 -0.450639 0
M  V30 3256 N 298.394 6.89362 -0.689384 0
M  V30 3257 N 300.187 5.60775 -0.385701 0
M  V30 3258 H 292.338 1.79994 -1.12765 0
M  V30 3259 H 294.601 0.834808 -0.449222 0
M  V30 3260 H 294.307 3.33326 -1.12192 0
M  V30 3261 H 294.181 3.72659 0.583544 0
M  V30 3262 H 296.568 2.79902 0.934805 0
M  V30 3263 H 296.649 2.4316 -0.794144 0
M  V30 3264 H 296.293 4.9061 -1.31392 0
M  V30 3265 H 296.223 5.24816 0.43305 0
M  V30 3266 H 298.714 3.77785 -0.0932256 0
M  V30 3267 H 299.027 7.68489 -0.815113 0
M  V30 3268 H 297.372 6.91196 -0.726142 0
M  V30 3269 H 300.563 4.67674 -0.199687 0
M  V30 3270 H 300.736 6.4584 -0.528646 0
M  V30 3271 N 294.142 -0.090211 1.57342 0
M  V30 3272 C 295.419 -0.824761 1.77361 0
M  V30 3273 C 295.799 -1.96698 0.76637 0
M  V30 3274 O 295.147 -2.27586 -0.204179 0
M  V30 3275 C 295.357 -1.31481 3.23286 0
M  V30 3276 C 296.705 -1.75563 3.86604 0
M  V30 3277 O 297.729 -1.41093 3.27065 0
M  V30 3278 O 296.588 -2.39317 4.91314 0
M  V30 3279 H 293.682 -0.393776 0.727234 0
M  V30 3280 H 296.228 -0.0717138 1.69548 0
M  V30 3281 H 295 -0.496671 3.88135 0
M  V30 3282 H 294.623 -2.12973 3.35751 0
M  V30 3283 N 295.62 -1.53406 -0.361157 0
M  V30 3284 C 296.869 -1.69022 -1.10066 0
M  V30 3285 C 297.182 -0.450838 -1.90333 0
M  V30 3286 O 298.388 -0.487617 -2.67085 0
M  V30 3287 C 296.844 -2.98812 -2.00598 0
M  V30 3288 C 296.452 -4.30027 -1.25621 0
M  V30 3289 C 298.196 -3.23795 -2.74513 0
M  V30 3290 C 296.103 -5.50903 -2.1508 0
M  V30 3291 H 295.033 -0.629776 -0.414606 0
M  V30 3292 H 297.684 -1.79907 -0.361348 0
M  V30 3293 H 296.066 -2.8174 -2.78278 0
M  V30 3294 H 297.24 -4.57745 -0.529739 0
M  V30 3295 H 295.555 -4.11522 -0.635496 0
M  V30 3296 H 298.152 -4.11289 -3.41681 0
M  V30 3297 H 298.495 -2.40045 -3.40123 0
M  V30 3298 H 299.028 -3.41561 -2.03914 0
M  V30 3299 H 295.767 -6.37143 -1.54041 0
M  V30 3300 H 295.287 -5.27459 -2.85565 0
M  V30 3301 H 296.966 -5.85865 -2.74538 0
M  V30 3302 N 297.098 0.621204 -1.44841 0
M  V30 3303 C 298.045 1.73267 -1.5247 0
M  V30 3304 C 299.015 1.6189 -0.371611 0
M  V30 3305 O 300.2 1.81668 -0.58321 0
M  V30 3306 C 297.34 3.11545 -1.48438 0
M  V30 3307 C 296.453 3.33827 -2.74196 0
M  V30 3308 C 295.588 4.62133 -2.61929 0
M  V30 3309 C 294.627 4.77627 -3.82804 0
M  V30 3310 N 293.764 5.97219 -3.69153 0
M  V30 3311 H 298.604 1.66082 -2.47428 0
M  V30 3312 H 296.141 0.810026 -1.22788 0
M  V30 3313 H 298.099 3.91528 -1.4409 0
M  V30 3314 H 296.729 3.1772 -0.570402 0
M  V30 3315 H 295.781 2.47715 -2.88689 0
M  V30 3316 H 297.093 3.41153 -3.6389 0
M  V30 3317 H 296.247 5.50291 -2.5547 0
M  V30 3318 H 294.986 4.57182 -1.69811 0
M  V30 3319 H 293.991 3.87896 -3.89637 0
M  V30 3320 H 295.216 4.84385 -4.75971 0
M  V30 3321 H 293.162 5.93339 -2.79794 0
M  V30 3322 H 293.079 6.05644 -4.52472 0
M  V30 3323 H 294.347 6.87912 -3.66603 0
M  V30 3324 N 298.576 1.31904 0.862503 0
M  V30 3325 C 299.987 1.19803 1.43193 0
M  V30 3326 C 300.338 -0.192567 1.95253 0
M  V30 3327 O 299.463 -1.09081 1.86896 0
M  V30 3328 C 300.058 2.16883 2.60283 0
M  V30 3329 C 298.617 2.08692 3.13248 0
M  V30 3330 C 297.764 2.05691 1.85975 0
M  V30 3331 H 300.715 1.43846 0.670365 0
M  V30 3332 H 300.736 1.76278 3.37204 0
M  V30 3333 H 300.248 3.18083 2.22363 0
M  V30 3334 H 298.349 1.10713 3.55771 0
M  V30 3335 H 298.462 2.9815 3.75025 0
M  V30 3336 H 296.826 1.50814 2.05249 0
M  V30 3337 H 297.609 3.08659 1.50282 0
M  V30 3338 N 300.054 -1.07777 1.14986 0
M  V30 3339 C 300.964 -2.18404 0.856546 0
M  V30 3340 C 301.98 -1.73211 -0.165485 0
M  V30 3341 O 303.156 -2.01399 0.00755219 0
M  V30 3342 C 300.221 -3.44977 0.34526 0
M  V30 3343 C 299.282 -4.0476 1.43065 0
M  V30 3344 C 298.515 -5.25291 0.943663 0
M  V30 3345 O 298.738 -5.70004 -0.212426 0
M  V30 3346 O 297.672 -5.76638 1.72547 0
M  V30 3347 H 301.498 -2.45978 1.78125 0
M  V30 3348 H 299.083 -1.17033 0.928631 0
M  V30 3349 H 300.965 -4.21348 0.0663671 0
M  V30 3350 H 299.64 -3.18965 -0.551631 0
M  V30 3351 H 298.547 -3.29949 1.76309 0
M  V30 3352 H 299.88 -4.35035 2.30229 0
M  V30 3353 N 301.532 -0.945985 -1.26051 0
M  V30 3354 C 302.48 -0.450259 -2.282 0
M  V30 3355 C 303.474 0.47497 -1.62605 0
M  V30 3356 O 304.68 0.352653 -1.76512 0
M  V30 3357 H 301.055 -0.127081 -0.741184 0
M  V30 3358 H 303.026 -1.32422 -2.67408 0
M  V30 3359 C 301.775 0.26467 -3.46691 0
M  V30 3360 H 301.098 -0.438123 -3.97392 0
M  V30 3361 H 302.538 0.575678 -4.20074 0
M  V30 3362 C 300.997 1.48416 -3.02447 0
M  V30 3363 O 301.527 2.58227 -3.07704 0
M  V30 3364 N 299.733 1.34243 -2.57735 0
M  V30 3365 H 299.28 0.448994 -2.53657 0
M  V30 3366 H 299.238 2.15957 -2.28495 0
M  V30 3367 N 303.011 1.40521 -0.713556 0
M  V30 3368 C 303.941 2.33381 -0.0743864 0
M  V30 3369 C 304.922 1.52784 0.747735 0
M  V30 3370 O 306.107 1.81258 0.697071 0
M  V30 3371 C 303.237 3.36748 0.849598 0
M  V30 3372 C 302.191 4.27793 0.133247 0
M  V30 3373 C 301.517 5.21679 1.17281 0
M  V30 3374 C 302.817 5.12415 -1.01134 0
M  V30 3375 H 304.511 2.87081 -0.850007 0
M  V30 3376 H 302.057 1.38034 -0.410201 0
M  V30 3377 H 304.01 4.00648 1.30612 0
M  V30 3378 H 302.734 2.81439 1.65709 0
M  V30 3379 H 301.393 3.65342 -0.303426 0
M  V30 3380 H 301.041 4.62677 1.9733 0
M  V30 3381 H 300.741 5.83435 0.698397 0
M  V30 3382 H 302.265 5.88456 1.62947 0
M  V30 3383 H 303.679 5.69781 -0.634274 0
M  V30 3384 H 302.076 5.83203 -1.41399 0
M  V30 3385 H 303.146 4.48514 -1.84292 0
M  V30 3386 N 304.489 0.459591 1.5075 0
M  V30 3387 C 305.419 -0.330644 2.31147 0
M  V30 3388 C 306.4 -1.00087 1.37538 0
M  V30 3389 O 307.585 -1.00025 1.66459 0
M  V30 3390 C 304.715 -1.41958 3.16962 0
M  V30 3391 C 303.669 -0.871608 4.19031 0
M  V30 3392 C 302.995 -2.05797 4.9351 0
M  V30 3393 C 304.295 0.109251 5.22186 0
M  V30 3394 H 305.989 0.340336 2.97459 0
M  V30 3395 H 303.535 0.165119 1.4305 0
M  V30 3396 H 305.488 -1.9798 3.71997 0
M  V30 3397 H 304.212 -2.11917 2.48513 0
M  V30 3398 H 302.871 -0.333442 3.6508 0
M  V30 3399 H 302.519 -2.74427 4.21544 0
M  V30 3400 H 302.219 -1.6976 5.62544 0
M  V30 3401 H 303.743 -2.62331 5.51375 0
M  V30 3402 H 305.157 -0.361405 5.7216 0
M  V30 3403 H 303.554 0.383316 5.98875 0
M  V30 3404 H 304.624 1.03887 4.73641 0
M  V30 3405 N 305.967 -1.56429 0.191757 0
M  V30 3406 C 306.897 -2.21937 -0.725696 0
M  V30 3407 C 307.878 -1.1814 -1.2238 0
M  V30 3408 O 309.063 -1.46636 -1.27325 0
M  V30 3409 C 306.193 -2.87611 -1.94672 0
M  V30 3410 C 305.147 -3.97623 -1.58366 0
M  V30 3411 C 304.473 -4.50446 -2.88102 0
M  V30 3412 C 305.773 -5.16197 -0.796133 0
M  V30 3413 H 307.467 -2.98861 -0.179606 0
M  V30 3414 H 305.013 -1.43749 -0.0849464 0
M  V30 3415 H 306.966 -3.3212 -2.59373 0
M  V30 3416 H 305.69 -2.08087 -2.51728 0
M  V30 3417 H 304.349 -3.53801 -0.960247 0
M  V30 3418 H 303.997 -3.67688 -3.43241 0
M  V30 3419 H 303.697 -5.24675 -2.64556 0
M  V30 3420 H 305.221 -4.97654 -3.53798 0
M  V30 3421 H 306.635 -5.57271 -1.34618 0
M  V30 3422 H 305.032 -5.96471 -0.658928 0
M  V30 3423 H 306.102 -4.84473 0.203478 0
M  V30 3424 N 307.445 0.0818655 -1.57387 0
M  V30 3425 C 308.693 0.781368 -1.86384 0
M  V30 3426 C 309.014 1.78618 -0.782342 0
M  V30 3427 O 308.284 1.94976 0.190061 0
M  V30 3428 H 306.864 0.291562 -0.687751 0
M  V30 3429 H 309.526 0.060348 -1.94807 0
M  V30 3430 H 308.622 1.3038 -2.83562 0
M  V30 3431 N 308.923 1.53595 0.353017 0
M  V30 3432 C 309.853 1.83902 1.43883 0
M  V30 3433 C 310.834 0.693421 1.55324 0
M  V30 3434 O 312.019 0.944452 1.69687 0
M  V30 3435 C 309.149 2.04016 2.8106 0
M  V30 3436 C 308.103 3.19814 2.84434 0
M  V30 3437 C 307.429 3.25244 4.24406 0
M  V30 3438 C 308.729 4.58133 2.50822 0
M  V30 3439 H 310.423 2.74835 1.1877 0
M  V30 3440 H 307.969 1.32242 0.569917 0
M  V30 3441 H 309.922 2.238 3.57059 0
M  V30 3442 H 308.646 1.09804 3.07588 0
M  V30 3443 H 307.305 2.9987 2.10887 0
M  V30 3444 H 306.953 2.28646 4.48029 0
M  V30 3445 H 306.653 4.03054 4.27576 0
M  V30 3446 H 308.177 3.47228 5.0226 0
M  V30 3447 H 309.591 4.77995 3.16534 0
M  V30 3448 H 307.988 5.38276 2.6529 0
M  V30 3449 H 309.058 4.62387 1.46034 0
M  V30 3450 N 310.401 -0.613514 1.45168 0
M  V30 3451 C 311.348 -1.72456 1.53387 0
M  V30 3452 C 312.318 -1.6169 0.380191 0
M  V30 3453 O 313.503 -1.81356 0.592836 0
M  V30 3454 C 310.643 -3.10753 1.50088 0
M  V30 3455 C 309.756 -3.32368 2.75963 0
M  V30 3456 C 308.891 -4.60737 2.64376 0
M  V30 3457 C 307.93 -4.7559 3.85332 0
M  V30 3458 N 307.067 -5.95253 3.72315 0
M  V30 3459 H 311.907 -1.64768 2.48305 0
M  V30 3460 H 309.444 -0.803503 1.23216 0
M  V30 3461 H 311.402 -3.90758 1.46164 0
M  V30 3462 H 310.032 -3.17413 0.587243 0
M  V30 3463 H 309.084 -2.4618 2.89999 0
M  V30 3464 H 310.396 -3.39218 3.65695 0
M  V30 3465 H 309.55 -5.48928 2.58385 0
M  V30 3466 H 308.289 -4.56275 1.72233 0
M  V30 3467 H 307.294 -3.85824 3.91688 0
M  V30 3468 H 308.519 -4.81854 4.78533 0
M  V30 3469 H 306.465 -5.91847 2.82937 0
M  V30 3470 H 306.382 -6.03236 4.55677 0
M  V30 3471 H 307.65 -6.85958 3.70246 0
M  V30 3472 N 311.879 -1.3236 -0.855495 0
M  V30 3473 C 313.127 -1.22629 -1.60644 0
M  V30 3474 C 313.448 0.212136 -1.93843 0
M  V30 3475 O 312.718 1.13666 -1.59552 0
M  V30 3476 H 311.298 -0.450882 -0.595579 0
M  V30 3477 H 313.96 -1.65871 -1.02337 0
M  V30 3478 H 313.056 -1.80832 -2.54374 0
M  V30 3479 N 313.357 1.07166 -1.15556 0
M  V30 3480 C 314.267 2.17947 -0.868116 0
M  V30 3481 C 315.283 1.73297 0.156297 0
M  V30 3482 O 316.459 2.01392 -0.0182327 0
M  V30 3483 C 313.524 3.44789 -0.36355 0
M  V30 3484 C 312.585 4.03996 -1.45209 0
M  V30 3485 C 311.818 5.24783 -0.971508 0
M  V30 3486 O 312.041 5.70109 0.182194 0
M  V30 3487 O 310.975 5.75715 -1.75603 0
M  V30 3488 H 314.801 2.4503 -1.79427 0
M  V30 3489 H 312.386 1.16539 -0.934824 0
M  V30 3490 H 314.268 4.21307 -0.0887113 0
M  V30 3491 H 312.943 3.19253 0.534708 0
M  V30 3492 H 311.85 3.29009 -1.78056 0
M  V30 3493 H 313.183 4.33808 -2.32533 0
M  V30 3494 N 314.835 0.952656 1.25548 0
M  V30 3495 C 315.765 0.489287 2.28316 0
M  V30 3496 C 316.746 -0.463359 1.63667 0
M  V30 3497 O 317.931 -0.36274 1.90782 0
M  V30 3498 C 315.061 -0.235603 3.465 0
M  V30 3499 C 314.015 0.631593 4.23314 0
M  V30 3500 C 313.341 -0.223923 5.34231 0
M  V30 3501 C 314.641 1.90871 4.86174 0
M  V30 3502 H 316.335 1.34822 2.67326 0
M  V30 3503 H 313.881 0.649728 1.28509 0
M  V30 3504 H 315.834 -0.570882 4.17515 0
M  V30 3505 H 314.558 -1.12877 3.06474 0
M  V30 3506 H 313.217 0.949929 3.54079 0
M  V30 3507 H 312.865 -1.11678 4.90446 0
M  V30 3508 H 312.565 0.35299 5.86539 0
M  V30 3509 H 314.089 -0.554214 6.0808 0
M  V30 3510 H 315.503 1.63997 5.49343 0
M  V30 3511 H 313.9 2.43112 5.4865 0
M  V30 3512 H 314.97 2.61304 4.08471 0
M  V30 3513 N 316.313 -1.40141 0.720998 0
M  V30 3514 C 317.26 -2.30688 0.071919 0
M  V30 3515 C 318.23 -1.48476 -0.744584 0
M  V30 3516 O 319.415 -1.77201 -0.707423 0
M  V30 3517 C 316.555 -3.34724 -0.839855 0
M  V30 3518 C 315.668 -4.31998 -0.0122438 0
M  V30 3519 C 314.803 -5.23102 -0.923995 0
M  V30 3520 C 313.842 -6.12033 -0.0907969 0
M  V30 3521 N 312.979 -6.95537 -0.957718 0
M  V30 3522 H 317.819 -2.85628 0.849755 0
M  V30 3523 H 315.356 -1.40653 0.430726 0
M  V30 3524 H 317.314 -3.93618 -1.38279 0
M  V30 3525 H 315.944 -2.81274 -1.58381 0
M  V30 3526 H 314.996 -3.74841 0.64794 0
M  V30 3527 H 316.308 -4.94772 0.632595 0
M  V30 3528 H 315.462 -5.86953 -1.53527 0
M  V30 3529 H 314.201 -4.60615 -1.60264 0
M  V30 3530 H 313.206 -5.47207 0.533377 0
M  V30 3531 H 314.431 -6.76581 0.584428 0
M  V30 3532 H 312.377 -6.35633 -1.62192 0
M  V30 3533 H 312.294 -7.55099 -0.36904 0
M  V30 3534 H 313.562 -7.63832 -1.555 0
M  V30 3535 N 317.792 -0.46758 -1.50504 0
M  V30 3536 C 319.041 0.0902868 -2.01498 0
M  V30 3537 C 319.354 1.411 -1.35463 0
M  V30 3538 O 320.56 2.0536 -1.77594 0
M  V30 3539 C 319.016 0.21142 -3.59278 0
M  V30 3540 C 318.624 -1.10065 -4.34269 0
M  V30 3541 C 320.368 0.721433 -4.18325 0
M  V30 3542 C 318.275 -0.943505 -5.83825 0
M  V30 3543 H 317.205 0.037517 -0.753066 0
M  V30 3544 H 319.856 -0.601943 -1.73346 0
M  V30 3545 H 318.238 0.967352 -3.84003 0
M  V30 3546 H 319.412 -1.86726 -4.21272 0
M  V30 3547 H 317.727 -1.5415 -3.86816 0
M  V30 3548 H 320.324 0.85598 -5.27804 0
M  V30 3549 H 320.667 1.71186 -3.79475 0
M  V30 3550 H 321.2 0.0229843 -3.97793 0
M  V30 3551 H 317.939 -1.90719 -6.27141 0
M  V30 3552 H 317.459 -0.217213 -5.99407 0
M  V30 3553 H 319.138 -0.608715 -6.4413 0
M  V30 3554 N 319.27 1.56325 -0.20005 0
M  V30 3555 C 320.233 2.18084 0.705132 0
M  V30 3556 C 321.233 1.13666 1.1374 0
M  V30 3557 O 322.423 1.39023 1.04968 0
M  V30 3558 C 319.555 2.78689 1.96329 0
M  V30 3559 H 320.748 2.99435 0.167023 0
M  V30 3560 H 318.301 1.56221 0.0495725 0
M  V30 3561 H 319.036 2.0115 2.5438 0
M  V30 3562 H 318.821 3.55133 1.66202 0
M  V30 3563 H 320.311 3.26096 2.60866 0
M  V30 3564 N 320.748 -0.0735177 1.57428 0
M  V30 3565 C 322.025 -0.805903 1.78226 0
M  V30 3566 C 322.405 -1.95874 0.787189 0
M  V30 3567 O 321.753 -2.2779 -0.180029 0
M  V30 3568 C 321.963 -1.28045 3.24662 0
M  V30 3569 C 323.311 -1.71453 3.88444 0
M  V30 3570 O 324.335 -1.37616 3.28543 0
M  V30 3571 O 323.194 -2.34093 4.93825 0
M  V30 3572 H 320.288 -0.386041 0.73137 0
M  V30 3573 H 322.834 -0.0537269 1.69615 0
M  V30 3574 H 321.606 -0.455476 3.8864 0
M  V30 3575 H 321.229 -2.094 3.37991 0
M  V30 3576 N 322.226 -1.5378 -0.344866 0
M  V30 3577 C 323.473 -1.70963 -1.08526 0
M  V30 3578 C 323.801 -0.472126 -1.88683 0
M  V30 3579 O 323.056 0.546116 -1.87926 0
M  V30 3580 C 323.355 -2.92407 -2.05506 0
M  V30 3581 C 323.021 -4.28066 -1.41671 0
M  V30 3582 C 321.683 -4.64951 -1.2399 0
M  V30 3583 C 324.035 -5.12344 -0.956726 0
M  V30 3584 C 321.363 -5.83733 -0.589277 0
M  V30 3585 C 323.715 -6.3179 -0.320015 0
M  V30 3586 C 322.379 -6.67372 -0.130881 0
M  V30 3587 H 321.649 -0.625598 -0.397124 0
M  V30 3588 H 324.296 -1.87995 -0.36469 0
M  V30 3589 H 322.601 -2.69973 -2.8394 0
M  V30 3590 H 324.298 -3.02895 -2.62784 0
M  V30 3591 H 320.888 -3.99034 -1.56429 0
M  V30 3592 H 325.072 -4.8438 -1.08118 0
M  V30 3593 H 320.328 -6.09877 -0.431344 0
M  V30 3594 H 324.502 -6.96386 0.0445072 0
M  V30 3595 H 322.129 -7.59273 0.375318 0
M  V30 3596 N 323.704 0.605807 -1.45491 0
M  V30 3597 C 324.952 1.36207 -1.49305 0
M  V30 3598 C 325.273 1.94519 -0.136863 0
M  V30 3599 O 324.543 1.77261 0.833983 0
M  V30 3600 H 323.123 0.50565 -0.549843 0
M  V30 3601 H 325.785 0.711239 -1.81459 0
M  V30 3602 H 324.881 2.18058 -2.23287 0
M  V30 3603 N 325.182 1.32811 0.848464 0
M  V30 3604 C 326.428 1.24917 1.60522 0
M  V30 3605 C 326.783 -0.185761 1.91501 0
M  V30 3606 O 326.076 -1.12524 1.55077 0
M  V30 3607 C 326.27 2.04831 2.92881 0
M  V30 3608 C 326.099 3.55949 2.74828 0
M  V30 3609 C 324.869 4.25277 2.72887 0
M  V30 3610 C 327.067 4.50476 2.48145 0
M  V30 3611 N 325.049 5.62408 2.46111 0
M  V30 3612 C 326.42 5.75427 2.30832 0
M  V30 3613 C 328.475 4.39665 2.33664 0
M  V30 3614 C 327.178 6.90789 2.00508 0
M  V30 3615 C 329.204 5.54833 2.04731 0
M  V30 3616 C 328.566 6.78787 1.88223 0
M  V30 3617 H 324.665 0.512279 0.590842 0
M  V30 3618 H 327.249 1.67246 0.996839 0
M  V30 3619 H 325.42 1.64837 3.51686 0
M  V30 3620 H 327.152 1.88782 3.57971 0
M  V30 3621 H 323.907 3.77456 2.86049 0
M  V30 3622 H 324.331 6.3467 2.35634 0
M  V30 3623 H 328.973 3.44477 2.45144 0
M  V30 3624 H 326.691 7.85984 1.87765 0
M  V30 3625 H 330.277 5.48398 1.94295 0
M  V30 3626 H 329.157 7.66396 1.66155 0
M  V30 3627 N 326.66 -1.06551 1.16123 0
M  V30 3628 C 327.885 -1.83544 0.965735 0
M  V30 3629 C 328.31 -1.81843 -0.481102 0
M  V30 3630 O 327.668 -1.21732 -1.34354 0
M  V30 3631 C 327.716 -3.28169 1.49457 0
M  V30 3632 O 326.82 -4.0643 0.699157 0
M  V30 3633 H 326.161 -0.568026 0.343864 0
M  V30 3634 H 328.691 -1.34362 1.54299 0
M  V30 3635 H 328.701 -3.78992 1.51092 0
M  V30 3636 H 327.376 -3.28722 2.54784 0
M  V30 3637 H 325.953 -3.65216 0.7531 0
M  V30 3638 N 328.138 -0.959301 -1.25041 0
M  V30 3639 C 329.384 -0.617525 -1.9317 0
M  V30 3640 C 329.717 0.843981 -1.74902 0
M  V30 3641 O 328.992 1.60615 -1.09696 0
M  V30 3642 C 329.275 -0.982736 -3.46431 0
M  V30 3643 C 329.128 -2.50032 -3.73904 0
M  V30 3644 C 330.447 -0.511176 -4.37121 0
M  V30 3645 H 327.566 -0.22582 -0.701552 0
M  V30 3646 H 330.208 -1.19679 -1.4757 0
M  V30 3647 H 328.358 -0.489806 -3.854 0
M  V30 3648 H 330.03 -3.06737 -3.44544 0
M  V30 3649 H 328.273 -2.93598 -3.19348 0
M  V30 3650 H 328.944 -2.70635 -4.81103 0
M  V30 3651 H 331.42 -0.934075 -4.0548 0
M  V30 3652 H 330.296 -0.795361 -5.43107 0
M  V30 3653 H 330.557 0.588834 -4.38161 0
M  V30 3654 N 329.616 1.39756 -0.72842 0
M  V30 3655 C 330.566 2.2792 -0.0603424 0
M  V30 3656 C 331.55 1.43922 0.719399 0
M  V30 3657 O 332.742 1.66895 0.589489 0
M  V30 3658 C 329.871 3.32582 0.851104 0
M  V30 3659 C 328.957 4.24049 0.0658641 0
M  V30 3660 N 329.348 4.96653 -0.957578 0
M  V30 3661 C 327.646 4.45013 0.296509 0
M  V30 3662 C 328.347 5.63836 -1.43052 0
M  V30 3663 N 327.323 5.38397 -0.750315 0
M  V30 3664 H 331.125 2.81504 -0.84455 0
M  V30 3665 H 328.639 1.5236 -0.562155 0
M  V30 3666 H 330.636 3.94603 1.34514 0
M  V30 3667 H 329.296 2.80558 1.63454 0
M  V30 3668 H 330.307 5.00297 -1.33877 0
M  V30 3669 H 326.984 4.03943 1.05527 0
M  V30 3670 H 328.374 6.31974 -2.28163 0
M  V30 3671 N 331.094 0.475555 1.50254 0
M  V30 3672 C 332.057 -0.305016 2.27161 0
M  V30 3673 C 333.057 -0.916519 1.32123 0
M  V30 3674 O 334.247 -0.785003 1.5551 0
M  V30 3675 C 331.379 -1.43496 3.09227 0
M  V30 3676 H 332.572 0.369511 2.97615 0
M  V30 3677 H 330.125 0.229747 1.54602 0
M  V30 3678 H 330.86 -2.14441 2.43281 0
M  V30 3679 H 330.645 -1.00223 3.79075 0
M  V30 3680 H 332.135 -1.98548 3.67381 0
M  V30 3681 N 332.573 -1.56217 0.208337 0
M  V30 3682 C 333.984 -1.84243 -0.301904 0
M  V30 3683 C 334.335 -1.12939 -1.60434 0
M  V30 3684 O 333.46 -0.39461 -2.12772 0
M  V30 3685 C 334.055 -3.34231 -0.554543 0
M  V30 3686 C 332.614 -3.62621 -1.00912 0
M  V30 3687 C 331.761 -2.77224 -0.064933 0
M  V30 3688 H 334.712 -1.52712 0.431833 0
M  V30 3689 H 334.733 -3.5372 -1.40223 0
M  V30 3690 H 334.245 -3.86099 0.393561 0
M  V30 3691 H 332.346 -3.16197 -1.97104 0
M  V30 3692 H 332.459 -4.7071 -0.892674 0
M  V30 3693 H 330.823 -2.48256 -0.56929 0
M  V30 3694 H 331.606 -3.31887 0.877851 0
M  V30 3695 N 334.051 0.0651679 -1.57465 0
M  V30 3696 C 335.276 0.779605 -1.9219 0
M  V30 3697 C 335.701 1.69988 -0.805333 0
M  V30 3698 O 335.059 1.79685 0.241435 0
M  V30 3699 C 335.107 1.54364 -3.2589 0
M  V30 3700 O 334.211 2.65474 -3.1559 0
M  V30 3701 H 333.552 0.212249 -0.629163 0
M  V30 3702 H 336.082 0.0314294 -2.04576 0
M  V30 3703 H 336.092 1.92146 -3.59922 0
M  V30 3704 H 334.767 0.868457 -4.06732 0
M  V30 3705 H 333.344 2.30501 -2.93128 0
M  V30 3706 N 335.529 1.53961 0.336706 0
M  V30 3707 C 336.459 1.85417 1.41925 0
M  V30 3708 C 337.44 0.709856 1.5458 0
M  V30 3709 O 338.625 0.962396 1.68676 0
M  V30 3710 C 335.755 2.06985 2.78881 0
M  V30 3711 C 334.709 3.22813 2.81026 0
M  V30 3712 C 334.035 3.29727 4.20932 0
M  V30 3713 C 335.335 4.60767 2.45949 0
M  V30 3714 H 337.029 2.76079 1.15848 0
M  V30 3715 H 334.575 1.32839 0.555859 0
M  V30 3716 H 336.528 2.27575 3.54665 0
M  V30 3717 H 335.252 1.13061 3.06406 0
M  V30 3718 H 333.911 3.0209 2.07695 0
M  V30 3719 H 333.559 2.33385 4.45579 0
M  V30 3720 H 333.259 4.07566 4.23277 0
M  V30 3721 H 334.783 3.52536 4.98549 0
M  V30 3722 H 336.197 4.81325 3.11446 0
M  V30 3723 H 334.594 5.4106 2.59566 0
M  V30 3724 H 335.664 4.6391 1.41122 0
M  V30 3725 N 337.007 -0.598083 1.45811 0
M  V30 3726 C 338.423 -0.919847 1.30426 0
M  V30 3727 C 338.623 -1.99759 0.264303 0
M  V30 3728 O 337.679 -2.50221 -0.338472 0
M  V30 3729 C 338.992 -1.35176 2.68603 0
M  V30 3730 C 340.54 -1.46546 2.76574 0
M  V30 3731 C 341.015 -1.9311 4.15298 0
M  V30 3732 N 342.506 -2.00328 4.1764 0
M  V30 3733 C 343.241 -2.37599 5.21856 0
M  V30 3734 N 342.737 -2.73771 6.36413 0
M  V30 3735 N 344.53 -2.38021 5.09218 0
M  V30 3736 H 336.681 0.114111 2.12093 0
M  V30 3737 H 338.944 -0.0116121 0.947929 0
M  V30 3738 H 338.65 -0.633969 3.45939 0
M  V30 3739 H 338.524 -2.3164 2.97696 0
M  V30 3740 H 340.911 -2.17415 1.99537 0
M  V30 3741 H 340.992 -0.483727 2.51185 0
M  V30 3742 H 340.636 -1.22824 4.92825 0
M  V30 3743 H 340.566 -2.92213 4.38086 0
M  V30 3744 H 343.057 -1.74925 3.34977 0
M  V30 3745 H 343.37 -3.0112 7.11721 0
M  V30 3746 H 341.715 -2.71445 6.39799 0
M  V30 3747 H 344.906 -2.09174 4.18765 0
M  V30 3748 H 345.079 -2.66741 5.90554 0
M  V30 3749 N 338.485 -1.33259 -0.841409 0
M  V30 3750 C 339.901 -1.12538 -1.13169 0
M  V30 3751 C 340.101 0.0854037 -2.01319 0
M  V30 3752 O 339.157 0.766417 -2.40587 0
M  V30 3753 C 340.47 -2.41156 -1.79623 0
M  V30 3754 C 342.018 -2.47038 -1.922 0
M  V30 3755 C 342.493 -3.7561 -2.6207 0
M  V30 3756 N 343.984 -3.76667 -2.69585 0
M  V30 3757 C 344.719 -4.72861 -3.2433 0
M  V30 3758 N 344.215 -5.79428 -3.79783 0
M  V30 3759 N 346.008 -4.6034 -3.22558 0
M  V30 3760 H 338.159 -2.10868 -0.254676 0
M  V30 3761 H 340.422 -0.931615 -0.175493 0
M  V30 3762 H 340.128 -3.29747 -1.22311 0
M  V30 3763 H 340.002 -2.53114 -2.79666 0
M  V30 3764 H 342.389 -1.58898 -2.48667 0
M  V30 3765 H 342.47 -2.39022 -0.911148 0
M  V30 3766 H 342.114 -4.64131 -2.06263 0
M  V30 3767 H 342.044 -3.80902 -3.63622 0
M  V30 3768 H 344.535 -2.99648 -2.30259 0
M  V30 3769 H 344.848 -6.48867 -4.19752 0
M  V30 3770 H 343.193 -5.83166 -3.78078 0
M  V30 3771 H 346.384 -3.76244 -2.78492 0
M  V30 3772 H 346.557 -5.35478 -3.64921 0
M  V30 3773 N 339.963 1.05934 -1.16686 0
M  V30 3774 C 340.91 2.13499 -0.876748 0
M  V30 3775 C 341.88 1.65162 0.176299 0
M  V30 3776 O 343.065 1.90757 0.0407143 0
M  V30 3777 C 340.205 3.42912 -0.387967 0
M  V30 3778 C 339.318 4.04964 -1.50426 0
M  V30 3779 C 338.453 5.22266 -0.970125 0
M  V30 3780 C 337.492 5.76309 -2.06238 0
M  V30 3781 N 336.629 6.84922 -1.54356 0
M  V30 3782 H 341.469 2.37654 -1.7979 0
M  V30 3783 H 339.006 1.16598 -0.896843 0
M  V30 3784 H 340.964 4.17111 -0.086186 0
M  V30 3785 H 339.594 3.18963 0.496235 0
M  V30 3786 H 338.646 3.28277 -1.92193 0
M  V30 3787 H 339.958 4.41122 -2.32836 0
M  V30 3788 H 339.112 6.03506 -0.621743 0
M  V30 3789 H 337.851 4.87564 -0.115377 0
M  V30 3790 H 336.856 4.93704 -2.41942 0
M  V30 3791 H 338.081 6.13062 -2.92115 0
M  V30 3792 H 336.027 6.52131 -0.711406 0
M  V30 3793 H 335.944 7.20043 -2.30379 0
M  V30 3794 H 337.212 7.69832 -1.22387 0
M  V30 3795 N 341.441 0.965919 1.2453 0
M  V30 3796 C 342.669 0.644385 1.96609 0
M  V30 3797 C 343.084 -0.785823 1.71669 0
M  V30 3798 O 342.441 -1.52703 0.999399 0
M  V30 3799 C 342.492 0.907375 3.49927 0
M  V30 3800 O 342.213 2.28136 3.74013 0
M  V30 3801 C 343.714 0.599784 4.39224 0
M  V30 3802 H 340.934 0.240588 0.626385 0
M  V30 3803 H 343.478 1.29337 1.58405 0
M  V30 3804 H 341.633 0.304631 3.862 0
M  V30 3805 H 342.047 2.36002 4.68405 0
M  V30 3806 H 343.521 0.834263 5.45659 0
M  V30 3807 H 343.998 -0.465921 4.36722 0
M  V30 3808 H 344.604 1.18235 4.08535 0
M  V30 3809 N 342.919 -1.39368 0.735821 0
M  V30 3810 C 343.852 -2.28155 0.0451175 0
M  V30 3811 C 344.83 -1.44433 -0.746852 0
M  V30 3812 O 346.014 -1.73823 -0.729237 0
M  V30 3813 C 343.141 -3.253 -0.943266 0
M  V30 3814 C 342.187 -4.25826 -0.239685 0
M  V30 3815 S 343.02 -5.25166 1.04693 0
M  V30 3816 C 344.176 -6.2587 0.0611639 0
M  V30 3817 H 344.409 -2.86388 0.79807 0
M  V30 3818 H 341.942 -1.45104 0.527653 0
M  V30 3819 H 343.9 -3.81789 -1.50824 0
M  V30 3820 H 342.561 -2.66085 -1.66906 0
M  V30 3821 H 341.754 -4.94229 -0.987596 0
M  V30 3822 H 341.356 -3.73141 0.253274 0
M  V30 3823 H 343.648 -6.73007 -0.778941 0
M  V30 3824 H 344.591 -7.04508 0.712362 0
M  V30 3825 H 344.999 -5.63639 -0.311602 0
M  V30 3826 N 344.397 -0.483516 -1.5 0
M  V30 3827 C 345.637 0.0657469 -2.04294 0
M  V30 3828 C 346.001 1.35869 -1.35659 0
M  V30 3829 O 347.202 1.99111 -1.80578 0
M  V30 3830 C 345.473 0.232758 -3.56641 0
M  V30 3831 S 347.032 0.738788 -4.32536 0
M  V30 3832 H 343.85 0.0100755 -0.710929 0
M  V30 3833 H 346.452 -0.653494 -1.84254 0
M  V30 3834 H 345.156 -0.713847 -4.04144 0
M  V30 3835 H 344.687 0.977751 -3.81056 0
M  V30 3836 H 346.702 2.01048 -4.53645 0
M  V30 3837 N 345.875 1.56104 -0.216619 0
M  V30 3838 C 347.123 1.97781 0.415593 0
M  V30 3839 C 347.444 1.10536 1.60645 0
M  V30 3840 O 346.714 0.181303 1.95059 0
M  V30 3841 H 345.294 0.730415 0.156534 0
M  V30 3842 H 347.956 1.92445 -0.308366 0
M  V30 3843 H 347.052 3.03072 0.74525 0
M  V30 3844 N 347.353 -0.0568162 1.57498 0
M  V30 3845 C 348.581 -0.765626 1.92213 0
M  V30 3846 C 348.996 -1.70353 0.813961 0
M  V30 3847 O 348.353 -1.81268 -0.211701 0
M  V30 3848 C 348.404 -1.5465 3.2675 0
M  V30 3849 O 348.125 -0.646278 4.33307 0
M  V30 3850 C 349.626 -2.35497 3.75574 0
M  V30 3851 H 346.846 -0.216835 0.634999 0
M  V30 3852 H 349.39 -0.0226146 2.04487 0
M  V30 3853 H 347.545 -2.24165 3.15957 0
M  V30 3854 H 347.959 -1.19093 5.108 0
M  V30 3855 H 349.433 -2.85722 4.72299 0
M  V30 3856 H 349.91 -3.15692 3.05344 0
M  V30 3857 H 350.516 -1.7111 3.8936 0
M  V30 3858 N 348.832 -1.54138 -0.328536 0
M  V30 3859 C 349.762 -1.86167 -1.40939 0
M  V30 3860 C 350.743 -0.718044 -1.54202 0
M  V30 3861 O 351.928 -0.971328 -1.68163 0
M  V30 3862 C 349.058 -2.08461 -2.77779 0
M  V30 3863 C 348.012 -3.24299 -2.7931 0
M  V30 3864 C 347.338 -3.31955 -4.19178 0
M  V30 3865 C 348.638 -4.62065 -2.43502 0
M  V30 3866 H 350.332 -2.76689 -1.14383 0
M  V30 3867 H 347.878 -1.33132 -0.548806 0
M  V30 3868 H 349.831 -2.29453 -3.53454 0
M  V30 3869 H 348.555 -1.14684 -3.05802 0
M  V30 3870 H 347.214 -3.03187 -2.0609 0
M  V30 3871 H 346.862 -2.35745 -4.44335 0
M  V30 3872 H 346.562 -4.09805 -4.2111 0
M  V30 3873 H 348.086 -3.55175 -4.96672 0
M  V30 3874 H 349.5 -4.8297 -3.08889 0
M  V30 3875 H 347.897 -5.42429 -2.56693 0
M  V30 3876 H 348.967 -4.64652 -1.38659 0
M  V30 3877 N 350.31 0.590341 -1.46126 0
M  V30 3878 C 351.587 1.35029 -1.41515 0
M  V30 3879 C 351.967 2.10888 -0.0946472 0
M  V30 3880 O 351.315 2.08998 0.923693 0
M  V30 3881 C 351.525 2.28269 -2.63997 0
M  V30 3882 C 352.873 2.90338 -3.09821 0
M  V30 3883 O 353.897 2.38585 -2.64492 0
M  V30 3884 O 352.756 3.84321 -3.88535 0
M  V30 3885 H 349.85 0.606317 -0.562413 0
M  V30 3886 H 352.396 0.611994 -1.58281 0
M  V30 3887 H 351.168 1.71591 -3.51671 0
M  V30 3888 H 350.791 3.0945 -2.49652 0
M  V30 3889 N 351.788 1.33704 0.83433 0
M  V30 3890 C 353.018 1.28281 1.6195 0
M  V30 3891 C 353.426 -0.147603 1.88623 0
M  V30 3892 O 352.769 -1.1016 1.47005 0
M  V30 3893 C 352.831 1.99386 2.99141 0
M  V30 3894 C 352.495 3.48681 2.95416 0
M  V30 3895 C 353.492 4.438 2.70809 0
M  V30 3896 C 351.177 3.90925 3.15409 0
M  V30 3897 C 353.171 5.79138 2.66229 0
M  V30 3898 C 350.858 5.26366 3.10454 0
M  V30 3899 C 351.856 6.20284 2.85895 0
M  V30 3900 O 351.544 7.53245 2.80852 0
M  V30 3901 H 351.276 0.44315 0.510484 0
M  V30 3902 H 353.83 1.76711 1.04702 0
M  V30 3903 H 352.06 1.45554 3.58261 0
M  V30 3904 H 353.749 1.87403 3.60049 0
M  V30 3905 H 354.515 4.12485 2.5511 0
M  V30 3906 H 350.394 3.18229 3.33543 0
M  V30 3907 H 353.938 6.52416 2.4698 0
M  V30 3908 H 349.835 5.57304 3.25703 0
M  V30 3909 H 350.603 7.62846 2.96661 0
M  V30 3910 N 353.266 -1.05314 1.17247 0
M  V30 3911 C 354.196 -2.1498 0.911362 0
M  V30 3912 C 355.177 -1.69471 -0.146169 0
M  V30 3913 O 356.362 -1.942 0.003812 0
M  V30 3914 C 353.492 -3.4472 0.422528 0
M  V30 3915 C 352.446 -4.03789 1.4191 0
M  V30 3916 C 351.772 -5.28858 0.788274 0
M  V30 3917 C 353.072 -4.41418 2.7919 0
M  V30 3918 H 354.766 -2.3708 1.82848 0
M  V30 3919 H 352.312 -1.13938 0.880569 0
M  V30 3920 H 354.265 -4.20787 0.227289 0
M  V30 3921 H 352.989 -3.22269 -0.530123 0
M  V30 3922 H 351.648 -3.2979 1.60106 0
M  V30 3923 H 351.296 -5.02709 -0.171173 0
M  V30 3924 H 350.996 -5.69338 1.45353 0
M  V30 3925 H 352.52 -6.07612 0.603282 0
M  V30 3926 H 353.934 -5.08524 2.64719 0
M  V30 3927 H 352.331 -4.92913 3.42282 0
M  V30 3928 H 353.401 -3.51819 3.33693 0
M  V30 3929 N 354.744 -0.972509 -1.24016 0
M  V30 3930 C 356.155 -0.67517 -1.74064 0
M  V30 3931 C 356.506 0.808939 -1.78747 0
M  V30 3932 O 355.631 1.63286 -1.42009 0
M  V30 3933 C 356.226 -1.21889 -3.16115 0
M  V30 3934 C 354.785 -0.971358 -3.6365 0
M  V30 3935 C 353.932 -1.35134 -2.42145 0
M  V30 3936 H 356.883 -1.14727 -1.09651 0
M  V30 3937 H 356.904 -0.587489 -3.75937 0
M  V30 3938 H 356.416 -2.29906 -3.12674 0
M  V30 3939 H 354.517 0.0930686 -3.72484 0
M  V30 3940 H 354.63 -1.62039 -4.50866 0
M  V30 3941 H 352.994 -0.769751 -2.4279 0
M  V30 3942 H 353.777 -2.4411 -2.41381 0
M  V30 3943 N 356.222 1.38976 -0.743202 0
M  V30 3944 C 357.633 1.83123 -0.363732 0
M  V30 3945 C 357.984 1.6205 1.10609 0
M  V30 3946 O 357.109 1.11606 1.854 0
M  V30 3947 C 357.704 3.32439 -0.653408 0
M  V30 3948 C 356.263 3.74974 -0.327338 0
M  V30 3949 C 355.41 2.61878 -0.911875 0
M  V30 3950 H 358.361 1.27852 -0.940191 0
M  V30 3951 H 358.382 3.80432 0.0720031 0
M  V30 3952 H 357.894 3.47745 -1.72323 0
M  V30 3953 H 355.995 3.65252 0.736314 0
M  V30 3954 H 356.108 4.72106 -0.815631 0
M  V30 3955 H 354.472 2.52448 -0.337944 0
M  V30 3956 H 355.255 2.79987 -1.98651 0
M  V30 3957 N 357.7 0.491464 1.49741 0
M  V30 3958 C 358.61 -0.296835 2.32715 0
M  V30 3959 C 359.626 -0.976536 1.44013 0
M  V30 3960 O 360.802 -0.960023 1.77047 0
M  V30 3961 C 357.867 -1.35288 3.19215 0
M  V30 3962 C 356.928 -0.687632 4.23757 0
M  V30 3963 C 356.161 -1.69336 5.06123 0
M  V30 3964 O 356.384 -2.92219 4.89861 0
M  V30 3965 O 355.318 -1.25394 5.88693 0
M  V30 3966 H 359.144 0.382048 3.01287 0
M  V30 3967 H 356.729 0.252953 1.47243 0
M  V30 3968 H 358.611 -1.96411 3.72828 0
M  V30 3969 H 357.286 -2.01487 2.53347 0
M  V30 3970 H 356.193 -0.0369159 3.74082 0
M  V30 3971 H 357.526 -0.0682566 4.92153 0
M  V30 3972 N 359.178 -1.55987 0.224894 0
M  V30 3973 C 360.111 -2.16413 -0.723929 0
M  V30 3974 C 361.089 -1.10952 -1.18863 0
M  V30 3975 O 362.273 -1.39225 -1.27077 0
M  V30 3976 C 359.4 -2.74711 -1.98121 0
M  V30 3977 C 358.446 -3.9303 -1.6562 0
M  V30 3978 S 359.279 -5.29817 -0.778058 0
M  V30 3979 C 360.435 -5.91555 -2.04483 0
M  V30 3980 H 360.668 -2.96555 -0.210347 0
M  V30 3981 H 358.201 -1.54397 0.00955457 0
M  V30 3982 H 360.159 -3.08938 -2.70311 0
M  V30 3983 H 358.82 -1.94555 -2.46591 0
M  V30 3984 H 358.013 -4.32334 -2.59043 0
M  V30 3985 H 357.615 -3.59966 -1.01491 0
M  V30 3986 H 359.907 -6.07732 -2.99446 0
M  V30 3987 H 360.85 -6.87498 -1.69563 0
M  V30 3988 H 361.258 -5.20419 -2.18688 0
M  V30 3989 N 360.656 0.0484629 -1.57525 0
M  V30 3990 C 361.905 0.742065 -1.87553 0
M  V30 3991 C 362.218 1.77545 -0.820802 0
M  V30 3992 O 363.424 2.52027 -1.00967 0
M  V30 3993 C 361.88 1.37081 -3.32771 0
M  V30 3994 C 361.488 0.374786 -4.4643 0
M  V30 3995 C 363.232 2.04542 -3.71972 0
M  V30 3996 C 361.139 1.01077 -5.82698 0
M  V30 3997 H 360.069 0.280903 -0.699721 0
M  V30 3998 H 362.72 -0.00411877 -1.835 0
M  V30 3999 H 361.102 2.16605 -3.31509 0
M  V30 4000 H 362.276 -0.392331 -4.59127 0
M  V30 4001 H 360.591 -0.196653 -4.15935 0
M  V30 4002 H 363.188 2.52943 -4.71088 0
M  V30 4003 H 363.531 2.85515 -3.02964 0
M  V30 4004 H 364.064 1.31819 -3.75325 0
M  V30 4005 H 360.803 0.240878 -6.55057 0
M  V30 4006 H 360.323 1.74819 -5.73758 0
M  V30 4007 H 362.002 1.52383 -6.28799 0
M  V30 4008 N 362.134 1.5431 0.320358 0
M  V30 4009 C 363.044 1.86946 1.41734 0
M  V30 4010 C 364.06 0.761689 1.56443 0
M  V30 4011 O 365.236 1.05629 1.71477 0
M  V30 4012 C 362.301 2.09293 2.76401 0
M  V30 4013 C 361.362 3.33082 2.70841 0
M  V30 4014 C 360.595 3.54353 3.99086 0
M  V30 4015 O 360.818 2.79002 4.97508 0
M  V30 4016 O 359.752 4.47838 4.0215 0
M  V30 4017 H 363.578 2.80232 1.17062 0
M  V30 4018 H 361.163 1.40255 0.514673 0
M  V30 4019 H 363.045 2.25303 3.56113 0
M  V30 4020 H 361.72 1.19194 3.00956 0
M  V30 4021 H 360.627 3.22454 1.89668 0
M  V30 4022 H 361.96 4.23249 2.5124 0
M  V30 4023 N 363.613 -0.582584 1.46437 0
M  V30 4024 C 364.861 -1.33814 1.51453 0
M  V30 4025 C 365.182 -1.94277 0.167792 0
M  V30 4026 O 364.452 -1.78566 -0.805677 0
M  V30 4027 H 363.032 -0.496838 0.557818 0
M  V30 4028 H 365.694 -0.682281 1.82568 0
M  V30 4029 H 364.79 -2.14479 2.26728 0
M  V30 4030 N 365.091 -1.34144 -0.827227 0
M  V30 4031 C 366.507 -1.13732 -1.11969 0
M  V30 4032 C 366.707 0.0640463 -2.01398 0
M  V30 4033 O 365.763 0.740856 -2.41387 0
M  V30 4034 C 367.076 -2.43047 -1.77055 0
M  V30 4035 C 368.624 -2.49063 -1.89569 0
M  V30 4036 C 369.099 -3.78369 -2.58072 0
M  V30 4037 N 370.59 -3.79505 -2.65575 0
M  V30 4038 C 371.325 -4.76274 -3.19297 0
M  V30 4039 N 370.821 -5.83424 -3.73616 0
M  V30 4040 N 372.614 -4.63735 -3.17658 0
M  V30 4041 H 364.765 -2.11126 -0.232296 0
M  V30 4042 H 367.028 -0.933424 -0.165602 0
M  V30 4043 H 366.734 -3.31025 -1.18807 0
M  V30 4044 H 366.608 -2.56066 -2.76966 0
M  V30 4045 H 368.995 -1.61527 -2.46968 0
M  V30 4046 H 369.076 -2.39975 -0.885745 0
M  V30 4047 H 368.72 -4.66293 -2.01329 0
M  V30 4048 H 368.65 -3.84737 -3.59562 0
M  V30 4049 H 371.141 -3.02074 -2.27068 0
M  V30 4050 H 371.454 -6.53282 -4.12846 0
M  V30 4051 H 369.799 -5.87143 -3.71871 0
M  V30 4052 H 372.99 -3.79177 -2.74486 0
M  V30 4053 H 373.163 -5.39318 -3.59221 0
M  V30 4054 N 366.569 1.04691 -1.17803 0
M  V30 4055 C 367.502 2.12068 -0.842765 0
M  V30 4056 C 368.48 1.61455 0.192608 0
M  V30 4057 O 369.664 1.88359 0.072995 0
M  V30 4058 C 366.791 3.37715 -0.258063 0
M  V30 4059 C 365.837 4.07164 -1.26962 0
M  V30 4060 S 366.67 4.55047 -2.82299 0
M  V30 4061 C 367.826 5.83935 -2.25323 0
M  V30 4062 H 368.059 2.4018 -1.75217 0
M  V30 4063 H 365.592 1.17366 -1.00323 0
M  V30 4064 H 367.55 4.10435 0.0727935 0
M  V30 4065 H 366.211 3.0773 0.629357 0
M  V30 4066 H 365.404 4.9746 -0.809263 0
M  V30 4067 H 365.006 3.40533 -1.54639 0
M  V30 4068 H 367.298 6.57552 -1.63192 0
M  V30 4069 H 368.241 6.34725 -3.13894 0
M  V30 4070 H 368.649 5.3874 -1.68582 0
M  V30 4071 N 368.047 0.979072 1.23499 0
M  V30 4072 C 368.997 0.489378 2.22686 0
M  V30 4073 C 369.981 -0.434871 1.54912 0
M  V30 4074 O 371.173 -0.263941 1.75021 0
M  V30 4075 C 368.302 -0.208178 3.42668 0
M  V30 4076 C 367.388 0.735563 4.17672 0
M  V30 4077 N 367.779 1.87763 4.69658 0
M  V30 4078 C 366.077 0.548625 4.42613 0
M  V30 4079 C 366.778 2.46886 5.26709 0
M  V30 4080 N 365.754 1.75287 5.14563 0
M  V30 4081 H 369.556 1.36062 2.60508 0
M  V30 4082 H 367.07 0.83958 1.39014 0
M  V30 4083 H 369.067 -0.576295 4.12898 0
M  V30 4084 H 367.727 -1.07572 3.06363 0
M  V30 4085 H 368.738 2.25885 4.66043 0
M  V30 4086 H 365.415 -0.274006 4.166 0
M  V30 4087 H 366.805 3.43326 5.77561 0
M  V30 4088 N 369.525 -1.3858 0.750561 0
M  V30 4089 C 370.473 -2.32339 0.110162 0
M  V30 4090 C 371.467 -1.53864 -0.708674 0
M  V30 4091 O 372.673 -1.69417 -0.608112 0
M  V30 4092 H 369.048 -0.751812 0.0168275 0
M  V30 4093 H 371.019 -2.83959 0.917053 0
M  V30 4094 C 369.768 -3.39043 -0.771067 0
M  V30 4095 H 369.091 -3.99517 -0.150374 0
M  V30 4096 H 370.531 -4.07061 -1.1865 0
M  V30 4097 C 368.99 -2.77365 -1.91234 0
M  V30 4098 O 369.52 -2.66434 -3.00626 0
M  V30 4099 N 367.726 -2.35219 -1.70646 0
M  V30 4100 H 367.273 -2.4431 -0.81673 0
M  V30 4101 H 367.231 -1.94294 -2.47178 0
M  V30 4102 N 371.003 -0.499398 -1.49478 0
M  V30 4103 C 371.913 0.284489 -2.32869 0
M  V30 4104 C 372.929 0.968885 -1.44529 0
M  V30 4105 O 374.105 0.95062 -1.77553 0
M  V30 4106 C 371.17 1.33594 -3.19928 0
M  V30 4107 C 370.231 0.665149 -4.24116 0
M  V30 4108 C 369.464 1.6665 -5.07014 0
M  V30 4109 O 369.687 2.89618 -4.91404 0
M  V30 4110 O 368.621 1.22271 -5.8935 0
M  V30 4111 H 372.447 -0.39802 -3.01081 0
M  V30 4112 H 370.032 -0.260758 -1.47107 0
M  V30 4113 H 371.914 1.94431 -3.73864 0
M  V30 4114 H 370.589 2.0014 -2.54412 0
M  V30 4115 H 369.496 0.0170769 -3.74096 0
M  V30 4116 H 370.829 0.0421555 -4.92182 0
M  V30 4117 N 372.481 1.55866 -0.233164 0
M  V30 4118 C 373.428 2.20796 0.67215 0
M  V30 4119 C 374.398 1.16731 1.18166 0
M  V30 4120 O 375.583 1.45129 1.23864 0
M  V30 4121 C 372.723 2.90072 1.86955 0
M  V30 4122 C 371.836 4.08759 1.39786 0
M  V30 4123 C 370.971 4.65787 2.55374 0
M  V30 4124 C 370.01 5.76752 2.04998 0
M  V30 4125 N 369.147 6.28021 3.13901 0
M  V30 4126 H 373.987 2.9779 0.111749 0
M  V30 4127 H 371.524 1.47036 0.0434007 0
M  V30 4128 H 373.482 3.28428 2.57276 0
M  V30 4129 H 372.112 2.15575 2.40265 0
M  V30 4130 H 371.164 3.7581 0.589173 0
M  V30 4131 H 372.476 4.88906 0.98856 0
M  V30 4132 H 371.63 5.06646 3.33758 0
M  V30 4133 H 370.369 3.84828 2.99598 0
M  V30 4134 H 369.374 5.35383 1.25079 0
M  V30 4135 H 370.599 6.59553 1.61759 0
M  V30 4136 H 368.545 5.49971 3.57586 0
M  V30 4137 H 368.462 7.03323 2.7726 0
M  V30 4138 H 369.73 6.73538 3.92386 0
M  V30 4139 N 373.959 -0.0401083 1.57549 0
M  V30 4140 C 375.205 -0.734211 1.89043 0
M  V30 4141 C 375.538 -1.75591 0.829535 0
M  V30 4142 O 374.813 -1.93868 -0.156706 0
M  V30 4143 C 375.096 -1.41374 3.31188 0
M  V30 4144 C 374.949 -0.406299 4.47961 0
M  V30 4145 C 376.268 -2.35061 3.72068 0
M  V30 4146 H 373.387 -0.265447 0.687537 0
M  V30 4147 H 376.029 0.00294087 1.9 0
M  V30 4148 H 374.179 -2.04206 3.30503 0
M  V30 4149 H 375.851 0.219255 4.60779 0
M  V30 4150 H 374.094 0.275485 4.32924 0
M  V30 4151 H 374.765 -0.920022 5.44279 0
M  V30 4152 H 377.241 -1.82282 3.74049 0
M  V30 4153 H 376.117 -2.79593 4.72355 0
M  V30 4154 H 376.378 -3.21258 3.0372 0
M  V30 4155 N 375.437 -1.54477 -0.31217 0
M  V30 4156 C 376.714 -1.63891 -1.06767 0
M  V30 4157 C 377.094 -0.480028 -2.0557 0
M  V30 4158 O 376.442 0.524487 -2.22399 0
M  V30 4159 C 376.652 -3.01402 -1.75948 0
M  V30 4160 C 378 -3.57838 -2.28554 0
M  V30 4161 O 379.024 -3.03782 -1.85998 0
M  V30 4162 O 377.883 -4.52462 -3.06497 0
M  V30 4163 H 374.977 -0.664125 -0.492816 0
M  V30 4164 H 377.523 -1.66823 -0.311149 0
M  V30 4165 H 376.295 -3.77187 -1.04144 0
M  V30 4166 H 375.918 -3.02199 -2.58383 0
M  V30 4167 N 376.915 0.57481 -1.46744 0
M  V30 4168 C 377.845 1.69337 -1.60771 0
M  V30 4169 C 378.826 1.63825 -0.457736 0
M  V30 4170 O 380.011 1.8172 -0.684947 0
M  V30 4171 C 377.141 3.0798 -1.60517 0
M  V30 4172 C 376.095 3.28327 -2.74564 0
M  V30 4173 C 375.421 4.67578 -2.59373 0
M  V30 4174 C 376.721 3.15398 -4.16319 0
M  V30 4175 H 378.415 1.57853 -2.54407 0
M  V30 4176 H 375.961 0.75799 -1.22436 0
M  V30 4177 H 377.914 3.86061 -1.68923 0
M  V30 4178 H 376.638 3.20381 -0.634305 0
M  V30 4179 H 375.297 2.52649 -2.65639 0
M  V30 4180 H 374.945 4.76755 -1.60353 0
M  V30 4181 H 374.645 4.82144 -3.35873 0
M  V30 4182 H 376.169 5.47817 -2.69682 0
M  V30 4183 H 377.583 3.83315 -4.26313 0
M  V30 4184 H 375.98 3.41482 -4.93468 0
M  V30 4185 H 377.05 2.12372 -4.3592 0
M  V30 4186 N 378.394 1.34581 0.820102 0
M  V30 4187 C 379.64 1.28294 1.57836 0
M  V30 4188 C 379.995 -0.145099 1.91852 0
M  V30 4189 O 379.288 -1.09209 1.57429 0
M  V30 4190 C 379.482 2.10997 2.8847 0
M  V30 4191 C 379.311 3.61698 2.67216 0
M  V30 4192 C 378.081 4.3097 2.63805 0
M  V30 4193 C 380.279 4.55638 2.38534 0
M  V30 4194 N 378.261 5.67502 2.34126 0
M  V30 4195 C 379.632 5.80194 2.18574 0
M  V30 4196 C 381.687 4.44523 2.24285 0
M  V30 4197 C 380.39 6.94886 1.8581 0
M  V30 4198 C 382.416 5.5905 1.92916 0
M  V30 4199 C 381.778 6.82627 1.73782 0
M  V30 4200 H 377.877 0.524697 0.579842 0
M  V30 4201 H 380.461 1.69323 0.961139 0
M  V30 4202 H 378.632 1.7226 3.48111 0
M  V30 4203 H 380.364 1.96333 3.53886 0
M  V30 4204 H 377.119 3.83438 2.77978 0
M  V30 4205 H 377.543 6.39525 2.22118 0
M  V30 4206 H 382.185 3.49599 2.37782 0
M  V30 4207 H 379.903 7.89789 1.7105 0
M  V30 4208 H 383.489 5.52396 1.82619 0
M  V30 4209 H 382.369 7.69748 1.49861 0
M  V30 4210 N 379.872 -1.04064 1.18357 0
M  V30 4211 C 381.112 -1.78829 0.989921 0
M  V30 4212 C 381.476 -1.86106 -0.472095 0
M  V30 4213 O 382.677 -2.57076 -0.785187 0
M  V30 4214 C 380.948 -3.1823 1.6268 0
M  V30 4215 S 382.507 -4.09332 1.58091 0
M  V30 4216 H 379.325 -0.615754 0.355482 0
M  V30 4217 H 381.927 -1.24778 1.50501 0
M  V30 4218 H 380.631 -3.10543 2.68311 0
M  V30 4219 H 380.162 -3.77357 1.112 0
M  V30 4220 H 382.177 -4.92598 0.596817 0
M  V30 4221 N 381.35 -0.985608 -1.22978 0
M  V30 4222 C 382.599 -0.652881 -1.90841 0
M  V30 4223 C 382.912 0.817842 -1.77681 0
M  V30 4224 O 384.118 1.26185 -2.40395 0
M  V30 4225 C 382.574 -1.11717 -3.42122 0
M  V30 4226 C 382.182 -2.6126 -3.63933 0
M  V30 4227 C 383.926 -0.85843 -4.1573 0
M  V30 4228 C 381.833 -3.0133 -5.08876 0
M  V30 4229 H 380.763 -0.240491 -0.714619 0
M  V30 4230 H 383.414 -1.1942 -1.39324 0
M  V30 4231 H 381.796 -0.504027 -3.92779 0
M  V30 4232 H 382.97 -3.27858 -3.23799 0
M  V30 4233 H 381.285 -2.84937 -3.03644 0
M  V30 4234 H 383.882 -1.13359 -5.22546 0
M  V30 4235 H 384.225 0.205461 -4.15793 0
M  V30 4236 H 384.758 -1.43341 -3.71077 0
M  V30 4237 H 381.497 -4.06864 -5.13947 0
M  V30 4238 H 381.017 -2.3943 -5.49939 0
M  V30 4239 H 382.696 -2.92224 -5.77247 0
M  V30 4240 N 382.828 1.3818 -0.7579 0
M  V30 4241 C 384.076 1.99624 -0.315361 0
M  V30 4242 C 384.397 1.60464 1.10799 0
M  V30 4243 O 383.667 0.863507 1.75842 0
M  V30 4244 H 382.247 0.73831 -0.113611 0
M  V30 4245 H 384.909 1.68878 -0.972952 0
M  V30 4246 H 384.005 3.09754 -0.381931 0
M  V30 4247 N 384.306 0.507319 1.49211 0
M  V30 4248 C 385.552 -0.0350047 2.0277 0
M  V30 4249 C 385.885 -1.3606 1.38569 0
M  V30 4250 O 385.16 -1.87321 0.523542 0
M  V30 4251 C 385.443 -0.180916 3.59645 0
M  V30 4252 C 385.296 1.16825 4.34364 0
M  V30 4253 C 386.615 -0.918558 4.30407 0
M  V30 4254 H 383.734 -0.0112473 0.736914 0
M  V30 4255 H 386.376 0.659956 1.7817 0
M  V30 4256 H 384.526 -0.772826 3.80736 0
M  V30 4257 H 386.198 1.79952 4.24753 0
M  V30 4258 H 384.441 1.75594 3.96673 0
M  V30 4259 H 385.112 1.01939 5.42506 0
M  V30 4260 H 387.588 -0.41649 4.1401 0
M  V30 4261 H 386.464 -0.989505 5.39907 0
M  V30 4262 H 386.725 -1.96373 3.96093 0
M  V30 4263 N 385.784 -1.5574 0.241426 0
M  V30 4264 C 386.714 -2.24133 -0.654722 0
M  V30 4265 C 387.695 -1.21974 -1.1856 0
M  V30 4266 O 388.88 -1.50612 -1.22595 0
M  V30 4267 C 386.01 -2.93659 -1.85423 0
M  V30 4268 C 384.964 -4.0246 -1.45636 0
M  V30 4269 C 384.29 -4.59383 -2.73626 0
M  V30 4270 C 385.59 -5.18468 -0.631506 0
M  V30 4271 H 387.284 -2.99281 -0.0844353 0
M  V30 4272 H 384.83 -1.43947 -0.0391707 0
M  V30 4273 H 386.783 -3.40203 -2.48676 0
M  V30 4274 H 385.507 -2.15991 -2.44981 0
M  V30 4275 H 384.166 -3.56676 -0.847202 0
M  V30 4276 H 383.814 -3.78422 -3.3137 0
M  V30 4277 H 383.514 -5.32826 -2.4773 0
M  V30 4278 H 385.038 -5.08658 -3.37786 0
M  V30 4279 H 386.452 -5.61272 -1.1682 0
M  V30 4280 H 384.849 -5.98266 -0.468831 0
M  V30 4281 H 385.919 -4.8358 0.357506 0
M  V30 4282 N 387.262 0.0317525 -1.57568 0
M  V30 4283 C 388.502 0.727979 -1.90997 0
M  V30 4284 C 388.866 1.72664 -0.839708 0
M  V30 4285 O 390.067 2.47092 -1.05825 0
M  V30 4286 C 388.338 1.38239 -3.29583 0
M  V30 4287 S 389.897 2.10814 -3.84841 0
M  V30 4288 H 386.715 0.241226 -0.668828 0
M  V30 4289 H 389.317 -0.0173037 -1.95492 0
M  V30 4290 H 388.021 0.642288 -4.05343 0
M  V30 4291 H 387.552 2.16628 -3.28384 0
M  V30 4292 H 389.567 3.3792 -3.63352 0
M  V30 4293 N 388.74 1.54641 0.303973 0
M  V30 4294 C 389.97 1.77511 1.05705 0
M  V30 4295 C 390.378 0.533228 1.81531 0
M  V30 4296 O 389.721 -0.506423 1.76582 0
M  V30 4297 C 389.783 2.92779 2.08617 0
M  V30 4298 C 389.447 4.30977 1.52013 0
M  V30 4299 C 390.444 5.11115 0.9517 0
M  V30 4300 C 388.129 4.77571 1.55665 0
M  V30 4301 C 390.123 6.35966 0.427327 0
M  V30 4302 C 387.81 6.02384 1.02841 0
M  V30 4303 C 388.808 6.81417 0.464713 0
M  V30 4304 O 388.496 8.03881 -0.0555283 0
M  V30 4305 H 388.228 0.59579 0.319391 0
M  V30 4306 H 390.782 2.02401 0.349712 0
M  V30 4307 H 389.012 2.63506 2.83022 0
M  V30 4308 H 390.701 3.03252 2.69802 0
M  V30 4309 H 391.467 4.76264 0.916407 0
M  V30 4310 H 387.346 4.16085 1.9848 0
M  V30 4311 H 390.89 6.97599 -0.0133062 0
M  V30 4312 H 386.787 6.36723 1.06084 0
M  V30 4313 H 387.555 8.18479 0.0580522 0
M  V30 4314 N 390.218 -0.567019 1.47046 0
M  V30 4315 C 391.128 -1.70247 1.6141 0
M  V30 4316 C 392.144 -1.66746 0.497157 0
M  V30 4317 O 393.32 -1.86371 0.763389 0
M  V30 4318 C 390.385 -3.06756 1.61561 0
M  V30 4319 C 389.446 -3.21399 2.84607 0
M  V30 4320 C 388.679 -4.51396 2.84741 0
M  V30 4321 O 388.902 -5.36255 1.94388 0
M  V30 4322 O 387.836 -4.69621 3.76483 0
M  V30 4323 H 391.662 -1.61073 2.57467 0
M  V30 4324 H 389.247 -0.735894 1.30019 0
M  V30 4325 H 391.129 -3.8801 1.64396 0
M  V30 4326 H 389.804 -3.16333 0.686684 0
M  V30 4327 H 388.711 -2.39579 2.8732 0
M  V30 4328 H 390.044 -3.16721 3.76761 0
M  V30 4329 N 391.696 -1.35014 -0.812953 0
M  V30 4330 C 392.626 -1.30069 -1.93919 0
M  V30 4331 C 393.607 -0.176275 -1.69184 0
M  V30 4332 O 394.792 -0.370227 -1.90638 0
M  V30 4333 C 391.922 -1.06547 -3.30552 0
M  V30 4334 C 390.876 -2.15561 -3.69753 0
M  V30 4335 C 390.202 -1.77214 -5.04479 0
M  V30 4336 C 391.502 -3.57476 -3.808 0
M  V30 4337 H 393.196 -2.24303 -1.98314 0
M  V30 4338 H 390.742 -1.07977 -0.952736 0
M  V30 4339 H 392.695 -1.01729 -4.08937 0
M  V30 4340 H 391.419 -0.0875719 -3.26483 0
M  V30 4341 H 390.078 -2.19466 -2.9365 0
M  V30 4342 H 389.726 -0.780589 -4.96906 0
M  V30 4343 H 389.426 -2.50184 -5.31678 0
M  V30 4344 H 390.95 -1.7391 -5.8531 0
M  V30 4345 H 392.364 -3.55929 -4.4943 0
M  V30 4346 H 390.761 -4.29152 -4.19462 0
M  V30 4347 H 391.831 -3.94091 -2.82525 0
M  V30 4348 N 393.175 1.03435 -1.18907 0
M  V30 4349 C 394.105 2.13503 -0.945448 0
M  V30 4350 C 395.086 1.69682 0.119189 0
M  V30 4351 O 396.271 1.94169 -0.034707 0
M  V30 4352 C 393.401 3.44004 -0.477316 0
M  V30 4353 C 392.355 4.0148 -1.48316 0
M  V30 4354 C 391.681 5.27537 -0.872311 0
M  V30 4355 C 392.981 4.36921 -2.86177 0
M  V30 4356 H 394.675 2.34141 -1.86597 0
M  V30 4357 H 392.221 1.12523 -0.898584 0
M  V30 4358 H 394.174 4.20372 -0.294204 0
M  V30 4359 H 392.898 3.23072 0.478786 0
M  V30 4360 H 391.557 3.27201 -1.65332 0
M  V30 4361 H 391.205 5.02917 0.0911752 0
M  V30 4362 H 390.905 5.66954 -1.54393 0
M  V30 4363 H 392.429 6.06576 -0.699871 0
M  V30 4364 H 393.843 5.04248 -2.72776 0
M  V30 4365 H 392.24 4.87405 -3.50081 0
M  V30 4366 H 393.31 3.46466 -3.39248 0
M  V30 4367 N 394.653 0.992116 1.22453 0
M  V30 4368 C 395.899 0.668523 1.91464 0
M  V30 4369 C 396.232 -0.797313 1.77078 0
M  V30 4370 O 395.507 -1.5765 1.13916 0
M  V30 4371 C 395.79 1.07424 3.43703 0
M  V30 4372 C 395.643 2.59857 3.67143 0
M  V30 4373 C 396.962 0.626891 4.35612 0
M  V30 4374 H 394.081 0.244341 0.695318 0
M  V30 4375 H 396.723 1.2355 1.44345 0
M  V30 4376 H 394.873 0.591816 3.83966 0
M  V30 4377 H 396.545 3.15764 3.3629 0
M  V30 4378 H 394.788 3.01961 3.11451 0
M  V30 4379 H 395.459 2.83296 4.73759 0
M  V30 4380 H 397.935 1.04125 4.02861 0
M  V30 4381 H 396.811 0.939076 5.40807 0
M  V30 4382 H 397.072 -0.472457 4.39568 0
M  V30 4383 N 396.131 -1.37776 0.765217 0
M  V30 4384 C 397.379 -1.99454 0.325943 0
M  V30 4385 C 397.7 -1.61049 -1.09947 0
M  V30 4386 O 396.97 -0.872821 -1.75381 0
M  V30 4387 H 395.55 -0.737697 0.117525 0
M  V30 4388 H 398.212 -1.68359 0.981895 0
M  V30 4389 H 397.308 -3.09547 0.398353 0
M  V30 4390 N 397.609 -0.515225 -1.4894 0
M  V30 4391 C 398.557 0.269115 -2.31038 0
M  V30 4392 C 399.551 0.949443 -1.40292 0
M  V30 4393 O 400.757 0.87551 -1.57273 0
M  V30 4394 H 397.132 0.10565 -0.744542 0
M  V30 4395 H 399.103 -0.443096 -2.95092 0
M  V30 4396 C 397.852 1.31213 -3.21991 0
M  V30 4397 H 397.175 0.798034 -3.91754 0
M  V30 4398 H 398.615 1.83263 -3.82349 0
M  V30 4399 C 397.074 2.33791 -2.42576 0
M  V30 4400 O 397.604 3.3995 -2.14003 0
M  V30 4401 N 395.81 2.06625 -2.0434 0
M  V30 4402 H 395.357 1.20314 -2.27777 0
M  V30 4403 H 395.315 2.75483 -1.51514 0
M  V30 4404 N 399.087 1.5561 -0.249682 0
M  V30 4405 C 400.498 1.84979 0.252949 0
M  V30 4406 C 400.849 1.17153 1.57384 0
M  V30 4407 O 399.974 0.450884 2.11651 0
M  V30 4408 C 400.569 3.35584 0.465732 0
M  V30 4409 C 399.128 3.65169 0.912624 0
M  V30 4410 C 398.275 2.77299 -0.00859085 0
M  V30 4411 H 401.226 1.51513 -0.47217 0
M  V30 4412 H 401.247 3.57313 1.30795 0
M  V30 4413 H 400.759 3.8492 -0.49579 0
M  V30 4414 H 398.86 3.21312 1.88652 0
M  V30 4415 H 398.973 4.72912 0.767559 0
M  V30 4416 H 397.337 2.49678 0.50327 0
M  V30 4417 H 398.12 3.29442 -0.965537 0
M  V30 4418 N 400.565 -0.0233959 1.57583 0
M  V30 4419 C 401.976 -0.56927 1.77809 0
M  V30 4420 C 402.327 -1.75284 0.881472 0
M  V30 4421 O 401.452 -2.1626 0.0777805 0
M  V30 4422 C 402.047 -1.03949 3.22459 0
M  V30 4423 C 400.606 -1.53084 3.43864 0
M  V30 4424 C 399.753 -0.471454 2.73263 0
M  V30 4425 H 402.704 0.202825 1.57399 0
M  V30 4426 H 402.725 -1.90661 3.29285 0
M  V30 4427 H 402.237 -0.177865 3.87692 0
M  V30 4428 H 400.338 -2.41414 2.83814 0
M  V30 4429 H 400.451 -1.57443 4.52491 0
M  V30 4430 H 398.815 -0.927788 2.37201 0
M  V30 4431 H 399.598 0.380808 3.41181 0
M  V30 4432 N 402.043 -1.548 -0.295768 0
M  V30 4433 C 403.29 -1.74329 -1.03032 0
M  V30 4434 C 403.618 -0.531915 -1.87085 0
M  V30 4435 O 402.873 0.486052 -1.89568 0
M  V30 4436 C 403.172 -2.98797 -1.961 0
M  V30 4437 C 402.838 -4.32356 -1.2798 0
M  V30 4438 C 401.5 -4.68661 -1.09135 0
M  V30 4439 C 403.852 -5.15128 -0.793243 0
M  V30 4440 C 401.18 -5.85312 -0.403269 0
M  V30 4441 C 403.532 -6.32488 -0.118854 0
M  V30 4442 C 402.196 -6.6745 0.0815043 0
M  V30 4443 H 401.466 -0.637916 -0.37702 0
M  V30 4444 H 404.113 -1.8906 -0.304696 0
M  V30 4445 H 402.418 -2.78869 -2.75207 0
M  V30 4446 H 404.115 -3.11102 -2.53015 0
M  V30 4447 H 400.705 -4.03808 -1.43655 0
M  V30 4448 H 404.889 -4.87575 -0.92653 0
M  V30 4449 H 400.145 -6.1094 -0.237098 0
M  V30 4450 H 404.319 -6.95892 0.266035 0
M  V30 4451 H 401.946 -7.57695 0.616685 0
M  V30 4452 N 403.521 0.559213 -1.47345 0
M  V30 4453 C 404.431 1.69388 -1.62311 0
M  V30 4454 C 405.447 1.6648 -0.505993 0
M  V30 4455 O 406.623 1.85964 -0.773262 0
M  V30 4456 C 403.688 3.05894 -1.63185 0
M  V30 4457 C 402.749 3.19885 -2.86307 0
M  V30 4458 C 401.982 4.49879 -2.87131 0
M  V30 4459 O 402.205 5.35217 -1.97229 0
M  V30 4460 O 401.139 4.67618 -3.78968 0
M  V30 4461 H 404.965 1.59706 -2.58317 0
M  V30 4462 H 402.55 0.728989 -1.30407 0
M  V30 4463 H 404.432 3.87133 -1.66451 0
M  V30 4464 H 403.107 3.15964 -0.70345 0
M  V30 4465 H 402.014 2.38052 -2.88587 0
M  V30 4466 H 403.347 3.14718 -3.78435 0
M  V30 4467 N 404.999 1.35443 0.805782 0
M  V30 4468 C 406.224 1.32037 1.59941 0
M  V30 4469 C 406.649 -0.0994215 1.87837 0
M  V30 4470 O 406.007 -1.06648 1.46615 0
M  V30 4471 C 406.055 2.13354 2.90711 0
M  V30 4472 O 405.159 1.5148 3.83572 0
M  V30 4473 H 404.5 0.452666 0.485787 0
M  V30 4474 H 407.03 1.78496 1.00002 0
M  V30 4475 H 407.04 2.25338 3.40128 0
M  V30 4476 H 405.715 3.16572 2.69732 0
M  V30 4477 H 404.292 1.4834 3.42125 0
M  V30 4478 N 406.477 -1.02803 1.19454 0
M  V30 4479 C 407.44 -2.09264 0.934955 0
M  V30 4480 C 408.44 -1.60576 -0.0849015 0
M  V30 4481 O 409.63 -1.73554 0.149933 0
M  V30 4482 C 406.762 -3.38482 0.40531 0
M  V30 4483 H 407.955 -2.33726 1.87916 0
M  V30 4484 H 405.508 -1.19426 1.00832 0
M  V30 4485 H 406.243 -3.19689 -0.544899 0
M  V30 4486 H 406.028 -3.75142 1.14065 0
M  V30 4487 H 407.518 -4.16894 0.242806 0
M  V30 4488 N 407.956 -0.998596 -1.21925 0
M  V30 4489 C 409.181 -0.696015 -1.95372 0
M  V30 4490 C 409.606 0.733826 -1.73195 0
M  V30 4491 O 408.964 1.50242 -1.01474 0
M  V30 4492 C 409.012 -1.01466 -3.4603 0
M  V30 4493 O 408.116 -0.116415 -4.12236 0
M  V30 4494 H 407.457 -0.259938 -0.611006 0
M  V30 4495 H 409.987 -1.33711 -1.54863 0
M  V30 4496 H 409.997 -0.958855 -3.96573 0
M  V30 4497 H 408.672 -2.05653 -3.61497 0
M  V30 4498 H 407.249 -0.228193 -3.72201 0
M  V30 4499 N 409.434 1.37368 -0.772513 0
M  V30 4500 C 410.384 2.27613 -0.132823 0
M  V30 4501 C 411.368 1.46138 0.673247 0
M  V30 4502 O 412.56 1.68686 0.536095 0
M  V30 4503 C 409.689 3.35122 0.744864 0
M  V30 4504 C 408.775 4.24044 -0.0690771 0
M  V30 4505 N 409.166 4.93355 -1.1151 0
M  V30 4506 C 407.464 4.45731 0.154782 0
M  V30 4507 C 408.165 5.59 -1.60917 0
M  V30 4508 N 407.141 5.35737 -0.921222 0
M  V30 4509 H 410.943 2.78675 -0.933681 0
M  V30 4510 H 408.457 1.50494 -0.610342 0
M  V30 4511 H 410.454 3.98683 1.21892 0
M  V30 4512 H 409.114 2.85616 1.54446 0
M  V30 4513 H 410.125 4.95785 -1.49726 0
M  V30 4514 H 406.802 4.07096 0.926224 0
M  V30 4515 H 408.192 6.24395 -2.48153 0
M  V30 4516 N 410.912 0.523116 1.48665 0
M  V30 4517 C 411.86 -0.256859 2.31177 0
M  V30 4518 C 412.854 -0.94199 1.40794 0
M  V30 4519 O 414.06 -0.867157 1.57735 0
M  V30 4520 H 410.435 -0.1017 0.745091 0
M  V30 4521 H 412.406 0.458739 2.94853 0
M  V30 4522 C 411.155 -1.29503 3.22683 0
M  V30 4523 H 410.478 -0.777248 3.92172 0
M  V30 4524 H 411.918 -1.81233 3.83315 0
M  V30 4525 C 410.377 -2.32501 2.43813 0
M  V30 4526 O 410.907 -3.3881 2.15803 0
M  V30 4527 N 409.113 -2.05538 2.05432 0
M  V30 4528 H 408.66 -1.19104 2.28412 0
M  V30 4529 H 408.618 -2.74676 1.52973 0
M  V30 4530 N 412.39 -1.55475 0.257931 0
M  V30 4531 C 413.3 -2.2549 -0.647425 0
M  V30 4532 C 414.316 -1.2748 -1.18427 0
M  V30 4533 O 415.492 -1.6038 -1.2182 0
M  V30 4534 C 412.557 -2.94916 -1.82278 0
M  V30 4535 C 411.618 -4.08363 -1.32432 0
M  V30 4536 C 410.851 -4.74469 -2.44366 0
M  V30 4537 O 411.074 -4.39701 -3.63344 0
M  V30 4538 O 410.008 -5.62763 -2.13497 0
M  V30 4539 H 413.834 -3.03593 -0.0807707 0
M  V30 4540 H 411.419 -1.49377 0.0259962 0
M  V30 4541 H 413.301 -3.38606 -2.50846 0
M  V30 4542 H 411.976 -2.19744 -2.37685 0
M  V30 4543 H 410.883 -3.69166 -0.605605 0
M  V30 4544 H 412.216 -4.85385 -0.816211 0
M  V30 4545 N 413.868 0.0150385 -1.57593 0
M  V30 4546 C 415.096 0.714395 -1.94175 0
M  V30 4547 C 415.511 1.68135 -0.858841 0
M  V30 4548 O 414.868 1.81766 0.163567 0
M  V30 4549 C 414.919 1.45933 -3.30735 0
M  V30 4550 O 414.64 0.531167 -4.34868 0
M  V30 4551 C 416.141 2.25456 -3.81686 0
M  V30 4552 H 413.361 0.199923 -0.640525 0
M  V30 4553 H 415.905 -0.0316096 -2.04476 0
M  V30 4554 H 414.06 2.15709 -3.21789 0
M  V30 4555 H 414.474 1.05509 -5.13778 0
M  V30 4556 H 415.948 2.731 -4.79709 0
M  V30 4557 H 416.425 3.07485 -3.13607 0
M  V30 4558 H 417.031 1.60727 -3.9376 0
M  V30 4559 N 415.346 1.54954 0.287554 0
M  V30 4560 C 416.576 1.78622 1.03816 0
M  V30 4561 C 416.984 0.552451 1.80955 0
M  V30 4562 O 416.327 -0.487665 1.77109 0
M  V30 4563 C 416.389 2.94975 2.055 0
M  V30 4564 C 416.053 4.32565 1.47433 0
M  V30 4565 C 417.05 5.12096 0.897436 0
M  V30 4566 C 414.735 4.79195 1.50591 0
M  V30 4567 C 416.729 6.36383 0.359851 0
M  V30 4568 C 414.416 6.03441 0.964459 0
M  V30 4569 C 415.414 6.81872 0.392413 0
M  V30 4570 O 415.102 8.03777 -0.140788 0
M  V30 4571 H 414.834 0.599144 0.313053 0
M  V30 4572 H 417.388 2.02761 0.328225 0
M  V30 4573 H 415.618 2.66493 2.80211 0
M  V30 4574 H 417.307 3.06097 2.6657 0
M  V30 4575 H 418.073 4.77209 0.865841 0
M  V30 4576 H 413.952 4.18167 1.94055 0
M  V30 4577 H 417.496 6.97545 -0.0872951 0
M  V30 4578 H 413.393 6.37813 0.993246 0
M  V30 4579 H 414.161 8.18495 -0.0287617 0
M  V30 4580 N 416.824 -0.551391 1.4764 0
M  V30 4581 C 418.24 -0.877887 1.33287 0
M  V30 4582 C 418.44 -1.98817 0.327721 0
M  V30 4583 O 417.496 -2.51171 -0.258695 0
M  V30 4584 C 418.809 -1.26563 2.72768 0
M  V30 4585 C 420.357 -1.37673 2.81097 0
M  V30 4586 C 420.832 -1.79799 4.21232 0
M  V30 4587 N 422.323 -1.8694 4.23802 0
M  V30 4588 C 423.058 -2.20876 5.29151 0
M  V30 4589 N 422.554 -2.53386 6.448 0
M  V30 4590 N 424.347 -2.217 5.16532 0
M  V30 4591 H 416.498 0.18153 2.11623 0
M  V30 4592 H 418.761 0.0185514 0.947818 0
M  V30 4593 H 418.467 -0.523591 3.47781 0
M  V30 4594 H 418.341 -2.22052 3.04915 0
M  V30 4595 H 420.728 -2.10956 2.06353 0
M  V30 4596 H 420.809 -0.40357 2.52596 0
M  V30 4597 H 420.453 -1.07083 4.96483 0
M  V30 4598 H 420.383 -2.78128 4.4716 0
M  V30 4599 H 422.874 -1.64179 3.40373 0
M  V30 4600 H 423.187 -2.78325 7.20941 0
M  V30 4601 H 421.532 -2.50953 6.48111 0
M  V30 4602 H 424.723 -1.95745 4.25207 0
M  V30 4603 H 424.896 -2.47818 5.98741 0
M  V30 4604 N 418.302 -1.35869 -0.798587 0
M  V30 4605 C 419.718 -1.16082 -1.09532 0
M  V30 4606 C 419.918 0.0213124 -2.01489 0
M  V30 4607 O 418.974 0.689488 -2.42904 0
M  V30 4608 C 420.287 -2.46748 -1.7186 0
M  V30 4609 C 421.835 -2.53028 -1.84244 0
M  V30 4610 C 422.31 -3.83758 -2.49988 0
M  V30 4611 N 423.801 -3.85053 -2.57465 0
M  V30 4612 C 424.536 -4.8294 -3.09122 0
M  V30 4613 N 424.032 -5.91217 -3.61157 0
M  V30 4614 N 425.825 -4.70369 -3.0775 0
M  V30 4615 H 417.976 -2.11571 -0.187461 0
M  V30 4616 H 420.239 -0.936726 -0.145765 0
M  V30 4617 H 419.945 -3.33471 -1.11759 0
M  V30 4618 H 419.819 -2.61883 -2.71472 0
M  V30 4619 H 422.206 -1.66729 -2.43486 0
M  V30 4620 H 422.287 -2.418 -0.834643 0
M  V30 4621 H 421.931 -4.70459 -1.91393 0
M  V30 4622 H 421.861 -3.92278 -3.5132 0
M  V30 4623 H 424.352 -3.06822 -2.20609 0
M  V30 4624 H 424.665 -6.61892 -3.98896 0
M  V30 4625 H 423.01 -5.94899 -3.59333 0
M  V30 4626 H 426.201 -3.84914 -2.66381 0
M  V30 4627 H 426.374 -5.46816 -3.47701 0
M  V30 4628 N 419.78 1.02168 -1.19998 0
M  V30 4629 C 421.029 1.75091 -1.0013 0
M  V30 4630 C 421.342 1.89923 0.467835 0
M  V30 4631 O 422.548 2.59888 0.785515 0
M  V30 4632 C 421.004 3.14892 -1.74273 0
M  V30 4633 C 420.612 3.0809 -3.25245 0
M  V30 4634 C 422.356 3.9206 -1.62755 0
M  V30 4635 C 420.263 4.42867 -3.91948 0
M  V30 4636 H 419.193 0.656394 -0.37103 0
M  V30 4637 H 421.844 1.14284 -1.43567 0
M  V30 4638 H 420.226 3.7621 -1.2362 0
M  V30 4639 H 421.4 2.5611 -3.83072 0
M  V30 4640 H 419.715 2.44416 -3.3712 0
M  V30 4641 H 422.312 4.91764 -2.09934 0
M  V30 4642 H 422.655 4.12199 -0.582894 0
M  V30 4643 H 423.188 3.37359 -2.10793 0
M  V30 4644 H 419.927 4.27931 -4.96543 0
M  V30 4645 H 419.447 4.94874 -3.3891 0
M  V30 4646 H 421.126 5.11728 -3.95909 0
M  V30 4647 N 421.258 1.00505 1.21394 0
M  V30 4648 C 422.504 0.688793 1.90745 0
M  V30 4649 C 422.837 -0.778486 1.77914 0
M  V30 4650 O 422.112 -1.56433 1.15581 0
M  V30 4651 C 422.395 1.11063 3.42545 0
M  V30 4652 C 422.248 2.63737 3.64367 0
M  V30 4653 C 423.567 0.673059 4.34923 0
M  V30 4654 H 420.686 0.251702 0.692687 0
M  V30 4655 H 423.328 1.25074 1.43026 0
M  V30 4656 H 421.478 0.632508 3.83317 0
M  V30 4657 H 423.15 3.19313 3.32922 0
M  V30 4658 H 421.393 3.05248 3.08231 0
M  V30 4659 H 422.064 2.88305 4.70727 0
M  V30 4660 H 424.54 1.08392 4.01734 0
M  V30 4661 H 423.416 0.996383 5.39781 0
M  V30 4662 H 423.677 -0.425808 4.40045 0
M  V30 4663 N 422.737 -1.36956 0.779787 0
M  V30 4664 C 423.684 -2.30175 0.169697 0
M  V30 4665 C 424.654 -1.51501 -0.68094 0
M  V30 4666 O 425.839 -1.80042 -0.631629 0
M  V30 4667 C 422.979 -3.37985 -0.697131 0
M  V30 4668 C 422.092 -4.31661 0.170992 0
M  V30 4669 C 421.227 -5.2655 -0.701298 0
M  V30 4670 C 420.266 -6.11867 0.168869 0
M  V30 4671 N 419.403 -6.98973 -0.661855 0
M  V30 4672 H 424.243 -2.81767 0.970135 0
M  V30 4673 H 421.78 -1.38699 0.489994 0
M  V30 4674 H 423.738 -3.99128 -1.2146 0
M  V30 4675 H 422.368 -2.87739 -1.46309 0
M  V30 4676 H 421.42 -3.71756 0.80634 0
M  V30 4677 H 422.732 -4.91644 0.841875 0
M  V30 4678 H 421.886 -5.92937 -1.28494 0
M  V30 4679 H 420.625 -4.66998 -1.40584 0
M  V30 4680 H 419.63 -5.44452 0.764986 0
M  V30 4681 H 420.855 -6.73493 0.870863 0
M  V30 4682 H 418.801 -6.41941 -1.35086 0
M  V30 4683 H 418.718 -7.55984 -0.0484447 0
M  V30 4684 H 419.986 -7.6974 -1.22963 0
M  V30 4685 N 424.215 -0.530993 -1.48385 0
M  V30 4686 C 425.461 0.00274135 -2.028 0
M  V30 4687 C 425.794 1.33838 -1.40716 0
M  V30 4688 O 425.069 1.86465 -0.553277 0
M  V30 4689 C 425.352 0.123676 -3.59888 0
M  V30 4690 C 425.205 -1.2372 -4.3245 0
M  V30 4691 C 426.524 0.849967 -4.31814 0
M  V30 4692 H 423.643 -0.000477758 -0.737 0
M  V30 4693 H 426.285 -0.688217 -1.77098 0
M  V30 4694 H 424.435 0.712157 -3.81917 0
M  V30 4695 H 426.107 -1.86687 -4.21836 0
M  V30 4696 H 424.35 -1.81882 -3.93829 0
M  V30 4697 H 425.021 -1.10557 -5.40815 0
M  V30 4698 H 427.497 0.350572 -4.14621 0
M  V30 4699 H 426.373 0.903486 -5.41413 0
M  V30 4700 H 426.634 1.90047 -3.99167 0
M  V30 4701 N 425.693 1.55336 -0.266172 0
M  V30 4702 C 426.97 1.91372 0.404486 0
M  V30 4703 C 427.35 1.18935 1.74407 0
M  V30 4704 O 426.698 0.3132 2.26343 0
M  V30 4705 C 426.908 3.44581 0.553593 0
M  V30 4706 C 428.256 4.16196 0.840618 0
M  V30 4707 O 429.28 3.50426 0.638739 0
M  V30 4708 O 428.139 5.32567 1.22618 0
M  V30 4709 H 425.233 0.797194 0.220025 0
M  V30 4710 H 427.779 1.66813 -0.311664 0
M  V30 4711 H 426.551 3.89357 -0.389498 0
M  V30 4712 H 426.174 3.75065 1.31955 0
M  V30 4713 N 427.171 -0.0066808 1.57599 0
M  V30 4714 C 428.101 -0.999296 2.11036 0
M  V30 4715 C 429.082 -1.36278 1.01795 0
M  V30 4716 O 430.267 -1.4477 1.29442 0
M  V30 4717 C 427.397 -2.29328 2.60818 0
M  V30 4718 C 426.351 -2.07159 3.74525 0
M  V30 4719 C 425.677 -3.42512 4.10596 0
M  V30 4720 C 426.977 -1.43959 5.02069 0
M  V30 4721 H 428.671 -0.554382 2.94223 0
M  V30 4722 H 426.217 -0.265221 1.41536 0
M  V30 4723 H 428.17 -2.99117 2.96828 0
M  V30 4724 H 426.894 -2.7592 1.74745 0
M  V30 4725 H 425.553 -1.39797 3.38899 0
M  V30 4726 H 425.201 -3.86795 3.21556 0
M  V30 4727 H 424.901 -3.28498 4.87199 0
M  V30 4728 H 426.425 -4.13628 4.4916 0
M  V30 4729 H 427.839 -2.03696 5.35893 0
M  V30 4730 H 426.236 -1.40452 5.83432 0
M  V30 4731 H 427.306 -0.407992 4.83181 0
M  V30 4732 N 428.649 -1.55105 -0.279332 0
M  V30 4733 C 429.596 -1.8755 -1.34513 0
M  V30 4734 C 430.566 -0.726384 -1.49375 0
M  V30 4735 O 431.751 -0.977063 -1.63884 0
M  V30 4736 C 428.891 -2.14738 -2.70151 0
M  V30 4737 C 428.004 -3.42285 -2.63562 0
M  V30 4738 C 427.139 -3.59206 -3.91337 0
M  V30 4739 C 426.178 -4.80467 -3.79233 0
M  V30 4740 N 425.315 -4.94079 -4.98829 0
M  V30 4741 H 430.155 -2.78456 -1.06143 0
M  V30 4742 H 427.692 -1.37867 -0.512936 0
M  V30 4743 H 429.65 -2.28501 -3.49061 0
M  V30 4744 H 428.28 -1.27075 -2.96735 0
M  V30 4745 H 427.332 -3.37029 -1.76397 0
M  V30 4746 H 428.644 -4.31328 -2.50515 0
M  V30 4747 H 427.798 -3.72751 -4.78687 0
M  V30 4748 H 426.537 -2.68337 -4.07243 0
M  V30 4749 H 425.542 -4.66932 -2.90266 0
M  V30 4750 H 426.767 -5.72765 -3.64852 0
M  V30 4751 H 424.713 -4.06139 -5.15158 0
M  V30 4752 H 424.63 -5.77156 -4.8829 0
M  V30 4753 H 425.898 -5.12003 -5.8777 0
M  V30 4754 N 430.127 0.543554 -1.4793 0
M  V30 4755 C 431.374 1.30008 -1.55255 0
M  V30 4756 C 431.702 1.93245 -0.220612 0
M  V30 4757 O 430.957 1.79141 0.787843 0
M  V30 4758 C 431.256 2.42078 -2.62932 0
M  V30 4759 C 430.922 1.96583 -4.0579 0
M  V30 4760 C 429.584 1.83893 -4.44676 0
M  V30 4761 C 431.936 1.62034 -4.95373 0
M  V30 4762 C 429.264 1.34969 -5.70964 0
M  V30 4763 C 431.616 1.14577 -6.22137 0
M  V30 4764 C 430.28 1.00493 -6.59892 0
M  V30 4765 H 429.55 0.475735 -0.568117 0
M  V30 4766 H 432.197 0.608075 -1.81589 0
M  V30 4767 H 430.502 3.16892 -2.30406 0
M  V30 4768 H 432.199 3.00236 -2.65818 0
M  V30 4769 H 428.789 2.07407 -3.75074 0
M  V30 4770 H 432.973 1.70705 -4.66019 0
M  V30 4771 H 428.229 1.2274 -5.98953 0
M  V30 4772 H 432.403 0.869109 -6.90955 0
M  V30 4773 H 430.03 0.623624 -7.57638 0
M  V30 4774 N 431.605 1.3629 0.791371 0
M  V30 4775 C 433.016 1.27225 1.36641 0
M  V30 4776 C 433.367 -0.0887968 1.95999 0
M  V30 4777 O 432.492 -0.990207 1.92416 0
M  V30 4778 C 433.087 2.30375 2.48421 0
M  V30 4779 C 431.646 2.25004 3.01746 0
M  V30 4780 C 430.793 2.15259 1.7481 0
M  V30 4781 H 433.744 1.47198 0.593173 0
M  V30 4782 H 433.765 1.93905 3.27385 0
M  V30 4783 H 433.277 3.29422 2.05189 0
M  V30 4784 H 431.378 1.29417 3.49403 0
M  V30 4785 H 431.491 3.1761 3.58693 0
M  V30 4786 H 429.855 1.61482 1.96966 0
M  V30 4787 H 430.638 3.16191 1.33709 0
M  V30 4788 N 433.083 -1.0153 1.20538 0
M  V30 4789 C 434.046 -2.0826 0.957098 0
M  V30 4790 C 435.046 -1.60657 -0.0678655 0
M  V30 4791 O 436.236 -1.73385 0.168332 0
M  V30 4792 C 433.368 -3.38033 0.441188 0
M  V30 4793 H 434.561 -2.31719 1.90384 0
M  V30 4794 H 432.114 -1.1835 1.02093 0
M  V30 4795 H 432.849 -3.20249 -0.510961 0
M  V30 4796 H 432.634 -3.73911 1.18038 0
M  V30 4797 H 434.124 -4.16613 0.287009 0
M  V30 4798 N 434.561 -1.01147 -1.20859 0
M  V30 4799 C 435.786 -0.716698 -1.94623 0
M  V30 4800 C 436.211 0.715415 -1.73964 0
M  V30 4801 O 435.569 1.49157 -1.03062 0
M  V30 4802 C 435.617 -1.0513 -3.44935 0
M  V30 4803 O 434.721 -0.160131 -4.12089 0
M  V30 4804 H 434.062 -0.266404 -0.608214 0
M  V30 4805 H 436.592 -1.35346 -1.53436 0
M  V30 4806 H 436.602 -1.00086 -3.95533 0
M  V30 4807 H 435.277 -2.09475 -3.59295 0
M  V30 4808 H 433.854 -0.267657 -3.71938 0
M  V30 4809 N 436.039 1.36541 -0.78704 0
M  V30 4810 C 437.285 1.99599 -0.358872 0
M  V30 4811 C 437.618 1.62323 1.06606 0
M  V30 4812 O 436.893 0.876858 1.73613 0
M  V30 4813 C 437.176 3.56327 -0.519944 0
M  V30 4814 C 437.029 4.03464 -1.98839 0
M  V30 4815 C 438.348 4.4005 0.0664737 0
M  V30 4816 H 435.467 0.725107 -0.131869 0
M  V30 4817 H 438.109 1.6199 -0.992936 0
M  V30 4818 H 436.259 3.88495 0.0198321 0
M  V30 4819 H 437.931 3.81793 -2.58905 0
M  V30 4820 H 436.174 3.55092 -2.49183 0
M  V30 4821 H 436.845 5.12439 -2.05207 0
M  V30 4822 H 439.321 4.14228 -0.394267 0
M  V30 4823 H 438.197 5.48847 -0.0762682 0
M  V30 4824 H 438.458 4.26655 1.15835 0
M  V30 4825 N 437.518 0.538854 1.48102 0
M  V30 4826 C 438.929 0.100679 1.86428 0
M  V30 4827 C 439.28 -1.32447 1.44749 0
M  V30 4828 O 438.405 -1.99339 0.842199 0
M  V30 4829 C 439 0.175933 3.38343 0
M  V30 4830 C 437.559 -0.207098 3.7583 0
M  V30 4831 C 436.706 0.531741 2.72154 0
M  V30 4832 H 439.657 0.749614 1.3988 0
M  V30 4833 H 439.678 -0.610144 3.75576 0
M  V30 4834 H 439.19 1.21328 3.68648 0
M  V30 4835 H 437.291 -1.24626 3.5114 0
M  V30 4836 H 437.404 0.138687 4.78899 0
M  V30 4837 H 435.768 -0.0230462 2.5469 0
M  V30 4838 H 436.551 1.56989 3.05302 0
M  V30 4839 N 438.996 -1.55193 0.274407 0
M  V30 4840 C 439.929 -2.18606 -0.654712 0
M  V30 4841 C 440.907 -1.14677 -1.15273 0
M  V30 4842 O 442.091 -1.43198 -1.22583 0
M  V30 4843 C 439.218 -2.80875 -1.89281 0
M  V30 4844 C 438.264 -3.981 -1.53032 0
M  V30 4845 S 439.097 -5.32025 -0.609107 0
M  V30 4846 C 440.253 -5.97761 -1.85559 0
M  V30 4847 H 440.486 -2.97074 -0.115894 0
M  V30 4848 H 438.019 -1.54288 0.05867 0
M  V30 4849 H 439.977 -3.17381 -2.60345 0
M  V30 4850 H 438.638 -2.02302 -2.40277 0
M  V30 4851 H 437.831 -4.40356 -2.45158 0
M  V30 4852 H 437.433 -3.63013 -0.899874 0
M  V30 4853 H 439.725 -6.16951 -2.7996 0
M  V30 4854 H 440.668 -6.92545 -1.47605 0
M  V30 4855 H 441.076 -5.27113 -2.02021 0
M  V30 4856 N 440.474 -0.00167713 -1.576 0
M  V30 4857 C 441.722 0.681471 -1.90264 0
M  V30 4858 C 442.043 1.7422 -0.875924 0
M  V30 4859 O 441.313 1.95709 0.0864412 0
M  V30 4860 H 439.893 0.254696 -0.702239 0
M  V30 4861 H 442.555 -0.0429996 -1.94853 0
M  V30 4862 H 441.651 1.15166 -2.90075 0
M  V30 4863 N 441.952 1.55251 0.271103 0
M  V30 4864 C 442.915 1.87484 1.31842 0
M  V30 4865 C 443.915 0.749545 1.42262 0
M  V30 4866 O 445.105 1.01771 1.4138 0
M  V30 4867 C 442.237 2.0818 2.69951 0
M  V30 4868 H 443.43 2.81108 1.0449 0
M  V30 4869 H 440.983 1.47771 0.509258 0
M  V30 4870 H 441.718 1.16944 3.02481 0
M  V30 4871 H 441.503 2.90114 2.63774 0
M  V30 4872 H 442.993 2.34385 3.4562 0
M  V30 4873 N 443.43 -0.535701 1.48216 0
M  V30 4874 C 444.362 -1.65662 1.58394 0
M  V30 4875 C 445.375 -1.5591 0.468607 0
M  V30 4876 O 446.564 -1.62475 0.7392 0
M  V30 4877 C 443.664 -3.04276 1.4923 0
M  V30 4878 C 442.837 -3.39567 2.75705 0
M  V30 4879 C 441.896 -4.57436 2.60075 0
M  V30 4880 O 440.922 -4.60942 3.33948 0
M  V30 4881 N 442.124 -5.55259 1.69315 0
M  V30 4882 H 444.889 -1.5737 2.55058 0
M  V30 4883 H 442.45 -0.722845 1.44867 0
M  V30 4884 H 444.442 -3.80994 1.36477 0
M  V30 4885 H 443.012 -3.06677 0.605632 0
M  V30 4886 H 442.232 -2.52083 3.03064 0
M  V30 4887 H 443.52 -3.59929 3.59623 0
M  V30 4888 H 442.918 -5.552 1.08489 0
M  V30 4889 H 441.475 -6.31218 1.62504 0
M  V30 4890 N 444.908 -1.36708 -0.784132 0
M  V30 4891 C 446.185 -1.21776 -1.53069 0
M  V30 4892 C 446.565 0.193876 -2.10208 0
M  V30 4893 O 445.913 1.20012 -1.94446 0
M  V30 4894 C 446.123 -2.30395 -2.62143 0
M  V30 4895 C 447.471 -2.67325 -3.29882 0
M  V30 4896 O 448.495 -2.29478 -2.7243 0
M  V30 4897 O 447.354 -3.32485 -4.33724 0
M  V30 4898 H 444.448 -0.474459 -0.677361 0
M  V30 4899 H 446.994 -1.48454 -0.82216 0
M  V30 4900 H 445.766 -3.2498 -2.17953 0
M  V30 4901 H 445.389 -2.05112 -3.40609 0
M  V30 4902 N 446.386 1.0089 -1.21074 0
M  V30 4903 C 447.316 2.1145 -0.990523 0
M  V30 4904 C 448.297 1.69897 0.0831699 0
M  V30 4905 O 449.482 1.94052 -0.0758853 0
M  V30 4906 C 446.612 3.42914 -0.550177 0
M  V30 4907 C 445.566 3.98244 -1.56799 0
M  V30 4908 C 444.892 5.25568 -0.984013 0
M  V30 4909 C 446.192 4.30752 -2.95381 0
M  V30 4910 H 447.886 2.3013 -1.91521 0
M  V30 4911 H 445.432 1.10592 -0.92225 0
M  V30 4912 H 447.385 4.19653 -0.383305 0
M  V30 4913 H 446.109 3.24014 0.41015 0
M  V30 4914 H 444.768 3.23621 -1.72236 0
M  V30 4915 H 444.416 5.02998 -0.0155216 0
M  V30 4916 H 444.116 5.63551 -1.66384 0
M  V30 4917 H 445.64 6.04955 -0.828378 0
M  V30 4918 H 447.054 4.98349 -2.8341 0
M  V30 4919 H 445.451 4.79869 -3.60341 0
M  V30 4920 H 446.521 3.39192 -3.46521 0
M  V30 4921 N 447.864 1.01787 1.20321 0
M  V30 4922 C 449.113 0.703249 1.89043 0
M  V30 4923 C 449.426 -0.770445 1.79787 0
M  V30 4924 O 450.632 -1.19767 2.43656 0
M  V30 4925 C 449.088 1.20749 3.3904 0
M  V30 4926 C 448.696 2.70817 3.56878 0
M  V30 4927 C 450.44 0.968352 4.13308 0
M  V30 4928 C 448.347 3.14716 5.00708 0
M  V30 4929 H 447.277 0.259354 0.707991 0
M  V30 4930 H 449.928 1.23072 1.36108 0
M  V30 4931 H 448.31 0.607989 3.91305 0
M  V30 4932 H 449.484 3.36327 3.14993 0
M  V30 4933 H 447.799 2.92888 2.95983 0
M  V30 4934 H 450.396 1.27173 5.19356 0
M  V30 4935 H 450.739 -0.095149 4.16191 0
M  V30 4936 H 451.272 1.53129 3.67146 0
M  V30 4937 H 448.011 4.20347 5.02979 0
M  V30 4938 H 447.531 2.53927 5.43398 0
M  V30 4939 H 449.21 3.07426 5.69296 0
M  V30 4940 N 449.342 -1.36122 0.79427 0
M  V30 4941 C 450.567 -2.03891 0.379871 0
M  V30 4942 C 450.992 -1.59488 -0.997251 0
M  V30 4943 O 450.35 -0.765652 -1.64339 0
M  V30 4944 C 450.398 -3.57687 0.457442 0
M  V30 4945 O 449.502 -4.08931 -0.5338 0
M  V30 4946 H 448.843 -0.6443 0.160541 0
M  V30 4947 H 451.373 -1.73976 1.07673 0
M  V30 4948 H 451.383 -4.06721 0.322792 0
M  V30 4949 H 450.058 -3.89357 1.46199 0
M  V30 4950 H 448.635 -3.71154 -0.360409 0
M  V30 4951 N 450.82 -0.546701 -1.47814 0
M  V30 4952 C 451.767 0.206854 -2.29871 0
M  V30 4953 C 452.737 0.918235 -1.38411 0
M  V30 4954 O 453.922 0.915991 -1.67375 0
M  V30 4955 C 451.062 1.23746 -3.22151 0
M  V30 4956 C 450.175 0.533216 -4.28697 0
M  V30 4957 C 449.31 1.5482 -5.08138 0
M  V30 4958 C 448.349 0.828347 -6.06469 0
M  V30 4959 N 447.486 1.78966 -6.78908 0
M  V30 4960 H 452.326 -0.499037 -2.93792 0
M  V30 4961 H 449.863 -0.25793 -1.44821 0
M  V30 4962 H 451.821 1.84746 -3.74065 0
M  V30 4963 H 450.451 1.91151 -2.60117 0
M  V30 4964 H 449.503 -0.191089 -3.7992 0
M  V30 4965 H 450.815 -0.0311987 -4.9879 0
M  V30 4966 H 449.969 2.23202 -5.6415 0
M  V30 4967 H 448.708 2.14652 -4.37922 0
M  V30 4968 H 447.713 0.130539 -5.49645 0
M  V30 4969 H 448.938 0.235907 -6.7869 0
M  V30 4970 H 446.884 2.37675 -6.1143 0
M  V30 4971 H 446.801 1.27712 -7.45135 0
M  V30 4972 H 448.069 2.46496 -7.395 0
M  V30 4973 N 452.299 1.55045 -0.282633 0
M  V30 4974 C 453.229 2.2579 0.595066 0
M  V30 4975 C 454.21 1.25074 1.15284 0
M  V30 4976 O 455.395 1.5381 1.18559 0
M  V30 4977 C 452.525 2.98472 1.77572 0
M  V30 4978 C 451.479 4.0618 1.34914 0
M  V30 4979 C 450.805 4.66477 2.6135 0
M  V30 4980 C 452.105 5.1996 0.493821 0
M  V30 4981 H 453.799 2.994 0.00505653 0
M  V30 4982 H 451.345 1.44 0.000992001 0
M  V30 4983 H 453.298 3.46677 2.39568 0
M  V30 4984 H 452.022 2.2241 2.39168 0
M  V30 4985 H 450.681 3.58797 0.752338 0
M  V30 4986 H 450.329 3.87074 3.2122 0
M  V30 4987 H 450.029 5.39207 2.33516 0
M  V30 4988 H 451.553 5.17435 3.24181 0
M  V30 4989 H 452.967 5.64172 1.01898 0
M  V30 4990 H 451.364 5.99299 0.310047 0
M  V30 4991 H 452.434 4.82462 -0.485593 0
M  V30 4992 N 453.777 0.010035 1.57597 0
M  V30 4993 C 454.707 -0.976857 2.12084 0
M  V30 4994 C 455.688 -1.35191 1.03235 0
M  V30 4995 O 456.873 -1.43389 1.3097 0
M  V30 4996 C 454.003 -2.26548 2.63236 0
M  V30 4997 C 452.957 -2.03175 3.76701 0
M  V30 4998 C 452.283 -3.38138 4.14206 0
M  V30 4999 C 453.583 -1.38625 5.03568 0
M  V30 5000 H 455.277 -0.523145 2.94794 0
M  V30 5001 H 452.823 -0.250195 1.4181 0
M  V30 5002 H 454.776 -2.95952 2.99984 0
M  V30 5003 H 453.5 -2.74051 1.77661 0
M  V30 5004 H 452.159 -1.36195 3.40362 0
M  V30 5005 H 451.807 -3.83363 3.25641 0
M  V30 5006 H 451.507 -3.23312 4.90656 0
M  V30 5007 H 453.031 -4.08841 4.53521 0
M  V30 5008 H 454.445 -1.98 5.38023 0
M  V30 5009 H 452.842 -1.34256 5.84889 0
M  V30 5010 H 453.912 -0.356722 4.83586 0
M  V30 5011 N 455.255 -1.55392 -0.262866 0
M  V30 5012 C 456.671 -1.47459 -0.610582 0
M  V30 5013 C 456.871 -0.697031 -1.8906 0
M  V30 5014 O 455.927 -0.219952 -2.5154 0
M  V30 5015 C 457.24 -2.91751 -0.728131 0
M  V30 5016 C 458.788 -3.02027 -0.821517 0
M  V30 5017 C 459.263 -4.47594 -0.97076 0
M  V30 5018 N 460.754 -4.51465 -1.03603 0
M  V30 5019 C 461.489 -5.61326 -1.17049 0
M  V30 5020 N 460.985 -6.81032 -1.2715 0
M  V30 5021 N 462.778 -5.49089 -1.20239 0
M  V30 5022 H 454.929 -2.04395 0.577632 0
M  V30 5023 H 457.192 -0.927287 0.197086 0
M  V30 5024 H 456.898 -3.51413 0.142132 0
M  V30 5025 H 456.772 -3.4134 -1.6052 0
M  V30 5026 H 459.159 -2.42456 -1.68224 0
M  V30 5027 H 459.24 -2.55674 0.0803688 0
M  V30 5028 H 458.884 -5.07771 -0.114655 0
M  V30 5029 H 458.814 -4.91613 -1.88745 0
M  V30 5030 H 461.305 -3.6524 -0.96996 0
M  V30 5031 H 461.618 -7.60511 -1.37271 0
M  V30 5032 H 459.963 -6.83824 -1.24136 0
M  V30 5033 H 463.154 -4.54507 -1.11985 0
M  V30 5034 H 463.327 -6.34749 -1.30373 0
M  V30 5035 N 456.733 0.527833 -1.48498 0
M  V30 5036 C 457.683 1.62844 -1.5958 0
M  V30 5037 C 458.667 1.54397 -0.452809 0
M  V30 5038 O 459.859 1.62381 -0.704364 0
M  V30 5039 C 456.988 3.01557 -1.64067 0
M  V30 5040 C 456.074 3.151 -2.83853 0
M  V30 5041 N 456.465 2.9861 -4.08247 0
M  V30 5042 C 454.763 3.46158 -2.8123 0
M  V30 5043 C 455.464 3.15626 -4.88626 0
M  V30 5044 N 454.44 3.43298 -4.21483 0
M  V30 5045 H 458.242 1.48708 -2.53502 0
M  V30 5046 H 455.756 0.733343 -1.44899 0
M  V30 5047 H 457.753 3.8062 -1.70101 0
M  V30 5048 H 456.413 3.16783 -0.712636 0
M  V30 5049 H 457.424 2.75329 -4.3865 0
M  V30 5050 H 454.101 3.67728 -1.97692 0
M  V30 5051 H 455.491 3.07596 -5.97356 0
M  V30 5052 N 458.211 1.37122 0.776871 0
M  V30 5053 C 459.159 1.32549 1.91138 0
M  V30 5054 C 460.153 0.215119 1.68029 0
M  V30 5055 O 461.359 0.382852 1.75881 0
M  V30 5056 H 457.734 0.412952 0.62847 0
M  V30 5057 H 459.705 2.28332 1.92112 0
M  V30 5058 C 458.454 1.14422 3.28333 0
M  V30 5059 H 457.777 1.99115 3.46689 0
M  V30 5060 H 459.217 1.15272 4.0803 0
M  V30 5061 C 457.676 -0.150434 3.36564 0
M  V30 5062 O 458.206 -1.13584 3.85307 0
M  V30 5063 N 456.412 -0.19939 2.89915 0
M  V30 5064 H 455.959 0.603142 2.5044 0
M  V30 5065 H 455.917 -1.06526 2.95803 0
M  V30 5066 N 459.689 -1.00246 1.21608 0
M  V30 5067 C 461.1 -1.55511 1.03312 0
M  V30 5068 C 461.451 -1.91946 -0.406332 0
M  V30 5069 O 460.576 -1.73753 -1.28992 0
M  V30 5070 C 461.171 -2.82576 1.86913 0
M  V30 5071 C 459.73 -3.34318 1.72941 0
M  V30 5072 C 458.877 -2.07487 1.83968 0
M  V30 5073 H 461.828 -0.824638 1.35593 0
M  V30 5074 H 461.849 -3.54559 1.38087 0
M  V30 5075 H 461.361 -2.56026 2.91672 0
M  V30 5076 H 459.462 -3.65797 0.70877 0
M  V30 5077 H 459.575 -4.05566 2.55055 0
M  V30 5078 H 457.939 -2.20603 1.27304 0
M  V30 5079 H 458.722 -1.83346 2.9024 0
M  V30 5080 N 461.167 -1.02423 -1.1978 0
M  V30 5081 C 462.392 -0.7373 -1.93852 0
M  V30 5082 C 462.817 0.696923 -1.74713 0
M  V30 5083 O 462.175 1.48056 -1.04638 0
M  V30 5084 C 462.223 -1.08783 -3.438 0
M  V30 5085 O 461.327 -0.20383 -4.11896 0
M  V30 5086 H 460.668 -0.27284 -0.605355 0
M  V30 5087 H 463.198 -1.36966 -1.51992 0
M  V30 5088 H 463.208 -1.04276 -3.9445 0
M  V30 5089 H 461.883 -2.13274 -3.57053 0
M  V30 5090 H 460.46 -0.307091 -3.71633 0
M  V30 5091 N 462.645 1.35699 -0.801477 0
M  V30 5092 C 463.555 2.33661 -0.209691 0
M  V30 5093 C 464.571 1.6162 0.644591 0
M  V30 5094 O 465.747 1.93529 0.557545 0
M  V30 5095 C 462.812 3.40816 0.636033 0
M  V30 5096 C 461.873 4.28639 -0.238147 0
M  V30 5097 C 461.106 5.30676 0.567307 0
M  V30 5098 O 461.329 5.41174 1.8024 0
M  V30 5099 O 460.263 6.01887 -0.0391336 0
M  V30 5100 H 464.089 2.8606 -1.01996 0
M  V30 5101 H 461.674 1.38379 -0.563164 0
M  V30 5102 H 463.556 4.06301 1.11791 0
M  V30 5103 H 462.231 2.90696 1.42399 0
M  V30 5104 H 461.138 3.66152 -0.767044 0
M  V30 5105 H 462.471 4.82143 -0.989915 0
M  V30 5106 N 464.123 0.554532 1.47522 0
M  V30 5107 C 465.539 0.214107 1.58157 0
M  V30 5108 C 465.739 -1.28331 1.55349 0
M  V30 5109 O 464.795 -2.06329 1.45549 0
M  V30 5110 C 466.108 0.838391 2.88776 0
M  V30 5111 C 467.656 0.809374 3.02354 0
M  V30 5112 C 468.131 1.41268 4.35669 0
M  V30 5113 N 469.622 1.37574 4.42298 0
M  V30 5114 C 470.357 1.8122 5.4401 0
M  V30 5115 N 469.853 2.3271 6.52547 0
M  V30 5116 N 471.646 1.72307 5.35039 0
M  V30 5117 H 463.797 1.52744 1.4759 0
M  V30 5118 H 466.06 0.636812 0.702264 0
M  V30 5119 H 465.766 1.89065 2.96559 0
M  V30 5120 H 465.64 0.329847 3.75755 0
M  V30 5121 H 468.027 -0.234187 2.94169 0
M  V30 5122 H 468.108 1.35565 2.16924 0
M  V30 5123 H 467.752 2.45529 4.4461 0
M  V30 5124 H 467.682 0.841871 5.19827 0
M  V30 5125 H 470.173 0.999081 3.64454 0
M  V30 5126 H 470.486 2.63944 7.26329 0
M  V30 5127 H 468.831 2.36719 6.53444 0
M  V30 5128 H 472.022 1.3186 4.49144 0
M  V30 5129 H 472.195 2.06641 6.14169 0
M  V30 5130 N 465.601 -1.54893 0.290851 0
M  V30 5131 C 466.531 -2.26103 -0.583084 0
M  V30 5132 C 467.512 -1.25684 -1.14619 0
M  V30 5133 O 468.697 -1.54436 -1.17741 0
M  V30 5134 C 465.827 -2.99409 -1.75987 0
M  V30 5135 C 464.781 -4.0689 -1.32758 0
M  V30 5136 C 464.107 -4.67856 -2.58872 0
M  V30 5137 C 465.407 -5.20215 -0.46624 0
M  V30 5138 H 467.101 -2.99398 0.0108214 0
M  V30 5139 H 464.647 -1.43998 0.00664468 0
M  V30 5140 H 466.6 -3.47943 -2.37727 0
M  V30 5141 H 465.324 -2.23675 -2.37985 0
M  V30 5142 H 463.983 -3.59191 -0.733299 0
M  V30 5143 H 463.631 -3.88772 -3.19163 0
M  V30 5144 H 463.331 -5.40438 -2.30653 0
M  V30 5145 H 464.855 -5.19147 -3.21433 0
M  V30 5146 H 466.269 -5.64704 -0.989047 0
M  V30 5147 H 464.666 -5.99455 -0.27826 0
M  V30 5148 H 465.736 -4.82198 0.511173 0
M  V30 5149 N 467.08 -0.0183926 -1.57589 0
M  V30 5150 C 468.491 0.521927 -1.79256 0
M  V30 5151 C 468.842 1.72885 -0.927636 0
M  V30 5152 O 467.967 2.15978 -0.135091 0
M  V30 5153 C 468.562 0.953632 -3.25102 0
M  V30 5154 C 467.121 1.43913 -3.47801 0
M  V30 5155 C 466.268 0.398837 -2.74417 0
M  V30 5156 H 469.219 -0.244485 -1.56805 0
M  V30 5157 H 469.24 1.81863 -3.34224 0
M  V30 5158 H 468.752 0.0750123 -3.88028 0
M  V30 5159 H 466.853 2.33804 -2.90115 0
M  V30 5160 H 466.966 1.45391 -4.56507 0
M  V30 5161 H 465.33 0.864572 -2.39577 0
M  V30 5162 H 466.113 -0.471132 -3.40052 0
M  V30 5163 N 468.558 1.5553 0.254621 0
M  V30 5164 C 469.488 1.9268 1.31897 0
M  V30 5165 C 470.469 0.790797 1.506 0
M  V30 5166 O 471.654 1.05045 1.63337 0
M  V30 5167 C 468.784 2.21477 2.67517 0
M  V30 5168 C 467.738 3.37256 2.63519 0
M  V30 5169 C 467.064 3.51576 4.02862 0
M  V30 5170 C 468.364 4.73157 2.21179 0
M  V30 5171 H 470.058 2.81832 1.01051 0
M  V30 5172 H 467.604 1.35599 0.484662 0
M  V30 5173 H 469.557 2.46055 3.42104 0
M  V30 5174 H 468.281 1.29144 2.99982 0
M  V30 5175 H 466.94 3.12675 1.9139 0
M  V30 5176 H 466.588 2.56676 4.32581 0
M  V30 5177 H 466.288 4.2943 4.01078 0
M  V30 5178 H 467.812 3.78467 4.79161 0
M  V30 5179 H 469.226 4.97158 2.85494 0
M  V30 5180 H 467.623 5.54058 2.30521 0
M  V30 5181 H 468.693 4.70739 1.16332 0
M  V30 5182 N 470.036 -0.519951 1.48776 0
M  V30 5183 C 470.999 -1.60574 1.6355 0
M  V30 5184 C 471.999 -1.52557 0.508234 0
M  V30 5185 O 473.189 -1.56047 0.774262 0
M  V30 5186 C 470.321 -3.00211 1.61512 0
M  V30 5187 H 471.514 -1.4881 2.60376 0
M  V30 5188 H 469.067 -0.742772 1.37523 0
M  V30 5189 H 469.802 -3.17471 0.662009 0
M  V30 5190 H 469.587 -3.07439 2.43359 0
M  V30 5191 H 471.077 -3.79134 1.75064 0
M  V30 5192 N 471.514 -1.37532 -0.769588 0
M  V30 5193 C 472.446 -1.29347 -1.89214 0
M  V30 5194 C 473.459 -0.208842 -1.61455 0
M  V30 5195 O 474.648 -0.465158 -1.72333 0
M  V30 5196 C 471.748 -0.977649 -3.24492 0
M  V30 5197 C 470.921 -2.16817 -3.7988 0
M  V30 5198 C 469.98 -1.82229 -4.93639 0
M  V30 5199 O 469.006 -2.54548 -5.09111 0
M  V30 5200 N 470.208 -0.767696 -5.75401 0
M  V30 5201 H 472.973 -2.26073 -1.96751 0
M  V30 5202 H 470.534 -1.31185 -0.948795 0
M  V30 5203 H 472.526 -0.727065 -3.98115 0
M  V30 5204 H 471.096 -0.0988777 -3.12444 0
M  V30 5205 H 470.316 -2.58038 -2.9801 0
M  V30 5206 H 471.604 -2.96308 -4.13617 0
M  V30 5207 H 471.002 -0.167626 -5.65452 0
M  V30 5208 H 469.559 -0.576973 -6.49241 0
M  V30 5209 N 472.992 0.995999 -1.22138 0
M  V30 5210 C 474.238 1.73767 -1.04561 0
M  V30 5211 C 474.571 1.89633 0.418698 0
M  V30 5212 O 473.846 1.43723 1.3105 0
M  V30 5213 C 474.129 3.14505 -1.75382 0
M  V30 5214 C 473.982 3.06306 -3.29388 0
M  V30 5215 C 475.301 4.13615 -1.50369 0
M  V30 5216 H 472.42 0.630728 -0.38125 0
M  V30 5217 H 475.062 1.16057 -1.50435 0
M  V30 5218 H 473.212 3.63775 -1.36383 0
M  V30 5219 H 474.884 2.64681 -3.77812 0
M  V30 5220 H 473.127 2.43186 -3.59226 0
M  V30 5221 H 473.798 4.05884 -3.74116 0
M  V30 5222 H 476.274 3.73089 -1.84239 0
M  V30 5223 H 475.15 5.10212 -2.02421 0
M  V30 5224 H 475.411 4.39949 -0.435611 0
M  V30 5225 N 474.47 1.03057 1.19235 0
M  V30 5226 C 475.695 0.74757 1.93458 0
M  V30 5227 C 476.12 -0.687648 1.7508 0
M  V30 5228 O 475.478 -1.47499 1.05422 0
M  V30 5229 C 475.526 1.10604 3.43219 0
M  V30 5230 O 474.63 0.225671 4.11782 0
M  V30 5231 H 473.971 0.276047 0.603899 0
M  V30 5232 H 476.501 1.3777 1.51263 0
M  V30 5233 H 476.511 1.06366 3.93891 0
M  V30 5234 H 475.186 2.15165 3.55917 0
M  V30 5235 H 473.763 0.326795 3.71465 0
M  V30 5236 N 475.948 -1.35272 0.808662 0
M  V30 5237 C 476.911 -2.28082 0.226093 0
M  V30 5238 C 477.911 -1.49673 -0.587762 0
M  V30 5239 O 479.101 -1.69404 -0.405943 0
M  V30 5240 C 476.233 -3.33955 -0.684596 0
M  V30 5241 H 477.426 -2.81116 1.04469 0
M  V30 5242 H 474.979 -1.45162 0.579466 0
M  V30 5243 H 475.714 -2.86111 -1.5268 0
M  V30 5244 H 475.499 -3.91965 -0.102699 0
M  V30 5245 H 476.989 -4.03219 -1.08646 0
M  V30 5246 N 477.426 -0.562348 -1.47226 0
M  V30 5247 C 478.376 0.202967 -2.27095 0
M  V30 5248 C 479.36 0.880611 -1.34663 0
M  V30 5249 O 480.552 0.778069 -1.58981 0
M  V30 5250 C 477.681 1.22906 -3.20545 0
M  V30 5251 C 476.767 0.554566 -4.20459 0
M  V30 5252 N 477.158 -0.378295 -5.04383 0
M  V30 5253 C 475.456 0.807854 -4.38623 0
M  V30 5254 C 476.157 -0.770583 -5.76573 0
M  V30 5255 N 475.133 -0.124263 -5.43458 0
M  V30 5256 H 478.935 -0.514196 -2.89367 0
M  V30 5257 H 476.449 -0.382655 -1.57827 0
M  V30 5258 H 478.446 1.79134 -3.76453 0
M  V30 5259 H 477.106 1.94726 -2.59831 0
M  V30 5260 H 478.117 -0.75274 -5.124 0
M  V30 5261 H 474.794 1.51418 -3.89075 0
M  V30 5262 H 476.184 -1.53742 -6.54074 0
M  V30 5263 N 478.904 1.54736 -0.299062 0
M  V30 5264 C 480.315 1.8569 0.193971 0
M  V30 5265 C 480.666 1.22101 1.53577 0
M  V30 5266 O 479.791 0.51799 2.10109 0
M  V30 5267 C 480.386 3.36895 0.358733 0
M  V30 5268 C 478.945 3.67887 0.795986 0
M  V30 5269 C 478.092 2.77131 -0.096807 0
M  V30 5270 H 481.043 1.49934 -0.520134 0
M  V30 5271 H 481.064 3.61294 1.19361 0
M  V30 5272 H 480.576 3.83148 -0.617998 0
M  V30 5273 H 478.677 3.27151 1.78334 0
M  V30 5274 H 478.79 4.75114 0.616718 0
M  V30 5275 H 477.154 2.51153 0.423581 0
M  V30 5276 H 477.937 3.26204 -1.06986 0
M  V30 5277 N 480.382 0.0267497 1.57577 0
M  V30 5278 C 481.628 -0.647596 1.92815 0
M  V30 5279 C 481.983 -1.69872 0.903396 0
M  V30 5280 O 481.276 -1.91429 -0.0808881 0
M  V30 5281 C 481.47 -1.30914 3.3256 0
M  V30 5282 C 481.299 -0.323621 4.48534 0
M  V30 5283 C 480.069 0.0756607 5.05243 0
M  V30 5284 C 482.267 0.42112 5.12573 0
M  V30 5285 N 480.249 1.0566 6.04739 0
M  V30 5286 C 481.62 1.25589 6.07147 0
M  V30 5287 C 483.675 0.482077 4.95561 0
M  V30 5288 C 482.378 2.1461 6.86538 0
M  V30 5289 C 484.404 1.35962 5.75559 0
M  V30 5290 C 483.766 2.18217 6.69747 0
M  V30 5291 H 479.865 -0.209357 0.753454 0
M  V30 5292 H 482.449 0.0933695 1.94476 0
M  V30 5293 H 480.62 -2.02026 3.31723 0
M  V30 5294 H 482.352 -1.94033 3.55153 0
M  V30 5295 H 479.107 -0.298294 4.7266 0
M  V30 5296 H 479.531 1.54324 6.59176 0
M  V30 5297 H 484.173 -0.139609 4.22569 0
M  V30 5298 H 481.891 2.77835 7.58837 0
M  V30 5299 H 485.477 1.41105 5.6443 0
M  V30 5300 H 484.357 2.85022 7.3057 0
M  V30 5301 N 481.861 -1.55662 -0.24637 0
M  V30 5302 C 483.107 -1.77782 -0.975779 0
M  V30 5303 C 483.44 -0.592103 -1.84953 0
M  V30 5304 O 482.715 0.409588 -1.90138 0
M  V30 5305 C 482.998 -3.09788 -1.83584 0
M  V30 5306 C 482.851 -4.38764 -0.990241 0
M  V30 5307 C 484.17 -3.38029 -2.81823 0
M  V30 5308 H 481.289 -0.646789 -0.353317 0
M  V30 5309 H 483.931 -1.88398 -0.246248 0
M  V30 5310 H 482.081 -3.00869 -2.45784 0
M  V30 5311 H 483.753 -4.59675 -0.386897 0
M  V30 5312 H 481.996 -4.32798 -0.294626 0
M  V30 5313 H 482.667 -5.27514 -1.62584 0
M  V30 5314 H 485.143 -3.46915 -2.2976 0
M  V30 5315 H 484.019 -4.3161 -3.39122 0
M  V30 5316 H 484.28 -2.58968 -3.58313 0
M  V30 5317 N 483.339 0.512053 -1.4905 0
M  V30 5318 C 484.755 0.84224 -1.35567 0
M  V30 5319 C 484.955 1.97878 -0.380319 0
M  V30 5320 O 484.011 2.51769 0.19201 0
M  V30 5321 C 485.324 1.19286 -2.76028 0
M  V30 5322 C 486.872 1.30171 -2.84648 0
M  V30 5323 C 487.347 1.68568 -4.25851 0
M  V30 5324 N 488.838 1.75638 -4.28609 0
M  V30 5325 C 489.573 2.06769 -5.34821 0
M  V30 5326 N 489.069 2.36201 -6.51292 0
M  V30 5327 N 490.862 2.07927 -5.22229 0
M  V30 5328 H 483.013 -0.237574 -2.11067 0
M  V30 5329 H 485.276 -0.0436747 -0.946993 0
M  V30 5330 H 484.982 0.431199 -3.49047 0
M  V30 5331 H 484.856 2.13889 -3.10695 0
M  V30 5332 H 487.243 2.05411 -2.11873 0
M  V30 5333 H 487.324 0.336457 -2.53578 0
M  V30 5334 H 486.968 0.938824 -4.99148 0
M  V30 5335 H 486.898 2.66174 -4.54377 0
M  V30 5336 H 489.389 1.55097 -3.44606 0
M  V30 5337 H 489.702 2.59112 -7.28066 0
M  V30 5338 H 488.047 2.33681 -6.54536 0
M  V30 5339 H 491.238 1.84403 -4.30248 0
M  V30 5340 H 491.411 2.31856 -6.05101 0
M  V30 5341 N 484.817 1.37938 0.762283 0
M  V30 5342 C 485.78 1.34279 1.85747 0
M  V30 5343 C 486.78 0.244969 1.58923 0
M  V30 5344 O 487.97 0.501365 1.66829 0
M  V30 5345 C 485.102 1.08833 3.23061 0
M  V30 5346 H 486.295 2.31705 1.90401 0
M  V30 5347 H 483.848 1.23105 0.963057 0
M  V30 5348 H 484.583 0.119767 3.24079 0
M  V30 5349 H 484.368 1.88306 3.43923 0
M  V30 5350 H 485.858 1.08946 4.03138 0
M  V30 5351 N 486.295 -0.989507 1.22664 0
M  V30 5352 C 487.243 -2.10148 0.997035 0
M  V30 5353 C 488.237 -1.6929 -0.0609783 0
M  V30 5354 O 489.443 -1.79766 0.0917523 0
M  V30 5355 H 485.818 -0.687256 0.305259 0
M  V30 5356 H 487.789 -2.26685 1.94053 0
M  V30 5357 C 486.538 -3.4257 0.595085 0
M  V30 5358 H 485.861 -3.74453 1.40089 0
M  V30 5359 H 487.301 -4.21344 0.473869 0
M  V30 5360 C 485.76 -3.29638 -0.695725 0
M  V30 5361 O 486.29 -3.61709 -1.74727 0
M  V30 5362 N 484.496 -2.82814 -0.668173 0
M  V30 5363 H 484.043 -2.56914 0.18787 0
M  V30 5364 H 484.001 -2.74544 -1.5321 0
M  V30 5365 N 487.773 -1.03688 -1.18687 0
M  V30 5366 C 488.998 -0.757819 -1.93059 0
M  V30 5367 C 489.423 0.678353 -1.75442 0
M  V30 5368 O 488.781 1.46938 -1.06203 0
M  V30 5369 C 488.829 -1.12423 -3.42627 0
M  V30 5370 O 487.933 -0.247505 -4.11657 0
M  V30 5371 H 487.274 -0.279245 -0.602427 0
M  V30 5372 H 489.804 -1.3857 -1.5053 0
M  V30 5373 H 489.814 -1.08454 -3.93322 0
M  V30 5374 H 488.489 -2.17049 -3.54771 0
M  V30 5375 H 487.066 -0.34649 -3.71287 0
M  V30 5376 N 489.251 1.34841 -0.815825 0
M  V30 5377 C 490.667 1.51543 -0.500697 0
M  V30 5378 C 490.867 1.76261 0.976444 0
M  V30 5379 O 489.923 1.8094 1.76117 0
M  V30 5380 C 491.236 2.68487 -1.35407 0
M  V30 5381 C 492.784 2.82368 -1.35046 0
M  V30 5382 C 493.259 4.02347 -2.18816 0
M  V30 5383 N 494.75 4.09542 -2.16402 0
M  V30 5384 C 495.485 5.01517 -2.77971 0
M  V30 5385 N 494.981 5.98763 -3.48503 0
M  V30 5386 N 496.774 4.94334 -2.67563 0
M  V30 5387 H 488.925 1.17055 -1.77234 0
M  V30 5388 H 491.188 0.573481 -0.754866 0
M  V30 5389 H 490.894 2.56829 -2.40274 0
M  V30 5390 H 490.768 3.63321 -1.01377 0
M  V30 5391 H 493.155 2.93471 -0.309604 0
M  V30 5392 H 493.236 1.88363 -1.73069 0
M  V30 5393 H 492.88 3.92004 -3.22948 0
M  V30 5394 H 492.81 4.95551 -1.78148 0
M  V30 5395 H 495.301 3.39932 -1.65091 0
M  V30 5396 H 495.614 6.6556 -3.92747 0
M  V30 5397 H 493.959 5.98909 -3.52609 0
M  V30 5398 H 497.15 4.1732 -2.12041 0
M  V30 5399 H 497.323 5.6582 -3.15834 0
M  V30 5400 N 490.729 0.570148 1.46925 0
M  V30 5401 C 492.145 0.23087 1.57921 0
M  V30 5402 C 492.345 -1.26676 1.56702 0
M  V30 5403 O 491.401 -2.04774 1.47729 0
M  V30 5404 C 492.714 0.868973 2.8787 0
M  V30 5405 C 494.262 0.841397 3.01479 0
M  V30 5406 C 494.737 1.45881 4.34146 0
M  V30 5407 N 496.228 1.42258 4.40814 0
M  V30 5408 C 496.963 1.8698 5.42057 0
M  V30 5409 N 496.459 2.39618 6.50042 0
M  V30 5410 N 498.252 1.77972 5.33181 0
M  V30 5411 H 490.403 1.54301 1.45962 0
M  V30 5412 H 492.666 0.644224 0.69547 0
M  V30 5413 H 492.372 1.922 2.94537 0
M  V30 5414 H 492.246 0.369682 3.75384 0
M  V30 5415 H 494.633 -0.202973 2.94401 0
M  V30 5416 H 494.714 1.37858 2.15474 0
M  V30 5417 H 494.358 2.50231 4.4198 0
M  V30 5418 H 494.288 0.896958 5.18905 0
M  V30 5419 H 496.779 1.03768 3.63374 0
M  V30 5420 H 497.092 2.71633 7.23488 0
M  V30 5421 H 495.437 2.43636 6.50897 0
M  V30 5422 H 498.628 1.36617 4.4772 0
M  V30 5423 H 498.801 2.13143 6.11943 0
M  V30 5424 N 492.207 -1.54576 0.307264 0
M  V30 5425 C 493.453 -2.0056 -0.300612 0
M  V30 5426 C 493.786 -1.1953 -1.53057 0
M  V30 5427 O 493.061 -0.27337 -1.92569 0
M  V30 5428 C 493.344 -3.54167 -0.650987 0
M  V30 5429 C 493.197 -4.45933 0.588539 0
M  V30 5430 C 494.516 -4.14645 -1.47506 0
M  V30 5431 H 491.635 -0.729075 -0.107788 0
M  V30 5432 H 494.277 -1.85286 0.420606 0
M  V30 5433 H 492.427 -3.67313 -1.26544 0
M  V30 5434 H 494.099 -4.44683 1.22697 0
M  V30 5435 H 492.342 -4.16274 1.22058 0
M  V30 5436 H 493.013 -5.51189 0.299153 0
M  V30 5437 H 495.489 -4.04973 -0.955821 0
M  V30 5438 H 494.365 -5.22269 -1.68899 0
M  V30 5439 H 494.626 -3.66921 -2.4662 0
M  V30 5440 N 493.685 -0.035106 -1.57561 0
M  V30 5441 C 494.615 0.942993 -2.13612 0
M  V30 5442 C 495.596 1.33531 -1.05373 0
M  V30 5443 O 496.781 1.41287 -1.33235 0
M  V30 5444 C 493.911 2.22332 -2.66807 0
M  V30 5445 C 492.865 1.97156 -3.79886 0
M  V30 5446 C 492.191 3.31506 -4.19533 0
M  V30 5447 C 493.491 1.30596 -5.05709 0
M  V30 5448 H 495.185 0.476179 -2.95589 0
M  V30 5449 H 492.731 0.227602 -1.4219 0
M  V30 5450 H 494.684 2.91142 -3.04654 0
M  V30 5451 H 493.408 2.7119 -1.81999 0
M  V30 5452 H 492.067 1.30763 -3.42486 0
M  V30 5453 H 491.715 3.78134 -3.31698 0
M  V30 5454 H 491.415 3.15465 -4.95738 0
M  V30 5455 H 492.939 4.01574 -4.59968 0
M  V30 5456 H 494.353 1.89416 -5.41105 0
M  V30 5457 H 492.75 1.24934 -5.86951 0
M  V30 5458 H 493.82 0.279742 -4.84092 0
M  V30 5459 N 495.163 1.55791 0.238111 0
M  V30 5460 C 496.574 1.68383 0.806472 0
M  V30 5461 C 496.925 0.634157 1.85669 0
M  V30 5462 O 496.05 -0.217913 2.153 0
M  V30 5463 C 496.645 3.05268 1.46959 0
M  V30 5464 C 495.204 3.1977 1.98555 0
M  V30 5465 C 494.351 2.64279 0.839763 0
M  V30 5466 H 497.302 1.58694 0.0137535 0
M  V30 5467 H 497.323 3.00203 2.33792 0
M  V30 5468 H 496.835 3.81643 0.704993 0
M  V30 5469 H 494.936 2.48234 2.77868 0
M  V30 5470 H 495.049 4.26788 2.17689 0
M  V30 5471 H 493.413 2.22329 1.24265 0
M  V30 5472 H 494.196 3.43187 0.0881032 0
M  V30 5473 N 496.642 -0.504142 1.49319 0
M  V30 5474 C 498.053 -1.08572 1.51885 0
M  V30 5475 C 498.404 -1.93842 0.303255 0
M  V30 5476 O 497.529 -2.0828 -0.58724 0
M  V30 5477 C 498.124 -1.97574 2.75227 0
M  V30 5478 C 496.683 -2.509 2.80581 0
M  V30 5479 C 495.83 -1.28447 2.45757 0
M  V30 5480 H 498.781 -0.288194 1.56061 0
M  V30 5481 H 498.802 -2.82219 2.55211 0
M  V30 5482 H 498.314 -1.35486 3.63683 0
M  V30 5483 H 496.415 -3.16636 1.96398 0
M  V30 5484 H 496.528 -2.88268 3.82673 0
M  V30 5485 H 494.892 -1.60868 1.97468 0
M  V30 5486 H 495.675 -0.68072 3.36483 0
M  V30 5487 N 498.12 -1.38341 -0.754957 0
M  V30 5488 C 499.345 -1.37882 -1.5493 0
M  V30 5489 C 499.77 0.0296385 -1.88077 0
M  V30 5490 O 499.128 1.01133 -1.50472 0
M  V30 5491 C 499.176 -2.23996 -2.82592 0
M  V30 5492 O 498.28 -1.65612 -3.77686 0
M  V30 5493 H 497.621 -0.470384 -0.468652 0
M  V30 5494 H 500.151 -1.82084 -0.933082 0
M  V30 5495 H 500.161 -2.37806 -3.3153 0
M  V30 5496 H 498.836 -3.26365 -2.57796 0
M  V30 5497 H 497.413 -1.60936 -3.36384 0
M  V30 5498 N 499.598 0.982988 -1.23187 0
M  V30 5499 C 500.561 2.05649 -1.01198 0
M  V30 5500 C 501.561 1.6078 0.0252464 0
M  V30 5501 O 502.751 1.72878 -0.214243 0
M  V30 5502 C 499.883 3.36744 -0.530656 0
M  V30 5503 H 501.076 2.2659 -1.96461 0
M  V30 5504 H 498.629 1.15602 -1.05195 0
M  V30 5505 H 499.364 3.21492 0.425873 0
M  V30 5506 H 499.149 3.7065 -1.2791 0
M  V30 5507 H 500.639 4.15705 -0.397366 0
M  V30 5508 N 501.076 1.04316 1.18135 0
M  V30 5509 C 502.006 0.657299 2.24058 0
M  V30 5510 C 502.987 -0.340678 1.66654 0
M  V30 5511 O 504.172 -0.220223 1.92947 0
M  V30 5512 C 501.302 0.0220715 3.47293 0
M  V30 5513 C 500.256 0.943857 4.17463 0
M  V30 5514 C 499.582 0.172973 5.3442 0
M  V30 5515 C 500.882 2.26409 4.70677 0
M  V30 5516 H 502.576 1.5428 2.56589 0
M  V30 5517 H 500.122 0.743263 1.23335 0
M  V30 5518 H 502.075 -0.259607 4.206 0
M  V30 5519 H 500.799 -0.898323 3.14003 0
M  V30 5520 H 499.458 1.20996 3.46057 0
M  V30 5521 H 499.106 -0.749907 4.97379 0
M  V30 5522 H 498.806 0.787098 5.82304 0
M  V30 5523 H 500.33 -0.101628 6.10515 0
M  V30 5524 H 501.744 2.04294 5.35665 0
M  V30 5525 H 500.141 2.8314 5.29105 0
M  V30 5526 H 501.211 2.90883 3.87962 0
M  V30 5527 N 502.554 -1.34406 0.822964 0
M  V30 5528 C 503.486 -2.28305 0.202375 0
M  V30 5529 C 504.499 -1.5103 -0.60777 0
M  V30 5530 O 505.688 -1.73057 -0.437444 0
M  V30 5531 C 502.788 -3.30836 -0.734911 0
M  V30 5532 C 501.961 -4.37388 0.0324177 0
M  V30 5533 C 501.02 -5.1968 -0.825803 0
M  V30 5534 O 500.046 -5.68556 -0.270771 0
M  V30 5535 N 501.248 -5.39393 -2.14558 0
M  V30 5536 H 504.013 -2.82201 1.00909 0
M  V30 5537 H 501.574 -1.4693 0.67993 0
M  V30 5538 H 503.566 -3.82786 -1.31365 0
M  V30 5539 H 502.136 -2.77334 -1.44238 0
M  V30 5540 H 501.356 -3.86152 0.792469 0
M  V30 5541 H 502.644 -5.05702 0.560633 0
M  V30 5542 H 502.042 -5.01357 -2.62025 0
M  V30 5543 H 500.599 -5.94461 -2.67318 0
M  V30 5544 N 504.032 -0.577932 -1.46621 0
M  V30 5545 C 505.257 -0.0652536 -2.07297 0
M  V30 5546 C 505.682 1.22828 -1.4246 0
M  V30 5547 O 505.04 1.74075 -0.506718 0
M  V30 5548 C 505.088 0.0920589 -3.60482 0
M  V30 5549 O 504.192 1.14972 -3.96049 0
M  V30 5550 H 503.533 -0.06065 -0.661224 0
M  V30 5551 H 506.063 -0.799515 -1.88332 0
M  V30 5552 H 506.073 0.299741 -4.06897 0
M  V30 5553 H 504.748 -0.852612 -4.07067 0
M  V30 5554 H 503.325 0.920879 -3.61351 0
M  V30 5555 N 505.51 1.54411 -0.315457 0
M  V30 5556 C 506.756 2.00716 0.289972 0
M  V30 5557 C 507.089 1.2034 1.5242 0
M  V30 5558 O 506.364 0.283579 1.92422 0
M  V30 5559 C 506.647 3.54507 0.632196 0
M  V30 5560 C 506.5 4.45615 -0.61218 0
M  V30 5561 C 507.819 4.15421 1.45305 0
M  V30 5562 H 504.938 0.729637 0.10392 0
M  V30 5563 H 507.58 1.8506 -0.430427 0
M  V30 5564 H 505.73 3.67979 1.24595 0
M  V30 5565 H 507.402 4.44026 -1.25053 0
M  V30 5566 H 505.645 4.15621 -1.24264 0
M  V30 5567 H 506.316 5.51022 -0.328379 0
M  V30 5568 H 508.792 4.05474 0.934331 0
M  V30 5569 H 507.668 5.23157 1.66127 0
M  V30 5570 H 507.929 3.68223 2.44671 0
M  V30 5571 N 506.988 0.0434614 1.5754 0
M  V30 5572 C 507.951 -0.918696 2.09982 0
M  V30 5573 C 508.951 -1.24488 1.01781 0
M  V30 5574 O 510.141 -1.18284 1.27885 0
M  V30 5575 C 507.273 -2.23093 2.57764 0
M  V30 5576 H 508.466 -0.464229 2.96285 0
M  V30 5577 H 506.019 -0.204818 1.54952 0
M  V30 5578 H 506.754 -2.73137 1.74832 0
M  V30 5579 H 506.539 -2.00724 3.36827 0
M  V30 5580 H 508.029 -2.92028 2.98512 0
M  V30 5581 O 508.505 -1.61203 -0.0978465 0
M  V30 5582 H 509.196 -1.79548 -0.726781 0
M  V30 END ATOM
M  V30 BEGIN BOND
M  V30 END BOND
M  V30 END CTAB
M  END
$$$$
