drugbank_target|P06986 Histidinol-phosphate aminotransferase (DB01813; DB02142; DB03997)
 OpenBabel12092119533D

  0  0  0     0  0            999 V3000
M  V30 BEGIN CTAB
M  V30 COUNTS 5556 5607 0 0 0
M  V30 BEGIN ATOM
M  V30 1 H -0.908 1.98254 -0.117106 0
M  V30 2 N 0 1.576 0 0
M  V30 3 C 0.933 2.03868 1.02534 0
M  V30 4 C 1.911 0.928543 1.3348 0
M  V30 5 O 3.095 1.19667 1.45644 0
M  V30 6 C 0.222 2.43627 2.35294 0
M  V30 7 C -0.732 3.65373 2.2001 0
M  V30 8 S 0.101 5.13292 1.52614 0
M  V30 9 C 1.257 5.56322 2.86805 0
M  V30 10 H 1.49 2.90518 0.631377 0
M  V30 11 H -0.977 1.52953 0.210867 0
M  V30 12 H 0.981 2.67203 3.11629 0
M  V30 13 H -0.358 1.57376 2.7183 0
M  V30 14 H -1.165 3.90944 3.18086 0
M  V30 15 H -1.563 3.418 1.51819 0
M  V30 16 H 0.729 5.58782 3.83104 0
M  V30 17 H 1.672 6.56266 2.65933 0
M  V30 18 H 2.08 4.83886 2.90714 0
M  V30 19 N 1.4781 -0.272755 1.55222 0
M  V30 20 C 2.7031 -1.02683 1.80197 0
M  V30 21 C 3.1281 -1.79142 0.573551 0
M  V30 22 O 2.4861 -1.74917 -0.476849 0
M  V30 23 C 2.5341 -1.9609 3.02624 0
M  V30 24 O 1.6381 -3.04863 2.77727 0
M  V30 25 H 0.9791 -0.293557 0.595584 0
M  V30 26 H 3.5091 -0.30159 2.02365 0
M  V30 27 H 3.5191 -2.38039 3.31363 0
M  V30 28 H 2.1941 -1.39851 3.91682 0
M  V30 29 H 0.7711 -2.67228 2.60084 0
M  V30 30 N 2.9562 -1.48159 -0.537278 0
M  V30 31 C 4.1842 -1.59454 -1.31841 0
M  V30 32 C 4.5992 -0.252065 -1.8711 0
M  V30 33 O 3.9562 0.757621 -1.66031 0
M  V30 34 C 4.0072 -2.63546 -2.47439 0
M  V30 35 O 3.7282 -3.92583 -1.94449 0
M  V30 36 C 5.2292 -2.85212 -3.39366 0
M  V30 37 H 2.4492 -0.53785 -0.401196 0
M  V30 38 H 4.9932 -1.93932 -0.648891 0
M  V30 39 H 3.1482 -2.31946 -3.1029 0
M  V30 40 H 3.5622 -4.49629 -2.70063 0
M  V30 41 H 5.0362 -3.61863 -4.16844 0
M  V30 42 H 5.5132 -1.93765 -3.94147 0
M  V30 43 H 6.1192 -3.18086 -2.82314 0
M  V30 44 N 4.4343 0.785586 -1.36625 0
M  V30 45 C 5.6803 1.54591 -1.31261 0
M  V30 46 C 6.0133 1.93906 0.106823 0
M  V30 47 O 5.2883 1.63007 1.06108 0
M  V30 48 C 5.5713 2.82038 -2.23889 0
M  V30 49 C 5.4243 2.49066 -3.74548 0
M  V30 50 C 6.7433 3.83887 -2.15217 0
M  V30 51 H 3.8623 0.560846 -0.478143 0
M  V30 52 H 6.5043 0.902278 -1.67209 0
M  V30 53 H 4.6543 3.36961 -1.93363 0
M  V30 54 H 6.3263 2.00164 -4.15611 0
M  V30 55 H 4.5693 1.81954 -3.93796 0
M  V30 56 H 5.2403 3.40109 -4.34776 0
M  V30 57 H 7.7163 3.38421 -2.42096 0
M  V30 58 H 6.5923 4.70806 -2.82193 0
M  V30 59 H 6.8533 4.27131 -1.14068 0
M  V30 60 N 5.9124 1.20967 1.01018 0
M  V30 61 C 7.1404 1.04956 1.78303 0
M  V30 62 C 7.5554 -0.400915 1.84494 0
M  V30 63 O 6.9124 -1.27826 1.30257 0
M  V30 64 C 6.9634 1.63403 3.22462 0
M  V30 65 O 6.6844 3.02775 3.16637 0
M  V30 66 C 8.1854 1.52432 4.16268 0
M  V30 67 H 5.4054 0.368858 0.560522 0
M  V30 68 H 7.9494 1.60193 1.27116 0
M  V30 69 H 6.1044 1.1227 3.70775 0
M  V30 70 H 6.5184 3.30626 4.07169 0
M  V30 71 H 7.9924 1.98078 5.15237 0
M  V30 72 H 8.4694 0.477875 4.36592 0
M  V30 73 H 9.0754 2.02787 3.73841 0
M  V30 74 N 7.3905 -1.2043 1.01659 0
M  V30 75 C 8.6395 -1.89118 0.701237 0
M  V30 76 C 8.9525 -1.79705 -0.772358 0
M  V30 77 O 10.1585 -2.43528 -1.20026 0
M  V30 78 C 8.6145 -3.39168 1.20388 0
M  V30 79 C 8.2225 -3.57166 2.70438 0
M  V30 80 C 9.9665 -4.1341 0.963953 0
M  V30 81 C 7.8735 -5.01042 3.14183 0
M  V30 82 H 6.8035 -0.708267 0.2586 0
M  V30 83 H 9.4545 -1.36239 1.22927 0
M  V30 84 H 7.8365 -3.91369 0.603824 0
M  V30 85 H 9.0105 -3.15351 3.35992 0
M  V30 86 H 7.3255 -2.96294 2.92572 0
M  V30 87 H 9.9225 -5.19491 1.26621 0
M  V30 88 H 10.2655 -4.16181 -0.099578 0
M  V30 89 H 10.7985 -3.67309 1.52738 0
M  V30 90 H 7.5375 -5.03426 4.19812 0
M  V30 91 H 7.0575 -5.43668 2.53348 0
M  V30 92 H 8.7365 -5.69623 3.0682 0
M  V30 93 N 8.8686 -0.792821 -1.36206 0
M  V30 94 C 10.0966 -0.378825 -2.03402 0
M  V30 95 C 10.5116 1.00586 -1.59774 0
M  V30 96 O 9.8686 1.64574 -0.788764 0
M  V30 97 C 9.9196 -0.43683 -3.58851 0
M  V30 98 O 9.6406 -1.76691 -4.00889 0
M  V30 99 C 11.1416 -0.0138943 -4.43298 0
M  V30 100 H 8.3616 -0.155673 -0.652692 0
M  V30 101 H 10.9056 -1.07261 -1.74113 0
M  V30 102 H 9.0606 0.208575 -3.86838 0
M  V30 103 H 9.4746 -1.72011 -4.95492 0
M  V30 104 H 10.9486 -0.105615 -5.51899 0
M  V30 105 H 11.4256 1.03915 -4.2673 0
M  V30 106 H 12.0316 -0.63192 -4.20579 0
M  V30 107 N 10.3467 1.47872 -0.545128 0
M  V30 108 C 11.6237 1.9554 0.0485222 0
M  V30 109 C 12.0037 1.4876 1.49779 0
M  V30 110 O 11.3517 0.720925 2.16829 0
M  V30 111 C 11.5617 3.48898 -0.084417 0
M  V30 112 C 12.9097 4.24547 0.0671239 0
M  V30 113 O 13.9337 3.56198 -0.0113649 0
M  V30 114 O 12.7927 5.45999 0.233882 0
M  V30 115 H 9.8867 0.823957 0.0708773 0
M  V30 116 H 12.4327 1.58327 -0.610798 0
M  V30 117 H 11.2047 3.75714 -1.09337 0
M  V30 118 H 10.8277 3.92845 0.613066 0
M  V30 119 N 11.8248 0.280983 1.55075 0
M  V30 120 C 12.7548 -0.597469 2.25727 0
M  V30 121 C 13.7358 -1.15417 1.24952 0
M  V30 122 O 14.9208 -1.18722 1.53684 0
M  V30 123 C 12.0508 -1.7789 2.98283 0
M  V30 124 C 11.0048 -1.35347 4.06036 0
M  V30 125 C 10.3308 -2.61846 4.66198 0
M  V30 126 C 11.6308 -0.499354 5.19907 0
M  V30 127 H 13.3248 -0.00824265 2.99399 0
M  V30 128 H 10.8708 -0.0025244 1.44 0
M  V30 129 H 12.8238 -2.39937 3.46422 0
M  V30 130 H 11.5478 -2.39405 2.22155 0
M  V30 131 H 10.2068 -0.756156 3.58717 0
M  V30 132 H 9.8548 -3.21632 3.86732 0
M  V30 133 H 9.5548 -2.3409 5.38958 0
M  V30 134 H 11.0788 -3.24732 5.1709 0
M  V30 135 H 12.4928 -1.02498 5.64063 0
M  V30 136 H 10.8898 -0.316424 5.99265 0
M  V30 137 H 11.9598 0.480459 4.82514 0
M  V30 138 N 13.3029 -1.57598 0.00835791 0
M  V30 139 C 14.2659 -2.07884 -0.965242 0
M  V30 140 C 15.2659 -0.989825 -1.26725 0
M  V30 141 O 16.4559 -1.25218 -1.21104 0
M  V30 142 C 13.5879 -2.52731 -2.28779 0
M  V30 143 H 14.7809 -2.95178 -0.530112 0
M  V30 144 H 12.3339 -1.54458 -0.239283 0
M  V30 145 H 13.0689 -1.68705 -2.76964 0
M  V30 146 H 12.8539 -3.32272 -2.08177 0
M  V30 147 H 14.3439 -2.91933 -2.98605 0
M  V30 148 N 14.781 0.264519 -1.55364 0
M  V30 149 C 16.197 0.61215 -1.47394 0
M  V30 150 C 16.397 1.89134 -0.695018 0
M  V30 151 O 15.453 2.51563 -0.217275 0
M  V30 152 C 16.766 0.731235 -2.91674 0
M  V30 153 C 18.314 0.82473 -3.01939 0
M  V30 154 C 18.789 0.975522 -4.4749 0
M  V30 155 N 20.28 1.04083 -4.51354 0
M  V30 156 C 21.015 1.17646 -5.61201 0
M  V30 157 N 20.511 1.27874 -6.80896 0
M  V30 158 N 22.304 1.20823 -5.48961 0
M  V30 159 H 14.455 -0.575456 -2.04456 0
M  V30 160 H 16.718 -0.196099 -0.927496 0
M  V30 161 H 16.424 -0.138392 -3.51428 0
M  V30 162 H 16.298 1.60883 -3.41169 0
M  V30 163 H 18.685 1.68482 -2.42276 0
M  V30 164 H 18.766 -0.0776479 -2.55682 0
M  V30 165 H 18.41 0.120058 -5.07758 0
M  V30 166 H 18.34 1.89268 -4.91412 0
M  V30 167 H 20.831 0.973846 -3.65136 0
M  V30 168 H 21.144 1.38081 -7.60364 0
M  V30 169 H 19.489 1.24863 -6.83692 0
M  V30 170 H 22.68 1.12469 -4.54388 0
M  V30 171 H 22.853 1.31049 -6.3461 0
M  V30 172 N 16.2591 1.48442 0.529413 0
M  V30 173 C 17.1691 1.6569 1.66084 0
M  V30 174 C 18.1851 0.539432 1.65427 0
M  V30 175 O 19.3611 0.810572 1.84368 0
M  V30 176 C 16.4261 1.69315 3.02545 0
M  V30 177 C 15.4871 2.92694 3.14052 0
M  V30 178 C 14.7201 2.96137 4.44003 0
M  V30 179 O 14.9431 2.07973 5.31134 0
M  V30 180 O 13.8771 3.88312 4.59888 0
M  V30 181 H 17.7031 2.61483 1.54469 0
M  V30 182 H 15.2881 1.3185 0.702567 0
M  V30 183 H 17.1701 1.74217 3.83701 0
M  V30 184 H 15.8451 0.766966 3.14483 0
M  V30 185 H 14.7521 2.93324 2.32189 0
M  V30 186 H 16.0851 3.84699 3.0703 0
M  V30 187 N 17.7372 -0.778329 1.37039 0
M  V30 188 C 18.6852 -1.91278 1.32345 0
M  V30 189 C 19.6792 -1.68051 0.213331 0
M  V30 190 O 20.8852 -1.75922 0.38098 0
M  V30 191 H 17.2602 -0.628909 0.412283 0
M  V30 192 H 19.2312 -1.92355 2.28127 0
M  V30 193 C 17.9802 -3.28455 1.14073 0
M  V30 194 H 17.3032 -3.46901 1.98746 0
M  V30 195 H 18.7432 -4.08152 1.14837 0
M  V30 196 C 17.2022 -3.36548 -0.154015 0
M  V30 197 O 17.7322 -3.85186 -1.13993 0
M  V30 198 N 15.9382 -2.89894 -0.202475 0
M  V30 199 H 15.4852 -2.50504 0.600476 0
M  V30 200 H 15.4432 -2.9569 -1.06841 0
M  V30 201 N 19.2153 -1.21501 -1.00376 0
M  V30 202 C 20.4613 -1.03452 -1.74429 0
M  V30 203 C 20.7943 0.430764 -1.89362 0
M  V30 204 O 20.0693 1.31962 -1.42886 0
M  V30 205 C 20.3523 -1.73375 -3.15615 0
M  V30 206 C 20.2053 -3.27431 -3.08397 0
M  V30 207 C 21.5243 -1.47732 -4.14564 0
M  V30 208 H 18.6433 -0.377226 -0.633143 0
M  V30 209 H 21.2853 -1.49693 -1.17013 0
M  V30 210 H 19.4353 -1.34064 -3.64636 0
M  V30 211 H 21.1073 -3.76119 -2.67081 0
M  V30 212 H 19.3503 -3.5767 -2.45468 0
M  V30 213 H 20.0213 -3.71524 -4.08258 0
M  V30 214 H 22.4973 -1.8186 -3.74254 0
M  V30 215 H 21.3733 -1.99169 -5.11491 0
M  V30 216 H 21.6343 -0.407589 -4.40217 0
M  V30 217 N 20.6934 1.19889 -1.02296 0
M  V30 218 C 22.1094 1.41462 -0.738954 0
M  V30 219 C 22.3094 1.89721 0.678846 0
M  V30 220 O 21.3654 2.07016 1.4457 0
M  V30 221 C 22.6784 2.43083 -1.77005 0
M  V30 222 C 24.2264 2.5684 -1.78892 0
M  V30 223 C 24.7014 3.61709 -2.80945 0
M  V30 224 N 26.1924 3.69199 -2.79725 0
M  V30 225 C 26.9274 4.50019 -3.55345 0
M  V30 226 N 26.4234 5.34592 -4.40662 0
M  V30 227 N 28.2164 4.44612 -3.43914 0
M  V30 228 H 20.3674 0.868827 -1.93817 0
M  V30 229 H 22.6304 0.44399 -0.837602 0
M  V30 230 H 22.3364 2.14636 -2.78612 0
M  V30 231 H 22.2104 3.4217 -1.58744 0
M  V30 232 H 24.5974 2.84614 -0.779674 0
M  V30 233 H 24.6784 1.57927 -2.01228 0
M  V30 234 H 24.3224 3.34678 -3.82038 0
M  V30 235 H 24.2524 4.60259 -2.5587 0
M  V30 236 H 26.7434 3.08794 -2.17842 0
M  V30 237 H 27.0564 5.93363 -4.95116 0
M  V30 238 H 25.4014 5.34073 -4.44737 0
M  V30 239 H 28.5924 3.7758 -2.76679 0
M  V30 240 H 28.7654 5.0736 -4.031 0
M  V30 241 N 22.1715 0.800033 1.35784 0
M  V30 242 C 23.1195 0.193851 2.31791 0
M  V30 243 C 24.1135 -0.652744 1.56319 0
M  V30 244 O 25.3195 -0.546641 1.71499 0
M  V30 245 H 21.6945 0.04392 0.750716 0
M  V30 246 H 23.6655 1.01883 2.80468 0
M  V30 247 C 22.4145 -0.648338 3.41602 0
M  V30 248 H 21.7375 -0.00624665 3.998 0
M  V30 249 H 23.1775 -1.03898 4.11073 0
M  V30 250 C 21.6365 -1.8111 2.84079 0
M  V30 251 O 22.1665 -2.90825 2.77099 0
M  V30 252 N 20.3725 -1.62056 2.41218 0
M  V30 253 H 19.9195 -0.728123 2.47095 0
M  V30 254 H 19.8775 -2.40013 2.03079 0
M  V30 255 N 23.6496 -1.47581 0.552962 0
M  V30 256 C 24.5796 -2.32762 -0.185451 0
M  V30 257 C 25.5606 -1.43527 -0.912905 0
M  V30 258 O 26.7456 -1.72388 -0.894201 0
M  V30 259 C 23.8756 -3.25219 -1.21859 0
M  V30 260 C 22.8296 -4.23661 -0.607864 0
M  V30 261 C 22.1556 -5.05413 -1.74533 0
M  V30 262 C 23.4556 -5.20481 0.435582 0
M  V30 263 H 25.1496 -2.94749 0.525684 0
M  V30 264 H 22.6956 -1.41738 0.254251 0
M  V30 265 H 24.6486 -3.8365 -1.7433 0
M  V30 266 H 23.3726 -2.61279 -1.95961 0
M  V30 267 H 22.0316 -3.66451 -0.104489 0
M  V30 268 H 21.6796 -4.3788 -2.47529 0
M  V30 269 H 21.3796 -5.72059 -1.34249 0
M  V30 270 H 22.9036 -5.66701 -2.27338 0
M  V30 271 H 24.3176 -5.733 -0.00290157 0
M  V30 272 H 22.7146 -5.95305 0.757067 0
M  V30 273 H 23.7846 -4.66217 1.33303 0
M  V30 274 N 25.1277 -0.289203 -1.54924 0
M  V30 275 C 26.3557 0.326463 -2.04308 0
M  V30 276 C 26.7707 1.48413 -1.16701 0
M  V30 277 O 26.1277 1.81507 -0.190087 0
M  V30 278 C 26.1787 0.794014 -3.52672 0
M  V30 279 O 25.8997 -0.317564 -4.36948 0
M  V30 280 C 27.4007 1.47605 -4.18004 0
M  V30 281 H 24.6207 0.0726272 -0.667058 0
M  V30 282 H 27.1647 -0.425401 -2.00026 0
M  V30 283 H 25.3197 1.49593 -3.57352 0
M  V30 284 H 25.7337 0.0443186 -5.24481 0
M  V30 285 H 27.2077 1.75447 -5.23376 0
M  V30 286 H 27.6847 2.41224 -3.67025 0
M  V30 287 H 28.2907 0.81762 -4.17367 0
M  V30 288 N 26.6058 1.57591 -0.0167156 0
M  V30 289 C 28.0168 1.79201 0.523834 0
M  V30 290 C 28.3678 0.925796 1.72984 0
M  V30 291 O 27.4928 0.132792 2.15992 0
M  V30 292 C 28.0878 3.25 0.957091 0
M  V30 293 C 26.6468 3.47648 1.44283 0
M  V30 294 C 25.7938 2.74374 0.401757 0
M  V30 295 H 28.7448 1.56831 -0.242816 0
M  V30 296 H 28.7658 3.34031 1.82219 0
M  V30 297 H 28.2778 3.88019 0.0791415 0
M  V30 298 H 26.3788 2.89866 2.34113 0
M  V30 299 H 26.4918 4.56352 1.45877 0
M  V30 300 H 24.8558 2.39485 0.867121 0
M  V30 301 H 25.6388 3.40102 -0.467513 0
M  V30 302 N 28.0839 -0.256276 1.55502 0
M  V30 303 C 29.3139 -1.00196 1.80677 0
M  V30 304 C 29.7219 -1.79805 0.588797 0
M  V30 305 O 29.0649 -1.78055 -0.451883 0
M  V30 306 C 29.1269 -1.99515 2.99055 0
M  V30 307 C 28.7909 -1.38688 4.35448 0
M  V30 308 C 29.7879 -0.794079 5.138 0
M  V30 309 C 27.4729 -1.40906 4.82132 0
M  V30 310 C 29.4669 -0.231562 6.36979 0
M  V30 311 C 27.1539 -0.842684 6.05262 0
M  V30 312 C 28.1519 -0.254953 6.82524 0
M  V30 313 O 27.8399 0.3027 8.0333 0
M  V30 314 H 27.5719 -0.300919 0.60533 0
M  V30 315 H 30.1259 -0.287307 2.03381 0
M  V30 316 H 28.3559 -2.74785 2.72084 0
M  V30 317 H 30.0449 -2.60349 3.11405 0
M  V30 318 H 30.8109 -0.769519 4.78856 0
M  V30 319 H 26.6899 -1.85591 4.21992 0
M  V30 320 H 30.2339 0.227816 6.97228 0
M  V30 321 H 26.1309 -0.86454 6.39684 0
M  V30 322 H 26.8989 0.193662 8.18271 0
M  V30 323 N 29.562 -1.4872 -0.521534 0
M  V30 324 C 30.494 -1.59968 -1.64143 0
M  V30 325 C 31.507 -0.483463 -1.55456 0
M  V30 326 O 32.696 -0.75467 -1.61762 0
M  V30 327 C 29.796 -1.52127 -3.02838 0
M  V30 328 C 28.969 -2.78932 -3.36921 0
M  V30 329 C 28.028 -2.64428 -4.54933 0
M  V30 330 O 27.054 -3.38331 -4.57735 0
M  V30 331 N 28.256 -1.74606 -5.53618 0
M  V30 332 H 31.021 -2.56548 -1.54929 0
M  V30 333 H 28.582 -1.45551 -0.708988 0
M  V30 334 H 30.574 -1.40106 -3.79674 0
M  V30 335 H 29.144 -0.634868 -3.06085 0
M  V30 336 H 28.364 -3.05455 -2.4918 0
M  V30 337 H 29.652 -3.63041 -3.56481 0
M  V30 338 H 29.05 -1.13782 -5.54139 0
M  V30 339 H 27.607 -1.6852 -6.29638 0
M  V30 340 N 31.0401 0.771051 -1.3745 0
M  V30 341 C 32.2651 1.56529 -1.36065 0
M  V30 342 C 32.6901 1.88029 0.0515859 0
M  V30 343 O 32.0481 1.49282 1.02882 0
M  V30 344 C 32.0961 2.85187 -2.20683 0
M  V30 345 O 31.2001 3.79593 -1.61193 0
M  V30 346 H 30.5411 0.47411 -0.464883 0
M  V30 347 H 33.0711 0.954269 -1.80983 0
M  V30 348 H 33.0811 3.34283 -2.33921 0
M  V30 349 H 31.7561 2.61588 -3.23334 0
M  V30 350 H 30.3331 3.38239 -1.56999 0
M  V30 351 N 32.5182 1.22032 0.997298 0
M  V30 352 C 33.4812 0.987909 2.06816 0
M  V30 353 C 34.4812 -0.0440084 1.6074 0
M  V30 354 O 35.6712 0.194053 1.73116 0
M  V30 355 C 32.8032 0.49132 3.37341 0
M  V30 356 H 33.9962 1.93803 2.28868 0
M  V30 357 H 31.5492 1.03838 1.16822 0
M  V30 358 H 32.2842 -0.463364 3.20973 0
M  V30 359 H 32.0692 1.23575 3.72118 0
M  V30 360 H 33.5592 0.348824 4.16141 0
M  V30 361 N 33.9963 -1.19345 1.0293 0
M  V30 362 C 35.4123 -1.41069 0.746446 0
M  V30 363 C 35.6123 -1.90078 -0.668776 0
M  V30 364 O 34.6683 -2.0778 -1.4347 0
M  V30 365 C 35.9813 -2.42141 1.78292 0
M  V30 366 C 37.5293 -2.55887 1.80252 0
M  V30 367 C 38.0043 -3.60214 2.8286 0
M  V30 368 N 39.4953 -3.67711 2.81679 0
M  V30 369 C 40.2303 -4.48128 3.57727 0
M  V30 370 N 39.7263 -5.32248 4.43491 0
M  V30 371 N 41.5193 -4.42782 3.46267 0
M  V30 372 H 33.6703 -0.858536 1.94275 0
M  V30 373 H 35.9333 -0.439541 0.839945 0
M  V30 374 H 35.6393 -2.13155 2.79746 0
M  V30 375 H 35.5133 -3.41323 1.60557 0
M  V30 376 H 37.9003 -2.84196 0.794757 0
M  V30 377 H 37.9813 -1.56858 2.02062 0
M  V30 378 H 37.6253 -3.32647 3.83807 0
M  V30 379 H 37.5553 -4.58895 2.58307 0
M  V30 380 H 40.0463 -3.07634 2.19476 0
M  V30 381 H 40.3593 -5.90729 4.98256 0
M  V30 382 H 38.7043 -5.31707 4.47564 0
M  V30 383 H 41.8953 -3.76107 2.78677 0
M  V30 384 H 42.0683 -5.05215 4.05785 0
M  V30 385 N 35.4744 -0.807222 -1.35358 0
M  V30 386 C 36.8904 -0.491038 -1.51858 0
M  V30 387 C 37.0904 0.987648 -1.75635 0
M  V30 388 O 36.1464 1.77265 -1.79815 0
M  V30 389 C 37.4594 -1.33695 -2.69344 0
M  V30 390 C 39.0074 -1.33246 -2.83222 0
M  V30 391 C 39.4824 -2.1625 -4.03733 0
M  V30 392 N 40.9734 -2.1379 -4.10911 0
M  V30 393 C 41.7084 -2.74772 -5.03277 0
M  V30 394 N 41.2044 -3.44684 -6.0097 0
M  V30 395 N 42.9974 -2.6441 -4.96028 0
M  V30 396 H 35.1484 -1.76485 -1.18181 0
M  V30 397 H 37.4114 -0.751199 -0.578276 0
M  V30 398 H 37.1174 -2.38634 -2.58354 0
M  V30 399 H 36.9914 -0.990618 -3.6396 0
M  V30 400 H 39.3784 -0.290911 -2.93663 0
M  V30 401 H 39.4594 -1.71866 -1.89461 0
M  V30 402 H 39.1034 -3.20445 -3.94052 0
M  V30 403 H 39.0334 -1.74989 -4.96675 0
M  V30 404 H 41.5244 -1.62923 -3.40976 0
M  V30 405 H 41.8374 -3.88501 -6.68047 0
M  V30 406 H 40.1824 -3.48788 -6.01142 0
M  V30 407 H 43.3734 -2.0938 -4.18662 0
M  V30 408 H 43.5464 -3.12225 -5.6782 0
M  V30 409 N 36.9525 1.47285 -0.560781 0
M  V30 410 C 37.8825 2.32857 0.173105 0
M  V30 411 C 38.8635 1.44009 0.905281 0
M  V30 412 O 40.0485 1.7286 0.885046 0
M  V30 413 C 37.1785 3.25861 1.20133 0
M  V30 414 C 36.1325 4.23978 0.585388 0
M  V30 415 C 35.4585 5.06332 1.7185 0
M  V30 416 C 36.7585 5.20242 -0.463178 0
M  V30 417 H 38.4525 2.94466 -0.541307 0
M  V30 418 H 35.9985 1.41601 -0.261764 0
M  V30 419 H 37.9515 3.84569 1.72293 0
M  V30 420 H 36.6755 2.62315 1.94573 0
M  V30 421 H 35.3345 3.66501 0.085054 0
M  V30 422 H 34.9825 4.39186 2.45203 0
M  V30 423 H 34.6825 5.72762 1.31213 0
M  V30 424 H 36.2065 5.67899 2.24329 0
M  V30 425 H 37.6205 5.73293 -0.027502 0
M  V30 426 H 36.0175 5.94896 -0.788627 0
M  V30 427 H 37.0875 4.65504 -1.35773 0
M  V30 428 N 38.4306 0.297415 1.54768 0
M  V30 429 C 39.6786 -0.312295 1.99673 0
M  V30 430 C 39.9996 -1.54686 1.18732 0
M  V30 431 O 39.2696 -1.93854 0.282382 0
M  V30 432 H 37.8496 -0.118381 0.73756 0
M  V30 433 H 40.5116 0.407915 1.90583 0
M  V30 434 H 39.6076 -0.586813 3.06534 0
M  V30 435 N 39.9087 -1.5758 0.0250728 0
M  V30 436 C 41.1567 -1.91255 -0.653151 0
M  V30 437 C 41.4777 -0.901691 -1.729 0
M  V30 438 O 40.7477 0.0573785 -1.95816 0
M  V30 439 H 39.3277 -0.705942 -0.244243 0
M  V30 440 H 41.9897 -1.94767 0.0719209 0
M  V30 441 H 41.0857 -2.91752 -1.10847 0
M  V30 442 N 41.3868 0.248026 -1.55636 0
M  V30 443 C 42.3348 1.32683 -1.91045 0
M  V30 444 C 43.3288 1.49883 -0.789401 0
M  V30 445 O 44.5348 1.51371 -0.974007 0
M  V30 446 H 40.9098 0.444272 -0.606734 0
M  V30 447 H 42.8808 1.00085 -2.81115 0
M  V30 448 C 41.6298 2.6755 -2.22064 0
M  V30 449 H 40.9528 2.55114 -3.07826 0
M  V30 450 H 42.3928 3.41912 -2.50743 0
M  V30 451 C 40.8518 3.20556 -1.0366 0
M  V30 452 O 41.3818 4.00695 -0.284016 0
M  V30 453 N 39.5878 2.78568 -0.82753 0
M  V30 454 H 39.1348 2.1351 -1.44123 0
M  V30 455 H 39.0928 3.14378 -0.0369803 0
M  V30 456 N 42.8649 1.48995 0.513639 0
M  V30 457 C 44.1129 1.57531 1.26604 0
M  V30 458 C 44.4339 0.258236 1.93283 0
M  V30 459 O 43.7039 -0.721502 1.8213 0
M  V30 460 H 42.2839 0.580387 0.470276 0
M  V30 461 H 44.9459 1.85552 0.596373 0
M  V30 462 H 44.0419 2.36486 2.03669 0
M  V30 463 N 44.343 -0.763751 1.37857 0
M  V30 464 C 45.62 -1.51244 1.24035 0
M  V30 465 C 46 -2.10472 -0.162649 0
M  V30 466 O 45.348 -1.96206 -1.17112 0
M  V30 467 C 45.558 -2.58694 2.34261 0
M  V30 468 C 46.906 -3.25878 2.72193 0
M  V30 469 O 47.93 -2.68993 2.33497 0
M  V30 470 O 46.789 -4.2874 3.38887 0
M  V30 471 H 43.883 -0.670243 0.484462 0
M  V30 472 H 46.429 -0.800031 1.49658 0
M  V30 473 H 45.201 -2.13105 3.2818 0
M  V30 474 H 44.824 -3.37527 2.10146 0
M  V30 475 N 45.8211 -1.22559 -0.990812 0
M  V30 476 C 47.0671 -1.05297 -1.73322 0
M  V30 477 C 47.4001 0.410655 -1.89808 0
M  V30 478 O 46.6751 1.30439 -1.44277 0
M  V30 479 C 46.9581 -1.76713 -3.13759 0
M  V30 480 C 46.8111 -3.30684 -3.04907 0
M  V30 481 C 48.1301 -1.52121 -4.12974 0
M  V30 482 H 45.2491 -0.38392 -0.629106 0
M  V30 483 H 47.8911 -1.50926 -1.15418 0
M  V30 484 H 46.0411 -1.37924 -3.63193 0
M  V30 485 H 47.7131 -3.7893 -2.63077 0
M  V30 486 H 45.9561 -3.60253 -2.41661 0
M  V30 487 H 46.6271 -3.75833 -4.04294 0
M  V30 488 H 49.1031 -1.85819 -3.72304 0
M  V30 489 H 47.9791 -2.04582 -5.0935 0
M  V30 490 H 48.2401 -0.454257 -4.3976 0
M  V30 491 N 47.2992 1.18797 -1.03562 0
M  V30 492 C 48.5452 1.89192 -0.746867 0
M  V30 493 C 48.9002 1.78531 0.717245 0
M  V30 494 O 48.1932 1.17137 1.51622 0
M  V30 495 C 48.3872 3.38692 -1.14117 0
M  V30 496 C 48.2162 3.63902 -2.64207 0
M  V30 497 C 46.9862 3.81553 -3.31279 0
M  V30 498 C 49.1842 3.64903 -3.62423 0
M  V30 499 N 47.1662 3.94455 -4.70402 0
M  V30 500 C 48.5372 3.83458 -4.87196 0
M  V30 501 C 50.5922 3.47965 -3.56125 0
M  V30 502 C 49.2952 3.86829 -6.06429 0
M  V30 503 C 51.3212 3.52616 -4.7478 0
M  V30 504 C 50.6832 3.71663 -5.9837 0
M  V30 505 H 46.7822 0.711141 -0.325273 0
M  V30 506 H 49.3662 1.42727 -1.32428 0
M  V30 507 H 47.5372 3.83864 -0.591889 0
M  V30 508 H 49.2692 3.96634 -0.803966 0
M  V30 509 H 46.0242 3.80723 -2.81686 0
M  V30 510 H 46.4482 4.0474 -5.42692 0
M  V30 511 H 51.0902 3.32189 -2.61553 0
M  V30 512 H 48.8082 4.01395 -7.01362 0
M  V30 513 H 52.3942 3.40791 -4.71543 0
M  V30 514 H 51.2742 3.75145 -6.88648 0
M  V30 515 N 48.7773 0.814389 1.34928 0
M  V30 516 C 49.7073 0.244827 2.32213 0
M  V30 517 C 50.6883 -0.634024 1.57842 0
M  V30 518 O 51.8733 -0.562676 1.8587 0
M  V30 519 C 49.0033 -0.601106 3.42058 0
M  V30 520 C 47.9573 0.179896 4.27622 0
M  V30 521 C 47.2833 -0.788237 5.28858 0
M  V30 522 C 48.5833 1.38329 5.03649 0
M  V30 523 H 50.2773 1.05763 2.80097 0
M  V30 524 H 47.8233 0.510029 1.34665 0
M  V30 525 H 49.7763 -1.00968 4.09125 0
M  V30 526 H 48.5003 -1.44688 2.92802 0
M  V30 527 H 47.1593 0.569739 3.62146 0
M  V30 528 H 46.8073 -1.62973 4.75866 0
M  V30 529 H 46.5073 -0.269942 5.8698 0
M  V30 530 H 48.0313 -1.19485 5.98795 0
M  V30 531 H 49.4453 1.04918 5.63618 0
M  V30 532 H 47.8423 1.83662 5.71304 0
M  V30 533 H 48.9123 2.16592 4.33839 0
M  V30 534 N 50.2554 -1.46986 0.568584 0
M  V30 535 C 51.2034 -2.31858 -0.185649 0
M  V30 536 C 52.1974 -1.43624 -0.898249 0
M  V30 537 O 53.4034 -1.60327 -0.818242 0
M  V30 538 H 49.7784 -0.747866 -0.0787399 0
M  V30 539 H 51.7494 -2.93303 0.549191 0
M  V30 540 C 50.4984 -3.26513 -1.19519 0
M  V30 541 H 49.8214 -3.94377 -0.656285 0
M  V30 542 H 51.2614 -3.88707 -1.6936 0
M  V30 543 C 49.7204 -2.50847 -2.24894 0
M  V30 544 O 50.2504 -2.26119 -3.32014 0
M  V30 545 N 48.4564 -2.11656 -1.99124 0
M  V30 546 H 48.0034 -2.31966 -1.12024 0
M  V30 547 H 47.9614 -1.61347 -2.69842 0
M  V30 548 N 51.7335 -0.305618 -1.54608 0
M  V30 549 C 52.6965 0.555591 -2.22364 0
M  V30 550 C 53.6965 1.05768 -1.21119 0
M  V30 551 O 54.8865 0.952972 -1.45822 0
M  V30 552 C 52.0185 1.76974 -2.91364 0
M  V30 553 H 53.2115 -0.0364572 -2.99878 0
M  V30 554 H 50.7645 -0.0565007 -1.56198 0
M  V30 555 H 51.4995 2.40151 -2.17941 0
M  V30 556 H 51.2845 1.41732 -3.65588 0
M  V30 557 H 52.7745 2.38148 -3.43038 0
M  V30 558 N 53.2116 1.57565 -0.0334293 0
M  V30 559 C 54.1596 2.1164 0.96496 0
M  V30 560 C 55.1536 1.04398 1.33407 0
M  V30 561 O 56.3596 1.22828 1.3158 0
M  V30 562 H 52.7346 0.676222 0.32898 0
M  V30 563 H 54.7056 2.94455 0.483614 0
M  V30 564 C 53.4546 2.66207 2.23672 0
M  V30 565 H 52.7776 3.48378 1.96145 0
M  V30 566 H 54.2176 3.07685 2.9173 0
M  V30 567 C 52.6766 1.59151 2.96939 0
M  V30 568 O 53.2066 0.993858 3.89211 0
M  V30 569 N 51.4126 1.31093 2.59351 0
M  V30 570 H 50.9596 1.7988 1.84393 0
M  V30 571 H 50.9176 0.596889 3.08682 0
M  V30 572 N 54.6897 -0.239769 1.55765 0
M  V30 573 C 55.5997 -1.31831 1.94056 0
M  V30 574 C 56.6157 -1.52275 0.841925 0
M  V30 575 O 57.7917 -1.65759 1.14394 0
M  V30 576 C 54.8567 -2.65156 2.23368 0
M  V30 577 C 53.9177 -2.53173 3.46701 0
M  V30 578 C 53.1507 -3.8014 3.74606 0
M  V30 579 O 53.3737 -4.82343 3.04469 0
M  V30 580 O 52.3077 -3.78344 4.68123 0
M  V30 581 H 56.1337 -1.02347 2.85935 0
M  V30 582 H 53.7187 -0.441123 1.42739 0
M  V30 583 H 55.6007 -3.43929 2.43497 0
M  V30 584 H 54.2757 -2.94358 1.34666 0
M  V30 585 H 53.1827 -1.72662 3.31871 0
M  V30 586 H 54.5157 -2.28915 4.35728 0
M  V30 587 N 56.1678 -1.49265 -0.50573 0
M  V30 588 C 57.3978 -1.61979 -1.28243 0
M  V30 589 C 57.8058 -0.288576 -1.86986 0
M  V30 590 O 57.1488 0.735408 -1.68337 0
M  V30 591 C 57.2108 -2.62632 -2.45489 0
M  V30 592 C 56.8748 -4.071 -2.07651 0
M  V30 593 C 57.8718 -4.94049 -1.61901 0
M  V30 594 C 55.5568 -4.52801 -2.17431 0
M  V30 595 C 57.5508 -6.24736 -1.26428 0
M  V30 596 C 55.2378 -5.83503 -1.8157 0
M  V30 597 C 56.2358 -6.69294 -1.36142 0
M  V30 598 O 55.9238 -7.9756 -1.00764 0
M  V30 599 H 55.6558 -0.54834 -0.395347 0
M  V30 600 H 58.2098 -1.96002 -0.614204 0
M  V30 601 H 56.4398 -2.2378 -3.15372 0
M  V30 602 H 58.1288 -2.64925 -3.07522 0
M  V30 603 H 58.8948 -4.5997 -1.53795 0
M  V30 604 H 54.7738 -3.86196 -2.51742 0
M  V30 605 H 58.3178 -6.91652 -0.908992 0
M  V30 606 H 54.2148 -6.17112 -1.89324 0
M  V30 607 H 54.9828 -8.10529 -1.13952 0
M  V30 608 N 57.6459 0.756429 -1.3826 0
M  V30 609 C 59.0569 1.33359 -1.30661 0
M  V30 610 C 59.4079 1.96161 0.0388875 0
M  V30 611 O 58.5329 1.94874 0.940918 0
M  V30 612 C 59.1279 2.42477 -2.36622 0
M  V30 613 C 57.6869 2.95922 -2.3261 0
M  V30 614 C 56.8339 1.69275 -2.19639 0
M  V30 615 H 59.7849 0.55552 -1.4866 0
M  V30 616 H 59.8059 3.22345 -2.02174 0
M  V30 617 H 59.3179 1.96739 -3.34538 0
M  V30 618 H 57.4189 3.45996 -1.38267 0
M  V30 619 H 57.5319 3.50494 -3.26636 0
M  V30 620 H 55.8959 1.92793 -1.66442 0
M  V30 621 H 56.6789 1.25619 -3.19491 0
M  V30 622 N 59.124 1.23083 0.984299 0
M  V30 623 C 60.352 1.08714 1.76037 0
M  V30 624 C 60.767 -0.361691 1.85303 0
M  V30 625 O 60.124 -1.25034 1.32939 0
M  V30 626 C 60.175 1.70206 3.18923 0
M  V30 627 O 59.896 3.09423 3.10144 0
M  V30 628 C 61.397 1.61227 4.12941 0
M  V30 629 H 58.617 0.380664 0.552572 0
M  V30 630 H 61.161 1.62853 1.23689 0
M  V30 631 H 59.316 1.20109 3.6831 0
M  V30 632 H 59.73 3.39188 4.00065 0
M  V30 633 H 61.204 2.08962 5.10919 0
M  V30 634 H 61.681 0.570375 4.35481 0
M  V30 635 H 62.287 2.10671 3.69456 0
M  V30 636 N 60.6021 -1.18246 1.0419 0
M  V30 637 C 61.5651 -2.20128 0.638452 0
M  V30 638 C 62.5651 -1.57885 -0.304805 0
M  V30 639 O 63.7551 -1.73967 -0.0900369 0
M  V30 640 C 60.8871 -3.4084 -0.0637751 0
M  V30 641 H 62.0801 -2.57336 1.54007 0
M  V30 642 H 59.6331 -1.32152 0.834598 0
M  V30 643 H 60.3681 -3.09166 -0.979136 0
M  V30 644 H 60.1531 -3.8726 0.614198 0
M  V30 645 H 61.6431 -4.16274 -0.332512 0
M  V30 646 N 62.0802 -0.821533 -1.34494 0
M  V30 647 C 63.3262 -0.409552 -1.98622 0
M  V30 648 C 63.6592 1.0244 -1.64984 0
M  V30 649 O 62.9342 1.71325 -0.920758 0
M  V30 650 C 63.2172 -0.610458 -3.54888 0
M  V30 651 C 63.0702 -2.09043 -3.98273 0
M  V30 652 C 64.3892 -0.0455379 -4.40076 0
M  V30 653 H 61.5082 -0.15028 -0.721516 0
M  V30 654 H 64.1502 -1.03384 -1.59411 0
M  V30 655 H 62.3002 -0.079044 -3.8842 0
M  V30 656 H 63.9722 -2.68537 -3.75081 0
M  V30 657 H 62.2152 -2.58139 -3.48635 0
M  V30 658 H 62.8862 -2.18182 -5.07051 0
M  V30 659 H 65.3622 -0.499557 -4.1309 0
M  V30 660 H 64.2382 -0.215922 -5.48475 0
M  V30 661 H 64.4992 1.04939 -4.29465 0
M  V30 662 N 63.5583 1.46682 -0.576371 0
M  V30 663 C 64.4683 2.34032 0.163141 0
M  V30 664 C 65.4843 1.49367 0.892501 0
M  V30 665 O 66.6603 1.82252 0.857106 0
M  V30 666 C 63.7253 3.26435 1.16795 0
M  V30 667 C 62.7863 4.26998 0.443944 0
M  V30 668 C 62.0193 5.14986 1.40088 0
M  V30 669 O 62.2423 5.05785 2.637 0
M  V30 670 O 61.1763 5.94906 0.914917 0
M  V30 671 H 65.0023 2.98607 -0.55388 0
M  V30 672 H 62.5873 1.45554 -0.336821 0
M  V30 673 H 64.4693 3.83459 1.74748 0
M  V30 674 H 63.1443 2.64465 1.86655 0
M  V30 675 H 62.0513 3.7368 -0.177271 0
M  V30 676 H 63.3843 4.91736 -0.213566 0
M  V30 677 N 65.0364 0.313813 1.54444 0
M  V30 678 C 66.2834 -0.291675 2.00388 0
M  V30 679 C 66.6114 -1.52904 1.2021 0
M  V30 680 O 65.8664 -1.93833 0.269707 0
M  V30 681 C 66.1654 -0.680386 3.50864 0
M  V30 682 C 65.8314 0.456699 4.48581 0
M  V30 683 C 64.4934 0.768824 4.75018 0
M  V30 684 C 66.8454 1.22098 5.06697 0
M  V30 685 C 64.1734 1.84812 5.56831 0
M  V30 686 C 66.5254 2.29029 5.89685 0
M  V30 687 C 65.1894 2.60834 6.14428 0
M  V30 688 H 64.4594 -0.106732 0.733273 0
M  V30 689 H 67.1064 0.43557 1.86481 0
M  V30 690 H 65.4114 -1.48791 3.62448 0
M  V30 691 H 67.1084 -1.16026 3.83847 0
M  V30 692 H 63.6984 0.203337 4.28117 0
M  V30 693 H 67.8824 0.993096 4.86263 0
M  V30 694 H 63.1384 2.09912 5.74236 0
M  V30 695 H 67.3124 2.887 6.33739 0
M  V30 696 H 64.9394 3.44596 6.77612 0
M  V30 697 N 66.5145 -1.57545 0.0417849 0
M  V30 698 C 67.4465 -2.07904 -0.964799 0
M  V30 699 C 68.4595 -1.00497 -1.28079 0
M  V30 700 O 69.6485 -1.28087 -1.24322 0
M  V30 701 C 66.7485 -2.49928 -2.28887 0
M  V30 702 C 65.9215 -3.80562 -2.15619 0
M  V30 703 C 64.9805 -4.08999 -3.31069 0
M  V30 704 O 64.0065 -4.79061 -3.0739 0
M  V30 705 N 65.2085 -3.6017 -4.55256 0
M  V30 706 H 67.9735 -2.94886 -0.535029 0
M  V30 707 H 65.5345 -1.61252 -0.144681 0
M  V30 708 H 67.5265 -2.66034 -3.04972 0
M  V30 709 H 66.0965 -1.68245 -2.63463 0
M  V30 710 H 65.3165 -3.74129 -1.24183 0
M  V30 711 H 66.6045 -4.66126 -2.03971 0
M  V30 712 H 66.0025 -3.03512 -4.77386 0
M  V30 713 H 64.5595 -3.81532 -5.28466 0
M  V30 714 N 67.9926 0.231505 -1.5589 0
M  V30 715 C 68.9226 1.29022 -1.94617 0
M  V30 716 C 69.9036 1.4941 -0.813067 0
M  V30 717 O 71.0886 1.6176 -1.07459 0
M  V30 718 C 68.2186 2.64199 -2.25424 0
M  V30 719 C 67.1726 2.58484 -3.41131 0
M  V30 720 C 66.4986 3.97599 -3.57518 0
M  V30 721 C 67.7986 2.1413 -4.76388 0
M  V30 722 H 69.4926 0.968563 -2.83301 0
M  V30 723 H 67.0386 0.464479 -1.36303 0
M  V30 724 H 68.9916 3.38413 -2.51107 0
M  V30 725 H 67.7156 2.98032 -1.33583 0
M  V30 726 H 66.3746 1.86727 -3.15481 0
M  V30 727 H 66.0226 4.28723 -2.6307 0
M  V30 728 H 65.7226 3.94659 -4.35337 0
M  V30 729 H 67.2466 4.7349 -3.85538 0
M  V30 730 H 68.6606 2.78083 -5.01341 0
M  V30 731 H 67.0576 2.2227 -5.57419 0
M  V30 732 H 68.1276 1.09331 -4.72414 0
M  V30 733 N 69.4707 1.49531 0.497807 0
M  V30 734 C 70.6987 1.62893 1.27567 0
M  V30 735 C 71.1137 0.301585 1.86376 0
M  V30 736 O 70.4707 -0.713335 1.67982 0
M  V30 737 C 70.5217 2.70013 2.40364 0
M  V30 738 O 70.2427 3.976 1.83972 0
M  V30 739 C 71.7437 2.94109 3.31685 0
M  V30 740 H 68.9637 0.548298 0.386794 0
M  V30 741 H 71.5077 1.95584 0.597245 0
M  V30 742 H 69.6627 2.40092 3.04031 0
M  V30 743 H 70.0767 4.56631 2.58047 0
M  V30 744 H 71.5507 3.72788 4.07104 0
M  V30 745 H 72.0277 2.04147 3.88871 0
M  V30 746 H 72.6337 3.2546 2.73781 0
M  V30 747 N 70.9488 -0.749086 1.3866 0
M  V30 748 C 71.8808 -1.87273 1.32142 0
M  V30 749 C 72.8938 -1.61127 0.232787 0
M  V30 750 O 74.0828 -1.71623 0.49069 0
M  V30 751 C 71.1828 -3.23005 1.02571 0
M  V30 752 C 70.3558 -3.7662 2.22433 0
M  V30 753 C 69.4148 -4.90879 1.89537 0
M  V30 754 O 68.4408 -5.05276 2.62078 0
M  V30 755 N 69.6428 -5.74198 0.853031 0
M  V30 756 H 72.4078 -1.93373 2.28969 0
M  V30 757 H 69.9688 -0.929216 1.32579 0
M  V30 758 H 71.9608 -3.96992 0.786085 0
M  V30 759 H 70.5308 -3.12262 0.145249 0
M  V30 760 H 69.7508 -2.94147 2.62434 0
M  V30 761 H 71.0388 -4.09173 3.02415 0
M  V30 762 H 70.4368 -5.6514 0.25155 0
M  V30 763 H 68.9938 -6.48313 0.67329 0
M  V30 764 N 72.4269 -1.23603 -0.977757 0
M  V30 765 C 73.3589 -0.977369 -2.07317 0
M  V30 766 C 74.3719 0.0495845 -1.62724 0
M  V30 767 O 75.5609 -0.186261 -1.77526 0
M  V30 768 C 72.6609 -0.451216 -3.35883 0
M  V30 769 C 71.8339 -1.53896 -4.09432 0
M  V30 770 C 70.8929 -1.01721 -5.16274 0
M  V30 771 O 69.9189 -1.70676 -5.43009 0
M  V30 772 N 71.1209 0.153594 -5.80297 0
M  V30 773 H 73.8859 -1.92047 -2.30082 0
M  V30 774 H 71.4469 -1.14497 -1.14465 0
M  V30 775 H 73.4389 -0.0871574 -4.04606 0
M  V30 776 H 72.0089 0.397368 -3.10064 0
M  V30 777 H 71.2289 -2.07566 -3.35127 0
M  V30 778 H 72.5169 -2.27037 -4.55337 0
M  V30 779 H 71.9149 0.730323 -5.60966 0
M  V30 780 H 70.4719 0.458892 -6.50183 0
M  V30 781 N 73.905 1.17692 -1.04816 0
M  V30 782 C 75.133 1.91786 -0.776254 0
M  V30 783 C 75.548 1.76604 0.667577 0
M  V30 784 O 74.905 1.10067 1.45573 0
M  V30 785 C 74.956 3.42967 -1.14263 0
M  V30 786 O 74.677 3.57678 -2.52978 0
M  V30 787 C 76.178 4.34144 -0.896311 0
M  V30 788 H 73.398 0.608624 -0.282519 0
M  V30 789 H 75.942 1.49268 -1.39783 0
M  V30 790 H 74.097 3.83245 -0.565874 0
M  V30 791 H 74.511 4.51319 -2.67229 0
M  V30 792 H 75.985 5.38744 -1.20244 0
M  V30 793 H 76.462 4.38876 0.168636 0
M  V30 794 H 77.068 3.99574 -1.45672 0
M  V30 795 N 75.3831 0.828654 1.34056 0
M  V30 796 C 76.3131 0.269443 2.3194 0
M  V30 797 C 77.2941 -0.617247 1.58506 0
M  V30 798 O 78.4791 -0.542931 1.86456 0
M  V30 799 C 75.6091 -0.564793 3.42677 0
M  V30 800 C 74.5631 0.225241 4.27407 0
M  V30 801 C 73.8891 -0.7321 5.29664 0
M  V30 802 C 75.1891 1.43663 5.02154 0
M  V30 803 H 76.8831 1.08728 2.7896 0
M  V30 804 H 74.4291 0.524283 1.34117 0
M  V30 805 H 76.3821 -0.966233 4.10173 0
M  V30 806 H 75.1061 -1.41574 2.9432 0
M  V30 807 H 73.7651 0.608117 3.61521 0
M  V30 808 H 73.4131 -1.57916 4.77568 0
M  V30 809 H 73.1131 -0.20767 5.87233 0
M  V30 810 H 74.6371 -1.13128 6.00029 0
M  V30 811 H 76.0511 1.1089 5.62473 0
M  V30 812 H 74.4481 1.89711 5.69324 0
M  V30 813 H 75.5181 2.21181 4.31517 0
M  V30 814 N 76.8612 -1.46375 0.584142 0
M  V30 815 C 77.8092 -2.32042 -0.161047 0
M  V30 816 C 78.8032 -1.44569 -0.882966 0
M  V30 817 O 80.0092 -1.61186 -0.801191 0
M  V30 818 H 76.3842 -0.748659 -0.0708033 0
M  V30 819 H 78.3552 -2.92704 0.580269 0
M  V30 820 C 77.1042 -3.27762 -1.1605 0
M  V30 821 H 76.4272 -3.95051 -0.614419 0
M  V30 822 H 77.8672 -3.90481 -1.65228 0
M  V30 823 C 76.3262 -2.53218 -2.22221 0
M  V30 824 O 76.8562 -2.29628 -3.29597 0
M  V30 825 N 75.0622 -2.13756 -1.96868 0
M  V30 826 H 74.6092 -2.33142 -1.09557 0
M  V30 827 H 74.5672 -1.642 -2.68115 0
M  V30 828 N 78.3393 -0.321999 -1.54275 0
M  V30 829 C 79.7553 0.0306999 -1.5957 0
M  V30 830 C 79.9553 1.50614 -1.33857 0
M  V30 831 O 79.0113 2.2619 -1.12223 0
M  V30 832 C 80.3243 -0.386122 -2.98211 0
M  V30 833 C 81.8723 -0.336647 -3.11184 0
M  V30 834 C 82.3473 -0.728607 -4.52167 0
M  V30 835 N 83.8383 -0.681952 -4.58152 0
M  V30 836 C 84.5733 -0.957449 -5.6535 0
M  V30 837 N 84.0693 -1.3 -6.80494 0
M  V30 838 N 85.8623 -0.883113 -5.55119 0
M  V30 839 H 78.0133 -1.28332 -1.69247 0
M  V30 840 H 80.2763 -0.521716 -0.791528 0
M  V30 841 H 79.9823 -1.41404 -3.22022 0
M  V30 842 H 79.8563 0.249662 -3.76373 0
M  V30 843 H 82.2433 0.682058 -2.8711 0
M  V30 844 H 82.3243 -1.00734 -2.3513 0
M  V30 845 H 81.9683 -1.74522 -4.76974 0
M  V30 846 H 81.8983 -0.0356152 -5.26588 0
M  V30 847 H 84.3893 -0.428985 -3.75457 0
M  V30 848 H 84.7023 -1.49563 -7.58189 0
M  V30 849 H 83.0473 -1.33824 -6.81994 0
M  V30 850 H 86.2383 -0.615001 -4.64042 0
M  V30 851 H 86.4113 -1.10118 -6.38575 0
M  V30 852 N 79.8174 1.5752 -0.0501392 0
M  V30 853 C 81.0474 1.96678 0.632573 0
M  V30 854 C 81.4554 0.926298 1.64974 0
M  V30 855 O 80.7984 -0.09802 1.83438 0
M  V30 856 C 80.8604 3.32068 1.37735 0
M  V30 857 C 80.5244 4.54076 0.516131 0
M  V30 858 C 81.5214 5.19445 -0.217357 0
M  V30 859 C 79.2064 5.00304 0.44736 0
M  V30 860 C 81.2004 6.29378 -1.00807 0
M  V30 861 C 78.8874 6.10114 -0.347038 0
M  V30 862 C 79.8854 6.74512 -1.07344 0
M  V30 863 O 79.5734 7.82211 -1.85477 0
M  V30 864 H 79.3054 0.652193 0.177821 0
M  V30 865 H 81.8594 2.05091 -0.112543 0
M  V30 866 H 80.0894 3.20206 2.16807 0
M  V30 867 H 81.7784 3.55981 1.95019 0
M  V30 868 H 82.5444 4.84689 -0.173688 0
M  V30 869 H 78.4234 4.49971 1.00235 0
M  V30 870 H 81.9674 6.79575 -1.57556 0
M  V30 871 H 77.8644 6.44307 -0.392349 0
M  V30 872 H 78.6324 7.98982 -1.77678 0
M  V30 873 N 81.2955 -0.223234 1.56011 0
M  V30 874 C 82.7065 -0.790368 1.69145 0
M  V30 875 C 83.0575 -1.85055 0.651845 0
M  V30 876 O 82.1825 -2.15498 -0.197359 0
M  V30 877 C 82.7775 -1.4404 3.06656 0
M  V30 878 C 81.3365 -1.95494 3.2165 0
M  V30 879 C 80.4835 -0.814506 2.65068 0
M  V30 880 H 83.4345 0.00139011 1.587 0
M  V30 881 H 83.4555 -2.30916 3.0242 0
M  V30 882 H 82.9675 -0.668543 3.82298 0
M  V30 883 H 81.0685 -2.75487 2.50874 0
M  V30 884 H 81.1815 -2.13607 4.28846 0
M  V30 885 H 79.5455 -1.22137 2.23505 0
M  V30 886 H 80.3285 -0.0553515 3.43255 0
M  V30 887 N 82.7736 -1.49793 -0.48987 0
M  V30 888 C 83.6836 -1.70036 -1.61632 0
M  V30 889 C 84.6996 -0.583102 -1.63939 0
M  V30 890 O 85.8756 -0.859169 -1.82154 0
M  V30 891 C 82.9406 -1.77277 -2.97949 0
M  V30 892 C 82.0016 -3.00918 -3.06181 0
M  V30 893 C 81.2346 -3.07804 -4.35996 0
M  V30 894 O 81.4576 -2.21982 -5.25433 0
M  V30 895 O 80.3916 -4.00369 -4.49431 0
M  V30 896 H 84.2176 -2.65486 -1.47482 0
M  V30 897 H 81.8026 -1.33666 -0.667362 0
M  V30 898 H 83.6846 -1.84329 -3.78947 0
M  V30 899 H 82.3596 -0.850076 -3.12339 0
M  V30 900 H 81.2666 -2.99377 -2.2433 0
M  V30 901 H 82.5996 -3.92704 -2.96723 0
M  V30 902 N 84.2517 0.741722 -1.39055 0
M  V30 903 C 85.4917 1.51385 -1.37338 0
M  V30 904 C 85.8557 1.91972 0.0330513 0
M  V30 905 O 87.0567 2.68229 0.175174 0
M  V30 906 C 85.3277 2.72481 -2.31276 0
M  V30 907 S 86.8867 3.62211 -2.47687 0
M  V30 908 H 83.7047 0.517906 -0.487129 0
M  V30 909 H 86.3067 0.86969 -1.7509 0
M  V30 910 H 85.0107 2.40793 -3.32336 0
M  V30 911 H 84.5417 3.41832 -1.94716 0
M  V30 912 H 86.5567 4.65812 -1.70978 0
M  V30 913 N 85.7298 1.2412 0.971189 0
M  V30 914 C 86.6618 0.988349 2.06795 0
M  V30 915 C 87.6748 -0.0409541 1.62748 0
M  V30 916 O 88.8638 0.195673 1.77424 0
M  V30 917 C 85.9638 0.469023 3.35639 0
M  V30 918 C 85.1368 1.56065 4.08611 0
M  V30 919 C 84.1958 1.04458 5.15728 0
M  V30 920 O 83.2218 1.73553 5.42096 0
M  V30 921 N 84.4238 -0.122817 5.8037 0
M  V30 922 H 87.1888 1.93265 2.29061 0
M  V30 923 H 84.7498 1.15102 1.13856 0
M  V30 924 H 86.7418 0.108613 4.04554 0
M  V30 925 H 85.3118 -0.380919 3.1027 0
M  V30 926 H 84.5318 2.09341 3.34021 0
M  V30 927 H 85.8198 2.29449 4.54126 0
M  V30 928 H 85.2178 -0.700563 5.61345 0
M  V30 929 H 83.7748 -0.424404 6.50417 0
M  V30 930 N 87.2079 -1.17134 1.05439 0
M  V30 931 C 88.6189 -1.69084 0.791676 0
M  V30 932 C 88.9699 -1.83822 -0.685839 0
M  V30 933 O 88.0949 -1.52757 -1.53278 0
M  V30 934 C 88.6899 -3.07119 1.4305 0
M  V30 935 C 87.2489 -3.56225 1.21577 0
M  V30 936 C 86.3959 -2.32421 1.51247 0
M  V30 937 H 89.3469 -1.01617 1.219 0
M  V30 938 H 89.3679 -3.71087 0.84112 0
M  V30 939 H 88.8799 -2.9636 2.50584 0
M  V30 940 H 86.9809 -3.72257 0.159787 0
M  V30 941 H 87.0939 -4.38837 1.92246 0
M  V30 942 H 85.4579 -2.3701 0.932653 0
M  V30 943 H 86.2409 -2.24268 2.5992 0
M  V30 944 N 88.686 -0.835752 -1.33615 0
M  V30 945 C 89.633 -0.26473 -2.29277 0
M  V30 946 C 90.603 0.617712 -1.54187 0
M  V30 947 O 91.788 0.556641 -1.825 0
M  V30 948 C 88.928 0.556777 -3.40579 0
M  V30 949 C 88.041 -0.349339 -4.30585 0
M  V30 950 C 87.176 0.482969 -5.29 0
M  V30 951 C 86.215 -0.421732 -6.10645 0
M  V30 952 N 85.352 0.372262 -7.01112 0
M  V30 953 H 90.192 -1.08582 -2.77514 0
M  V30 954 H 87.729 -0.546927 -1.36554 0
M  V30 955 H 89.687 1.04852 -4.03809 0
M  V30 956 H 88.317 1.34286 -2.93542 0
M  V30 957 H 87.369 -0.959372 -3.68104 0
M  V30 958 H 88.681 -1.04445 -4.87742 0
M  V30 959 H 87.835 1.03866 -5.97743 0
M  V30 960 H 86.574 1.21153 -4.72412 0
M  V30 961 H 85.579 -0.989464 -5.40823 0
M  V30 962 H 86.804 -1.14861 -6.69316 0
M  V30 963 H 84.75 1.08426 -6.46977 0
M  V30 964 H 84.667 -0.264198 -7.55538 0
M  V30 965 H 85.935 0.910293 -7.74167 0
M  V30 966 N 90.1641 1.46063 -0.591896 0
M  V30 967 C 91.1271 2.28854 0.125973 0
M  V30 968 C 92.1271 1.38903 0.810107 0
M  V30 969 O 93.3171 1.61186 0.66066 0
M  V30 970 C 90.4491 3.19526 1.1881 0
M  V30 971 H 91.6421 2.93802 -0.601717 0
M  V30 972 H 89.1951 1.52325 -0.350254 0
M  V30 973 H 89.9301 2.59345 1.94707 0
M  V30 974 H 89.7151 3.85766 0.701936 0
M  V30 975 H 91.2051 3.81817 1.69132 0
M  V30 976 N 91.6422 0.330177 1.54103 0
M  V30 977 C 92.8882 -0.270806 2.00984 0
M  V30 978 C 93.2212 -1.51265 1.21789 0
M  V30 979 O 92.4962 -1.92142 0.301927 0
M  V30 980 C 92.7792 -0.598339 3.55094 0
M  V30 981 C 92.6322 0.654674 4.4501 0
M  V30 982 C 93.9512 -1.41334 4.16789 0
M  V30 983 H 91.0702 -0.0969531 0.730595 0
M  V30 984 H 93.7122 0.448066 1.84641 0
M  V30 985 H 91.8622 -1.21078 3.69151 0
M  V30 986 H 93.5342 1.29285 4.42813 0
M  V30 987 H 91.7772 1.28224 4.14416 0
M  V30 988 H 92.4482 0.380944 5.50684 0
M  V30 989 H 94.9242 -0.895597 4.06347 0
M  V30 990 H 93.8002 -1.61127 5.24718 0
M  V30 991 H 94.0612 -2.41146 3.70541 0
M  V30 992 N 93.1203 -1.57491 0.0584922 0
M  V30 993 C 94.3693 -1.92155 -0.613146 0
M  V30 994 C 94.6823 -0.939334 -1.71569 0
M  V30 995 O 95.8883 -1.17829 -2.44599 0
M  V30 996 C 94.3443 -3.41303 -1.14195 0
M  V30 997 C 93.9523 -4.47944 -0.0711265 0
M  V30 998 C 95.6963 -3.84988 -1.78841 0
M  V30 999 C 93.6033 -5.88212 -0.613225 0
M  V30 1000 H 92.5333 -0.717162 -0.232796 0
M  V30 1001 H 95.1843 -1.83049 0.12857 0
M  V30 1002 H 93.5663 -3.45437 -1.93621 0
M  V30 1003 H 94.7403 -4.55408 0.702836 0
M  V30 1004 H 93.0553 -4.13644 0.478313 0
M  V30 1005 H 95.6523 -4.87159 -2.20408 0
M  V30 1006 H 95.9953 -3.21632 -2.64308 0
M  V30 1007 H 96.5283 -3.83401 -1.06059 0
M  V30 1008 H 93.2673 -6.55183 0.203978 0
M  V30 1009 H 92.7873 -5.84294 -1.35501 0
M  V30 1010 H 94.4663 -6.37687 -1.09383 0
M  V30 1011 N 94.5984 0.214957 -1.56127 0
M  V30 1012 C 95.5084 1.28727 -1.96129 0
M  V30 1013 C 96.5244 1.50916 -0.866044 0
M  V30 1014 O 97.7004 1.63918 -1.17016 0
M  V30 1015 C 94.7654 2.61569 -2.27558 0
M  V30 1016 C 93.8264 2.47625 -3.50685 0
M  V30 1017 C 93.0594 3.74132 -3.80606 0
M  V30 1018 O 93.2824 4.77438 -3.12104 0
M  V30 1019 O 92.2164 3.70849 -4.74083 0
M  V30 1020 H 96.0424 0.977855 -2.87527 0
M  V30 1021 H 93.6274 0.418358 -1.43423 0
M  V30 1022 H 95.5094 3.40012 -2.48938 0
M  V30 1023 H 94.1844 2.92178 -1.39332 0
M  V30 1024 H 93.0914 1.67361 -3.34576 0
M  V30 1025 H 94.4244 2.21954 -4.39315 0
M  V30 1026 N 96.0765 1.50051 0.48192 0
M  V30 1027 C 97.0245 1.68635 1.60203 0
M  V30 1028 C 98.0185 0.552184 1.60148 0
M  V30 1029 O 99.2245 0.732377 1.64427 0
M  V30 1030 H 95.5995 0.532081 0.531407 0
M  V30 1031 H 97.5705 2.62616 1.41688 0
M  V30 1032 C 96.3195 1.78775 2.9822 0
M  V30 1033 H 95.6425 2.6543 2.98976 0
M  V30 1034 H 97.0825 1.95806 3.7608 0
M  V30 1035 C 95.5415 0.536849 3.32595 0
M  V30 1036 O 96.0715 -0.328897 4.00351 0
M  V30 1037 N 94.2775 0.394091 2.87915 0
M  V30 1038 H 93.8245 1.09962 2.32951 0
M  V30 1039 H 93.7825 -0.441737 3.11281 0
M  V30 1040 N 97.5546 -0.734337 1.39446 0
M  V30 1041 C 98.7846 -1.52137 1.39778 0
M  V30 1042 C 99.1926 -1.89198 -0.00929312 0
M  V30 1043 O 98.5356 -1.54666 -0.991168 0
M  V30 1044 C 98.5976 -2.83762 2.20724 0
M  V30 1045 C 98.2616 -2.69131 3.69347 0
M  V30 1046 C 99.2586 -2.37635 4.62413 0
M  V30 1047 C 96.9436 -2.85982 4.1294 0
M  V30 1048 C 98.9376 -2.23172 5.97054 0
M  V30 1049 C 96.6246 -2.71137 5.47657 0
M  V30 1050 C 97.6226 -2.39777 6.39528 0
M  V30 1051 O 97.3106 -2.25026 7.71763 0
M  V30 1052 H 97.0426 -0.476717 0.479288 0
M  V30 1053 H 99.5966 -0.915012 1.83893 0
M  V30 1054 H 97.8266 -3.4666 1.71359 0
M  V30 1055 H 99.5156 -3.45383 2.13226 0
M  V30 1056 H 100.282 -2.24267 4.30034 0
M  V30 1057 H 96.1606 -3.09383 3.41765 0
M  V30 1058 H 99.7046 -1.98617 6.68728 0
M  V30 1059 H 95.6016 -2.84083 5.79626 0
M  V30 1060 H 96.3696 -2.40091 7.82495 0
M  V30 1061 N 99.0327 -1.24633 -0.964593 0
M  V30 1062 C 99.9957 -1.0424 -2.04124 0
M  V30 1063 C 100.996 0.00137563 -1.608 0
M  V30 1064 O 102.186 -0.239883 -1.7254 0
M  V30 1065 C 99.3177 -0.580588 -3.3592 0
M  V30 1066 H 100.511 -1.99803 -2.23649 0
M  V30 1067 H 98.0637 -1.06899 -1.14027 0
M  V30 1068 H 98.7987 0.3781 -3.22088 0
M  V30 1069 H 98.5837 -1.33398 -3.6871 0
M  V30 1070 H 100.074 -0.459034 -4.15069 0
M  V30 1071 N 100.511 1.16574 -1.06058 0
M  V30 1072 C 101.443 2.2045 -0.627239 0
M  V30 1073 C 102.456 1.59752 0.313534 0
M  V30 1074 O 103.645 1.78192 0.104896 0
M  V30 1075 C 100.745 3.3875 0.100974 0
M  V30 1076 C 99.9178 4.29008 -0.852687 0
M  V30 1077 C 98.9768 5.25944 -0.164152 0
M  V30 1078 O 98.0028 5.63535 -0.801047 0
M  V30 1079 N 99.2048 5.70075 1.09518 0
M  V30 1080 H 101.97 2.58249 -1.52077 0
M  V30 1081 H 99.5308 1.3156 -0.943594 0
M  V30 1082 H 101.523 4.00638 0.57194 0
M  V30 1083 H 100.093 2.99476 0.89628 0
M  V30 1084 H 99.3128 3.64419 -1.50308 0
M  V30 1085 H 100.601 4.86195 -1.49972 0
M  V30 1086 H 99.9988 5.41624 1.6328 0
M  V30 1087 H 98.5558 6.34067 1.51006 0
M  V30 1088 N 101.989 0.842826 1.3317 0
M  V30 1089 C 103.219 0.453397 2.01564 0
M  V30 1090 C 103.627 -0.951147 1.63554 0
M  V30 1091 O 102.97 -1.63021 0.846746 0
M  V30 1092 C 103.032 0.499013 3.5602 0
M  V30 1093 C 102.696 1.86037 4.1742 0
M  V30 1094 C 103.693 2.82416 4.36506 0
M  V30 1095 C 101.378 2.15428 4.53757 0
M  V30 1096 C 103.372 4.06346 4.91082 0
M  V30 1097 C 101.059 3.39615 5.0804 0
M  V30 1098 C 102.057 4.3489 5.26649 0
M  V30 1099 O 101.745 5.5688 5.79776 0
M  V30 1100 H 101.477 0.177871 0.652179 0
M  V30 1101 H 104.031 1.13808 1.70988 0
M  V30 1102 H 102.261 -0.242467 3.85939 0
M  V30 1103 H 103.95 0.126852 4.05702 0
M  V30 1104 H 104.716 2.6101 4.08777 0
M  V30 1105 H 100.595 1.42061 4.38565 0
M  V30 1106 H 104.139 4.80722 5.05522 0
M  V30 1107 H 100.036 3.60876 5.352 0
M  V30 1108 H 100.804 5.58674 5.98185 0
M  V30 1109 N 103.467 -1.45747 0.599634 0
M  V30 1110 C 104.43 -2.28917 -0.113835 0
M  V30 1111 C 105.43 -1.3933 -0.802729 0
M  V30 1112 O 106.62 -1.61534 -0.652103 0
M  V30 1113 C 103.752 -3.20152 -1.17114 0
M  V30 1114 H 104.945 -2.93478 0.617289 0
M  V30 1115 H 102.498 -1.52137 0.358327 0
M  V30 1116 H 103.233 -2.60374 -1.93329 0
M  V30 1117 H 103.018 -3.86133 -0.681468 0
M  V30 1118 H 104.508 -3.82708 -1.67105 0
M  V30 1119 N 104.945 -0.338344 -1.53925 0
M  V30 1120 C 106.193 0.259245 -2.0043 0
M  V30 1121 C 106.514 1.51484 -1.22791 0
M  V30 1122 O 105.784 1.93037 -0.33368 0
M  V30 1123 H 104.364 0.0987845 -0.740439 0
M  V30 1124 H 107.026 -0.458302 -1.89435 0
M  V30 1125 H 106.122 0.505334 -3.07982 0
M  V30 1126 N 106.423 1.57458 -0.0668435 0
M  V30 1127 C 107.669 1.93587 0.6043 0
M  V30 1128 C 108.002 0.946722 1.69561 0
M  V30 1129 O 107.277 -0.0248516 1.94484 0
M  V30 1130 C 107.56 3.40014 1.18585 0
M  V30 1131 C 107.413 4.49685 0.101529 0
M  V30 1132 C 108.732 3.87154 2.09284 0
M  V30 1133 H 105.851 0.703958 0.218202 0
M  V30 1134 H 108.493 1.89542 -0.131804 0
M  V30 1135 H 106.643 3.43592 1.81319 0
M  V30 1136 H 108.315 4.5823 -0.531279 0
M  V30 1137 H 106.558 4.30059 -0.568487 0
M  V30 1138 H 107.229 5.49266 0.54874 0
M  V30 1139 H 109.705 3.85551 1.56491 0
M  V30 1140 H 108.581 4.90231 2.46911 0
M  V30 1141 H 108.842 3.2481 2.99918 0
M  V30 1142 N 107.901 -0.206675 1.56239 0
M  V30 1143 C 108.848 -1.25617 1.93621 0
M  V30 1144 C 109.818 -1.45824 0.795274 0
M  V30 1145 O 111.003 -1.59148 1.05245 0
M  V30 1146 C 108.143 -2.59839 2.27107 0
M  V30 1147 C 107.256 -2.47308 3.54207 0
M  V30 1148 C 106.391 -3.74155 3.7707 0
M  V30 1149 C 105.43 -3.56407 4.97635 0
M  V30 1150 N 104.567 -4.75238 5.1681 0
M  V30 1151 H 109.407 -0.930383 2.83104 0
M  V30 1152 H 106.944 -0.448065 1.4011 0
M  V30 1153 H 108.902 -3.38021 2.44535 0
M  V30 1154 H 107.532 -2.90485 1.40778 0
M  V30 1155 H 106.584 -1.60483 3.4489 0
M  V30 1156 H 107.896 -2.30122 4.42544 0
M  V30 1157 H 107.05 -4.60778 3.94675 0
M  V30 1158 H 105.789 -3.94282 2.87042 0
M  V30 1159 H 104.794 -2.68168 4.79964 0
M  V30 1160 H 106.019 -3.37736 5.89161 0
M  V30 1161 H 103.965 -4.95651 4.29728 0
M  V30 1162 H 103.882 -4.60835 5.99306 0
M  V30 1163 H 105.15 -5.63246 5.38864 0
M  V30 1164 N 109.379 -1.50304 -0.473955 0
M  V30 1165 C 110.79 -1.54042 -1.0549 0
M  V30 1166 C 111.141 -0.342248 -1.93192 0
M  V30 1167 O 110.266 0.545157 -2.09421 0
M  V30 1168 C 110.861 -2.79152 -1.91989 0
M  V30 1169 C 109.42 -2.8558 -2.45196 0
M  V30 1170 C 108.567 -2.48295 -1.2347 0
M  V30 1171 H 111.518 -1.5661 -0.256693 0
M  V30 1172 H 111.539 -2.60845 -2.7702 0
M  V30 1173 H 111.051 -3.66339 -1.28131 0
M  V30 1174 H 109.152 -2.02738 -3.12615 0
M  V30 1175 H 109.265 -3.88403 -2.80499 0
M  V30 1176 H 107.629 -2.00669 -1.56856 0
M  V30 1177 H 108.412 -3.37787 -0.612789 0
M  V30 1178 N 110.857 0.726932 -1.39834 0
M  V30 1179 C 111.767 1.87131 -1.41489 0
M  V30 1180 C 112.783 1.71239 -0.308757 0
M  V30 1181 O 113.959 1.93701 -0.551529 0
M  V30 1182 C 111.024 3.22811 -1.26468 0
M  V30 1183 C 110.085 3.51039 -2.47124 0
M  V30 1184 C 109.318 4.80245 -2.3281 0
M  V30 1185 O 109.541 5.54537 -1.33585 0
M  V30 1186 O 108.475 5.08554 -3.21957 0
M  V30 1187 H 112.301 1.8869 -2.3797 0
M  V30 1188 H 109.886 0.875837 -1.21035 0
M  V30 1189 H 111.768 4.03877 -1.20255 0
M  V30 1190 H 110.443 3.22005 -0.330862 0
M  V30 1191 H 109.35 2.70027 -2.58914 0
M  V30 1192 H 110.683 3.56632 -3.39227 0
M  V30 1193 N 112.336 1.25143 0.95797 0
M  V30 1194 C 113.268 1.01023 2.05735 0
M  V30 1195 C 114.281 -0.0236902 1.62783 0
M  V30 1196 O 115.47 0.21448 1.77207 0
M  V30 1197 C 112.57 0.504595 3.35122 0
M  V30 1198 C 111.743 1.6039 4.06932 0
M  V30 1199 C 110.802 1.09922 5.14591 0
M  V30 1200 O 109.828 1.79293 5.40225 0
M  V30 1201 N 111.03 -0.0612545 5.80468 0
M  V30 1202 H 113.795 1.95683 2.26998 0
M  V30 1203 H 111.356 1.16303 1.12629 0
M  V30 1204 H 113.348 0.151516 4.04416 0
M  V30 1205 H 111.918 -0.347989 3.10657 0
M  V30 1206 H 111.138 2.12872 3.31782 0
M  V30 1207 H 112.426 2.34252 4.51667 0
M  V30 1208 H 111.824 -0.640985 5.62057 0
M  V30 1209 H 110.381 -0.355395 6.5083 0
M  V30 1210 N 113.814 -1.1601 1.06675 0
M  V30 1211 C 115.06 -1.86909 0.786945 0
M  V30 1212 C 115.393 -1.81717 -0.685018 0
M  V30 1213 O 114.668 -1.23551 -1.50218 0
M  V30 1214 C 114.951 -3.36313 1.28707 0
M  V30 1215 C 114.804 -3.50175 2.82308 0
M  V30 1216 C 116.123 -4.3084 0.898071 0
M  V30 1217 H 113.242 -0.678677 0.287343 0
M  V30 1218 H 115.884 -1.36336 1.32334 0
M  V30 1219 H 114.034 -3.79513 0.830768 0
M  V30 1220 H 115.706 -3.15886 3.36175 0
M  V30 1221 H 113.949 -2.91959 3.20847 0
M  V30 1222 H 114.62 -4.55116 3.12368 0
M  V30 1223 H 117.096 -3.95561 1.29114 0
M  V30 1224 H 115.972 -5.33876 1.27543 0
M  V30 1225 H 116.233 -4.41662 -0.196651 0
M  V30 1226 N 115.292 -0.849877 -1.32721 0
M  V30 1227 C 116.222 -0.306308 -2.31482 0
M  V30 1228 C 117.203 0.591952 -1.59468 0
M  V30 1229 O 118.388 0.513199 -1.87296 0
M  V30 1230 C 115.518 0.510204 -3.43532 0
M  V30 1231 C 114.472 -0.293209 -4.26994 0
M  V30 1232 C 113.798 0.647743 -5.30762 0
M  V30 1233 C 115.098 -1.51634 -4.99804 0
M  V30 1234 H 116.792 -1.13153 -2.77195 0
M  V30 1235 H 114.338 -0.545553 -1.33266 0
M  V30 1236 H 116.291 0.900856 -4.11658 0
M  V30 1237 H 115.015 1.36874 -2.96535 0
M  V30 1238 H 113.674 -0.665555 -3.60508 0
M  V30 1239 H 113.322 1.50299 -4.8002 0
M  V30 1240 H 113.022 0.11422 -5.87489 0
M  V30 1241 H 114.546 1.03567 -6.01753 0
M  V30 1242 H 115.96 -1.19824 -5.60638 0
M  V30 1243 H 114.357 -1.98745 -5.66234 0
M  V30 1244 H 115.427 -2.28018 -4.27943 0
M  V30 1245 N 116.77 1.45427 -0.607355 0
M  V30 1246 C 118.016 2.0254 -0.102607 0
M  V30 1247 C 118.349 1.47478 1.26348 0
M  V30 1248 O 117.624 0.64939 1.83339 0
M  V30 1249 C 117.907 3.60044 -0.0634347 0
M  V30 1250 C 117.76 4.2544 -1.46017 0
M  V30 1251 C 119.079 4.35646 0.624514 0
M  V30 1252 H 116.198 0.73598 -0.0387607 0
M  V30 1253 H 118.84 1.73284 -0.779282 0
M  V30 1254 H 116.99 3.85101 0.512808 0
M  V30 1255 H 118.662 4.11569 -2.08347 0
M  V30 1256 H 116.905 3.83849 -2.02094 0
M  V30 1257 H 117.576 5.34342 -1.385 0
M  V30 1258 H 120.052 4.15882 0.134723 0
M  V30 1259 H 118.928 5.45376 0.621028 0
M  V30 1260 H 119.189 4.08501 1.69055 0
M  V30 1261 N 118.248 0.346503 1.53744 0
M  V30 1262 C 119.473 -0.253074 2.0585 0
M  V30 1263 C 119.898 -1.43202 1.21962 0
M  V30 1264 O 119.256 -1.79783 0.234073 0
M  V30 1265 C 119.304 -0.643193 3.54817 0
M  V30 1266 O 118.408 -1.74286 3.73762 0
M  V30 1267 H 117.749 -0.0413583 0.662711 0
M  V30 1268 H 120.279 0.501574 1.98357 0
M  V30 1269 H 120.289 -0.919526 3.97503 0
M  V30 1270 H 118.964 0.218966 4.15323 0
M  V30 1271 H 117.541 -1.46356 3.42979 0
M  V30 1272 N 119.726 -1.57421 0.075193 0
M  V30 1273 C 121.142 -1.57099 -0.281444 0
M  V30 1274 C 121.342 -1.08486 -1.69803 0
M  V30 1275 O 120.398 -0.752279 -2.41033 0
M  V30 1276 C 121.711 -3.00571 -0.0880041 0
M  V30 1277 C 123.259 -3.12605 -0.157281 0
M  V30 1278 C 123.734 -4.57999 0.0079207 0
M  V30 1279 N 125.225 -4.63176 -0.0475725 0
M  V30 1280 C 125.96 -5.73373 0.0557876 0
M  V30 1281 N 125.456 -6.92473 0.21286 0
M  V30 1282 N 127.249 -5.621 -0.00152098 0
M  V30 1283 H 119.4 -1.87335 1.00098 0
M  V30 1284 H 121.663 -0.86377 0.390646 0
M  V30 1285 H 121.369 -3.40262 0.889629 0
M  V30 1286 H 121.243 -3.67754 -0.838875 0
M  V30 1287 H 123.63 -2.72798 -1.1254 0
M  V30 1288 H 123.711 -2.48053 0.62475 0
M  V30 1289 H 123.355 -4.98496 0.972824 0
M  V30 1290 H 123.285 -5.20586 -0.793556 0
M  V30 1291 H 125.776 -3.7753 -0.167244 0
M  V30 1292 H 126.089 -7.72279 0.283781 0
M  V30 1293 H 124.434 -6.94556 0.248267 0
M  V30 1294 H 127.625 -4.67938 -0.122958 0
M  V30 1295 H 127.798 -6.47948 0.0824844 0
M  V30 1296 N 121.204 0.198386 -1.56346 0
M  V30 1297 C 122.452 0.91747 -1.80075 0
M  V30 1298 C 122.773 1.83929 -0.647692 0
M  V30 1299 O 122.043 1.93029 0.334166 0
M  V30 1300 H 120.623 0.341774 -0.664228 0
M  V30 1301 H 123.285 0.204684 -1.93822 0
M  V30 1302 H 122.381 1.51055 -2.7311 0
M  V30 1303 N 122.682 1.50554 0.465978 0
M  V30 1304 C 123.645 1.69233 1.54574 0
M  V30 1305 C 124.645 0.562901 1.50626 0
M  V30 1306 O 125.835 0.830016 1.53155 0
M  V30 1307 C 122.967 1.7223 2.94193 0
M  V30 1308 H 124.16 2.65571 1.39327 0
M  V30 1309 H 121.713 1.40111 0.692711 0
M  V30 1310 H 122.448 0.77603 3.14878 0
M  V30 1311 H 122.233 2.54285 2.98466 0
M  V30 1312 H 123.723 1.88618 3.72576 0
M  V30 1313 N 124.16 -0.719506 1.40217 0
M  V30 1314 C 125.437 -1.47221 1.28784 0
M  V30 1315 C 125.817 -2.10883 -0.0956067 0
M  V30 1316 O 125.165 -1.99833 -1.10811 0
M  V30 1317 C 125.375 -2.5111 2.42373 0
M  V30 1318 C 126.723 -3.17053 2.82423 0
M  V30 1319 O 127.747 -2.61429 2.41937 0
M  V30 1320 O 126.606 -4.17742 3.52355 0
M  V30 1321 H 123.7 -0.654491 0.50554 0
M  V30 1322 H 126.246 -0.752014 1.52128 0
M  V30 1323 H 125.018 -2.02556 3.34793 0
M  V30 1324 H 124.641 -3.3067 2.20778 0
M  V30 1325 N 125.638 -1.25649 -0.95132 0
M  V30 1326 C 126.548 -1.08073 -2.08224 0
M  V30 1327 C 127.564 -0.0169666 -1.73992 0
M  V30 1328 O 128.74 -0.218593 -2.0021 0
M  V30 1329 C 125.805 -0.704922 -3.39458 0
M  V30 1330 C 124.866 -1.84699 -3.87537 0
M  V30 1331 C 124.099 -1.48902 -5.12508 0
M  V30 1332 O 124.322 -0.386156 -5.69091 0
M  V30 1333 O 123.256 -2.32033 -5.55378 0
M  V30 1334 H 127.082 -2.02924 -2.25954 0
M  V30 1335 H 124.667 -1.04618 -1.06656 0
M  V30 1336 H 126.549 -0.507609 -4.18332 0
M  V30 1337 H 125.224 0.214291 -3.2299 0
M  V30 1338 H 124.131 -2.09919 -3.09653 0
M  V30 1339 H 125.464 -2.74557 -4.08509 0
M  V30 1340 N 127.117 1.15442 -1.07289 0
M  V30 1341 C 128.365 1.85845 -0.794096 0
M  V30 1342 C 128.686 1.82692 0.681809 0
M  V30 1343 O 127.956 1.26741 1.49377 0
M  V30 1344 H 126.536 0.688089 -0.290763 0
M  V30 1345 H 129.198 1.39947 -1.3565 0
M  V30 1346 H 128.294 2.91001 -1.12804 0
M  V30 1347 N 128.595 0.856903 1.32268 0
M  V30 1348 C 129.844 0.457599 1.96441 0
M  V30 1349 C 130.157 -0.992426 1.68553 0
M  V30 1350 O 131.363 -1.49727 2.26482 0
M  V30 1351 C 129.819 0.767358 3.51624 0
M  V30 1352 C 129.427 2.23326 3.88367 0
M  V30 1353 C 131.171 0.435887 4.22256 0
M  V30 1354 C 129.078 2.48613 5.36606 0
M  V30 1355 H 128.008 0.167387 0.735185 0
M  V30 1356 H 130.659 1.048 1.5063 0
M  V30 1357 H 129.041 0.106367 3.95857 0
M  V30 1358 H 130.215 2.93623 3.55137 0
M  V30 1359 H 128.53 2.52948 3.30766 0
M  V30 1360 H 131.127 0.602202 5.31298 0
M  V30 1361 H 131.47 -0.622672 4.11617 0
M  V30 1362 H 132.003 1.05286 3.83614 0
M  V30 1363 H 128.742 3.53101 5.52268 0
M  V30 1364 H 128.262 1.82896 5.71235 0
M  V30 1365 H 129.941 2.32676 6.03714 0
M  V30 1366 N 130.073 -1.45103 0.615059 0
M  V30 1367 C 130.983 -2.34382 -0.101034 0
M  V30 1368 C 131.999 -1.51681 -0.852585 0
M  V30 1369 O 133.175 -1.8446 -0.808484 0
M  V30 1370 C 130.24 -3.29417 -1.08099 0
M  V30 1371 C 129.301 -4.28025 -0.330577 0
M  V30 1372 C 128.534 -5.1852 -1.26385 0
M  V30 1373 O 128.757 -5.12598 -2.50198 0
M  V30 1374 O 127.691 -5.97122 -0.756866 0
M  V30 1375 H 131.517 -2.97033 0.632855 0
M  V30 1376 H 129.102 -1.4461 0.375293 0
M  V30 1377 H 130.984 -3.87958 -1.6452 0
M  V30 1378 H 129.659 -2.69321 -1.79577 0
M  V30 1379 H 128.566 -3.73078 0.276283 0
M  V30 1380 H 129.899 -4.90997 0.343866 0
M  V30 1381 N 131.551 -0.354651 -1.53558 0
M  V30 1382 C 132.481 0.489091 -2.2832 0
M  V30 1383 C 133.462 1.09324 -1.30316 0
M  V30 1384 O 134.647 1.11255 -1.59173 0
M  V30 1385 C 131.777 1.63456 -3.0643 0
M  V30 1386 C 130.731 1.1582 -4.12031 0
M  V30 1387 C 130.057 2.39305 -4.7816 0
M  V30 1388 C 131.357 0.250731 -5.21698 0
M  V30 1389 H 133.051 -0.134614 -2.99097 0
M  V30 1390 H 130.597 -0.0661826 -1.43848 0
M  V30 1391 H 132.55 2.23136 -3.57475 0
M  V30 1392 H 131.274 2.28533 -2.33325 0
M  V30 1393 H 129.933 0.584146 -3.61916 0
M  V30 1394 H 129.581 3.02814 -4.01637 0
M  V30 1395 H 129.281 2.08109 -5.49513 0
M  V30 1396 H 130.805 2.99691 -5.31994 0
M  V30 1397 H 132.219 0.754695 -5.68311 0
M  V30 1398 H 130.616 0.0301468 -6.00092 0
M  V30 1399 H 131.686 -0.710125 -4.79672 0
M  V30 1400 N 133.029 1.57378 -0.0835403 0
M  V30 1401 C 133.959 2.1641 0.87686 0
M  V30 1402 C 134.94 1.09429 1.30228 0
M  V30 1403 O 136.125 1.37516 1.37124 0
M  V30 1404 C 133.255 2.73517 2.14022 0
M  V30 1405 C 132.209 3.85769 1.85381 0
M  V30 1406 C 131.535 4.29529 3.18448 0
M  V30 1407 C 132.835 5.09486 1.14984 0
M  V30 1408 H 134.529 2.96914 0.385059 0
M  V30 1409 H 132.075 1.42823 0.18377 0
M  V30 1410 H 134.028 3.13463 2.81636 0
M  V30 1411 H 132.752 1.90252 2.65465 0
M  V30 1412 H 131.411 3.46345 1.20169 0
M  V30 1413 H 131.059 3.43169 3.67755 0
M  V30 1414 H 130.759 5.05204 3.00071 0
M  V30 1415 H 132.283 4.72099 3.8724 0
M  V30 1416 H 133.697 5.46674 1.72687 0
M  V30 1417 H 132.094 5.90515 1.06826 0
M  V30 1418 H 133.164 4.84724 0.130749 0
M  V30 1419 N 134.507 -0.190092 1.56449 0
M  V30 1420 C 135.756 -0.907912 1.80111 0
M  V30 1421 C 136.069 -1.84214 0.657619 0
M  V30 1422 O 137.275 -2.60094 0.778663 0
M  V30 1423 C 135.731 -1.66485 3.19078 0
M  V30 1424 C 135.339 -0.7752 4.41242 0
M  V30 1425 C 137.083 -2.37201 3.52045 0
M  V30 1426 C 134.99 -1.53129 5.71231 0
M  V30 1427 H 133.92 -0.34276 0.671589 0
M  V30 1428 H 136.571 -0.161109 1.82791 0
M  V30 1429 H 134.953 -2.45572 3.10661 0
M  V30 1430 H 136.127 -0.0226298 4.60794 0
M  V30 1431 H 134.442 -0.178627 4.16017 0
M  V30 1432 H 137.039 -2.94329 4.46402 0
M  V30 1433 H 137.382 -3.11632 2.76028 0
M  V30 1434 H 137.915 -1.65075 3.61932 0
M  V30 1435 H 134.654 -0.82967 6.50228 0
M  V30 1436 H 134.174 -2.25767 5.55688 0
M  V30 1437 H 135.853 -2.08377 6.12526 0
M  V30 1438 N 135.985 -1.50799 -0.457987 0
M  V30 1439 C 137.401 -1.38515 -0.792819 0
M  V30 1440 C 137.601 -0.451409 -1.96379 0
M  V30 1441 O 136.657 0.10112 -2.52297 0
M  V30 1442 C 137.97 -2.80149 -1.09258 0
M  V30 1443 C 139.518 -2.89156 -1.19825 0
M  V30 1444 C 139.993 -4.31651 -1.53106 0
M  V30 1445 N 141.484 -4.34662 -1.60072 0
M  V30 1446 C 142.219 -5.41928 -1.87354 0
M  V30 1447 N 141.715 -6.59384 -2.12568 0
M  V30 1448 N 143.508 -5.29385 -1.88965 0
M  V30 1449 H 135.659 -2.10073 0.313511 0
M  V30 1450 H 137.922 -0.944803 0.0777862 0
M  V30 1451 H 137.628 -3.50374 -0.305084 0
M  V30 1452 H 137.502 -3.18204 -2.02549 0
M  V30 1453 H 139.889 -2.19141 -1.97639 0
M  V30 1454 H 139.97 -2.54626 -0.244821 0
M  V30 1455 H 139.614 -5.02208 -0.758266 0
M  V30 1456 H 139.544 -4.63678 -2.49621 0
M  V30 1457 H 142.035 -3.49973 -1.42573 0
M  V30 1458 H 142.348 -7.36934 -2.32696 0
M  V30 1459 H 140.693 -6.62535 -2.09933 0
M  V30 1460 H 143.884 -4.36616 -1.68772 0
M  V30 1461 H 144.057 -6.13066 -2.09891 0
M  V30 1462 N 137.463 0.71206 -1.40597 0
M  V30 1463 C 138.426 1.80785 -1.40888 0
M  V30 1464 C 139.426 1.57937 -0.302103 0
M  V30 1465 O 140.616 1.64913 -0.561182 0
M  V30 1466 C 137.748 3.18927 -1.20409 0
M  V30 1467 H 138.941 1.81924 -2.38419 0
M  V30 1468 H 136.494 0.91805 -1.26497 0
M  V30 1469 H 137.229 3.23436 -0.236522 0
M  V30 1470 H 137.014 3.36911 -2.00582 0
M  V30 1471 H 138.504 3.98949 -1.23408 0
M  V30 1472 N 138.941 1.26152 0.944643 0
M  V30 1473 C 140.188 1.11492 1.69044 0
M  V30 1474 C 140.516 -0.342366 1.91463 0
M  V30 1475 O 139.771 -1.26812 1.49054 0
M  V30 1476 C 140.07 1.82541 3.07268 0
M  V30 1477 C 139.736 3.32445 3.04616 0
M  V30 1478 C 138.398 3.73337 3.036 0
M  V30 1479 C 140.75 4.28171 2.97185 0
M  V30 1480 C 138.078 5.08348 2.92915 0
M  V30 1481 C 140.43 5.63218 2.88041 0
M  V30 1482 C 139.094 6.03426 2.85366 0
M  V30 1483 H 138.364 0.407977 0.618576 0
M  V30 1484 H 141.011 1.56551 1.10291 0
M  V30 1485 H 139.316 1.29941 3.69625 0
M  V30 1486 H 141.013 1.68642 3.63815 0
M  V30 1487 H 137.603 2.99915 3.06185 0
M  V30 1488 H 141.787 3.97563 2.97081 0
M  V30 1489 H 137.043 5.38667 2.89219 0
M  V30 1490 H 141.217 6.37078 2.81254 0
M  V30 1491 H 138.844 7.07999 2.76842 0
M  V30 1492 N 140.419 -1.14872 1.07899 0
M  V30 1493 C 141.659 -1.8745 0.814965 0
M  V30 1494 C 142.023 -1.80758 -0.64733 0
M  V30 1495 O 143.224 -2.48422 -1.02664 0
M  V30 1496 C 141.495 -3.32286 1.31607 0
M  V30 1497 S 143.054 -4.22537 1.18357 0
M  V30 1498 H 139.872 -0.646833 0.295174 0
M  V30 1499 H 142.474 -1.38555 1.37923 0
M  V30 1500 H 141.178 -3.34703 2.37491 0
M  V30 1501 H 140.709 -3.86238 0.747261 0
M  V30 1502 H 142.724 -4.96044 0.124586 0
M  V30 1503 N 141.898 -0.863906 -1.31812 0
M  V30 1504 C 142.808 -0.318461 -2.32428 0
M  V30 1505 C 143.824 0.568496 -1.64451 0
M  V30 1506 O 145 0.46666 -1.95919 0
M  V30 1507 C 142.065 0.476355 -3.43412 0
M  V30 1508 C 141.126 -0.43784 -4.27061 0
M  V30 1509 C 140.359 0.319138 -5.32745 0
M  V30 1510 O 140.582 1.54799 -5.48993 0
M  V30 1511 O 139.516 -0.319861 -6.01049 0
M  V30 1512 H 143.342 -1.15229 -2.80991 0
M  V30 1513 H 140.927 -0.627103 -1.35602 0
M  V30 1514 H 142.809 0.927156 -4.11074 0
M  V30 1515 H 141.484 1.28683 -2.97022 0
M  V30 1516 H 140.391 -0.937013 -3.62175 0
M  V30 1517 H 141.724 -1.21375 -4.77 0
M  V30 1518 N 143.376 1.44774 -0.622745 0
M  V30 1519 C 144.787 1.85546 -0.207226 0
M  V30 1520 C 145.138 1.52093 1.23944 0
M  V30 1521 O 144.263 0.95492 1.94191 0
M  V30 1522 C 144.858 3.36781 -0.369313 0
M  V30 1523 C 143.417 3.76399 -0.00836847 0
M  V30 1524 C 142.564 2.68664 -0.686651 0
M  V30 1525 H 145.515 1.3536 -0.828454 0
M  V30 1526 H 145.536 3.78453 0.394162 0
M  V30 1527 H 145.048 3.61098 -1.42231 0
M  V30 1528 H 143.149 3.57698 1.04322 0
M  V30 1529 H 143.262 4.7732 -0.412584 0
M  V30 1530 H 141.626 2.54404 -0.122777 0
M  V30 1531 H 142.409 2.95815 -1.74208 0
M  V30 1532 N 144.854 0.36279 1.53368 0
M  V30 1533 C 146.102 -0.227326 2.00817 0
M  V30 1534 C 146.423 -1.49511 1.25186 0
M  V30 1535 O 145.693 -1.92482 0.364348 0
M  V30 1536 H 144.273 -0.0869923 0.741917 0
M  V30 1537 H 146.935 0.488381 1.88682 0
M  V30 1538 H 146.031 -0.456273 3.08747 0
M  V30 1539 N 146.332 -1.57332 0.0918853 0
M  V30 1540 C 147.279 -2.13847 -0.868211 0
M  V30 1541 C 148.249 -1.05618 -1.28196 0
M  V30 1542 O 149.434 -1.33387 -1.36427 0
M  V30 1543 C 146.574 -2.72062 -2.12312 0
M  V30 1544 C 145.687 -3.94514 -1.7602 0
M  V30 1545 C 144.822 -4.40903 -2.96273 0
M  V30 1546 C 143.861 -5.55953 -2.56092 0
M  V30 1547 N 142.998 -5.97209 -3.69169 0
M  V30 1548 H 147.838 -2.95575 -0.379406 0
M  V30 1549 H 145.375 -1.46048 -0.175606 0
M  V30 1550 H 147.333 -3.03931 -2.858 0
M  V30 1551 H 145.963 -1.93068 -2.58698 0
M  V30 1552 H 145.015 -3.68979 -0.925135 0
M  V30 1553 H 146.327 -4.7802 -1.42472 0
M  V30 1554 H 145.481 -4.74539 -3.78018 0
M  V30 1555 H 144.22 -3.56291 -3.33029 0
M  V30 1556 H 143.225 -5.21948 -1.72773 0
M  V30 1557 H 144.45 -6.42311 -2.20484 0
M  V30 1558 H 142.396 -5.15543 -4.05649 0
M  V30 1559 H 142.313 -6.75504 -3.39456 0
M  V30 1560 H 143.581 -6.35475 -4.51434 0
M  V30 1561 N 147.81 0.181792 -1.56548 0
M  V30 1562 C 149.087 0.926765 -1.72251 0
M  V30 1563 C 149.467 2.00831 -0.650386 0
M  V30 1564 O 148.815 2.26008 0.336521 0
M  V30 1565 C 149.025 1.50106 -3.1507 0
M  V30 1566 C 150.373 1.97805 -3.75711 0
M  V30 1567 O 151.397 1.59922 -3.18282 0
M  V30 1568 O 150.256 2.67555 -4.76525 0
M  V30 1569 H 147.35 0.435506 -0.703039 0
M  V30 1570 H 149.896 0.170443 -1.68842 0
M  V30 1571 H 148.668 0.72212 -3.84579 0
M  V30 1572 H 148.291 2.32186 -3.22763 0
M  V30 1573 N 149.288 1.51039 0.449983 0
M  V30 1574 C 150.251 1.70863 1.5277 0
M  V30 1575 C 151.251 0.578846 1.5002 0
M  V30 1576 O 152.441 0.846213 1.52266 0
M  V30 1577 C 149.573 1.75341 2.9235 0
M  V30 1578 H 150.766 2.67034 1.36502 0
M  V30 1579 H 148.319 1.40838 0.677812 0
M  V30 1580 H 149.054 0.809383 3.14037 0
M  V30 1581 H 148.839 2.57436 2.95752 0
M  V30 1582 H 150.329 1.92559 3.70555 0
M  V30 1583 N 150.766 -0.704594 1.40972 0
M  V30 1584 C 152.015 -1.46018 1.39146 0
M  V30 1585 C 152.328 -1.956 0.000589254 0
M  V30 1586 O 153.534 -2.71137 -0.1403 0
M  V30 1587 C 151.99 -2.63996 2.4461 0
M  V30 1588 C 151.598 -2.21238 3.89561 0
M  V30 1589 C 153.342 -3.41677 2.51907 0
M  V30 1590 C 151.249 -3.3612 4.86598 0
M  V30 1591 H 150.179 -0.548444 0.517422 0
M  V30 1592 H 152.83 -0.765784 1.66757 0
M  V30 1593 H 151.212 -3.3566 2.10115 0
M  V30 1594 H 152.386 -1.56923 4.33257 0
M  V30 1595 H 150.701 -1.56574 3.85841 0
M  V30 1596 H 153.298 -4.27182 3.2159 0
M  V30 1597 H 153.641 -3.86247 1.55303 0
M  V30 1598 H 154.174 -2.77064 2.85448 0
M  V30 1599 H 150.913 -2.96572 5.84573 0
M  V30 1600 H 150.433 -3.99315 4.47557 0
M  V30 1601 H 152.112 -4.02029 5.06934 0
M  V30 1602 N 152.244 -1.26651 -0.937939 0
M  V30 1603 C 153.174 -1.10993 -2.05433 0
M  V30 1604 C 154.155 -0.0142161 -1.70094 0
M  V30 1605 O 155.34 -0.186837 -1.93299 0
M  V30 1606 C 152.47 -0.745561 -3.39203 0
M  V30 1607 C 151.424 -1.79337 -3.88616 0
M  V30 1608 C 150.75 -1.28324 -5.19073 0
M  V30 1609 C 152.05 -3.19553 -4.13138 0
M  V30 1610 H 153.744 -2.0438 -2.1879 0
M  V30 1611 H 151.29 -0.984041 -1.05131 0
M  V30 1612 H 153.243 -0.622888 -4.16771 0
M  V30 1613 H 151.967 0.22401 -3.25831 0
M  V30 1614 H 150.626 -1.90477 -3.13231 0
M  V30 1615 H 150.274 -0.303414 -5.02084 0
M  V30 1616 H 149.974 -1.98369 -5.53103 0
M  V30 1617 H 151.498 -1.1733 -5.99221 0
M  V30 1618 H 152.912 -3.11471 -4.81309 0
M  V30 1619 H 151.309 -3.87218 -4.58457 0
M  V30 1620 H 152.379 -3.65368 -3.18801 0
M  V30 1621 N 153.722 1.14298 -1.08507 0
M  V30 1622 C 154.952 1.88945 -0.835663 0
M  V30 1623 C 155.36 1.78894 0.615928 0
M  V30 1624 O 154.703 1.1468 1.43506 0
M  V30 1625 C 154.765 3.39585 -1.17994 0
M  V30 1626 C 154.429 3.7342 -2.63451 0
M  V30 1627 C 155.426 3.73454 -3.61702 0
M  V30 1628 C 153.111 4.03368 -2.99332 0
M  V30 1629 C 155.105 4.02961 -4.93864 0
M  V30 1630 C 152.792 4.32538 -4.31687 0
M  V30 1631 C 153.79 4.32318 -5.28763 0
M  V30 1632 O 153.478 4.6078 -6.58739 0
M  V30 1633 H 153.21 0.605307 -0.300965 0
M  V30 1634 H 155.764 1.45673 -1.44806 0
M  V30 1635 H 153.994 3.83315 -0.51055 0
M  V30 1636 H 155.683 3.9554 -0.911182 0
M  V30 1637 H 156.449 3.50403 -3.35325 0
M  V30 1638 H 152.328 4.02692 -2.24411 0
M  V30 1639 H 155.872 4.02704 -5.69627 0
M  V30 1640 H 151.769 4.55059 -4.57812 0
M  V30 1641 H 152.537 4.78492 -6.64069 0
M  V30 1642 N 155.201 0.870884 1.31352 0
M  V30 1643 C 156.441 0.488783 1.9847 0
M  V30 1644 C 156.805 -0.941536 1.67329 0
M  V30 1645 O 158.006 -1.42903 2.27667 0
M  V30 1646 C 156.277 0.739688 3.49662 0
M  V30 1647 S 157.836 0.457582 4.36408 0
M  V30 1648 H 154.654 0.18242 0.6872 0
M  V30 1649 H 157.256 1.12711 1.59739 0
M  V30 1650 H 155.96 1.77944 3.69816 0
M  V30 1651 H 155.491 0.0883905 3.93301 0
M  V30 1652 H 157.506 -0.709752 4.91098 0
M  V30 1653 N 156.679 -1.44442 0.630414 0
M  V30 1654 C 158.09 -1.85434 0.217063 0
M  V30 1655 C 158.441 -1.52748 -1.23136 0
M  V30 1656 O 157.566 -0.965205 -1.93682 0
M  V30 1657 C 158.161 -3.36581 0.387168 0
M  V30 1658 C 156.72 -3.76389 0.0283297 0
M  V30 1659 C 155.867 -2.68296 0.700889 0
M  V30 1660 H 158.818 -1.34919 0.83562 0
M  V30 1661 H 158.839 -3.78657 -0.374086 0
M  V30 1662 H 158.351 -3.60339 1.44144 0
M  V30 1663 H 156.452 -3.58246 -1.02423 0
M  V30 1664 H 156.565 -4.77095 0.437892 0
M  V30 1665 H 154.929 -2.54335 0.136267 0
M  V30 1666 H 155.712 -2.94887 1.75774 0
M  V30 1667 N 158.157 -0.370918 -1.53173 0
M  V30 1668 C 159.568 0.107139 -1.86392 0
M  V30 1669 C 159.919 1.47714 -1.29132 0
M  V30 1670 O 159.044 2.07464 -0.615439 0
M  V30 1671 C 159.639 0.201187 -3.38202 0
M  V30 1672 C 158.198 0.623507 -3.712 0
M  V30 1673 C 157.345 -0.225978 -2.76378 0
M  V30 1674 H 160.296 -0.58951 -1.47345 0
M  V30 1675 H 160.317 1.02377 -3.66468 0
M  V30 1676 H 159.829 -0.796058 -3.79848 0
M  V30 1677 H 157.93 1.62879 -3.35114 0
M  V30 1678 H 158.043 0.394414 -4.77474 0
M  V30 1679 H 156.407 0.305962 -2.52856 0
M  V30 1680 H 157.19 -1.22086 -3.20858 0
M  V30 1681 N 159.635 1.57281 -0.100228 0
M  V30 1682 C 160.863 1.98879 0.570509 0
M  V30 1683 C 161.278 0.979476 1.61405 0
M  V30 1684 O 160.635 -0.0302288 1.82475 0
M  V30 1685 C 160.686 3.4052 1.2136 0
M  V30 1686 O 160.407 4.37588 0.211786 0
M  V30 1687 C 161.908 3.97149 1.96945 0
M  V30 1688 H 159.128 0.653428 0.152555 0
M  V30 1689 H 161.672 2.03697 -0.18103 0
M  V30 1690 H 159.827 3.367 1.91603 0
M  V30 1691 H 160.241 5.20118 0.676607 0
M  V30 1692 H 161.715 4.98393 2.37294 0
M  V30 1693 H 162.192 3.3525 2.83733 0
M  V30 1694 H 162.798 4.04458 1.31506 0
M  V30 1695 N 161.113 -0.173488 1.56642 0
M  V30 1696 C 162.343 -0.904781 1.85734 0
M  V30 1697 C 162.751 -1.76431 0.68328 0
M  V30 1698 O 162.094 -1.802 -0.356865 0
M  V30 1699 C 162.156 -1.83382 3.09211 0
M  V30 1700 C 161.82 -1.15411 4.42187 0
M  V30 1701 C 162.817 -0.520609 5.17287 0
M  V30 1702 C 160.502 -1.15151 4.88923 0
M  V30 1703 C 162.496 0.106412 6.37311 0
M  V30 1704 C 160.183 -0.520664 6.08878 0
M  V30 1705 C 161.181 0.107196 6.82916 0
M  V30 1706 O 160.869 0.728102 8.00596 0
M  V30 1707 H 160.601 -0.268408 0.62043 0
M  V30 1708 H 163.155 -0.179096 2.04618 0
M  V30 1709 H 161.385 -2.59976 2.86268 0
M  V30 1710 H 163.074 -2.43476 3.24768 0
M  V30 1711 H 163.84 -0.514606 4.82262 0
M  V30 1712 H 159.719 -1.62961 4.31236 0
M  V30 1713 H 163.263 0.597081 6.9504 0
M  V30 1714 H 159.16 -0.524242 6.43368 0
M  V30 1715 H 159.928 0.627138 8.16094 0
M  V30 1716 N 162.591 -1.51276 -0.441967 0
M  V30 1717 C 163.839 -1.63392 -1.18943 0
M  V30 1718 C 164.16 -0.350159 -1.9183 0
M  V30 1719 O 163.43 0.633784 -1.85364 0
M  V30 1720 H 162.01 -0.602164 -0.442049 0
M  V30 1721 H 164.672 -1.88186 -0.507165 0
M  V30 1722 H 163.768 -2.45934 -1.92154 0
M  V30 1723 N 164.069 0.697108 -1.41344 0
M  V30 1724 C 165.002 1.82134 -1.37486 0
M  V30 1725 C 165.98 1.60784 -0.242351 0
M  V30 1726 O 167.164 1.83553 -0.429012 0
M  V30 1727 C 164.291 3.18788 -1.14421 0
M  V30 1728 C 163.337 3.58932 -2.3037 0
M  V30 1729 S 164.17 3.63916 -3.92843 0
M  V30 1730 C 165.326 5.03298 -3.72078 0
M  V30 1731 H 165.559 1.85129 -2.32625 0
M  V30 1732 H 163.092 0.865671 -1.2785 0
M  V30 1733 H 165.05 3.97677 -1.018 0
M  V30 1734 H 163.711 3.13404 -0.20905 0
M  V30 1735 H 162.904 4.58202 -2.09922 0
M  V30 1736 H 162.506 2.87347 -2.39391 0
M  V30 1737 H 164.798 5.90753 -3.31688 0
M  V30 1738 H 165.741 5.28788 -4.70945 0
M  V30 1739 H 166.149 4.74764 -3.05384 0
M  V30 1740 N 165.547 1.27147 0.931209 0
M  V30 1741 C 166.777 1.15914 1.71019 0
M  V30 1742 C 167.185 -0.287112 1.87009 0
M  V30 1743 O 166.528 -1.20761 1.38429 0
M  V30 1744 C 166.59 1.76647 3.13107 0
M  V30 1745 C 166.254 3.25807 3.20467 0
M  V30 1746 C 167.251 4.22489 3.02983 0
M  V30 1747 C 164.936 3.66452 3.43538 0
M  V30 1748 C 166.93 5.57794 3.08454 0
M  V30 1749 C 164.617 5.01888 3.48643 0
M  V30 1750 C 165.615 5.97369 3.31119 0
M  V30 1751 O 165.303 7.30337 3.35952 0
M  V30 1752 H 165.035 0.404062 0.54195 0
M  V30 1753 H 167.589 1.68457 1.17521 0
M  V30 1754 H 165.819 1.18578 3.68071 0
M  V30 1755 H 167.508 1.60179 3.72958 0
M  V30 1756 H 168.274 3.92425 2.85004 0
M  V30 1757 H 164.153 2.92611 3.5623 0
M  V30 1758 H 167.697 6.32298 2.94694 0
M  V30 1759 H 163.594 5.31609 3.66145 0
M  V30 1760 H 164.362 7.38739 3.5243 0
M  V30 1761 N 167.025 -1.13721 1.09112 0
M  V30 1762 C 168.25 -1.89314 0.847053 0
M  V30 1763 C 168.675 -1.78416 -0.595774 0
M  V30 1764 O 168.033 -1.12942 -1.41823 0
M  V30 1765 C 168.081 -3.3701 1.28284 0
M  V30 1766 O 167.185 -4.10054 0.439267 0
M  V30 1767 H 166.526 -0.588745 0.307044 0
M  V30 1768 H 169.056 -1.43902 1.45442 0
M  V30 1769 H 169.066 -3.87834 1.26683 0
M  V30 1770 H 167.741 -3.4426 2.33363 0
M  V30 1771 H 166.318 -3.69266 0.519312 0
M  V30 1772 N 168.503 -0.877838 -1.30888 0
M  V30 1773 C 169.749 -0.493426 -1.96706 0
M  V30 1774 C 170.082 0.953504 -1.6918 0
M  V30 1775 O 169.357 1.67266 -0.992594 0
M  V30 1776 C 169.64 -0.760429 -3.51979 0
M  V30 1777 C 169.493 -2.25747 -3.89048 0
M  V30 1778 C 170.812 -0.232148 -4.39487 0
M  V30 1779 H 167.931 -0.180746 -0.714493 0
M  V30 1780 H 170.573 -1.10052 -1.54882 0
M  V30 1781 H 168.723 -0.243715 -3.87735 0
M  V30 1782 H 170.395 -2.84204 -3.63354 0
M  V30 1783 H 168.638 -2.72694 -3.37373 0
M  V30 1784 H 169.309 -2.39491 -4.97341 0
M  V30 1785 H 171.785 -0.674314 -4.106 0
M  V30 1786 H 170.661 -0.448355 -5.47066 0
M  V30 1787 H 170.922 0.866297 -4.33529 0
M  V30 1788 N 169.982 1.44106 -0.638065 0
M  V30 1789 C 171.207 2.0685 -0.150916 0
M  V30 1790 C 171.632 1.47417 1.16833 0
M  V30 1791 O 170.99 0.578264 1.71831 0
M  V30 1792 C 171.038 3.60555 -0.05708 0
M  V30 1793 O 170.142 4.00465 0.984972 0
M  V30 1794 H 169.483 0.658151 -0.0879399 0
M  V30 1795 H 172.013 1.84865 -0.876707 0
M  V30 1796 H 172.023 4.07789 0.131232 0
M  V30 1797 H 170.698 4.03193 -1.02021 0
M  V30 1798 H 169.275 3.64849 0.770672 0
M  V30 1799 N 171.46 0.379036 1.52974 0
M  V30 1800 C 172.423 -0.448865 2.24762 0
M  V30 1801 C 173.423 -0.998689 1.26027 0
M  V30 1802 O 174.613 -0.882313 1.50203 0
M  V30 1803 C 171.745 -1.62872 2.99476 0
M  V30 1804 H 172.938 0.179491 2.99362 0
M  V30 1805 H 170.491 0.13096 1.5575 0
M  V30 1806 H 171.226 -2.29479 2.29151 0
M  V30 1807 H 171.011 -1.24128 3.71934 0
M  V30 1808 H 172.501 -2.2151 3.5401 0
M  V30 1809 N 172.938 -1.57226 0.108567 0
M  V30 1810 C 173.848 -2.18292 -0.859401 0
M  V30 1811 C 174.864 -1.15612 -1.30038 0
M  V30 1812 O 176.04 -1.48039 -1.36552 0
M  V30 1813 C 173.105 -2.762 -2.09558 0
M  V30 1814 C 172.166 -3.93881 -1.70752 0
M  V30 1815 C 171.399 -4.49018 -2.88477 0
M  V30 1816 O 171.622 -4.03068 -4.036 0
M  V30 1817 O 170.556 -5.39852 -2.66164 0
M  V30 1818 H 174.382 -3.01441 -0.369769 0
M  V30 1819 H 171.967 -1.48945 -0.1165 0
M  V30 1820 H 173.849 -3.13156 -2.81978 0
M  V30 1821 H 172.524 -1.96089 -2.57548 0
M  V30 1822 H 171.431 -3.61713 -0.954714 0
M  V30 1823 H 172.764 -4.75396 -1.27513 0
M  V30 1824 N 174.416 0.165178 -1.56732 0
M  V30 1825 C 175.644 0.896218 -1.86482 0
M  V30 1826 C 176.059 1.75555 -0.694675 0
M  V30 1827 O 175.416 1.79379 0.33607 0
M  V30 1828 C 175.467 1.76792 -3.1532 0
M  V30 1829 O 175.188 0.943239 -4.27825 0
M  V30 1830 C 176.689 2.6081 -3.58459 0
M  V30 1831 H 173.909 0.260064 -0.618553 0
M  V30 1832 H 176.453 0.163428 -2.03846 0
M  V30 1833 H 174.608 2.45398 -2.99764 0
M  V30 1834 H 175.022 1.53998 -5.01383 0
M  V30 1835 H 176.496 3.17579 -4.51495 0
M  V30 1836 H 176.973 3.35977 -2.82872 0
M  V30 1837 H 177.579 1.97526 -3.76648 0
M  V30 1838 N 175.894 1.51508 0.433938 0
M  V30 1839 C 177.143 1.63578 1.18005 0
M  V30 1840 C 177.456 0.359514 1.92268 0
M  V30 1841 O 178.662 0.359632 2.69108 0
M  V30 1842 C 177.118 2.88901 2.14626 0
M  V30 1843 C 176.726 4.23544 1.45995 0
M  V30 1844 C 178.47 3.10328 2.89649 0
M  V30 1845 C 176.377 5.40014 2.4112 0
M  V30 1846 H 175.307 0.609277 0.444182 0
M  V30 1847 H 177.958 1.77978 0.446773 0
M  V30 1848 H 176.34 2.68142 2.91403 0
M  V30 1849 H 177.514 4.54696 0.747532 0
M  V30 1850 H 175.829 4.08021 0.831115 0
M  V30 1851 H 178.426 3.94518 3.60915 0
M  V30 1852 H 178.769 2.23544 3.51189 0
M  V30 1853 H 179.302 3.31443 2.19978 0
M  V30 1854 H 176.041 6.29068 1.84264 0
M  V30 1855 H 175.561 5.13233 3.10406 0
M  V30 1856 H 177.24 5.72099 3.02177 0
M  V30 1857 N 177.372 -0.689602 1.41712 0
M  V30 1858 C 178.62 -1.4468 1.4111 0
M  V30 1859 C 178.941 -1.94986 0.0232196 0
M  V30 1860 O 178.211 -1.72097 -0.935913 0
M  V30 1861 H 176.791 -0.536847 0.519427 0
M  V30 1862 H 179.453 -0.815825 1.77004 0
M  V30 1863 H 178.549 -2.30706 2.10193 0
M  V30 1864 N 178.85 -1.27639 -0.924453 0
M  V30 1865 C 180.096 -1.14336 -1.67497 0
M  V30 1866 C 180.429 0.309465 -1.91718 0
M  V30 1867 O 179.704 1.22608 -1.50989 0
M  V30 1868 C 179.987 -1.93096 -3.0395 0
M  V30 1869 C 179.84 -3.46381 -2.8695 0
M  V30 1870 C 181.159 -1.73798 -4.0433 0
M  V30 1871 H 178.278 -0.416728 -0.607871 0
M  V30 1872 H 180.92 -1.56832 -1.07256 0
M  V30 1873 H 179.07 -1.56982 -3.55372 0
M  V30 1874 H 180.742 -3.92343 -2.42621 0
M  V30 1875 H 178.985 -3.72557 -2.22225 0
M  V30 1876 H 179.656 -3.96735 -3.83804 0
M  V30 1877 H 182.132 -2.05293 -3.61931 0
M  V30 1878 H 181.008 -2.31294 -4.97789 0
M  V30 1879 H 181.269 -0.686725 -4.36734 0
M  V30 1880 N 180.328 1.1314 -1.09713 0
M  V30 1881 C 181.238 2.22242 -0.751367 0
M  V30 1882 C 182.254 1.72224 0.247938 0
M  V30 1883 O 183.43 2.01205 0.0885463 0
M  V30 1884 C 180.495 3.46231 -0.180274 0
M  V30 1885 C 179.556 4.11125 -1.2359 0
M  V30 1886 C 178.789 5.29195 -0.691966 0
M  V30 1887 O 179.012 5.68342 0.48414 0
M  V30 1888 O 177.946 5.84214 -1.44838 0
M  V30 1889 H 181.772 2.54197 -1.66186 0
M  V30 1890 H 179.357 1.21331 -0.871735 0
M  V30 1891 H 181.239 4.21185 0.134739 0
M  V30 1892 H 179.914 3.1597 0.703185 0
M  V30 1893 H 178.821 3.37985 -1.60366 0
M  V30 1894 H 180.154 4.45524 -2.09211 0
M  V30 1895 N 181.806 0.884767 1.30421 0
M  V30 1896 C 183.046 0.509806 1.9794 0
M  V30 1897 C 183.41 -0.923736 1.68319 0
M  V30 1898 O 184.611 -1.40481 2.29169 0
M  V30 1899 C 182.882 0.776732 3.48858 0
M  V30 1900 S 184.441 0.503843 4.35898 0
M  V30 1901 H 181.259 0.189699 0.685227 0
M  V30 1902 H 183.861 1.14399 1.58535 0
M  V30 1903 H 182.565 1.81857 3.67908 0
M  V30 1904 H 182.096 0.1301 3.93185 0
M  V30 1905 H 184.111 -0.657625 4.91823 0
M  V30 1906 N 183.284 -1.43765 0.645699 0
M  V30 1907 C 184.7 -1.56509 0.312591 0
M  V30 1908 C 184.9 -1.6307 -1.18365 0
M  V30 1909 O 183.956 -1.58167 -1.96824 0
M  V30 1910 C 185.269 -2.82968 1.01733 0
M  V30 1911 C 186.817 -2.96701 0.996865 0
M  V30 1912 C 187.292 -4.25982 1.68236 0
M  V30 1913 N 188.783 -4.32829 1.64964 0
M  V30 1914 C 189.518 -5.31613 2.14885 0
M  V30 1915 N 189.014 -6.36718 2.73061 0
M  V30 1916 N 190.807 -5.23217 2.05428 0
M  V30 1917 H 182.958 -1.3775 1.61675 0
M  V30 1918 H 185.221 -0.661067 0.679481 0
M  V30 1919 H 184.927 -2.84156 2.0724 0
M  V30 1920 H 184.801 -3.72957 0.564177 0
M  V30 1921 H 187.188 -2.95058 -0.0497719 0
M  V30 1922 H 187.269 -2.08022 1.48865 0
M  V30 1923 H 186.913 -4.28386 2.72852 0
M  V30 1924 H 186.843 -5.13545 1.16529 0
M  V30 1925 H 189.334 -3.57493 1.22503 0
M  V30 1926 H 189.647 -7.08401 3.08848 0
M  V30 1927 H 187.992 -6.37362 2.77118 0
M  V30 1928 H 191.183 -4.40019 1.59689 0
M  V30 1929 H 191.356 -6.00045 2.44643 0
M  V30 1930 N 184.763 -0.387143 -1.52771 0
M  V30 1931 C 185.991 0.195869 -2.05971 0
M  V30 1932 C 186.406 1.40691 -1.25903 0
M  V30 1933 O 185.763 1.79931 -0.305134 0
M  V30 1934 C 185.814 0.56812 -3.57008 0
M  V30 1935 O 185.535 -0.594803 -4.34043 0
M  V30 1936 C 187.036 1.20723 -4.26545 0
M  V30 1937 H 184.256 0.0300578 -0.670326 0
M  V30 1938 H 186.8 -0.551749 -1.96916 0
M  V30 1939 H 184.955 1.26564 -3.66143 0
M  V30 1940 H 185.369 -0.289322 -5.23701 0
M  V30 1941 H 186.843 1.41807 -5.33474 0
M  V30 1942 H 187.32 2.17395 -3.81623 0
M  V30 1943 H 187.926 0.550535 -4.21722 0
M  V30 1944 N 186.241 1.57166 -0.116904 0
M  V30 1945 C 187.487 1.95412 0.542405 0
M  V30 1946 C 187.82 1.00019 1.66463 0
M  V30 1947 O 187.095 0.0370346 1.94465 0
M  V30 1948 C 187.378 3.43615 1.07708 0
M  V30 1949 C 187.231 4.49781 -0.0415868 0
M  V30 1950 C 188.55 3.93616 1.96861 0
M  V30 1951 H 185.669 0.710543 0.195696 0
M  V30 1952 H 188.311 1.89027 -0.192038 0
M  V30 1953 H 186.461 3.49187 1.70296 0
M  V30 1954 H 188.133 4.56308 -0.676793 0
M  V30 1955 H 186.376 4.28033 -0.705019 0
M  V30 1956 H 187.047 5.50733 0.373717 0
M  V30 1957 H 189.523 3.90335 1.44146 0
M  V30 1958 H 188.399 4.97838 2.3119 0
M  V30 1959 H 188.66 3.34188 2.89432 0
M  V30 1960 N 187.719 -0.156864 1.56817 0
M  V30 1961 C 189.13 -0.717916 1.72345 0
M  V30 1962 C 189.481 -1.82124 0.729747 0
M  V30 1963 O 188.606 -2.16141 -0.105781 0
M  V30 1964 C 189.201 -1.30904 3.12489 0
M  V30 1965 C 187.76 -1.81676 3.29653 0
M  V30 1966 C 186.907 -0.701349 2.68284 0
M  V30 1967 H 189.858 0.0686989 1.58551 0
M  V30 1968 H 189.879 -2.17882 3.11942 0
M  V30 1969 H 189.391 -0.505796 3.8479 0
M  V30 1970 H 187.492 -2.64598 2.62333 0
M  V30 1971 H 187.605 -1.95226 4.3752 0
M  V30 1972 H 185.969 -1.12548 2.28484 0
M  V30 1973 H 186.752 0.0902846 3.43181 0
M  V30 1974 N 189.197 -1.51736 -0.425897 0
M  V30 1975 C 190.425 -1.68794 -1.1965 0
M  V30 1976 C 190.84 -0.390164 -1.84725 0
M  V30 1977 O 190.197 0.632376 -1.71194 0
M  V30 1978 C 190.248 -2.81174 -2.27208 0
M  V30 1979 O 189.969 -4.05925 -1.64793 0
M  V30 1980 C 191.47 -3.09599 -3.17275 0
M  V30 1981 H 188.69 -0.566128 -0.360194 0
M  V30 1982 H 191.234 -1.98211 -0.503249 0
M  V30 1983 H 189.389 -2.54324 -2.9223 0
M  V30 1984 H 189.803 -4.68423 -2.35967 0
M  V30 1985 H 191.277 -3.91786 -3.88854 0
M  V30 1986 H 191.754 -2.22468 -3.78688 0
M  V30 1987 H 192.36 -3.38151 -2.57941 0
M  V30 1988 N 190.675 0.682077 -1.42076 0
M  V30 1989 C 191.605 1.80796 -1.47767 0
M  V30 1990 C 192.586 1.6677 -0.334954 0
M  V30 1991 O 193.771 1.863 -0.548264 0
M  V30 1992 C 190.901 3.19038 -1.37229 0
M  V30 1993 C 189.855 3.47789 -2.49453 0
M  V30 1994 C 189.181 4.8553 -2.23975 0
M  V30 1995 C 190.481 3.45411 -3.91776 0
M  V30 1996 H 192.175 1.7629 -2.41997 0
M  V30 1997 H 189.721 0.846721 -1.16476 0
M  V30 1998 H 191.674 3.97528 -1.39821 0
M  V30 1999 H 190.398 3.24204 -0.394907 0
M  V30 2000 H 189.057 2.71657 -2.46166 0
M  V30 2001 H 188.705 4.87337 -1.24547 0
M  V30 2002 H 188.405 5.0573 -2.99184 0
M  V30 2003 H 189.929 5.66312 -2.28304 0
M  V30 2004 H 191.343 4.13882 -3.96705 0
M  V30 2005 H 189.74 3.77145 -4.66778 0
M  V30 2006 H 190.81 2.44122 -4.18966 0
M  V30 2007 N 192.153 1.28127 0.917671 0
M  V30 2008 C 193.43 1.05761 1.64542 0
M  V30 2009 C 193.81 -0.404344 2.07191 0
M  V30 2010 O 193.158 -1.38963 1.81388 0
M  V30 2011 C 193.368 2.02857 2.83989 0
M  V30 2012 C 194.716 2.32786 3.551 0
M  V30 2013 O 195.74 2.0091 2.94132 0
M  V30 2014 O 194.599 2.87169 4.64969 0
M  V30 2015 H 191.693 0.403916 0.721652 0
M  V30 2016 H 194.239 1.39431 0.967322 0
M  V30 2017 H 193.011 3.01407 2.49538 0
M  V30 2018 H 192.634 1.69809 3.59514 0
M  V30 2019 N 193.631 -1.12557 1.10312 0
M  V30 2020 C 194.579 -2.20325 0.745629 0
M  V30 2021 C 195.573 -1.67429 -0.25763 0
M  V30 2022 O 196.779 -1.79612 -0.118132 0
M  V30 2023 H 193.154 -0.718118 0.223182 0
M  V30 2024 H 195.125 -2.47733 1.66346 0
M  V30 2025 C 193.874 -3.47168 0.192262 0
M  V30 2026 H 193.197 -3.88215 0.955475 0
M  V30 2027 H 194.637 -4.23995 -0.0198274 0
M  V30 2028 C 193.096 -3.19298 -1.07472 0
M  V30 2029 O 193.626 -3.3891 -2.15645 0
M  V30 2030 N 191.832 -2.73113 -0.992847 0
M  V30 2031 H 191.379 -2.57354 -0.112474 0
M  V30 2032 H 191.337 -2.54842 -1.84127 0
M  V30 2033 N 195.109 -0.891671 -1.2995 0
M  V30 2034 C 196.355 -0.523649 -1.96544 0
M  V30 2035 C 196.71 0.918394 -1.69066 0
M  V30 2036 O 196.003 1.64122 -0.988659 0
M  V30 2037 C 196.197 -0.742868 -3.49594 0
M  V30 2038 C 196.026 -2.20467 -3.9195 0
M  V30 2039 C 194.796 -2.85055 -4.17219 0
M  V30 2040 C 196.994 -3.17912 -4.04273 0
M  V30 2041 N 194.976 -4.21762 -4.46083 0
M  V30 2042 C 196.347 -4.39712 -4.37097 0
M  V30 2043 C 198.402 -3.1361 -3.86721 0
M  V30 2044 C 197.105 -5.5776 -4.54199 0
M  V30 2045 C 199.131 -4.30936 -4.05028 0
M  V30 2046 C 198.493 -5.51504 -4.38204 0
M  V30 2047 H 194.592 -0.241072 -0.743914 0
M  V30 2048 H 197.176 -1.15081 -1.5705 0
M  V30 2049 H 195.347 -0.14515 -3.88129 0
M  V30 2050 H 197.079 -0.341081 -4.0326 0
M  V30 2051 H 193.834 -2.35889 -4.10674 0
M  V30 2052 H 194.258 -4.92382 -4.64638 0
M  V30 2053 H 198.9 -2.21489 -3.60142 0
M  V30 2054 H 196.618 -6.50379 -4.79618 0
M  V30 2055 H 200.204 -4.29085 -3.92909 0
M  V30 2056 H 199.084 -6.40778 -4.52077 0
M  V30 2057 N 196.587 1.43421 -0.653314 0
M  V30 2058 C 197.519 2.29071 0.0769134 0
M  V30 2059 C 198.532 1.42513 0.787017 0
M  V30 2060 O 199.721 1.66449 0.644757 0
M  V30 2061 C 196.821 3.19436 1.13199 0
M  V30 2062 C 195.994 4.34533 0.500006 0
M  V30 2063 C 195.053 5.05771 1.45198 0
M  V30 2064 O 194.079 5.61037 0.960538 0
M  V30 2065 N 195.281 5.0928 2.78594 0
M  V30 2066 H 198.046 2.92382 -0.658235 0
M  V30 2067 H 195.607 1.54112 -0.496104 0
M  V30 2068 H 197.599 3.63958 1.76964 0
M  V30 2069 H 196.169 2.57724 1.7691 0
M  V30 2070 H 195.389 3.92925 -0.316738 0
M  V30 2071 H 196.677 5.08766 0.0588345 0
M  V30 2072 H 196.075 4.65751 3.2108 0
M  V30 2073 H 194.632 5.57519 3.37662 0
M  V30 2074 N 198.065 0.39524 1.52563 0
M  V30 2075 C 198.995 -0.428384 2.29537 0
M  V30 2076 C 199.976 -1.05831 1.33169 0
M  V30 2077 O 201.161 -1.06995 1.62067 0
M  V30 2078 C 198.291 -1.55274 3.10656 0
M  V30 2079 C 197.245 -1.04855 4.14957 0
M  V30 2080 C 196.571 -2.26543 4.84337 0
M  V30 2081 C 197.871 -0.112324 5.22179 0
M  V30 2082 H 199.565 0.213867 2.98635 0
M  V30 2083 H 197.111 0.104298 1.43622 0
M  V30 2084 H 199.064 -2.1358 3.63265 0
M  V30 2085 H 197.788 -2.22266 2.39302 0
M  V30 2086 H 196.447 -0.487985 3.63338 0
M  V30 2087 H 196.095 -2.92059 4.09525 0
M  V30 2088 H 195.795 -1.93466 5.54837 0
M  V30 2089 H 197.319 -2.85481 5.39753 0
M  V30 2090 H 198.733 -0.603752 5.70112 0
M  V30 2091 H 197.13 0.128968 5.99961 0
M  V30 2092 H 198.2 0.837052 4.77621 0
M  V30 2093 N 199.544 -1.57102 0.125237 0
M  V30 2094 C 200.821 -1.86953 -0.575142 0
M  V30 2095 C 201.201 -1.02749 -1.84407 0
M  V30 2096 O 200.549 -0.108144 -2.28244 0
M  V30 2097 C 200.759 -3.38198 -0.861583 0
M  V30 2098 C 202.107 -4.06937 -1.21192 0
M  V30 2099 O 203.131 -3.43252 -0.951645 0
M  V30 2100 O 201.99 -5.19364 -1.70068 0
M  V30 2101 H 199.084 -0.774147 -0.290906 0
M  V30 2102 H 201.63 -1.68942 0.160211 0
M  V30 2103 H 200.402 -3.91282 0.0373647 0
M  V30 2104 H 200.025 -3.61661 -1.65188 0
M  V30 2105 N 201.022 0.148545 -1.56898 0
M  V30 2106 C 201.952 1.18524 -2.01182 0
M  V30 2107 C 202.933 1.4489 -0.891123 0
M  V30 2108 O 204.118 1.55836 -1.15882 0
M  V30 2109 C 201.248 2.51879 -2.39112 0
M  V30 2110 C 200.202 2.40038 -3.54353 0
M  V30 2111 C 199.528 3.78089 -3.78091 0
M  V30 2112 C 200.828 1.88577 -4.87069 0
M  V30 2113 H 202.522 0.817029 -2.88036 0
M  V30 2114 H 200.068 0.391575 -1.38574 0
M  V30 2115 H 202.021 3.24627 -2.68692 0
M  V30 2116 H 200.745 2.90532 -1.49193 0
M  V30 2117 H 199.404 1.69742 -3.24936 0
M  V30 2118 H 199.052 4.14175 -2.85426 0
M  V30 2119 H 198.752 3.71028 -4.55645 0
M  V30 2120 H 200.276 4.52387 -4.10095 0
M  V30 2121 H 201.69 2.51117 -5.15377 0
M  V30 2122 H 200.087 1.9241 -5.68417 0
M  V30 2123 H 201.157 0.84136 -4.77545 0
M  V30 2124 N 202.5 1.5196 0.417844 0
M  V30 2125 C 203.432 1.70895 1.52733 0
M  V30 2126 C 204.445 0.589405 1.51756 0
M  V30 2127 O 205.634 0.864312 1.56179 0
M  V30 2128 C 202.734 1.72627 2.91639 0
M  V30 2129 C 201.907 3.01479 3.16905 0
M  V30 2130 C 200.966 2.95139 4.35637 0
M  V30 2131 O 199.992 3.69059 4.3334 0
M  V30 2132 N 201.194 2.12328 5.40275 0
M  V30 2133 H 203.959 2.66612 1.36888 0
M  V30 2134 H 201.52 1.50089 0.607037 0
M  V30 2135 H 203.512 1.65928 3.6912 0
M  V30 2136 H 202.082 0.844216 3.00985 0
M  V30 2137 H 201.302 3.21895 2.27546 0
M  V30 2138 H 202.59 3.86736 3.30625 0
M  V30 2139 H 201.988 1.51685 5.44985 0
M  V30 2140 H 200.545 2.11494 6.16534 0
M  V30 2141 N 203.978 -0.674533 1.42435 0
M  V30 2142 C 205.226 -1.43175 1.42637 0
M  V30 2143 C 205.547 -1.94951 0.0438992 0
M  V30 2144 O 204.817 -1.7308 -0.917607 0
M  V30 2145 H 203.397 -0.531307 0.525092 0
M  V30 2146 H 206.059 -0.797006 1.77859 0
M  V30 2147 H 205.155 -2.28463 2.12629 0
M  V30 2148 N 205.456 -1.28612 -0.910864 0
M  V30 2149 C 206.705 -1.15311 -1.65488 0
M  V30 2150 C 207.018 0.296999 -1.93332 0
M  V30 2151 O 208.224 0.551168 -2.65847 0
M  V30 2152 C 206.68 -2.01599 -2.98137 0
M  V30 2153 C 206.288 -3.51367 -2.7793 0
M  V30 2154 C 208.032 -1.96993 -3.76024 0
M  V30 2155 C 205.939 -4.29797 -4.06237 0
M  V30 2156 H 204.869 -0.42796 -0.620779 0
M  V30 2157 H 207.52 -1.53166 -1.01057 0
M  V30 2158 H 205.902 -1.56603 -3.63719 0
M  V30 2159 H 207.076 -4.0434 -2.21011 0
M  V30 2160 H 205.391 -3.57529 -2.13452 0
M  V30 2161 H 207.988 -2.52856 -4.71135 0
M  V30 2162 H 208.331 -0.94733 -4.05378 0
M  V30 2163 H 208.864 -2.39973 -3.17266 0
M  V30 2164 H 205.603 -5.32648 -3.82055 0
M  V30 2165 H 205.123 -3.81596 -4.62757 0
M  V30 2166 H 206.802 -4.39869 -4.74473 0
M  V30 2167 N 206.934 1.1197 -1.10907 0
M  V30 2168 C 208.159 1.87942 -0.877064 0
M  V30 2169 C 208.584 1.79341 0.567314 0
M  V30 2170 O 207.942 1.15184 1.40009 0
M  V30 2171 C 207.99 3.34926 -1.33629 0
M  V30 2172 O 207.094 4.09303 -0.504447 0
M  V30 2173 H 206.435 0.583785 -0.316371 0
M  V30 2174 H 208.965 1.4157 -1.47712 0
M  V30 2175 H 208.975 3.8577 -1.32837 0
M  V30 2176 H 207.65 3.40504 -2.3881 0
M  V30 2177 H 206.227 3.68393 -0.577993 0
M  V30 2178 N 208.412 0.89855 1.29475 0
M  V30 2179 C 209.689 0.443416 1.90508 0
M  V30 2180 C 210.069 -1.07685 1.81569 0
M  V30 2181 O 209.417 -1.9182 1.24166 0
M  V30 2182 C 209.627 0.956708 3.35631 0
M  V30 2183 C 210.975 0.999728 4.12663 0
M  V30 2184 O 211.999 0.904299 3.4453 0
M  V30 2185 O 210.858 1.14289 5.34416 0
M  V30 2186 H 207.952 0.138025 0.815401 0
M  V30 2187 H 210.498 0.98834 1.37949 0
M  V30 2188 H 209.27 2.00067 3.36287 0
M  V30 2189 H 208.893 0.391728 3.95666 0
M  V30 2190 N 209.89 -1.43072 0.660911 0
M  V30 2191 C 210.837 -2.30785 -0.0259884 0
M  V30 2192 C 211.807 -1.45184 -0.806888 0
M  V30 2193 O 212.992 -1.74041 -0.781943 0
M  V30 2194 C 210.132 -3.30861 -0.981067 0
M  V30 2195 C 209.245 -4.31558 -0.195458 0
M  V30 2196 C 208.38 -5.18712 -1.14503 0
M  V30 2197 C 207.419 -6.11097 -0.350299 0
M  V30 2198 N 206.556 -6.90849 -1.25186 0
M  V30 2199 H 211.396 -2.88975 0.727846 0
M  V30 2200 H 208.933 -1.42353 0.370682 0
M  V30 2201 H 210.891 -3.87399 -1.54849 0
M  V30 2202 H 209.521 -2.74304 -1.70169 0
M  V30 2203 H 208.573 -3.77252 0.488374 0
M  V30 2204 H 209.885 -4.9701 0.422176 0
M  V30 2205 H 209.039 -5.79914 -1.78284 0
M  V30 2206 H 207.778 -4.53404 -1.79656 0
M  V30 2207 H 206.783 -5.48976 0.300808 0
M  V30 2208 H 208.008 -6.7845 0.296941 0
M  V30 2209 H 205.954 -6.28182 -1.89005 0
M  V30 2210 H 205.871 -7.52854 -0.688971 0
M  V30 2211 H 207.139 -7.5655 -1.87757 0
M  V30 2212 N 211.368 -0.403325 -1.52352 0
M  V30 2213 C 212.298 0.416205 -2.29761 0
M  V30 2214 C 213.279 1.05123 -1.33728 0
M  V30 2215 O 214.464 1.06134 -1.62632 0
M  V30 2216 C 211.594 1.53624 -3.11475 0
M  V30 2217 C 210.548 1.02653 -4.15507 0
M  V30 2218 C 209.874 2.23971 -4.85532 0
M  V30 2219 C 211.174 0.08463 -5.22231 0
M  V30 2220 H 212.868 -0.229701 -2.98518 0
M  V30 2221 H 210.414 -0.111913 -1.43564 0
M  V30 2222 H 212.367 2.1165 -3.64393 0
M  V30 2223 H 211.091 2.20994 -2.40477 0
M  V30 2224 H 209.75 0.46871 -3.63591 0
M  V30 2225 H 209.398 2.89883 -4.11068 0
M  V30 2226 H 209.098 1.90521 -5.55856 0
M  V30 2227 H 210.622 2.82614 -5.41259 0
M  V30 2228 H 212.036 0.573509 -5.70424 0
M  V30 2229 H 210.433 -0.160783 -5.99885 0
M  V30 2230 H 211.503 -0.86237 -4.7717 0
M  V30 2231 N 212.846 1.57033 -0.133567 0
M  V30 2232 C 214.123 1.87256 0.56522 0
M  V30 2233 C 214.503 1.03726 1.83859 0
M  V30 2234 O 213.851 0.120247 2.28183 0
M  V30 2235 C 214.061 3.3865 0.843636 0
M  V30 2236 C 215.409 4.07574 1.19032 0
M  V30 2237 O 216.433 3.43752 0.933429 0
M  V30 2238 O 215.292 5.20259 1.67312 0
M  V30 2239 H 212.386 0.775678 0.286796 0
M  V30 2240 H 214.932 1.68855 -0.169168 0
M  V30 2241 H 213.704 3.91257 -0.0581149 0
M  V30 2242 H 213.327 3.62532 1.63268 0
M  V30 2243 N 214.325 -0.140222 1.56975 0
M  V30 2244 C 215.573 -0.850005 1.83356 0
M  V30 2245 C 215.894 -1.81399 0.71551 0
M  V30 2246 O 215.164 -1.94136 -0.262294 0
M  V30 2247 H 213.744 -0.316886 0.676456 0
M  V30 2248 H 216.406 -0.132608 1.94448 0
M  V30 2249 H 215.502 -1.40814 2.78528 0
M  V30 2250 N 215.803 -1.52179 -0.40978 0
M  V30 2251 C 217.049 -1.66453 -1.15851 0
M  V30 2252 C 217.382 -0.392972 -1.90182 0
M  V30 2253 O 216.657 0.608579 -1.84734 0
M  V30 2254 C 216.94 -2.88612 -2.15349 0
M  V30 2255 C 216.793 -4.25815 -1.44918 0
M  V30 2256 C 218.112 -3.06294 -3.16026 0
M  V30 2257 H 215.231 -0.60575 -0.419805 0
M  V30 2258 H 217.873 -1.84732 -0.444314 0
M  V30 2259 H 216.023 -2.73158 -2.76255 0
M  V30 2260 H 217.695 -4.52995 -0.871365 0
M  V30 2261 H 215.938 -4.27247 -0.751159 0
M  V30 2262 H 216.609 -5.07337 -2.17516 0
M  V30 2263 H 219.085 -3.20641 -2.65195 0
M  V30 2264 H 217.961 -3.93283 -3.8291 0
M  V30 2265 H 218.222 -2.19579 -3.83715 0
M  V30 2266 N 217.281 0.66697 -1.42791 0
M  V30 2267 C 218.228 1.7803 -1.4688 0
M  V30 2268 C 219.198 1.6299 -0.319919 0
M  V30 2269 O 220.383 1.83432 -0.525118 0
M  V30 2270 C 217.523 3.1611 -1.38451 0
M  V30 2271 C 216.636 3.42381 -2.63437 0
M  V30 2272 C 215.771 4.70232 -2.47094 0
M  V30 2273 C 214.81 4.89564 -3.67415 0
M  V30 2274 N 213.947 6.08661 -3.49966 0
M  V30 2275 H 218.787 1.7387 -2.42019 0
M  V30 2276 H 216.324 0.84868 -1.20149 0
M  V30 2277 H 218.282 3.95914 -1.31561 0
M  V30 2278 H 216.912 3.19374 -0.469033 0
M  V30 2279 H 215.964 2.56774 -2.80662 0
M  V30 2280 H 217.276 3.52557 -3.52853 0
M  V30 2281 H 216.43 5.5814 -2.37834 0
M  V30 2282 H 215.169 4.62353 -1.5518 0
M  V30 2283 H 214.174 4.00096 -3.77099 0
M  V30 2284 H 215.399 4.99282 -4.6032 0
M  V30 2285 H 213.345 6.0194 -2.60776 0
M  V30 2286 H 213.262 6.19733 -4.32975 0
M  V30 2287 H 214.53 6.99226 -3.44532 0
M  V30 2288 N 218.759 1.29093 0.90403 0
M  V30 2289 C 220.005 1.16986 1.65656 0
M  V30 2290 C 220.338 -0.278925 1.92186 0
M  V30 2291 O 219.613 -1.2019 1.5292 0
M  V30 2292 C 219.896 1.97908 3.0084 0
M  V30 2293 C 219.749 3.50903 2.81403 0
M  V30 2294 C 221.068 1.80208 4.01513 0
M  V30 2295 H 218.187 0.426346 0.601164 0
M  V30 2296 H 220.829 1.58518 1.04747 0
M  V30 2297 H 218.979 1.62616 3.52829 0
M  V30 2298 H 220.651 3.96153 2.36348 0
M  V30 2299 H 218.894 3.76045 2.1627 0
M  V30 2300 H 219.565 4.02791 3.77443 0
M  V30 2301 H 222.041 2.11025 3.58619 0
M  V30 2302 H 220.917 2.39184 4.94047 0
M  V30 2303 H 221.178 0.756119 4.35586 0
M  V30 2304 N 220.237 -1.11381 1.11499 0
M  V30 2305 C 221.483 -1.83403 0.865512 0
M  V30 2306 C 221.816 -1.84459 -0.607329 0
M  V30 2307 O 221.091 -1.29811 -1.44842 0
M  V30 2308 C 221.374 -3.30552 1.42855 0
M  V30 2309 C 221.227 -3.37886 2.96906 0
M  V30 2310 C 222.546 -4.26643 1.08 0
M  V30 2311 H 219.665 -0.665879 0.31587 0
M  V30 2312 H 222.307 -1.30601 1.37998 0
M  V30 2313 H 220.457 -3.75648 0.990985 0
M  V30 2314 H 222.129 -3.01343 3.49271 0
M  V30 2315 H 220.372 -2.78088 3.32941 0
M  V30 2316 H 221.043 -4.41458 3.31389 0
M  V30 2317 H 223.519 -3.89729 1.45775 0
M  V30 2318 H 222.395 -5.27986 1.50072 0
M  V30 2319 H 222.656 -4.42099 -0.00915037 0
M  V30 2320 N 221.715 -0.905404 -1.28997 0
M  V30 2321 C 222.945 -0.549049 -1.99171 0
M  V30 2322 C 223.353 0.87203 -1.67906 0
M  V30 2323 O 222.696 1.58796 -0.923561 0
M  V30 2324 C 222.758 -0.668306 -3.53234 0
M  V30 2325 C 222.422 -2.0574 -4.08069 0
M  V30 2326 C 223.419 -3.0292 -4.22534 0
M  V30 2327 C 221.104 -2.36833 -4.42962 0
M  V30 2328 C 223.098 -4.29314 -4.71135 0
M  V30 2329 C 220.785 -3.63467 -4.91258 0
M  V30 2330 C 221.783 -4.59522 -5.053 0
M  V30 2331 O 221.471 -5.83907 -5.52546 0
M  V30 2332 H 221.203 -0.208784 -0.64295 0
M  V30 2333 H 223.757 -1.21836 -1.65363 0
M  V30 2334 H 221.987 0.0580547 -3.86656 0
M  V30 2335 H 223.676 -0.320273 -4.04634 0
M  V30 2336 H 224.442 -2.80216 -3.95859 0
M  V30 2337 H 220.321 -1.62824 -4.31288 0
M  V30 2338 H 223.865 -5.04293 -4.8201 0
M  V30 2339 H 219.762 -3.86 -5.17372 0
M  V30 2340 H 220.53 -5.86578 -5.70849 0
M  V30 2341 N 223.193 1.4272 -0.668489 0
M  V30 2342 C 224.439 2.01923 -0.188419 0
M  V30 2343 C 224.772 1.52704 1.19979 0
M  V30 2344 O 224.047 0.726566 1.8042 0
M  V30 2345 C 224.33 3.59451 -0.216085 0
M  V30 2346 C 224.183 4.18864 -1.6393 0
M  V30 2347 C 225.502 4.37903 0.439179 0
M  V30 2348 H 222.621 0.733674 -0.0699412 0
M  V30 2349 H 225.263 1.69822 -0.852076 0
M  V30 2350 H 223.413 3.86929 0.349012 0
M  V30 2351 H 225.085 4.02362 -2.25616 0
M  V30 2352 H 223.328 3.74933 -2.18193 0
M  V30 2353 H 223.999 5.27987 -1.61039 0
M  V30 2354 H 226.475 4.16079 -0.0417878 0
M  V30 2355 H 225.351 5.47519 0.389157 0
M  V30 2356 H 225.612 4.15303 1.51577 0
M  V30 2357 N 224.671 0.411399 1.52136 0
M  V30 2358 C 225.911 -0.163143 2.03748 0
M  V30 2359 C 226.275 -1.42187 1.29022 0
M  V30 2360 O 227.476 -2.075 1.70872 0
M  V30 2361 C 225.747 -0.402651 3.55125 0
M  V30 2362 S 227.306 -0.944315 4.28519 0
M  V30 2363 H 224.124 -0.0439833 0.709638 0
M  V30 2364 H 226.726 0.56484 1.87163 0
M  V30 2365 H 225.43 0.520212 4.0709 0
M  V30 2366 H 224.961 -1.15844 3.75957 0
M  V30 2367 H 226.976 -2.22463 4.43536 0
M  V30 2368 N 226.149 -1.5696 0.141893 0
M  V30 2369 C 227.374 -2.00754 -0.520838 0
M  V30 2370 C 227.799 -1.0213 -1.57959 0
M  V30 2371 O 227.157 0.00371324 -1.813 0
M  V30 2372 C 227.205 -3.43318 -1.10294 0
M  V30 2373 O 226.309 -3.47679 -2.21795 0
M  V30 2374 H 225.65 -0.651564 -0.127908 0
M  V30 2375 H 228.18 -2.03221 0.23712 0
M  V30 2376 H 228.19 -3.82012 -1.43287 0
M  V30 2377 H 226.865 -4.14608 -0.327574 0
M  V30 2378 H 225.442 -3.20824 -1.9007 0
M  V30 2379 N 227.627 0.131896 -1.57047 0
M  V30 2380 C 229.038 0.690407 -1.73465 0
M  V30 2381 C 229.389 1.8094 -0.758629 0
M  V30 2382 O 228.514 2.16282 0.0713813 0
M  V30 2383 C 229.109 1.25916 -3.14532 0
M  V30 2384 C 227.668 1.76409 -3.32501 0
M  V30 2385 C 226.815 0.658579 -2.69366 0
M  V30 2386 H 229.766 -0.0939144 -1.58422 0
M  V30 2387 H 229.787 2.12892 -3.15369 0
M  V30 2388 H 229.299 0.444515 -3.85546 0
M  V30 2389 H 227.4 2.60391 -2.66509 0
M  V30 2390 H 227.513 1.88241 -4.4057 0
M  V30 2391 H 225.877 1.08899 -2.30246 0
M  V30 2392 H 226.66 -0.14487 -3.42994 0
M  V30 2393 N 229.106 1.52395 0.401703 0
M  V30 2394 C 230.054 1.7689 1.51039 0
M  V30 2395 C 231.048 0.636298 1.56996 0
M  V30 2396 O 232.254 0.818507 1.60314 0
M  V30 2397 H 228.629 0.559502 0.502456 0
M  V30 2398 H 230.6 2.69757 1.27568 0
M  V30 2399 C 229.349 1.94331 2.88324 0
M  V30 2400 H 228.672 2.80905 2.84486 0
M  V30 2401 H 230.112 2.15466 3.65172 0
M  V30 2402 C 228.571 0.712396 3.29282 0
M  V30 2403 O 229.101 -0.116218 4.01532 0
M  V30 2404 N 227.307 0.546154 2.85422 0
M  V30 2405 H 226.854 1.22156 2.26794 0
M  V30 2406 H 226.812 -0.276113 3.13185 0
M  V30 2407 N 230.584 -0.659388 1.43143 0
M  V30 2408 C 231.532 -1.79374 1.4808 0
M  V30 2409 C 232.526 -1.65639 0.354988 0
M  V30 2410 O 233.732 -1.7206 0.528704 0
M  V30 2411 H 230.107 -0.591705 0.4641 0
M  V30 2412 H 232.078 -1.72329 2.43609 0
M  V30 2413 C 230.827 -3.17606 1.41499 0
M  V30 2414 H 230.15 -3.28809 2.27431 0
M  V30 2415 H 231.59 -3.96951 1.49015 0
M  V30 2416 C 230.049 -3.36642 0.131765 0
M  V30 2417 O 230.579 -3.93461 -0.809386 0
M  V30 2418 N 228.785 -2.90567 0.0439396 0
M  V30 2419 H 228.332 -2.44513 0.810619 0
M  V30 2420 H 228.29 -3.03681 -0.813969 0
M  V30 2421 N 232.062 -1.29571 -0.897171 0
M  V30 2422 C 233.473 -1.15964 -1.46319 0
M  V30 2423 C 233.824 0.244267 -1.94674 0
M  V30 2424 O 232.949 1.13998 -1.83939 0
M  V30 2425 C 233.544 -2.09906 -2.65942 0
M  V30 2426 C 232.103 -2.00314 -3.18671 0
M  V30 2427 C 231.25 -2.00687 -1.91363 0
M  V30 2428 H 234.201 -1.42019 -0.708268 0
M  V30 2429 H 234.222 -1.67276 -3.41759 0
M  V30 2430 H 233.734 -3.12075 -2.30718 0
M  V30 2431 H 231.835 -1.01242 -3.58582 0
M  V30 2432 H 231.948 -2.88102 -3.82798 0
M  V30 2433 H 230.312 -1.45319 -2.09175 0
M  V30 2434 H 231.095 -3.04566 -1.58413 0
M  V30 2435 N 233.54 1.10788 -1.12088 0
M  V30 2436 C 234.768 1.86461 -0.896651 0
M  V30 2437 C 235.183 1.80492 0.553912 0
M  V30 2438 O 234.54 1.19102 1.38278 0
M  V30 2439 C 234.591 3.35006 -1.35843 0
M  V30 2440 O 234.312 3.40866 -2.75213 0
M  V30 2441 C 235.813 4.27565 -1.1706 0
M  V30 2442 H 233.033 0.589425 -0.320654 0
M  V30 2443 H 235.577 1.40076 -1.48993 0
M  V30 2444 H 233.732 3.7887 -0.808458 0
M  V30 2445 H 234.146 4.33411 -2.9539 0
M  V30 2446 H 235.62 5.30007 -1.54263 0
M  V30 2447 H 236.097 4.3906 -0.110814 0
M  V30 2448 H 236.703 3.89501 -1.70789 0
M  V30 2449 N 235.018 0.912232 1.28515 0
M  V30 2450 C 236.266 0.543523 1.94654 0
M  V30 2451 C 236.587 -0.9155 1.72173 0
M  V30 2452 O 235.857 -1.64708 1.06058 0
M  V30 2453 H 234.437 0.198017 0.720277 0
M  V30 2454 H 237.099 1.16126 1.56527 0
M  V30 2455 H 236.195 0.736684 3.03281 0
M  V30 2456 N 236.496 -1.42363 0.676048 0
M  V30 2457 C 237.428 -2.29164 -0.0404605 0
M  V30 2458 C 238.441 -1.43747 -0.764245 0
M  V30 2459 O 239.63 -1.67453 -0.618195 0
M  V30 2460 C 236.73 -3.21196 -1.08103 0
M  V30 2461 C 235.903 -4.35273 -0.430812 0
M  V30 2462 C 234.962 -5.08017 -1.37133 0
M  V30 2463 O 233.988 -5.62494 -0.87116 0
M  V30 2464 N 235.19 -5.13647 -2.70456 0
M  V30 2465 H 237.955 -2.91298 0.704667 0
M  V30 2466 H 235.516 -1.53303 0.520559 0
M  V30 2467 H 237.508 -3.66728 -1.71152 0
M  V30 2468 H 236.078 -2.60505 -1.72788 0
M  V30 2469 H 235.298 -3.92372 0.379209 0
M  V30 2470 H 236.586 -5.08795 0.0221132 0
M  V30 2471 H 235.984 -4.708 -3.1363 0
M  V30 2472 H 234.541 -5.62821 -3.28749 0
M  V30 2473 N 237.974 -0.419461 -1.51915 0
M  V30 2474 C 238.904 0.391813 -2.30189 0
M  V30 2475 C 239.885 1.03699 -1.34836 0
M  V30 2476 O 241.07 1.04403 -1.63748 0
M  V30 2477 C 238.2 1.50312 -3.13087 0
M  V30 2478 C 237.154 0.9824 -4.16573 0
M  V30 2479 C 236.48 2.18809 -4.8788 0
M  V30 2480 C 237.78 0.0292356 -5.22292 0
M  V30 2481 H 239.474 -0.26135 -2.98257 0
M  V30 2482 H 237.02 -0.127134 -1.43438 0
M  V30 2483 H 238.973 2.07773 -3.66617 0
M  V30 2484 H 237.697 2.18431 -2.42807 0
M  V30 2485 H 236.356 0.430119 -3.64068 0
M  V30 2486 H 236.004 2.85507 -4.14119 0
M  V30 2487 H 235.704 1.84615 -5.57845 0
M  V30 2488 H 237.228 2.76858 -5.44226 0
M  V30 2489 H 238.642 0.512976 -5.71 0
M  V30 2490 H 237.039 -0.2244 -5.9968 0
M  V30 2491 H 238.109 -0.912931 -4.76228 0
M  V30 2492 N 239.452 1.56882 -0.150215 0
M  V30 2493 C 240.701 1.95403 0.500071 0
M  V30 2494 C 241.014 1.03777 1.658 0
M  V30 2495 O 242.22 1.31889 2.37313 0
M  V30 2496 C 240.676 3.4738 0.941018 0
M  V30 2497 C 240.284 4.47596 -0.190158 0
M  V30 2498 C 242.028 3.9476 1.56091 0
M  V30 2499 C 239.935 5.90787 0.269237 0
M  V30 2500 H 238.865 0.729515 0.190588 0
M  V30 2501 H 241.516 1.81988 -0.235074 0
M  V30 2502 H 239.898 3.56138 1.73152 0
M  V30 2503 H 241.072 4.50536 -0.967157 0
M  V30 2504 H 239.387 4.10151 -0.718666 0
M  V30 2505 H 241.984 4.99181 1.9163 0
M  V30 2506 H 242.327 3.36494 2.45107 0
M  V30 2507 H 242.86 3.88932 0.835249 0
M  V30 2508 H 239.599 6.52879 -0.585621 0
M  V30 2509 H 239.119 5.912 1.01204 0
M  V30 2510 H 240.798 6.42979 0.720176 0
M  V30 2511 N 240.93 -0.123565 1.57115 0
M  V30 2512 C 241.878 -1.17082 2.00984 0
M  V30 2513 C 242.872 -1.43136 0.906009 0
M  V30 2514 O 244.078 -1.43152 1.09121 0
M  V30 2515 H 240.453 -0.394653 0.64012 0
M  V30 2516 H 242.424 -0.774292 2.88179 0
M  V30 2517 C 241.173 -2.49057 2.42623 0
M  V30 2518 H 240.496 -2.29846 3.27125 0
M  V30 2519 H 241.936 -3.20906 2.7712 0
M  V30 2520 C 240.395 -3.11305 1.28805 0
M  V30 2521 O 240.925 -3.97171 0.60153 0
M  V30 2522 N 239.131 -2.71111 1.04628 0
M  V30 2523 H 238.678 -2.01382 1.60634 0
M  V30 2524 H 238.636 -3.1309 0.286685 0
M  V30 2525 N 242.408 -1.52605 -0.393616 0
M  V30 2526 C 243.819 -1.59417 -0.971761 0
M  V30 2527 C 244.17 -0.444173 -1.91106 0
M  V30 2528 O 243.295 0.433382 -2.12016 0
M  V30 2529 C 243.89 -2.88936 -1.76921 0
M  V30 2530 C 242.449 -2.98175 -2.29714 0
M  V30 2531 C 241.596 -2.54491 -1.10135 0
M  V30 2532 H 244.547 -1.57751 -0.173317 0
M  V30 2533 H 244.568 -2.75163 -2.62804 0
M  V30 2534 H 244.08 -3.72616 -1.08532 0
M  V30 2535 H 242.181 -2.19024 -3.01429 0
M  V30 2536 H 242.294 -4.02726 -2.59517 0
M  V30 2537 H 240.658 -2.08702 -1.45999 0
M  V30 2538 H 241.441 -3.4056 -0.432874 0
M  V30 2539 N 243.887 0.651787 -1.4349 0
M  V30 2540 C 244.819 1.77725 -1.44729 0
M  V30 2541 C 245.832 1.59141 -0.343231 0
M  V30 2542 O 247.021 1.67835 -0.607751 0
M  V30 2543 C 244.121 3.15172 -1.24579 0
M  V30 2544 C 243.294 3.60402 -2.47849 0
M  V30 2545 C 242.353 4.76656 -2.22902 0
M  V30 2546 O 241.379 4.86022 -2.96263 0
M  V30 2547 N 242.581 5.66958 -1.24656 0
M  V30 2548 H 245.346 1.77141 -2.41746 0
M  V30 2549 H 242.907 0.835678 -1.38665 0
M  V30 2550 H 244.899 3.90634 -1.0577 0
M  V30 2551 H 243.469 3.1052 -0.360015 0
M  V30 2552 H 242.689 2.75369 -2.82073 0
M  V30 2553 H 243.977 3.87368 -3.29884 0
M  V30 2554 H 243.375 5.62065 -0.640265 0
M  V30 2555 H 241.932 6.42135 -1.1183 0
M  V30 2556 N 245.365 1.30045 0.890287 0
M  V30 2557 C 246.642 1.09227 1.62262 0
M  V30 2558 C 247.022 -0.360305 2.08002 0
M  V30 2559 O 246.37 -1.35084 1.84295 0
M  V30 2560 C 246.58 2.08835 2.79623 0
M  V30 2561 C 247.928 2.40266 3.50082 0
M  V30 2562 O 248.952 2.07104 2.89804 0
M  V30 2563 O 247.811 2.96967 4.58773 0
M  V30 2564 H 244.905 0.419132 0.712922 0
M  V30 2565 H 247.451 1.41451 0.937529 0
M  V30 2566 H 246.223 3.06633 2.43089 0
M  V30 2567 H 245.846 1.77397 3.55832 0
M  V30 2568 N 246.843 -1.10192 1.12674 0
M  V30 2569 C 248.09 -1.82205 0.883606 0
M  V30 2570 C 248.418 -1.8532 -0.590492 0
M  V30 2571 O 247.673 -1.31137 -1.45264 0
M  V30 2572 C 247.972 -3.28552 1.4067 0
M  V30 2573 C 247.638 -3.45582 2.89627 0
M  V30 2574 C 246.3 -3.49937 3.30299 0
M  V30 2575 C 248.652 -3.50768 3.85501 0
M  V30 2576 C 245.98 -3.57049 4.65546 0
M  V30 2577 C 248.332 -3.59414 5.20581 0
M  V30 2578 C 246.996 -3.62034 5.60792 0
M  V30 2579 H 246.266 -0.666735 0.323334 0
M  V30 2580 H 248.913 -1.29868 1.40736 0
M  V30 2581 H 247.218 -3.83473 0.80347 0
M  V30 2582 H 248.915 -3.82788 1.19475 0
M  V30 2583 H 245.505 -3.42871 2.57172 0
M  V30 2584 H 249.689 -3.46651 3.55171 0
M  V30 2585 H 244.945 -3.57361 4.96088 0
M  V30 2586 H 249.119 -3.62371 5.94693 0
M  V30 2587 H 246.746 -3.67298 6.6558 0
M  V30 2588 N 248.321 -0.919034 -1.28029 0
M  V30 2589 C 249.737 -0.617972 -1.4715 0
M  V30 2590 C 249.937 0.835242 -1.83374 0
M  V30 2591 O 248.993 1.61388 -1.94191 0
M  V30 2592 C 250.306 -1.56041 -2.57044 0
M  V30 2593 C 251.854 -1.56769 -2.7091 0
M  V30 2594 C 252.329 -2.49688 -3.83953 0
M  V30 2595 N 253.82 -2.47845 -3.91314 0
M  V30 2596 C 254.555 -3.16437 -4.78179 0
M  V30 2597 N 254.051 -3.94376 -5.69596 0
M  V30 2598 N 255.844 -3.05498 -4.71834 0
M  V30 2599 H 247.995 -1.85866 -1.02798 0
M  V30 2600 H 250.258 -0.797506 -0.512531 0
M  V30 2601 H 249.964 -2.59671 -2.372 0
M  V30 2602 H 249.838 -1.29551 -3.54255 0
M  V30 2603 H 252.225 -0.538745 -2.90141 0
M  V30 2604 H 252.306 -1.87305 -1.74214 0
M  V30 2605 H 251.95 -3.52688 -3.65477 0
M  V30 2606 H 251.88 -2.16453 -4.80058 0
M  V30 2607 H 254.371 -1.91234 -3.25941 0
M  V30 2608 H 254.684 -4.43721 -6.32718 0
M  V30 2609 H 253.029 -3.98481 -5.69419 0
M  V30 2610 H 256.22 -2.44108 -3.99411 0
M  V30 2611 H 256.393 -3.59225 -5.39316 0
M  V30 2612 N 249.799 1.42003 -0.683588 0
M  V30 2613 C 251.027 2.05746 -0.218182 0
M  V30 2614 C 251.442 1.51396 1.12804 0
M  V30 2615 O 250.799 0.657303 1.70252 0
M  V30 2616 C 250.85 3.61171 -0.154131 0
M  V30 2617 O 250.571 4.13508 -1.44716 0
M  V30 2618 C 252.072 4.42042 0.333713 0
M  V30 2619 H 249.292 0.662888 -0.10402 0
M  V30 2620 H 251.836 1.81987 -0.9328 0
M  V30 2621 H 249.991 3.84012 0.511231 0
M  V30 2622 H 250.405 5.07453 -1.32632 0
M  V30 2623 H 251.879 5.51028 0.327423 0
M  V30 2624 H 252.356 4.17269 1.37053 0
M  V30 2625 H 252.962 4.24239 -0.300222 0
M  V30 2626 N 251.277 0.427512 1.51691 0
M  V30 2627 C 252.207 -0.3796 2.30394 0
M  V30 2628 C 253.188 -1.02982 1.35384 0
M  V30 2629 O 254.373 -1.03534 1.643 0
M  V30 2630 C 251.503 -1.48649 3.1388 0
M  V30 2631 C 250.457 -0.960294 4.17088 0
M  V30 2632 C 249.783 -2.16219 4.89033 0
M  V30 2633 C 251.083 -0.00153679 5.223 0
M  V30 2634 H 252.777 0.277164 2.98114 0
M  V30 2635 H 250.323 0.134739 1.43368 0
M  V30 2636 H 252.276 -2.05826 3.67714 0
M  V30 2637 H 251 -2.1714 2.43962 0
M  V30 2638 H 249.659 -0.410806 3.64291 0
M  V30 2639 H 249.307 -2.83307 4.15628 0
M  V30 2640 H 249.007 -1.81654 5.58816 0
M  V30 2641 H 250.531 -2.73968 5.45687 0
M  V30 2642 H 251.945 -0.482687 5.71264 0
M  V30 2643 H 250.342 0.256199 5.99553 0
M  V30 2644 H 251.412 0.938174 4.75738 0
M  V30 2645 N 252.755 -1.56801 0.158532 0
M  V30 2646 C 253.685 -2.20347 -0.772609 0
M  V30 2647 C 254.666 -1.15518 -1.24859 0
M  V30 2648 O 255.851 -1.43902 -1.30406 0
M  V30 2649 C 252.981 -2.83417 -2.00729 0
M  V30 2650 C 251.935 -3.94174 -1.66765 0
M  V30 2651 C 251.261 -4.44233 -2.97592 0
M  V30 2652 C 252.561 -5.14392 -0.905447 0
M  V30 2653 H 254.255 -2.98413 -0.242959 0
M  V30 2654 H 251.801 -1.43537 -0.115419 0
M  V30 2655 H 253.754 -3.26543 -2.6636 0
M  V30 2656 H 252.478 -2.02701 -2.56086 0
M  V30 2657 H 251.137 -3.51684 -1.03508 0
M  V30 2658 H 250.785 -3.60325 -3.50963 0
M  V30 2659 H 250.485 -5.18945 -2.75626 0
M  V30 2660 H 252.009 -4.90037 -3.64274 0
M  V30 2661 H 253.423 -5.5429 -1.46408 0
M  V30 2662 H 251.82 -5.9494 -0.7853 0
M  V30 2663 H 252.89 -4.84795 0.100668 0
M  V30 2664 N 254.233 0.115231 -1.57178 0
M  V30 2665 C 255.143 1.15994 -2.03918 0
M  V30 2666 C 256.159 1.45103 -0.960268 0
M  V30 2667 O 257.335 1.56144 -1.27204 0
M  V30 2668 C 254.4 2.46568 -2.43732 0
M  V30 2669 C 253.461 2.24822 -3.65723 0
M  V30 2670 C 252.694 3.4917 -4.03629 0
M  V30 2671 O 252.917 4.56623 -3.41835 0
M  V30 2672 O 251.851 3.39949 -4.96708 0
M  V30 2673 H 255.677 0.793019 -2.93164 0
M  V30 2674 H 253.262 0.3263 -1.45793 0
M  V30 2675 H 255.144 3.23492 -2.70057 0
M  V30 2676 H 253.819 2.82726 -1.57631 0
M  V30 2677 H 252.726 1.45744 -3.44542 0
M  V30 2678 H 254.059 1.93566 -4.52541 0
M  V30 2679 N 255.711 1.52812 0.385517 0
M  V30 2680 C 256.641 1.80808 1.47752 0
M  V30 2681 C 257.622 0.660318 1.5676 0
M  V30 2682 O 258.807 0.908246 1.71652 0
M  V30 2683 C 255.937 1.98008 2.85324 0
M  V30 2684 C 254.891 3.13709 2.91154 0
M  V30 2685 C 254.217 3.16169 4.31209 0
M  V30 2686 C 255.517 4.52709 2.60483 0
M  V30 2687 H 257.211 2.72253 1.24573 0
M  V30 2688 H 254.757 1.31003 0.597839 0
M  V30 2689 H 256.71 2.16176 3.61726 0
M  V30 2690 H 255.434 1.03255 3.09848 0
M  V30 2691 H 254.093 2.95329 2.17201 0
M  V30 2692 H 253.741 2.19092 4.52778 0
M  V30 2693 H 253.441 3.93894 4.36029 0
M  V30 2694 H 254.965 3.36496 5.09512 0
M  V30 2695 H 256.379 4.71173 3.26602 0
M  V30 2696 H 254.776 5.32528 2.76648 0
M  V30 2697 H 255.846 4.59186 1.55809 0
M  V30 2698 N 257.189 -0.644168 1.43834 0
M  V30 2699 C 258.417 -1.43147 1.49387 0
M  V30 2700 C 258.832 -1.88452 0.114583 0
M  V30 2701 O 258.189 -1.60047 -0.876989 0
M  V30 2702 C 258.24 -2.66046 2.44748 0
M  V30 2703 O 257.961 -2.22633 3.77314 0
M  V30 2704 C 259.462 -3.59311 2.59635 0
M  V30 2705 H 256.682 -0.439447 0.507077 0
M  V30 2706 H 259.226 -0.78895 1.88669 0
M  V30 2707 H 257.381 -3.26418 2.08638 0
M  V30 2708 H 257.795 -3.02216 4.28679 0
M  V30 2709 H 259.269 -4.42187 3.30416 0
M  V30 2710 H 259.746 -4.07259 1.64427 0
M  V30 2711 H 260.352 -3.04816 2.96593 0
M  V30 2712 N 258.668 -1.30515 -0.883378 0
M  V30 2713 C 260.084 -1.08881 -1.16692 0
M  V30 2714 C 260.284 0.149409 -2.00945 0
M  V30 2715 O 259.34 0.84257 -2.38027 0
M  V30 2716 C 260.653 -2.35319 -1.87204 0
M  V30 2717 C 262.201 -2.40799 -1.99962 0
M  V30 2718 C 262.676 -3.67083 -2.73887 0
M  V30 2719 N 264.167 -3.679 -2.81432 0
M  V30 2720 C 264.902 -4.62303 -3.3921 0
M  V30 2721 N 264.398 -5.67052 -3.98025 0
M  V30 2722 N 266.191 -4.49845 -3.3704 0
M  V30 2723 H 258.342 -2.09951 -0.321633 0
M  V30 2724 H 260.605 -0.92556 -0.205043 0
M  V30 2725 H 260.311 -3.25689 -1.3274 0
M  V30 2726 H 260.185 -2.44089 -2.87577 0
M  V30 2727 H 262.572 -1.50907 -2.53597 0
M  V30 2728 H 262.653 -2.36003 -0.98673 0
M  V30 2729 H 262.297 -4.57334 -2.20925 0
M  V30 2730 H 262.227 -3.69141 -3.75556 0
M  V30 2731 H 264.718 -2.92171 -2.39676 0
M  V30 2732 H 265.031 -6.35184 -4.40183 0
M  V30 2733 H 263.376 -5.70842 -3.96439 0
M  V30 2734 H 266.567 -3.67194 -2.90321 0
M  V30 2735 H 266.74 -5.23597 -3.81772 0
M  V30 2736 N 260.146 1.09593 -1.13257 0
M  V30 2737 C 261.394 1.81375 -0.891492 0
M  V30 2738 C 261.715 1.86049 0.584009 0
M  V30 2739 O 260.985 1.34481 1.42449 0
M  V30 2740 H 259.565 0.671708 -0.326828 0
M  V30 2741 H 262.227 1.3256 -1.42877 0
M  V30 2742 H 261.323 2.84612 -1.28071 0
M  V30 2743 N 261.624 0.925811 1.2754 0
M  V30 2744 C 262.571 0.422045 2.26908 0
M  V30 2745 C 263.541 -0.510029 1.58076 0
M  V30 2746 O 264.726 -0.429599 1.85901 0
M  V30 2747 C 261.866 -0.320837 3.43605 0
M  V30 2748 C 260.979 0.64513 4.27156 0
M  V30 2749 C 260.114 -0.117405 5.3107 0
M  V30 2750 C 259.153 0.841391 6.0629 0
M  V30 2751 N 258.29 0.111604 7.02011 0
M  V30 2752 H 263.13 1.27441 2.69375 0
M  V30 2753 H 260.667 0.639697 1.32462 0
M  V30 2754 H 262.625 -0.76785 4.10073 0
M  V30 2755 H 261.255 -1.13745 3.02096 0
M  V30 2756 H 260.307 1.21067 3.6062 0
M  V30 2757 H 261.619 1.37797 4.79389 0
M  V30 2758 H 260.773 -0.624422 6.03478 0
M  V30 2759 H 259.512 -0.883219 4.79636 0
M  V30 2760 H 258.517 1.35967 5.32722 0
M  V30 2761 H 259.742 1.60696 6.59813 0
M  V30 2762 H 257.688 -0.635999 6.5291 0
M  V30 2763 H 257.605 0.784044 7.51923 0
M  V30 2764 H 258.873 -0.374823 7.78598 0
M  V30 2765 N 263.102 -1.41638 0.69111 0
M  V30 2766 C 264.065 -2.29178 0.0319786 0
M  V30 2767 C 265.065 -1.44153 -0.712496 0
M  V30 2768 O 266.255 -1.65354 -0.548053 0
M  V30 2769 C 263.387 -3.26952 -0.965161 0
M  V30 2770 H 264.58 -2.88959 0.802681 0
M  V30 2771 H 262.133 -1.4955 0.454356 0
M  V30 2772 H 262.868 -2.72142 -1.76378 0
M  V30 2773 H 262.653 -3.89685 -0.434522 0
M  V30 2774 H 264.143 -3.92561 -1.42428 0
M  V30 2775 N 264.58 -0.43555 -1.51462 0
M  V30 2776 C 265.829 0.133007 -2.01261 0
M  V30 2777 C 266.142 1.43942 -1.32439 0
M  V30 2778 O 267.348 2.09081 -1.73198 0
M  V30 2779 C 265.804 0.287581 -3.58749 0
M  V30 2780 C 265.412 -1.00829 -4.36506 0
M  V30 2781 C 267.156 0.810004 -4.167 0
M  V30 2782 C 265.063 -0.819454 -5.85695 0
M  V30 2783 H 263.993 0.0534822 -0.752101 0
M  V30 2784 H 266.644 -0.565038 -1.74584 0
M  V30 2785 H 265.026 1.04859 -3.81865 0
M  V30 2786 H 266.2 -1.77749 -4.25138 0
M  V30 2787 H 264.515 -1.45911 -3.89999 0
M  V30 2788 H 267.112 0.967743 -5.2587 0
M  V30 2789 H 267.455 1.79196 -3.75758 0
M  V30 2790 H 267.988 0.107357 -3.97655 0
M  V30 2791 H 264.727 -1.77374 -6.31046 0
M  V30 2792 H 264.247 -0.0900208 -5.99732 0
M  V30 2793 H 265.926 -0.471949 -6.45276 0
M  V30 2794 N 266.058 1.56714 -0.166846 0
M  V30 2795 C 267.304 1.97039 0.479962 0
M  V30 2796 C 267.637 1.05264 1.63197 0
M  V30 2797 O 266.912 0.0988833 1.94248 0
M  V30 2798 C 267.195 3.46867 0.967212 0
M  V30 2799 C 267.048 4.49421 -0.18466 0
M  V30 2800 C 268.367 3.9968 1.84238 0
M  V30 2801 H 265.486 0.71641 0.172992 0
M  V30 2802 H 268.128 1.8832 -0.252079 0
M  V30 2803 H 266.278 3.54428 1.59101 0
M  V30 2804 H 267.95 4.53924 -0.821621 0
M  V30 2805 H 266.193 4.25573 -0.840837 0
M  V30 2806 H 266.864 5.51644 0.198317 0
M  V30 2807 H 269.34 3.94723 1.31655 0
M  V30 2808 H 268.216 5.04941 2.15234 0
M  V30 2809 H 268.477 3.43226 2.78654 0
M  V30 2810 N 267.536 -0.106894 1.57237 0
M  V30 2811 C 268.782 -0.81373 1.85759 0
M  V30 2812 C 269.115 -1.78952 0.754315 0
M  V30 2813 O 268.39 -1.93029 -0.23879 0
M  V30 2814 C 268.673 -1.55293 3.24894 0
M  V30 2815 C 268.526 -0.595929 4.45835 0
M  V30 2816 C 269.845 -2.5063 3.61763 0
M  V30 2817 H 266.964 -0.294369 0.67566 0
M  V30 2818 H 269.606 -0.0776472 1.89841 0
M  V30 2819 H 267.756 -2.1804 3.21544 0
M  V30 2820 H 269.428 0.0236262 4.61294 0
M  V30 2821 H 267.671 0.0916191 4.33703 0
M  V30 2822 H 268.342 -1.15004 5.39887 0
M  V30 2823 H 270.818 -1.97982 3.65981 0
M  V30 2824 H 269.694 -2.99376 4.60071 0
M  V30 2825 H 269.955 -3.3385 2.89821 0
M  V30 2826 N 269.014 -1.53014 -0.377408 0
M  V30 2827 C 269.977 -1.77957 -1.44444 0
M  V30 2828 C 270.977 -0.649763 -1.47087 0
M  V30 2829 O 272.167 -0.917897 -1.48055 0
M  V30 2830 C 269.299 -1.89089 -2.83651 0
M  V30 2831 H 270.492 -2.73243 -1.23606 0
M  V30 2832 H 268.045 -1.43912 -0.609844 0
M  V30 2833 H 268.78 -0.958293 -3.09818 0
M  V30 2834 H 268.565 -2.71254 -2.83132 0
M  V30 2835 H 270.055 -2.1002 -3.60945 0
M  V30 2836 N 270.492 0.636531 -1.44174 0
M  V30 2837 C 271.769 1.39463 -1.37148 0
M  V30 2838 C 272.149 2.11082 -0.027507 0
M  V30 2839 O 271.497 2.05954 0.989716 0
M  V30 2840 C 271.707 2.36552 -2.56601 0
M  V30 2841 C 273.055 3.00048 -3.00427 0
M  V30 2842 O 274.079 2.46878 -2.56767 0
M  V30 2843 O 272.938 3.96488 -3.76111 0
M  V30 2844 H 270.032 0.623903 -0.542839 0
M  V30 2845 H 272.578 0.662039 -1.56253 0
M  V30 2846 H 271.35 1.82692 -3.46034 0
M  V30 2847 H 270.973 3.17236 -2.39681 0
M  V30 2848 N 271.97 1.30982 0.876444 0
M  V30 2849 C 272.88 1.2003 2.01569 0
M  V30 2850 C 273.896 0.11838 1.73597 0
M  V30 2851 O 275.072 0.33495 1.98595 0
M  V30 2852 C 272.137 0.901637 3.34771 0
M  V30 2853 C 271.198 2.06979 3.76109 0
M  V30 2854 C 270.431 1.78529 5.02954 0
M  V30 2855 O 270.654 0.717296 5.65872 0
M  V30 2856 O 269.588 2.64019 5.40905 0
M  V30 2857 H 273.414 2.15753 2.13739 0
M  V30 2858 H 270.999 1.10658 1.00375 0
M  V30 2859 H 272.881 0.750645 4.1466 0
M  V30 2860 H 271.556 -0.0256141 3.2369 0
M  V30 2861 H 270.463 2.27616 2.96887 0
M  V30 2862 H 271.796 2.97907 3.91807 0
M  V30 2863 N 273.449 -1.08991 1.13837 0
M  V30 2864 C 274.412 -2.13925 0.822715 0
M  V30 2865 C 275.412 -1.599 -0.1699 0
M  V30 2866 O 276.602 -1.74104 0.0577251 0
M  V30 2867 C 273.734 -3.40155 0.225318 0
M  V30 2868 H 274.927 -2.43358 1.75262 0
M  V30 2869 H 272.48 -1.24603 0.943594 0
M  V30 2870 H 273.215 -3.16352 -0.713594 0
M  V30 2871 H 273 -3.80661 0.940193 0
M  V30 2872 H 274.49 -4.17594 0.0214784 0
M  V30 2873 N 274.927 -0.932562 -1.27047 0
M  V30 2874 C 276.157 -0.591173 -1.97961 0
M  V30 2875 C 276.565 0.836219 -1.69717 0
M  V30 2876 O 275.908 1.56801 -0.957036 0
M  V30 2877 C 275.97 -0.743082 -3.51736 0
M  V30 2878 C 275.634 -2.1435 -4.03613 0
M  V30 2879 C 276.631 -3.11815 -4.16014 0
M  V30 2880 C 274.316 -2.46175 -4.37839 0
M  V30 2881 C 276.31 -4.39211 -4.61923 0
M  V30 2882 C 273.997 -3.73806 -4.83438 0
M  V30 2883 C 274.995 -4.70137 -4.95439 0
M  V30 2884 O 274.683 -5.95496 -5.40037 0
M  V30 2885 H 274.415 -0.222375 -0.638377 0
M  V30 2886 H 276.969 -1.25317 -1.62742 0
M  V30 2887 H 275.199 -0.0239739 -3.86693 0
M  V30 2888 H 276.888 -0.40603 -4.03864 0
M  V30 2889 H 277.654 -2.88549 -3.89826 0
M  V30 2890 H 273.533 -1.71936 -4.27737 0
M  V30 2891 H 277.077 -5.14404 -4.71205 0
M  V30 2892 H 272.974 -3.96888 -5.09068 0
M  V30 2893 H 273.742 -5.98554 -5.58279 0
M  V30 2894 N 276.405 1.4127 -0.698611 0
M  V30 2895 C 277.654 2.00408 -0.227949 0
M  V30 2896 C 277.967 1.55981 1.18023 0
M  V30 2897 O 279.173 2.07699 1.74852 0
M  V30 2898 C 277.629 3.58129 -0.356636 0
M  V30 2899 C 277.237 4.11536 -1.77037 0
M  V30 2900 C 278.981 4.24466 0.0540969 0
M  V30 2901 C 276.888 5.61701 -1.85055 0
M  V30 2902 H 275.818 0.749586 -0.0814657 0
M  V30 2903 H 278.469 1.61713 -0.867249 0
M  V30 2904 H 276.851 3.94442 0.350965 0
M  V30 2905 H 278.025 3.86636 -2.50698 0
M  V30 2906 H 276.34 3.57736 -2.13105 0
M  V30 2907 H 278.937 5.34698 0.0146723 0
M  V30 2908 H 279.28 4.01687 1.09332 0
M  V30 2909 H 279.813 3.93198 -0.603337 0
M  V30 2910 H 276.552 5.89312 -2.8704 0
M  V30 2911 H 276.072 5.88519 -1.15783 0
M  V30 2912 H 277.751 6.26524 -1.61484 0
M  V30 2913 N 277.883 0.443576 1.51229 0
M  V30 2914 C 278.793 -0.370721 2.31652 0
M  V30 2915 C 279.809 -1.02186 1.40833 0
M  V30 2916 O 280.985 -1.01586 1.73903 0
M  V30 2917 C 278.05 -1.45376 3.14749 0
M  V30 2918 C 277.111 -0.822099 4.21355 0
M  V30 2919 C 276.344 -1.85353 5.0048 0
M  V30 2920 O 276.567 -3.07656 4.80316 0
M  V30 2921 O 275.501 -1.4406 5.84406 0
M  V30 2922 H 279.327 0.286002 3.0235 0
M  V30 2923 H 276.912 0.20598 1.47973 0
M  V30 2924 H 278.794 -2.08173 3.66391 0
M  V30 2925 H 277.469 -2.09445 2.46809 0
M  V30 2926 H 276.376 -0.155909 3.73775 0
M  V30 2927 H 277.709 -0.224797 4.91686 0
M  V30 2928 N 279.361 -1.56624 0.175154 0
M  V30 2929 C 280.608 -1.96999 -0.468811 0
M  V30 2930 C 280.936 -1.06129 -1.62994 0
M  V30 2931 O 280.191 -0.0961771 -1.95464 0
M  V30 2932 C 280.49 -3.43419 -0.989864 0
M  V30 2933 C 280.156 -4.50866 0.0557687 0
M  V30 2934 C 278.818 -4.79975 0.343134 0
M  V30 2935 C 281.17 -5.15551 0.765308 0
M  V30 2936 C 278.498 -5.71066 1.34536 0
M  V30 2937 C 280.85 -6.07724 1.75654 0
M  V30 2938 C 279.514 -6.35199 2.05132 0
M  V30 2939 H 278.784 -0.720869 -0.17155 0
M  V30 2940 H 281.431 -1.89616 0.267924 0
M  V30 2941 H 279.736 -3.47772 -1.80449 0
M  V30 2942 H 281.433 -3.72002 -1.49719 0
M  V30 2943 H 278.023 -4.28229 -0.178381 0
M  V30 2944 H 282.207 -4.9317 0.556513 0
M  V30 2945 H 277.463 -5.90635 1.57988 0
M  V30 2946 H 281.637 -6.56912 2.31169 0
M  V30 2947 H 279.264 -7.05584 2.8294 0
M  V30 2948 N 280.839 0.0985539 -1.57292 0
M  V30 2949 C 282.079 0.808332 -1.87737 0
M  V30 2950 C 282.443 1.7607 -0.76572 0
M  V30 2951 O 283.644 2.51358 -0.952499 0
M  V30 2952 C 281.915 1.52093 -3.23423 0
M  V30 2953 S 283.474 2.26947 -3.75554 0
M  V30 2954 H 280.292 0.269377 -0.657995 0
M  V30 2955 H 282.894 0.0656269 -1.9539 0
M  V30 2956 H 281.598 0.81363 -4.02254 0
M  V30 2957 H 281.129 2.30361 -3.189 0
M  V30 2958 H 283.144 3.53027 -3.48692 0
M  V30 2959 N 282.317 1.53212 0.369288 0
M  V30 2960 C 283.728 1.60943 0.946276 0
M  V30 2961 C 284.079 0.47452 1.90375 0
M  V30 2962 O 283.204 -0.399597 2.12679 0
M  V30 2963 C 283.799 2.91715 1.72302 0
M  V30 2964 C 282.358 3.01792 2.24941 0
M  V30 2965 C 281.505 2.56211 1.06072 0
M  V30 2966 H 284.456 1.58007 0.148198 0
M  V30 2967 H 284.477 2.79309 2.58393 0
M  V30 2968 H 283.989 3.74295 1.0259 0
M  V30 2969 H 282.09 2.23791 2.97906 0
M  V30 2970 H 282.203 4.06803 2.53077 0
M  V30 2971 H 280.567 2.10998 1.4266 0
M  V30 2972 H 281.35 3.41206 0.378639 0
M  V30 2973 N 283.795 -0.628877 1.44509 0
M  V30 2974 C 284.727 -1.754 1.47538 0
M  V30 2975 C 285.74 -1.58575 0.368506 0
M  V30 2976 O 286.929 -1.66847 0.634376 0
M  V30 2977 C 284.029 -3.1315 1.29577 0
M  V30 2978 C 283.202 -3.56413 2.53551 0
M  V30 2979 C 282.261 -4.7305 2.30457 0
M  V30 2980 O 281.287 -4.81247 3.03957 0
M  V30 2981 N 282.489 -5.64903 1.3366 0
M  V30 2982 H 285.254 -1.73272 2.44534 0
M  V30 2983 H 282.815 -0.813512 1.39977 0
M  V30 2984 H 284.807 -3.88902 1.11971 0
M  V30 2985 H 283.377 -3.09908 0.409371 0
M  V30 2986 H 282.597 -2.70847 2.86419 0
M  V30 2987 H 283.885 -3.82071 3.36005 0
M  V30 2988 H 283.283 -5.60975 0.729604 0
M  V30 2989 H 281.84 -6.40275 1.22032 0
M  V30 2990 N 285.273 -1.31445 -0.869486 0
M  V30 2991 C 286.236 -1.19094 -1.9583 0
M  V30 2992 C 287.236 -0.117906 -1.60367 0
M  V30 2993 O 288.426 -0.367208 -1.70286 0
M  V30 2994 C 285.558 -0.828165 -3.30688 0
M  V30 2995 H 286.751 -2.15842 -2.08212 0
M  V30 2996 H 284.304 -1.15063 -1.05784 0
M  V30 2997 H 285.039 0.138142 -3.24006 0
M  V30 2998 H 284.824 -1.6038 -3.578 0
M  V30 2999 H 286.314 -0.765658 -4.10521 0
M  V30 3000 N 286.751 1.08385 -1.14413 0
M  V30 3001 C 287.976 1.85057 -0.936413 0
M  V30 3002 C 288.401 1.81055 0.509971 0
M  V30 3003 O 287.759 1.1958 1.36273 0
M  V30 3004 C 287.807 3.30505 -1.44217 0
M  V30 3005 O 286.911 4.07491 -0.634409 0
M  V30 3006 H 286.252 0.573425 -0.334784 0
M  V30 3007 H 288.782 1.36799 -1.52142 0
M  V30 3008 H 288.792 3.81348 -1.45043 0
M  V30 3009 H 287.467 3.32734 -2.49522 0
M  V30 3010 H 286.044 3.66368 -0.694902 0
M  V30 3011 N 288.23 0.939286 1.26551 0
M  V30 3012 C 289.16 0.465044 2.28822 0
M  V30 3013 C 290.141 -0.480692 1.63167 0
M  V30 3014 O 291.326 -0.382955 1.90387 0
M  V30 3015 C 288.456 -0.27234 3.46231 0
M  V30 3016 C 287.41 0.58666 4.2396 0
M  V30 3017 C 286.736 -0.280573 5.33963 0
M  V30 3018 C 288.036 1.85704 4.88171 0
M  V30 3019 H 289.73 1.31979 2.68741 0
M  V30 3020 H 287.276 0.636061 1.29191 0
M  V30 3021 H 289.229 -0.615133 4.16886 0
M  V30 3022 H 287.953 -1.16121 3.0526 0
M  V30 3023 H 286.612 0.91232 3.55067 0
M  V30 3024 H 286.26 -1.16874 4.89234 0
M  V30 3025 H 285.96 0.29076 5.8688 0
M  V30 3026 H 287.484 -0.618678 6.07458 0
M  V30 3027 H 288.898 1.58161 5.51052 0
M  V30 3028 H 287.295 2.37279 5.51197 0
M  V30 3029 H 288.365 2.56957 4.11219 0
M  V30 3030 N 289.708 -1.40897 0.706093 0
M  V30 3031 C 290.671 -2.29131 0.0562841 0
M  V30 3032 C 291.671 -1.44901 -0.697166 0
M  V30 3033 O 292.861 -1.65926 -0.530484 0
M  V30 3034 C 289.993 -3.27957 -0.93043 0
M  V30 3035 H 291.186 -2.88091 0.833284 0
M  V30 3036 H 288.739 -1.4906 0.470192 0
M  V30 3037 H 289.474 -2.73997 -1.73482 0
M  V30 3038 H 289.259 -3.90124 -0.393166 0
M  V30 3039 H 290.749 -3.94049 -1.38256 0
M  V30 3040 N 291.186 -0.45159 -1.50991 0
M  V30 3041 C 292.434 0.109857 -2.01801 0
M  V30 3042 C 292.755 1.41958 -1.3369 0
M  V30 3043 O 292.025 1.9003 -0.475951 0
M  V30 3044 H 290.605 0.0435884 -0.745727 0
M  V30 3045 H 293.267 -0.597557 -1.85514 0
M  V30 3046 H 292.363 0.275489 -3.10882 0
M  V30 3047 N 292.664 1.56529 -0.183458 0
M  V30 3048 C 293.91 1.98304 0.452466 0
M  V30 3049 C 294.265 1.06799 1.60037 0
M  V30 3050 O 293.558 0.110049 1.91284 0
M  V30 3051 C 293.752 3.43939 0.971637 0
M  V30 3052 C 293.581 4.49528 -0.124425 0
M  V30 3053 C 292.351 5.01981 -0.578168 0
M  V30 3054 C 294.549 5.05836 -0.929207 0
M  V30 3055 N 292.531 5.91219 -1.65327 0
M  V30 3056 C 293.902 5.91632 -1.85396 0
M  V30 3057 C 295.957 4.88302 -0.972929 0
M  V30 3058 C 294.66 6.61768 -2.81878 0
M  V30 3059 C 296.686 5.59168 -1.92574 0
M  V30 3060 C 296.048 6.44701 -2.83795 0
M  V30 3061 H 292.147 0.770551 0.133324 0
M  V30 3062 H 294.731 1.92581 -0.286473 0
M  V30 3063 H 292.902 3.50184 1.68006 0
M  V30 3064 H 294.634 3.72702 1.5772 0
M  V30 3065 H 291.389 4.73282 -0.173639 0
M  V30 3066 H 291.813 6.40543 -2.19167 0
M  V30 3067 H 296.455 4.21861 -0.28168 0
M  V30 3068 H 294.173 7.27415 -3.51984 0
M  V30 3069 H 297.759 5.47582 -1.96583 0
M  V30 3070 H 296.639 6.98573 -3.56322 0
M  V30 3071 N 294.142 -0.090211 1.57342 0
M  V30 3072 C 295.072 -1.10976 2.05443 0
M  V30 3073 C 296.053 -1.41482 0.944284 0
M  V30 3074 O 297.238 -1.51428 1.21586 0
M  V30 3075 C 294.368 -2.42831 2.48295 0
M  V30 3076 C 293.322 -2.26721 3.63018 0
M  V30 3077 C 292.648 -3.63796 3.91863 0
M  V30 3078 C 293.948 -1.7037 4.93732 0
M  V30 3079 H 295.642 -0.709564 2.9087 0
M  V30 3080 H 293.188 -0.339874 1.39932 0
M  V30 3081 H 295.141 -3.14431 2.80555 0
M  V30 3082 H 293.865 -2.84795 1.59873 0
M  V30 3083 H 292.524 -1.57565 3.31012 0
M  V30 3084 H 292.172 -4.03297 3.00601 0
M  V30 3085 H 291.872 -3.53861 4.69101 0
M  V30 3086 H 293.396 -4.36855 4.26603 0
M  V30 3087 H 294.81 -2.31816 5.24342 0
M  V30 3088 H 293.207 -1.71181 5.75167 0
M  V30 3089 H 294.277 -0.663542 4.80339 0
M  V30 3090 N 295.62 -1.53406 -0.361157 0
M  V30 3091 C 296.583 -1.79479 -1.42548 0
M  V30 3092 C 297.583 -0.665327 -1.4639 0
M  V30 3093 O 298.773 -0.933549 -1.47073 0
M  V30 3094 C 295.905 -1.92087 -2.8163 0
M  V30 3095 H 297.098 -2.74538 -1.20701 0
M  V30 3096 H 294.651 -1.4455 -0.594546 0
M  V30 3097 H 295.386 -0.991099 -3.08784 0
M  V30 3098 H 295.171 -2.74241 -2.80239 0
M  V30 3099 H 296.661 -2.13836 -3.58697 0
M  V30 3100 N 297.098 0.621204 -1.44841 0
M  V30 3101 C 298.008 1.7612 -1.5498 0
M  V30 3102 C 299.024 1.68477 -0.434927 0
M  V30 3103 O 300.2 1.89076 -0.693693 0
M  V30 3104 C 297.265 3.1254 -1.50065 0
M  V30 3105 C 296.326 3.31741 -2.72482 0
M  V30 3106 C 295.559 4.61653 -2.67792 0
M  V30 3107 O 295.782 5.431 -1.74352 0
M  V30 3108 O 294.716 4.83271 -3.58794 0
M  V30 3109 H 298.542 1.70518 -2.51311 0
M  V30 3110 H 296.127 0.783643 -1.27198 0
M  V30 3111 H 298.009 3.93844 -1.49882 0
M  V30 3112 H 296.684 3.18663 -0.568806 0
M  V30 3113 H 295.591 2.50077 -2.7823 0
M  V30 3114 H 296.924 3.30486 -3.64746 0
M  V30 3115 N 298.576 1.31904 0.862503 0
M  V30 3116 C 299.806 1.24817 1.64634 0
M  V30 3117 C 300.214 -0.187579 1.88268 0
M  V30 3118 O 299.557 -1.13253 1.44635 0
M  V30 3119 C 299.619 1.92996 3.03303 0
M  V30 3120 C 299.283 3.42336 3.02746 0
M  V30 3121 C 300.28 4.37956 2.80162 0
M  V30 3122 C 297.965 3.84147 3.2363 0
M  V30 3123 C 299.959 5.73361 2.78453 0
M  V30 3124 C 297.646 5.19663 3.21549 0
M  V30 3125 C 298.644 6.14081 2.98988 0
M  V30 3126 O 298.332 7.47118 2.96766 0
M  V30 3127 H 298.064 0.432222 0.519769 0
M  V30 3128 H 300.618 1.7445 1.08427 0
M  V30 3129 H 298.848 1.37922 3.61268 0
M  V30 3130 H 300.537 1.79723 3.63943 0
M  V30 3131 H 301.303 4.06981 2.63802 0
M  V30 3132 H 297.182 3.11083 3.40218 0
M  V30 3133 H 300.726 6.4703 2.60763 0
M  V30 3134 H 296.623 5.5027 3.37451 0
M  V30 3135 H 297.391 7.56382 3.12775 0
M  V30 3136 N 300.054 -1.07777 1.14986 0
M  V30 3137 C 301.465 -1.61766 0.932127 0
M  V30 3138 C 301.816 -1.88974 -0.527581 0
M  V30 3139 O 300.941 -1.65198 -1.39781 0
M  V30 3140 C 301.536 -2.93891 1.68563 0
M  V30 3141 C 300.095 -3.44639 1.5133 0
M  V30 3142 C 299.242 -2.18767 1.704 0
M  V30 3143 H 302.193 -0.909201 1.30074 0
M  V30 3144 H 302.214 -3.62623 1.15259 0
M  V30 3145 H 301.726 -2.74057 2.74799 0
M  V30 3146 H 299.827 -3.69564 0.474702 0
M  V30 3147 H 299.94 -4.20966 2.28746 0
M  V30 3148 H 298.304 -2.28253 1.13016 0
M  V30 3149 H 299.087 -2.01433 2.77992 0
M  V30 3150 N 301.532 -0.945985 -1.26051 0
M  V30 3151 C 302.482 -0.430164 -2.23905 0
M  V30 3152 C 303.466 0.47579 -1.53704 0
M  V30 3153 O 304.658 0.310252 -1.7426 0
M  V30 3154 C 301.787 0.298957 -3.41996 0
M  V30 3155 C 300.873 -0.624566 -4.19476 0
M  V30 3156 N 301.264 -1.75245 -4.74471 0
M  V30 3157 C 299.562 -0.431082 -4.43912 0
M  V30 3158 C 300.263 -2.32834 -5.3307 0
M  V30 3159 N 299.239 -1.61583 -5.1903 0
M  V30 3160 H 303.041 -1.29107 -2.64024 0
M  V30 3161 H 300.555 -0.802428 -1.41191 0
M  V30 3162 H 302.552 0.685565 -4.11225 0
M  V30 3163 H 301.212 1.15657 -3.03403 0
M  V30 3164 H 302.223 -2.13449 -4.71868 0
M  V30 3165 H 298.9 0.384364 -4.15727 0
M  V30 3166 H 300.29 -3.27893 -5.86461 0
M  V30 3167 N 303.011 1.40521 -0.713556 0
M  V30 3168 C 303.941 2.33381 -0.0743864 0
M  V30 3169 C 304.922 1.52784 0.747735 0
M  V30 3170 O 306.107 1.81258 0.697071 0
M  V30 3171 C 303.237 3.36748 0.849598 0
M  V30 3172 C 302.191 4.27793 0.133247 0
M  V30 3173 C 301.517 5.21679 1.17281 0
M  V30 3174 C 302.817 5.12415 -1.01134 0
M  V30 3175 H 304.511 2.87081 -0.850007 0
M  V30 3176 H 302.057 1.38034 -0.410201 0
M  V30 3177 H 304.01 4.00648 1.30612 0
M  V30 3178 H 302.734 2.81439 1.65709 0
M  V30 3179 H 301.393 3.65342 -0.303426 0
M  V30 3180 H 301.041 4.62677 1.9733 0
M  V30 3181 H 300.741 5.83435 0.698397 0
M  V30 3182 H 302.265 5.88456 1.62947 0
M  V30 3183 H 303.679 5.69781 -0.634274 0
M  V30 3184 H 302.076 5.83203 -1.41399 0
M  V30 3185 H 303.146 4.48514 -1.84292 0
M  V30 3186 N 304.489 0.459591 1.5075 0
M  V30 3187 C 305.452 -0.329093 2.26825 0
M  V30 3188 C 306.452 -0.930481 1.31144 0
M  V30 3189 O 307.642 -0.801453 1.54669 0
M  V30 3190 C 304.774 -1.46768 3.07688 0
M  V30 3191 H 305.967 0.337924 2.9799 0
M  V30 3192 H 303.52 0.213336 1.54837 0
M  V30 3193 H 304.255 -2.17009 2.40993 0
M  V30 3194 H 304.04 -1.04238 3.77991 0
M  V30 3195 H 305.53 -2.02433 3.65254 0
M  V30 3196 N 305.967 -1.56429 0.191757 0
M  V30 3197 C 307.216 -1.9666 -0.448088 0
M  V30 3198 C 307.529 -1.08136 -1.62991 0
M  V30 3199 O 308.735 -1.38135 -2.33733 0
M  V30 3200 C 307.191 -3.49753 -0.848585 0
M  V30 3201 C 306.799 -4.46935 0.308764 0
M  V30 3202 C 308.543 -3.9876 -1.4557 0
M  V30 3203 C 306.45 -5.91293 -0.112506 0
M  V30 3204 H 305.38 -0.734312 -0.171179 0
M  V30 3205 H 308.031 -1.81301 0.283242 0
M  V30 3206 H 306.413 -3.60604 -1.63649 0
M  V30 3207 H 307.587 -4.47813 1.08627 0
M  V30 3208 H 305.902 -4.08102 0.827158 0
M  V30 3209 H 308.499 -5.04086 -1.78328 0
M  V30 3210 H 308.842 -3.42875 -2.36099 0
M  V30 3211 H 309.375 -3.9101 -0.731836 0
M  V30 3212 H 306.114 -6.51097 0.758514 0
M  V30 3213 H 305.634 -5.93676 -0.854941 0
M  V30 3214 H 307.313 -6.44663 -0.549448 0
M  V30 3215 N 307.445 0.0818655 -1.57387 0
M  V30 3216 C 308.375 1.09885 -2.06028 0
M  V30 3217 C 309.356 1.4098 -0.951774 0
M  V30 3218 O 310.541 1.50781 -1.22387 0
M  V30 3219 C 307.671 2.4151 -2.4958 0
M  V30 3220 C 306.625 2.24792 -3.64215 0
M  V30 3221 C 305.951 3.61712 -3.93787 0
M  V30 3222 C 307.251 1.67749 -4.94629 0
M  V30 3223 H 308.945 0.694128 -2.91243 0
M  V30 3224 H 306.491 0.332448 -1.4011 0
M  V30 3225 H 308.444 3.12939 -2.82219 0
M  V30 3226 H 307.168 2.83943 -1.61381 0
M  V30 3227 H 305.827 1.55807 -3.31843 0
M  V30 3228 H 305.475 4.01697 -3.02735 0
M  V30 3229 H 305.175 3.51368 -4.70971 0
M  V30 3230 H 306.699 4.34587 -4.28913 0
M  V30 3231 H 308.113 2.29032 -5.25564 0
M  V30 3232 H 306.51 1.68128 -5.76067 0
M  V30 3233 H 307.58 0.638059 -4.80684 0
M  V30 3234 N 308.923 1.53595 0.353017 0
M  V30 3235 C 310.339 1.43648 0.695516 0
M  V30 3236 C 310.539 0.585617 1.92802 0
M  V30 3237 O 309.595 0.0729223 2.52395 0
M  V30 3238 C 310.908 2.8701 0.896991 0
M  V30 3239 C 312.456 2.96723 0.996209 0
M  V30 3240 C 312.931 4.41173 1.23007 0
M  V30 3241 N 314.422 4.44657 1.29749 0
M  V30 3242 C 315.157 5.53547 1.49577 0
M  V30 3243 N 314.653 6.72461 1.66639 0
M  V30 3244 N 316.446 5.41145 1.52048 0
M  V30 3245 H 308.597 2.07415 -0.457481 0
M  V30 3246 H 310.86 0.9372 -0.142687 0
M  V30 3247 H 310.566 3.51644 0.0629938 0
M  V30 3248 H 310.44 3.31401 1.80148 0
M  V30 3249 H 312.827 2.32235 1.82074 0
M  V30 3250 H 312.908 2.55707 0.0688331 0
M  V30 3251 H 312.552 5.06238 0.410505 0
M  V30 3252 H 312.482 4.79772 2.17086 0
M  V30 3253 H 314.973 3.58963 1.18126 0
M  V30 3254 H 315.286 7.51214 1.81378 0
M  V30 3255 H 313.631 6.75423 1.63794 0
M  V30 3256 H 316.822 4.47205 1.38294 0
M  V30 3257 H 316.995 6.26068 1.67159 0
M  V30 3258 N 310.401 -0.613514 1.45168 0
M  V30 3259 C 311.629 -1.39946 1.5239 0
M  V30 3260 C 312.044 -1.88167 0.154531 0
M  V30 3261 O 311.401 -1.61872 -0.842843 0
M  V30 3262 C 311.452 -2.60795 2.50337 0
M  V30 3263 O 311.173 -2.1458 3.81952 0
M  V30 3264 C 312.674 -3.53723 2.67198 0
M  V30 3265 H 309.894 -0.428593 0.516284 0
M  V30 3266 H 312.438 -0.748753 1.903 0
M  V30 3267 H 310.593 -3.21919 2.15515 0
M  V30 3268 H 311.007 -2.93055 4.34993 0
M  V30 3269 H 312.481 -4.35079 3.39721 0
M  V30 3270 H 312.958 -4.0368 1.73029 0
M  V30 3271 H 313.564 -2.98456 3.02992 0
M  V30 3272 N 311.879 -1.3236 -0.855495 0
M  V30 3273 C 312.809 -1.23833 -1.97958 0
M  V30 3274 C 313.79 -0.122361 -1.69659 0
M  V30 3275 O 314.975 -0.30939 -1.9172 0
M  V30 3276 C 312.105 -0.959772 -3.33775 0
M  V30 3277 C 311.059 -2.03689 -3.76424 0
M  V30 3278 C 310.385 -1.61075 -5.09862 0
M  V30 3279 C 311.685 -3.4518 -3.9198 0
M  V30 3280 H 313.379 -2.1788 -2.0535 0
M  V30 3281 H 310.925 -1.04891 -0.986605 0
M  V30 3282 H 312.878 -0.886678 -4.11966 0
M  V30 3283 H 311.602 0.0163404 -3.26596 0
M  V30 3284 H 310.261 -2.10012 -3.00484 0
M  V30 3285 H 309.909 -0.622107 -4.99138 0
M  V30 3286 H 309.609 -2.33143 -5.39368 0
M  V30 3287 H 311.133 -1.55201 -5.90546 0
M  V30 3288 H 312.547 -3.4145 -4.60526 0
M  V30 3289 H 310.944 -4.1559 -4.32903 0
M  V30 3290 H 312.014 -3.84903 -2.94919 0
M  V30 3291 N 313.357 1.07166 -1.15556 0
M  V30 3292 C 314.582 1.84053 -0.955988 0
M  V30 3293 C 315.007 1.81586 0.490739 0
M  V30 3294 O 314.365 1.21018 1.34997 0
M  V30 3295 C 314.413 3.28957 -1.47714 0
M  V30 3296 O 313.517 4.06795 -0.677593 0
M  V30 3297 H 312.858 0.569842 -0.340847 0
M  V30 3298 H 315.388 1.35178 -1.53584 0
M  V30 3299 H 315.398 3.79788 -1.4908 0
M  V30 3300 H 314.073 3.30068 -2.53037 0
M  V30 3301 H 312.65 3.6561 -0.733721 0
M  V30 3302 N 314.835 0.952656 1.25548 0
M  V30 3303 C 315.782 0.47008 2.25962 0
M  V30 3304 C 316.752 -0.476384 1.59122 0
M  V30 3305 O 317.937 -0.39007 1.8677 0
M  V30 3306 C 315.077 -0.247881 3.44209 0
M  V30 3307 C 314.19 0.735591 4.25691 0
M  V30 3308 C 313.325 -0.0047306 5.312 0
M  V30 3309 C 312.364 0.969805 6.04368 0
M  V30 3310 N 311.501 0.260486 7.01617 0
M  V30 3311 H 316.341 1.33126 2.66611 0
M  V30 3312 H 313.878 0.66765 1.31076 0
M  V30 3313 H 315.836 -0.680695 4.1161 0
M  V30 3314 H 314.466 -1.07312 3.0444 0
M  V30 3315 H 313.518 1.28689 3.57971 0
M  V30 3316 H 314.83 1.47934 4.76358 0
M  V30 3317 H 313.984 -0.496275 6.04667 0
M  V30 3318 H 312.723 -0.781282 4.81401 0
M  V30 3319 H 311.728 1.47237 5.29718 0
M  V30 3320 H 312.953 1.74655 6.56256 0
M  V30 3321 H 310.899 -0.497364 6.54112 0
M  V30 3322 H 310.816 0.943362 7.50091 0
M  V30 3323 H 312.084 -0.209587 7.79218 0
M  V30 3324 N 316.313 -1.40141 0.720998 0
M  V30 3325 C 317.276 -2.29058 0.0805834 0
M  V30 3326 C 318.276 -1.45632 -0.681758 0
M  V30 3327 O 319.466 -1.6648 -0.512856 0
M  V30 3328 C 316.598 -3.28925 -0.895593 0
M  V30 3329 H 317.791 -2.87191 0.863793 0
M  V30 3330 H 315.344 -1.48553 0.485975 0
M  V30 3331 H 316.079 -2.75822 -1.70566 0
M  V30 3332 H 315.864 -3.90519 -0.351766 0
M  V30 3333 H 317.354 -3.95494 -1.34069 0
M  V30 3334 N 317.792 -0.46758 -1.50504 0
M  V30 3335 C 319.039 0.0886219 -2.02306 0
M  V30 3336 C 319.367 1.40037 -1.34981 0
M  V30 3337 O 318.622 1.90136 -0.463318 0
M  V30 3338 C 318.921 0.323995 -3.55928 0
M  V30 3339 C 318.587 -0.905618 -4.41712 0
M  V30 3340 C 317.249 -1.24275 -4.64875 0
M  V30 3341 C 319.601 -1.72448 -4.91845 0
M  V30 3342 C 316.929 -2.39888 -5.35417 0
M  V30 3343 C 319.281 -2.87185 -5.63656 0
M  V30 3344 C 317.945 -3.21317 -5.85074 0
M  V30 3345 H 317.215 0.0324291 -0.74029 0
M  V30 3346 H 319.862 -0.620945 -1.81153 0
M  V30 3347 H 318.167 1.11577 -3.75577 0
M  V30 3348 H 319.864 0.76826 -3.93572 0
M  V30 3349 H 316.454 -0.632956 -4.239 0
M  V30 3350 H 320.638 -1.4772 -4.73806 0
M  V30 3351 H 315.894 -2.66611 -5.50208 0
M  V30 3352 H 320.068 -3.50985 -6.01484 0
M  V30 3353 H 317.695 -4.1101 -6.39511 0
M  V30 3354 N 319.27 1.56325 -0.20005 0
M  V30 3355 C 320.233 2.18084 0.705132 0
M  V30 3356 C 321.233 1.13666 1.1374 0
M  V30 3357 O 322.423 1.39023 1.04968 0
M  V30 3358 C 319.555 2.78689 1.96329 0
M  V30 3359 H 320.748 2.99435 0.167023 0
M  V30 3360 H 318.301 1.56221 0.0495725 0
M  V30 3361 H 319.036 2.0115 2.5438 0
M  V30 3362 H 318.821 3.55133 1.66202 0
M  V30 3363 H 320.311 3.26096 2.60866 0
M  V30 3364 N 320.748 -0.0735177 1.57428 0
M  V30 3365 C 321.678 -1.0879 2.06608 0
M  V30 3366 C 322.659 -1.40473 0.959237 0
M  V30 3367 O 323.844 -1.5013 1.23185 0
M  V30 3368 C 320.974 -2.40183 2.50857 0
M  V30 3369 C 319.928 -2.22858 3.65402 0
M  V30 3370 C 319.254 -3.59619 3.957 0
M  V30 3371 C 320.554 -1.65123 4.95511 0
M  V30 3372 H 322.248 -0.678673 2.91607 0
M  V30 3373 H 319.794 -0.325013 1.40284 0
M  V30 3374 H 321.747 -3.11437 2.83874 0
M  V30 3375 H 320.471 -2.83083 1.62885 0
M  V30 3376 H 319.13 -1.54045 3.32664 0
M  V30 3377 H 318.778 -4.00086 3.04861 0
M  V30 3378 H 318.478 -3.48866 4.72828 0
M  V30 3379 H 320.002 -4.32306 4.31212 0
M  V30 3380 H 321.416 -2.26241 5.26771 0
M  V30 3381 H 319.813 -1.65071 5.7695 0
M  V30 3382 H 320.883 -0.612559 4.81015 0
M  V30 3383 N 322.226 -1.5378 -0.344866 0
M  V30 3384 C 323.189 -1.80981 -1.40637 0
M  V30 3385 C 324.189 -0.680816 -1.45676 0
M  V30 3386 O 325.379 -0.949095 -1.46075 0
M  V30 3387 C 322.511 -1.95063 -2.79577 0
M  V30 3388 H 323.704 -2.75803 -1.17783 0
M  V30 3389 H 321.257 -1.45173 -0.579181 0
M  V30 3390 H 321.992 -1.02379 -3.07716 0
M  V30 3391 H 321.777 -2.77198 -2.77315 0
M  V30 3392 H 323.267 -2.17629 -3.56409 0
M  V30 3393 N 323.704 0.605807 -1.45491 0
M  V30 3394 C 324.952 1.36207 -1.49305 0
M  V30 3395 C 325.273 1.94519 -0.136863 0
M  V30 3396 O 324.543 1.77261 0.833983 0
M  V30 3397 H 323.123 0.50565 -0.549843 0
M  V30 3398 H 325.785 0.711239 -1.81459 0
M  V30 3399 H 324.881 2.18058 -2.23287 0
M  V30 3400 N 325.182 1.32811 0.848464 0
M  V30 3401 C 326.112 1.24882 1.97299 0
M  V30 3402 C 327.093 0.131357 1.69592 0
M  V30 3403 O 328.278 0.319553 1.91553 0
M  V30 3404 C 325.408 0.97746 3.33261 0
M  V30 3405 C 324.362 2.05682 3.75338 0
M  V30 3406 C 323.688 1.63777 5.09 0
M  V30 3407 C 324.988 3.47254 3.90144 0
M  V30 3408 H 326.682 2.18966 2.04191 0
M  V30 3409 H 324.228 1.05413 0.981029 0
M  V30 3410 H 326.181 0.908513 4.1149 0
M  V30 3411 H 324.905 0.000980011 3.266 0
M  V30 3412 H 323.564 2.11603 2.99366 0
M  V30 3413 H 323.212 0.648569 4.98801 0
M  V30 3414 H 322.912 2.36 5.38124 0
M  V30 3415 H 324.436 1.5833 5.89715 0
M  V30 3416 H 325.85 3.43888 4.58709 0
M  V30 3417 H 324.247 4.1788 4.30693 0
M  V30 3418 H 325.317 3.86462 2.92874 0
M  V30 3419 N 326.66 -1.06551 1.16123 0
M  V30 3420 C 328.076 -1.3142 0.905585 0
M  V30 3421 C 328.276 -1.96571 -0.442964 0
M  V30 3422 O 327.332 -2.23068 -1.18308 0
M  V30 3423 C 328.645 -2.19741 2.05267 0
M  V30 3424 C 330.193 -2.33165 2.08813 0
M  V30 3425 C 330.668 -3.24838 3.22868 0
M  V30 3426 N 332.159 -3.32421 3.22568 0
M  V30 3427 C 332.894 -4.0344 4.0746 0
M  V30 3428 N 332.39 -4.77003 5.02434 0
M  V30 3429 N 334.183 -3.99464 3.95456 0
M  V30 3430 H 326.334 -0.626548 2.02949 0
M  V30 3431 H 328.597 -0.338777 0.8854 0
M  V30 3432 H 328.303 -1.79142 3.02657 0
M  V30 3433 H 328.177 -3.20313 1.99198 0
M  V30 3434 H 330.564 -2.73013 1.12018 0
M  V30 3435 H 330.645 -1.3227 2.18948 0
M  V30 3436 H 330.289 -2.85708 4.19921 0
M  V30 3437 H 330.219 -4.25707 3.0997 0
M  V30 3438 H 332.71 -2.79994 2.53795 0
M  V30 3439 H 333.023 -5.28712 5.63634 0
M  V30 3440 H 331.368 -4.75992 5.06415 0
M  V30 3441 H 334.559 -3.4111 3.20564 0
M  V30 3442 H 334.732 -4.54544 4.61837 0
M  V30 3443 N 328.138 -0.959301 -1.25041 0
M  V30 3444 C 329.378 -0.624343 -1.94631 0
M  V30 3445 C 329.742 0.82403 -1.73418 0
M  V30 3446 O 330.943 1.26881 -2.3697 0
M  V30 3447 C 329.214 -0.978805 -3.43736 0
M  V30 3448 S 330.773 -0.757127 -4.32219 0
M  V30 3449 H 327.591 -0.229327 -0.673001 0
M  V30 3450 H 330.193 -1.23447 -1.51595 0
M  V30 3451 H 328.897 -2.02997 -3.56679 0
M  V30 3452 H 328.428 -0.359117 -3.91757 0
M  V30 3453 H 330.443 0.369759 -4.9482 0
M  V30 3454 N 329.616 1.39756 -0.72842 0
M  V30 3455 C 330.864 2.00248 -0.272946 0
M  V30 3456 C 331.185 1.58077 1.14178 0
M  V30 3457 O 330.455 0.826014 1.77634 0
M  V30 3458 H 329.035 0.740554 -0.0979247 0
M  V30 3459 H 331.697 1.70903 -0.936912 0
M  V30 3460 H 330.793 3.10495 -0.316142 0
M  V30 3461 N 331.094 0.475555 1.50254 0
M  V30 3462 C 332.341 -0.0778919 2.0235 0
M  V30 3463 C 332.669 -1.39319 1.35722 0
M  V30 3464 O 331.924 -1.89888 0.473395 0
M  V30 3465 C 332.223 -0.305114 3.56095 0
M  V30 3466 C 331.889 0.92903 4.41225 0
M  V30 3467 C 330.551 1.26739 4.6421 0
M  V30 3468 C 332.903 1.75054 4.90923 0
M  V30 3469 C 330.231 2.42724 5.34137 0
M  V30 3470 C 332.583 2.9017 5.62125 0
M  V30 3471 C 331.247 3.24416 5.83362 0
M  V30 3472 H 330.517 -0.0285027 0.740452 0
M  V30 3473 H 333.164 0.630543 1.80821 0
M  V30 3474 H 331.469 -1.09584 3.76163 0
M  V30 3475 H 333.166 -0.747377 3.93974 0
M  V30 3476 H 329.756 0.655428 4.23559 0
M  V30 3477 H 333.94 1.50231 4.73016 0
M  V30 3478 H 329.196 2.69525 5.48786 0
M  V30 3479 H 333.37 3.54169 5.99614 0
M  V30 3480 H 330.997 4.14396 6.37323 0
M  V30 3481 N 332.573 -1.56217 0.208337 0
M  V30 3482 C 333.801 -2.02337 -0.43215 0
M  V30 3483 C 334.216 -1.08834 -1.54275 0
M  V30 3484 O 333.573 -0.0955462 -1.8225 0
M  V30 3485 C 333.624 -3.48072 -0.976138 0
M  V30 3486 O 333.345 -4.38007 0.0901621 0
M  V30 3487 C 334.846 -4.09773 -1.69119 0
M  V30 3488 H 332.066 -0.662385 -0.10718 0
M  V30 3489 H 334.61 -2.01966 0.320923 0
M  V30 3490 H 332.765 -3.49099 -1.67954 0
M  V30 3491 H 333.179 -5.23543 -0.316701 0
M  V30 3492 H 334.653 -5.13556 -2.02397 0
M  V30 3493 H 335.13 -3.53999 -2.59964 0
M  V30 3494 H 335.736 -4.12556 -1.03332 0
M  V30 3495 N 334.051 0.0651679 -1.57465 0
M  V30 3496 C 334.981 1.07693 -2.07182 0
M  V30 3497 C 335.962 1.39962 -0.966673 0
M  V30 3498 O 337.147 1.49475 -1.2398 0
M  V30 3499 C 334.277 2.3885 -2.52127 0
M  V30 3500 C 333.231 2.20917 -3.66579 0
M  V30 3501 C 332.557 3.57515 -3.97601 0
M  V30 3502 C 333.857 1.62493 -4.9638 0
M  V30 3503 H 335.551 0.663199 -2.91962 0
M  V30 3504 H 333.097 0.317569 -1.40455 0
M  V30 3505 H 335.05 3.09928 -2.85522 0
M  V30 3506 H 333.774 2.82215 -1.64384 0
M  V30 3507 H 332.433 1.52279 -3.33477 0
M  V30 3508 H 332.081 3.98463 -3.06979 0
M  V30 3509 H 331.781 3.46353 -4.74672 0
M  V30 3510 H 333.305 4.30013 -4.33499 0
M  V30 3511 H 334.719 2.23445 -5.27963 0
M  V30 3512 H 333.116 1.62009 -5.77818 0
M  V30 3513 H 334.186 0.587041 -4.81333 0
M  V30 3514 N 335.529 1.53961 0.336706 0
M  V30 3515 C 336.492 1.81724 1.39675 0
M  V30 3516 C 337.492 0.688532 1.45313 0
M  V30 3517 O 338.682 0.956829 1.45569 0
M  V30 3518 C 335.814 1.96543 2.78538 0
M  V30 3519 H 337.007 2.76424 1.16318 0
M  V30 3520 H 334.56 1.45478 0.571474 0
M  V30 3521 H 335.295 1.0401 3.07168 0
M  V30 3522 H 335.08 2.78665 2.75841 0
M  V30 3523 H 336.57 2.19516 3.5525 0
M  V30 3524 N 337.007 -0.598083 1.45811 0
M  V30 3525 C 337.955 -1.72932 1.55555 0
M  V30 3526 C 338.949 -1.63984 0.424921 0
M  V30 3527 O 340.155 -1.69663 0.601205 0
M  V30 3528 H 336.53 -0.571489 0.488779 0
M  V30 3529 H 338.501 -1.61842 2.50699 0
M  V30 3530 C 337.25 -3.11318 1.54843 0
M  V30 3531 H 336.573 -3.18867 2.41172 0
M  V30 3532 H 338.013 -3.90274 1.65717 0
M  V30 3533 C 336.472 -3.3578 0.274427 0
M  V30 3534 O 337.002 -3.9654 -0.641778 0
M  V30 3535 N 335.208 -2.90119 0.167139 0
M  V30 3536 H 334.755 -2.40855 0.913596 0
M  V30 3537 H 334.713 -3.0686 -0.684435 0
M  V30 3538 N 338.485 -1.33259 -0.841409 0
M  V30 3539 C 339.395 -1.25332 -1.98316 0
M  V30 3540 C 340.411 -0.164364 -1.73222 0
M  V30 3541 O 341.587 -0.387486 -1.97637 0
M  V30 3542 C 338.652 -0.990078 -3.32262 0
M  V30 3543 C 337.713 -2.16879 -3.70489 0
M  V30 3544 C 336.946 -1.91801 -4.98044 0
M  V30 3545 O 337.169 -0.867075 -5.63771 0
M  V30 3546 O 336.103 -2.78267 -5.33714 0
M  V30 3547 H 339.929 -2.21344 -2.07944 0
M  V30 3548 H 337.514 -1.1328 -0.974058 0
M  V30 3549 H 339.396 -0.860321 -4.12524 0
M  V30 3550 H 338.071 -0.0602155 -3.23644 0
M  V30 3551 H 336.978 -2.35407 -2.90748 0
M  V30 3552 H 338.311 -3.0819 -3.8377 0
M  V30 3553 N 339.963 1.05934 -1.16686 0
M  V30 3554 C 340.873 2.17014 -0.891183 0
M  V30 3555 C 341.889 1.73453 0.137907 0
M  V30 3556 O 343.065 2.01361 -0.039592 0
M  V30 3557 C 340.13 3.44384 -0.400099 0
M  V30 3558 C 339.191 4.02433 -1.49486 0
M  V30 3559 C 338.424 5.23723 -1.02711 0
M  V30 3560 O 338.647 5.7027 0.121716 0
M  V30 3561 O 337.581 5.7382 -1.81699 0
M  V30 3562 H 341.407 2.43113 -1.82015 0
M  V30 3563 H 338.992 1.15541 -0.947132 0
M  V30 3564 H 340.874 4.21189 -0.133392 0
M  V30 3565 H 339.549 3.19802 0.500817 0
M  V30 3566 H 338.456 3.27102 -1.81535 0
M  V30 3567 H 339.789 4.31317 -2.37121 0
M  V30 3568 N 341.441 0.965919 1.2453 0
M  V30 3569 C 342.687 0.62776 1.92839 0
M  V30 3570 C 343.02 -0.834694 1.75347 0
M  V30 3571 O 342.295 -1.60031 1.10546 0
M  V30 3572 C 342.578 1.00109 3.45905 0
M  V30 3573 C 342.431 2.52011 3.72573 0
M  V30 3574 C 343.75 0.53435 4.36844 0
M  V30 3575 H 340.869 0.229537 0.700344 0
M  V30 3576 H 343.511 1.2046 1.46933 0
M  V30 3577 H 341.661 0.510238 3.85135 0
M  V30 3578 H 343.333 3.08559 3.42912 0
M  V30 3579 H 341.576 2.95287 3.17786 0
M  V30 3580 H 342.247 2.73183 4.79661 0
M  V30 3581 H 344.723 0.955565 4.04979 0
M  V30 3582 H 343.599 0.824152 5.42678 0
M  V30 3583 H 343.86 -0.565589 4.38467 0
M  V30 3584 N 342.919 -1.39368 0.735821 0
M  V30 3585 C 344.168 -1.99733 0.281004 0
M  V30 3586 C 344.481 -1.59055 -1.13846 0
M  V30 3587 O 345.687 -2.12262 -1.69284 0
M  V30 3588 C 344.143 -3.57057 0.451462 0
M  V30 3589 C 343.751 -4.06697 1.87886 0
M  V30 3590 C 345.495 -4.2446 0.0584616 0
M  V30 3591 C 343.402 -5.56598 1.99883 0
M  V30 3592 H 342.332 -0.747163 0.101311 0
M  V30 3593 H 344.983 -1.59357 0.909819 0
M  V30 3594 H 343.365 -3.95234 -0.246263 0
M  V30 3595 H 344.539 -3.79853 2.60861 0
M  V30 3596 H 342.854 -3.5196 2.22515 0
M  V30 3597 H 345.451 -5.34549 0.127099 0
M  V30 3598 H 345.794 -4.04444 -0.986433 0
M  V30 3599 H 346.327 -3.9146 0.707374 0
M  V30 3600 H 343.066 -5.81494 3.02564 0
M  V30 3601 H 342.586 -5.85242 1.31346 0
M  V30 3602 H 344.265 -6.22022 1.78039 0
M  V30 3603 N 344.397 -0.483516 -1.5 0
M  V30 3604 C 345.345 0.318061 -2.30415 0
M  V30 3605 C 346.339 0.978988 -1.38247 0
M  V30 3606 O 347.545 0.908673 -1.55381 0
M  V30 3607 H 343.92 0.121419 -0.742133 0
M  V30 3608 H 345.891 -0.380403 -2.95965 0
M  V30 3609 C 344.64 1.38013 -3.19136 0
M  V30 3610 H 343.963 0.880952 -3.89973 0
M  V30 3611 H 345.403 1.91332 -3.78375 0
M  V30 3612 C 343.862 2.38884 -2.37563 0
M  V30 3613 O 344.392 3.44412 -2.06744 0
M  V30 3614 N 342.598 2.10912 -1.99911 0
M  V30 3615 H 342.145 1.25118 -2.25174 0
M  V30 3616 H 342.103 2.78635 -1.45636 0
M  V30 3617 N 345.875 1.56104 -0.216619 0
M  V30 3618 C 346.805 2.23063 0.690296 0
M  V30 3619 C 347.786 1.20072 1.20485 0
M  V30 3620 O 348.971 1.48643 1.24976 0
M  V30 3621 C 346.101 2.90672 1.90072 0
M  V30 3622 C 345.055 4.00092 1.5202 0
M  V30 3623 C 344.381 4.54972 2.80899 0
M  V30 3624 C 345.681 5.17398 0.71391 0
M  V30 3625 H 347.375 2.99109 0.132038 0
M  V30 3626 H 344.921 1.43866 0.0620664 0
M  V30 3627 H 346.874 3.36204 2.54057 0
M  V30 3628 H 345.598 2.12066 2.48386 0
M  V30 3629 H 344.257 3.55283 0.903839 0
M  V30 3630 H 343.905 3.73102 3.37348 0
M  V30 3631 H 343.605 5.28817 2.56176 0
M  V30 3632 H 345.129 5.0322 3.45836 0
M  V30 3633 H 346.543 5.59342 1.25735 0
M  V30 3634 H 344.94 5.97444 0.563951 0
M  V30 3635 H 346.01 4.84088 -0.280527 0
M  V30 3636 N 347.353 -0.0568162 1.57498 0
M  V30 3637 C 348.283 -1.06593 2.0775 0
M  V30 3638 C 349.264 -1.39448 0.974082 0
M  V30 3639 O 350.449 -1.48815 1.24771 0
M  V30 3640 C 347.579 -2.37509 2.5339 0
M  V30 3641 C 346.533 -2.1897 3.67745 0
M  V30 3642 C 345.859 -3.55402 3.99492 0
M  V30 3643 C 347.159 -1.59859 4.97235 0
M  V30 3644 H 348.853 -0.647706 2.9231 0
M  V30 3645 H 346.399 -0.310116 1.40621 0
M  V30 3646 H 348.352 -3.08409 2.87162 0
M  V30 3647 H 347.076 -2.8134 1.65878 0
M  V30 3648 H 345.735 -1.50508 3.3428 0
M  V30 3649 H 345.383 -3.9683 3.09088 0
M  V30 3650 H 345.083 -3.43831 4.76502 0
M  V30 3651 H 346.607 -4.27708 4.35773 0
M  V30 3652 H 348.021 -2.20642 5.29141 0
M  V30 3653 H 346.418 -1.58942 5.78669 0
M  V30 3654 H 347.488 -0.561506 4.81638 0
M  V30 3655 N 348.832 -1.54138 -0.328536 0
M  V30 3656 C 349.765 -1.78014 -1.4278 0
M  V30 3657 C 350.743 -0.629889 -1.49904 0
M  V30 3658 O 351.927 -0.866763 -1.6739 0
M  V30 3659 C 349.054 -1.89225 -2.80912 0
M  V30 3660 C 348.1 -3.11483 -2.91343 0
M  V30 3661 S 348.933 -4.70201 -2.56263 0
M  V30 3662 C 350.089 -4.84312 -3.96476 0
M  V30 3663 H 350.322 -2.70974 -1.22313 0
M  V30 3664 H 347.855 -1.45197 -0.525084 0
M  V30 3665 H 349.813 -1.9637 -3.60485 0
M  V30 3666 H 348.474 -0.972518 -2.98665 0
M  V30 3667 H 347.667 -3.16046 -3.92595 0
M  V30 3668 H 347.269 -3.02642 -2.19736 0
M  V30 3669 H 349.561 -4.66643 -4.91173 0
M  V30 3670 H 350.504 -5.86411 -3.96898 0
M  V30 3671 H 350.912 -4.12652 -3.85199 0
M  V30 3672 N 350.31 0.590341 -1.46126 0
M  V30 3673 C 351.257 1.69994 -1.56111 0
M  V30 3674 C 352.227 1.61065 -0.405867 0
M  V30 3675 O 353.412 1.8039 -0.621613 0
M  V30 3676 C 350.552 3.08326 -1.55013 0
M  V30 3677 C 349.665 3.27936 -2.81215 0
M  V30 3678 C 348.8 4.56473 -2.71673 0
M  V30 3679 C 347.839 4.694 -3.92849 0
M  V30 3680 N 346.976 5.89254 -3.81738 0
M  V30 3681 H 351.816 1.60797 -2.50895 0
M  V30 3682 H 349.353 0.783799 -1.24479 0
M  V30 3683 H 351.311 3.88383 -1.52362 0
M  V30 3684 H 349.941 3.16439 -0.637667 0
M  V30 3685 H 348.993 2.41536 -2.93879 0
M  V30 3686 H 350.305 3.33357 -3.71045 0
M  V30 3687 H 349.459 5.44748 -2.67085 0
M  V30 3688 H 348.198 4.53477 -1.7947 0
M  V30 3689 H 347.203 3.79544 -3.97777 0
M  V30 3690 H 348.428 4.7418 -4.86138 0
M  V30 3691 H 346.374 5.87271 -2.92317 0
M  V30 3692 H 346.291 5.95911 -4.65217 0
M  V30 3693 H 347.559 6.79981 -3.81112 0
M  V30 3694 N 351.788 1.33704 0.83433 0
M  V30 3695 C 353.034 1.25603 1.59222 0
M  V30 3696 C 353.367 -0.176659 1.93395 0
M  V30 3697 O 352.642 -1.11915 1.59076 0
M  V30 3698 C 352.925 2.13576 2.89926 0
M  V30 3699 C 352.778 3.65326 2.62406 0
M  V30 3700 C 354.097 2.01238 3.91397 0
M  V30 3701 H 351.216 0.457613 0.577719 0
M  V30 3702 H 353.858 1.63848 0.961972 0
M  V30 3703 H 352.008 1.8109 3.43713 0
M  V30 3704 H 353.68 4.08124 2.15017 0
M  V30 3705 H 351.923 3.8698 1.96033 0
M  V30 3706 H 352.594 4.22232 3.55562 0
M  V30 3707 H 355.07 2.29738 3.46929 0
M  V30 3708 H 353.946 2.65036 4.80673 0
M  V30 3709 H 354.207 0.985951 4.30966 0
M  V30 3710 N 353.266 -1.05314 1.17247 0
M  V30 3711 C 354.515 -1.77685 0.954521 0
M  V30 3712 C 354.828 -1.88616 -0.518025 0
M  V30 3713 O 356.034 -2.57714 -0.854144 0
M  V30 3714 C 354.49 -3.19402 1.65863 0
M  V30 3715 C 354.098 -3.16605 3.16963 0
M  V30 3716 C 355.842 -3.96237 1.52303 0
M  V30 3717 C 353.749 -4.53103 3.80068 0
M  V30 3718 H 352.679 -0.666 0.353496 0
M  V30 3719 H 355.33 -1.1805 1.40486 0
M  V30 3720 H 353.712 -3.79355 1.13602 0
M  V30 3721 H 354.886 -2.66176 3.76148 0
M  V30 3722 H 353.201 -2.53268 3.30521 0
M  V30 3723 H 355.798 -4.97157 1.96822 0
M  V30 3724 H 356.141 -4.136 0.473401 0
M  V30 3725 H 356.674 -3.42829 2.01775 0
M  V30 3726 H 353.413 -4.40946 4.85023 0
M  V30 3727 H 352.933 -5.03686 3.2567 0
M  V30 3728 H 354.612 -5.22045 3.82202 0
M  V30 3729 N 354.744 -0.972509 -1.24016 0
M  V30 3730 C 355.707 -0.511403 -2.23422 0
M  V30 3731 C 356.707 0.394679 -1.55881 0
M  V30 3732 O 357.897 0.189469 -1.73167 0
M  V30 3733 C 355.029 0.258769 -3.39916 0
M  V30 3734 H 356.222 -1.39024 -2.6573 0
M  V30 3735 H 353.775 -0.757585 -1.36713 0
M  V30 3736 H 354.51 1.1545 -3.03054 0
M  V30 3737 H 354.295 -0.391522 -3.9014 0
M  V30 3738 H 355.785 0.570244 -4.13688 0
M  V30 3739 N 356.222 1.38976 -0.743202 0
M  V30 3740 C 357.633 1.83123 -0.363732 0
M  V30 3741 C 357.984 1.6205 1.10609 0
M  V30 3742 O 357.109 1.11606 1.854 0
M  V30 3743 C 357.704 3.32439 -0.653408 0
M  V30 3744 C 356.263 3.74974 -0.327338 0
M  V30 3745 C 355.41 2.61878 -0.911875 0
M  V30 3746 H 358.361 1.27852 -0.940191 0
M  V30 3747 H 358.382 3.80432 0.0720031 0
M  V30 3748 H 357.894 3.47745 -1.72323 0
M  V30 3749 H 355.995 3.65252 0.736314 0
M  V30 3750 H 356.108 4.72106 -0.815631 0
M  V30 3751 H 354.472 2.52448 -0.337944 0
M  V30 3752 H 355.255 2.79987 -1.98651 0
M  V30 3753 N 357.7 0.491464 1.49741 0
M  V30 3754 C 358.93 -0.0534375 2.06531 0
M  V30 3755 C 359.338 -1.32233 1.35318 0
M  V30 3756 O 358.681 -1.78781 0.422243 0
M  V30 3757 C 358.743 -0.387034 3.57411 0
M  V30 3758 C 358.407 0.782764 4.50246 0
M  V30 3759 C 359.404 1.67059 4.92329 0
M  V30 3760 C 357.089 0.978866 4.9267 0
M  V30 3761 C 359.083 2.73874 5.75562 0
M  V30 3762 C 356.77 2.05022 5.75682 0
M  V30 3763 C 357.768 2.92851 6.17031 0
M  V30 3764 O 357.456 3.98138 6.98385 0
M  V30 3765 H 357.188 0.0129324 0.675876 0
M  V30 3766 H 359.742 0.685238 1.93633 0
M  V30 3767 H 357.972 -1.17918 3.68283 0
M  V30 3768 H 359.661 -0.869419 3.96479 0
M  V30 3769 H 360.427 1.53086 4.60206 0
M  V30 3770 H 356.306 0.304646 4.59992 0
M  V30 3771 H 359.85 3.42458 6.07757 0
M  V30 3772 H 355.747 2.18993 6.07217 0
M  V30 3773 H 356.515 3.95374 7.16674 0
M  V30 3774 N 359.178 -1.55987 0.224894 0
M  V30 3775 C 360.589 -1.84553 -0.282345 0
M  V30 3776 C 360.94 -1.14634 -1.59227 0
M  V30 3777 O 360.065 -0.417155 -2.12341 0
M  V30 3778 C 360.66 -3.348 -0.519062 0
M  V30 3779 C 359.219 -3.63671 -0.970604 0
M  V30 3780 C 358.366 -2.77277 -0.0355261 0
M  V30 3781 H 361.317 -1.52245 0.448006 0
M  V30 3782 H 361.338 -3.55187 -1.36463 0
M  V30 3783 H 360.85 -3.8566 0.43449 0
M  V30 3784 H 358.951 -3.1827 -1.9374 0
M  V30 3785 H 359.064 -4.71631 -0.842698 0
M  V30 3786 H 357.428 -2.48846 -0.542927 0
M  V30 3787 H 358.211 -3.30937 0.913003 0
M  V30 3788 N 360.656 0.0484629 -1.57525 0
M  V30 3789 C 361.586 1.0549 -2.08313 0
M  V30 3790 C 362.567 1.38929 -0.981463 0
M  V30 3791 O 363.752 1.48151 -1.25558 0
M  V30 3792 C 360.882 2.36162 -2.54646 0
M  V30 3793 C 359.836 2.17016 -3.68901 0
M  V30 3794 C 359.162 3.53278 -4.01371 0
M  V30 3795 C 360.462 1.57219 -4.98076 0
M  V30 3796 H 362.156 0.632195 -2.92649 0
M  V30 3797 H 359.702 0.302654 -1.40784 0
M  V30 3798 H 361.655 3.06882 -2.88793 0
M  V30 3799 H 360.379 2.80456 -1.67368 0
M  V30 3800 H 359.038 1.48733 -3.35073 0
M  V30 3801 H 358.686 3.95185 -3.11188 0
M  V30 3802 H 358.386 3.41299 -4.78318 0
M  V30 3803 H 359.91 4.25391 -4.38035 0
M  V30 3804 H 361.324 2.17832 -5.30304 0
M  V30 3805 H 359.721 1.55871 -5.79503 0
M  V30 3806 H 360.791 0.535956 -4.81929 0
M  V30 3807 N 362.134 1.5431 0.320358 0
M  V30 3808 C 363.359 1.76954 1.08175 0
M  V30 3809 C 363.784 0.518193 1.80821 0
M  V30 3810 O 363.142 -0.530411 1.73368 0
M  V30 3811 C 363.19 2.96451 2.05303 0
M  V30 3812 O 362.294 2.68221 3.13259 0
M  V30 3813 H 361.635 0.586275 0.311733 0
M  V30 3814 H 364.165 2.01342 0.363676 0
M  V30 3815 H 364.175 3.23887 2.48116 0
M  V30 3816 H 362.85 3.87196 1.51829 0
M  V30 3817 H 361.427 2.51744 2.75099 0
M  V30 3818 N 363.613 -0.582584 1.46437 0
M  V30 3819 C 364.841 -1.36682 1.55324 0
M  V30 3820 C 365.256 -1.87796 0.194409 0
M  V30 3821 O 364.613 -1.63623 -0.808318 0
M  V30 3822 C 364.664 -2.55426 2.55812 0
M  V30 3823 O 364.385 -2.0643 3.86417 0
M  V30 3824 C 365.886 -3.47976 2.74641 0
M  V30 3825 H 363.106 -0.417545 0.525259 0
M  V30 3826 H 365.65 -0.708219 1.91845 0
M  V30 3827 H 363.805 -3.17275 2.22295 0
M  V30 3828 H 364.219 -2.83762 4.41111 0
M  V30 3829 H 365.693 -4.27775 3.48874 0
M  V30 3830 H 366.17 -3.99919 1.81553 0
M  V30 3831 H 366.776 -2.91962 3.09255 0
M  V30 3832 N 365.091 -1.34144 -0.827227 0
M  V30 3833 C 366.502 -1.23557 -1.39966 0
M  V30 3834 C 366.853 0.140731 -1.95695 0
M  V30 3835 O 365.978 1.04087 -1.89723 0
M  V30 3836 C 366.573 -2.23708 -2.54441 0
M  V30 3837 C 365.132 -2.16924 -3.07605 0
M  V30 3838 C 364.279 -2.10549 -1.80456 0
M  V30 3839 H 367.23 -1.45573 -0.631991 0
M  V30 3840 H 367.251 -1.85157 -3.32411 0
M  V30 3841 H 366.763 -3.23866 -2.13851 0
M  V30 3842 H 364.864 -1.20107 -3.52711 0
M  V30 3843 H 364.977 -3.07988 -3.66988 0
M  V30 3844 H 363.341 -1.56203 -2.01178 0
M  V30 3845 H 364.124 -3.12535 -1.42046 0
M  V30 3846 N 366.569 1.04691 -1.17803 0
M  V30 3847 C 367.815 1.78045 -0.970969 0
M  V30 3848 C 368.148 1.87686 0.498751 0
M  V30 3849 O 367.423 1.38035 1.37027 0
M  V30 3850 C 367.706 3.2166 -1.61884 0
M  V30 3851 C 367.559 3.20001 -3.161 0
M  V30 3852 C 368.878 4.1962 -1.3269 0
M  V30 3853 H 365.997 0.64633 -0.354155 0
M  V30 3854 H 368.639 1.22333 -1.45378 0
M  V30 3855 H 366.789 3.69232 -1.20831 0
M  V30 3856 H 368.461 2.80467 -3.66246 0
M  V30 3857 H 366.704 2.58203 -3.48588 0
M  V30 3858 H 367.375 4.21386 -3.56564 0
M  V30 3859 H 369.851 3.80567 -1.68249 0
M  V30 3860 H 368.727 5.18339 -1.80599 0
M  V30 3861 H 368.988 4.414 -0.248622 0
M  V30 3862 N 368.047 0.979072 1.23499 0
M  V30 3863 C 369.01 0.523244 2.23147 0
M  V30 3864 C 370.01 -0.386406 1.56088 0
M  V30 3865 O 371.2 -0.180283 1.73265 0
M  V30 3866 C 368.332 -0.240739 3.40049 0
M  V30 3867 H 369.525 1.40432 2.64989 0
M  V30 3868 H 367.078 0.764824 1.36309 0
M  V30 3869 H 367.813 -1.13841 3.03662 0
M  V30 3870 H 367.598 0.412207 3.89927 0
M  V30 3871 H 369.088 -0.548297 4.13985 0
M  V30 3872 N 369.525 -1.3858 0.750561 0
M  V30 3873 C 370.802 -1.94231 0.231009 0
M  V30 3874 C 371.182 -1.68611 -1.27018 0
M  V30 3875 O 370.53 -1.02296 -2.04323 0
M  V30 3876 C 370.74 -3.44123 0.581428 0
M  V30 3877 C 372.088 -4.2116 0.539389 0
M  V30 3878 O 373.112 -3.52391 0.519541 0
M  V30 3879 O 371.971 -5.43749 0.54765 0
M  V30 3880 H 369.065 -0.825639 0.0474263 0
M  V30 3881 H 371.611 -1.4799 0.830478 0
M  V30 3882 H 370.383 -3.56267 1.61833 0
M  V30 3883 H 370.006 -3.97573 -0.0462047 0
M  V30 3884 N 371.003 -0.499398 -1.49478 0
M  V30 3885 C 372.252 0.0475259 -2.01644 0
M  V30 3886 C 372.565 1.38195 -1.38425 0
M  V30 3887 O 373.771 2.01547 -1.8191 0
M  V30 3888 C 372.227 0.135164 -3.59646 0
M  V30 3889 C 371.835 -1.19252 -4.31837 0
M  V30 3890 C 373.579 0.632538 -4.19761 0
M  V30 3891 C 371.486 -1.06713 -5.81693 0
M  V30 3892 H 370.416 0.0215349 -0.753692 0
M  V30 3893 H 373.067 -0.638577 -1.7203 0
M  V30 3894 H 371.449 0.885681 -3.85969 0
M  V30 3895 H 372.623 -1.9562 -4.17216 0
M  V30 3896 H 370.938 -1.62321 -3.83459 0
M  V30 3897 H 373.535 0.743833 -5.29501 0
M  V30 3898 H 373.878 1.63098 -3.83021 0
M  V30 3899 H 374.411 -0.0613987 -3.97753 0
M  V30 3900 H 371.15 -2.03979 -6.22955 0
M  V30 3901 H 370.67 -0.344307 -5.98811 0
M  V30 3902 H 372.349 -0.745208 -6.42694 0
M  V30 3903 N 372.481 1.55866 -0.233164 0
M  V30 3904 C 373.444 2.1953 0.658715 0
M  V30 3905 C 374.444 1.16053 1.11303 0
M  V30 3906 O 375.634 1.41218 1.01996 0
M  V30 3907 C 372.766 2.82791 1.90373 0
M  V30 3908 H 373.959 2.99721 0.10347 0
M  V30 3909 H 371.512 1.56291 0.0164245 0
M  V30 3910 H 372.247 2.06501 2.50056 0
M  V30 3911 H 372.032 3.58578 1.58632 0
M  V30 3912 H 373.522 3.31556 2.53891 0
M  V30 3913 N 373.959 -0.0401083 1.57549 0
M  V30 3914 C 374.922 -1.02871 2.04817 0
M  V30 3915 C 375.922 -1.29708 0.950388 0
M  V30 3916 O 377.112 -1.24897 1.21435 0
M  V30 3917 C 374.244 -2.36443 2.45576 0
M  V30 3918 H 375.437 -0.620631 2.93408 0
M  V30 3919 H 372.99 -0.286667 1.53649 0
M  V30 3920 H 373.725 -2.82021 1.60108 0
M  V30 3921 H 373.51 -2.18296 3.25713 0
M  V30 3922 H 375 -3.07441 2.82612 0
M  V30 3923 N 375.437 -1.54477 -0.31217 0
M  V30 3924 C 376.369 -1.81011 -1.40598 0
M  V30 3925 C 377.382 -0.692546 -1.47335 0
M  V30 3926 O 378.571 -0.969847 -1.49854 0
M  V30 3927 C 375.671 -1.92307 -2.79054 0
M  V30 3928 C 374.844 -3.22594 -2.95384 0
M  V30 3929 C 373.903 -3.24448 -4.1427 0
M  V30 3930 O 372.929 -3.98035 -4.06887 0
M  V30 3931 N 374.131 -2.49042 -5.24365 0
M  V30 3932 H 376.896 -2.75408 -1.18196 0
M  V30 3933 H 374.457 -1.53914 -0.502202 0
M  V30 3934 H 376.449 -1.90962 -3.56813 0
M  V30 3935 H 375.019 -1.04955 -2.94454 0
M  V30 3936 H 374.239 -3.36806 -2.04831 0
M  V30 3937 H 375.527 -4.08593 -3.03198 0
M  V30 3938 H 374.925 -1.88867 -5.33241 0
M  V30 3939 H 373.482 -2.53463 -6.005 0
M  V30 3940 N 376.915 0.57481 -1.46744 0
M  V30 3941 C 377.878 1.66533 -1.57478 0
M  V30 3942 C 378.878 1.54338 -0.451263 0
M  V30 3943 O 380.068 1.58814 -0.715813 0
M  V30 3944 C 377.2 3.05999 -1.50259 0
M  V30 3945 H 378.393 1.58372 -2.54673 0
M  V30 3946 H 375.946 0.793301 -1.34672 0
M  V30 3947 H 376.681 3.19709 -0.543725 0
M  V30 3948 H 376.466 3.16259 -2.31781 0
M  V30 3949 H 377.956 3.8537 -1.60872 0
M  V30 3950 N 378.394 1.34581 0.820102 0
M  V30 3951 C 379.324 1.29038 1.94606 0
M  V30 3952 C 380.305 0.1673 1.69275 0
M  V30 3953 O 381.49 0.360112 1.90832 0
M  V30 3954 C 378.62 1.04793 3.31113 0
M  V30 3955 C 377.574 2.13597 3.70891 0
M  V30 3956 C 376.9 1.74537 5.05412 0
M  V30 3957 C 378.2 3.55451 3.8269 0
M  V30 3958 H 379.894 2.23248 1.99501 0
M  V30 3959 H 377.44 1.0747 0.958449 0
M  V30 3960 H 379.393 0.995592 4.0947 0
M  V30 3961 H 378.117 0.0702565 3.26524 0
M  V30 3962 H 376.776 2.17905 2.9481 0
M  V30 3963 H 376.424 0.754226 4.97313 0
M  V30 3964 H 376.124 2.47361 5.32997 0
M  V30 3965 H 377.648 1.70803 5.86224 0
M  V30 3966 H 379.062 3.5354 4.51312 0
M  V30 3967 H 377.459 4.26922 4.21732 0
M  V30 3968 H 378.529 3.92587 2.84611 0
M  V30 3969 N 379.872 -1.04064 1.18357 0
M  V30 3970 C 381.097 -1.81454 1.00445 0
M  V30 3971 C 381.522 -1.82823 -0.442423 0
M  V30 3972 O 380.88 -1.24555 -1.31741 0
M  V30 3973 C 380.928 -3.24925 1.56384 0
M  V30 3974 O 380.032 -4.04856 0.785209 0
M  V30 3975 H 379.373 -0.560604 0.355835 0
M  V30 3976 H 381.903 -1.31059 1.57114 0
M  V30 3977 H 381.913 -3.75702 1.59097 0
M  V30 3978 H 380.588 -3.23244 2.61699 0
M  V30 3979 H 379.165 -3.63537 0.830399 0
M  V30 3980 N 381.35 -0.985608 -1.22978 0
M  V30 3981 C 382.761 -0.693593 -1.73338 0
M  V30 3982 C 383.112 0.789935 -1.79595 0
M  V30 3983 O 382.237 1.61771 -1.43733 0
M  V30 3984 C 382.832 -1.25235 -3.14804 0
M  V30 3985 C 381.391 -1.00987 -3.626 0
M  V30 3986 C 380.538 -1.37695 -2.40698 0
M  V30 3987 H 383.489 -1.15884 -1.08428 0
M  V30 3988 H 383.51 -0.627329 -3.75293 0
M  V30 3989 H 383.022 -2.33209 -3.10218 0
M  V30 3990 H 381.123 0.0535565 -3.72562 0
M  V30 3991 H 381.236 -1.66812 -4.49122 0
M  V30 3992 H 379.6 -0.795459 -2.4196 0
M  V30 3993 H 380.383 -2.46657 -2.38779 0
M  V30 3994 N 382.828 1.3818 -0.7579 0
M  V30 3995 C 383.76 2.2901 -0.0932177 0
M  V30 3996 C 384.773 1.47958 0.679136 0
M  V30 3997 O 385.962 1.70773 0.519514 0
M  V30 3998 C 383.062 3.26953 0.89192 0
M  V30 3999 C 382.235 4.37045 0.176303 0
M  V30 4000 C 381.294 5.15148 1.07281 0
M  V30 4001 O 380.32 5.66616 0.541728 0
M  V30 4002 N 381.522 5.28542 2.40049 0
M  V30 4003 H 384.287 2.86694 -0.873303 0
M  V30 4004 H 381.848 1.50007 -0.609054 0
M  V30 4005 H 383.84 3.76083 1.49479 0
M  V30 4006 H 382.41 2.70136 1.57306 0
M  V30 4007 H 381.63 3.89493 -0.607328 0
M  V30 4008 H 382.918 5.07801 -0.318718 0
M  V30 4009 H 382.316 4.88285 2.85647 0
M  V30 4010 H 380.873 5.8103 2.95376 0
M  V30 4011 N 384.306 0.507319 1.49211 0
M  V30 4012 C 385.554 -0.0348839 2.0207 0
M  V30 4013 C 385.875 -1.36898 1.38866 0
M  V30 4014 O 385.145 -1.88133 0.546151 0
M  V30 4015 H 383.725 -0.0158812 0.746831 0
M  V30 4016 H 386.387 0.665998 1.83168 0
M  V30 4017 H 385.483 -0.159917 3.1169 0
M  V30 4018 N 385.784 -1.5574 0.241426 0
M  V30 4019 C 387.033 -1.97986 -0.385295 0
M  V30 4020 C 387.346 -1.13267 -1.59468 0
M  V30 4021 O 388.552 -1.45501 -2.2922 0
M  V30 4022 C 387.008 -3.52275 -0.736884 0
M  V30 4023 C 386.616 -4.45726 0.450796 0
M  V30 4024 C 388.36 -4.03189 -1.3281 0
M  V30 4025 C 386.267 -5.91352 0.0756662 0
M  V30 4026 H 385.197 -0.739386 -0.147731 0
M  V30 4027 H 387.848 -1.80308 0.340779 0
M  V30 4028 H 386.23 -3.65628 -1.52094 0
M  V30 4029 H 387.404 -4.44131 1.22819 0
M  V30 4030 H 385.719 -4.05264 0.956573 0
M  V30 4031 H 388.316 -5.09505 -1.62201 0
M  V30 4032 H 388.659 -3.50212 -2.25071 0
M  V30 4033 H 389.192 -3.93141 -0.607069 0
M  V30 4034 H 385.931 -6.48354 0.965272 0
M  V30 4035 H 385.451 -5.96095 -0.665635 0
M  V30 4036 H 387.13 -6.46084 -0.344075 0
M  V30 4037 N 387.262 0.0317525 -1.57568 0
M  V30 4038 C 388.508 0.724175 -1.8943 0
M  V30 4039 C 388.841 1.75149 -0.838836 0
M  V30 4040 O 388.116 1.93948 0.146422 0
M  V30 4041 C 388.399 1.39615 -3.31933 0
M  V30 4042 C 388.252 0.382537 -4.4817 0
M  V30 4043 C 389.571 2.33084 -3.73309 0
M  V30 4044 H 386.69 0.261797 -0.688935 0
M  V30 4045 H 389.332 -0.013017 -1.89996 0
M  V30 4046 H 387.482 2.02451 -3.31581 0
M  V30 4047 H 389.154 -0.243689 -4.60656 0
M  V30 4048 H 387.397 -0.29844 -4.32772 0
M  V30 4049 H 388.068 0.891145 -5.44759 0
M  V30 4050 H 390.544 1.80295 -3.7501 0
M  V30 4051 H 389.42 2.77084 -4.73831 0
M  V30 4052 H 389.681 3.19643 -3.05419 0
M  V30 4053 N 388.74 1.54641 0.303973 0
M  V30 4054 C 389.703 1.84646 1.35789 0
M  V30 4055 C 390.703 0.7192 1.4382 0
M  V30 4056 O 391.893 0.987491 1.43507 0
M  V30 4057 C 389.025 2.02407 2.74307 0
M  V30 4058 H 390.218 2.78829 1.10429 0
M  V30 4059 H 387.771 1.46658 0.540487 0
M  V30 4060 H 388.506 1.10502 3.04893 0
M  V30 4061 H 388.291 2.84453 2.69868 0
M  V30 4062 H 389.781 2.27002 3.50514 0
M  V30 4063 N 390.218 -0.567019 1.47046 0
M  V30 4064 C 391.151 -1.69016 1.53326 0
M  V30 4065 C 392.129 -1.57949 0.386126 0
M  V30 4066 O 393.313 -1.78945 0.592529 0
M  V30 4067 C 390.44 -3.07191 1.42658 0
M  V30 4068 C 389.486 -3.36733 2.6175 0
M  V30 4069 S 390.319 -3.27069 4.24012 0
M  V30 4070 C 391.475 -4.67755 4.1588 0
M  V30 4071 H 391.708 -1.63434 2.48348 0
M  V30 4072 H 389.241 -0.747048 1.35124 0
M  V30 4073 H 391.199 -3.86897 1.37191 0
M  V30 4074 H 389.86 -3.10249 0.490369 0
M  V30 4075 H 389.053 -4.37441 2.50323 0
M  V30 4076 H 388.655 -2.64627 2.64289 0
M  V30 4077 H 390.947 -5.58491 3.83529 0
M  V30 4078 H 391.89 -4.84239 5.16641 0
M  V30 4079 H 392.298 -4.45341 3.46889 0
M  V30 4080 N 391.696 -1.35014 -0.812953 0
M  V30 4081 C 393.112 -1.14914 -1.10757 0
M  V30 4082 C 393.312 0.0426818 -2.01455 0
M  V30 4083 O 392.368 0.715212 -2.42159 0
M  V30 4084 C 393.681 -2.44911 -1.74468 0
M  V30 4085 C 395.229 -2.5106 -1.86917 0
M  V30 4086 C 395.704 -3.81085 -2.54044 0
M  V30 4087 N 397.195 -3.82301 -2.61535 0
M  V30 4088 C 397.93 -4.79634 -3.14227 0
M  V30 4089 N 397.426 -5.87353 -3.67407 0
M  V30 4090 N 399.219 -4.67078 -3.12721 0
M  V30 4091 H 391.37 -2.1136 -0.20989 0
M  V30 4092 H 393.633 -0.935128 -0.155692 0
M  V30 4093 H 393.339 -3.32267 -1.15289 0
M  V30 4094 H 393.213 -2.58989 -2.74234 0
M  V30 4095 H 395.6 -1.64137 -2.45241 0
M  V30 4096 H 395.681 -2.40901 -0.860242 0
M  V30 4097 H 395.325 -4.68402 -1.96372 0
M  V30 4098 H 395.255 -3.88529 -3.55461 0
M  V30 4099 H 397.746 -3.04465 -2.23851 0
M  V30 4100 H 398.059 -6.57624 -4.05894 0
M  V30 4101 H 396.404 -5.91054 -3.65623 0
M  V30 4102 H 399.595 -3.82067 -2.70449 0
M  V30 4103 H 399.768 -5.43098 -3.53481 0
M  V30 4104 N 393.175 1.03435 -1.18907 0
M  V30 4105 C 394.085 2.15075 -0.937015 0
M  V30 4106 C 395.101 1.73706 0.101085 0
M  V30 4107 O 396.277 2.01232 -0.0822948 0
M  V30 4108 C 393.342 3.43458 -0.473057 0
M  V30 4109 C 392.403 3.99172 -1.57989 0
M  V30 4110 C 391.636 5.21427 -1.13797 0
M  V30 4111 O 391.859 5.704 0.000725941 0
M  V30 4112 O 390.793 5.69837 -1.9383 0
M  V30 4113 H 394.619 2.39198 -1.87131 0
M  V30 4114 H 392.204 1.13506 -0.971427 0
M  V30 4115 H 394.086 4.20811 -0.222702 0
M  V30 4116 H 392.761 3.20793 0.432869 0
M  V30 4117 H 391.668 3.23178 -1.88433 0
M  V30 4118 H 393.001 4.2619 -2.46217 0
M  V30 4119 N 394.653 0.992116 1.22453 0
M  V30 4120 C 396.069 0.702713 1.43297 0
M  V30 4121 C 396.269 -0.726909 1.87932 0
M  V30 4122 O 395.325 -1.49792 2.0327 0
M  V30 4123 C 396.638 1.70762 2.47509 0
M  V30 4124 C 398.186 1.72298 2.61309 0
M  V30 4125 C 398.661 2.71649 3.68742 0
M  V30 4126 N 400.152 2.70239 3.76199 0
M  V30 4127 C 400.887 3.43778 4.58917 0
M  V30 4128 N 400.383 4.26914 5.45633 0
M  V30 4129 N 402.176 3.32487 4.5322 0
M  V30 4130 H 394.327 1.91543 0.917871 0
M  V30 4131 H 396.59 0.826031 0.465162 0
M  V30 4132 H 396.296 2.73059 2.21657 0
M  V30 4133 H 396.17 1.49985 3.46099 0
M  V30 4134 H 398.557 0.706989 2.86506 0
M  V30 4135 H 398.638 1.97143 1.62997 0
M  V30 4136 H 398.282 3.73397 3.44292 0
M  V30 4137 H 398.212 2.44074 4.66622 0
M  V30 4138 H 400.703 2.09912 3.14237 0
M  V30 4139 H 401.016 4.79855 6.05771 0
M  V30 4140 H 399.361 4.31002 5.45218 0
M  V30 4141 H 402.552 2.6698 3.84499 0
M  V30 4142 H 402.725 3.90058 5.17454 0
M  V30 4143 N 396.131 -1.37776 0.765217 0
M  V30 4144 C 397.377 -2.00145 0.327072 0
M  V30 4145 C 397.71 -1.60607 -1.09175 0
M  V30 4146 O 396.985 -0.849127 -1.74986 0
M  V30 4147 C 397.268 -3.57109 0.46319 0
M  V30 4148 C 397.121 -4.06576 1.92395 0
M  V30 4149 C 398.44 -4.39888 -0.136473 0
M  V30 4150 H 395.559 -0.727113 0.120316 0
M  V30 4151 H 398.201 -1.63549 0.967039 0
M  V30 4152 H 396.351 -3.88414 -0.0816358 0
M  V30 4153 H 398.023 -3.85864 2.52798 0
M  V30 4154 H 396.266 -3.59011 2.43503 0
M  V30 4155 H 396.937 -5.15639 1.97028 0
M  V30 4156 H 399.413 -4.14803 0.328317 0
M  V30 4157 H 398.289 -5.48899 -0.0110582 0
M  V30 4158 H 398.55 -4.24758 -1.22608 0
M  V30 4159 N 397.609 -0.515225 -1.4894 0
M  V30 4160 C 398.572 0.244681 -2.2789 0
M  V30 4161 C 399.572 0.881166 -1.34507 0
M  V30 4162 O 400.762 0.743497 -1.57537 0
M  V30 4163 C 397.894 1.35247 -3.12923 0
M  V30 4164 H 399.087 -0.448289 -2.96531 0
M  V30 4165 H 396.64 -0.270656 -1.53939 0
M  V30 4166 H 397.375 2.07916 -2.48881 0
M  V30 4167 H 397.16 0.901374 -3.81599 0
M  V30 4168 H 398.65 1.88737 -3.72516 0
M  V30 4169 N 399.087 1.5561 -0.249682 0
M  V30 4170 C 400.019 2.18834 0.681496 0
M  V30 4171 C 401.032 1.16546 1.1367 0
M  V30 4172 O 402.221 1.43397 1.06299 0
M  V30 4173 C 399.321 2.77992 1.9384 0
M  V30 4174 C 398.494 4.05725 1.63419 0
M  V30 4175 C 397.553 4.49174 2.74096 0
M  V30 4176 O 396.579 5.15492 2.41364 0
M  V30 4177 N 397.781 4.17191 4.03649 0
M  V30 4178 H 400.546 2.9937 0.140514 0
M  V30 4179 H 398.107 1.6175 -0.0697541 0
M  V30 4180 H 400.099 3.04015 2.67127 0
M  V30 4181 H 398.669 2.01596 2.38909 0
M  V30 4182 H 397.889 3.87261 0.736358 0
M  V30 4183 H 399.177 4.88999 1.40562 0
M  V30 4184 H 398.575 3.63955 4.33074 0
M  V30 4185 H 397.132 4.48043 4.73393 0
M  V30 4186 N 400.565 -0.0233959 1.57583 0
M  V30 4187 C 401.814 -0.712133 1.8871 0
M  V30 4188 C 402.127 -1.76217 0.848944 0
M  V30 4189 O 403.333 -2.50389 1.04964 0
M  V30 4190 C 401.789 -1.3177 3.3491 0
M  V30 4191 C 401.397 -0.303715 4.46969 0
M  V30 4192 C 403.141 -1.98598 3.75179 0
M  V30 4193 C 401.048 -0.917945 5.84233 0
M  V30 4194 H 399.978 -0.269735 0.704101 0
M  V30 4195 H 402.629 0.0333114 1.8347 0
M  V30 4196 H 401.011 -2.11304 3.34913 0
M  V30 4197 H 402.185 0.465325 4.58445 0
M  V30 4198 H 400.5 0.2628 4.1557 0
M  V30 4199 H 403.097 -2.45416 4.75053 0
M  V30 4200 H 403.44 -2.80659 3.07468 0
M  V30 4201 H 403.973 -1.25831 3.77374 0
M  V30 4202 H 400.712 -0.136633 6.55358 0
M  V30 4203 H 400.232 -1.65669 5.76467 0
M  V30 4204 H 401.911 -1.4236 6.31144 0
M  V30 4205 N 402.043 -1.548 -0.295768 0
M  V30 4206 C 403.292 -1.73538 -1.02798 0
M  V30 4207 C 403.605 -0.531159 -1.8825 0
M  V30 4208 O 404.811 -0.600458 -2.64777 0
M  V30 4209 C 403.267 -3.07051 -1.87744 0
M  V30 4210 C 402.875 -4.34968 -1.07269 0
M  V30 4211 C 404.619 -3.35146 -2.60533 0
M  V30 4212 C 402.526 -5.5953 -1.91521 0
M  V30 4213 H 401.456 -0.646794 -0.387522 0
M  V30 4214 H 404.107 -1.81278 -0.284718 0
M  V30 4215 H 402.489 -2.93289 -2.66078 0
M  V30 4216 H 403.663 -4.5958 -0.335117 0
M  V30 4217 H 401.978 -4.13847 -0.460384 0
M  V30 4218 H 404.575 -4.2541 -3.23929 0
M  V30 4219 H 404.918 -2.54255 -3.29636 0
M  V30 4220 H 405.451 -3.49902 -1.89244 0
M  V30 4221 H 402.19 -6.43103 -1.26878 0
M  V30 4222 H 401.71 -5.39096 -2.62937 0
M  V30 4223 H 403.389 -5.96982 -2.49442 0
M  V30 4224 N 403.521 0.559213 -1.47345 0
M  V30 4225 C 404.484 1.64854 -1.59235 0
M  V30 4226 C 405.484 1.53851 -0.467607 0
M  V30 4227 O 406.674 1.58045 -0.732617 0
M  V30 4228 C 403.806 3.04388 -1.53496 0
M  V30 4229 H 404.999 1.55662 -2.56339 0
M  V30 4230 H 402.552 0.778973 -1.35505 0
M  V30 4231 H 403.287 3.19115 -0.577604 0
M  V30 4232 H 403.072 3.13783 -2.35123 0
M  V30 4233 H 404.562 3.83642 -1.6495 0
M  V30 4234 N 404.999 1.35443 0.805782 0
M  V30 4235 C 405.909 1.30546 1.94923 0
M  V30 4236 C 406.925 0.210233 1.72725 0
M  V30 4237 O 408.101 0.43975 1.9654 0
M  V30 4238 C 405.166 1.07782 3.29521 0
M  V30 4239 C 404.227 2.26625 3.64609 0
M  V30 4240 C 403.46 2.04938 4.92784 0
M  V30 4241 O 403.683 1.01624 5.61274 0
M  V30 4242 O 402.617 2.9232 5.26149 0
M  V30 4243 H 406.443 2.26779 2.02002 0
M  V30 4244 H 404.028 1.15823 0.943682 0
M  V30 4245 H 405.91 0.969392 4.10098 0
M  V30 4246 H 404.585 0.146003 3.23371 0
M  V30 4247 H 403.492 2.43033 2.84404 0
M  V30 4248 H 404.825 3.18257 3.75464 0
M  V30 4249 N 406.477 -1.02803 1.19454 0
M  V30 4250 C 407.893 -1.28473 0.946937 0
M  V30 4251 C 408.093 -1.97881 -0.380202 0
M  V30 4252 O 407.149 -2.26719 -1.11151 0
M  V30 4253 C 408.462 -2.13099 2.12154 0
M  V30 4254 C 410.01 -2.26404 2.16126 0
M  V30 4255 C 410.485 -3.14402 3.33039 0
M  V30 4256 N 411.976 -3.21991 3.32981 0
M  V30 4257 C 412.711 -3.90272 4.20089 0
M  V30 4258 N 412.207 -4.60777 5.17355 0
M  V30 4259 N 414 -3.8668 4.07964 0
M  V30 4260 H 406.151 -0.561665 2.04839 0
M  V30 4261 H 408.414 -0.310438 0.89573 0
M  V30 4262 H 408.12 -1.69422 3.08203 0
M  V30 4263 H 407.994 -3.13813 2.09287 0
M  V30 4264 H 410.381 -2.69311 1.20647 0
M  V30 4265 H 410.462 -1.25237 2.23045 0
M  V30 4266 H 410.106 -2.72204 4.28798 0
M  V30 4267 H 410.036 -4.1563 3.23356 0
M  V30 4268 H 412.527 -2.71778 2.62574 0
M  V30 4269 H 412.84 -5.10513 5.80169 0
M  V30 4270 H 411.185 -4.5964 5.21302 0
M  V30 4271 H 414.376 -3.30739 3.31254 0
M  V30 4272 H 414.549 -4.39621 4.76064 0
M  V30 4273 N 407.956 -0.998596 -1.21925 0
M  V30 4274 C 408.866 -0.562736 -2.27751 0
M  V30 4275 C 409.882 0.391203 -1.69545 0
M  V30 4276 O 411.058 0.256625 -1.99758 0
M  V30 4277 C 408.123 0.11012 -3.46525 0
M  V30 4278 C 407.184 -0.887495 -4.20026 0
M  V30 4279 C 406.417 -0.246654 -5.3313 0
M  V30 4280 O 406.64 0.958088 -5.62296 0
M  V30 4281 O 405.574 -0.954374 -5.94286 0
M  V30 4282 H 409.4 -1.44329 -2.67213 0
M  V30 4283 H 406.985 -0.767135 -1.28201 0
M  V30 4284 H 408.867 0.486756 -4.18579 0
M  V30 4285 H 407.542 0.965154 -3.08976 0
M  V30 4286 H 406.449 -1.31517 -3.5022 0
M  V30 4287 H 407.782 -1.71191 -4.6147 0
M  V30 4288 N 409.434 1.37368 -0.772513 0
M  V30 4289 C 410.664 2.03647 -0.348082 0
M  V30 4290 C 411.072 1.58392 1.03482 0
M  V30 4291 O 410.415 0.760921 1.672 0
M  V30 4292 C 410.477 3.58131 -0.313404 0
M  V30 4293 C 410.141 4.2652 -1.64102 0
M  V30 4294 C 411.138 4.50587 -2.5936 0
M  V30 4295 C 408.823 4.64335 -1.91567 0
M  V30 4296 C 410.817 5.11526 -3.80289 0
M  V30 4297 C 408.504 5.24996 -3.12766 0
M  V30 4298 C 409.502 5.48529 -4.06946 0
M  V30 4299 O 409.19 6.07921 -5.26011 0
M  V30 4300 H 408.922 0.660538 -0.143753 0
M  V30 4301 H 411.476 1.76669 -1.04772 0
M  V30 4302 H 409.706 3.84159 0.442617 0
M  V30 4303 H 411.395 4.05813 0.0840613 0
M  V30 4304 H 412.161 4.21784 -2.39423 0
M  V30 4305 H 408.04 4.45353 -1.19088 0
M  V30 4306 H 411.584 5.29811 -4.53813 0
M  V30 4307 H 407.481 5.53223 -3.32588 0
M  V30 4308 H 408.249 6.26398 -5.26847 0
M  V30 4309 N 410.912 0.523116 1.48665 0
M  V30 4310 C 411.842 -0.23231 2.32342 0
M  V30 4311 C 412.823 -0.941637 1.41659 0
M  V30 4312 O 414.008 -0.928751 1.70552 0
M  V30 4313 C 411.138 -1.28387 3.22698 0
M  V30 4314 C 410.092 -0.693098 4.22351 0
M  V30 4315 C 409.418 -1.8468 5.01794 0
M  V30 4316 C 410.718 0.33063 5.21252 0
M  V30 4317 H 412.412 0.466192 2.95748 0
M  V30 4318 H 409.958 0.225643 1.42221 0
M  V30 4319 H 411.911 -1.82024 3.80059 0
M  V30 4320 H 410.635 -2.01186 2.57278 0
M  V30 4321 H 409.294 -0.178299 3.66166 0
M  V30 4322 H 408.942 -2.56301 4.32804 0
M  V30 4323 H 408.642 -1.45747 5.69238 0
M  V30 4324 H 410.166 -2.38709 5.62006 0
M  V30 4325 H 411.58 -0.118407 5.73178 0
M  V30 4326 H 409.977 0.636974 5.9671 0
M  V30 4327 H 411.047 1.23883 4.68808 0
M  V30 4328 N 412.39 -1.55475 0.257931 0
M  V30 4329 C 413.639 -1.98383 -0.364275 0
M  V30 4330 C 413.952 -1.14952 -1.58258 0
M  V30 4331 O 415.158 -1.47924 -2.27664 0
M  V30 4332 C 413.614 -3.53037 -0.699479 0
M  V30 4333 C 413.222 -4.45223 0.498046 0
M  V30 4334 C 414.966 -4.04575 -1.28526 0
M  V30 4335 C 412.873 -5.91238 0.138383 0
M  V30 4336 H 411.803 -0.740911 -0.13988 0
M  V30 4337 H 414.454 -1.79936 0.359883 0
M  V30 4338 H 412.836 -3.6722 -1.48207 0
M  V30 4339 H 414.01 -4.42803 1.27522 0
M  V30 4340 H 412.325 -4.04226 0.999503 0
M  V30 4341 H 414.922 -5.11196 -1.56788 0
M  V30 4342 H 415.265 -3.5258 -2.21344 0
M  V30 4343 H 415.798 -3.93762 -0.565337 0
M  V30 4344 H 412.537 -6.47294 1.03398 0
M  V30 4345 H 412.057 -5.96768 -0.602374 0
M  V30 4346 H 413.736 -6.46413 -0.27553 0
M  V30 4347 N 413.868 0.0150385 -1.57593 0
M  V30 4348 C 414.831 0.995996 -2.06428 0
M  V30 4349 C 415.831 1.2818 -0.970903 0
M  V30 4350 O 417.021 1.22949 -1.23406 0
M  V30 4351 C 414.153 2.32506 -2.49307 0
M  V30 4352 H 415.346 0.573873 -2.94358 0
M  V30 4353 H 412.899 0.262186 -1.54085 0
M  V30 4354 H 413.634 2.79438 -1.64575 0
M  V30 4355 H 413.419 2.13087 -3.29145 0
M  V30 4356 H 414.909 3.02906 -2.87468 0
M  V30 4357 N 415.346 1.54954 0.287554 0
M  V30 4358 C 416.309 1.86076 1.33823 0
M  V30 4359 C 417.309 0.734414 1.43049 0
M  V30 4360 O 418.499 1.00266 1.42452 0
M  V30 4361 C 415.631 2.05305 2.72144 0
M  V30 4362 H 416.824 2.79984 1.07465 0
M  V30 4363 H 414.377 1.47223 0.524902 0
M  V30 4364 H 415.112 1.1373 3.03704 0
M  V30 4365 H 414.897 2.873 2.66836 0
M  V30 4366 H 416.387 2.30706 3.48087 0
M  V30 4367 N 416.824 -0.551391 1.4764 0
M  V30 4368 C 417.754 -1.66757 1.63445 0
M  V30 4369 C 418.735 -1.63077 0.483742 0
M  V30 4370 O 419.92 -1.80607 0.71377 0
M  V30 4371 C 417.05 -3.05387 1.65396 0
M  V30 4372 C 416.004 -3.23918 2.79752 0
M  V30 4373 C 415.33 -4.63393 2.66779 0
M  V30 4374 C 416.63 -3.08735 4.21284 0
M  V30 4375 H 418.324 -1.53786 2.56886 0
M  V30 4376 H 415.87 -0.738415 1.23626 0
M  V30 4377 H 417.823 -3.83325 1.75043 0
M  V30 4378 H 416.547 -3.19332 0.685195 0
M  V30 4379 H 415.206 -2.48391 2.69625 0
M  V30 4380 H 414.854 -4.74144 1.67918 0
M  V30 4381 H 414.554 -4.7674 3.43501 0
M  V30 4382 H 416.078 -5.43458 2.78364 0
M  V30 4383 H 417.492 -3.76484 4.32357 0
M  V30 4384 H 415.889 -3.33588 4.98838 0
M  V30 4385 H 416.959 -2.0541 4.39243 0
M  V30 4386 N 418.302 -1.35869 -0.798587 0
M  V30 4387 C 419.249 -1.29446 -1.91082 0
M  V30 4388 C 420.219 -0.16487 -1.6528 0
M  V30 4389 O 421.404 -0.349888 -1.87564 0
M  V30 4390 C 418.544 -1.0804 -3.27752 0
M  V30 4391 C 417.657 -2.29993 -3.65687 0
M  V30 4392 C 416.792 -2.01673 -4.91428 0
M  V30 4393 C 415.831 -3.19636 -5.22015 0
M  V30 4394 N 414.968 -2.91039 -6.38937 0
M  V30 4395 H 419.808 -2.24553 -1.95907 0
M  V30 4396 H 417.345 -1.11615 -0.958148 0
M  V30 4397 H 419.303 -0.936586 -4.06551 0
M  V30 4398 H 417.933 -0.16592 -3.22373 0
M  V30 4399 H 416.985 -2.55211 -2.82085 0
M  V30 4400 H 418.297 -3.18052 -3.84245 0
M  V30 4401 H 417.451 -1.84168 -5.78072 0
M  V30 4402 H 416.19 -1.10911 -4.74921 0
M  V30 4403 H 415.195 -3.37709 -4.33858 0
M  V30 4404 H 416.42 -4.11211 -5.40447 0
M  V30 4405 H 414.366 -2.0288 -6.2384 0
M  V30 4406 H 414.283 -3.72635 -6.57784 0
M  V30 4407 H 415.551 -2.77093 -7.28587 0
M  V30 4408 N 419.78 1.02168 -1.19998 0
M  V30 4409 C 420.69 2.14069 -0.959774 0
M  V30 4410 C 421.706 1.73804 0.082655 0
M  V30 4411 O 422.882 2.01133 -0.103633 0
M  V30 4412 C 419.947 3.42936 -0.509459 0
M  V30 4413 C 419.008 3.97474 -1.62213 0
M  V30 4414 C 418.241 5.2019 -1.19321 0
M  V30 4415 O 418.464 5.70369 -0.0597726 0
M  V30 4416 O 417.398 5.67749 -1.99863 0
M  V30 4417 H 421.224 2.37199 -1.89658 0
M  V30 4418 H 418.809 1.12469 -0.983411 0
M  V30 4419 H 420.691 4.20551 -0.267322 0
M  V30 4420 H 419.366 3.21234 0.398821 0
M  V30 4421 H 418.273 3.21161 -1.9185 0
M  V30 4422 H 419.606 4.23555 -2.50723 0
M  V30 4423 N 421.258 1.00505 1.21394 0
M  V30 4424 C 422.507 0.683159 1.89778 0
M  V30 4425 C 422.82 -0.789471 1.7896 0
M  V30 4426 O 424.026 -1.22344 2.42372 0
M  V30 4427 C 422.482 1.17146 3.40301 0
M  V30 4428 C 422.09 2.67017 3.5973 0
M  V30 4429 C 423.834 0.924461 4.14311 0
M  V30 4430 C 421.741 3.09387 5.04017 0
M  V30 4431 H 420.671 0.25183 0.710702 0
M  V30 4432 H 423.322 1.21622 1.37406 0
M  V30 4433 H 421.704 0.566451 3.91928 0
M  V30 4434 H 422.878 3.32968 3.18542 0
M  V30 4435 H 421.193 2.89732 2.99073 0
M  V30 4436 H 423.79 1.21658 5.20676 0
M  V30 4437 H 424.133 -0.139286 4.16067 0
M  V30 4438 H 424.666 1.49226 3.6875 0
M  V30 4439 H 421.405 4.14989 5.07409 0
M  V30 4440 H 420.925 2.48149 5.46061 0
M  V30 4441 H 422.604 3.01371 5.72525 0
M  V30 4442 N 422.737 -1.36956 0.779787 0
M  V30 4443 C 424.148 -1.82094 0.412156 0
M  V30 4444 C 424.499 -1.64926 -1.06273 0
M  V30 4445 O 423.624 -1.16483 -1.82375 0
M  V30 4446 C 424.219 -3.3059 0.741319 0
M  V30 4447 C 422.778 -3.73974 0.426641 0
M  V30 4448 C 421.925 -2.59368 0.980987 0
M  V30 4449 H 424.876 -1.25314 0.973758 0
M  V30 4450 H 424.897 -3.80489 0.028887 0
M  V30 4451 H 424.409 -3.43054 1.81482 0
M  V30 4452 H 422.51 -3.67076 -0.639215 0
M  V30 4453 H 422.623 -4.69778 0.940515 0
M  V30 4454 H 420.987 -2.51463 0.404757 0
M  V30 4455 H 421.77 -2.74621 2.06005 0
M  V30 4456 N 424.215 -0.530993 -1.48385 0
M  V30 4457 C 425.455 0.000718982 -2.044 0
M  V30 4458 C 425.819 1.31485 -1.39913 0
M  V30 4459 O 427.02 1.93265 -1.86821 0
M  V30 4460 C 425.291 0.119177 -3.57201 0
M  V30 4461 S 426.85 0.600806 -4.34667 0
M  V30 4462 H 423.668 -0.0125473 -0.710889 0
M  V30 4463 H 426.27 -0.711783 -1.82082 0
M  V30 4464 H 424.974 -0.842061 -4.01668 0
M  V30 4465 H 424.505 0.856026 -3.83974 0
M  V30 4466 H 426.52 1.86514 -4.59812 0
M  V30 4467 N 425.693 1.55336 -0.266172 0
M  V30 4468 C 426.939 1.99692 0.353681 0
M  V30 4469 C 427.272 1.1543 1.56172 0
M  V30 4470 O 426.547 0.222218 1.93226 0
M  V30 4471 C 426.83 3.52316 0.74466 0
M  V30 4472 C 426.683 4.47337 -0.470101 0
M  V30 4473 C 428.002 4.10588 1.58447 0
M  V30 4474 H 425.121 0.725961 0.12708 0
M  V30 4475 H 427.763 1.86336 -0.371333 0
M  V30 4476 H 425.913 3.63829 1.36239 0
M  V30 4477 H 427.585 4.4778 -1.10864 0
M  V30 4478 H 425.828 4.19364 -1.10978 0
M  V30 4479 H 426.499 5.51788 -0.15291 0
M  V30 4480 H 428.975 4.02297 1.06286 0
M  V30 4481 H 427.851 5.17607 1.82686 0
M  V30 4482 H 428.112 3.60253 2.56262 0
M  V30 4483 N 427.171 -0.0066808 1.57599 0
M  V30 4484 C 428.081 -1.01671 2.11424 0
M  V30 4485 C 429.097 -1.38143 1.05795 0
M  V30 4486 O 430.273 -1.47011 1.37658 0
M  V30 4487 C 427.338 -2.29192 2.60139 0
M  V30 4488 C 426.399 -1.99094 3.80342 0
M  V30 4489 C 425.632 -3.20535 4.26724 0
M  V30 4490 O 425.855 -4.3199 3.72479 0
M  V30 4491 O 424.789 -3.04924 5.18946 0
M  V30 4492 H 428.615 -0.589181 2.9793 0
M  V30 4493 H 426.2 -0.225091 1.47695 0
M  V30 4494 H 428.082 -3.0412 2.917 0
M  V30 4495 H 426.757 -2.71195 1.76733 0
M  V30 4496 H 425.664 -1.21663 3.53764 0
M  V30 4497 H 426.997 -1.61931 4.648 0
M  V30 4498 N 428.649 -1.55105 -0.279332 0
M  V30 4499 C 429.581 -1.83952 -1.36727 0
M  V30 4500 C 430.594 -0.723642 -1.45833 0
M  V30 4501 O 431.783 -1.00141 -1.47763 0
M  V30 4502 C 428.883 -1.98183 -2.74912 0
M  V30 4503 C 428.056 -3.28787 -2.88475 0
M  V30 4504 C 427.115 -3.33162 -4.07295 0
M  V30 4505 O 426.141 -4.06576 -3.98353 0
M  V30 4506 N 427.343 -2.60109 -5.18964 0
M  V30 4507 H 430.108 -2.77853 -1.12328 0
M  V30 4508 H 427.669 -1.54945 -0.469442 0
M  V30 4509 H 429.661 -1.98488 -3.52682 0
M  V30 4510 H 428.231 -1.11177 -2.92162 0
M  V30 4511 H 427.451 -3.41075 -1.97641 0
M  V30 4512 H 428.739 -4.14933 -2.94463 0
M  V30 4513 H 428.137 -2.00136 -5.29115 0
M  V30 4514 H 426.694 -2.66143 -5.94988 0
M  V30 4515 N 430.127 0.543554 -1.4793 0
M  V30 4516 C 431.373 1.30201 -1.55485 0
M  V30 4517 C 431.706 1.92925 -0.222201 0
M  V30 4518 O 430.981 1.78586 0.77053 0
M  V30 4519 C 431.264 2.40174 -2.68307 0
M  V30 4520 C 431.117 1.8223 -4.11233 0
M  V30 4521 C 432.436 3.42024 -2.76961 0
M  V30 4522 H 429.555 0.472036 -0.565996 0
M  V30 4523 H 432.197 0.606914 -1.80046 0
M  V30 4524 H 430.347 2.99463 -2.47495 0
M  V30 4525 H 432.019 1.27096 -4.43446 0
M  V30 4526 H 430.262 1.12832 -4.18869 0
M  V30 4527 H 430.933 2.61793 -4.85972 0
M  V30 4528 H 433.409 2.92672 -2.95774 0
M  V30 4529 H 432.285 4.16383 -3.57654 0
M  V30 4530 H 432.546 4.0173 -1.84568 0
M  V30 4531 N 431.605 1.3629 0.791371 0
M  V30 4532 C 432.852 1.30412 1.54916 0
M  V30 4533 C 433.18 -0.117162 1.94147 0
M  V30 4534 O 432.435 -1.08599 1.62803 0
M  V30 4535 C 432.734 2.17068 2.8393 0
M  V30 4536 C 432.4 3.65645 2.63846 0
M  V30 4537 C 431.062 4.0614 2.58077 0
M  V30 4538 C 433.414 4.59855 2.45322 0
M  V30 4539 C 430.742 5.3899 2.31748 0
M  V30 4540 C 433.094 5.9292 2.2052 0
M  V30 4541 C 431.758 6.32542 2.13183 0
M  V30 4542 H 431.028 0.47721 0.566879 0
M  V30 4543 H 433.675 1.68325 0.913172 0
M  V30 4544 H 431.98 1.72085 3.51986 0
M  V30 4545 H 433.677 2.09846 3.4171 0
M  V30 4546 H 430.267 3.33518 2.69191 0
M  V30 4547 H 434.451 4.29443 2.48782 0
M  V30 4548 H 429.707 5.68672 2.24548 0
M  V30 4549 H 433.881 6.65487 2.05182 0
M  V30 4550 H 431.508 7.35412 1.92544 0
M  V30 4551 N 433.083 -1.0153 1.20538 0
M  V30 4552 C 434.36 -1.72327 0.925343 0
M  V30 4553 C 434.74 -2.03383 -0.565547 0
M  V30 4554 O 434.088 -1.69934 -1.52757 0
M  V30 4555 C 434.298 -2.9902 1.79967 0
M  V30 4556 C 435.646 -3.72258 2.04228 0
M  V30 4557 O 436.67 -3.08979 1.77231 0
M  V30 4558 O 435.529 -4.86053 2.4983 0
M  V30 4559 H 432.623 -0.751099 0.346092 0
M  V30 4560 H 435.169 -1.07366 1.31417 0
M  V30 4561 H 433.941 -2.72402 2.80915 0
M  V30 4562 H 433.564 -3.71721 1.41099 0
M  V30 4563 N 434.561 -1.01147 -1.20859 0
M  V30 4564 C 435.786 -0.716698 -1.94623 0
M  V30 4565 C 436.211 0.715415 -1.73964 0
M  V30 4566 O 435.569 1.49157 -1.03062 0
M  V30 4567 C 435.617 -1.0513 -3.44935 0
M  V30 4568 O 434.721 -0.160131 -4.12089 0
M  V30 4569 H 434.062 -0.266404 -0.608214 0
M  V30 4570 H 436.592 -1.35346 -1.53436 0
M  V30 4571 H 436.602 -1.00086 -3.95533 0
M  V30 4572 H 435.277 -2.09475 -3.59295 0
M  V30 4573 H 433.854 -0.267657 -3.71938 0
M  V30 4574 N 436.039 1.36541 -0.78704 0
M  V30 4575 C 436.949 2.3387 -0.184896 0
M  V30 4576 C 437.965 1.60927 0.661697 0
M  V30 4577 O 439.141 1.92927 0.57804 0
M  V30 4578 C 436.206 3.40122 0.672145 0
M  V30 4579 C 435.267 4.28867 -0.19267 0
M  V30 4580 C 434.5 5.30045 0.623561 0
M  V30 4581 O 434.723 5.39232 1.8597 0
M  V30 4582 O 433.657 6.01895 0.0247068 0
M  V30 4583 H 437.483 2.87126 -0.989562 0
M  V30 4584 H 435.068 1.38969 -0.548455 0
M  V30 4585 H 436.95 4.05093 1.16094 0
M  V30 4586 H 435.625 2.89169 1.45474 0
M  V30 4587 H 434.532 3.66945 -0.728166 0
M  V30 4588 H 435.865 4.83165 -0.938722 0
M  V30 4589 N 437.518 0.538854 1.48102 0
M  V30 4590 C 438.746 0.0123136 2.06896 0
M  V30 4591 C 439.161 -1.27312 1.39417 0
M  V30 4592 O 438.518 -1.75949 0.484582 0
M  V30 4593 C 438.569 -0.206118 3.60912 0
M  V30 4594 O 438.29 1.0284 4.25859 0
M  V30 4595 C 439.791 -0.772033 4.36526 0
M  V30 4596 H 437.011 0.0375239 0.66995 0
M  V30 4597 H 439.555 0.747032 1.90367 0
M  V30 4598 H 437.71 -0.89091 3.77017 0
M  V30 4599 H 438.124 0.814654 5.18135 0
M  V30 4600 H 439.598 -0.874251 5.45033 0
M  V30 4601 H 440.075 -1.77904 4.01555 0
M  V30 4602 H 440.681 -0.123526 4.25121 0
M  V30 4603 N 438.996 -1.55193 0.274407 0
M  V30 4604 C 439.944 -2.23924 -0.629362 0
M  V30 4605 C 440.938 -1.23602 -1.1584 0
M  V30 4606 O 442.144 -1.41535 -1.11211 0
M  V30 4607 H 438.519 -0.718637 -0.221507 0
M  V30 4608 H 440.49 -2.98388 -0.0268322 0
M  V30 4609 C 439.239 -2.97329 -1.80252 0
M  V30 4610 H 438.562 -3.74313 -1.40462 0
M  V30 4611 H 440.002 -3.48743 -2.41152 0
M  V30 4612 C 438.461 -2.0276 -2.69054 0
M  V30 4613 O 438.991 -1.57836 -3.69392 0
M  V30 4614 N 437.197 -1.69275 -2.36208 0
M  V30 4615 H 436.744 -2.06004 -1.54661 0
M  V30 4616 H 436.702 -1.06271 -2.95895 0
M  V30 4617 N 440.474 -0.00167713 -1.576 0
M  V30 4618 C 441.704 0.692754 -1.94639 0
M  V30 4619 C 442.112 1.67744 -0.87513 0
M  V30 4620 O 441.455 1.8305 0.154382 0
M  V30 4621 C 441.517 1.47881 -3.27676 0
M  V30 4622 C 441.181 0.655518 -4.52274 0
M  V30 4623 C 442.178 -0.0575214 -5.19868 0
M  V30 4624 C 439.863 0.600994 -4.98692 0
M  V30 4625 C 441.857 -0.814052 -6.3218 0
M  V30 4626 C 439.544 -0.15926 -6.10892 0
M  V30 4627 C 440.542 -0.865515 -6.77494 0
M  V30 4628 O 440.23 -1.61336 -7.87544 0
M  V30 4629 H 439.962 0.197792 -0.646417 0
M  V30 4630 H 442.516 -0.049423 -2.05341 0
M  V30 4631 H 440.746 2.2655 -3.13388 0
M  V30 4632 H 442.435 2.05874 -3.49816 0
M  V30 4633 H 443.201 -0.0245611 -4.84994 0
M  V30 4634 H 439.08 1.14025 -4.46676 0
M  V30 4635 H 442.624 -1.36584 -6.84098 0
M  V30 4636 H 438.521 -0.194035 -6.45208 0
M  V30 4637 H 439.289 -1.53025 -8.04068 0
M  V30 4638 N 441.952 1.55251 0.271103 0
M  V30 4639 C 443.201 1.75151 1.00025 0
M  V30 4640 C 443.514 0.561041 1.87381 0
M  V30 4641 O 444.72 0.642506 2.63788 0
M  V30 4642 C 443.176 3.09999 1.82835 0
M  V30 4643 C 442.784 4.3662 1.00336 0
M  V30 4644 C 444.528 3.39249 2.55168 0
M  V30 4645 C 442.435 5.62506 1.82595 0
M  V30 4646 H 441.365 0.652877 0.377183 0
M  V30 4647 H 444.016 1.81708 0.255843 0
M  V30 4648 H 442.398 2.97485 2.61378 0
M  V30 4649 H 443.572 4.60055 0.261959 0
M  V30 4650 H 441.887 4.14527 0.394486 0
M  V30 4651 H 444.484 4.3051 3.1712 0
M  V30 4652 H 444.827 2.59467 3.2555 0
M  V30 4653 H 445.36 3.52869 1.83653 0
M  V30 4654 H 442.099 6.45041 1.16631 0
M  V30 4655 H 441.619 5.43211 2.54327 0
M  V30 4656 H 443.298 6.00875 2.39913 0
M  V30 4657 N 443.43 -0.535701 1.48216 0
M  V30 4658 C 444.36 -1.65014 1.65204 0
M  V30 4659 C 445.341 -1.62554 0.501011 0
M  V30 4660 O 446.526 -1.7984 0.732886 0
M  V30 4661 C 443.656 -3.03616 1.68626 0
M  V30 4662 C 442.61 -3.20932 2.83172 0
M  V30 4663 C 441.936 -4.60537 2.71679 0
M  V30 4664 C 443.236 -3.04249 4.24535 0
M  V30 4665 H 444.93 -1.51053 2.58502 0
M  V30 4666 H 442.476 -0.725262 1.24402 0
M  V30 4667 H 444.429 -3.81446 1.79099 0
M  V30 4668 H 443.153 -3.18587 0.719026 0
M  V30 4669 H 441.812 -2.45517 2.72244 0
M  V30 4670 H 441.46 -4.72336 1.72937 0
M  V30 4671 H 441.16 -4.73069 3.48538 0
M  V30 4672 H 442.684 -5.40475 2.84112 0
M  V30 4673 H 444.098 -3.71877 4.36326 0
M  V30 4674 H 442.495 -3.28278 5.02348 0
M  V30 4675 H 443.565 -2.00739 4.41397 0
M  V30 4676 N 444.908 -1.36708 -0.784132 0
M  V30 4677 C 445.871 -1.31307 -1.87859 0
M  V30 4678 C 446.871 -0.219654 -1.59293 0
M  V30 4679 O 448.061 -0.47476 -1.67606 0
M  V30 4680 C 445.193 -1.03679 -3.24751 0
M  V30 4681 H 446.386 -2.28647 -1.94064 0
M  V30 4682 H 443.939 -1.21558 -0.98252 0
M  V30 4683 H 444.674 -0.0681936 -3.24228 0
M  V30 4684 H 444.459 -1.82811 -3.46876 0
M  V30 4685 H 445.949 -1.02518 -4.04821 0
M  V30 4686 N 446.386 1.0089 -1.21074 0
M  V30 4687 C 447.802 1.2695 -0.967257 0
M  V30 4688 C 448.002 1.9846 0.348673 0
M  V30 4689 O 447.058 2.28459 1.0753 0
M  V30 4690 C 448.371 2.09697 -2.15517 0
M  V30 4691 C 449.919 2.22937 -2.197 0
M  V30 4692 C 450.394 3.09064 -3.37999 0
M  V30 4693 N 451.885 3.16653 -3.38061 0
M  V30 4694 C 452.62 3.8354 -4.26245 0
M  V30 4695 N 452.116 4.52488 -5.2462 0
M  V30 4696 N 453.909 3.80141 -4.14064 0
M  V30 4697 H 446.06 0.529005 -2.05707 0
M  V30 4698 H 448.323 0.296148 -0.900556 0
M  V30 4699 H 448.029 1.64497 -3.10859 0
M  V30 4700 H 447.903 3.10444 -2.14253 0
M  V30 4701 H 450.29 2.67357 -1.24916 0
M  V30 4702 H 450.371 1.21673 -2.2501 0
M  V30 4703 H 450.015 2.65347 -4.33074 0
M  V30 4704 H 449.945 4.10433 -3.29928 0
M  V30 4705 H 452.436 2.67566 -2.66865 0
M  V30 4706 H 452.749 5.01219 -5.88217 0
M  V30 4707 H 451.094 4.51288 -5.28549 0
M  V30 4708 H 454.285 3.25427 -3.36474 0
M  V30 4709 H 454.458 4.31992 -4.82998 0
M  V30 4710 N 447.864 1.01787 1.20321 0
M  V30 4711 C 449.111 0.707936 1.89722 0
M  V30 4712 C 449.439 -0.762535 1.78929 0
M  V30 4713 O 448.694 -1.56977 1.16861 0
M  V30 4714 C 448.993 1.09076 3.40349 0
M  V30 4715 C 448.659 2.55765 3.71342 0
M  V30 4716 C 447.321 2.95845 3.79511 0
M  V30 4717 C 449.673 3.50723 3.85542 0
M  V30 4718 C 447.001 4.2982 3.99339 0
M  V30 4719 C 449.353 4.84387 4.06881 0
M  V30 4720 C 448.017 5.24172 4.1328 0
M  V30 4721 H 447.287 0.259052 0.694243 0
M  V30 4722 H 449.934 1.27868 1.42555 0
M  V30 4723 H 448.239 0.438453 3.89339 0
M  V30 4724 H 449.936 0.828636 3.92345 0
M  V30 4725 H 446.526 2.2371 3.65584 0
M  V30 4726 H 450.71 3.20916 3.78585 0
M  V30 4727 H 445.966 4.60196 4.02529 0
M  V30 4728 H 450.14 5.57891 4.1681 0
M  V30 4729 H 447.767 6.27997 4.28396 0
M  V30 4730 N 449.342 -1.36122 0.79427 0
M  V30 4731 C 450.289 -2.29982 0.194101 0
M  V30 4732 C 451.259 -1.52214 -0.664833 0
M  V30 4733 O 452.444 -1.80702 -0.612498 0
M  V30 4734 C 449.584 -3.38706 -0.661244 0
M  V30 4735 C 448.697 -4.31456 0.216766 0
M  V30 4736 C 447.832 -5.27265 -0.645411 0
M  V30 4737 C 446.871 -6.11653 0.233756 0
M  V30 4738 N 446.008 -6.99636 -0.587682 0
M  V30 4739 H 450.848 -2.80722 0.999965 0
M  V30 4740 H 448.385 -1.38172 0.504677 0
M  V30 4741 H 450.343 -4.00394 -1.17219 0
M  V30 4742 H 448.973 -2.89274 -1.43249 0
M  V30 4743 H 448.025 -3.7088 0.845724 0
M  V30 4744 H 449.337 -4.90724 0.893973 0
M  V30 4745 H 448.491 -5.94266 -1.22198 0
M  V30 4746 H 447.23 -4.68463 -1.35623 0
M  V30 4747 H 446.235 -5.4361 0.82269 0
M  V30 4748 H 447.46 -6.72531 0.942247 0
M  V30 4749 H 445.406 -6.43337 -1.2827 0
M  V30 4750 H 445.323 -7.55993 0.0317402 0
M  V30 4751 H 446.591 -7.71001 -1.14792 0
M  V30 4752 N 450.82 -0.546701 -1.47814 0
M  V30 4753 C 451.783 0.196287 -2.28358 0
M  V30 4754 C 452.783 0.852437 -1.36346 0
M  V30 4755 O 453.973 0.709913 -1.59078 0
M  V30 4756 C 451.105 1.28579 -3.15722 0
M  V30 4757 H 452.298 -0.511086 -2.95513 0
M  V30 4758 H 449.851 -0.303248 -1.5333 0
M  V30 4759 H 450.586 2.0259 -2.53235 0
M  V30 4760 H 450.371 0.820229 -3.83425 0
M  V30 4761 H 451.861 1.80793 -3.76435 0
M  V30 4762 N 452.299 1.55045 -0.282633 0
M  V30 4763 C 453.524 2.04628 0.337977 0
M  V30 4764 C 453.949 1.15937 1.48123 0
M  V30 4765 O 453.307 0.159532 1.80597 0
M  V30 4766 C 453.355 3.51854 0.78936 0
M  V30 4767 O 452.459 3.66236 1.89592 0
M  V30 4768 H 451.8 0.660434 0.0687261 0
M  V30 4769 H 454.33 2.00261 -0.419124 0
M  V30 4770 H 454.34 3.93361 1.08311 0
M  V30 4771 H 453.015 4.15873 -0.0470419 0
M  V30 4772 H 451.592 3.36633 1.60413 0
M  V30 4773 N 453.777 0.010035 1.57597 0
M  V30 4774 C 455.002 -0.687021 1.95691 0
M  V30 4775 C 455.427 -1.65952 0.885519 0
M  V30 4776 O 454.785 -1.80633 -0.15543 0
M  V30 4777 C 454.833 -1.3864 3.32884 0
M  V30 4778 O 453.937 -2.50115 3.27897 0
M  V30 4779 H 453.278 -0.181989 0.638573 0
M  V30 4780 H 455.808 0.0662122 2.04493 0
M  V30 4781 H 455.818 -1.74754 3.6868 0
M  V30 4782 H 454.493 -0.673411 4.10412 0
M  V30 4783 H 453.07 -2.16253 3.03791 0
M  V30 4784 N 455.255 -1.55392 -0.262866 0
M  V30 4785 C 456.218 -1.88181 -1.30846 0
M  V30 4786 C 457.218 -0.757079 -1.41862 0
M  V30 4787 O 458.408 -1.02519 -1.40838 0
M  V30 4788 C 455.54 -2.09609 -2.68844 0
M  V30 4789 H 456.733 -2.81659 -1.02997 0
M  V30 4790 H 454.286 -1.48039 -0.501414 0
M  V30 4791 H 455.021 -1.18547 -3.01856 0
M  V30 4792 H 454.806 -2.91508 -2.62231 0
M  V30 4793 H 456.296 -2.36215 -3.44372 0
M  V30 4794 N 456.733 0.527833 -1.48498 0
M  V30 4795 C 457.979 1.28545 -1.56857 0
M  V30 4796 C 458.312 1.92678 -0.242651 0
M  V30 4797 O 457.587 1.79394 0.751545 0
M  V30 4798 C 457.87 2.37314 -2.70839 0
M  V30 4799 C 457.723 1.77858 -4.13142 0
M  V30 4800 C 459.042 3.39068 -2.80573 0
M  V30 4801 H 456.161 0.466006 -0.570971 0
M  V30 4802 H 458.803 0.587784 -1.8068 0
M  V30 4803 H 456.953 2.96821 -2.50658 0
M  V30 4804 H 458.625 1.22385 -4.44769 0
M  V30 4805 H 456.868 1.08383 -4.20042 0
M  V30 4806 H 457.539 2.56624 -4.88721 0
M  V30 4807 H 460.015 2.89518 -2.98862 0
M  V30 4808 H 458.891 4.12566 -3.6205 0
M  V30 4809 H 459.152 3.9975 -1.88818 0
M  V30 4810 N 458.211 1.37122 0.776871 0
M  V30 4811 C 459.458 1.32047 1.53524 0
M  V30 4812 C 459.786 -0.0965631 1.9426 0
M  V30 4813 O 459.041 -1.06866 1.63945 0
M  V30 4814 C 459.34 2.20068 2.81611 0
M  V30 4815 C 459.006 3.68423 2.59953 0
M  V30 4816 C 457.668 4.08854 2.53755 0
M  V30 4817 C 460.02 4.62431 2.40431 0
M  V30 4818 C 457.348 5.41417 2.26018 0
M  V30 4819 C 459.7 5.95225 2.14219 0
M  V30 4820 C 458.364 6.34767 2.06462 0
M  V30 4821 H 457.634 0.483196 0.561785 0
M  V30 4822 H 460.281 1.69284 0.895268 0
M  V30 4823 H 458.586 1.75809 3.50141 0
M  V30 4824 H 460.283 2.13458 3.39465 0
M  V30 4825 H 456.873 3.36354 2.65638 0
M  V30 4826 H 461.057 4.32057 2.44213 0
M  V30 4827 H 456.313 5.71022 2.18504 0
M  V30 4828 H 460.487 6.67626 1.98112 0
M  V30 4829 H 458.114 7.37413 1.84733 0
M  V30 4830 N 459.689 -1.00246 1.21608 0
M  V30 4831 C 460.636 -2.09073 0.977613 0
M  V30 4832 C 461.606 -1.65815 -0.097297 0
M  V30 4833 O 462.791 -1.90734 0.0503445 0
M  V30 4834 C 459.931 -3.40671 0.551133 0
M  V30 4835 C 459.044 -3.97326 1.69576 0
M  V30 4836 C 458.179 -5.17043 1.2182 0
M  V30 4837 C 457.218 -5.65813 2.335 0
M  V30 4838 N 456.355 -6.76778 1.86859 0
M  V30 4839 H 461.195 -2.28806 1.90924 0
M  V30 4840 H 458.732 -1.12186 0.951452 0
M  V30 4841 H 460.69 -4.16225 0.285097 0
M  V30 4842 H 459.32 -3.20967 -0.343489 0
M  V30 4843 H 458.372 -3.18734 2.07637 0
M  V30 4844 H 459.684 -4.29511 2.53617 0
M  V30 4845 H 458.838 -5.99852 0.908975 0
M  V30 4846 H 457.577 -4.86458 0.347869 0
M  V30 4847 H 456.582 -4.81599 2.65222 0
M  V30 4848 H 457.807 -5.98427 3.21033 0
M  V30 4849 H 455.753 -6.47994 1.02174 0
M  V30 4850 H 455.67 -7.08231 2.64471 0
M  V30 4851 H 456.938 -7.63116 1.58978 0
M  V30 4852 N 461.167 -1.02423 -1.1978 0
M  V30 4853 C 462.392 -0.7373 -1.93852 0
M  V30 4854 C 462.817 0.696923 -1.74713 0
M  V30 4855 O 462.175 1.48056 -1.04638 0
M  V30 4856 C 462.223 -1.08783 -3.438 0
M  V30 4857 O 461.327 -0.20383 -4.11896 0
M  V30 4858 H 460.668 -0.27284 -0.605355 0
M  V30 4859 H 463.198 -1.36966 -1.51992 0
M  V30 4860 H 463.208 -1.04276 -3.9445 0
M  V30 4861 H 461.883 -2.13274 -3.57053 0
M  V30 4862 H 460.46 -0.307091 -3.71633 0
M  V30 4863 N 462.645 1.35699 -0.801477 0
M  V30 4864 C 463.575 2.32436 -0.222658 0
M  V30 4865 C 464.556 1.5723 0.649057 0
M  V30 4866 O 465.741 1.85324 0.580387 0
M  V30 4867 C 462.871 3.41469 0.633719 0
M  V30 4868 C 461.825 4.27774 -0.139083 0
M  V30 4869 C 461.151 5.28082 0.838666 0
M  V30 4870 C 462.451 5.04946 -1.33517 0
M  V30 4871 H 464.145 2.81094 -1.03086 0
M  V30 4872 H 461.691 1.35146 -0.497155 0
M  V30 4873 H 463.644 4.08143 1.04868 0
M  V30 4874 H 462.368 2.91408 1.47475 0
M  V30 4875 H 461.027 3.62673 -0.535156 0
M  V30 4876 H 460.675 4.7429 1.67506 0
M  V30 4877 H 460.375 5.86695 0.32594 0
M  V30 4878 H 461.899 5.97628 1.25194 0
M  V30 4879 H 463.313 5.64593 -0.995349 0
M  V30 4880 H 461.71 5.7303 -1.78202 0
M  V30 4881 H 462.78 4.35886 -2.12442 0
M  V30 4882 N 464.123 0.554532 1.47522 0
M  V30 4883 C 465.369 0.0377449 2.03365 0
M  V30 4884 C 465.724 -1.29654 1.42154 0
M  V30 4885 O 465.017 -1.83022 0.566865 0
M  V30 4886 C 465.211 -0.115927 3.57212 0
M  V30 4887 C 465.04 1.20191 4.33341 0
M  V30 4888 C 463.81 1.76849 4.73342 0
M  V30 4889 C 466.008 2.11849 4.68641 0
M  V30 4890 N 463.99 3.02665 5.34104 0
M  V30 4891 C 465.361 3.22245 5.29677 0
M  V30 4892 C 467.416 2.11876 4.5057 0
M  V30 4893 C 466.119 4.32763 5.74551 0
M  V30 4894 C 468.145 3.21405 4.9644 0
M  V30 4895 C 467.507 4.30519 5.57523 0
M  V30 4896 H 463.606 0.0559107 0.779999 0
M  V30 4897 H 466.19 0.741232 1.80038 0
M  V30 4898 H 464.361 -0.788533 3.80311 0
M  V30 4899 H 466.093 -0.634538 3.99695 0
M  V30 4900 H 462.848 1.30681 4.55214 0
M  V30 4901 H 463.272 3.66788 5.69031 0
M  V30 4902 H 467.914 1.28801 4.02704 0
M  V30 4903 H 465.632 5.166 6.2141 0
M  V30 4904 H 469.218 3.22509 4.8423 0
M  V30 4905 H 468.098 5.13873 5.92371 0
M  V30 4906 N 465.601 -1.54893 0.290851 0
M  V30 4907 C 466.878 -1.91991 -0.373989 0
M  V30 4908 C 467.258 -1.21694 -1.72493 0
M  V30 4909 O 466.606 -0.34917 -2.25816 0
M  V30 4910 C 466.816 -3.45419 -0.498703 0
M  V30 4911 C 468.164 -4.1748 -0.774298 0
M  V30 4912 O 469.188 -3.51398 -0.582908 0
M  V30 4913 O 468.047 -5.3445 -1.14129 0
M  V30 4914 H 465.141 -0.800593 -0.207315 0
M  V30 4915 H 467.687 -1.66297 0.338164 0
M  V30 4916 H 466.459 -3.88688 0.451392 0
M  V30 4917 H 466.082 -3.77117 -1.25972 0
M  V30 4918 N 467.08 -0.0183926 -1.57589 0
M  V30 4919 C 468.012 0.995557 -2.06449 0
M  V30 4920 C 469.025 1.29556 -0.985849 0
M  V30 4921 O 470.214 1.2621 -1.26227 0
M  V30 4922 C 467.314 2.32572 -2.46502 0
M  V30 4923 C 466.487 2.21245 -3.77319 0
M  V30 4924 C 465.546 3.37104 -4.04039 0
M  V30 4925 O 464.572 3.14468 -4.74445 0
M  V30 4926 N 465.774 4.60553 -3.53372 0
M  V30 4927 H 468.539 0.578746 -2.94059 0
M  V30 4928 H 466.1 0.168603 -1.6102 0
M  V30 4929 H 468.092 3.08887 -2.61478 0
M  V30 4930 H 466.662 2.65931 -1.64315 0
M  V30 4931 H 465.882 1.29723 -3.72244 0
M  V30 4932 H 467.17 2.10868 -4.63047 0
M  V30 4933 H 466.568 4.81839 -2.96391 0
M  V30 4934 H 465.125 5.34072 -3.73644 0
M  V30 4935 N 468.558 1.5553 0.254621 0
M  V30 4936 C 469.806 1.7665 0.981793 0
M  V30 4937 C 470.127 0.580963 1.86145 0
M  V30 4938 O 469.397 -0.403537 1.91699 0
M  V30 4939 H 467.977 0.651475 0.365498 0
M  V30 4940 H 470.639 1.92958 0.274426 0
M  V30 4941 H 469.735 2.67486 1.60802 0
M  V30 4942 N 470.036 -0.519951 1.48776 0
M  V30 4943 C 471.285 -1.27175 1.56555 0
M  V30 4944 C 471.598 -1.9401 0.248869 0
M  V30 4945 O 472.804 -2.70725 0.205004 0
M  V30 4946 C 471.26 -2.30811 2.76142 0
M  V30 4947 C 470.868 -1.7 4.14493 0
M  V30 4948 C 472.612 -3.06937 2.9324 0
M  V30 4949 C 470.519 -2.71635 5.25327 0
M  V30 4950 H 469.449 -0.478329 0.582853 0
M  V30 4951 H 472.1 -0.547916 1.75129 0
M  V30 4952 H 470.482 -3.06274 2.51023 0
M  V30 4953 H 471.656 -1.00658 4.49672 0
M  V30 4954 H 469.971 -1.06331 4.02595 0
M  V30 4955 H 472.568 -3.82905 3.73213 0
M  V30 4956 H 472.911 -3.63409 2.03075 0
M  V30 4957 H 473.444 -2.38589 3.18308 0
M  V30 4958 H 470.183 -2.1997 6.1749 0
M  V30 4959 H 469.703 -3.39275 4.94624 0
M  V30 4960 H 471.382 -3.34429 5.53865 0
M  V30 4961 N 471.514 -1.37532 -0.769588 0
M  V30 4962 C 472.763 -1.32183 -1.5235 0
M  V30 4963 C 473.076 0.0906555 -1.9539 0
M  V30 4964 O 474.282 0.266628 -2.70188 0
M  V30 4965 C 472.738 -2.32029 -2.75119 0
M  V30 4966 C 472.346 -3.78816 -2.3917 0
M  V30 4967 C 474.09 -2.35694 -3.53056 0
M  V30 4968 C 471.997 -4.70388 -3.58453 0
M  V30 4969 H 470.927 -0.491275 -0.571984 0
M  V30 4970 H 473.578 -1.63004 -0.842739 0
M  V30 4971 H 471.96 -1.94229 -3.45096 0
M  V30 4972 H 473.134 -4.25466 -1.76962 0
M  V30 4973 H 471.449 -3.78117 -1.74402 0
M  V30 4974 H 474.046 -3.01312 -4.41718 0
M  V30 4975 H 474.389 -1.37117 -3.93071 0
M  V30 4976 H 474.922 -2.72212 -2.90078 0
M  V30 4977 H 471.661 -5.70102 -3.23518 0
M  V30 4978 H 471.181 -4.28442 -4.19758 0
M  V30 4979 H 472.86 -4.87628 -4.25239 0
M  V30 4980 N 472.992 0.995999 -1.22138 0
M  V30 4981 C 473.922 2.10387 -1.01289 0
M  V30 4982 C 474.903 1.69975 0.0651454 0
M  V30 4983 O 476.088 1.9396 -0.0964628 0
M  V30 4984 C 473.218 3.42312 -0.586517 0
M  V30 4985 C 472.172 3.96558 -1.61014 0
M  V30 4986 C 471.498 5.24494 -1.0397 0
M  V30 4987 C 472.798 4.27595 -2.99933 0
M  V30 4988 H 474.492 2.28086 -1.93951 0
M  V30 4989 H 472.038 1.09607 -0.933928 0
M  V30 4990 H 473.991 4.19223 -0.427793 0
M  V30 4991 H 472.715 3.24431 0.375761 0
M  V30 4992 H 471.374 3.21776 -1.75658 0
M  V30 4993 H 471.022 5.02953 -0.0688703 0
M  V30 4994 H 470.722 5.61755 -1.72352 0
M  V30 4995 H 472.246 6.04042 -0.892494 0
M  V30 4996 H 473.66 4.95315 -2.8868 0
M  V30 4997 H 472.057 4.76021 -3.6541 0
M  V30 4998 H 473.127 3.35498 -3.50099 0
M  V30 4999 N 474.47 1.03057 1.19235 0
M  V30 5000 C 475.886 0.747947 1.40989 0
M  V30 5001 C 476.086 -0.666752 1.90149 0
M  V30 5002 O 475.142 -1.43249 2.07933 0
M  V30 5003 C 476.455 1.7855 2.41951 0
M  V30 5004 C 478.003 1.80524 2.55695 0
M  V30 5005 C 478.478 2.83243 3.59913 0
M  V30 5006 N 479.969 2.8207 3.67411 0
M  V30 5007 C 480.704 3.58204 4.47747 0
M  V30 5008 N 480.2 4.44057 5.31775 0
M  V30 5009 N 481.993 3.46738 4.42413 0
M  V30 5010 H 474.144 1.94367 0.856468 0
M  V30 5011 H 476.407 0.840412 0.438647 0
M  V30 5012 H 476.113 2.79973 2.12857 0
M  V30 5013 H 475.987 1.6092 3.41152 0
M  V30 5014 H 478.374 0.79778 2.84112 0
M  V30 5015 H 478.455 2.02229 1.56643 0
M  V30 5016 H 478.099 3.84161 3.32239 0
M  V30 5017 H 478.029 2.58795 4.5862 0
M  V30 5018 H 480.52 2.19803 3.074 0
M  V30 5019 H 480.833 4.98884 5.90199 0
M  V30 5020 H 479.178 4.48129 5.3123 0
M  V30 5021 H 482.369 2.79077 3.75811 0
M  V30 5022 H 482.542 4.06322 5.04783 0
M  V30 5023 N 475.948 -1.35272 0.808662 0
M  V30 5024 C 477.225 -1.93077 0.313181 0
M  V30 5025 C 477.605 -1.73847 -1.19752 0
M  V30 5026 O 476.953 -1.1087 -1.998 0
M  V30 5027 C 477.163 -3.41347 0.726859 0
M  V30 5028 C 478.511 -4.18493 0.717532 0
M  V30 5029 O 479.535 -3.4987 0.668535 0
M  V30 5030 O 478.394 -5.40937 0.777779 0
M  V30 5031 H 475.488 -0.822885 0.0824018 0
M  V30 5032 H 478.034 -1.44335 0.892499 0
M  V30 5033 H 476.806 -3.49082 1.76797 0
M  V30 5034 H 476.429 -3.97411 0.122461 0
M  V30 5035 N 477.426 -0.562348 -1.47226 0
M  V30 5036 C 478.358 0.220011 -2.28142 0
M  V30 5037 C 479.371 0.874596 -1.37312 0
M  V30 5038 O 480.56 0.747583 -1.62091 0
M  V30 5039 C 477.66 1.32953 -3.11732 0
M  V30 5040 C 476.833 0.770759 -4.30556 0
M  V30 5041 C 475.892 1.76541 -4.95701 0
M  V30 5042 O 474.918 1.3095 -5.53932 0
M  V30 5043 N 476.12 3.09896 -4.90861 0
M  V30 5044 H 478.885 -0.474107 -2.95926 0
M  V30 5045 H 476.446 -0.398761 -1.56912 0
M  V30 5046 H 478.438 1.99378 -3.5218 0
M  V30 5047 H 477.008 1.92681 -2.46156 0
M  V30 5048 H 476.228 -0.0704056 -3.94137 0
M  V30 5049 H 477.516 0.376872 -5.07402 0
M  V30 5050 H 476.914 3.49577 -4.44761 0
M  V30 5051 H 475.471 3.71865 -5.35313 0
M  V30 5052 N 478.904 1.54736 -0.299062 0
M  V30 5053 C 479.852 2.24897 0.593658 0
M  V30 5054 C 480.846 1.25429 1.13859 0
M  V30 5055 O 482.052 1.43286 1.08945 0
M  V30 5056 H 478.427 0.72207 0.210046 0
M  V30 5057 H 480.398 2.98393 -0.0206421 0
M  V30 5058 C 479.147 3.00159 1.75499 0
M  V30 5059 H 478.47 3.76501 1.34489 0
M  V30 5060 H 479.91 3.52535 2.35574 0
M  V30 5061 C 478.369 2.07015 2.65794 0
M  V30 5062 O 478.899 1.63692 3.66835 0
M  V30 5063 N 477.105 1.73012 2.33485 0
M  V30 5064 H 476.652 2.08439 1.51364 0
M  V30 5065 H 476.61 1.10965 2.94167 0
M  V30 5066 N 480.382 0.0267497 1.57577 0
M  V30 5067 C 481.329 -0.955894 2.10075 0
M  V30 5068 C 482.299 -1.32453 1.00226 0
M  V30 5069 O 483.484 -1.41826 1.27632 0
M  V30 5070 C 480.624 -2.2338 2.6305 0
M  V30 5071 C 479.737 -1.92183 3.86898 0
M  V30 5072 C 478.872 -3.14251 4.28275 0
M  V30 5073 C 477.911 -2.78862 5.44888 0
M  V30 5074 N 477.048 -3.93548 5.81433 0
M  V30 5075 H 481.888 -0.501303 2.93753 0
M  V30 5076 H 479.425 -0.235847 1.45197 0
M  V30 5077 H 481.383 -2.98124 2.91853 0
M  V30 5078 H 480.013 -2.6646 1.82205 0
M  V30 5079 H 479.065 -1.07692 3.64838 0
M  V30 5080 H 480.377 -1.62117 4.7172 0
M  V30 5081 H 479.531 -3.97317 4.58502 0
M  V30 5082 H 478.27 -3.47476 3.42215 0
M  V30 5083 H 477.275 -1.94208 5.14357 0
M  V30 5084 H 478.5 -2.46855 6.32645 0
M  V30 5085 H 476.446 -4.2662 4.98328 0
M  V30 5086 H 476.363 -3.67098 6.6089 0
M  V30 5087 H 477.631 -4.77325 6.16264 0
M  V30 5088 N 481.861 -1.55662 -0.24637 0
M  V30 5089 C 482.793 -1.86811 -1.32794 0
M  V30 5090 C 483.806 -0.754413 -1.44265 0
M  V30 5091 O 484.995 -1.03253 -1.45606 0
M  V30 5092 C 482.095 -2.0397 -2.70646 0
M  V30 5093 C 481.268 -3.34832 -2.81436 0
M  V30 5094 C 480.327 -3.41727 -4.00136 0
M  V30 5095 O 479.353 -4.14934 -3.89639 0
M  V30 5096 N 480.555 -2.71058 -5.1333 0
M  V30 5097 H 483.32 -2.80174 -1.06409 0
M  V30 5098 H 480.881 -1.55906 -0.43647 0
M  V30 5099 H 482.873 -2.05924 -3.48393 0
M  V30 5100 H 481.443 -1.1735 -2.89738 0
M  V30 5101 H 480.663 -3.4519 -1.90361 0
M  V30 5102 H 481.951 -4.21085 -2.85595 0
M  V30 5103 H 481.349 -2.11314 -5.2475 0
M  V30 5104 H 479.906 -2.78704 -5.89209 0
M  V30 5105 N 483.339 0.512053 -1.4905 0
M  V30 5106 C 484.75 1.09376 -1.51307 0
M  V30 5107 C 485.101 1.94 -0.292971 0
M  V30 5108 O 484.226 2.07965 0.598277 0
M  V30 5109 C 484.821 1.99031 -2.74176 0
M  V30 5110 C 483.38 2.52385 -2.79247 0
M  V30 5111 C 482.527 1.29749 -2.45073 0
M  V30 5112 H 485.478 0.296467 -1.55906 0
M  V30 5113 H 485.499 2.83569 -2.53711 0
M  V30 5114 H 485.011 1.37412 -3.62959 0
M  V30 5115 H 483.112 3.17673 -1.94716 0
M  V30 5116 H 483.225 2.90293 -3.81139 0
M  V30 5117 H 481.589 1.61912 -1.96612 0
M  V30 5118 H 482.372 0.698555 -3.36118 0
M  V30 5119 N 484.817 1.37938 0.762283 0
M  V30 5120 C 486.042 1.37059 1.55659 0
M  V30 5121 C 486.467 -0.0396123 1.88058 0
M  V30 5122 O 485.825 -1.01929 1.49934 0
M  V30 5123 C 485.873 2.22494 2.83776 0
M  V30 5124 O 484.977 1.63607 3.78559 0
M  V30 5125 H 484.318 0.467892 0.47114 0
M  V30 5126 H 486.848 1.81587 0.942725 0
M  V30 5127 H 486.858 2.36045 3.32786 0
M  V30 5128 H 485.533 3.24993 2.59524 0
M  V30 5129 H 484.11 1.5915 3.37233 0
M  V30 5130 N 486.295 -0.989507 1.22664 0
M  V30 5131 C 487.225 -2.09847 1.02404 0
M  V30 5132 C 488.206 -1.70007 -0.0561303 0
M  V30 5133 O 489.391 -1.93906 0.106748 0
M  V30 5134 C 486.521 -3.41996 0.604663 0
M  V30 5135 C 485.475 -3.95699 1.63115 0
M  V30 5136 C 484.801 -5.23936 1.0675 0
M  V30 5137 C 486.101 -4.25999 3.02196 0
M  V30 5138 H 487.795 -2.27054 1.95158 0
M  V30 5139 H 485.341 -1.09111 0.939727 0
M  V30 5140 H 487.294 -4.1899 0.45002 0
M  V30 5141 H 486.018 -3.24626 -0.35855 0
M  V30 5142 H 484.677 -3.2084 1.77362 0
M  V30 5143 H 484.325 -5.02909 0.0955422 0
M  V30 5144 H 484.025 -5.60833 1.75328 0
M  V30 5145 H 485.549 -6.0356 0.924516 0
M  V30 5146 H 486.963 -4.93777 2.91303 0
M  V30 5147 H 485.36 -4.74076 3.67929 0
M  V30 5148 H 486.43 -3.33636 3.51873 0
M  V30 5149 N 487.773 -1.03688 -1.18687 0
M  V30 5150 C 488.998 -0.757819 -1.93059 0
M  V30 5151 C 489.423 0.678353 -1.75442 0
M  V30 5152 O 488.781 1.46938 -1.06203 0
M  V30 5153 C 488.829 -1.12423 -3.42627 0
M  V30 5154 O 487.933 -0.247505 -4.11657 0
M  V30 5155 H 487.274 -0.279245 -0.602427 0
M  V30 5156 H 489.804 -1.3857 -1.5053 0
M  V30 5157 H 489.814 -1.08454 -3.93322 0
M  V30 5158 H 488.489 -2.17049 -3.54771 0
M  V30 5159 H 487.066 -0.34649 -3.71287 0
M  V30 5160 N 489.251 1.34841 -0.815825 0
M  V30 5161 C 490.499 1.98107 -0.399744 0
M  V30 5162 C 490.82 1.65019 1.03894 0
M  V30 5163 O 490.09 0.937311 1.72021 0
M  V30 5164 H 488.67 0.732827 -0.144823 0
M  V30 5165 H 491.332 1.64599 -1.0437 0
M  V30 5166 H 490.428 3.07856 -0.512965 0
M  V30 5167 N 490.729 0.570148 1.46925 0
M  V30 5168 C 491.969 0.0534743 2.0433 0
M  V30 5169 C 492.333 -1.27729 1.4335 0
M  V30 5170 O 493.534 -1.88244 1.91879 0
M  V30 5171 C 491.805 -0.0244296 3.57392 0
M  V30 5172 S 493.364 -0.485351 4.36108 0
M  V30 5173 H 490.182 0.0313908 0.710307 0
M  V30 5174 H 492.784 0.759808 1.80131 0
M  V30 5175 H 491.488 0.948261 3.99295 0
M  V30 5176 H 491.019 -0.753922 3.86108 0
M  V30 5177 H 493.034 -1.74258 4.64595 0
M  V30 5178 N 492.207 -1.54576 0.307264 0
M  V30 5179 C 493.137 -2.26708 -0.55907 0
M  V30 5180 C 494.118 -1.26893 -1.1328 0
M  V30 5181 O 495.303 -1.55677 -1.16097 0
M  V30 5182 C 492.433 -3.01259 -1.72801 0
M  V30 5183 C 491.387 -4.08275 -1.28435 0
M  V30 5184 C 490.713 -4.70575 -2.53895 0
M  V30 5185 C 492.013 -5.2068 -0.411038 0
M  V30 5186 H 493.707 -2.9937 0.042576 0
M  V30 5187 H 491.253 -1.43983 0.0219173 0
M  V30 5188 H 493.206 -3.50444 -2.34023 0
M  V30 5189 H 491.93 -2.26187 -2.356 0
M  V30 5190 H 490.589 -3.59949 -0.695161 0
M  V30 5191 H 490.237 -3.92136 -3.15021 0
M  V30 5192 H 489.937 -5.42854 -2.24908 0
M  V30 5193 H 491.461 -5.22527 -3.15908 0
M  V30 5194 H 492.875 -5.65721 -0.929097 0
M  V30 5195 H 491.272 -5.99716 -0.214664 0
M  V30 5196 H 492.342 -4.81629 0.562287 0
M  V30 5197 N 493.685 -0.035106 -1.57561 0
M  V30 5198 C 495.101 0.321334 -1.56332 0
M  V30 5199 C 495.301 1.72509 -1.04129 0
M  V30 5200 O 494.357 2.4287 -0.690694 0
M  V30 5201 C 495.67 0.164469 -3.0025 0
M  V30 5202 C 497.218 0.236786 -3.12103 0
M  V30 5203 C 497.693 0.10864 -4.57871 0
M  V30 5204 N 499.184 0.165433 -4.62904 0
M  V30 5205 C 499.919 0.0901506 -5.73329 0
M  V30 5206 N 499.415 -0.0365606 -6.9279 0
M  V30 5207 N 501.208 0.144572 -5.61914 0
M  V30 5208 H 493.359 -0.952976 -1.89821 0
M  V30 5209 H 495.622 -0.368537 -0.873432 0
M  V30 5210 H 495.328 -0.802746 -3.42416 0
M  V30 5211 H 495.202 0.932194 -3.655 0
M  V30 5212 H 497.589 1.19446 -2.69845 0
M  V30 5213 H 497.67 -0.561419 -2.49563 0
M  V30 5214 H 497.314 -0.845644 -5.00811 0
M  V30 5215 H 497.244 0.925786 -5.18398 0
M  V30 5216 H 499.735 0.263269 -3.76982 0
M  V30 5217 H 500.048 -0.0871487 -7.72751 0
M  V30 5218 H 498.393 -0.0714256 -6.94963 0
M  V30 5219 H 501.584 0.242006 -4.67474 0
M  V30 5220 H 501.757 0.0824413 -6.47948 0
M  V30 5221 N 495.163 1.55791 0.238111 0
M  V30 5222 C 496.412 1.77234 0.962868 0
M  V30 5223 C 496.725 0.600661 1.86149 0
M  V30 5224 O 497.931 0.698315 2.62366 0
M  V30 5225 C 496.387 3.13808 1.76218 0
M  V30 5226 C 495.995 4.3865 0.910518 0
M  V30 5227 C 497.739 3.44585 2.47914 0
M  V30 5228 C 495.646 5.66252 1.70623 0
M  V30 5229 H 494.576 0.660731 0.36325 0
M  V30 5230 H 497.227 1.8221 0.217242 0
M  V30 5231 H 495.609 3.02963 2.55009 0
M  V30 5232 H 496.783 4.60507 0.164316 0
M  V30 5233 H 495.098 4.15271 0.30647 0
M  V30 5234 H 497.695 4.3714 3.07917 0
M  V30 5235 H 498.038 2.66314 3.19973 0
M  V30 5236 H 498.571 3.56685 1.76127 0
M  V30 5237 H 495.31 6.47369 1.02923 0
M  V30 5238 H 494.83 5.48483 2.42748 0
M  V30 5239 H 496.509 6.05829 2.27114 0
M  V30 5240 N 496.642 -0.504142 1.49319 0
M  V30 5241 C 497.87 -1.28256 1.62351 0
M  V30 5242 C 498.285 -1.86502 0.293682 0
M  V30 5243 O 497.642 -1.67678 -0.720449 0
M  V30 5244 C 497.693 -2.41507 2.68992 0
M  V30 5245 O 497.414 -1.85656 3.96817 0
M  V30 5246 C 498.915 -3.32929 2.927 0
M  V30 5247 H 496.135 -0.389115 0.546654 0
M  V30 5248 H 498.679 -0.605531 1.95329 0
M  V30 5249 H 496.834 -3.05046 2.38801 0
M  V30 5250 H 497.248 -2.59981 4.55533 0
M  V30 5251 H 498.722 -4.0868 3.71058 0
M  V30 5252 H 499.199 -3.89733 2.02496 0
M  V30 5253 H 499.805 -2.75158 3.24296 0
M  V30 5254 N 498.12 -1.38341 -0.754957 0
M  V30 5255 C 499.366 -1.34672 -1.51628 0
M  V30 5256 C 499.699 0.0636036 -1.94096 0
M  V30 5257 O 498.974 1.0245 -1.6533 0
M  V30 5258 C 499.257 -2.30116 -2.76981 0
M  V30 5259 C 499.11 -3.80003 -2.4066 0
M  V30 5260 C 500.429 -2.23715 -3.78998 0
M  V30 5261 H 497.548 -0.490517 -0.550056 0
M  V30 5262 H 500.19 -1.69178 -0.864807 0
M  V30 5263 H 498.34 -2.00821 -3.3257 0
M  V30 5264 H 500.012 -4.19966 -1.90856 0
M  V30 5265 H 498.255 -3.97751 -1.73137 0
M  V30 5266 H 498.926 -4.42244 -3.30339 0
M  V30 5267 H 501.402 -2.49574 -3.32945 0
M  V30 5268 H 500.278 -2.9261 -4.64403 0
M  V30 5269 H 500.539 -1.23554 -4.24484 0
M  V30 5270 N 499.598 0.982988 -1.23187 0
M  V30 5271 C 500.846 1.72052 -1.06031 0
M  V30 5272 C 501.167 1.90769 0.404019 0
M  V30 5273 O 500.437 1.47446 1.28982 0
M  V30 5274 H 499.017 0.637499 -0.389363 0
M  V30 5275 H 501.679 1.18338 -1.54862 0
M  V30 5276 H 500.775 2.7111 -1.54615 0
M  V30 5277 N 501.076 1.04316 1.18135 0
M  V30 5278 C 502.304 0.768117 1.92113 0
M  V30 5279 C 502.719 -0.675057 1.76319 0
M  V30 5280 O 502.076 -1.46038 1.09449 0
M  V30 5281 C 502.127 1.12808 3.43448 0
M  V30 5282 O 501.848 2.5146 3.58747 0
M  V30 5283 C 503.349 0.8779 4.3452 0
M  V30 5284 H 500.569 0.279937 0.609817 0
M  V30 5285 H 503.113 1.39149 1.49859 0
M  V30 5286 H 501.268 0.549623 3.83481 0
M  V30 5287 H 501.682 2.65313 4.52448 0
M  V30 5288 H 503.156 1.17959 5.39249 0
M  V30 5289 H 503.633 -0.187239 4.38801 0
M  V30 5290 H 504.239 1.43977 4.00188 0
M  V30 5291 N 502.554 -1.34406 0.822964 0
M  V30 5292 C 503.97 -1.51275 0.508727 0
M  V30 5293 C 504.17 -1.76776 -0.967083 0
M  V30 5294 O 503.226 -1.81871 -1.75155 0
M  V30 5295 C 504.539 -2.67765 1.36829 0
M  V30 5296 C 506.087 -2.81647 1.36542 0
M  V30 5297 C 506.562 -4.01181 2.20947 0
M  V30 5298 N 508.053 -4.08388 2.18571 0
M  V30 5299 C 508.788 -5.00036 2.80627 0
M  V30 5300 N 508.284 -5.96906 3.51674 0
M  V30 5301 N 510.077 -4.92908 2.70181 0
M  V30 5302 H 502.228 -1.16113 1.77852 0
M  V30 5303 H 504.491 -0.56947 0.757897 0
M  V30 5304 H 504.197 -2.55551 2.41633 0
M  V30 5305 H 504.071 -3.62779 1.03303 0
M  V30 5306 H 506.458 -2.93303 0.325163 0
M  V30 5307 H 506.539 -1.87443 1.74066 0
M  V30 5308 H 506.183 -3.90286 3.25022 0
M  V30 5309 H 506.113 -4.94599 1.80774 0
M  V30 5310 H 508.604 -3.39051 1.66891 0
M  V30 5311 H 508.917 -6.63468 3.96271 0
M  V30 5312 H 507.262 -5.9703 3.5578 0
M  V30 5313 H 510.453 -4.1619 2.14251 0
M  V30 5314 H 510.626 -5.64137 3.18831 0
M  V30 5315 N 504.032 -0.577932 -1.46621 0
M  V30 5316 C 504.942 0.160651 -2.34049 0
M  V30 5317 C 505.958 0.890911 -1.49462 0
M  V30 5318 O 507.134 0.855166 -1.82343 0
M  V30 5319 C 504.199 1.16447 -3.26559 0
M  V30 5320 C 503.26 0.4394 -4.27045 0
M  V30 5321 C 502.493 1.3954 -5.15135 0
M  V30 5322 O 502.716 2.63162 -5.06065 0
M  V30 5323 O 501.65 0.908585 -5.95003 0
M  V30 5324 H 505.476 -0.557057 -2.98547 0
M  V30 5325 H 503.061 -0.338369 -1.45518 0
M  V30 5326 H 504.943 1.7434 -3.83645 0
M  V30 5327 H 503.618 1.86373 -2.64663 0
M  V30 5328 H 502.525 -0.181247 -3.73661 0
M  V30 5329 H 503.858 -0.218799 -4.91713 0
M  V30 5330 N 505.51 1.54411 -0.315457 0
M  V30 5331 C 506.42 2.27737 0.56329 0
M  V30 5332 C 507.436 1.31787 1.13614 0
M  V30 5333 O 508.612 1.64791 1.15784 0
M  V30 5334 C 505.677 3.01478 1.71207 0
M  V30 5335 C 504.738 4.12997 1.17185 0
M  V30 5336 C 503.971 4.83212 2.26588 0
M  V30 5337 O 504.194 4.52884 3.46775 0
M  V30 5338 O 503.128 5.70299 1.92463 0
M  V30 5339 H 506.954 3.03683 -0.0319614 0
M  V30 5340 H 504.539 1.49178 -0.0814188 0
M  V30 5341 H 506.421 3.47683 2.38106 0
M  V30 5342 H 505.096 2.28414 2.29366 0
M  V30 5343 H 504.003 3.71159 0.468174 0
M  V30 5344 H 505.336 4.8808 0.635501 0
M  V30 5345 N 506.988 0.0434614 1.5754 0
M  V30 5346 C 508.213 -0.645358 1.97104 0
M  V30 5347 C 508.638 -1.64037 0.920521 0
M  V30 5348 O 507.996 -1.80922 -0.11708 0
M  V30 5349 C 508.044 -1.31547 3.35749 0
M  V30 5350 O 507.148 -2.43103 3.33129 0
M  V30 5351 H 506.489 -0.168403 0.64229 0
M  V30 5352 H 509.019 0.109573 2.04306 0
M  V30 5353 H 509.029 -1.66895 3.72304 0
M  V30 5354 H 507.704 -0.586205 4.11748 0
M  V30 5355 H 506.281 -2.0976 3.0831 0
M  V30 5356 N 508.466 -1.55915 -0.229846 0
M  V30 5357 C 509.398 -1.88209 -1.30805 0
M  V30 5358 C 510.411 -0.769672 -1.43457 0
M  V30 5359 O 511.6 -1.04792 -1.44502 0
M  V30 5360 C 508.7 -2.06829 -2.68468 0
M  V30 5361 C 507.873 -3.37798 -2.77869 0
M  V30 5362 C 506.932 -3.45952 -3.96489 0
M  V30 5363 O 505.958 -4.19043 -3.85216 0
M  V30 5364 N 507.16 -2.76488 -5.10426 0
M  V30 5365 H 509.925 -2.81286 -1.03431 0
M  V30 5366 H 507.486 -1.5636 -0.41991 0
M  V30 5367 H 509.478 -2.09608 -3.46189 0
M  V30 5368 H 508.048 -1.20416 -2.88477 0
M  V30 5369 H 507.268 -3.4719 -1.86689 0
M  V30 5370 H 508.556 -4.24091 -2.81113 0
M  V30 5371 H 507.954 -2.16868 -5.2248 0
M  V30 5372 H 506.511 -2.84938 -5.8622 0
M  V30 5373 N 509.944 0.496216 -1.49584 0
M  V30 5374 C 511.36 0.827814 -1.36453 0
M  V30 5375 C 511.56 1.97464 -0.401285 0
M  V30 5376 O 510.616 2.51958 0.165296 0
M  V30 5377 C 511.929 1.16352 -2.77277 0
M  V30 5378 C 513.477 1.27145 -2.86013 0
M  V30 5379 C 513.952 1.64042 -4.27615 0
M  V30 5380 N 515.443 1.71082 -4.30448 0
M  V30 5381 C 516.178 2.01085 -5.36984 0
M  V30 5382 N 515.674 2.2928 -6.5376 0
M  V30 5383 N 517.467 2.02376 -5.24405 0
M  V30 5384 H 509.618 -0.259947 -2.10803 0
M  V30 5385 H 511.881 -0.0537163 -0.946477 0
M  V30 5386 H 511.587 0.394153 -3.49484 0
M  V30 5387 H 511.461 2.10582 -3.12946 0
M  V30 5388 H 513.848 2.03152 -2.1404 0
M  V30 5389 H 513.929 0.309542 -2.5392 0
M  V30 5390 H 513.573 0.88583 -5.00115 0
M  V30 5391 H 513.503 2.6134 -4.57175 0
M  V30 5392 H 515.994 1.51434 -3.46232 0
M  V30 5393 H 516.307 2.51376 -7.30774 0
M  V30 5394 H 514.652 2.26726 -6.56978 0
M  V30 5395 H 517.843 1.79829 -4.32179 0
M  V30 5396 H 518.016 2.25425 -6.07526 0
M  V30 5397 N 511.423 1.38739 0.74761 0
M  V30 5398 C 512.669 1.35475 1.50912 0
M  V30 5399 C 513.002 -0.0533093 1.94127 0
M  V30 5400 O 512.277 -1.01572 1.65871 0
M  V30 5401 C 512.56 2.31582 2.75757 0
M  V30 5402 C 512.413 3.81274 2.38642 0
M  V30 5403 C 513.732 2.25722 3.77806 0
M  V30 5404 H 510.851 0.493427 0.547447 0
M  V30 5405 H 513.493 1.69634 0.855823 0
M  V30 5406 H 511.643 2.02582 3.31501 0
M  V30 5407 H 513.315 4.20972 1.88626 0
M  V30 5408 H 511.558 3.98664 1.71025 0
M  V30 5409 H 512.229 4.4399 3.27989 0
M  V30 5410 H 514.705 2.51336 3.31616 0
M  V30 5411 H 513.581 2.95069 4.62845 0
M  V30 5412 H 513.842 1.25803 4.23823 0
M  V30 5413 N 512.901 -0.976442 1.23707 0
M  V30 5414 C 514.15 -1.71254 1.06559 0
M  V30 5415 C 514.463 -1.91528 -0.397024 0
M  V30 5416 O 515.669 -2.62625 -0.688518 0
M  V30 5417 C 514.125 -3.08207 1.8584 0
M  V30 5418 C 513.733 -2.95806 3.36456 0
M  V30 5419 C 515.477 -3.85749 1.77194 0
M  V30 5420 C 513.384 -4.28015 4.08114 0
M  V30 5421 H 512.314 -0.642171 0.395136 0
M  V30 5422 H 514.965 -1.08877 1.4771 0
M  V30 5423 H 513.347 -3.71363 1.37498 0
M  V30 5424 H 514.521 -2.41716 3.92314 0
M  V30 5425 H 512.836 -2.31736 3.45959 0
M  V30 5426 H 515.433 -4.83633 2.28041 0
M  V30 5427 H 515.776 -4.09752 0.735477 0
M  V30 5428 H 516.309 -3.29303 2.23169 0
M  V30 5429 H 513.048 -4.09208 5.12083 0
M  V30 5430 H 512.568 -4.81955 3.57043 0
M  V30 5431 H 514.247 -4.96681 4.14629 0
M  V30 5432 N 514.379 -1.04941 -1.1758 0
M  V30 5433 C 515.656 -0.671918 -1.83697 0
M  V30 5434 C 516.036 0.847929 -1.93322 0
M  V30 5435 O 515.384 1.75287 -1.46583 0
M  V30 5436 C 515.594 -1.35797 -3.21497 0
M  V30 5437 C 516.942 -1.4944 -3.97433 0
M  V30 5438 O 517.966 -1.31678 -3.30967 0
M  V30 5439 O 516.825 -1.78463 -5.1654 0
M  V30 5440 H 513.919 -0.236212 -0.792548 0
M  V30 5441 H 516.465 -1.14884 -1.24899 0
M  V30 5442 H 515.237 -2.39498 -3.09446 0
M  V30 5443 H 514.86 -0.870236 -3.8796 0
M  V30 5444 N 515.857 1.33968 -0.830081 0
M  V30 5445 C 516.82 2.27694 -0.26235 0
M  V30 5446 C 517.82 1.50589 0.563876 0
M  V30 5447 O 519.01 1.70028 0.378941 0
M  V30 5448 C 516.142 3.35002 0.63138 0
M  V30 5449 H 517.335 2.79419 -1.08928 0
M  V30 5450 H 514.888 1.44221 -0.602486 0
M  V30 5451 H 515.623 2.88504 1.48109 0
M  V30 5452 H 515.408 3.92079 0.0403276 0
M  V30 5453 H 516.898 4.04897 1.02217 0
M  V30 5454 N 517.335 0.585699 1.46312 0
M  V30 5455 C 518.265 -0.133556 2.33118 0
M  V30 5456 C 519.246 -0.880707 1.45525 0
M  V30 5457 O 520.431 -0.855579 1.74337 0
M  V30 5458 C 517.561 -1.14585 3.27853 0
M  V30 5459 C 516.515 -0.513341 4.2491 0
M  V30 5460 C 515.841 -1.63231 5.09175 0
M  V30 5461 C 517.141 0.551413 5.19381 0
M  V30 5462 H 518.835 0.59121 2.93505 0
M  V30 5463 H 516.381 0.285761 1.41136 0
M  V30 5464 H 518.334 -1.65741 3.87438 0
M  V30 5465 H 517.058 -1.90093 2.65579 0
M  V30 5466 H 515.717 -0.0228349 3.66593 0
M  V30 5467 H 515.365 -2.37713 4.43285 0
M  V30 5468 H 515.065 -1.21473 5.74907 0
M  V30 5469 H 516.589 -2.14658 5.71624 0
M  V30 5470 H 518.003 0.124804 5.73164 0
M  V30 5471 H 516.4 0.889486 5.93471 0
M  V30 5472 H 517.47 1.43655 4.63132 0
M  V30 5473 N 518.813 -1.54241 0.323641 0
M  V30 5474 C 520.229 -1.59574 -0.0290018 0
M  V30 5475 C 520.429 -1.34017 -1.50472 0
M  V30 5476 O 519.485 -1.12464 -2.26071 0
M  V30 5477 C 520.798 -2.98169 0.389295 0
M  V30 5478 C 522.346 -3.11148 0.339958 0
M  V30 5479 C 522.821 -4.5209 0.733418 0
M  V30 5480 N 524.312 -4.5808 0.686827 0
M  V30 5481 C 525.047 -5.65248 0.963464 0
M  V30 5482 N 524.543 -6.80355 1.30724 0
M  V30 5483 N 526.336 -5.55025 0.88902 0
M  V30 5484 H 518.487 -1.6911 1.28512 0
M  V30 5485 H 520.75 -0.790972 0.522558 0
M  V30 5486 H 520.456 -3.21871 1.41746 0
M  V30 5487 H 520.33 -3.76399 -0.245657 0
M  V30 5488 H 522.717 -2.87182 -0.679002 0
M  V30 5489 H 522.798 -2.35023 1.00985 0
M  V30 5490 H 522.442 -4.76788 1.75029 0
M  V30 5491 H 522.372 -5.26584 0.0412189 0
M  V30 5492 H 524.863 -3.75411 0.43298 0
M  V30 5493 H 525.176 -7.58029 1.5037 0
M  V30 5494 H 523.521 -6.81851 1.3455 0
M  V30 5495 H 526.712 -4.63977 0.619939 0
M  V30 5496 H 526.885 -6.38458 1.10797 0
M  V30 5497 N 520.291 -0.0518155 -1.57515 0
M  V30 5498 C 521.254 0.907547 -2.10467 0
M  V30 5499 C 522.254 1.23947 -1.02439 0
M  V30 5500 O 523.444 1.17604 -1.2851 0
M  V30 5501 C 520.576 2.21723 -2.58944 0
M  V30 5502 H 521.769 0.44851 -2.96527 0
M  V30 5503 H 519.322 0.196598 -1.55059 0
M  V30 5504 H 520.057 2.72206 -1.76279 0
M  V30 5505 H 519.842 1.98935 -3.37886 0
M  V30 5506 H 521.332 2.90441 -3.00056 0
M  V30 5507 N 521.769 1.56035 0.221574 0
M  V30 5508 C 522.679 1.95581 1.29558 0
M  V30 5509 C 523.695 0.859639 1.51282 0
M  V30 5510 O 524.871 1.16321 1.64413 0
M  V30 5511 C 521.936 2.26447 2.62531 0
M  V30 5512 C 520.997 3.49632 2.4911 0
M  V30 5513 C 520.23 3.79017 3.75742 0
M  V30 5514 O 520.453 3.10077 4.78757 0
M  V30 5515 O 519.387 4.72507 3.72855 0
M  V30 5516 H 523.213 2.8711 0.990035 0
M  V30 5517 H 520.798 1.43244 0.424434 0
M  V30 5518 H 522.68 2.47494 3.41064 0
M  V30 5519 H 521.355 1.38092 2.92766 0
M  V30 5520 H 520.262 3.33864 1.68777 0
M  V30 5521 H 521.595 4.3837 2.23814 0
M  V30 5522 N 523.247 -0.488276 1.49845 0
M  V30 5523 C 524.179 -1.60539 1.63584 0
M  V30 5524 C 525.192 -1.5434 0.517972 0
M  V30 5525 O 526.381 -1.60041 0.790516 0
M  V30 5526 C 523.481 -2.99374 1.58835 0
M  V30 5527 C 522.654 -3.30624 2.86368 0
M  V30 5528 C 521.713 -4.4893 2.74496 0
M  V30 5529 O 520.739 -4.50085 3.48443 0
M  V30 5530 N 521.941 -5.49591 1.86894 0
M  V30 5531 H 524.706 -1.49176 2.59936 0
M  V30 5532 H 522.267 -0.67639 1.47094 0
M  V30 5533 H 524.259 -3.76459 1.48529 0
M  V30 5534 H 522.829 -3.04595 0.702892 0
M  V30 5535 H 522.049 -2.42314 3.1093 0
M  V30 5536 H 523.337 -3.48305 3.70892 0
M  V30 5537 H 522.735 -5.51467 1.26097 0
M  V30 5538 H 521.292 -6.25728 1.82503 0
M  V30 5539 N 524.725 -1.39134 -0.740242 0
M  V30 5540 C 525.971 -1.36273 -1.50192 0
M  V30 5541 C 526.304 0.0430136 -1.94152 0
M  V30 5542 O 525.579 1.00691 -1.66408 0
M  V30 5543 C 525.862 -2.33041 -2.74525 0
M  V30 5544 C 525.715 -3.82535 -2.36617 0
M  V30 5545 C 527.034 -2.27723 -3.76604 0
M  V30 5546 H 524.153 -0.496323 -0.544823 0
M  V30 5547 H 526.795 -1.70085 -0.846815 0
M  V30 5548 H 524.945 -2.04337 -3.30422 0
M  V30 5549 H 526.617 -4.21967 -1.86391 0
M  V30 5550 H 524.86 -3.99565 -1.68909 0
M  V30 5551 H 525.531 -4.45723 -3.2563 0
M  V30 5552 H 528.007 -2.53091 -3.30279 0
M  V30 5553 H 526.883 -2.97519 -4.61274 0
M  V30 5554 H 527.144 -1.28049 -4.2315 0
M  V30 5555 O 526.242 0.881206 -1.3534 0
M  V30 5556 H 526.933 1.51869 -1.20231 0
M  V30 END ATOM
M  V30 BEGIN BOND
M  V30 END BOND
M  V30 END CTAB
M  END
$$$$
