drugbank_target|Q9ULA0 Aspartyl aminopeptidase (DB00142)
 OpenBabel12092120083D

  0  0  0     0  0            999 V3000
M  V30 BEGIN CTAB
M  V30 COUNTS 7384 7462 0 0 0
M  V30 BEGIN ATOM
M  V30 1 H -0.908 1.98254 -0.117106 0
M  V30 2 N 0 1.576 0 0
M  V30 3 C 0.933 2.03868 1.02534 0
M  V30 4 C 1.911 0.928543 1.3348 0
M  V30 5 O 3.095 1.19667 1.45644 0
M  V30 6 C 0.222 2.43627 2.35294 0
M  V30 7 C -0.732 3.65373 2.2001 0
M  V30 8 S 0.101 5.13292 1.52614 0
M  V30 9 C 1.257 5.56322 2.86805 0
M  V30 10 H 1.49 2.90518 0.631377 0
M  V30 11 H -0.977 1.52953 0.210867 0
M  V30 12 H 0.981 2.67203 3.11629 0
M  V30 13 H -0.358 1.57376 2.7183 0
M  V30 14 H -1.165 3.90944 3.18086 0
M  V30 15 H -1.563 3.418 1.51819 0
M  V30 16 H 0.729 5.58782 3.83104 0
M  V30 17 H 1.672 6.56266 2.65933 0
M  V30 18 H 2.08 4.83886 2.90714 0
M  V30 19 N 1.4781 -0.272755 1.55222 0
M  V30 20 C 2.4101 -1.35946 1.8453 0
M  V30 21 C 3.4231 -1.45525 0.729818 0
M  V30 22 O 4.6121 -1.47337 1.00767 0
M  V30 23 C 1.7121 -2.74069 1.99347 0
M  V30 24 C 0.8851 -2.87079 3.30007 0
M  V30 25 C -0.0559 -4.05879 3.34886 0
M  V30 26 O -1.0299 -3.96626 4.08261 0
M  V30 27 N 0.1721 -5.17857 2.62307 0
M  V30 28 H 2.9371 -1.11149 2.78327 0
M  V30 29 H 0.4981 -0.462869 1.55142 0
M  V30 30 H 2.4901 -3.51838 1.99981 0
M  V30 31 H 1.0601 -2.91688 1.12415 0
M  V30 32 H 0.2801 -1.96193 3.41909 0
M  V30 33 H 1.5681 -2.92701 4.16177 0
M  V30 34 H 0.9661 -5.28261 2.02377 0
M  V30 35 H -0.4769 -5.93855 2.68663 0
M  V30 36 N 2.9562 -1.48159 -0.537278 0
M  V30 37 C 4.2022 -1.56035 -1.29541 0
M  V30 38 C 4.5352 -0.230377 -1.92829 0
M  V30 39 O 3.8102 0.762952 -1.78911 0
M  V30 40 C 4.0932 -2.69323 -2.39034 0
M  V30 41 C 3.9462 -4.12002 -1.80485 0
M  V30 42 C 5.2652 -2.78408 -3.40847 0
M  V30 43 H 2.3842 -0.567992 -0.469632 0
M  V30 44 H 5.0262 -1.80302 -0.599277 0
M  V30 45 H 3.1762 -2.48763 -2.98412 0
M  V30 46 H 4.8482 -4.43981 -1.25215 0
M  V30 47 H 3.0912 -4.19344 -1.11055 0
M  V30 48 H 3.7622 -4.87077 -2.59731 0
M  V30 49 H 6.2382 -2.97012 -2.91416 0
M  V30 50 H 5.1142 -3.59416 -4.14863 0
M  V30 51 H 5.3752 -1.86269 -4.00944 0
M  V30 52 N 4.4343 0.785586 -1.36625 0
M  V30 53 C 5.3973 1.87999 -1.31107 0
M  V30 54 C 6.3973 1.59316 -0.217959 0
M  V30 55 O 7.5873 1.67656 -0.472977 0
M  V30 56 C 4.7193 3.24861 -1.03334 0
M  V30 57 H 5.9123 1.94307 -2.2844 0
M  V30 58 H 3.4653 0.983813 -1.21453 0
M  V30 59 H 4.2003 3.24235 -0.0647432 0
M  V30 60 H 3.9853 3.4707 -1.82441 0
M  V30 61 H 5.4753 4.04929 -1.02088 0
M  V30 62 N 5.9124 1.20967 1.01018 0
M  V30 63 C 6.8454 0.907578 2.09376 0
M  V30 64 C 7.8234 -0.142868 1.61971 0
M  V30 65 O 9.0074 -0.0150391 1.88494 0
M  V30 66 C 6.1344 0.361791 3.36762 0
M  V30 67 C 5.1804 1.39423 4.03068 0
M  V30 68 S 6.0134 2.96159 4.4615 0
M  V30 69 C 7.1694 2.43173 5.7673 0
M  V30 70 H 7.4024 1.82519 2.34678 0
M  V30 71 H 4.9354 1.03884 1.14225 0
M  V30 72 H 6.8934 0.0534523 4.10465 0
M  V30 73 H 5.5544 -0.53443 3.0952 0
M  V30 74 H 4.7474 0.961853 4.94737 0
M  V30 75 H 4.3494 1.65038 3.35617 0
M  V30 76 H 6.6414 1.83335 6.52223 0
M  V30 77 H 7.5844 3.33264 6.24773 0
M  V30 78 H 7.9924 1.85069 5.33301 0
M  V30 79 N 7.3905 -1.2043 1.01659 0
M  V30 80 C 8.3385 -2.25249 0.580143 0
M  V30 81 C 9.3325 -1.65057 -0.381115 0
M  V30 82 O 10.5385 -1.78241 -0.251039 0
M  V30 83 H 6.9135 -0.732695 0.169299 0
M  V30 84 H 8.8845 -2.59389 1.47512 0
M  V30 85 C 7.6335 -3.47638 -0.065788 0
M  V30 86 H 6.9565 -3.94233 0.664874 0
M  V30 87 H 8.3965 -4.2268 -0.334282 0
M  V30 88 C 6.8555 -3.10447 -1.3086 0
M  V30 89 O 7.3855 -3.21981 -2.4019 0
M  V30 90 N 5.5915 -2.64996 -1.1927 0
M  V30 91 H 5.1385 -2.55811 -0.303064 0
M  V30 92 H 5.0965 -2.40482 -2.02523 0
M  V30 93 N 8.8686 -0.792821 -1.36206 0
M  V30 94 C 10.1166 -0.366062 -1.98757 0
M  V30 95 C 10.4376 1.0668 -1.63231 0
M  V30 96 O 9.7076 1.73587 -0.907978 0
M  V30 97 H 8.2876 -0.132364 -0.735179 0
M  V30 98 H 10.9496 -1.01562 -1.66347 0
M  V30 99 H 10.0456 -0.460638 -3.08682 0
M  V30 100 N 10.3467 1.47872 -0.545128 0
M  V30 101 C 11.2937 2.29849 0.2093 0
M  V30 102 C 12.2637 1.38313 0.919707 0
M  V30 103 O 13.4487 1.67277 0.917772 0
M  V30 104 C 10.5887 3.22019 1.24088 0
M  V30 105 C 9.7017 4.2864 0.537778 0
M  V30 106 C 8.8367 5.07973 1.5536 0
M  V30 107 C 7.8757 6.06381 0.8348 0
M  V30 108 N 7.0127 6.78717 1.79688 0
M  V30 109 H 11.8527 2.93845 -0.49591 0
M  V30 110 H 9.3897 1.44848 -0.256389 0
M  V30 111 H 11.3477 3.73868 1.85144 0
M  V30 112 H 9.9777 2.59914 1.91428 0
M  V30 113 H 9.0297 3.7994 -0.187046 0
M  V30 114 H 10.3417 4.98793 -0.0258907 0
M  V30 115 H 9.4957 5.63912 2.23803 0
M  V30 116 H 8.2347 4.37693 2.15118 0
M  V30 117 H 7.2397 5.49631 0.136388 0
M  V30 118 H 8.4647 6.78665 0.24313 0
M  V30 119 H 6.4107 6.11177 2.38326 0
M  V30 120 H 6.3277 7.44998 1.28505 0
M  V30 121 H 7.5957 7.39237 2.47282 0
M  V30 122 N 11.8248 0.280983 1.55075 0
M  V30 123 C 12.7878 -0.590896 2.21452 0
M  V30 124 C 13.7878 -1.07682 1.19421 0
M  V30 125 O 14.9778 -0.97605 1.44288 0
M  V30 126 C 12.1098 -1.81587 2.88511 0
M  V30 127 H 13.3028 -0.0112554 2.99898 0
M  V30 128 H 10.8558 0.0316438 1.56268 0
M  V30 129 H 11.5908 -2.43587 2.14093 0
M  V30 130 H 11.3758 -1.4753 3.63287 0
M  V30 131 H 12.8658 -2.43575 3.39206 0
M  V30 132 N 13.3029 -1.57598 0.00835791 0
M  V30 133 C 14.7189 -1.55764 -0.347822 0
M  V30 134 C 14.9189 -1.01186 -1.74252 0
M  V30 135 O 13.9749 -0.649371 -2.44007 0
M  V30 136 C 15.2879 -2.99927 -0.215407 0
M  V30 137 C 16.8359 -3.11656 -0.289725 0
M  V30 138 C 17.3109 -4.57621 -0.18634 0
M  V30 139 N 18.8019 -4.62557 -0.243978 0
M  V30 140 C 19.5369 -5.73094 -0.18745 0
M  V30 141 N 19.0329 -6.92753 -0.0810331 0
M  V30 142 N 20.8259 -5.61588 -0.239925 0
M  V30 143 H 12.9769 -1.91411 0.92062 0
M  V30 144 H 15.2399 -0.879562 0.353659 0
M  V30 145 H 14.9459 -3.43729 0.744512 0
M  V30 146 H 14.8199 -3.63865 -0.994097 0
M  V30 147 H 17.2069 -2.67779 -1.24009 0
M  V30 148 H 17.2879 -2.5048 0.51898 0
M  V30 149 H 16.9319 -5.02174 0.760519 0
M  V30 150 H 16.8619 -5.16752 -1.01364 0
M  V30 151 H 19.3529 -3.76481 -0.327217 0
M  V30 152 H 19.6659 -7.72787 -0.0440241 0
M  V30 153 H 18.0109 -6.94984 -0.0465419 0
M  V30 154 H 21.2019 -4.66996 -0.321317 0
M  V30 155 H 21.3749 -6.47714 -0.192407 0
M  V30 156 N 14.781 0.264519 -1.55364 0
M  V30 157 C 15.728 1.32717 -1.88825 0
M  V30 158 C 16.698 1.48675 -0.740605 0
M  V30 159 O 17.883 1.62945 -0.992657 0
M  V30 160 C 15.023 2.68089 -2.17307 0
M  V30 161 C 14.136 2.60284 -3.44785 0
M  V30 162 C 13.271 3.87892 -3.62924 0
M  V30 163 C 12.31 3.74631 -4.84064 0
M  V30 164 N 11.447 4.94092 -4.98816 0
M  V30 165 H 16.287 1.03481 -2.79456 0
M  V30 166 H 13.824 0.499757 -1.3835 0
M  V30 167 H 15.782 3.46864 -2.31821 0
M  V30 168 H 14.412 2.95509 -1.299 0
M  V30 169 H 13.464 1.73173 -3.38697 0
M  V30 170 H 14.776 2.46388 -4.33698 0
M  V30 171 H 13.93 4.75109 -3.77302 0
M  V30 172 H 12.669 4.04664 -2.7221 0
M  V30 173 H 11.674 2.85797 -4.69681 0
M  V30 174 H 12.899 3.5937 -5.76221 0
M  V30 175 H 10.845 5.11259 -4.11036 0
M  V30 176 H 10.762 4.8276 -5.81789 0
M  V30 177 H 12.03 5.82857 -5.17588 0
M  V30 178 N 16.2591 1.48442 0.529413 0
M  V30 179 C 17.1691 1.6569 1.66084 0
M  V30 180 C 18.1851 0.539432 1.65427 0
M  V30 181 O 19.3611 0.810572 1.84368 0
M  V30 182 C 16.4261 1.69315 3.02545 0
M  V30 183 C 15.4871 2.92694 3.14052 0
M  V30 184 C 14.7201 2.96137 4.44003 0
M  V30 185 O 14.9431 2.07973 5.31134 0
M  V30 186 O 13.8771 3.88312 4.59888 0
M  V30 187 H 17.7031 2.61483 1.54469 0
M  V30 188 H 15.2881 1.3185 0.702567 0
M  V30 189 H 17.1701 1.74217 3.83701 0
M  V30 190 H 15.8451 0.766966 3.14483 0
M  V30 191 H 14.7521 2.93324 2.32189 0
M  V30 192 H 16.0851 3.84699 3.0703 0
M  V30 193 N 17.7372 -0.778329 1.37039 0
M  V30 194 C 18.7002 -1.87301 1.32102 0
M  V30 195 C 19.7002 -1.59198 0.226405 0
M  V30 196 O 20.8902 -1.67403 0.481861 0
M  V30 197 C 18.0222 -3.24309 1.05055 0
M  V30 198 H 19.2152 -1.93093 2.29467 0
M  V30 199 H 16.7682 -0.977358 1.21973 0
M  V30 200 H 17.5032 -3.24196 0.0819373 0
M  V30 201 H 17.2882 -3.46098 1.84279 0
M  V30 202 H 18.7782 -4.04382 1.04234 0
M  V30 203 N 19.2153 -1.21501 -1.00376 0
M  V30 204 C 20.4613 -1.03452 -1.74429 0
M  V30 205 C 20.7943 0.430764 -1.89362 0
M  V30 206 O 20.0693 1.31962 -1.42886 0
M  V30 207 C 20.3523 -1.73375 -3.15615 0
M  V30 208 C 20.2053 -3.27431 -3.08397 0
M  V30 209 C 21.5243 -1.47732 -4.14564 0
M  V30 210 H 18.6433 -0.377226 -0.633143 0
M  V30 211 H 21.2853 -1.49693 -1.17013 0
M  V30 212 H 19.4353 -1.34064 -3.64636 0
M  V30 213 H 21.1073 -3.76119 -2.67081 0
M  V30 214 H 19.3503 -3.5767 -2.45468 0
M  V30 215 H 20.0213 -3.71524 -4.08258 0
M  V30 216 H 22.4973 -1.8186 -3.74254 0
M  V30 217 H 21.3733 -1.99169 -5.11491 0
M  V30 218 H 21.6343 -0.407589 -4.40217 0
M  V30 219 N 20.6934 1.19889 -1.02296 0
M  V30 220 C 21.6254 2.22334 -0.556787 0
M  V30 221 C 22.6384 1.58674 0.364199 0
M  V30 222 O 23.8274 1.77768 0.161533 0
M  V30 223 C 20.9274 3.38257 0.208694 0
M  V30 224 C 20.1004 4.31504 -0.71577 0
M  V30 225 C 19.1594 5.262 0.00325597 0
M  V30 226 O 18.1854 5.65798 -0.621357 0
M  V30 227 N 19.3874 5.66303 1.27599 0
M  V30 228 H 22.1524 2.62957 -1.43784 0
M  V30 229 H 19.7134 1.34495 -0.901261 0
M  V30 230 H 21.7054 3.98616 0.699111 0
M  V30 231 H 20.2754 2.96472 0.991102 0
M  V30 232 H 19.4954 3.69016 -1.38638 0
M  V30 233 H 20.7834 4.9072 -1.34428 0
M  V30 234 H 20.1814 5.36155 1.80429 0
M  V30 235 H 18.7384 6.28942 1.71102 0
M  V30 236 N 22.1715 0.800033 1.35784 0
M  V30 237 C 23.3995 0.389606 2.03199 0
M  V30 238 C 23.8145 -0.997375 1.60306 0
M  V30 239 O 23.1715 -1.64154 0.797481 0
M  V30 240 C 23.2225 0.455855 3.58614 0
M  V30 241 O 22.9435 1.78815 3.99946 0
M  V30 242 C 24.4445 0.0374032 4.43284 0
M  V30 243 H 21.6645 0.159132 0.651857 0
M  V30 244 H 24.2085 1.08183 1.73541 0
M  V30 245 H 22.3635 -0.188057 3.86943 0
M  V30 246 H 22.7775 1.74636 4.94573 0
M  V30 247 H 24.2515 0.134882 5.51835 0
M  V30 248 H 24.7285 -1.01651 4.27275 0
M  V30 249 H 25.3345 0.654215 4.20238 0
M  V30 250 N 23.6496 -1.47581 0.552962 0
M  V30 251 C 24.6126 -2.28439 -0.186605 0
M  V30 252 C 25.6126 -1.36706 -0.84665 0
M  V30 253 O 26.8026 -1.59378 -0.703164 0
M  V30 254 C 23.9346 -3.16264 -1.2724 0
M  V30 255 H 25.1276 -2.95294 0.523609 0
M  V30 256 H 22.6806 -1.532 0.309745 0
M  V30 257 H 23.4156 -2.54091 -2.01514 0
M  V30 258 H 23.2006 -3.83769 -0.803968 0
M  V30 259 H 24.6906 -3.77198 -1.79196 0
M  V30 260 N 25.1277 -0.289203 -1.54924 0
M  V30 261 C 26.0907 0.579144 -2.21762 0
M  V30 262 C 27.0907 1.07047 -1.1999 0
M  V30 263 O 28.2807 0.968384 -1.44803 0
M  V30 264 C 25.4127 1.80055 -2.8947 0
M  V30 265 H 26.6057 -0.00464908 -2.999 0
M  V30 266 H 24.1587 -0.0399306 -1.56249 0
M  V30 267 H 24.8937 2.42449 -2.15381 0
M  V30 268 H 24.6787 1.45602 -3.64064 0
M  V30 269 H 26.1687 2.41773 -3.40493 0
M  V30 270 N 26.6058 1.57591 -0.0167156 0
M  V30 271 C 27.5528 2.09462 0.969251 0
M  V30 272 C 28.5228 0.99381 1.33089 0
M  V30 273 O 29.7078 1.26726 1.42636 0
M  V30 274 C 26.8478 2.61622 2.25051 0
M  V30 275 C 25.9608 3.85666 1.94642 0
M  V30 276 C 25.0958 4.26266 3.16972 0
M  V30 277 C 24.1348 5.43101 2.82326 0
M  V30 278 N 23.2718 5.78915 3.97243 0
M  V30 279 H 28.1118 2.93428 0.519997 0
M  V30 280 H 25.6488 1.45044 0.245087 0
M  V30 281 H 27.6068 2.89949 2.99976 0
M  V30 282 H 26.2368 1.80505 2.67615 0
M  V30 283 H 25.2888 3.64145 1.10013 0
M  V30 284 H 26.6008 4.70678 1.65117 0
M  V30 285 H 25.7548 4.55963 4.00228 0
M  V30 286 H 24.4938 3.39996 3.49648 0
M  V30 287 H 23.4988 5.1311 1.97479 0
M  V30 288 H 24.7238 6.3106 2.50879 0
M  V30 289 H 22.6698 4.95602 4.29785 0
M  V30 290 H 22.5868 6.58539 3.71299 0
M  V30 291 H 23.8548 6.13212 4.81239 0
M  V30 292 N 28.0839 -0.256276 1.55502 0
M  V30 293 C 28.9939 -1.33882 1.92647 0
M  V30 294 C 30.0099 -1.53159 0.825727 0
M  V30 295 O 31.1859 -1.66963 1.12629 0
M  V30 296 C 28.2509 -2.6751 2.20543 0
M  V30 297 C 27.3119 -2.56836 3.43997 0
M  V30 298 C 26.5449 -3.84092 3.70553 0
M  V30 299 O 26.7679 -4.85545 2.99336 0
M  V30 300 O 25.7019 -3.83288 4.64084 0
M  V30 301 H 29.5279 -1.05374 2.84833 0
M  V30 302 H 27.1129 -0.456237 1.42263 0
M  V30 303 H 28.9949 -3.46492 2.39835 0
M  V30 304 H 27.6699 -2.9577 1.31536 0
M  V30 305 H 26.5769 -1.76172 3.30021 0
M  V30 306 H 27.9099 -2.33523 4.33275 0
M  V30 307 N 29.562 -1.4872 -0.521534 0
M  V30 308 C 30.492 -1.66771 -1.63431 0
M  V30 309 C 31.473 -0.516499 -1.62069 0
M  V30 310 O 32.658 -0.750013 -1.79132 0
M  V30 311 C 29.788 -1.71515 -3.01993 0
M  V30 312 C 28.742 -2.86222 -3.18216 0
M  V30 313 C 28.068 -2.76061 -4.57924 0
M  V30 314 C 29.368 -4.27419 -3.00184 0
M  V30 315 H 31.062 -2.59932 -1.48579 0
M  V30 316 H 28.608 -1.25089 -0.713358 0
M  V30 317 H 30.561 -1.82731 -3.7972 0
M  V30 318 H 29.285 -0.749393 -3.17886 0
M  V30 319 H 27.944 -2.74575 -2.42908 0
M  V30 320 H 27.592 -1.77437 -4.70665 0
M  V30 321 H 27.292 -3.53037 -4.69722 0
M  V30 322 H 28.816 -2.89256 -5.37739 0
M  V30 323 H 30.23 -4.39855 -3.67697 0
M  V30 324 H 28.627 -5.05458 -3.2347 0
M  V30 325 H 29.697 -4.43293 -1.96518 0
M  V30 326 N 31.0401 0.771051 -1.3745 0
M  V30 327 C 31.9701 1.89827 -1.3597 0
M  V30 328 C 32.9511 1.68562 -0.228216 0
M  V30 329 O 34.1361 1.8941 -0.428675 0
M  V30 330 C 31.2661 3.2712 -1.16662 0
M  V30 331 C 30.2201 3.6295 -2.2683 0
M  V30 332 C 29.5461 4.98791 -1.92644 0
M  V30 333 C 30.8461 3.69627 -3.69017 0
M  V30 334 H 32.5401 1.91323 -2.30295 0
M  V30 335 H 30.0861 0.919082 -1.10855 0
M  V30 336 H 32.0391 4.05615 -1.14256 0
M  V30 337 H 30.7631 3.26059 -0.187926 0
M  V30 338 H 29.4221 2.86763 -2.28392 0
M  V30 339 H 29.0701 4.94271 -0.933021 0
M  V30 340 H 28.7701 5.23733 -2.66416 0
M  V30 341 H 30.2941 5.79685 -1.91826 0
M  V30 342 H 31.7081 4.38273 -3.69581 0
M  V30 343 H 30.1051 4.06067 -4.41848 0
M  V30 344 H 31.1751 2.70273 -4.02592 0
M  V30 345 N 32.5182 1.22032 0.997298 0
M  V30 346 C 33.4652 0.986467 2.08656 0
M  V30 347 C 34.4352 -0.0902671 1.65855 0
M  V30 348 O 35.6202 0.0584294 1.90711 0
M  V30 349 C 32.7602 0.565569 3.40434 0
M  V30 350 C 31.8732 1.71259 3.96604 0
M  V30 351 C 31.0082 1.24011 5.16522 0
M  V30 352 C 30.0472 2.35896 5.64818 0
M  V30 353 N 29.1842 1.89726 6.7598 0
M  V30 354 H 34.0242 1.91892 2.27994 0
M  V30 355 H 31.5612 0.956199 1.11782 0
M  V30 356 H 33.5192 0.302738 4.161 0
M  V30 357 H 32.1492 -0.329879 3.2111 0
M  V30 358 H 31.2012 2.08986 3.17851 0
M  V30 359 H 32.5132 2.55436 4.28432 0
M  V30 360 H 31.6672 0.934395 5.99461 0
M  V30 361 H 30.4062 0.368487 4.86306 0
M  V30 362 H 29.4112 2.67261 4.8047 0
M  V30 363 H 30.6362 3.23567 5.97061 0
M  V30 364 H 28.5822 1.0492 6.47555 0
M  V30 365 H 28.4992 2.67471 7.07103 0
M  V30 366 H 29.7672 1.62211 7.62435 0
M  V30 367 N 33.9963 -1.19345 1.0293 0
M  V30 368 C 35.2433 -1.89038 0.726008 0
M  V30 369 C 35.5713 -1.79649 -0.745427 0
M  V30 370 O 34.8263 -1.18354 -1.55855 0
M  V30 371 C 35.1253 -3.39292 1.12319 0
M  V30 372 C 34.7913 -3.68885 2.59297 0
M  V30 373 C 33.4533 -3.76671 2.99453 0
M  V30 374 C 35.8053 -3.82178 3.54386 0
M  V30 375 C 33.1333 -3.9522 4.33611 0
M  V30 376 C 35.4853 -4.0224 4.88248 0
M  V30 377 C 34.1493 -4.08259 5.28092 0
M  V30 378 H 33.4193 -0.691739 0.265665 0
M  V30 379 H 36.0663 -1.41328 1.29223 0
M  V30 380 H 34.3713 -3.88903 0.475584 0
M  V30 381 H 36.0683 -3.91536 0.866037 0
M  V30 382 H 32.6583 -3.63433 2.27189 0
M  V30 383 H 36.8423 -3.75505 3.24514 0
M  V30 384 H 32.0983 -3.98119 4.64016 0
M  V30 385 H 36.2723 -4.11468 5.61843 0
M  V30 386 H 33.8993 -4.22384 6.32057 0
M  V30 387 N 35.4744 -0.807222 -1.35358 0
M  V30 388 C 36.7204 -0.388463 -1.99045 0
M  V30 389 C 37.0534 1.04184 -1.63888 0
M  V30 390 O 36.3284 1.72292 -0.902535 0
M  V30 391 C 36.6114 -0.572783 -3.55515 0
M  V30 392 C 36.4644 -2.04807 -4.00468 0
M  V30 393 C 37.7834 0.00114064 -4.401 0
M  V30 394 H 34.9024 -0.142619 -0.723069 0
M  V30 395 H 37.5444 -1.01687 -1.60498 0
M  V30 396 H 35.6944 -0.0378425 -3.88482 0
M  V30 397 H 37.3664 -2.64544 -3.77908 0
M  V30 398 H 35.6094 -2.54427 -3.51353 0
M  V30 399 H 36.2804 -2.12792 -5.09337 0
M  V30 400 H 38.7564 -0.455716 -4.13597 0
M  V30 401 H 37.6324 -0.157737 -5.48673 0
M  V30 402 H 37.8934 1.09488 -4.28328 0
M  V30 403 N 36.9525 1.47285 -0.560781 0
M  V30 404 C 37.9005 2.31756 0.197942 0
M  V30 405 C 38.8945 1.43146 0.905854 0
M  V30 406 O 40.1005 1.59891 0.826733 0
M  V30 407 H 36.4755 0.747438 0.0827049 0
M  V30 408 H 38.4465 2.9359 -0.533629 0
M  V30 409 C 37.1955 3.25874 1.21249 0
M  V30 410 H 36.5185 3.94023 0.67719 0
M  V30 411 H 37.9585 3.87803 1.71419 0
M  V30 412 C 36.4175 2.49651 2.26221 0
M  V30 413 O 36.9475 2.24355 3.33208 0
M  V30 414 N 35.1535 2.10597 2.00243 0
M  V30 415 H 34.7005 2.31369 1.13252 0
M  V30 416 H 34.6585 1.59913 2.70694 0
M  V30 417 N 38.4306 0.297415 1.54768 0
M  V30 418 C 39.8466 -0.0560823 1.59501 0
M  V30 419 C 40.0466 -1.52725 1.31444 0
M  V30 420 O 39.1026 -2.27947 1.08611 0
M  V30 421 C 40.4156 0.338631 2.98787 0
M  V30 422 C 41.9636 0.287097 3.11681 0
M  V30 423 C 42.4386 0.656579 4.53269 0
M  V30 424 N 43.9296 0.608977 4.59179 0
M  V30 425 C 44.6646 0.867385 5.66802 0
M  V30 426 N 44.1606 1.19157 6.82476 0
M  V30 427 N 45.9536 0.794687 5.56454 0
M  V30 428 H 38.1046 1.25624 1.71267 0
M  V30 429 H 40.3676 0.509057 0.799728 0
M  V30 430 H 40.0736 1.36263 3.2423 0
M  V30 431 H 39.9476 -0.309508 3.75928 0
M  V30 432 H 42.3346 -0.727649 2.85988 0
M  V30 433 H 42.4156 0.969809 2.36703 0
M  V30 434 H 42.0596 1.66912 4.7969 0
M  V30 435 H 41.9896 -0.0481649 5.26578 0
M  V30 436 H 44.4806 0.369198 3.76092 0
M  V30 437 H 44.7936 1.37482 7.60473 0
M  V30 438 H 43.1386 1.22958 6.84037 0
M  V30 439 H 46.3296 0.541098 4.64962 0
M  V30 440 H 46.5026 0.999445 6.40246 0
M  V30 441 N 39.9087 -1.5758 0.0250728 0
M  V30 442 C 41.1337 -1.96337 -0.668317 0
M  V30 443 C 41.5587 -0.901314 -1.651 0
M  V30 444 O 40.9167 0.138187 -1.80773 0
M  V30 445 C 40.9647 -3.34191 -1.35457 0
M  V30 446 O 40.0687 -3.30269 -2.46974 0
M  V30 447 H 39.4097 -0.640281 -0.175887 0
M  V30 448 H 41.9397 -2.0442 0.0857224 0
M  V30 449 H 41.9497 -3.70331 -1.71228 0
M  V30 450 H 40.6247 -4.11036 -0.634218 0
M  V30 451 H 39.2017 -3.05841 -2.13344 0
M  V30 452 N 41.3868 0.248026 -1.55636 0
M  V30 453 C 42.7978 0.817177 -1.67866 0
M  V30 454 C 43.1488 1.86069 -0.622322 0
M  V30 455 O 42.2738 2.15157 0.231618 0
M  V30 456 C 42.8688 1.489 -3.04326 0
M  V30 457 C 41.4278 2.00587 -3.185 0
M  V30 458 C 40.5748 0.856573 -2.63739 0
M  V30 459 H 43.5258 0.0238579 -1.58682 0
M  V30 460 H 43.5468 2.35698 -2.98708 0
M  V30 461 H 43.0588 0.729279 -3.81186 0
M  V30 462 H 41.1598 2.79443 -2.4646 0
M  V30 463 H 41.2728 2.20402 -4.25393 0
M  V30 464 H 39.6368 1.25678 -2.21534 0
M  V30 465 H 40.4198 0.109953 -3.43124 0
M  V30 466 N 42.8649 1.48995 0.513639 0
M  V30 467 C 44.0899 1.61792 1.29762 0
M  V30 468 C 44.5149 0.284475 1.85936 0
M  V30 469 O 43.8729 -0.746185 1.65232 0
M  V30 470 C 43.9209 2.67993 2.41272 0
M  V30 471 O 43.0249 2.26287 3.44772 0
M  V30 472 H 42.3659 0.541963 0.38363 0
M  V30 473 H 44.8959 1.95097 0.616307 0
M  V30 474 H 44.9059 2.89772 2.87221 0
M  V30 475 H 43.5809 3.64791 1.9975 0
M  V30 476 H 42.1579 2.14788 3.04829 0
M  V30 477 N 44.343 -0.763751 1.37857 0
M  V30 478 C 45.754 -1.3405 1.29952 0
M  V30 479 C 46.105 -1.96138 -0.0492898 0
M  V30 480 O 45.23 -1.94372 -0.951239 0
M  V30 481 C 45.825 -2.43729 2.35333 0
M  V30 482 C 44.384 -2.97151 2.31037 0
M  V30 483 C 43.531 -1.70438 2.18738 0
M  V30 484 H 46.482 -0.563396 1.48363 0
M  V30 485 H 46.503 -3.23412 2.00462 0
M  V30 486 H 46.015 -1.9851 3.33489 0
M  V30 487 H 44.116 -3.46724 1.3643 0
M  V30 488 H 44.229 -3.52221 3.24772 0
M  V30 489 H 42.593 -1.93673 1.65418 0
M  V30 490 H 43.376 -1.27312 3.18821 0
M  V30 491 N 45.8211 -1.22559 -0.990812 0
M  V30 492 C 47.0681 -1.05141 -1.73065 0
M  V30 493 C 47.3961 0.413191 -1.9006 0
M  V30 494 O 46.6511 1.32257 -1.44245 0
M  V30 495 C 46.9501 -1.71011 -3.13831 0
M  V30 496 C 46.6161 -3.20911 -3.16745 0
M  V30 497 C 45.2781 -3.61812 -3.17247 0
M  V30 498 C 47.6301 -4.16846 -3.12872 0
M  V30 499 C 44.9581 -4.97127 -3.1158 0
M  V30 500 C 47.3101 -5.5214 -3.08746 0
M  V30 501 C 45.9741 -5.92419 -3.07565 0
M  V30 502 H 45.2441 -0.384738 -0.633291 0
M  V30 503 H 47.8911 -1.5235 -1.16025 0
M  V30 504 H 46.1961 -1.16133 -3.74193 0
M  V30 505 H 47.8931 -1.55023 -3.69823 0
M  V30 506 H 44.4831 -2.88344 -3.17105 0
M  V30 507 H 48.6671 -3.86263 -3.11632 0
M  V30 508 H 43.9231 -5.27562 -3.09012 0
M  V30 509 H 48.0971 -6.26201 -3.04705 0
M  V30 510 H 45.7241 -6.97236 -3.02929 0
M  V30 511 N 47.2992 1.18797 -1.03562 0
M  V30 512 C 48.2492 2.20161 -0.592724 0
M  V30 513 C 49.2332 1.56772 0.362133 0
M  V30 514 O 50.4252 1.76062 0.182009 0
M  V30 515 C 47.5542 3.43266 0.0481024 0
M  V30 516 C 46.6402 4.13786 -0.9296 0
M  V30 517 N 47.0312 4.60388 -2.09467 0
M  V30 518 C 45.3292 4.39572 -0.754499 0
M  V30 519 C 46.0302 5.14619 -2.71187 0
M  V30 520 N 45.0062 5.05826 -1.991 0
M  V30 521 H 48.8082 2.53877 -1.48066 0
M  V30 522 H 46.3222 1.34946 -0.903514 0
M  V30 523 H 48.3192 4.15136 0.383058 0
M  V30 524 H 46.9792 3.11048 0.931636 0
M  V30 525 H 47.9902 4.54999 -2.47379 0
M  V30 526 H 44.6672 4.17425 0.0793713 0
M  V30 527 H 46.0572 5.60917 -3.69895 0
M  V30 528 N 48.7773 0.814389 1.34928 0
M  V30 529 C 49.7403 0.235759 2.27984 0
M  V30 530 C 50.7403 -0.581412 1.49921 0
M  V30 531 O 51.9303 -0.398758 1.69575 0
M  V30 532 C 49.0623 -0.670433 3.34242 0
M  V30 533 H 50.2553 1.05659 2.80671 0
M  V30 534 H 47.8083 0.585614 1.44915 0
M  V30 535 H 48.5433 -1.51466 2.86755 0
M  V30 536 H 48.3283 -0.0860822 3.92005 0
M  V30 537 H 49.8183 -1.06935 4.03676 0
M  V30 538 N 50.2554 -1.46986 0.568584 0
M  V30 539 C 51.5014 -2.02741 0.0488709 0
M  V30 540 C 51.8344 -1.44077 -1.30214 0
M  V30 541 O 51.1094 -0.600552 -1.84996 0
M  V30 542 C 51.3924 -3.60086 -0.032047 0
M  V30 543 C 51.2454 -4.29162 1.34686 0
M  V30 544 C 52.5644 -4.33838 -0.739798 0
M  V30 545 H 49.6834 -0.736749 0.0192338 0
M  V30 546 H 52.3254 -1.75289 0.733065 0
M  V30 547 H 50.4754 -3.83606 -0.61473 0
M  V30 548 H 52.1474 -4.16948 1.97362 0
M  V30 549 H 50.3904 -3.89073 1.91846 0
M  V30 550 H 51.0614 -5.37826 1.24285 0
M  V30 551 H 53.5374 -4.15378 -0.244939 0
M  V30 552 H 52.4134 -5.43537 -0.765406 0
M  V30 553 H 52.6744 -4.03875 -1.79827 0
M  V30 554 N 51.7335 -0.305618 -1.54608 0
M  V30 555 C 52.6965 0.555591 -2.22364 0
M  V30 556 C 53.6965 1.05768 -1.21119 0
M  V30 557 O 54.8865 0.952972 -1.45822 0
M  V30 558 C 52.0185 1.76974 -2.91364 0
M  V30 559 H 53.2115 -0.0364572 -2.99878 0
M  V30 560 H 50.7645 -0.0565007 -1.56198 0
M  V30 561 H 51.4995 2.40151 -2.17941 0
M  V30 562 H 51.2845 1.41732 -3.65588 0
M  V30 563 H 52.7745 2.38148 -3.43038 0
M  V30 564 N 53.2116 1.57565 -0.0334293 0
M  V30 565 C 54.1216 2.13943 0.962572 0
M  V30 566 C 55.1376 1.09276 1.35406 0
M  V30 567 O 56.3136 1.41355 1.4346 0
M  V30 568 C 53.3786 2.65887 2.22497 0
M  V30 569 C 52.4396 3.85286 1.8935 0
M  V30 570 C 51.6726 4.34743 3.09571 0
M  V30 571 O 51.8956 3.83352 4.22371 0
M  V30 572 O 50.8296 5.26538 2.91618 0
M  V30 573 H 54.6556 2.99333 0.513169 0
M  V30 574 H 52.2406 1.4822 0.18743 0
M  V30 575 H 54.1226 2.99346 2.96598 0
M  V30 576 H 52.7976 1.83578 2.6661 0
M  V30 577 H 51.7046 3.56746 1.1262 0
M  V30 578 H 53.0376 4.68771 1.5005 0
M  V30 579 N 54.6897 -0.239769 1.55765 0
M  V30 580 C 55.9297 -0.974076 1.79697 0
M  V30 581 C 56.2937 -1.82249 0.604088 0
M  V30 582 O 57.4947 -2.58913 0.722324 0
M  V30 583 C 55.7657 -1.80595 3.08416 0
M  V30 584 S 57.3247 -2.59838 3.53596 0
M  V30 585 H 54.1427 -0.327524 0.63107 0
M  V30 586 H 56.7447 -0.241277 1.94005 0
M  V30 587 H 55.4487 -1.17249 3.93295 0
M  V30 588 H 54.9797 -2.58137 2.96865 0
M  V30 589 H 56.9947 -3.82987 3.15492 0
M  V30 590 N 56.1678 -1.49265 -0.50573 0
M  V30 591 C 57.5838 -1.35923 -0.836486 0
M  V30 592 C 57.7838 -0.388704 -1.97715 0
M  V30 593 O 56.8398 0.181336 -2.51848 0
M  V30 594 C 58.1528 -2.76531 -1.18115 0
M  V30 595 C 59.7008 -2.85197 -1.28964 0
M  V30 596 C 60.1758 -4.26561 -1.66761 0
M  V30 597 N 61.6668 -4.2935 -1.73819 0
M  V30 598 C 62.4018 -5.35693 -2.045 0
M  V30 599 N 61.8978 -6.52287 -2.33438 0
M  V30 600 N 63.6908 -5.23105 -2.05711 0
M  V30 601 H 55.8418 -2.10965 0.246519 0
M  V30 602 H 58.1048 -0.9468 0.0476887 0
M  V30 603 H 57.8108 -3.49226 -0.416398 0
M  V30 604 H 57.6848 -3.11599 -2.1257 0
M  V30 605 H 60.0718 -2.12742 -2.04511 0
M  V30 606 H 60.1528 -2.53718 -0.325704 0
M  V30 607 H 59.7968 -4.99541 -0.917656 0
M  V30 608 H 59.7268 -4.55502 -2.64246 0
M  V30 609 H 62.2178 -3.4526 -1.53635 0
M  V30 610 H 62.5308 -7.29158 -2.56024 0
M  V30 611 H 60.8758 -6.55521 -2.30905 0
M  V30 612 H 64.0668 -4.31026 -1.82577 0
M  V30 613 H 64.2398 -6.06078 -2.29289 0
M  V30 614 N 57.6459 0.756429 -1.3826 0
M  V30 615 C 58.5939 1.89149 -1.35372 0
M  V30 616 C 59.5879 1.67691 -0.24004 0
M  V30 617 O 60.7939 1.75294 -0.408919 0
M  V30 618 H 57.1689 0.622271 -0.422236 0
M  V30 619 H 59.1399 1.88701 -2.31159 0
M  V30 620 C 57.8889 3.26599 -1.19284 0
M  V30 621 H 57.2119 3.43695 -2.0424 0
M  V30 622 H 58.6519 4.06274 -1.21316 0
M  V30 623 C 57.1109 3.3675 0.100454 0
M  V30 624 O 57.6409 3.86951 1.07851 0
M  V30 625 N 55.8469 2.90179 0.15633 0
M  V30 626 H 55.3939 2.49517 -0.640253 0
M  V30 627 H 55.3519 2.97352 1.02123 0
M  V30 628 N 59.124 1.23083 0.984299 0
M  V30 629 C 60.54 0.992637 1.24975 0
M  V30 630 C 60.74 -0.308618 1.99123 0
M  V30 631 O 59.796 -1.02905 2.30579 0
M  V30 632 C 61.109 2.19698 2.05312 0
M  V30 633 C 62.657 2.24147 2.18465 0
M  V30 634 C 63.132 3.44157 3.02192 0
M  V30 635 N 64.623 3.44372 3.09777 0
M  V30 636 C 65.358 4.33886 3.74874 0
M  V30 637 N 64.854 5.3363 4.41827 0
M  V30 638 N 66.647 4.21639 3.71721 0
M  V30 639 H 58.798 2.06731 0.487453 0
M  V30 640 H 61.061 0.906339 0.277944 0
M  V30 641 H 60.767 3.1411 1.58201 0
M  V30 642 H 60.641 2.20465 3.06064 0
M  V30 643 H 63.028 1.30277 2.64786 0
M  V30 644 H 63.109 2.27415 1.17115 0
M  V30 645 H 62.753 4.38332 2.56568 0
M  V30 646 H 62.683 3.3813 4.03702 0
M  V30 647 H 65.174 2.72201 2.62135 0
M  V30 648 H 65.487 5.98196 4.89266 0
M  V30 649 H 63.832 5.37534 4.40548 0
M  V30 650 H 67.023 3.42962 3.18582 0
M  V30 651 H 67.196 4.91604 4.22173 0
M  V30 652 N 60.6021 -1.18246 1.0419 0
M  V30 653 C 61.5321 -2.24127 0.654914 0
M  V30 654 C 62.5131 -1.66617 -0.342451 0
M  V30 655 O 63.6981 -1.92924 -0.222277 0
M  V30 656 C 60.8281 -3.47295 0.0183757 0
M  V30 657 C 59.7821 -4.17563 0.939414 0
M  V30 658 C 59.1081 -5.34438 0.167286 0
M  V30 659 C 60.4081 -4.70917 2.25908 0
M  V30 660 H 62.1021 -2.56753 1.54007 0
M  V30 661 H 59.6481 -1.23414 0.74195 0
M  V30 662 H 61.6011 -4.20572 -0.264082 0
M  V30 663 H 60.3251 -3.13907 -0.901664 0
M  V30 664 H 58.9841 -3.46186 1.20628 0
M  V30 665 H 58.6321 -4.97298 -0.7552 0
M  V30 666 H 58.3321 -5.82388 0.780901 0
M  V30 667 H 59.8561 -6.10504 -0.108125 0
M  V30 668 H 61.2701 -5.35882 2.03724 0
M  V30 669 H 59.6671 -5.29406 2.82577 0
M  V30 670 H 60.7371 -3.88272 2.9047 0
M  V30 671 N 62.0802 -0.821533 -1.34494 0
M  V30 672 C 63.0102 -0.257138 -2.3208 0
M  V30 673 C 63.9912 0.625645 -1.58176 0
M  V30 674 O 65.1762 0.552811 -1.86166 0
M  V30 675 C 62.3062 0.582958 -3.42372 0
M  V30 676 C 61.2602 -0.202571 -4.2752 0
M  V30 677 C 60.5862 0.760179 -5.29269 0
M  V30 678 C 61.8862 -1.40998 -5.02908 0
M  V30 679 H 63.5802 -1.07247 -2.79532 0
M  V30 680 H 61.1262 -0.517163 -1.34393 0
M  V30 681 H 63.0792 0.987972 -4.09655 0
M  V30 682 H 61.8032 1.43133 -2.93565 0
M  V30 683 H 60.4622 -0.588936 -3.61838 0
M  V30 684 H 60.1102 1.60447 -4.76724 0
M  V30 685 H 59.8102 0.238809 -5.87115 0
M  V30 686 H 61.3342 1.16308 -5.9942 0
M  V30 687 H 62.7482 -1.07905 -5.63054 0
M  V30 688 H 61.1452 -1.86689 -5.70322 0
M  V30 689 H 62.2152 -2.1889 -4.32684 0
M  V30 690 N 63.5583 1.46682 -0.576371 0
M  V30 691 C 64.4903 2.28341 0.198231 0
M  V30 692 C 65.5033 1.38141 0.861453 0
M  V30 693 O 66.6923 1.62797 0.732082 0
M  V30 694 C 63.7923 3.12986 1.29972 0
M  V30 695 C 62.9653 4.31271 0.729639 0
M  V30 696 C 62.0243 4.97363 1.71803 0
M  V30 697 O 61.0503 5.55156 1.25658 0
M  V30 698 N 62.2523 4.93796 3.05198 0
M  V30 699 H 65.0173 2.9546 -0.502324 0
M  V30 700 H 62.5783 1.56525 -0.413715 0
M  V30 701 H 64.5703 3.54066 1.96008 0
M  V30 702 H 63.1403 2.47984 1.90323 0
M  V30 703 H 62.3603 3.94052 -0.108012 0
M  V30 704 H 63.6483 5.07739 0.328438 0
M  V30 705 H 63.0463 4.48077 3.45317 0
M  V30 706 H 61.6033 5.38837 3.6674 0
M  V30 707 N 65.0364 0.313813 1.54444 0
M  V30 708 C 65.9994 -0.54379 2.22656 0
M  V30 709 C 66.9994 -1.05124 1.21678 0
M  V30 710 O 68.1894 -0.945225 1.46325 0
M  V30 711 C 65.3214 -1.75427 2.92298 0
M  V30 712 H 66.5144 0.0523599 2.99854 0
M  V30 713 H 64.0674 0.0647834 1.56166 0
M  V30 714 H 64.8024 -2.38991 2.19211 0
M  V30 715 H 64.5874 -1.39791 3.66334 0
M  V30 716 H 66.0774 -2.36325 3.44297 0
M  V30 717 N 66.5145 -1.57545 0.0417849 0
M  V30 718 C 67.7625 -1.91937 -0.632829 0
M  V30 719 C 68.0835 -0.919978 -1.71934 0
M  V30 720 O 67.3535 0.0366064 -1.95866 0
M  V30 721 H 65.9335 -0.708493 -0.236742 0
M  V30 722 H 68.5955 -1.9468 0.0925745 0
M  V30 723 H 67.6915 -2.92912 -1.07746 0
M  V30 724 N 67.9926 0.231505 -1.5589 0
M  V30 725 C 69.2396 0.957352 -1.78441 0
M  V30 726 C 69.5676 1.84726 -0.60882 0
M  V30 727 O 68.8226 1.91416 0.40725 0
M  V30 728 C 69.1216 1.83577 -3.0665 0
M  V30 729 C 68.7876 1.09993 -4.37278 0
M  V30 730 C 67.4496 0.896629 -4.72773 0
M  V30 731 C 69.8016 0.579558 -5.17968 0
M  V30 732 C 67.1296 0.160896 -5.86479 0
M  V30 733 C 69.4816 -0.142783 -6.32439 0
M  V30 734 C 68.1456 -0.357427 -6.66542 0
M  V30 735 H 67.4156 0.35032 -0.65296 0
M  V30 736 H 70.0626 0.226259 -1.90159 0
M  V30 737 H 68.3676 2.63441 -2.90011 0
M  V30 738 H 70.0646 2.39934 -3.21298 0
M  V30 739 H 66.6546 1.26835 -4.09403 0
M  V30 740 H 70.8386 0.724125 -4.90989 0
M  V30 741 H 66.0946 -0.0157293 -6.11398 0
M  V30 742 H 70.2686 -0.553559 -6.94196 0
M  V30 743 H 67.8956 -0.929466 -7.54497 0
M  V30 744 N 69.4707 1.49531 0.497807 0
M  V30 745 C 70.6957 1.63159 1.28039 0
M  V30 746 C 71.1207 0.30418 1.85624 0
M  V30 747 O 70.4787 -0.728618 1.66015 0
M  V30 748 C 70.5267 2.70537 2.38416 0
M  V30 749 O 69.6307 2.29931 3.42353 0
M  V30 750 H 68.9717 0.546001 0.377861 0
M  V30 751 H 71.5017 1.9574 0.59558 0
M  V30 752 H 71.5117 2.92802 2.84132 0
M  V30 753 H 70.1867 3.6689 1.95869 0
M  V30 754 H 68.7637 2.18009 3.02533 0
M  V30 755 N 70.9488 -0.749086 1.3866 0
M  V30 756 C 71.8588 -1.89358 1.38494 0
M  V30 757 C 72.8748 -1.71708 0.281476 0
M  V30 758 O 74.0508 -1.94554 0.520643 0
M  V30 759 C 71.1158 -3.24782 1.21316 0
M  V30 760 C 70.1768 -3.54926 2.41508 0
M  V30 761 C 69.4098 -4.83888 2.2514 0
M  V30 762 O 69.6328 -5.56592 1.24746 0
M  V30 763 O 68.5668 -5.13612 3.13826 0
M  V30 764 H 72.3928 -1.92452 2.34938 0
M  V30 765 H 69.9778 -0.894981 1.19626 0
M  V30 766 H 71.8598 -4.05739 1.13814 0
M  V30 767 H 70.5348 -3.2249 0.279592 0
M  V30 768 H 69.4418 -2.74112 2.54585 0
M  V30 769 H 70.7748 -3.61983 3.3351 0
M  V30 770 N 72.4269 -1.23603 -0.977757 0
M  V30 771 C 73.3569 -1.04401 -2.0886 0
M  V30 772 C 74.3379 0.0399052 -1.70053 0
M  V30 773 O 75.5229 -0.125246 -1.93796 0
M  V30 774 C 72.6529 -0.637269 -3.41403 0
M  V30 775 C 71.6069 -1.66883 -3.94124 0
M  V30 776 C 70.9329 -1.11745 -5.22893 0
M  V30 777 C 72.2329 -3.06247 -4.23096 0
M  V30 778 H 73.9269 -1.97316 -2.25182 0
M  V30 779 H 71.4729 -0.950096 -1.08209 0
M  V30 780 H 73.4259 -0.48998 -4.18542 0
M  V30 781 H 72.1499 0.327557 -3.24953 0
M  V30 782 H 70.8089 -1.80416 -3.19133 0
M  V30 783 H 70.4569 -0.143527 -5.02795 0
M  V30 784 H 70.1569 -1.80672 -5.59134 0
M  V30 785 H 71.6809 -0.982067 -6.02651 0
M  V30 786 H 73.0949 -2.96001 -4.90975 0
M  V30 787 H 71.4919 -3.72436 -4.70544 0
M  V30 788 H 72.5619 -3.55041 -3.30263 0
M  V30 789 N 73.905 1.17692 -1.04816 0
M  V30 790 C 74.852 2.21581 -0.645797 0
M  V30 791 C 75.822 1.62367 0.350159 0
M  V30 792 O 77.007 1.89254 0.242433 0
M  V30 793 C 74.147 3.45092 -0.0227568 0
M  V30 794 C 73.26 4.18613 -1.06709 0
M  V30 795 C 72.395 5.29602 -0.411767 0
M  V30 796 C 71.434 5.94904 -1.44067 0
M  V30 797 N 70.571 6.97414 -0.809781 0
M  V30 798 H 75.411 2.55353 -1.5362 0
M  V30 799 H 72.948 1.25438 -0.768364 0
M  V30 800 H 74.906 4.15679 0.35588 0
M  V30 801 H 73.536 3.11917 0.831122 0
M  V30 802 H 72.588 3.46779 -1.5636 0
M  V30 803 H 73.9 4.63293 -1.84827 0
M  V30 804 H 73.054 6.06696 0.0206623 0
M  V30 805 H 71.793 4.86045 0.401438 0
M  V30 806 H 70.798 5.16544 -1.88316 0
M  V30 807 H 72.023 6.40542 -2.25571 0
M  V30 808 H 69.969 6.55998 -0.0170186 0
M  V30 809 H 69.886 7.40386 -1.52856 0
M  V30 810 H 71.154 7.78463 -0.401999 0
M  V30 811 N 75.3831 0.828654 1.34056 0
M  V30 812 C 76.2931 0.256725 2.33191 0
M  V30 813 C 77.3091 -0.611898 1.62886 0
M  V30 814 O 78.4851 -0.51844 1.94613 0
M  V30 815 C 75.5501 -0.567238 3.42028 0
M  V30 816 C 74.6111 0.324458 4.28072 0
M  V30 817 C 73.8441 -0.460274 5.31712 0
M  V30 818 O 74.0671 -1.693 5.44696 0
M  V30 819 O 73.0011 0.160391 6.01686 0
M  V30 820 H 76.8271 1.07739 2.83947 0
M  V30 821 H 74.4121 0.59093 1.37217 0
M  V30 822 H 76.2941 -1.03582 4.08471 0
M  V30 823 H 74.9691 -1.36513 2.93506 0
M  V30 824 H 73.8761 0.840659 3.64532 0
M  V30 825 H 75.2091 1.08685 4.8005 0
M  V30 826 N 76.8612 -1.46375 0.584142 0
M  V30 827 C 78.0892 -2.06761 0.0759296 0
M  V30 828 C 78.5042 -1.43266 -1.22965 0
M  V30 829 O 77.8612 -0.538458 -1.74376 0
M  V30 830 C 77.9122 -3.61375 -0.0950384 0
M  V30 831 O 77.6332 -4.22495 1.15887 0
M  V30 832 C 79.1342 -4.38693 -0.637434 0
M  V30 833 H 76.3542 -0.668479 0.0581075 0
M  V30 834 H 78.8982 -1.8798 0.805218 0
M  V30 835 H 77.0532 -3.79578 -0.774554 0
M  V30 836 H 77.4672 -5.15385 0.973598 0
M  V30 837 H 78.9412 -5.47464 -0.706237 0
M  V30 838 H 79.4182 -4.06836 -1.65472 0
M  V30 839 H 80.0242 -4.25299 0.00725967 0
M  V30 840 N 78.3393 -0.321999 -1.54275 0
M  V30 841 C 79.2493 0.553631 -2.27974 0
M  V30 842 C 80.2653 1.13054 -1.32268 0
M  V30 843 O 81.4413 1.15084 -1.6528 0
M  V30 844 C 78.5063 1.69927 -3.02201 0
M  V30 845 C 77.5673 1.15433 -4.1349 0
M  V30 846 C 76.8003 2.24537 -4.84168 0
M  V30 847 O 77.0233 3.44852 -4.5435 0
M  V30 848 O 75.9573 1.90044 -5.7111 0
M  V30 849 H 79.7833 -0.0448345 -3.03667 0
M  V30 850 H 77.3683 -0.0877418 -1.49142 0
M  V30 851 H 79.2503 2.3663 -3.48689 0
M  V30 852 H 77.9253 2.28395 -2.29385 0
M  V30 853 H 76.8323 0.452436 -3.71354 0
M  V30 854 H 78.1653 0.614805 -4.88345 0
M  V30 855 N 79.8174 1.5752 -0.0501392 0
M  V30 856 C 80.7644 2.1147 0.924603 0
M  V30 857 C 81.7344 1.02182 1.30951 0
M  V30 858 O 82.9194 1.29723 1.39916 0
M  V30 859 C 80.0594 2.66337 2.19451 0
M  V30 860 C 79.1724 3.89708 1.86418 0
M  V30 861 C 78.3074 4.32893 3.07859 0
M  V30 862 C 77.3464 5.48967 2.70742 0
M  V30 863 N 76.4834 5.87211 3.84874 0
M  V30 864 H 81.3234 2.94465 0.457639 0
M  V30 865 H 78.8604 1.45531 0.214266 0
M  V30 866 H 80.8184 2.96247 2.93758 0
M  V30 867 H 79.4484 1.86141 2.63726 0
M  V30 868 H 78.5004 3.66396 1.02264 0
M  V30 869 H 79.8124 4.74074 1.55096 0
M  V30 870 H 78.9664 4.6435 3.90466 0
M  V30 871 H 77.7054 3.47336 3.42358 0
M  V30 872 H 76.7104 5.17183 1.86551 0
M  V30 873 H 77.9354 6.3624 2.37436 0
M  V30 874 H 75.8814 5.04607 4.19175 0
M  V30 875 H 75.7984 6.66266 3.57247 0
M  V30 876 H 77.0664 6.23282 4.68123 0
M  V30 877 N 81.2955 -0.223234 1.56011 0
M  V30 878 C 82.5415 -0.944891 1.8012 0
M  V30 879 C 82.8965 -1.82039 0.622862 0
M  V30 880 O 82.1895 -1.8773 -0.383143 0
M  V30 881 C 82.3835 -1.81948 3.0762 0
M  V30 882 C 82.2125 -1.03014 4.37742 0
M  V30 883 C 80.9825 -0.72574 5.00061 0
M  V30 884 C 83.1805 -0.396256 5.12771 0
M  V30 885 N 81.1625 0.0851816 6.13841 0
M  V30 886 C 82.5335 0.278137 6.19376 0
M  V30 887 C 84.5885 -0.309117 4.9694 0
M  V30 888 C 83.2915 1.03133 7.11868 0
M  V30 889 C 85.3175 0.430607 5.8983 0
M  V30 890 C 84.6795 1.09355 6.9586 0
M  V30 891 H 80.7785 -0.326081 0.710771 0
M  V30 892 H 83.3625 -0.215914 1.93499 0
M  V30 893 H 81.5335 -2.52029 2.95527 0
M  V30 894 H 83.2655 -2.47848 3.19927 0
M  V30 895 H 80.0205 -1.04335 4.61964 0
M  V30 896 H 80.4445 0.479428 6.753 0
M  V30 897 H 85.0865 -0.807313 4.15021 0
M  V30 898 H 82.8045 1.54105 7.9327 0
M  V30 899 H 86.3905 0.499012 5.79656 0
M  V30 900 H 85.2705 1.65679 7.66499 0
M  V30 901 N 82.7736 -1.49793 -0.48987 0
M  V30 902 C 83.7216 -1.67783 -1.61095 0
M  V30 903 C 84.7156 -0.543683 -1.60438 0
M  V30 904 O 85.9216 -0.723647 -1.64813 0
M  V30 905 H 82.2966 -0.529255 -0.534222 0
M  V30 906 H 84.2676 -2.61861 -1.43078 0
M  V30 907 C 83.0166 -1.77191 -2.99164 0
M  V30 908 H 82.3396 -2.63841 -3.0038 0
M  V30 909 H 83.7796 -1.93809 -3.77113 0
M  V30 910 C 82.2386 -0.519203 -3.32875 0
M  V30 911 O 82.7686 0.350124 -4.00171 0
M  V30 912 N 80.9746 -0.378816 -2.8812 0
M  V30 913 H 80.5216 -1.08725 -2.33531 0
M  V30 914 H 80.4796 0.458239 -3.11043 0
M  V30 915 N 84.2517 0.741722 -1.39055 0
M  V30 916 C 85.5007 1.49656 -1.35225 0
M  V30 917 C 85.8137 1.95533 0.0512708 0
M  V30 918 O 87.0197 2.7067 0.212138 0
M  V30 919 C 85.4757 2.70389 -2.37525 0
M  V30 920 C 85.0837 2.31489 -3.83558 0
M  V30 921 C 86.8277 3.48236 -2.42759 0
M  V30 922 C 84.7347 3.48903 -4.77515 0
M  V30 923 H 83.6647 0.56197 -0.502699 0
M  V30 924 H 86.3157 0.809727 -1.64668 0
M  V30 925 H 84.6977 3.41113 -2.01142 0
M  V30 926 H 85.8717 1.68354 -4.28945 0
M  V30 927 H 84.1867 1.66749 -3.81554 0
M  V30 928 H 86.7837 4.35558 -3.1015 0
M  V30 929 H 87.1267 3.90229 -1.45008 0
M  V30 930 H 87.6597 2.84535 -2.78002 0
M  V30 931 H 84.3987 3.11966 -5.76504 0
M  V30 932 H 83.9187 4.11041 -4.36813 0
M  V30 933 H 85.5977 4.15328 -4.96096 0
M  V30 934 N 85.7298 1.2412 0.971189 0
M  V30 935 C 86.6768 1.0305 2.06517 0
M  V30 936 C 87.6468 -0.0550666 1.66009 0
M  V30 937 O 88.8318 0.0988688 1.90544 0
M  V30 938 C 85.9718 0.637653 3.39158 0
M  V30 939 C 85.0848 1.79633 3.92882 0
M  V30 940 C 84.2198 1.34939 5.13775 0
M  V30 941 C 83.2588 2.47823 5.59687 0
M  V30 942 N 82.3958 2.04022 6.71803 0
M  V30 943 H 87.2358 1.96685 2.23873 0
M  V30 944 H 84.7728 0.979694 1.09729 0
M  V30 945 H 86.7308 0.390931 4.15364 0
M  V30 946 H 85.3608 -0.261693 3.21737 0
M  V30 947 H 84.4128 2.15681 3.13346 0
M  V30 948 H 85.7248 2.64466 4.22918 0
M  V30 949 H 84.8788 1.06134 5.97345 0
M  V30 950 H 83.6178 0.471557 4.85415 0
M  V30 951 H 82.6228 2.77392 4.74693 0
M  V30 952 H 83.8478 3.36158 5.90063 0
M  V30 953 H 81.7938 1.18632 6.45184 0
M  V30 954 H 81.7108 2.82409 7.01271 0
M  V30 955 H 82.9788 1.78347 7.58823 0
M  V30 956 N 87.2079 -1.17134 1.05439 0
M  V30 957 C 88.6189 -1.69084 0.791676 0
M  V30 958 C 88.9699 -1.83822 -0.685839 0
M  V30 959 O 88.0949 -1.52757 -1.53278 0
M  V30 960 C 88.6899 -3.07119 1.4305 0
M  V30 961 C 87.2489 -3.56225 1.21577 0
M  V30 962 C 86.3959 -2.32421 1.51247 0
M  V30 963 H 89.3469 -1.01617 1.219 0
M  V30 964 H 89.3679 -3.71087 0.84112 0
M  V30 965 H 88.8799 -2.9636 2.50584 0
M  V30 966 H 86.9809 -3.72257 0.159787 0
M  V30 967 H 87.0939 -4.38837 1.92246 0
M  V30 968 H 85.4579 -2.3701 0.932653 0
M  V30 969 H 86.2409 -2.24268 2.5992 0
M  V30 970 N 88.686 -0.835752 -1.33615 0
M  V30 971 C 89.596 -0.269088 -2.33052 0
M  V30 972 C 90.612 0.603251 -1.63208 0
M  V30 973 O 91.788 0.508112 -1.94885 0
M  V30 974 C 88.853 0.549091 -3.42324 0
M  V30 975 C 87.914 -0.347156 -4.27894 0
M  V30 976 C 87.147 0.43207 -5.31948 0
M  V30 977 O 87.37 1.66409 -5.45586 0
M  V30 978 O 86.304 -0.192298 -6.01593 0
M  V30 979 H 90.13 -1.09243 -2.83372 0
M  V30 980 H 87.715 -0.598198 -1.36901 0
M  V30 981 H 89.597 1.01414 -4.09015 0
M  V30 982 H 88.272 1.34955 -2.94226 0
M  V30 983 H 87.179 -0.859979 -3.64081 0
M  V30 984 H 88.512 -1.1123 -4.79467 0
M  V30 985 N 90.1641 1.46063 -0.591896 0
M  V30 986 C 91.3891 2.07226 -0.0850314 0
M  V30 987 C 91.8141 1.43625 1.21463 0
M  V30 988 O 91.1721 0.523305 1.73583 0
M  V30 989 C 91.2201 3.60554 0.0576567 0
M  V30 990 O 90.3241 3.97128 1.11188 0
M  V30 991 H 89.6651 0.660615 -0.0669568 0
M  V30 992 H 92.1951 1.8756 -0.81745 0
M  V30 993 H 92.2051 4.07165 0.2609 0
M  V30 994 H 90.8801 4.06235 -0.891416 0
M  V30 995 H 89.4571 3.62213 0.886356 0
M  V30 996 N 91.6422 0.330177 1.54103 0
M  V30 997 C 92.5892 -0.532762 2.24567 0
M  V30 998 C 93.5592 -1.10635 1.23892 0
M  V30 999 O 94.7442 -1.14546 1.5259 0
M  V30 1000 C 91.8842 -1.6845 3.01195 0
M  V30 1001 C 90.9972 -1.13951 4.167 0
M  V30 1002 C 90.1322 -2.25746 4.80845 0
M  V30 1003 C 89.1712 -1.6853 5.88442 0
M  V30 1004 N 88.3082 -2.74014 6.46421 0
M  V30 1005 H 93.1482 0.0746905 2.97906 0
M  V30 1006 H 90.6852 0.048632 1.4702 0
M  V30 1007 H 92.6432 -2.36234 3.43874 0
M  V30 1008 H 91.2732 -2.26314 2.30178 0
M  V30 1009 H 90.3252 -0.35301 3.78758 0
M  V30 1010 H 91.6372 -0.680892 4.94131 0
M  V30 1011 H 90.7912 -3.01422 5.26526 0
M  V30 1012 H 89.5302 -2.74947 4.0281 0
M  V30 1013 H 88.5352 -0.913543 5.42157 0
M  V30 1014 H 89.7602 -1.20198 6.68378 0
M  V30 1015 H 87.7062 -3.22494 5.71256 0
M  V30 1016 H 87.6232 -2.32735 7.19285 0
M  V30 1017 H 88.8912 -3.49499 6.96757 0
M  V30 1018 N 93.1203 -1.57491 0.0584922 0
M  V30 1019 C 94.3503 -1.9701 -0.622134 0
M  V30 1020 C 94.7583 -0.935034 -1.6448 0
M  V30 1021 O 94.1013 0.0882904 -1.83488 0
M  V30 1022 C 94.1633 -3.32794 -1.35972 0
M  V30 1023 C 93.8273 -4.54343 -0.492043 0
M  V30 1024 C 94.8243 -5.19323 0.244901 0
M  V30 1025 C 92.5093 -5.00534 -0.420821 0
M  V30 1026 C 94.5033 -6.28835 1.04143 0
M  V30 1027 C 92.1903 -6.09921 0.379389 0
M  V30 1028 C 93.1883 -6.73933 1.10919 0
M  V30 1029 O 92.8763 -7.81216 1.89623 0
M  V30 1030 H 92.6083 -0.653127 -0.174359 0
M  V30 1031 H 95.1623 -2.05029 0.123418 0
M  V30 1032 H 93.3923 -3.21351 -2.15105 0
M  V30 1033 H 95.0813 -3.5701 -1.93129 0
M  V30 1034 H 95.8473 -4.8459 0.19939 0
M  V30 1035 H 91.7263 -4.50496 -0.978474 0
M  V30 1036 H 95.2703 -6.7873 1.61157 0
M  V30 1037 H 91.1673 -6.44089 0.426512 0
M  V30 1038 H 91.9353 -7.98029 1.81913 0
M  V30 1039 N 94.5984 0.214957 -1.56127 0
M  V30 1040 C 95.8454 0.938372 -1.79446 0
M  V30 1041 C 96.1734 1.8407 -0.628378 0
M  V30 1042 O 95.4284 1.91837 0.386925 0
M  V30 1043 C 95.7274 1.80314 -3.0858 0
M  V30 1044 C 95.3934 1.05349 -4.3842 0
M  V30 1045 C 94.0554 0.846435 -4.73697 0
M  V30 1046 C 96.4074 0.524588 -5.18553 0
M  V30 1047 C 93.7354 0.098683 -5.86617 0
M  V30 1048 C 96.0874 -0.209853 -6.32252 0
M  V30 1049 C 94.7514 -0.428102 -6.66126 0
M  V30 1050 H 94.0214 0.343375 -0.656639 0
M  V30 1051 H 96.6684 0.206077 -1.90388 0
M  V30 1052 H 94.9734 2.6035 -2.92789 0
M  V30 1053 H 96.6704 2.36513 -3.23825 0
M  V30 1054 H 93.2604 1.22486 -4.10725 0
M  V30 1055 H 97.4444 0.672008 -4.91729 0
M  V30 1056 H 92.7004 -0.0805753 -6.11347 0
M  V30 1057 H 96.8744 -0.627157 -6.9357 0
M  V30 1058 H 94.5014 -1.00944 -7.53468 0
M  V30 1059 N 96.0765 1.50051 0.48192 0
M  V30 1060 C 97.0095 1.62749 1.59963 0
M  V30 1061 C 97.9875 0.475903 1.5548 0
M  V30 1062 O 99.1715 0.693986 1.7526 0
M  V30 1063 C 96.2985 1.60008 2.98522 0
M  V30 1064 C 95.3445 2.80596 3.21198 0
M  V30 1065 S 96.1775 4.42038 3.02262 0
M  V30 1066 C 97.3335 4.41973 4.43182 0
M  V30 1067 H 97.5665 2.57296 1.4895 0
M  V30 1068 H 95.0995 1.39179 0.668477 0
M  V30 1069 H 97.0575 1.59112 3.78409 0
M  V30 1070 H 95.7185 0.667153 3.06933 0
M  V30 1071 H 94.9115 2.74952 4.22395 0
M  V30 1072 H 94.5135 2.79003 2.49065 0
M  V30 1073 H 96.8055 4.14868 5.35622 0
M  V30 1074 H 97.7485 5.43512 4.53873 0
M  V30 1075 H 98.1565 3.71812 4.24755 0
M  V30 1076 N 97.5546 -0.734337 1.39446 0
M  V30 1077 C 98.7826 -1.52358 1.39981 0
M  V30 1078 C 99.1976 -1.88799 -0.0054975 0
M  V30 1079 O 98.5546 -1.54146 -0.976998 0
M  V30 1080 C 98.6056 -2.81072 2.27333 0
M  V30 1081 O 98.3266 -2.46178 3.62392 0
M  V30 1082 C 99.8276 -3.75096 2.36259 0
M  V30 1083 H 97.0476 -0.470806 0.478103 0
M  V30 1084 H 99.5916 -0.907339 1.83269 0
M  V30 1085 H 97.7466 -3.39026 1.87457 0
M  V30 1086 H 98.1606 -3.28866 4.08592 0
M  V30 1087 H 99.6346 -4.62305 3.01626 0
M  V30 1088 H 100.112 -4.16892 1.38194 0
M  V30 1089 H 100.718 -3.23061 2.76608 0
M  V30 1090 N 99.0327 -1.24633 -0.964593 0
M  V30 1091 C 100.449 -1.01239 -1.2338 0
M  V30 1092 C 100.649 0.2769 -1.99588 0
M  V30 1093 O 99.7047 0.992241 -2.32187 0
M  V30 1094 C 101.018 -2.22937 -2.01791 0
M  V30 1095 C 102.566 -2.27594 -2.14872 0
M  V30 1096 C 103.041 -3.48921 -2.96678 0
M  V30 1097 N 104.532 -3.49257 -3.04259 0
M  V30 1098 C 105.267 -4.39795 -3.67924 0
M  V30 1099 N 104.763 -5.40591 -4.33281 0
M  V30 1100 N 106.556 -4.275 -3.64966 0
M  V30 1101 H 98.7067 -2.0748 -0.454502 0
M  V30 1102 H 100.97 -0.910647 -0.26349 0
M  V30 1103 H 100.676 -3.16587 -1.53184 0
M  V30 1104 H 100.55 -2.25306 -3.02518 0
M  V30 1105 H 102.937 -1.34473 -2.6268 0
M  V30 1106 H 103.018 -2.2925 -1.13482 0
M  V30 1107 H 102.662 -4.42359 -2.49562 0
M  V30 1108 H 102.592 -3.4451 -3.98272 0
M  V30 1109 H 105.083 -2.76337 -2.57771 0
M  V30 1110 H 105.396 -6.05904 -4.79687 0
M  V30 1111 H 103.741 -5.44475 -4.3194 0
M  V30 1112 H 106.932 -3.47987 -3.13086 0
M  V30 1113 H 107.105 -4.98258 -4.14298 0
M  V30 1114 N 100.511 1.16574 -1.06058 0
M  V30 1115 C 101.459 2.22941 -0.663343 0
M  V30 1116 C 102.453 1.66358 0.319593 0
M  V30 1117 O 103.659 1.7905 0.184713 0
M  V30 1118 H 100.034 0.725907 -0.196376 0
M  V30 1119 H 102.005 2.53736 -1.57037 0
M  V30 1120 C 100.754 3.47642 -0.0632808 0
M  V30 1121 H 100.077 3.91493 -0.810733 0
M  V30 1122 H 101.517 4.2363 0.177177 0
M  V30 1123 C 99.9758 3.1509 1.19248 0
M  V30 1124 O 100.506 3.30673 2.28075 0
M  V30 1125 N 98.7118 2.6924 1.09353 0
M  V30 1126 H 98.2588 2.5676 0.207912 0
M  V30 1127 H 98.2168 2.47833 1.93458 0
M  V30 1128 N 101.989 0.842826 1.3317 0
M  V30 1129 C 103.214 0.453129 2.02389 0
M  V30 1130 C 103.639 -0.939105 1.6298 0
M  V30 1131 O 102.997 -1.61472 0.8244 0
M  V30 1132 C 103.045 0.586094 3.55805 0
M  V30 1133 O 102.149 -0.386029 4.10589 0
M  V30 1134 H 101.49 0.183664 0.638094 0
M  V30 1135 H 104.02 1.13875 1.69981 0
M  V30 1136 H 104.03 0.469209 4.05293 0
M  V30 1137 H 102.705 1.6014 3.83833 0
M  V30 1138 H 101.282 -0.226371 3.72212 0
M  V30 1139 N 103.467 -1.45747 0.599634 0
M  V30 1140 C 104.692 -2.07178 0.0960198 0
M  V30 1141 C 105.117 -1.44268 -1.207 0
M  V30 1142 O 104.475 -0.532503 -1.73303 0
M  V30 1143 C 104.523 -3.60579 -0.0385348 0
M  V30 1144 O 103.627 -3.97713 -1.0908 0
M  V30 1145 H 102.968 -0.660251 0.0704593 0
M  V30 1146 H 105.498 -1.87124 0.827385 0
M  V30 1147 H 105.508 -4.07298 -0.239304 0
M  V30 1148 H 104.183 -4.05756 0.912947 0
M  V30 1149 H 102.76 -3.62678 -0.867135 0
M  V30 1150 N 104.945 -0.338344 -1.53925 0
M  V30 1151 C 106.173 0.261298 -2.05243 0
M  V30 1152 C 106.588 1.44625 -1.21363 0
M  V30 1153 O 105.945 1.80811 -0.247736 0
M  V30 1154 C 105.996 0.681412 -3.5502 0
M  V30 1155 O 105.717 -0.456414 -4.35716 0
M  V30 1156 C 107.218 1.34232 -4.22489 0
M  V30 1157 H 104.438 0.0513685 -0.669031 0
M  V30 1158 H 106.982 -0.488822 -1.98572 0
M  V30 1159 H 105.137 1.38148 -3.61931 0
M  V30 1160 H 105.551 -0.122564 -5.24357 0
M  V30 1161 H 107.025 1.58708 -5.28693 0
M  V30 1162 H 107.502 2.29426 -3.74514 0
M  V30 1163 H 108.108 0.684424 -4.19757 0
M  V30 1164 N 106.423 1.57458 -0.0668435 0
M  V30 1165 C 107.672 1.92477 0.602947 0
M  V30 1166 C 107.985 0.948419 1.71068 0
M  V30 1167 O 109.191 1.19124 2.43971 0
M  V30 1168 C 107.647 3.41903 1.12383 0
M  V30 1169 C 107.255 4.47975 0.04737 0
M  V30 1170 C 108.999 3.85931 1.76797 0
M  V30 1171 C 106.906 5.88529 0.582022 0
M  V30 1172 H 105.836 0.718387 0.22899 0
M  V30 1173 H 108.487 1.82978 -0.138276 0
M  V30 1174 H 106.869 3.46459 1.91787 0
M  V30 1175 H 108.043 4.55029 -0.726978 0
M  V30 1176 H 106.358 4.13384 -0.500243 0
M  V30 1177 H 108.955 4.88322 2.17821 0
M  V30 1178 H 109.298 3.23029 2.62599 0
M  V30 1179 H 109.831 3.83958 1.04024 0
M  V30 1180 H 106.57 6.55065 -0.238721 0
M  V30 1181 H 106.09 5.85004 1.324 0
M  V30 1182 H 107.769 6.38258 1.05999 0
M  V30 1183 N 107.901 -0.206675 1.56239 0
M  V30 1184 C 109.15 -0.926964 1.79138 0
M  V30 1185 C 109.463 -1.84901 0.638043 0
M  V30 1186 O 110.669 -2.60906 0.751033 0
M  V30 1187 C 109.125 -1.6986 3.17294 0
M  V30 1188 C 108.733 -0.821956 4.40395 0
M  V30 1189 C 110.477 -2.40922 3.4951 0
M  V30 1190 C 108.384 -1.59179 5.69575 0
M  V30 1191 H 107.314 -0.349864 0.667915 0
M  V30 1192 H 109.965 -0.180487 1.8261 0
M  V30 1193 H 108.347 -2.48853 3.08039 0
M  V30 1194 H 109.521 -0.0715019 4.60745 0
M  V30 1195 H 107.836 -0.222741 4.15804 0
M  V30 1196 H 110.433 -2.99047 4.43255 0
M  V30 1197 H 110.776 -3.14542 2.72707 0
M  V30 1198 H 111.309 -1.68905 3.60161 0
M  V30 1199 H 108.048 -0.898589 6.49312 0
M  V30 1200 H 107.568 -2.31648 5.53262 0
M  V30 1201 H 109.247 -2.14862 6.10281 0
M  V30 1202 N 109.379 -1.50304 -0.473955 0
M  V30 1203 C 110.342 -1.6841 -1.55469 0
M  V30 1204 C 111.342 -0.554905 -1.50922 0
M  V30 1205 O 112.532 -0.821882 -1.53593 0
M  V30 1206 C 109.664 -1.70667 -2.95102 0
M  V30 1207 H 110.857 -2.64828 -1.40733 0
M  V30 1208 H 108.41 -1.39742 -0.700132 0
M  V30 1209 H 109.145 -0.75932 -3.15285 0
M  V30 1210 H 108.93 -2.52698 -2.9981 0
M  V30 1211 H 110.42 -1.8664 -3.73571 0
M  V30 1212 N 110.857 0.726932 -1.39834 0
M  V30 1213 C 112.104 1.48664 -1.37496 0
M  V30 1214 C 112.432 1.94482 0.0264678 0
M  V30 1215 O 111.687 1.67692 1.00886 0
M  V30 1216 C 111.986 2.73495 -2.30077 0
M  V30 1217 C 111.652 2.46502 -3.77555 0
M  V30 1218 C 110.314 2.3885 -4.17737 0
M  V30 1219 C 112.666 2.23604 -4.70798 0
M  V30 1220 C 109.994 2.06352 -5.49214 0
M  V30 1221 C 112.346 1.92622 -6.02561 0
M  V30 1222 C 111.01 1.83444 -6.41798 0
M  V30 1223 H 110.28 0.544001 -0.503135 0
M  V30 1224 H 112.927 0.833657 -1.72402 0
M  V30 1225 H 111.232 3.43575 -1.88317 0
M  V30 1226 H 112.929 3.31549 -2.25558 0
M  V30 1227 H 109.519 2.5334 -3.45712 0
M  V30 1228 H 113.703 2.28479 -4.40581 0
M  V30 1229 H 108.959 1.97776 -5.78528 0
M  V30 1230 H 113.133 1.73914 -6.74334 0
M  V30 1231 H 110.76 1.58029 -7.43593 0
M  V30 1232 N 112.336 1.25143 0.95797 0
M  V30 1233 C 113.299 1.05321 2.03569 0
M  V30 1234 C 114.299 0.007152 1.60798 0
M  V30 1235 O 115.489 0.24903 1.72411 0
M  V30 1236 C 112.621 0.598394 3.35607 0
M  V30 1237 H 113.814 2.00986 2.22586 0
M  V30 1238 H 111.367 1.07502 1.13459 0
M  V30 1239 H 112.102 -0.361014 3.22284 0
M  V30 1240 H 111.887 1.35351 3.67998 0
M  V30 1241 H 113.377 0.48104 4.1482 0
M  V30 1242 N 113.814 -1.1601 1.06675 0
M  V30 1243 C 115.06 -1.86909 0.786945 0
M  V30 1244 C 115.393 -1.81717 -0.685018 0
M  V30 1245 O 114.668 -1.23551 -1.50218 0
M  V30 1246 C 114.951 -3.36313 1.28707 0
M  V30 1247 C 114.804 -3.50175 2.82308 0
M  V30 1248 C 116.123 -4.3084 0.898071 0
M  V30 1249 H 113.242 -0.678677 0.287343 0
M  V30 1250 H 115.884 -1.36336 1.32334 0
M  V30 1251 H 114.034 -3.79513 0.830768 0
M  V30 1252 H 115.706 -3.15886 3.36175 0
M  V30 1253 H 113.949 -2.91959 3.20847 0
M  V30 1254 H 114.62 -4.55116 3.12368 0
M  V30 1255 H 117.096 -3.95561 1.29114 0
M  V30 1256 H 115.972 -5.33876 1.27543 0
M  V30 1257 H 116.233 -4.41662 -0.196651 0
M  V30 1258 N 115.292 -0.849877 -1.32721 0
M  V30 1259 C 116.54 -0.450032 -1.97026 0
M  V30 1260 C 116.861 0.996604 -1.67609 0
M  V30 1261 O 116.131 1.6958 -0.980786 0
M  V30 1262 H 114.711 -0.163426 -0.728904 0
M  V30 1263 H 117.373 -1.08526 -1.6189 0
M  V30 1264 H 116.469 -0.591146 -3.0645 0
M  V30 1265 N 116.77 1.45427 -0.607355 0
M  V30 1266 C 118.018 2.01841 -0.102253 0
M  V30 1267 C 118.339 1.47832 1.27164 0
M  V30 1268 O 117.609 0.672497 1.83995 0
M  V30 1269 H 116.189 0.746188 -0.0348101 0
M  V30 1270 H 118.851 1.78229 -0.7887 0
M  V30 1271 H 117.947 3.12057 -0.0518585 0
M  V30 1272 N 118.248 0.346503 1.53744 0
M  V30 1273 C 119.18 -0.543316 2.22667 0
M  V30 1274 C 120.193 -1.06159 1.23427 0
M  V30 1275 O 121.382 -0.971235 1.49764 0
M  V30 1276 C 118.482 -1.76076 2.89569 0
M  V30 1277 C 117.655 -1.37727 4.15151 0
M  V30 1278 C 116.714 -2.45471 4.65436 0
M  V30 1279 O 115.74 -2.08655 5.29577 0
M  V30 1280 N 116.942 -3.7677 4.41616 0
M  V30 1281 H 119.707 0.0469703 2.99663 0
M  V30 1282 H 117.268 0.170766 1.60997 0
M  V30 1283 H 119.26 -2.47593 3.20125 0
M  V30 1284 H 117.83 -2.25835 2.16142 0
M  V30 1285 H 117.05 -0.492746 3.91108 0
M  V30 1286 H 118.338 -1.09708 4.96832 0
M  V30 1287 H 117.736 -4.09467 3.90325 0
M  V30 1288 H 116.293 -4.44448 4.7677 0
M  V30 1289 N 119.726 -1.57421 0.075193 0
M  V30 1290 C 120.956 -1.97659 -0.601203 0
M  V30 1291 C 121.364 -0.952427 -1.63479 0
M  V30 1292 O 120.707 0.0688241 -1.83571 0
M  V30 1293 C 120.769 -3.34218 -1.32434 0
M  V30 1294 C 120.433 -4.5484 -0.443826 0
M  V30 1295 C 121.43 -5.19034 0.299969 0
M  V30 1296 C 119.115 -5.00952 -0.367709 0
M  V30 1297 C 121.109 -6.27695 1.10807 0
M  V30 1298 C 118.796 -6.09484 0.444058 0
M  V30 1299 C 119.794 -6.72719 1.18061 0
M  V30 1300 O 119.482 -7.79161 1.97898 0
M  V30 1301 H 119.214 -0.65494 -0.167422 0
M  V30 1302 H 121.768 -2.04886 0.145157 0
M  V30 1303 H 119.998 -3.23615 -2.11685 0
M  V30 1304 H 121.687 -3.59038 -1.89331 0
M  V30 1305 H 122.453 -4.84351 0.250776 0
M  V30 1306 H 118.332 -4.51509 -0.930638 0
M  V30 1307 H 121.876 -6.76982 1.68347 0
M  V30 1308 H 117.773 -6.43601 0.494803 0
M  V30 1309 H 118.541 -7.96055 1.90367 0
M  V30 1310 N 121.204 0.198386 -1.56346 0
M  V30 1311 C 122.45 0.920648 -1.80698 0
M  V30 1312 C 122.783 1.83045 -0.648697 0
M  V30 1313 O 122.058 1.91308 0.350925 0
M  V30 1314 C 122.341 1.73971 -3.15287 0
M  V30 1315 C 122.194 0.85485 -4.41602 0
M  V30 1316 C 123.513 2.71296 -3.46535 0
M  V30 1317 H 120.632 0.333261 -0.657348 0
M  V30 1318 H 123.274 0.188198 -1.89066 0
M  V30 1319 H 121.424 2.36416 -3.08285 0
M  V30 1320 H 123.096 0.245362 -4.60647 0
M  V30 1321 H 121.339 0.161398 -4.335 0
M  V30 1322 H 122.01 1.46286 -5.32264 0
M  V30 1323 H 124.486 2.18983 -3.53816 0
M  V30 1324 H 123.362 3.2569 -4.41834 0
M  V30 1325 H 123.623 3.5018 -2.69864 0
M  V30 1326 N 122.682 1.50554 0.465978 0
M  V30 1327 C 124.093 1.54599 1.04671 0
M  V30 1328 C 124.444 0.352488 1.93008 0
M  V30 1329 O 123.569 -0.534044 2.09707 0
M  V30 1330 C 124.164 2.80166 1.90505 0
M  V30 1331 C 122.723 2.86876 2.43678 0
M  V30 1332 C 121.87 2.48947 1.22151 0
M  V30 1333 H 124.821 1.56744 0.248384 0
M  V30 1334 H 124.842 2.62311 2.75633 0
M  V30 1335 H 124.354 3.67013 1.26186 0
M  V30 1336 H 122.455 2.04393 3.11536 0
M  V30 1337 H 122.568 3.89885 2.78436 0
M  V30 1338 H 120.932 2.01498 1.5579 0
M  V30 1339 H 121.715 3.38107 0.594866 0
M  V30 1340 N 124.16 -0.719506 1.40217 0
M  V30 1341 C 125.408 -1.47641 1.3801 0
M  V30 1342 C 125.729 -1.94992 -0.018145 0
M  V30 1343 O 124.999 -1.70073 -0.972207 0
M  V30 1344 H 123.579 -0.547744 0.507923 0
M  V30 1345 H 126.241 -0.853187 1.75233 0
M  V30 1346 H 125.337 -2.35112 2.05253 0
M  V30 1347 N 125.638 -1.25649 -0.95132 0
M  V30 1348 C 126.586 -1.06118 -2.06982 0
M  V30 1349 C 127.58 0.00889169 -1.69398 0
M  V30 1350 O 128.786 -0.146988 -1.79399 0
M  V30 1351 H 125.161 -0.326248 -0.677544 0
M  V30 1352 H 127.132 -2.00932 -2.2061 0
M  V30 1353 C 125.881 -0.700145 -3.40578 0
M  V30 1354 H 125.204 -1.51537 -3.69968 0
M  V30 1355 H 126.644 -0.603211 -4.19687 0
M  V30 1356 C 125.103 0.59403 -3.31622 0
M  V30 1357 O 125.633 1.63522 -3.66911 0
M  V30 1358 N 123.839 0.58089 -2.84735 0
M  V30 1359 H 123.386 -0.266783 -2.56215 0
M  V30 1360 H 123.344 1.44695 -2.79125 0
M  V30 1361 N 127.117 1.15442 -1.07289 0
M  V30 1362 C 128.365 1.85845 -0.794096 0
M  V30 1363 C 128.686 1.82692 0.681809 0
M  V30 1364 O 127.956 1.26741 1.49377 0
M  V30 1365 H 126.536 0.688089 -0.290763 0
M  V30 1366 H 129.198 1.39947 -1.3565 0
M  V30 1367 H 128.294 2.91001 -1.12804 0
M  V30 1368 N 128.595 0.856903 1.32268 0
M  V30 1369 C 129.842 0.461386 1.97174 0
M  V30 1370 C 130.17 -0.983491 1.67803 0
M  V30 1371 O 129.425 -1.70541 0.959903 0
M  V30 1372 C 129.724 0.649919 3.51441 0
M  V30 1373 C 129.39 2.0656 4.00804 0
M  V30 1374 C 128.052 2.45279 4.13995 0
M  V30 1375 C 130.404 2.98947 4.26943 0
M  V30 1376 C 127.732 3.75653 4.50668 0
M  V30 1377 C 130.084 4.28822 4.65075 0
M  V30 1378 C 128.748 4.67472 4.76472 0
M  V30 1379 H 128.018 0.168833 0.72151 0
M  V30 1380 H 130.665 1.08739 1.57633 0
M  V30 1381 H 128.97 -0.0593018 3.91755 0
M  V30 1382 H 130.667 0.32391 3.9969 0
M  V30 1383 H 127.257 1.75495 3.91024 0
M  V30 1384 H 131.441 2.70265 4.16258 0
M  V30 1385 H 126.697 4.05379 4.57688 0
M  V30 1386 H 130.871 5.0047 4.84255 0
M  V30 1387 H 128.498 5.68539 5.04646 0
M  V30 1388 N 130.073 -1.45103 0.615059 0
M  V30 1389 C 131.298 -2.07064 0.117988 0
M  V30 1390 C 131.723 -1.4554 -1.19163 0
M  V30 1391 O 131.081 -0.550855 -1.72729 0
M  V30 1392 C 131.129 -3.606 -0.000288387 0
M  V30 1393 O 130.233 -3.98847 -1.04856 0
M  V30 1394 H 129.574 -0.659467 0.0774581 0
M  V30 1395 H 132.104 -1.86236 0.847186 0
M  V30 1396 H 132.114 -4.07529 -0.196091 0
M  V30 1397 H 130.789 -4.04765 0.955932 0
M  V30 1398 H 129.366 -3.63577 -0.828619 0
M  V30 1399 N 131.551 -0.354651 -1.53558 0
M  V30 1400 C 132.481 0.489091 -2.2832 0
M  V30 1401 C 133.462 1.09324 -1.30316 0
M  V30 1402 O 134.647 1.11255 -1.59173 0
M  V30 1403 C 131.777 1.63456 -3.0643 0
M  V30 1404 C 130.731 1.1582 -4.12031 0
M  V30 1405 C 130.057 2.39305 -4.7816 0
M  V30 1406 C 131.357 0.250731 -5.21698 0
M  V30 1407 H 133.051 -0.134614 -2.99097 0
M  V30 1408 H 130.597 -0.0661826 -1.43848 0
M  V30 1409 H 132.55 2.23136 -3.57475 0
M  V30 1410 H 131.274 2.28533 -2.33325 0
M  V30 1411 H 129.933 0.584146 -3.61916 0
M  V30 1412 H 129.581 3.02814 -4.01637 0
M  V30 1413 H 129.281 2.08109 -5.49513 0
M  V30 1414 H 130.805 2.99691 -5.31994 0
M  V30 1415 H 132.219 0.754695 -5.68311 0
M  V30 1416 H 130.616 0.0301468 -6.00092 0
M  V30 1417 H 131.686 -0.710125 -4.79672 0
M  V30 1418 N 133.029 1.57378 -0.0835403 0
M  V30 1419 C 134.278 1.93106 0.582498 0
M  V30 1420 C 134.591 0.96651 1.70053 0
M  V30 1421 O 135.797 1.21705 2.42693 0
M  V30 1422 C 134.253 3.43076 1.08751 0
M  V30 1423 C 133.861 4.48 -0.000146404 0
M  V30 1424 C 135.605 3.87785 1.72694 0
M  V30 1425 C 133.512 5.89113 0.519568 0
M  V30 1426 H 132.442 0.720775 0.221358 0
M  V30 1427 H 135.093 1.82821 -0.157675 0
M  V30 1428 H 133.475 3.48474 1.88101 0
M  V30 1429 H 134.649 4.54233 -0.775199 0
M  V30 1430 H 132.964 4.1283 -0.54406 0
M  V30 1431 H 135.561 4.90604 2.1263 0
M  V30 1432 H 135.904 3.25796 2.59158 0
M  V30 1433 H 136.437 3.8504 0.999457 0
M  V30 1434 H 133.176 6.54775 -0.308186 0
M  V30 1435 H 132.696 5.86376 1.26188 0
M  V30 1436 H 134.375 6.39346 0.992237 0
M  V30 1437 N 134.507 -0.190092 1.56449 0
M  V30 1438 C 135.755 -0.907908 1.80559 0
M  V30 1439 C 136.076 -1.83583 0.657438 0
M  V30 1440 O 135.346 -1.93203 -0.323924 0
M  V30 1441 H 133.926 -0.338247 0.666032 0
M  V30 1442 H 136.588 -0.194403 1.93928 0
M  V30 1443 H 135.684 -1.49604 2.73907 0
M  V30 1444 N 135.985 -1.50799 -0.457987 0
M  V30 1445 C 136.948 -1.7005 -1.53674 0
M  V30 1446 C 137.948 -0.570881 -1.50325 0
M  V30 1447 O 139.138 -0.838126 -1.52712 0
M  V30 1448 C 136.27 -1.73788 -2.93276 0
M  V30 1449 H 137.463 -2.66306 -1.37917 0
M  V30 1450 H 135.016 -1.40477 -0.685271 0
M  V30 1451 H 135.751 -0.792717 -3.14462 0
M  V30 1452 H 135.536 -2.55864 -2.97113 0
M  V30 1453 H 137.026 -1.90591 -3.71571 0
M  V30 1454 N 137.463 0.71206 -1.40597 0
M  V30 1455 C 138.413 1.81783 -1.37619 0
M  V30 1456 C 139.397 1.58896 -0.253162 0
M  V30 1457 O 140.589 1.70009 -0.492547 0
M  V30 1458 C 137.718 3.19944 -1.24462 0
M  V30 1459 C 136.804 3.48582 -2.4156 0
M  V30 1460 N 137.195 3.48016 -3.67041 0
M  V30 1461 C 135.493 3.79056 -2.35016 0
M  V30 1462 C 136.194 3.75096 -4.44609 0
M  V30 1463 N 135.17 3.94022 -3.74497 0
M  V30 1464 H 138.972 1.79683 -2.32575 0
M  V30 1465 H 136.486 0.91134 -1.34419 0
M  V30 1466 H 138.483 3.99133 -1.20411 0
M  V30 1467 H 137.143 3.23267 -0.304762 0
M  V30 1468 H 138.154 3.28782 -4.00153 0
M  V30 1469 H 134.831 3.89848 -1.49415 0
M  V30 1470 H 136.221 3.80934 -5.53479 0
M  V30 1471 N 138.941 1.26152 0.944643 0
M  V30 1472 C 140.169 1.14259 1.72489 0
M  V30 1473 C 140.584 -0.302555 1.8636 0
M  V30 1474 O 139.941 -1.20741 1.36849 0
M  V30 1475 C 139.992 1.80266 3.13347 0
M  V30 1476 O 139.713 3.19133 3.00143 0
M  V30 1477 C 141.214 1.74283 4.07603 0
M  V30 1478 H 138.434 0.398051 0.540181 0
M  V30 1479 H 140.978 1.66706 1.18446 0
M  V30 1480 H 139.133 1.31766 3.64303 0
M  V30 1481 H 139.547 3.51744 3.89071 0
M  V30 1482 H 141.021 2.25111 5.04013 0
M  V30 1483 H 141.498 0.708631 4.33446 0
M  V30 1484 H 142.104 2.22319 3.62567 0
M  V30 1485 N 140.419 -1.14872 1.07899 0
M  V30 1486 C 141.696 -1.81928 0.71845 0
M  V30 1487 C 142.076 -1.95417 -0.798455 0
M  V30 1488 O 141.424 -1.50997 -1.715 0
M  V30 1489 C 141.634 -3.17937 1.43935 0
M  V30 1490 C 142.982 -3.93501 1.59506 0
M  V30 1491 O 144.006 -3.27509 1.40058 0
M  V30 1492 O 142.865 -5.1183 1.91551 0
M  V30 1493 H 139.959 -0.78628 0.256305 0
M  V30 1494 H 142.505 -1.21934 1.18026 0
M  V30 1495 H 141.277 -3.0325 2.47295 0
M  V30 1496 H 140.9 -3.85619 0.968687 0
M  V30 1497 N 141.898 -0.863906 -1.31812 0
M  V30 1498 C 143.123 -0.48527 -2.01643 0
M  V30 1499 C 143.548 0.913058 -1.64453 0
M  V30 1500 O 142.906 1.6014 -0.849985 0
M  V30 1501 C 142.954 -0.642625 -3.54828 0
M  V30 1502 O 142.058 0.320659 -4.11151 0
M  V30 1503 H 141.399 -0.193793 -0.635091 0
M  V30 1504 H 143.929 -1.16565 -1.68148 0
M  V30 1505 H 143.939 -0.533628 -4.04495 0
M  V30 1506 H 142.614 -1.66227 -3.81237 0
M  V30 1507 H 141.191 0.167126 -3.72525 0
M  V30 1508 N 143.376 1.44774 -0.622745 0
M  V30 1509 C 144.787 1.85546 -0.207226 0
M  V30 1510 C 145.138 1.52093 1.23944 0
M  V30 1511 O 144.263 0.95492 1.94191 0
M  V30 1512 C 144.858 3.36781 -0.369313 0
M  V30 1513 C 143.417 3.76399 -0.00836847 0
M  V30 1514 C 142.564 2.68664 -0.686651 0
M  V30 1515 H 145.515 1.3536 -0.828454 0
M  V30 1516 H 145.536 3.78453 0.394162 0
M  V30 1517 H 145.048 3.61098 -1.42231 0
M  V30 1518 H 143.149 3.57698 1.04322 0
M  V30 1519 H 143.262 4.7732 -0.412584 0
M  V30 1520 H 141.626 2.54404 -0.122777 0
M  V30 1521 H 142.409 2.95815 -1.74208 0
M  V30 1522 N 144.854 0.36279 1.53368 0
M  V30 1523 C 146.094 -0.227882 2.03126 0
M  V30 1524 C 146.458 -1.4622 1.24434 0
M  V30 1525 O 147.659 -2.12831 1.64184 0
M  V30 1526 C 145.93 -0.515427 3.53664 0
M  V30 1527 S 147.489 -1.08017 4.25297 0
M  V30 1528 H 144.307 -0.0665377 0.70788 0
M  V30 1529 H 146.909 0.50501 1.88865 0
M  V30 1530 H 145.613 0.390436 4.08539 0
M  V30 1531 H 145.144 -1.27747 3.72081 0
M  V30 1532 H 147.159 -2.36462 4.36234 0
M  V30 1533 N 146.332 -1.57332 0.0918853 0
M  V30 1534 C 147.262 -2.16872 -0.865371 0
M  V30 1535 C 148.243 -1.10118 -1.29646 0
M  V30 1536 O 149.428 -1.38242 -1.36392 0
M  V30 1537 C 146.558 -2.74649 -2.12569 0
M  V30 1538 C 145.512 -3.86747 -1.83333 0
M  V30 1539 C 144.838 -4.31212 -3.16166 0
M  V30 1540 C 146.138 -5.10089 -1.1228 0
M  V30 1541 H 147.832 -2.97114 -0.369307 0
M  V30 1542 H 145.378 -1.42918 -0.176194 0
M  V30 1543 H 147.331 -3.14952 -2.7997 0
M  V30 1544 H 146.055 -1.91657 -2.64452 0
M  V30 1545 H 144.714 -3.46978 -1.18331 0
M  V30 1546 H 144.362 -3.45115 -3.6593 0
M  V30 1547 H 144.062 -5.06788 -2.97388 0
M  V30 1548 H 145.586 -4.74146 -3.84731 0
M  V30 1549 H 147 -5.47582 -1.69785 0
M  V30 1550 H 145.397 -5.91073 -1.03693 0
M  V30 1551 H 146.467 -4.84786 -0.105041 0
M  V30 1552 N 147.81 0.181792 -1.56548 0
M  V30 1553 C 149.226 0.53316 -1.50431 0
M  V30 1554 C 149.426 1.85184 -0.794297 0
M  V30 1555 O 148.482 2.50058 -0.350318 0
M  V30 1556 C 149.795 0.575597 -2.9514 0
M  V30 1557 C 151.343 0.663519 -3.05886 0
M  V30 1558 C 151.818 0.736946 -4.52032 0
M  V30 1559 N 153.309 0.800118 -4.56237 0
M  V30 1560 C 154.044 0.877327 -5.66649 0
M  V30 1561 N 153.54 0.916016 -6.86718 0
M  V30 1562 N 155.333 0.915542 -5.54594 0
M  V30 1563 H 147.484 -0.683025 -2.01118 0
M  V30 1564 H 149.747 -0.244988 -0.915797 0
M  V30 1565 H 149.453 -0.324482 -3.502 0
M  V30 1566 H 149.327 1.42572 -3.49218 0
M  V30 1567 H 151.714 1.55403 -2.50867 0
M  V30 1568 H 151.795 -0.21307 -2.54911 0
M  V30 1569 H 151.439 -0.149262 -5.07681 0
M  V30 1570 H 151.369 1.62953 -5.00753 0
M  V30 1571 H 153.86 0.778926 -3.69785 0
M  V30 1572 H 154.173 0.975813 -7.66614 0
M  V30 1573 H 152.518 0.884469 -6.89349 0
M  V30 1574 H 155.709 0.882245 -4.59711 0
M  V30 1575 H 155.882 0.972253 -6.40665 0
M  V30 1576 N 149.288 1.51039 0.449983 0
M  V30 1577 C 150.534 1.63322 1.20223 0
M  V30 1578 C 150.867 0.34241 1.91158 0
M  V30 1579 O 150.142 -0.657344 1.83055 0
M  V30 1580 C 150.425 2.82801 2.22925 0
M  V30 1581 C 150.278 4.21823 1.56157 0
M  V30 1582 C 151.597 2.97807 3.24035 0
M  V30 1583 H 148.716 0.594407 0.435718 0
M  V30 1584 H 151.358 1.83489 0.493136 0
M  V30 1585 H 149.508 2.65738 2.834 0
M  V30 1586 H 151.18 4.50526 0.991162 0
M  V30 1587 H 149.423 4.25105 0.864172 0
M  V30 1588 H 150.094 5.01391 2.30891 0
M  V30 1589 H 152.57 3.13497 2.73603 0
M  V30 1590 H 151.446 3.82992 3.93202 0
M  V30 1591 H 151.707 2.09328 3.89402 0
M  V30 1592 N 150.766 -0.704594 1.40972 0
M  V30 1593 C 151.713 -1.81862 1.42109 0
M  V30 1594 C 152.683 -1.63781 0.276593 0
M  V30 1595 O 153.868 -1.84759 0.4763 0
M  V30 1596 C 151.008 -3.19669 1.30022 0
M  V30 1597 C 150.121 -3.49246 2.54267 0
M  V30 1598 C 149.256 -4.76618 2.3454 0
M  V30 1599 C 148.295 -4.99133 3.54306 0
M  V30 1600 N 147.432 -6.17726 3.33706 0
M  V30 1601 H 152.272 -1.80226 2.37324 0
M  V30 1602 H 149.809 -0.880238 1.17857 0
M  V30 1603 H 151.767 -3.99263 1.21018 0
M  V30 1604 H 150.397 -3.20506 0.384192 0
M  V30 1605 H 149.449 -2.64125 2.73756 0
M  V30 1606 H 150.761 -3.61788 3.43381 0
M  V30 1607 H 149.915 -5.64249 2.22952 0
M  V30 1608 H 148.654 -4.66305 1.42867 0
M  V30 1609 H 147.659 -4.09953 3.66359 0
M  V30 1610 H 148.884 -5.11311 4.4692 0
M  V30 1611 H 146.83 -6.08642 2.44725 0
M  V30 1612 H 146.747 -6.30995 4.16391 0
M  V30 1613 H 148.015 -7.08115 3.25873 0
M  V30 1614 N 152.244 -1.26651 -0.937939 0
M  V30 1615 C 153.66 -1.03834 -1.21205 0
M  V30 1616 C 153.86 0.234502 -2.00131 0
M  V30 1617 O 152.916 0.942767 -2.3424 0
M  V30 1618 C 154.229 -2.27167 -1.97017 0
M  V30 1619 C 155.777 -2.32101 -2.09996 0
M  V30 1620 C 156.252 -3.55136 -2.8921 0
M  V30 1621 N 157.743 -3.55632 -2.96783 0
M  V30 1622 C 158.478 -4.475 -3.58512 0
M  V30 1623 N 157.974 -5.4966 -4.21717 0
M  V30 1624 N 159.767 -4.35145 -3.55816 0
M  V30 1625 H 151.918 -2.08398 -0.410391 0
M  V30 1626 H 154.181 -0.916031 -0.244114 0
M  V30 1627 H 153.887 -3.19765 -1.46434 0
M  V30 1628 H 153.761 -2.31672 -2.97671 0
M  V30 1629 H 156.148 -1.40015 -2.59769 0
M  V30 1630 H 156.229 -2.31605 -1.08594 0
M  V30 1631 H 155.873 -4.47553 -2.40123 0
M  V30 1632 H 155.803 -3.5288 -3.90875 0
M  V30 1633 H 158.294 -2.81743 -2.51852 0
M  V30 1634 H 158.607 -6.15943 -4.66727 0
M  V30 1635 H 156.952 -5.53514 -4.20294 0
M  V30 1636 H 160.143 -3.5455 -3.05634 0
M  V30 1637 H 160.316 -5.06934 -4.03636 0
M  V30 1638 N 153.722 1.14298 -1.08507 0
M  V30 1639 C 155.138 1.37347 -0.812901 0
M  V30 1640 C 155.338 1.93052 0.577325 0
M  V30 1641 O 154.394 2.14389 1.33393 0
M  V30 1642 C 155.707 2.33359 -1.89642 0
M  V30 1643 C 157.255 2.46996 -1.92255 0
M  V30 1644 C 157.73 3.46309 -2.99724 0
M  V30 1645 N 159.221 3.53853 -2.98902 0
M  V30 1646 C 159.956 4.3055 -3.787 0
M  V30 1647 N 159.452 5.10482 -4.6838 0
M  V30 1648 N 161.245 4.25757 -3.66998 0
M  V30 1649 H 153.396 0.764867 -1.9815 0
M  V30 1650 H 155.659 0.398966 -0.859959 0
M  V30 1651 H 155.365 1.99565 -2.89597 0
M  V30 1652 H 155.239 3.33274 -1.76659 0
M  V30 1653 H 157.626 2.80081 -0.929445 0
M  V30 1654 H 157.707 1.47039 -2.09316 0
M  V30 1655 H 157.351 3.13957 -3.99241 0
M  V30 1656 H 157.281 4.46049 -2.79907 0
M  V30 1657 H 159.772 2.96812 -2.33904 0
M  V30 1658 H 160.085 5.66284 -5.25873 0
M  V30 1659 H 158.43 5.09747 -4.72422 0
M  V30 1660 H 161.621 3.62383 -2.96304 0
M  V30 1661 H 161.794 4.85279 -4.29427 0
M  V30 1662 N 155.201 0.870884 1.31352 0
M  V30 1663 C 156.426 0.495957 2.01383 0
M  V30 1664 C 156.851 -0.904324 1.64935 0
M  V30 1665 O 156.209 -1.59687 0.858466 0
M  V30 1666 C 156.257 0.661433 3.54482 0
M  V30 1667 O 155.361 -0.298851 4.11316 0
M  V30 1668 H 154.702 0.197158 0.634054 0
M  V30 1669 H 157.232 1.17455 1.67527 0
M  V30 1670 H 157.242 0.555072 4.04207 0
M  V30 1671 H 155.917 1.68246 3.8035 0
M  V30 1672 H 154.494 -0.147368 3.72609 0
M  V30 1673 N 156.679 -1.44442 0.630414 0
M  V30 1674 C 158.095 -1.56832 0.295973 0
M  V30 1675 C 158.295 -1.61806 -1.20088 0
M  V30 1676 O 157.351 -1.5607 -1.9849 0
M  V30 1677 C 158.664 -2.84031 0.987264 0
M  V30 1678 C 160.212 -2.97742 0.96534 0
M  V30 1679 C 160.687 -4.27743 1.63708 0
M  V30 1680 N 162.178 -4.34555 1.60364 0
M  V30 1681 C 162.913 -5.33862 2.09234 0
M  V30 1682 N 162.409 -6.39578 2.66292 0
M  V30 1683 N 164.202 -5.25366 1.99867 0
M  V30 1684 H 156.353 -1.39457 1.60205 0
M  V30 1685 H 158.616 -0.668237 0.672431 0
M  V30 1686 H 158.322 -2.86338 2.04215 0
M  V30 1687 H 158.196 -3.73534 0.524588 0
M  V30 1688 H 160.583 -2.94989 -0.0810639 0
M  V30 1689 H 160.664 -2.09589 1.4665 0
M  V30 1690 H 160.308 -4.31255 2.68293 0
M  V30 1691 H 160.238 -5.14752 1.11076 0
M  V30 1692 H 162.729 -3.58772 1.18705 0
M  V30 1693 H 163.042 -7.11637 3.01317 0
M  V30 1694 H 161.387 -6.40265 2.70343 0
M  V30 1695 H 164.578 -4.41688 1.55013 0
M  V30 1696 H 164.751 -6.02606 2.38265 0
M  V30 1697 N 158.157 -0.370918 -1.53173 0
M  V30 1698 C 159.573 -0.0200818 -1.59587 0
M  V30 1699 C 159.773 1.46279 -1.38581 0
M  V30 1700 O 158.829 2.22506 -1.19363 0
M  V30 1701 C 160.142 -0.4808 -2.96831 0
M  V30 1702 C 161.69 -0.435477 -3.09956 0
M  V30 1703 C 162.165 -0.872092 -4.4962 0
M  V30 1704 N 163.656 -0.827364 -4.55751 0
M  V30 1705 C 164.391 -1.13683 -5.62018 0
M  V30 1706 N 163.887 -1.51584 -6.76014 0
M  V30 1707 N 165.68 -1.05927 -5.52029 0
M  V30 1708 H 157.831 -1.33652 -1.65079 0
M  V30 1709 H 160.094 -0.546634 -0.774529 0
M  V30 1710 H 159.8 -1.51577 -3.1736 0
M  V30 1711 H 159.674 0.129796 -3.76977 0
M  V30 1712 H 162.061 0.590371 -2.89134 0
M  V30 1713 H 162.142 -1.08164 -2.31806 0
M  V30 1714 H 161.786 -1.89608 -4.71181 0
M  V30 1715 H 161.716 -0.203127 -5.26208 0
M  V30 1716 H 164.207 -0.548216 -3.73902 0
M  V30 1717 H 164.52 -1.73609 -7.53047 0
M  V30 1718 H 162.865 -1.55454 -6.77391 0
M  V30 1719 H 166.056 -0.762321 -4.61851 0
M  V30 1720 H 166.229 -1.30378 -6.34749 0
M  V30 1721 N 159.635 1.57281 -0.100228 0
M  V30 1722 C 160.86 1.99302 0.573881 0
M  V30 1723 C 161.285 0.979059 1.60611 0
M  V30 1724 O 160.643 -0.0517803 1.81226 0
M  V30 1725 C 160.691 3.40274 1.19358 0
M  V30 1726 O 159.795 3.41676 2.30935 0
M  V30 1727 H 159.136 0.647944 0.145138 0
M  V30 1728 H 161.666 2.03779 -0.183156 0
M  V30 1729 H 161.676 3.78078 1.53365 0
M  V30 1730 H 160.351 4.13594 0.437385 0
M  V30 1731 H 158.928 3.15672 1.98509 0
M  V30 1732 N 161.113 -0.173488 1.56642 0
M  V30 1733 C 162.045 -1.23935 1.92802 0
M  V30 1734 C 163.058 -1.40589 0.820889 0
M  V30 1735 O 164.247 -1.40631 1.09933 0
M  V30 1736 C 161.347 -2.60837 2.16373 0
M  V30 1737 C 160.52 -2.6551 3.47596 0
M  V30 1738 C 159.579 -3.8376 3.60021 0
M  V30 1739 O 158.605 -3.69859 4.32658 0
M  V30 1740 N 159.807 -5.00127 2.94709 0
M  V30 1741 H 162.572 -0.932236 2.84832 0
M  V30 1742 H 160.133 -0.363268 1.57772 0
M  V30 1743 H 162.125 -3.38407 2.21952 0
M  V30 1744 H 160.695 -2.83948 1.30738 0
M  V30 1745 H 159.915 -1.74052 3.53694 0
M  V30 1746 H 161.203 -2.65641 4.33949 0
M  V30 1747 H 160.601 -5.14322 2.35563 0
M  V30 1748 H 159.158 -5.75567 3.05886 0
M  V30 1749 N 162.591 -1.51276 -0.441967 0
M  V30 1750 C 163.837 -1.63958 -1.19355 0
M  V30 1751 C 164.17 -0.352543 -1.90973 0
M  V30 1752 O 163.445 0.647627 -1.83401 0
M  V30 1753 C 163.728 -2.83979 -2.21422 0
M  V30 1754 C 163.581 -4.22646 -1.53918 0
M  V30 1755 C 164.9 -2.99521 -3.22451 0
M  V30 1756 H 162.019 -0.596709 -0.432559 0
M  V30 1757 H 164.661 -1.83748 -0.483398 0
M  V30 1758 H 162.811 -2.67237 -2.81987 0
M  V30 1759 H 164.483 -4.51045 -0.967256 0
M  V30 1760 H 162.726 -4.25558 -0.841615 0
M  V30 1761 H 163.397 -5.02609 -2.28229 0
M  V30 1762 H 165.873 -3.14944 -2.71937 0
M  V30 1763 H 164.749 -3.85072 -3.91166 0
M  V30 1764 H 165.01 -2.11391 -3.88287 0
M  V30 1765 N 164.069 0.697108 -1.41344 0
M  V30 1766 C 165.317 1.45426 -1.40341 0
M  V30 1767 C 165.638 1.94996 -0.0128787 0
M  V30 1768 O 164.908 1.71599 0.945027 0
M  V30 1769 H 163.488 0.539594 -0.516573 0
M  V30 1770 H 166.15 0.825201 -1.76569 0
M  V30 1771 H 165.246 2.31817 -2.08967 0
M  V30 1772 N 165.547 1.27147 0.931209 0
M  V30 1773 C 166.794 1.13278 1.67852 0
M  V30 1774 C 167.122 -0.32204 1.91815 0
M  V30 1775 O 166.377 -1.25224 1.50391 0
M  V30 1776 C 166.676 1.8579 3.05314 0
M  V30 1777 C 166.342 3.35657 3.01073 0
M  V30 1778 C 165.004 3.76536 2.99623 0
M  V30 1779 C 167.356 4.31299 2.92627 0
M  V30 1780 C 164.684 5.11426 2.87506 0
M  V30 1781 C 167.036 5.66242 2.82051 0
M  V30 1782 C 165.7 6.06418 2.7895 0
M  V30 1783 H 164.97 0.414515 0.614214 0
M  V30 1784 H 167.617 1.57712 1.08624 0
M  V30 1785 H 165.922 1.33854 3.68226 0
M  V30 1786 H 167.619 1.72491 3.62005 0
M  V30 1787 H 164.209 3.03146 3.02986 0
M  V30 1788 H 168.393 4.00692 2.92848 0
M  V30 1789 H 163.649 5.41705 2.83489 0
M  V30 1790 H 167.823 6.40026 2.74481 0
M  V30 1791 H 165.45 7.10895 2.69318 0
M  V30 1792 N 167.025 -1.13721 1.09112 0
M  V30 1793 C 167.957 -2.1871 0.685467 0
M  V30 1794 C 168.97 -1.60527 -0.271068 0
M  V30 1795 O 170.159 -1.78407 -0.0576148 0
M  V30 1796 C 167.259 -3.38898 -0.0111255 0
M  V30 1797 C 166.432 -4.26597 0.966131 0
M  V30 1798 C 165.491 -5.25324 0.303539 0
M  V30 1799 O 164.517 -5.61213 0.950177 0
M  V30 1800 N 165.719 -5.72779 -0.943651 0
M  V30 1801 H 168.484 -2.54126 1.58871 0
M  V30 1802 H 166.045 -1.29012 0.978143 0
M  V30 1803 H 168.037 -4.02014 -0.465517 0
M  V30 1804 H 166.607 -3.01747 -0.816565 0
M  V30 1805 H 165.827 -3.60306 1.59917 0
M  V30 1806 H 167.115 -4.82048 1.6281 0
M  V30 1807 H 166.513 -5.45762 -1.48862 0
M  V30 1808 H 165.07 -6.37847 -1.34142 0
M  V30 1809 N 168.503 -0.877838 -1.30888 0
M  V30 1810 C 169.435 -0.296607 -2.27273 0
M  V30 1811 C 170.448 0.544799 -1.53414 0
M  V30 1812 O 171.637 0.365511 -1.74718 0
M  V30 1813 C 168.737 0.597481 -3.33592 0
M  V30 1814 C 167.91 -0.213251 -4.3688 0
M  V30 1815 C 166.969 0.610208 -5.2265 0
M  V30 1816 O 165.995 0.035441 -5.69189 0
M  V30 1817 N 167.197 1.92071 -5.47804 0
M  V30 1818 H 169.962 -1.12492 -2.77787 0
M  V30 1819 H 167.523 -0.740105 -1.43993 0
M  V30 1820 H 169.515 1.15425 -3.87891 0
M  V30 1821 H 168.085 1.32647 -2.83061 0
M  V30 1822 H 167.305 -0.951466 -3.82545 0
M  V30 1823 H 168.593 -0.769262 -5.02951 0
M  V30 1824 H 167.991 2.4107 -5.11763 0
M  V30 1825 H 166.548 2.42508 -6.05007 0
M  V30 1826 N 169.982 1.44106 -0.638065 0
M  V30 1827 C 171.228 2.02277 -0.145546 0
M  V30 1828 C 171.561 1.50125 1.23191 0
M  V30 1829 O 170.836 0.688133 1.8192 0
M  V30 1830 C 171.119 3.59829 -0.139791 0
M  V30 1831 C 170.972 4.22247 -1.55008 0
M  V30 1832 C 172.291 4.36873 0.531966 0
M  V30 1833 H 169.41 0.734992 -0.0543632 0
M  V30 1834 H 172.052 1.71592 -0.815863 0
M  V30 1835 H 170.202 3.86102 0.431007 0
M  V30 1836 H 171.874 4.07057 -2.1703 0
M  V30 1837 H 170.117 3.79476 -2.10191 0
M  V30 1838 H 170.788 5.31284 -1.49804 0
M  V30 1839 H 173.264 4.16074 0.0464781 0
M  V30 1840 H 172.14 5.4657 0.505206 0
M  V30 1841 H 172.401 4.11995 1.60352 0
M  V30 1842 N 171.46 0.379036 1.52974 0
M  V30 1843 C 172.708 -0.206014 2.01047 0
M  V30 1844 C 173.029 -1.48175 1.26765 0
M  V30 1845 O 172.299 -1.92085 0.384743 0
M  V30 1846 H 170.879 -0.0791184 0.742798 0
M  V30 1847 H 173.541 0.508366 1.88153 0
M  V30 1848 H 172.637 -0.423501 3.09213 0
M  V30 1849 N 172.938 -1.57226 0.108567 0
M  V30 1850 C 174.184 -1.95121 -0.552761 0
M  V30 1851 C 174.517 -0.991345 -1.66991 0
M  V30 1852 O 173.792 -0.0267211 -1.94482 0
M  V30 1853 C 174.075 -3.43039 -1.09528 0
M  V30 1854 C 173.928 -4.49797 0.0177332 0
M  V30 1855 C 175.247 -3.92567 -1.98945 0
M  V30 1856 H 172.366 -0.709496 -0.199461 0
M  V30 1857 H 175.008 -1.89126 0.182011 0
M  V30 1858 H 173.158 -3.48279 -1.72146 0
M  V30 1859 H 174.83 -4.56661 0.652584 0
M  V30 1860 H 173.073 -4.284 0.682309 0
M  V30 1861 H 173.744 -5.50528 -0.402919 0
M  V30 1862 H 176.22 -3.89565 -1.46214 0
M  V30 1863 H 175.096 -4.96605 -2.33827 0
M  V30 1864 H 175.357 -3.32648 -2.91201 0
M  V30 1865 N 174.416 0.165178 -1.56732 0
M  V30 1866 C 175.326 1.22423 -2.00125 0
M  V30 1867 C 176.342 1.48084 -0.913619 0
M  V30 1868 O 177.518 1.60112 -1.22172 0
M  V30 1869 C 174.583 2.54197 -2.35764 0
M  V30 1870 C 173.644 2.36343 -3.58386 0
M  V30 1871 C 172.877 3.61834 -3.92316 0
M  V30 1872 O 173.1 4.67267 -3.27135 0
M  V30 1873 O 172.034 3.55579 -4.85641 0
M  V30 1874 H 175.86 0.885886 -2.90492 0
M  V30 1875 H 173.445 0.372518 -1.44681 0
M  V30 1876 H 175.327 3.3192 -2.59629 0
M  V30 1877 H 174.002 2.87598 -1.48557 0
M  V30 1878 H 172.909 1.56632 -3.39731 0
M  V30 1879 H 174.242 2.07865 -4.46154 0
M  V30 1880 N 175.894 1.51508 0.433938 0
M  V30 1881 C 177.122 1.68157 1.20543 0
M  V30 1882 C 177.537 0.380362 1.84929 0
M  V30 1883 O 176.894 -0.641446 1.70856 0
M  V30 1884 C 176.945 2.79965 2.28696 0
M  V30 1885 O 176.666 4.05045 1.66943 0
M  V30 1886 C 178.167 3.07912 3.18912 0
M  V30 1887 H 175.387 0.56421 0.363191 0
M  V30 1888 H 177.931 1.97941 0.513754 0
M  V30 1889 H 176.086 2.5277 2.93574 0
M  V30 1890 H 176.5 4.67165 2.38448 0
M  V30 1891 H 177.974 3.89719 3.90926 0
M  V30 1892 H 178.451 2.20456 3.79863 0
M  V30 1893 H 179.057 3.36779 2.59731 0
M  V30 1894 N 177.372 -0.689602 1.41712 0
M  V30 1895 C 178.602 -1.47613 1.44548 0
M  V30 1896 C 179.01 -1.89132 0.0509034 0
M  V30 1897 O 178.353 -1.57741 -0.94146 0
M  V30 1898 C 178.415 -2.76596 2.2964 0
M  V30 1899 C 178.079 -2.57245 3.77722 0
M  V30 1900 C 179.076 -2.22804 4.69739 0
M  V30 1901 C 176.761 -2.727 4.2183 0
M  V30 1902 C 178.755 -2.04064 6.03851 0
M  V30 1903 C 176.442 -2.53576 5.56006 0
M  V30 1904 C 177.44 -2.1931 6.46832 0
M  V30 1905 O 177.128 -2.00359 7.78532 0
M  V30 1906 H 176.86 -0.461227 0.494212 0
M  V30 1907 H 179.414 -0.856045 1.86711 0
M  V30 1908 H 177.644 -3.41033 1.82301 0
M  V30 1909 H 179.333 -3.38424 2.24107 0
M  V30 1910 H 180.099 -2.10473 4.36951 0
M  V30 1911 H 175.978 -2.98353 3.51435 0
M  V30 1912 H 179.522 -1.77241 6.74708 0
M  V30 1913 H 175.419 -2.65499 5.88371 0
M  V30 1914 H 176.187 -2.15075 7.89737 0
M  V30 1915 N 178.85 -1.27639 -0.924453 0
M  V30 1916 C 180.098 -1.13941 -1.66918 0
M  V30 1917 C 180.419 0.314589 -1.92446 0
M  V30 1918 O 179.689 1.21964 -1.53303 0
M  V30 1919 H 178.269 -0.418678 -0.618642 0
M  V30 1920 H 180.931 -1.60213 -1.10985 0
M  V30 1921 H 180.027 -1.67094 -2.63602 0
M  V30 1922 N 180.328 1.1314 -1.09713 0
M  V30 1923 C 181.576 1.84119 -0.833338 0
M  V30 1924 C 181.897 1.84097 0.642904 0
M  V30 1925 O 181.167 1.29881 1.46655 0
M  V30 1926 H 179.747 0.681766 -0.305293 0
M  V30 1927 H 182.409 1.37038 -1.38588 0
M  V30 1928 H 181.505 2.88543 -1.18951 0
M  V30 1929 N 181.806 0.884767 1.30421 0
M  V30 1930 C 183.054 0.502112 1.95763 0
M  V30 1931 C 183.375 -0.951815 1.70192 0
M  V30 1932 O 182.645 -1.6692 1.0254 0
M  V30 1933 H 181.225 0.182694 0.724315 0
M  V30 1934 H 183.887 1.1278 1.58955 0
M  V30 1935 H 182.983 0.672188 3.04775 0
M  V30 1936 N 183.284 -1.43765 0.645699 0
M  V30 1937 C 184.533 -2.01116 0.153412 0
M  V30 1938 C 184.846 -1.51493 -1.23731 0
M  V30 1939 O 186.052 -2.01067 -1.8244 0
M  V30 1940 C 184.508 -3.59206 0.223473 0
M  V30 1941 C 184.116 -4.17823 1.61642 0
M  V30 1942 C 185.86 -4.23972 -0.211597 0
M  V30 1943 C 183.767 -5.68183 1.64081 0
M  V30 1944 H 182.697 -0.752093 0.0535891 0
M  V30 1945 H 185.348 -1.6482 0.806633 0
M  V30 1946 H 183.73 -3.92867 -0.497118 0
M  V30 1947 H 184.904 -3.95674 2.36176 0
M  V30 1948 H 183.219 -3.65399 1.99681 0
M  V30 1949 H 185.816 -5.34275 -0.213112 0
M  V30 1950 H 186.159 -3.97352 -1.24165 0
M  V30 1951 H 186.692 -3.95166 0.456988 0
M  V30 1952 H 183.431 -5.99559 2.64971 0
M  V30 1953 H 182.951 -5.9241 0.938611 0
M  V30 1954 H 184.63 -6.32085 1.3812 0
M  V30 1955 N 184.763 -0.387143 -1.52771 0
M  V30 1956 C 186.009 0.188506 -2.02525 0
M  V30 1957 C 186.364 1.44649 -1.26864 0
M  V30 1958 O 185.657 1.88189 -0.359945 0
M  V30 1959 C 185.851 0.512209 -3.53711 0
M  V30 1960 C 185.68 -0.712855 -4.44014 0
M  V30 1961 C 184.45 -1.23147 -4.90064 0
M  V30 1962 C 186.648 -1.58453 -4.89282 0
M  V30 1963 N 184.63 -2.41431 -5.64433 0
M  V30 1964 C 186.001 -2.61381 -5.6221 0
M  V30 1965 C 188.056 -1.60488 -4.71326 0
M  V30 1966 C 186.759 -3.66227 -6.19088 0
M  V30 1967 C 188.785 -2.6424 -5.29085 0
M  V30 1968 C 188.147 -3.6589 -6.01917 0
M  V30 1969 H 184.246 0.0311236 -0.78138 0
M  V30 1970 H 186.83 -0.536548 -1.87161 0
M  V30 1971 H 185.001 1.20632 -3.69192 0
M  V30 1972 H 186.733 1.07482 -3.90166 0
M  V30 1973 H 183.488 -0.792795 -4.66917 0
M  V30 1974 H 183.912 -3.01274 -6.0627 0
M  V30 1975 H 188.554 -0.83247 -4.14524 0
M  V30 1976 H 186.272 -4.44337 -6.74974 0
M  V30 1977 H 189.858 -2.66695 -5.17074 0
M  V30 1978 H 188.738 -4.44855 -6.45813 0
M  V30 1979 N 186.241 1.57166 -0.116904 0
M  V30 1980 C 187.466 1.999 0.55271 0
M  V30 1981 C 187.891 0.996039 1.59564 0
M  V30 1982 O 187.249 -0.032556 1.81271 0
M  V30 1983 C 187.297 3.4152 1.15742 0
M  V30 1984 O 186.401 3.44106 2.27299 0
M  V30 1985 H 185.742 0.649447 0.138258 0
M  V30 1986 H 188.272 2.03573 -0.204759 0
M  V30 1987 H 188.282 3.79684 1.49346 0
M  V30 1988 H 186.957 4.14034 0.393493 0
M  V30 1989 H 185.534 3.17759 1.9515 0
M  V30 1990 N 187.719 -0.156864 1.56817 0
M  V30 1991 C 188.947 -0.886316 1.86955 0
M  V30 1992 C 189.362 -1.75185 0.703975 0
M  V30 1993 O 188.719 -1.79555 -0.326552 0
M  V30 1994 C 188.77 -1.75117 3.16253 0
M  V30 1995 O 188.491 -0.920537 4.2832 0
M  V30 1996 C 189.992 -2.58905 3.59837 0
M  V30 1997 H 187.212 -0.25678 0.619923 0
M  V30 1998 H 189.756 -0.152615 2.0393 0
M  V30 1999 H 187.911 -2.43805 3.01062 0
M  V30 2000 H 188.325 -1.51337 5.02192 0
M  V30 2001 H 189.799 -3.1518 4.53172 0
M  V30 2002 H 190.276 -3.34472 2.84649 0
M  V30 2003 H 190.882 -1.95526 3.7769 0
M  V30 2004 N 189.197 -1.51736 -0.425897 0
M  V30 2005 C 190.443 -1.66174 -1.17294 0
M  V30 2006 C 190.798 -0.37876 -1.88635 0
M  V30 2007 O 190.091 0.626021 -1.81084 0
M  V30 2008 C 190.285 -2.81103 -2.20717 0
M  V30 2009 C 190.114 -4.20453 -1.59529 0
M  V30 2010 C 188.884 -4.86225 -1.37525 0
M  V30 2011 C 191.082 -5.03146 -1.06528 0
M  V30 2012 N 189.064 -6.09657 -0.720537 0
M  V30 2013 C 190.435 -6.17674 -0.536506 0
M  V30 2014 C 192.49 -4.88594 -0.958127 0
M  V30 2015 C 191.193 -7.19245 0.0888917 0
M  V30 2016 C 193.219 -5.90383 -0.346608 0
M  V30 2017 C 192.581 -7.04191 0.171564 0
M  V30 2018 H 188.68 -0.661871 -0.416475 0
M  V30 2019 H 191.264 -1.88997 -0.467801 0
M  V30 2020 H 189.435 -2.59924 -2.88607 0
M  V30 2021 H 191.167 -2.84662 -2.87663 0
M  V30 2022 H 187.922 -4.44293 -1.64015 0
M  V30 2023 H 188.346 -6.75756 -0.410292 0
M  V30 2024 H 192.988 -4.0085 -1.34459 0
M  V30 2025 H 190.706 -8.06628 0.48746 0
M  V30 2026 H 194.292 -5.81194 -0.265451 0
M  V30 2027 H 193.172 -7.81606 0.637309 0
M  V30 2028 N 190.675 0.682077 -1.42076 0
M  V30 2029 C 191.922 1.44215 -1.42156 0
M  V30 2030 C 192.25 1.94468 -0.0354186 0
M  V30 2031 O 191.505 1.70816 0.955002 0
M  V30 2032 C 191.804 2.66036 -2.38662 0
M  V30 2033 C 191.47 2.34366 -3.85206 0
M  V30 2034 C 190.132 2.25439 -4.25124 0
M  V30 2035 C 192.484 2.08513 -4.77673 0
M  V30 2036 C 189.812 1.88775 -5.55501 0
M  V30 2037 C 192.164 1.73354 -6.08384 0
M  V30 2038 C 190.828 1.62933 -6.47309 0
M  V30 2039 H 190.098 0.527718 -0.520187 0
M  V30 2040 H 192.745 0.778387 -1.74967 0
M  V30 2041 H 191.05 3.3741 -1.99152 0
M  V30 2042 H 192.747 3.24205 -2.35991 0
M  V30 2043 H 189.337 2.42213 -3.53597 0
M  V30 2044 H 193.521 2.14346 -4.47626 0
M  V30 2045 H 188.777 1.7927 -5.84527 0
M  V30 2046 H 192.951 1.52373 -6.79526 0
M  V30 2047 H 190.578 1.34292 -7.48244 0
M  V30 2048 N 192.153 1.28127 0.917671 0
M  V30 2049 C 193.43 1.05761 1.64542 0
M  V30 2050 C 193.81 -0.404344 2.07191 0
M  V30 2051 O 193.158 -1.38963 1.81388 0
M  V30 2052 C 193.368 2.02857 2.83989 0
M  V30 2053 C 194.716 2.32786 3.551 0
M  V30 2054 O 195.74 2.0091 2.94132 0
M  V30 2055 O 194.599 2.87169 4.64969 0
M  V30 2056 H 191.693 0.403916 0.721652 0
M  V30 2057 H 194.239 1.39431 0.967322 0
M  V30 2058 H 193.011 3.01407 2.49538 0
M  V30 2059 H 192.634 1.69809 3.59514 0
M  V30 2060 N 193.631 -1.12557 1.10312 0
M  V30 2061 C 195.047 -1.36036 0.834649 0
M  V30 2062 C 195.247 -1.93946 -0.546539 0
M  V30 2063 O 194.303 -2.16484 -1.29966 0
M  V30 2064 C 195.616 -2.30312 1.9333 0
M  V30 2065 C 197.164 -2.43906 1.9616 0
M  V30 2066 C 197.639 -3.41496 3.05195 0
M  V30 2067 N 199.13 -3.49053 3.04494 0
M  V30 2068 C 199.865 -4.24471 3.85502 0
M  V30 2069 N 199.361 -5.02966 4.76442 0
M  V30 2070 N 201.154 -4.19864 3.73725 0
M  V30 2071 H 193.305 -0.733246 1.99342 0
M  V30 2072 H 195.568 -0.385234 0.866198 0
M  V30 2073 H 195.274 -1.94933 2.92735 0
M  V30 2074 H 195.148 -3.30421 1.81939 0
M  V30 2075 H 197.535 -2.78567 0.973886 0
M  V30 2076 H 197.616 -1.4369 2.11629 0
M  V30 2077 H 197.26 -3.07565 4.04186 0
M  V30 2078 H 197.19 -4.41539 2.86968 0
M  V30 2079 H 199.681 -2.93053 2.38596 0
M  V30 2080 H 199.994 -5.57846 5.34815 0
M  V30 2081 H 198.339 -5.02167 4.80472 0
M  V30 2082 H 201.53 -3.57623 3.02032 0
M  V30 2083 H 201.703 -4.78386 4.37093 0
M  V30 2084 N 195.109 -0.891671 -1.2995 0
M  V30 2085 C 196.386 -0.433307 -1.9074 0
M  V30 2086 C 196.766 1.08646 -1.80995 0
M  V30 2087 O 196.114 1.92476 -1.23147 0
M  V30 2088 C 196.324 -0.938895 -3.36134 0
M  V30 2089 C 197.672 -0.977829 -4.13187 0
M  V30 2090 O 198.696 -0.886015 -3.45005 0
M  V30 2091 O 197.555 -1.11453 -5.35015 0
M  V30 2092 H 194.649 -0.133699 -0.816121 0
M  V30 2093 H 197.195 -0.981011 -1.38471 0
M  V30 2094 H 195.967 -1.98281 -3.37343 0
M  V30 2095 H 195.59 -0.37074 -3.95868 0
M  V30 2096 N 196.587 1.43421 -0.653314 0
M  V30 2097 C 197.517 2.33487 0.0246656 0
M  V30 2098 C 198.498 1.49475 0.811863 0
M  V30 2099 O 199.683 1.78139 0.773322 0
M  V30 2100 C 196.813 3.32841 0.99166 0
M  V30 2101 C 195.767 4.26842 0.314568 0
M  V30 2102 C 195.093 5.16236 1.39302 0
M  V30 2103 C 196.393 5.16243 -0.793095 0
M  V30 2104 H 198.087 2.90427 -0.727481 0
M  V30 2105 H 195.633 1.39649 -0.351287 0
M  V30 2106 H 197.586 3.94747 1.47487 0
M  V30 2107 H 196.31 2.74158 1.77497 0
M  V30 2108 H 194.969 3.663 -0.148199 0
M  V30 2109 H 194.617 4.53891 2.16776 0
M  V30 2110 H 194.317 5.79948 0.945223 0
M  V30 2111 H 195.841 5.81015 1.87759 0
M  V30 2112 H 197.255 5.71958 -0.392039 0
M  V30 2113 H 195.652 5.88676 -1.16536 0
M  V30 2114 H 196.722 4.55927 -1.65103 0
M  V30 2115 N 198.065 0.39524 1.52563 0
M  V30 2116 C 199.293 -0.184943 2.06072 0
M  V30 2117 C 199.708 -1.40021 1.26647 0
M  V30 2118 O 199.065 -1.79767 0.314672 0
M  V30 2119 C 199.116 -0.549179 3.57304 0
M  V30 2120 O 198.837 0.617813 4.33722 0
M  V30 2121 C 200.338 -1.18459 4.2718 0
M  V30 2122 H 197.558 -0.0265025 0.670476 0
M  V30 2123 H 200.102 0.562184 1.96621 0
M  V30 2124 H 198.257 -1.2462 3.66809 0
M  V30 2125 H 198.671 0.317091 5.23541 0
M  V30 2126 H 200.145 -1.38976 5.34219 0
M  V30 2127 H 200.622 -2.15368 3.82771 0
M  V30 2128 H 201.228 -0.528163 4.22008 0
M  V30 2129 N 199.544 -1.57102 0.125237 0
M  V30 2130 C 200.474 -2.18659 -0.819174 0
M  V30 2131 C 201.455 -1.12843 -1.27281 0
M  V30 2132 O 202.64 -1.41104 -1.33429 0
M  V30 2133 C 199.77 -2.79096 -2.06695 0
M  V30 2134 C 198.724 -3.90548 -1.75088 0
M  V30 2135 C 198.05 -4.37821 -3.06948 0
M  V30 2136 C 199.35 -5.12356 -1.01435 0
M  V30 2137 H 201.044 -2.9783 -0.306202 0
M  V30 2138 H 198.59 -1.4326 -0.145839 0
M  V30 2139 H 200.543 -3.2082 -2.73226 0
M  V30 2140 H 199.267 -1.97223 -2.60328 0
M  V30 2141 H 197.926 -3.49409 -1.10944 0
M  V30 2142 H 197.574 -3.52799 -3.58527 0
M  V30 2143 H 197.274 -5.12982 -2.86571 0
M  V30 2144 H 198.798 -4.822 -3.74587 0
M  V30 2145 H 200.212 -5.5106 -1.58132 0
M  V30 2146 H 198.609 -5.9314 -0.911319 0
M  V30 2147 H 199.679 -4.849 -0.00218681 0
M  V30 2148 N 201.022 0.148545 -1.56898 0
M  V30 2149 C 201.985 1.16736 -1.97244 0
M  V30 2150 C 202.985 1.35947 -0.858777 0
M  V30 2151 O 204.175 1.32966 -1.12542 0
M  V30 2152 C 201.307 2.52798 -2.28705 0
M  V30 2153 H 202.5 0.821279 -2.88435 0
M  V30 2154 H 200.053 0.391831 -1.51309 0
M  V30 2155 H 200.788 2.92381 -1.403 0
M  V30 2156 H 200.573 2.40216 -3.09901 0
M  V30 2157 H 202.063 3.26179 -2.60762 0
M  V30 2158 N 202.5 1.5196 0.417844 0
M  V30 2159 C 203.748 1.65263 1.16329 0
M  V30 2160 C 204.069 0.380634 1.91249 0
M  V30 2161 O 203.339 -0.604214 1.86349 0
M  V30 2162 H 201.919 0.60912 0.432414 0
M  V30 2163 H 204.581 1.88969 0.477162 0
M  V30 2164 H 203.677 2.4896 1.88217 0
M  V30 2165 N 203.978 -0.674533 1.42435 0
M  V30 2166 C 205.394 -0.98769 1.25367 0
M  V30 2167 C 205.594 -2.00879 0.158044 0
M  V30 2168 O 204.65 -2.48075 -0.470633 0
M  V30 2169 C 205.963 -1.49224 2.6106 0
M  V30 2170 C 207.511 -1.61 2.68417 0
M  V30 2171 C 207.986 -2.14852 4.04478 0
M  V30 2172 N 209.477 -2.22185 4.06434 0
M  V30 2173 C 210.212 -2.64928 5.08528 0
M  V30 2174 N 209.708 -3.07121 6.21006 0
M  V30 2175 N 211.501 -2.64679 4.95885 0
M  V30 2176 H 203.652 0.00152503 2.124 0
M  V30 2177 H 205.915 -0.0618434 0.945981 0
M  V30 2178 H 205.621 -0.816453 3.42092 0
M  V30 2179 H 205.495 -2.47094 2.84999 0
M  V30 2180 H 207.882 -2.27686 1.87732 0
M  V30 2181 H 207.963 -0.616195 2.48267 0
M  V30 2182 H 207.607 -1.48775 4.85622 0
M  V30 2183 H 207.537 -3.15024 4.2198 0
M  V30 2184 H 210.028 -1.92435 3.25234 0
M  V30 2185 H 210.341 -3.38423 6.94759 0
M  V30 2186 H 208.686 -3.04978 6.24511 0
M  V30 2187 H 211.877 -2.31078 4.07088 0
M  V30 2188 H 212.05 -2.9767 5.75584 0
M  V30 2189 N 205.456 -1.28612 -0.910864 0
M  V30 2190 C 206.702 -1.16106 -1.66274 0
M  V30 2191 C 207.035 0.289113 -1.92036 0
M  V30 2192 O 206.31 1.21 -1.52281 0
M  V30 2193 C 206.593 -1.96309 -3.01885 0
M  V30 2194 C 206.446 -3.49405 -2.8326 0
M  V30 2195 C 207.765 -1.78076 -4.02463 0
M  V30 2196 H 204.884 -0.423152 -0.603417 0
M  V30 2197 H 207.526 -1.57961 -1.05586 0
M  V30 2198 H 205.676 -1.60742 -3.53687 0
M  V30 2199 H 207.348 -3.94894 -2.38446 0
M  V30 2200 H 205.591 -3.74893 -2.18261 0
M  V30 2201 H 206.262 -4.00784 -3.79574 0
M  V30 2202 H 208.738 -2.0912 -3.59733 0
M  V30 2203 H 207.614 -2.36561 -4.95308 0
M  V30 2204 H 207.875 -0.733008 -4.35981 0
M  V30 2205 N 206.934 1.1197 -1.10907 0
M  V30 2206 C 208.183 1.82947 -0.849302 0
M  V30 2207 C 208.496 1.85275 0.627112 0
M  V30 2208 O 209.702 2.52296 1.00295 0
M  V30 2209 C 208.158 3.28529 -1.46959 0
M  V30 2210 C 207.766 3.34546 -2.97965 0
M  V30 2211 C 209.51 4.04443 -1.28942 0
M  V30 2212 C 207.417 4.74491 -3.53004 0
M  V30 2213 H 206.347 0.685477 -0.314065 0
M  V30 2214 H 208.998 1.2604 -1.33365 0
M  V30 2215 H 207.38 3.85333 -0.912917 0
M  V30 2216 H 208.554 2.87654 -3.59989 0
M  V30 2217 H 206.869 2.72108 -3.15192 0
M  V30 2218 H 209.466 5.07787 -1.67502 0
M  V30 2219 H 209.809 4.15656 -0.231456 0
M  V30 2220 H 210.342 3.5401 -1.81443 0
M  V30 2221 H 207.081 4.68474 -4.58489 0
M  V30 2222 H 206.601 5.21816 -2.9575 0
M  V30 2223 H 208.28 5.4344 -3.51115 0
M  V30 2224 N 208.412 0.89855 1.29475 0
M  V30 2225 C 209.658 0.524658 1.95896 0
M  V30 2226 C 209.991 -0.926468 1.70676 0
M  V30 2227 O 209.266 -1.65665 1.01908 0
M  V30 2228 C 209.549 0.81633 3.50725 0
M  V30 2229 C 209.402 2.31907 3.85408 0
M  V30 2230 C 210.721 0.302038 4.39062 0
M  V30 2231 H 207.84 0.19209 0.711527 0
M  V30 2232 H 210.482 1.12502 1.53112 0
M  V30 2233 H 208.632 0.305369 3.87298 0
M  V30 2234 H 210.304 2.89949 3.58786 0
M  V30 2235 H 208.547 2.78027 3.32992 0
M  V30 2236 H 209.218 2.47373 4.93468 0
M  V30 2237 H 211.694 0.739551 4.09475 0
M  V30 2238 H 210.57 0.535331 5.46283 0
M  V30 2239 H 210.831 -0.797216 4.34853 0
M  V30 2240 N 209.89 -1.43072 0.660911 0
M  V30 2241 C 210.837 -2.30785 -0.0259884 0
M  V30 2242 C 211.807 -1.45184 -0.806888 0
M  V30 2243 O 212.992 -1.74041 -0.781943 0
M  V30 2244 C 210.132 -3.30861 -0.981067 0
M  V30 2245 C 209.245 -4.31558 -0.195458 0
M  V30 2246 C 208.38 -5.18712 -1.14503 0
M  V30 2247 C 207.419 -6.11097 -0.350299 0
M  V30 2248 N 206.556 -6.90849 -1.25186 0
M  V30 2249 H 211.396 -2.88975 0.727846 0
M  V30 2250 H 208.933 -1.42353 0.370682 0
M  V30 2251 H 210.891 -3.87399 -1.54849 0
M  V30 2252 H 209.521 -2.74304 -1.70169 0
M  V30 2253 H 208.573 -3.77252 0.488374 0
M  V30 2254 H 209.885 -4.9701 0.422176 0
M  V30 2255 H 209.039 -5.79914 -1.78284 0
M  V30 2256 H 207.778 -4.53404 -1.79656 0
M  V30 2257 H 206.783 -5.48976 0.300808 0
M  V30 2258 H 208.008 -6.7845 0.296941 0
M  V30 2259 H 205.954 -6.28182 -1.89005 0
M  V30 2260 H 205.871 -7.52854 -0.688971 0
M  V30 2261 H 207.139 -7.5655 -1.87757 0
M  V30 2262 N 211.368 -0.403325 -1.52352 0
M  V30 2263 C 212.608 0.173946 -2.03659 0
M  V30 2264 C 212.972 1.42869 -1.28267 0
M  V30 2265 O 214.173 2.08403 -1.69769 0
M  V30 2266 C 212.444 0.421478 -3.54906 0
M  V30 2267 S 214.003 0.967027 -4.28012 0
M  V30 2268 H 210.821 0.0477461 -0.709395 0
M  V30 2269 H 213.423 -0.554906 -1.87459 0
M  V30 2270 H 212.127 -0.498616 -4.0736 0
M  V30 2271 H 211.658 1.17837 -3.75337 0
M  V30 2272 H 213.673 2.24812 -4.4235 0
M  V30 2273 N 212.846 1.57033 -0.133567 0
M  V30 2274 C 214.257 1.82593 0.389464 0
M  V30 2275 C 214.608 1.05156 1.6564 0
M  V30 2276 O 213.733 0.292644 2.14412 0
M  V30 2277 C 214.328 3.31204 0.713377 0
M  V30 2278 C 212.887 3.57393 1.18098 0
M  V30 2279 C 212.034 2.76598 0.197126 0
M  V30 2280 H 214.985 1.54598 -0.358481 0
M  V30 2281 H 215.006 3.46627 1.56939 0
M  V30 2282 H 214.518 3.87537 -0.2089 0
M  V30 2283 H 212.619 3.06433 2.11966 0
M  V30 2284 H 212.732 4.65915 1.11624 0
M  V30 2285 H 211.096 2.45257 0.687088 0
M  V30 2286 H 211.879 3.35697 -0.718504 0
M  V30 2287 N 214.325 -0.140222 1.56975 0
M  V30 2288 C 215.553 -0.866437 1.87884 0
M  V30 2289 C 215.968 -1.74428 0.722517 0
M  V30 2290 O 215.325 -1.79891 -0.30749 0
M  V30 2291 C 215.376 -1.71753 3.18093 0
M  V30 2292 O 215.097 -0.875056 4.29272 0
M  V30 2293 C 216.598 -2.55074 3.62563 0
M  V30 2294 H 213.818 -0.25019 0.622612 0
M  V30 2295 H 216.362 -0.130977 2.0408 0
M  V30 2296 H 214.517 -2.40598 3.03631 0
M  V30 2297 H 214.931 -1.46002 5.03769 0
M  V30 2298 H 216.405 -3.10356 4.5649 0
M  V30 2299 H 216.882 -3.31434 2.88181 0
M  V30 2300 H 217.488 -1.91509 3.79743 0
M  V30 2301 N 215.803 -1.52179 -0.40978 0
M  V30 2302 C 217.028 -1.70347 -1.18308 0
M  V30 2303 C 217.453 -0.411887 -1.83535 0
M  V30 2304 O 216.811 0.630587 -1.6998 0
M  V30 2305 C 216.859 -2.83977 -2.22238 0
M  V30 2306 O 215.963 -2.495 -3.28365 0
M  V30 2307 H 215.304 -0.567103 -0.345384 0
M  V30 2308 H 217.834 -1.98879 -0.480445 0
M  V30 2309 H 217.844 -3.0887 -2.66577 0
M  V30 2310 H 216.519 -3.77685 -1.74146 0
M  V30 2311 H 215.096 -2.35277 -2.89308 0
M  V30 2312 N 217.281 0.66697 -1.42791 0
M  V30 2313 C 218.529 1.42417 -1.43394 0
M  V30 2314 C 218.85 1.94925 -0.0542373 0
M  V30 2315 O 218.12 1.73564 0.908415 0
M  V30 2316 H 216.7 0.528515 -0.527902 0
M  V30 2317 H 219.362 0.787562 -1.78279 0
M  V30 2318 H 218.458 2.27333 -2.13837 0
M  V30 2319 N 218.759 1.29093 0.90403 0
M  V30 2320 C 220.175 1.07011 1.1841 0
M  V30 2321 C 220.375 -0.181358 2.00682 0
M  V30 2322 O 219.431 -0.880331 2.36657 0
M  V30 2323 C 220.744 2.32311 1.90924 0
M  V30 2324 C 222.292 2.37587 2.03768 0
M  V30 2325 C 222.767 3.62679 2.79693 0
M  V30 2326 N 224.258 3.63376 2.87249 0
M  V30 2327 C 224.993 4.56848 3.46522 0
M  V30 2328 N 224.489 5.60648 4.06996 0
M  V30 2329 N 226.282 4.44426 3.44154 0
M  V30 2330 H 218.433 2.09412 0.354993 0
M  V30 2331 H 220.696 0.922181 0.219742 0
M  V30 2332 H 220.402 3.23536 1.37905 0
M  V30 2333 H 220.276 2.39483 2.91424 0
M  V30 2334 H 222.663 1.46853 2.55965 0
M  V30 2335 H 222.744 2.34403 1.02415 0
M  V30 2336 H 222.388 4.53762 2.28173 0
M  V30 2337 H 222.318 3.63119 3.81381 0
M  V30 2338 H 224.809 2.88321 2.44293 0
M  V30 2339 H 225.122 6.28101 4.50232 0
M  V30 2340 H 223.467 5.64463 4.05471 0
M  V30 2341 H 226.658 3.62529 2.96126 0
M  V30 2342 H 226.831 5.17457 3.90054 0
M  V30 2343 N 220.237 -1.11381 1.11499 0
M  V30 2344 C 221.167 -2.19509 0.796125 0
M  V30 2345 C 222.148 -1.68458 -0.235796 0
M  V30 2346 O 223.333 -1.93947 -0.0991344 0
M  V30 2347 C 220.463 -3.46475 0.239205 0
M  V30 2348 C 219.417 -4.10744 1.20307 0
M  V30 2349 C 218.743 -5.32293 0.50683 0
M  V30 2350 C 220.043 -4.55597 2.55399 0
M  V30 2351 H 221.737 -2.46439 1.70024 0
M  V30 2352 H 219.283 -1.18446 0.818935 0
M  V30 2353 H 221.236 -4.214 0.00392006 0
M  V30 2354 H 219.96 -3.19006 -0.700206 0
M  V30 2355 H 218.619 -3.37813 1.42399 0
M  V30 2356 H 218.267 -5.01095 -0.437408 0
M  V30 2357 H 217.967 -5.76243 1.1497 0
M  V30 2358 H 219.491 -6.09956 0.280351 0
M  V30 2359 H 220.905 -5.21841 2.37391 0
M  V30 2360 H 219.302 -5.10363 3.15673 0
M  V30 2361 H 220.372 -3.69013 3.14575 0
M  V30 2362 N 221.715 -0.905404 -1.28997 0
M  V30 2363 C 222.625 -0.392246 -2.31298 0
M  V30 2364 C 223.641 0.515889 -1.66176 0
M  V30 2365 O 224.817 0.404093 -1.97304 0
M  V30 2366 C 221.882 0.36686 -3.44754 0
M  V30 2367 C 220.943 -0.573485 -4.25452 0
M  V30 2368 C 220.176 0.149488 -5.33491 0
M  V30 2369 O 220.399 1.37255 -5.5364 0
M  V30 2370 O 219.333 -0.510919 -5.99728 0
M  V30 2371 H 223.159 -1.2411 -2.77183 0
M  V30 2372 H 220.744 -0.669926 -1.33538 0
M  V30 2373 H 222.626 0.795907 -4.13816 0
M  V30 2374 H 221.301 1.19169 -3.00966 0
M  V30 2375 H 220.208 -1.05176 -3.59011 0
M  V30 2376 H 221.541 -1.36489 -4.72897 0
M  V30 2377 N 223.193 1.4272 -0.668489 0
M  V30 2378 C 224.125 2.2914 0.052613 0
M  V30 2379 C 225.138 1.43339 0.771857 0
M  V30 2380 O 226.327 1.67123 0.627067 0
M  V30 2381 C 223.427 3.20618 1.09804 0
M  V30 2382 C 222.6 4.35039 0.45389 0
M  V30 2383 C 221.659 5.07282 1.39825 0
M  V30 2384 O 220.685 5.62024 0.900978 0
M  V30 2385 N 221.887 5.12206 2.73176 0
M  V30 2386 H 224.652 2.91668 -0.689209 0
M  V30 2387 H 222.213 1.53577 -0.512422 0
M  V30 2388 H 224.205 3.65815 1.73094 0
M  V30 2389 H 222.775 2.59585 1.74167 0
M  V30 2390 H 221.995 3.92567 -0.358396 0
M  V30 2391 H 223.283 5.088 0.00486972 0
M  V30 2392 H 222.681 4.6913 3.16122 0
M  V30 2393 H 221.238 5.61069 3.31729 0
M  V30 2394 N 224.671 0.411399 1.52136 0
M  V30 2395 C 225.603 -0.448386 2.24771 0
M  V30 2396 C 226.616 -1.00828 1.27818 0
M  V30 2397 O 227.805 -0.906841 1.53749 0
M  V30 2398 C 224.905 -1.63636 2.96777 0
M  V30 2399 C 224.078 -1.19995 4.20618 0
M  V30 2400 C 223.137 -2.25509 4.75428 0
M  V30 2401 O 222.163 -1.86007 5.3795 0
M  V30 2402 N 223.365 -3.577 4.57199 0
M  V30 2403 H 226.13 0.174025 2.99194 0
M  V30 2404 H 223.691 0.238897 1.60128 0
M  V30 2405 H 225.683 -2.33793 3.30338 0
M  V30 2406 H 224.253 -2.16465 2.25526 0
M  V30 2407 H 223.473 -0.326421 3.92846 0
M  V30 2408 H 224.761 -0.885365 5.01038 0
M  V30 2409 H 224.159 -3.92543 4.07341 0
M  V30 2410 H 222.716 -4.23827 4.95191 0
M  V30 2411 N 226.149 -1.5696 0.141893 0
M  V30 2412 C 227.079 -2.19516 -0.795936 0
M  V30 2413 C 228.06 -1.14187 -1.26077 0
M  V30 2414 O 229.245 -1.42511 -1.31925 0
M  V30 2415 C 226.375 -2.81272 -2.03723 0
M  V30 2416 C 225.329 -3.92384 -1.70936 0
M  V30 2417 C 224.655 -4.41052 -3.02287 0
M  V30 2418 C 225.955 -5.13403 -0.959954 0
M  V30 2419 H 227.649 -2.98138 -0.274596 0
M  V30 2420 H 225.195 -1.43406 -0.130636 0
M  V30 2421 H 227.148 -3.237 -2.69808 0
M  V30 2422 H 225.872 -1.99973 -2.58221 0
M  V30 2423 H 224.531 -3.50566 -1.07232 0
M  V30 2424 H 224.179 -3.56582 -3.54765 0
M  V30 2425 H 223.879 -5.15993 -2.81114 0
M  V30 2426 H 225.403 -4.86146 -3.69451 0
M  V30 2427 H 226.817 -5.52706 -1.52279 0
M  V30 2428 H 225.214 -5.94073 -0.848357 0
M  V30 2429 H 226.284 -4.84875 0.0492434 0
M  V30 2430 N 227.627 0.131896 -1.57047 0
M  V30 2431 C 228.873 0.843179 -1.84441 0
M  V30 2432 C 229.206 1.80129 -0.725749 0
M  V30 2433 O 228.481 1.92624 0.269469 0
M  V30 2434 C 228.764 1.60442 -3.22382 0
M  V30 2435 C 228.617 0.666782 -4.4483 0
M  V30 2436 C 229.936 2.56354 -3.5773 0
M  V30 2437 H 227.055 0.305081 -0.670891 0
M  V30 2438 H 229.697 0.107839 -1.89694 0
M  V30 2439 H 227.847 2.23128 -3.18035 0
M  V30 2440 H 229.519 0.0497646 -4.61273 0
M  V30 2441 H 227.762 -0.022609 -4.33794 0
M  V30 2442 H 228.433 1.23579 -5.37989 0
M  V30 2443 H 230.909 2.0378 -3.62785 0
M  V30 2444 H 229.785 3.06657 -4.5525 0
M  V30 2445 H 230.046 3.38419 -2.84473 0
M  V30 2446 N 229.106 1.52395 0.401703 0
M  V30 2447 C 230.056 1.72649 1.48917 0
M  V30 2448 C 231.04 0.580436 1.50066 0
M  V30 2449 O 232.232 0.83779 1.55917 0
M  V30 2450 C 229.361 1.88729 2.86769 0
M  V30 2451 C 228.447 3.09228 2.90239 0
M  V30 2452 N 228.838 4.31805 2.63396 0
M  V30 2453 C 227.136 3.09214 3.21408 0
M  V30 2454 C 227.837 5.13326 2.73625 0
M  V30 2455 N 226.813 4.48735 3.06819 0
M  V30 2456 H 230.615 2.65058 1.26971 0
M  V30 2457 H 228.129 1.50528 0.609504 0
M  V30 2458 H 230.126 2.01358 3.65049 0
M  V30 2459 H 228.786 0.975252 3.09708 0
M  V30 2460 H 229.797 4.60154 2.37653 0
M  V30 2461 H 226.474 2.27774 3.49893 0
M  V30 2462 H 227.864 6.21003 2.56524 0
M  V30 2463 N 230.584 -0.659388 1.43143 0
M  V30 2464 C 231.83 -1.42145 1.44647 0
M  V30 2465 C 232.163 -1.9408 0.0681907 0
M  V30 2466 O 231.438 -1.71899 -0.910007 0
M  V30 2467 C 231.721 -2.60735 2.48373 0
M  V30 2468 C 231.574 -2.14332 3.95451 0
M  V30 2469 C 232.893 -3.62951 2.48906 0
M  V30 2470 H 230.012 -0.51552 0.526696 0
M  V30 2471 H 232.654 -0.748069 1.74654 0
M  V30 2472 H 230.804 -3.18184 2.22916 0
M  V30 2473 H 232.476 -1.61932 4.31944 0
M  V30 2474 H 230.719 -1.4576 4.08578 0
M  V30 2475 H 231.39 -2.99583 4.63631 0
M  V30 2476 H 233.866 -3.1525 2.71582 0
M  V30 2477 H 232.742 -4.43487 3.23435 0
M  V30 2478 H 233.003 -4.15126 1.52061 0
M  V30 2479 N 232.062 -1.29571 -0.897171 0
M  V30 2480 C 232.972 -1.16808 -2.03453 0
M  V30 2481 C 233.988 -0.0907471 -1.73763 0
M  V30 2482 O 235.164 -0.303312 -1.99103 0
M  V30 2483 C 232.229 -0.848264 -3.36163 0
M  V30 2484 C 231.29 -2.0097 -3.79354 0
M  V30 2485 C 230.523 -1.70505 -5.05731 0
M  V30 2486 O 230.746 -0.62718 -5.66941 0
M  V30 2487 O 229.68 -2.5538 -5.45036 0
M  V30 2488 H 233.506 -2.12325 -2.17144 0
M  V30 2489 H 231.091 -1.09047 -1.02123 0
M  V30 2490 H 232.973 -0.684581 -4.15802 0
M  V30 2491 H 231.648 0.0771071 -3.23608 0
M  V30 2492 H 230.555 -2.22863 -3.00471 0
M  V30 2493 H 231.888 -2.91636 -3.96496 0
M  V30 2494 N 233.54 1.10788 -1.12088 0
M  V30 2495 C 234.956 1.34691 -0.856186 0
M  V30 2496 C 235.156 1.94791 0.515615 0
M  V30 2497 O 234.212 2.18524 1.26505 0
M  V30 2498 C 235.525 2.27208 -1.9697 0
M  V30 2499 C 237.073 2.40755 -2.00016 0
M  V30 2500 C 237.548 3.36598 -3.1059 0
M  V30 2501 N 239.039 3.44164 -3.10008 0
M  V30 2502 C 239.774 4.18284 -3.92206 0
M  V30 2503 N 239.27 4.95322 -4.84384 0
M  V30 2504 N 241.063 4.13865 -3.80357 0
M  V30 2505 H 233.214 0.70144 -2.00483 0
M  V30 2506 H 235.477 0.371405 -0.872217 0
M  V30 2507 H 235.183 1.90251 -2.958 0
M  V30 2508 H 235.057 3.27485 -1.87172 0
M  V30 2509 H 237.444 2.76982 -1.01808 0
M  V30 2510 H 237.525 1.40305 -2.13888 0
M  V30 2511 H 237.169 3.01096 -4.09028 0
M  V30 2512 H 237.099 4.36918 -2.93956 0
M  V30 2513 H 239.59 2.8922 -2.43228 0
M  V30 2514 H 239.903 5.49267 -5.43623 0
M  V30 2515 H 238.248 4.94459 -4.884 0
M  V30 2516 H 241.439 3.52773 -3.07683 0
M  V30 2517 H 241.612 4.71372 -4.44649 0
M  V30 2518 N 235.018 0.912232 1.28515 0
M  V30 2519 C 236.429 0.591352 1.77087 0
M  V30 2520 C 236.78 -0.8933 1.74684 0
M  V30 2521 O 235.905 -1.69876 1.34056 0
M  V30 2522 C 236.5 1.06668 3.2157 0
M  V30 2523 C 235.059 0.79675 3.67871 0
M  V30 2524 C 234.206 1.23427 2.48316 0
M  V30 2525 H 237.157 1.09365 1.15 0
M  V30 2526 H 237.178 0.407455 3.78312 0
M  V30 2527 H 236.69 2.14726 3.23287 0
M  V30 2528 H 234.791 -0.270679 3.71616 0
M  V30 2529 H 234.904 1.40343 4.58084 0
M  V30 2530 H 233.268 0.653036 2.46186 0
M  V30 2531 H 234.051 2.32316 2.52753 0
M  V30 2532 N 236.496 -1.42363 0.676048 0
M  V30 2533 C 237.745 -2.00745 0.196037 0
M  V30 2534 C 238.058 -1.54083 -1.20489 0
M  V30 2535 O 239.264 -2.04891 -1.78134 0
M  V30 2536 C 237.72 -3.58651 0.299616 0
M  V30 2537 C 237.328 -4.143 1.70468 0
M  V30 2538 C 239.072 -4.24326 -0.121619 0
M  V30 2539 C 236.979 -5.64574 1.76096 0
M  V30 2540 H 235.909 -0.750787 0.0695301 0
M  V30 2541 H 238.56 -1.63072 0.841412 0
M  V30 2542 H 236.942 -3.93833 -0.413673 0
M  V30 2543 H 238.116 -3.90575 2.44515 0
M  V30 2544 H 236.431 -3.61081 2.07387 0
M  V30 2545 H 239.028 -5.34607 -0.0997362 0
M  V30 2546 H 239.371 -3.99897 -1.15708 0
M  V30 2547 H 239.904 -3.94108 0.540706 0
M  V30 2548 H 236.643 -5.93804 2.77628 0
M  V30 2549 H 236.163 -5.90286 1.06406 0
M  V30 2550 H 237.842 -6.29013 1.51496 0
M  V30 2551 N 237.974 -0.419461 -1.51915 0
M  V30 2552 C 238.904 0.391813 -2.30189 0
M  V30 2553 C 239.885 1.03699 -1.34836 0
M  V30 2554 O 241.07 1.04403 -1.63748 0
M  V30 2555 C 238.2 1.50312 -3.13087 0
M  V30 2556 C 237.154 0.9824 -4.16573 0
M  V30 2557 C 236.48 2.18809 -4.8788 0
M  V30 2558 C 237.78 0.0292356 -5.22292 0
M  V30 2559 H 239.474 -0.26135 -2.98257 0
M  V30 2560 H 237.02 -0.127134 -1.43438 0
M  V30 2561 H 238.973 2.07773 -3.66617 0
M  V30 2562 H 237.697 2.18431 -2.42807 0
M  V30 2563 H 236.356 0.430119 -3.64068 0
M  V30 2564 H 236.004 2.85507 -4.14119 0
M  V30 2565 H 235.704 1.84615 -5.57845 0
M  V30 2566 H 237.228 2.76858 -5.44226 0
M  V30 2567 H 238.642 0.512976 -5.71 0
M  V30 2568 H 237.039 -0.2244 -5.9968 0
M  V30 2569 H 238.109 -0.912931 -4.76228 0
M  V30 2570 N 239.452 1.56882 -0.150215 0
M  V30 2571 C 240.868 1.58263 0.20617 0
M  V30 2572 C 241.068 1.16464 1.64434 0
M  V30 2573 O 240.124 0.866422 2.3717 0
M  V30 2574 C 241.437 3.00649 -0.0555025 0
M  V30 2575 C 242.985 3.12999 0.00795388 0
M  V30 2576 C 243.46 4.5744 -0.226429 0
M  V30 2577 N 244.951 4.62875 -0.173469 0
M  V30 2578 C 245.686 5.72454 -0.329288 0
M  V30 2579 N 245.182 6.90669 -0.543005 0
M  V30 2580 N 246.975 5.61467 -0.266666 0
M  V30 2581 H 239.126 1.82345 -1.08922 0
M  V30 2582 H 241.389 0.844149 -0.431413 0
M  V30 2583 H 241.095 3.3563 -1.05096 0
M  V30 2584 H 240.969 3.71337 0.66246 0
M  V30 2585 H 243.356 2.77857 0.993966 0
M  V30 2586 H 243.437 2.4479 -0.742388 0
M  V30 2587 H 243.081 4.93287 -1.20956 0
M  V30 2588 H 243.011 5.2378 0.544274 0
M  V30 2589 H 245.502 3.77898 -0.0130709 0
M  V30 2590 H 245.815 7.70045 -0.651922 0
M  V30 2591 H 244.16 6.92581 -0.579366 0
M  V30 2592 H 247.351 4.67992 -0.100441 0
M  V30 2593 H 247.524 6.46816 -0.391535 0
M  V30 2594 N 240.93 -0.123565 1.57115 0
M  V30 2595 C 242.179 -0.830704 1.83799 0
M  V30 2596 C 242.492 -1.81259 0.735158 0
M  V30 2597 O 243.698 -2.56558 0.888278 0
M  V30 2598 C 242.154 -1.52802 3.25852 0
M  V30 2599 C 241.762 -0.587356 4.44133 0
M  V30 2600 C 243.506 -2.22056 3.61789 0
M  V30 2601 C 241.413 -1.28764 5.77212 0
M  V30 2602 H 240.343 -0.313967 0.685522 0
M  V30 2603 H 242.994 -0.0834359 1.8331 0
M  V30 2604 H 241.376 -2.32175 3.20797 0
M  V30 2605 H 242.55 0.172829 4.60476 0
M  V30 2606 H 240.865 -0.00201892 4.164 0
M  V30 2607 H 243.462 -2.75131 4.58483 0
M  V30 2608 H 243.805 -2.99644 2.88997 0
M  V30 2609 H 244.338 -1.49576 3.68608 0
M  V30 2610 H 241.077 -0.55314 6.53162 0
M  V30 2611 H 240.597 -2.01995 5.64764 0
M  V30 2612 H 242.276 -1.8221 6.20813 0
M  V30 2613 N 242.408 -1.52605 -0.393616 0
M  V30 2614 C 243.819 -1.59417 -0.971761 0
M  V30 2615 C 244.17 -0.444173 -1.91106 0
M  V30 2616 O 243.295 0.433382 -2.12016 0
M  V30 2617 C 243.89 -2.88936 -1.76921 0
M  V30 2618 C 242.449 -2.98175 -2.29714 0
M  V30 2619 C 241.596 -2.54491 -1.10135 0
M  V30 2620 H 244.547 -1.57751 -0.173317 0
M  V30 2621 H 244.568 -2.75163 -2.62804 0
M  V30 2622 H 244.08 -3.72616 -1.08532 0
M  V30 2623 H 242.181 -2.19024 -3.01429 0
M  V30 2624 H 242.294 -4.02726 -2.59517 0
M  V30 2625 H 240.658 -2.08702 -1.45999 0
M  V30 2626 H 241.441 -3.4056 -0.432874 0
M  V30 2627 N 243.887 0.651787 -1.4349 0
M  V30 2628 C 244.837 1.75783 -1.45205 0
M  V30 2629 C 245.821 1.57679 -0.320328 0
M  V30 2630 O 247.013 1.67767 -0.564211 0
M  V30 2631 C 244.142 3.14377 -1.3792 0
M  V30 2632 C 243.228 3.38023 -2.56127 0
M  V30 2633 N 243.619 3.32135 -3.81471 0
M  V30 2634 C 241.917 3.68747 -2.50882 0
M  V30 2635 C 242.618 3.55902 -4.60118 0
M  V30 2636 N 241.594 3.77783 -3.90872 0
M  V30 2637 H 245.396 1.69657 -2.39987 0
M  V30 2638 H 242.91 0.853508 -1.38163 0
M  V30 2639 H 244.907 3.93666 -1.37231 0
M  V30 2640 H 243.567 3.21683 -0.441596 0
M  V30 2641 H 244.578 3.11515 -4.13738 0
M  V30 2642 H 241.255 3.8316 -1.65816 0
M  V30 2643 H 242.645 3.57116 -5.69138 0
M  V30 2644 N 245.365 1.30045 0.890287 0
M  V30 2645 C 246.295 1.18541 2.01172 0
M  V30 2646 C 247.276 0.0773356 1.69924 0
M  V30 2647 O 248.461 0.25845 1.92473 0
M  V30 2648 C 245.591 0.870941 3.36202 0
M  V30 2649 C 244.545 1.93637 3.81692 0
M  V30 2650 C 243.871 1.475 5.13953 0
M  V30 2651 C 245.171 3.34666 4.00994 0
M  V30 2652 H 246.865 2.12359 2.11054 0
M  V30 2653 H 244.411 1.02238 1.01407 0
M  V30 2654 H 246.364 0.777141 4.14172 0
M  V30 2655 H 245.088 -0.102926 3.26438 0
M  V30 2656 H 243.747 2.01972 3.05946 0
M  V30 2657 H 243.395 0.489551 5.00612 0
M  V30 2658 H 243.095 2.1876 5.4536 0
M  V30 2659 H 244.619 1.39489 5.94454 0
M  V30 2660 H 246.033 3.2912 4.69417 0
M  V30 2661 H 244.43 4.03966 4.43769 0
M  V30 2662 H 245.5 3.76949 3.05021 0
M  V30 2663 N 246.843 -1.10192 1.12674 0
M  V30 2664 C 247.806 -2.14786 0.799979 0
M  V30 2665 C 248.806 -1.59711 -0.18685 0
M  V30 2666 O 249.996 -1.74156 0.0392558 0
M  V30 2667 C 247.128 -3.40374 0.189228 0
M  V30 2668 H 248.321 -2.45203 1.72671 0
M  V30 2669 H 245.874 -1.25597 0.930326 0
M  V30 2670 H 246.609 -3.15577 -0.747107 0
M  V30 2671 H 246.394 -3.81637 0.899766 0
M  V30 2672 H 247.884 -4.17594 -0.0228143 0
M  V30 2673 N 248.321 -0.919034 -1.28029 0
M  V30 2674 C 249.57 -0.550802 -1.94034 0
M  V30 2675 C 249.883 0.910877 -1.73096 0
M  V30 2676 O 251.089 1.3875 -2.33368 0
M  V30 2677 C 249.545 -0.934249 -3.47563 0
M  V30 2678 C 249.153 -2.41602 -3.7727 0
M  V30 2679 C 250.897 -0.636854 -4.19696 0
M  V30 2680 C 248.804 -2.73932 -5.24133 0
M  V30 2681 H 247.734 -0.202273 -0.726362 0
M  V30 2682 H 250.385 -1.11867 -1.45458 0
M  V30 2683 H 248.767 -0.295115 -3.94899 0
M  V30 2684 H 249.941 -3.10233 -3.40723 0
M  V30 2685 H 248.256 -2.68441 -3.18321 0
M  V30 2686 H 250.853 -0.855005 -5.2782 0
M  V30 2687 H 251.196 0.425575 -4.14119 0
M  V30 2688 H 251.729 -1.23469 -3.78154 0
M  V30 2689 H 248.468 -3.79049 -5.34792 0
M  V30 2690 H 247.988 -2.09942 -5.61858 0
M  V30 2691 H 249.667 -2.61215 -5.91925 0
M  V30 2692 N 249.799 1.42003 -0.683588 0
M  V30 2693 C 250.749 2.27997 0.0121992 0
M  V30 2694 C 251.733 1.4156 0.764822 0
M  V30 2695 O 252.925 1.64935 0.642287 0
M  V30 2696 C 250.054 3.29706 0.956482 0
M  V30 2697 C 249.14 4.23625 0.200739 0
M  V30 2698 N 249.531 4.99448 -0.799087 0
M  V30 2699 C 247.829 4.43845 0.437937 0
M  V30 2700 C 248.53 5.68102 -1.25041 0
M  V30 2701 N 247.506 5.40511 -0.578648 0
M  V30 2702 H 251.308 2.84048 -0.754564 0
M  V30 2703 H 248.822 1.54071 -0.513398 0
M  V30 2704 H 250.819 3.90124 1.47 0
M  V30 2705 H 249.479 2.75216 1.72297 0
M  V30 2706 H 250.49 5.04303 -1.17893 0
M  V30 2707 H 247.167 4.00382 1.18325 0
M  V30 2708 H 248.557 6.38913 -2.07942 0
M  V30 2709 N 251.277 0.427512 1.51691 0
M  V30 2710 C 252.207 -0.3796 2.30394 0
M  V30 2711 C 253.188 -1.02982 1.35384 0
M  V30 2712 O 254.373 -1.03534 1.643 0
M  V30 2713 C 251.503 -1.48649 3.1388 0
M  V30 2714 C 250.457 -0.960294 4.17088 0
M  V30 2715 C 249.783 -2.16219 4.89033 0
M  V30 2716 C 251.083 -0.00153679 5.223 0
M  V30 2717 H 252.777 0.277164 2.98114 0
M  V30 2718 H 250.323 0.134739 1.43368 0
M  V30 2719 H 252.276 -2.05826 3.67714 0
M  V30 2720 H 251 -2.1714 2.43962 0
M  V30 2721 H 249.659 -0.410806 3.64291 0
M  V30 2722 H 249.307 -2.83307 4.15628 0
M  V30 2723 H 249.007 -1.81654 5.58816 0
M  V30 2724 H 250.531 -2.73968 5.45687 0
M  V30 2725 H 251.945 -0.482687 5.71264 0
M  V30 2726 H 250.342 0.256199 5.99553 0
M  V30 2727 H 251.412 0.938174 4.75738 0
M  V30 2728 N 252.755 -1.56801 0.158532 0
M  V30 2729 C 253.687 -2.14488 -0.807923 0
M  V30 2730 C 254.7 -1.09721 -1.20271 0
M  V30 2731 O 255.889 -1.36956 -1.14478 0
M  V30 2732 C 252.989 -2.66217 -2.09718 0
M  V30 2733 C 252.162 -3.95507 -1.86796 0
M  V30 2734 C 251.221 -4.3243 -2.99818 0
M  V30 2735 O 250.247 -5.00543 -2.71008 0
M  V30 2736 N 251.449 -3.92947 -4.27285 0
M  V30 2737 H 254.214 -2.98042 -0.314816 0
M  V30 2738 H 251.775 -1.61881 -0.0246692 0
M  V30 2739 H 253.767 -2.87924 -2.84398 0
M  V30 2740 H 252.337 -1.87324 -2.50257 0
M  V30 2741 H 251.557 -3.82309 -0.96089 0
M  V30 2742 H 252.845 -4.79972 -1.68833 0
M  V30 2743 H 252.243 -3.38087 -4.53557 0
M  V30 2744 H 250.8 -4.19681 -4.9871 0
M  V30 2745 N 254.233 0.115231 -1.57178 0
M  V30 2746 C 255.649 0.468877 -1.52557 0
M  V30 2747 C 255.849 1.81649 -0.872125 0
M  V30 2748 O 254.905 2.48347 -0.45606 0
M  V30 2749 C 256.218 0.4499 -2.97315 0
M  V30 2750 C 257.766 0.533185 -3.08425 0
M  V30 2751 C 258.241 0.54456 -4.54751 0
M  V30 2752 N 259.732 0.605892 -4.5922 0
M  V30 2753 C 260.467 0.636203 -5.6986 0
M  V30 2754 N 259.963 0.623931 -6.89985 0
M  V30 2755 N 261.756 0.679496 -5.57978 0
M  V30 2756 H 253.907 -0.767712 -1.9804 0
M  V30 2757 H 256.17 -0.283609 -0.904583 0
M  V30 2758 H 255.876 -0.472721 -3.48509 0
M  V30 2759 H 255.75 1.27632 -3.5495 0
M  V30 2760 H 258.137 1.44623 -2.57232 0
M  V30 2761 H 258.218 -0.320995 -2.53778 0
M  V30 2762 H 257.862 -0.364452 -5.06591 0
M  V30 2763 H 257.792 1.41568 -5.07214 0
M  V30 2764 H 260.283 0.621386 -3.72756 0
M  V30 2765 H 260.596 0.649787 -7.70063 0
M  V30 2766 H 258.941 0.591296 -6.9248 0
M  V30 2767 H 262.132 0.686472 -4.63039 0
M  V30 2768 H 262.305 0.69965 -6.44212 0
M  V30 2769 N 255.711 1.52812 0.385517 0
M  V30 2770 C 256.659 1.78482 1.49155 0
M  V30 2771 C 257.653 0.652914 1.56312 0
M  V30 2772 O 258.859 0.835464 1.59436 0
M  V30 2773 H 255.234 0.5648 0.496493 0
M  V30 2774 H 257.205 2.71095 1.24699 0
M  V30 2775 C 255.954 1.97378 2.86247 0
M  V30 2776 H 255.277 2.83907 2.81491 0
M  V30 2777 H 256.717 2.19327 3.62866 0
M  V30 2778 C 255.176 0.74728 3.28508 0
M  V30 2779 O 255.706 -0.0736232 4.01633 0
M  V30 2780 N 253.912 0.576396 2.84826 0
M  V30 2781 H 253.459 1.24555 2.25486 0
M  V30 2782 H 253.417 -0.24288 3.1346 0
M  V30 2783 N 257.189 -0.644168 1.43834 0
M  V30 2784 C 258.438 -1.39985 1.45214 0
M  V30 2785 C 258.751 -1.95421 0.0835494 0
M  V30 2786 O 259.957 -2.71488 -0.0251748 0
M  V30 2787 C 258.413 -2.53384 2.55587 0
M  V30 2788 C 258.021 -2.04517 3.98594 0
M  V30 2789 C 259.765 -3.30685 2.66172 0
M  V30 2790 C 257.672 -3.1518 5.00416 0
M  V30 2791 H 256.602 -0.526005 0.540218 0
M  V30 2792 H 259.253 -0.694367 1.69855 0
M  V30 2793 H 257.635 -3.26446 2.24163 0
M  V30 2794 H 258.809 -1.38405 4.39523 0
M  V30 2795 H 257.124 -1.40068 3.92135 0
M  V30 2796 H 259.721 -4.13158 3.39418 0
M  V30 2797 H 260.064 -3.79312 1.71546 0
M  V30 2798 H 260.597 -2.64708 2.96942 0
M  V30 2799 H 257.336 -2.71511 5.96625 0
M  V30 2800 H 256.856 -3.79974 4.64091 0
M  V30 2801 H 258.535 -3.80166 5.23529 0
M  V30 2802 N 258.668 -1.30515 -0.883378 0
M  V30 2803 C 259.616 -1.16941 -2.01066 0
M  V30 2804 C 260.61 -0.0809148 -1.69207 0
M  V30 2805 O 261.816 -0.241877 -1.78367 0
M  V30 2806 H 258.191 -0.361705 -0.659298 0
M  V30 2807 H 260.162 -2.12344 -2.09649 0
M  V30 2808 C 258.911 -0.879694 -3.36388 0
M  V30 2809 H 258.234 -1.70936 -3.61415 0
M  V30 2810 H 259.674 -0.82483 -4.159 0
M  V30 2811 C 258.133 0.417409 -3.34304 0
M  V30 2812 O 258.663 1.43843 -3.75063 0
M  V30 2813 N 256.869 0.429141 -2.87414 0
M  V30 2814 H 256.416 -0.402222 -2.5444 0
M  V30 2815 H 256.374 1.29696 -2.86403 0
M  V30 2816 N 260.146 1.09593 -1.13257 0
M  V30 2817 C 261.056 2.19739 -0.821691 0
M  V30 2818 C 262.072 1.72926 0.19302 0
M  V30 2819 O 263.248 2.01385 0.0244895 0
M  V30 2820 C 260.313 3.45482 -0.290333 0
M  V30 2821 C 259.374 4.06985 -1.36607 0
M  V30 2822 C 258.607 5.26726 -0.859975 0
M  V30 2823 O 258.83 5.69594 0.303082 0
M  V30 2824 O 257.764 5.7931 -1.63351 0
M  V30 2825 H 261.59 2.48781 -1.74189 0
M  V30 2826 H 259.175 1.18496 -0.909894 0
M  V30 2827 H 261.057 4.214 0.000674022 0
M  V30 2828 H 259.732 3.18047 0.602306 0
M  V30 2829 H 258.639 3.32712 -1.71037 0
M  V30 2830 H 259.972 4.38643 -2.23279 0
M  V30 2831 N 261.624 0.925811 1.2754 0
M  V30 2832 C 262.572 0.413897 2.28888 0
M  V30 2833 C 263.566 -0.500779 1.61829 0
M  V30 2834 O 264.772 -0.38069 1.75928 0
M  V30 2835 H 261.147 0.115274 0.743112 0
M  V30 2836 H 263.118 1.28151 2.69481 0
M  V30 2837 C 261.867 -0.319792 3.46226 0
M  V30 2838 H 261.19 0.374846 3.98039 0
M  V30 2839 H 262.63 -0.642435 4.19105 0
M  V30 2840 C 261.089 -1.53209 3.00048 0
M  V30 2841 O 261.619 -2.6309 3.03557 0
M  V30 2842 N 259.825 -1.38326 2.55566 0
M  V30 2843 H 259.372 -0.489292 2.5291 0
M  V30 2844 H 259.33 -2.19564 2.25031 0
M  V30 2845 N 263.102 -1.41638 0.69111 0
M  V30 2846 C 264.349 -2.01299 0.220193 0
M  V30 2847 C 264.677 -1.54715 -1.17871 0
M  V30 2848 O 263.932 -0.747193 -1.80874 0
M  V30 2849 C 264.231 -3.56714 0.221277 0
M  V30 2850 C 263.897 -4.22792 1.56709 0
M  V30 2851 C 262.559 -4.40557 1.93554 0
M  V30 2852 C 264.911 -4.59883 2.45268 0
M  V30 2853 C 262.239 -4.92688 3.18552 0
M  V30 2854 C 264.591 -5.13403 3.69595 0
M  V30 2855 C 263.255 -5.29379 4.06589 0
M  V30 2856 H 262.525 -0.736606 0.0805743 0
M  V30 2857 H 265.172 -1.69598 0.889319 0
M  V30 2858 H 263.477 -3.8818 -0.531391 0
M  V30 2859 H 265.174 -4.00678 -0.160547 0
M  V30 2860 H 261.764 -4.09336 1.2705 0
M  V30 2861 H 265.948 -4.45817 2.18084 0
M  V30 2862 H 261.204 -5.03242 3.47214 0
M  V30 2863 H 265.378 -5.41084 4.38407 0
M  V30 2864 H 263.005 -5.69537 5.03519 0
M  V30 2865 N 264.58 -0.43555 -1.51462 0
M  V30 2866 C 265.828 0.131254 -2.01673 0
M  V30 2867 C 266.149 1.43368 -1.32177 0
M  V30 2868 O 265.419 1.90524 -0.455769 0
M  V30 2869 H 263.999 0.0514954 -0.745223 0
M  V30 2870 H 266.661 -0.577847 -1.86137 0
M  V30 2871 H 265.757 0.308446 -3.10572 0
M  V30 2872 N 266.058 1.56714 -0.166846 0
M  V30 2873 C 267.469 1.83378 0.350646 0
M  V30 2874 C 267.82 1.08646 1.63372 0
M  V30 2875 O 266.945 0.338058 2.13743 0
M  V30 2876 C 267.54 3.32643 0.642963 0
M  V30 2877 C 266.099 3.59818 1.10491 0
M  V30 2878 C 265.246 2.76954 0.138411 0
M  V30 2879 H 268.197 1.53803 -0.391193 0
M  V30 2880 H 268.218 3.49878 1.49551 0
M  V30 2881 H 267.73 3.87007 -0.291055 0
M  V30 2882 H 265.831 3.1086 2.05418 0
M  V30 2883 H 265.944 4.68178 1.01716 0
M  V30 2884 H 264.308 2.4666 0.634911 0
M  V30 2885 H 265.091 3.34097 -0.789549 0
M  V30 2886 N 267.536 -0.106894 1.57237 0
M  V30 2887 C 268.484 -1.14944 2.02215 0
M  V30 2888 C 269.478 -1.42167 0.92114 0
M  V30 2889 O 270.684 -1.41987 1.10634 0
M  V30 2890 H 267.059 -0.387841 0.64427 0
M  V30 2891 H 269.03 -0.743683 2.88984 0
M  V30 2892 C 267.779 -2.4647 2.4525 0
M  V30 2893 H 267.102 -2.26363 3.29545 0
M  V30 2894 H 268.542 -3.17948 2.80508 0
M  V30 2895 C 267.001 -3.09921 1.321 0
M  V30 2896 O 267.531 -3.9651 0.643622 0
M  V30 2897 N 265.737 -2.69986 1.07497 0
M  V30 2898 H 265.284 -1.99667 1.62761 0
M  V30 2899 H 265.242 -3.12769 0.319876 0
M  V30 2900 N 269.014 -1.53014 -0.377408 0
M  V30 2901 C 270.242 -1.72515 -1.14219 0
M  V30 2902 C 270.657 -0.448735 -1.8339 0
M  V30 2903 O 270.014 0.577592 -1.73119 0
M  V30 2904 C 270.065 -2.8826 -2.18148 0
M  V30 2905 O 269.786 -4.10962 -1.51795 0
M  V30 2906 C 271.287 -3.19536 -3.07264 0
M  V30 2907 H 268.507 -0.577301 -0.342001 0
M  V30 2908 H 271.051 -1.99712 -0.439935 0
M  V30 2909 H 269.206 -2.63492 -2.83991 0
M  V30 2910 H 269.62 -4.75693 -2.20945 0
M  V30 2911 H 271.094 -4.03959 -3.76193 0
M  V30 2912 H 271.571 -2.34403 -3.71419 0
M  V30 2913 H 272.177 -3.46186 -2.47053 0
M  V30 2914 N 270.492 0.636531 -1.44174 0
M  V30 2915 C 271.402 1.77754 -1.53103 0
M  V30 2916 C 272.418 1.68928 -0.417034 0
M  V30 2917 O 273.594 1.89801 -0.6736 0
M  V30 2918 C 270.659 3.14115 -1.46741 0
M  V30 2919 C 269.72 3.34612 -2.68948 0
M  V30 2920 C 268.953 4.64467 -2.6288 0
M  V30 2921 O 269.176 5.44919 -1.68581 0
M  V30 2922 O 268.11 4.87049 -3.53648 0
M  V30 2923 H 271.936 1.73174 -2.49489 0
M  V30 2924 H 269.521 0.79709 -1.2636 0
M  V30 2925 H 271.403 3.95412 -1.45696 0
M  V30 2926 H 270.078 3.19249 -0.534975 0
M  V30 2927 H 268.985 2.53014 -2.75562 0
M  V30 2928 H 270.318 3.34336 -3.61221 0
M  V30 2929 N 271.97 1.30982 0.876444 0
M  V30 2930 C 272.903 1.12414 1.98591 0
M  V30 2931 C 273.881 0.0294078 1.62573 0
M  V30 2932 O 275.065 0.184598 1.87594 0
M  V30 2933 C 272.192 0.716276 3.3104 0
M  V30 2934 C 271.238 1.81311 3.86042 0
M  V30 2935 S 272.071 3.41727 4.1229 0
M  V30 2936 C 273.227 3.02863 5.47745 0
M  V30 2937 H 273.46 2.06338 2.14037 0
M  V30 2938 H 270.993 1.15393 1.02586 0
M  V30 2939 H 272.951 0.487697 4.07593 0
M  V30 2940 H 271.612 -0.203749 3.13438 0
M  V30 2941 H 270.805 1.48021 4.81774 0
M  V30 2942 H 270.407 1.99641 3.16259 0
M  V30 2943 H 272.699 2.51353 6.29148 0
M  V30 2944 H 273.642 3.97533 5.8598 0
M  V30 2945 H 274.05 2.40487 5.10711 0
M  V30 2946 N 273.449 -1.08991 1.13837 0
M  V30 2947 C 274.399 -2.1393 0.788535 0
M  V30 2948 C 275.383 -1.59396 -0.219516 0
M  V30 2949 O 276.575 -1.76985 -0.0227557 0
M  V30 2950 C 273.704 -3.42305 0.261147 0
M  V30 2951 C 272.79 -4.03736 1.29837 0
M  V30 2952 N 273.181 -4.39659 2.50067 0
M  V30 2953 C 271.479 -4.30993 1.1472 0
M  V30 2954 C 272.18 -4.88113 3.16419 0
M  V30 2955 N 271.156 -4.85846 2.43832 0
M  V30 2956 H 274.958 -2.39516 1.70322 0
M  V30 2957 H 272.472 -1.26263 1.02134 0
M  V30 2958 H 274.469 -4.16899 -0.0077405 0
M  V30 2959 H 273.129 -3.18172 -0.647805 0
M  V30 2960 H 274.14 -4.30878 2.8734 0
M  V30 2961 H 270.817 -4.16444 0.296773 0
M  V30 2962 H 272.207 -5.25336 4.18894 0
M  V30 2963 N 274.927 -0.932562 -1.27047 0
M  V30 2964 C 275.857 -0.452902 -2.29066 0
M  V30 2965 C 276.838 0.489338 -1.62909 0
M  V30 2966 O 278.023 0.393046 -1.90181 0
M  V30 2967 C 275.153 0.290698 -3.46081 0
M  V30 2968 C 274.107 -0.564168 -4.24265 0
M  V30 2969 C 273.433 0.308886 -5.33807 0
M  V30 2970 C 274.733 -1.83112 -4.89149 0
M  V30 2971 H 276.427 -1.30552 -2.69437 0
M  V30 2972 H 273.973 -0.629201 -1.29526 0
M  V30 2973 H 275.926 0.637233 -4.16554 0
M  V30 2974 H 274.65 1.17738 -3.0464 0
M  V30 2975 H 273.309 -0.893477 -3.55545 0
M  V30 2976 H 272.957 1.19467 -4.88607 0
M  V30 2977 H 272.657 -0.259633 -5.87026 0
M  V30 2978 H 274.181 0.650884 -6.07121 0
M  V30 2979 H 275.595 -1.55236 -5.51883 0
M  V30 2980 H 273.992 -2.34353 -5.52448 0
M  V30 2981 H 275.062 -2.54772 -4.12576 0
M  V30 2982 N 276.405 1.4127 -0.698611 0
M  V30 2983 C 277.651 2.01478 -0.231207 0
M  V30 2984 C 277.984 1.55215 1.16713 0
M  V30 2985 O 277.259 0.764672 1.78838 0
M  V30 2986 C 277.542 3.58912 -0.292281 0
M  V30 2987 C 277.395 4.15293 -1.72778 0
M  V30 2988 C 278.714 4.38736 0.346194 0
M  V30 2989 H 275.833 0.732025 -0.0854878 0
M  V30 2990 H 278.475 1.67977 -0.887906 0
M  V30 2991 H 276.625 3.87582 0.26686 0
M  V30 2992 H 278.297 3.97486 -2.341 0
M  V30 2993 H 276.54 3.7022 -2.26096 0
M  V30 2994 H 277.211 5.24452 -1.72202 0
M  V30 2995 H 279.687 4.15897 -0.130035 0
M  V30 2996 H 278.563 5.48221 0.272932 0
M  V30 2997 H 278.824 4.18425 1.42734 0
M  V30 2998 N 277.883 0.443576 1.51229 0
M  V30 2999 C 279.294 -0.0180867 1.86691 0
M  V30 3000 C 279.645 -1.41384 1.36033 0
M  V30 3001 O 278.77 -2.04291 0.713722 0
M  V30 3002 C 279.365 -0.039597 3.38777 0
M  V30 3003 C 277.924 -0.445692 3.73752 0
M  V30 3004 C 277.071 0.357584 2.74985 0
M  V30 3005 H 280.022 0.659138 1.44364 0
M  V30 3006 H 280.043 -0.847761 3.70936 0
M  V30 3007 H 279.555 0.976382 3.75617 0
M  V30 3008 H 277.656 -1.46704 3.42503 0
M  V30 3009 H 277.769 -0.166155 4.78812 0
M  V30 3010 H 276.133 -0.184973 2.54027 0
M  V30 3011 H 276.916 1.37256 3.14668 0
M  V30 3012 N 279.361 -1.56624 0.175154 0
M  V30 3013 C 280.61 -1.96173 -0.468921 0
M  V30 3014 C 280.923 -1.06401 -1.64128 0
M  V30 3015 O 282.129 -1.35648 -2.35185 0
M  V30 3016 C 280.585 -3.48833 -0.885633 0
M  V30 3017 C 280.193 -4.47237 0.261343 0
M  V30 3018 C 281.937 -3.97194 -1.49791 0
M  V30 3019 C 279.844 -5.9114 -0.175214 0
M  V30 3020 H 278.774 -0.732455 -0.178958 0
M  V30 3021 H 281.425 -1.81591 0.263997 0
M  V30 3022 H 279.807 -3.58848 -1.67464 0
M  V30 3023 H 280.981 -4.4894 1.03871 0
M  V30 3024 H 279.296 -4.08956 0.783827 0
M  V30 3025 H 281.893 -5.02167 -1.83665 0
M  V30 3026 H 282.236 -3.40351 -2.39722 0
M  V30 3027 H 282.769 -3.90212 -0.773267 0
M  V30 3028 H 279.508 -6.51865 0.689414 0
M  V30 3029 H 279.028 -5.92735 -0.91786 0
M  V30 3030 H 280.707 -6.44044 -0.617792 0
M  V30 3031 N 280.839 0.0985539 -1.57292 0
M  V30 3032 C 281.769 1.12064 -2.04851 0
M  V30 3033 C 282.75 1.41981 -0.936767 0
M  V30 3034 O 283.935 1.52071 -1.20781 0
M  V30 3035 C 281.065 2.44144 -2.47004 0
M  V30 3036 C 280.019 2.28643 -3.6181 0
M  V30 3037 C 279.345 3.65869 -3.89929 0
M  V30 3038 C 280.645 1.72986 -4.92822 0
M  V30 3039 H 282.339 0.724979 -2.9049 0
M  V30 3040 H 279.885 0.34729 -1.39749 0
M  V30 3041 H 281.838 3.15914 -2.78884 0
M  V30 3042 H 280.562 2.85639 -1.5836 0
M  V30 3043 H 279.221 1.59318 -3.30172 0
M  V30 3044 H 278.869 4.04885 -2.98458 0
M  V30 3045 H 278.569 3.56344 -4.67218 0
M  V30 3046 H 280.093 4.39112 -4.2428 0
M  V30 3047 H 281.507 2.34593 -5.23105 0
M  V30 3048 H 279.904 1.74229 -5.74251 0
M  V30 3049 H 280.974 0.689007 -4.7998 0
M  V30 3050 N 282.317 1.53212 0.369288 0
M  V30 3051 C 283.28 1.7872 1.43498 0
M  V30 3052 C 284.28 0.657554 1.46741 0
M  V30 3053 O 285.47 0.925736 1.47566 0
M  V30 3054 C 282.602 1.90591 2.82645 0
M  V30 3055 H 283.795 2.73894 1.22156 0
M  V30 3056 H 281.348 1.44233 0.602203 0
M  V30 3057 H 282.083 0.974709 3.09306 0
M  V30 3058 H 281.868 2.72751 2.8169 0
M  V30 3059 H 283.358 2.11931 3.59826 0
M  V30 3060 N 283.795 -0.628877 1.44509 0
M  V30 3061 C 285.023 -1.41554 1.50897 0
M  V30 3062 C 285.438 -1.8832 0.134564 0
M  V30 3063 O 284.795 -1.60969 -0.859965 0
M  V30 3064 C 284.846 -2.63435 2.47556 0
M  V30 3065 O 284.567 -2.18619 3.79654 0
M  V30 3066 C 286.068 -3.56537 2.63431 0
M  V30 3067 H 283.288 -0.434044 0.511709 0
M  V30 3068 H 285.832 -0.768895 1.89495 0
M  V30 3069 H 283.987 -3.24187 2.12089 0
M  V30 3070 H 284.401 -2.97652 4.31861 0
M  V30 3071 H 285.875 -4.38657 3.35088 0
M  V30 3072 H 286.352 -4.05493 1.68738 0
M  V30 3073 H 286.958 -3.01653 2.9981 0
M  V30 3074 N 285.273 -1.31445 -0.869486 0
M  V30 3075 C 286.236 -1.19094 -1.9583 0
M  V30 3076 C 287.236 -0.117906 -1.60367 0
M  V30 3077 O 288.426 -0.367208 -1.70286 0
M  V30 3078 C 285.558 -0.828165 -3.30688 0
M  V30 3079 H 286.751 -2.15842 -2.08212 0
M  V30 3080 H 284.304 -1.15063 -1.05784 0
M  V30 3081 H 285.039 0.138142 -3.24006 0
M  V30 3082 H 284.824 -1.6038 -3.578 0
M  V30 3083 H 286.314 -0.765658 -4.10521 0
M  V30 3084 N 286.751 1.08385 -1.14413 0
M  V30 3085 C 288 1.80153 -0.907076 0
M  V30 3086 C 288.313 1.87176 0.567851 0
M  V30 3087 O 289.519 2.55359 0.922172 0
M  V30 3088 C 287.975 3.23687 -1.57336 0
M  V30 3089 C 287.583 3.24897 -3.08457 0
M  V30 3090 C 289.327 4.00136 -1.41744 0
M  V30 3091 C 287.234 4.6302 -3.67921 0
M  V30 3092 H 286.164 0.675139 -0.335714 0
M  V30 3093 H 288.815 1.21733 -1.37307 0
M  V30 3094 H 287.197 3.82234 -1.03505 0
M  V30 3095 H 288.371 2.76055 -3.68958 0
M  V30 3096 H 286.686 2.61943 -3.2369 0
M  V30 3097 H 289.283 5.02201 -1.83572 0
M  V30 3098 H 289.626 4.14709 -0.363576 0
M  V30 3099 H 290.159 3.48058 -1.92614 0
M  V30 3100 H 286.898 4.5365 -4.73161 0
M  V30 3101 H 286.418 5.12143 -3.12201 0
M  V30 3102 H 288.097 5.31994 -3.68227 0
M  V30 3103 N 288.23 0.939286 1.26551 0
M  V30 3104 C 289.162 0.404704 2.25599 0
M  V30 3105 C 290.175 -0.470983 1.55838 0
M  V30 3106 O 291.364 -0.281734 1.76263 0
M  V30 3107 C 288.464 -0.43764 3.36062 0
M  V30 3108 C 287.637 0.421449 4.35365 0
M  V30 3109 C 286.696 -0.36015 5.24966 0
M  V30 3110 O 285.722 0.236167 5.6871 0
M  V30 3111 N 286.924 -1.65715 5.56344 0
M  V30 3112 H 289.689 1.25618 2.72103 0
M  V30 3113 H 287.25 0.807963 1.40298 0
M  V30 3114 H 289.242 -0.967866 3.92956 0
M  V30 3115 H 287.812 -1.18991 2.89067 0
M  V30 3116 H 287.032 1.1329 3.7757 0
M  V30 3117 H 288.32 1.00835 4.98708 0
M  V30 3118 H 287.718 -2.16378 5.22682 0
M  V30 3119 H 286.275 -2.13366 6.15888 0
M  V30 3120 N 289.708 -1.40897 0.706093 0
M  V30 3121 C 290.618 -2.3455 0.0482286 0
M  V30 3122 C 291.634 -1.56796 -0.754396 0
M  V30 3123 O 292.81 -1.89228 -0.689538 0
M  V30 3124 C 289.875 -3.35625 -0.869303 0
M  V30 3125 C 288.936 -4.29261 -0.0576994 0
M  V30 3126 C 288.169 -5.25508 -0.931531 0
M  V30 3127 O 288.392 -5.27472 -2.17092 0
M  V30 3128 O 287.326 -6.00727 -0.375587 0
M  V30 3129 H 291.152 -2.92407 0.820476 0
M  V30 3130 H 288.737 -1.4193 0.4665 0
M  V30 3131 H 290.619 -3.97635 -1.39514 0
M  V30 3132 H 289.294 -2.80196 -1.62086 0
M  V30 3133 H 288.201 -3.70566 0.512988 0
M  V30 3134 H 289.534 -4.87817 0.655426 0
M  V30 3135 N 291.186 -0.45159 -1.50991 0
M  V30 3136 C 292.096 0.358431 -2.31846 0
M  V30 3137 C 293.112 1.01438 -1.41373 0
M  V30 3138 O 294.288 1.00663 -1.74439 0
M  V30 3139 C 291.353 1.43704 -3.15515 0
M  V30 3140 C 290.414 0.799742 -4.21785 0
M  V30 3141 C 289.647 1.82696 -5.01456 0
M  V30 3142 O 289.87 3.05105 -4.81941 0
M  V30 3143 O 288.804 1.40958 -5.85162 0
M  V30 3144 H 292.63 -0.302032 -3.02194 0
M  V30 3145 H 290.215 -0.213825 -1.47862 0
M  V30 3146 H 292.097 2.06227 -3.67489 0
M  V30 3147 H 290.772 2.08133 -2.47916 0
M  V30 3148 H 289.679 0.136084 -3.73852 0
M  V30 3149 H 291.012 0.198718 -4.91799 0
M  V30 3150 N 292.664 1.56529 -0.183458 0
M  V30 3151 C 293.594 2.21549 0.737456 0
M  V30 3152 C 294.575 1.17489 1.23005 0
M  V30 3153 O 295.76 1.45959 1.281 0
M  V30 3154 C 292.89 2.86575 1.96194 0
M  V30 3155 C 291.844 3.96778 1.60473 0
M  V30 3156 C 291.17 4.48911 2.90487 0
M  V30 3157 C 292.47 5.15767 0.823497 0
M  V30 3158 H 294.164 2.98761 0.195453 0
M  V30 3159 H 291.71 1.43702 0.0925686 0
M  V30 3160 H 293.663 3.30739 2.61131 0
M  V30 3161 H 292.387 2.06749 2.52828 0
M  V30 3162 H 291.046 3.53286 0.978997 0
M  V30 3163 H 290.694 3.65862 3.45186 0
M  V30 3164 H 290.394 5.23265 2.67335 0
M  V30 3165 H 291.918 4.95771 3.56432 0
M  V30 3166 H 293.332 5.56549 1.37571 0
M  V30 3167 H 291.729 5.96114 0.690551 0
M  V30 3168 H 292.799 4.84574 -0.177782 0
M  V30 3169 N 294.142 -0.090211 1.57342 0
M  V30 3170 C 295.052 -1.12735 2.05738 0
M  V30 3171 C 296.068 -1.43557 0.983231 0
M  V30 3172 O 297.244 -1.54101 1.29672 0
M  V30 3173 C 294.309 -2.42659 2.47624 0
M  V30 3174 C 293.37 -2.18975 3.69254 0
M  V30 3175 C 292.603 -3.42704 4.09133 0
M  V30 3176 O 292.826 -4.51127 3.49057 0
M  V30 3177 O 291.76 -3.32003 5.02053 0
M  V30 3178 H 295.586 -0.746279 2.94388 0
M  V30 3179 H 293.171 -0.303064 1.46294 0
M  V30 3180 H 295.053 -3.19155 2.7517 0
M  V30 3181 H 293.728 -2.80182 1.62109 0
M  V30 3182 H 292.635 -1.40244 3.46818 0
M  V30 3183 H 293.968 -1.86342 4.55563 0
M  V30 3184 N 295.62 -1.53406 -0.361157 0
M  V30 3185 C 296.567 -1.80156 -1.44265 0
M  V30 3186 C 297.537 -0.646183 -1.53015 0
M  V30 3187 O 298.722 -0.888818 -1.68833 0
M  V30 3188 C 295.862 -2.00116 -2.81154 0
M  V30 3189 C 294.975 -3.27833 -2.81335 0
M  V30 3190 C 294.11 -3.37957 -4.09828 0
M  V30 3191 C 293.149 -4.59689 -4.04168 0
M  V30 3192 N 292.286 -4.66942 -5.24318 0
M  V30 3193 H 297.126 -2.72438 -1.20754 0
M  V30 3194 H 294.663 -1.34954 -0.585296 0
M  V30 3195 H 296.621 -2.09677 -3.60682 0
M  V30 3196 H 295.251 -1.11167 -3.03054 0
M  V30 3197 H 294.303 -3.27204 -1.94014 0
M  V30 3198 H 295.615 -4.17442 -2.73027 0
M  V30 3199 H 294.769 -3.46853 -4.97773 0
M  V30 3200 H 293.508 -2.46372 -4.20894 0
M  V30 3201 H 292.513 -4.50889 -3.14609 0
M  V30 3202 H 293.738 -5.5262 -3.947 0
M  V30 3203 H 291.684 -3.7826 -5.35962 0
M  V30 3204 H 291.601 -5.50462 -5.18197 0
M  V30 3205 H 292.869 -4.80127 -6.14084 0
M  V30 3206 N 297.098 0.621204 -1.44841 0
M  V30 3207 C 298.346 1.37783 -1.47852 0
M  V30 3208 C 298.667 1.94653 -0.116224 0
M  V30 3209 O 297.937 1.76367 0.852737 0
M  V30 3210 H 296.517 0.511453 -0.544449 0
M  V30 3211 H 299.179 0.730446 -1.80694 0
M  V30 3212 H 298.275 2.20414 -2.20961 0
M  V30 3213 N 298.576 1.31904 0.862503 0
M  V30 3214 C 299.804 1.24998 1.64873 0
M  V30 3215 C 300.219 -0.183425 1.87907 0
M  V30 3216 O 299.576 -1.11794 1.44251 0
M  V30 3217 C 299.627 1.99829 3.01248 0
M  V30 3218 O 299.348 3.37575 2.79239 0
M  V30 3219 C 300.849 1.99852 3.95694 0
M  V30 3220 H 298.069 0.431599 0.513773 0
M  V30 3221 H 300.613 1.73901 1.07604 0
M  V30 3222 H 298.768 1.54668 3.55185 0
M  V30 3223 H 299.182 3.75776 3.65914 0
M  V30 3224 H 300.656 2.56709 4.88676 0
M  V30 3225 H 301.133 0.982852 4.28062 0
M  V30 3226 H 301.739 2.44926 3.47694 0
M  V30 3227 N 300.054 -1.07777 1.14986 0
M  V30 3228 C 301.465 -1.61766 0.932127 0
M  V30 3229 C 301.816 -1.88974 -0.527581 0
M  V30 3230 O 300.941 -1.65198 -1.39781 0
M  V30 3231 C 301.536 -2.93891 1.68563 0
M  V30 3232 C 300.095 -3.44639 1.5133 0
M  V30 3233 C 299.242 -2.18767 1.704 0
M  V30 3234 H 302.193 -0.909201 1.30074 0
M  V30 3235 H 302.214 -3.62623 1.15259 0
M  V30 3236 H 301.726 -2.74057 2.74799 0
M  V30 3237 H 299.827 -3.69564 0.474702 0
M  V30 3238 H 299.94 -4.20966 2.28746 0
M  V30 3239 H 298.304 -2.28253 1.13016 0
M  V30 3240 H 299.087 -2.01433 2.77992 0
M  V30 3241 N 301.532 -0.945985 -1.26051 0
M  V30 3242 C 302.442 -0.465633 -2.29933 0
M  V30 3243 C 303.458 0.462761 -1.67733 0
M  V30 3244 O 304.634 0.341118 -1.9849 0
M  V30 3245 C 301.699 0.256994 -3.45746 0
M  V30 3246 C 300.76 -0.708549 -4.23412 0
M  V30 3247 C 299.993 -0.0203135 -5.33696 0
M  V30 3248 O 300.216 1.19571 -5.57726 0
M  V30 3249 O 299.15 -0.701459 -5.97799 0
M  V30 3250 H 302.976 -1.32866 -2.73094 0
M  V30 3251 H 300.561 -0.712071 -1.31339 0
M  V30 3252 H 302.443 0.663852 -4.16138 0
M  V30 3253 H 301.118 1.09533 -3.04605 0
M  V30 3254 H 300.025 -1.16545 -3.55483 0
M  V30 3255 H 301.358 -1.51465 -4.68315 0
M  V30 3256 N 303.011 1.40521 -0.713556 0
M  V30 3257 C 304.422 1.83853 -0.324807 0
M  V30 3258 C 304.773 1.59667 1.14021 0
M  V30 3259 O 303.898 1.07649 1.87725 0
M  V30 3260 C 304.493 3.33751 -0.582746 0
M  V30 3261 C 303.052 3.75584 -0.247727 0
M  V30 3262 C 302.199 2.63753 -0.856121 0
M  V30 3263 H 305.15 1.29817 -0.91286 0
M  V30 3264 H 305.171 3.80194 0.152682 0
M  V30 3265 H 304.683 3.51322 -1.64908 0
M  V30 3266 H 302.784 3.63608 0.813624 0
M  V30 3267 H 302.897 4.7373 -0.715307 0
M  V30 3268 H 301.261 2.53108 -0.28432 0
M  V30 3269 H 302.044 2.84137 -1.92668 0
M  V30 3270 N 304.489 0.459591 1.5075 0
M  V30 3271 C 305.737 -0.0991532 2.01857 0
M  V30 3272 C 306.058 -1.41247 1.34441 0
M  V30 3273 O 305.328 -1.89775 0.486022 0
M  V30 3274 H 303.908 -0.039633 0.745948 0
M  V30 3275 H 306.57 0.607387 1.85194 0
M  V30 3276 H 305.666 -0.258998 3.11023 0
M  V30 3277 N 305.967 -1.56429 0.191757 0
M  V30 3278 C 307.378 -1.83912 -0.321428 0
M  V30 3279 C 307.729 -1.11231 -1.61623 0
M  V30 3280 O 306.854 -0.37202 -2.13178 0
M  V30 3281 C 307.449 -3.33624 -0.589961 0
M  V30 3282 C 306.008 -3.6153 -1.04753 0
M  V30 3283 C 305.155 -2.7714 -0.0943327 0
M  V30 3284 H 308.106 -1.53161 0.415612 0
M  V30 3285 H 308.127 -3.52213 -1.43966 0
M  V30 3286 H 307.639 -3.86495 0.352588 0
M  V30 3287 H 305.74 -3.14089 -2.00447 0
M  V30 3288 H 305.853 -4.69737 -0.942549 0
M  V30 3289 H 304.217 -2.47638 -0.595589 0
M  V30 3290 H 305 -3.32799 0.842601 0
M  V30 3291 N 307.445 0.0818655 -1.57387 0
M  V30 3292 C 308.375 1.09885 -2.06028 0
M  V30 3293 C 309.356 1.4098 -0.951774 0
M  V30 3294 O 310.541 1.50781 -1.22387 0
M  V30 3295 C 307.671 2.4151 -2.4958 0
M  V30 3296 C 306.625 2.24792 -3.64215 0
M  V30 3297 C 305.951 3.61712 -3.93787 0
M  V30 3298 C 307.251 1.67749 -4.94629 0
M  V30 3299 H 308.945 0.694128 -2.91243 0
M  V30 3300 H 306.491 0.332448 -1.4011 0
M  V30 3301 H 308.444 3.12939 -2.82219 0
M  V30 3302 H 307.168 2.83943 -1.61381 0
M  V30 3303 H 305.827 1.55807 -3.31843 0
M  V30 3304 H 305.475 4.01697 -3.02735 0
M  V30 3305 H 305.175 3.51368 -4.70971 0
M  V30 3306 H 306.699 4.34587 -4.28913 0
M  V30 3307 H 308.113 2.29032 -5.25564 0
M  V30 3308 H 306.51 1.68128 -5.76067 0
M  V30 3309 H 307.58 0.638059 -4.80684 0
M  V30 3310 N 308.923 1.53595 0.353017 0
M  V30 3311 C 309.871 1.81605 1.45335 0
M  V30 3312 C 310.865 0.685923 1.54892 0
M  V30 3313 O 312.071 0.869095 1.57628 0
M  V30 3314 H 308.446 0.575204 0.484401 0
M  V30 3315 H 310.417 2.73679 1.18921 0
M  V30 3316 C 309.166 2.03406 2.81995 0
M  V30 3317 H 308.489 2.89814 2.75405 0
M  V30 3318 H 309.929 2.26975 3.58132 0
M  V30 3319 C 308.388 0.816794 3.26849 0
M  V30 3320 O 308.918 0.0115856 4.01698 0
M  V30 3321 N 307.124 0.636682 2.8354 0
M  V30 3322 H 306.671 1.2931 2.22793 0
M  V30 3323 H 306.629 -0.176336 3.13905 0
M  V30 3324 N 310.401 -0.613514 1.45168 0
M  V30 3325 C 311.364 -1.7065 1.53007 0
M  V30 3326 C 312.364 -1.5548 0.410184 0
M  V30 3327 O 313.554 -1.60656 0.673455 0
M  V30 3328 C 310.686 -3.09875 1.42093 0
M  V30 3329 H 311.879 -1.65068 2.50385 0
M  V30 3330 H 309.432 -0.828728 1.32521 0
M  V30 3331 H 310.167 -3.21039 0.458769 0
M  V30 3332 H 309.952 -3.22293 2.23315 0
M  V30 3333 H 311.442 -3.895 1.50598 0
M  V30 3334 N 311.879 -1.3236 -0.855495 0
M  V30 3335 C 313.125 -1.23054 -1.612 0
M  V30 3336 C 313.458 0.207404 -1.93089 0
M  V30 3337 O 312.733 1.14432 -1.57275 0
M  V30 3338 C 313.016 -2.08937 -2.93287 0
M  V30 3339 C 312.869 -3.61105 -2.68185 0
M  V30 3340 C 314.188 -1.94986 -3.94549 0
M  V30 3341 H 311.307 -0.448364 -0.584926 0
M  V30 3342 H 313.949 -1.62297 -0.987917 0
M  V30 3343 H 312.099 -1.75599 -3.46551 0
M  V30 3344 H 313.771 -4.04652 -2.21483 0
M  V30 3345 H 312.014 -3.83813 -2.02164 0
M  V30 3346 H 312.685 -4.16522 -3.62234 0
M  V30 3347 H 315.161 -2.24189 -3.5054 0
M  V30 3348 H 314.037 -2.57356 -4.84829 0
M  V30 3349 H 314.298 -0.917263 -4.3248 0
M  V30 3350 N 313.357 1.07166 -1.15556 0
M  V30 3351 C 314.634 1.76546 -0.842069 0
M  V30 3352 C 315.014 2.00453 0.661939 0
M  V30 3353 O 314.362 1.62452 1.60691 0
M  V30 3354 C 314.572 3.07266 -1.65495 0
M  V30 3355 C 315.92 3.81578 -1.86234 0
M  V30 3356 O 316.944 3.17083 -1.62287 0
M  V30 3357 O 315.803 4.97419 -2.26355 0
M  V30 3358 H 312.897 0.766756 -0.309862 0
M  V30 3359 H 315.443 1.13514 -1.26145 0
M  V30 3360 H 314.215 2.85494 -2.67598 0
M  V30 3361 H 313.838 3.7803 -1.23203 0
M  V30 3362 N 314.835 0.952656 1.25548 0
M  V30 3363 C 315.745 0.47782 2.29682 0
M  V30 3364 C 316.761 -0.453859 1.67977 0
M  V30 3365 O 317.937 -0.330587 1.98668 0
M  V30 3366 C 315.002 -0.238655 3.45878 0
M  V30 3367 C 314.063 0.730994 4.23031 0
M  V30 3368 C 313.296 0.0486165 5.33678 0
M  V30 3369 O 313.519 -1.16612 5.58353 0
M  V30 3370 O 312.453 0.733152 5.97418 0
M  V30 3371 H 316.279 1.34312 2.72386 0
M  V30 3372 H 313.864 0.719026 1.30959 0
M  V30 3373 H 315.746 -0.641774 4.16484 0
M  V30 3374 H 314.421 -1.07916 3.05181 0
M  V30 3375 H 313.328 1.18428 3.5486 0
M  V30 3376 H 314.661 1.53946 4.67506 0
M  V30 3377 N 316.313 -1.40141 0.720998 0
M  V30 3378 C 317.729 -1.54632 0.395113 0
M  V30 3379 C 317.929 -1.69115 -1.09555 0
M  V30 3380 O 316.985 -1.68377 -1.88163 0
M  V30 3381 C 318.298 -2.77177 1.1659 0
M  V30 3382 C 319.846 -2.91 1.15274 0
M  V30 3383 C 320.321 -4.16465 1.90579 0
M  V30 3384 N 321.812 -4.23476 1.87675 0
M  V30 3385 C 322.547 -5.19475 2.42762 0
M  V30 3386 N 322.043 -6.21348 3.06428 0
M  V30 3387 N 323.836 -5.11592 2.32874 0
M  V30 3388 H 315.987 -1.28986 1.68749 0
M  V30 3389 H 318.25 -0.62412 0.713567 0
M  V30 3390 H 317.956 -2.72771 2.22011 0
M  V30 3391 H 317.83 -3.69442 0.76108 0
M  V30 3392 H 320.217 -2.94907 0.106702 0
M  V30 3393 H 320.298 -1.99838 1.59682 0
M  V30 3394 H 319.942 -4.1332 2.95176 0
M  V30 3395 H 319.872 -5.06646 1.43587 0
M  V30 3396 H 322.363 -3.50497 1.41281 0
M  V30 3397 H 322.676 -6.91034 3.45965 0
M  V30 3398 H 321.021 -6.21777 3.10514 0
M  V30 3399 H 324.212 -4.30936 1.82789 0
M  V30 3400 H 324.385 -5.86233 2.76106 0
M  V30 3401 N 317.792 -0.46758 -1.50504 0
M  V30 3402 C 318.742 0.34698 -2.25344 0
M  V30 3403 C 319.726 0.964469 -1.2879 0
M  V30 3404 O 320.918 0.8776 -1.53711 0
M  V30 3405 C 318.047 1.43042 -3.1208 0
M  V30 3406 C 317.133 0.82084 -4.16081 0
M  V30 3407 N 317.524 -0.0567602 -5.05768 0
M  V30 3408 C 315.822 1.08517 -4.32597 0
M  V30 3409 C 316.523 -0.402343 -5.80307 0
M  V30 3410 N 315.499 0.221607 -5.43148 0
M  V30 3411 H 319.301 -0.329129 -2.92051 0
M  V30 3412 H 316.815 -0.281508 -1.59942 0
M  V30 3413 H 318.812 2.02712 -3.64299 0
M  V30 3414 H 317.472 2.10856 -2.46921 0
M  V30 3415 H 318.483 -0.425349 -5.1615 0
M  V30 3416 H 315.16 1.75855 -3.78657 0
M  V30 3417 H 316.55 -1.11834 -6.62528 0
M  V30 3418 N 319.27 1.56325 -0.20005 0
M  V30 3419 C 320.22 2.15939 0.731743 0
M  V30 3420 C 321.204 1.10154 1.17281 0
M  V30 3421 O 322.396 1.36203 1.13038 0
M  V30 3422 C 319.525 2.82614 1.94895 0
M  V30 3423 C 318.611 3.95596 1.52855 0
M  V30 3424 N 319.002 4.99118 0.819418 0
M  V30 3425 C 317.3 4.07288 1.81748 0
M  V30 3426 C 318.001 5.78513 0.608053 0
M  V30 3427 N 316.977 5.31117 1.15828 0
M  V30 3428 H 320.779 2.9334 0.181285 0
M  V30 3429 H 318.293 1.624 -0.000452172 0
M  V30 3430 H 320.29 3.23718 2.62702 0
M  V30 3431 H 318.95 2.06702 2.50408 0
M  V30 3432 H 319.961 5.15723 0.47436 0
M  V30 3433 H 316.638 3.42509 2.38734 0
M  V30 3434 H 318.028 6.71885 0.0451619 0
M  V30 3435 N 320.748 -0.0735177 1.57428 0
M  V30 3436 C 321.973 -0.789787 1.91774 0
M  V30 3437 C 322.398 -1.70413 0.796306 0
M  V30 3438 O 321.756 -1.79555 -0.250961 0
M  V30 3439 C 321.804 -1.5609 3.25067 0
M  V30 3440 O 320.908 -2.67144 3.14178 0
M  V30 3441 H 320.249 -0.215582 0.628029 0
M  V30 3442 H 322.779 -0.0422781 2.04556 0
M  V30 3443 H 322.789 -1.94052 3.58898 0
M  V30 3444 H 321.464 -0.890015 4.06265 0
M  V30 3445 H 320.041 -2.32052 2.91901 0
M  V30 3446 N 322.226 -1.5378 -0.344866 0
M  V30 3447 C 323.472 -1.71216 -1.08687 0
M  V30 3448 C 323.805 -0.473281 -1.88345 0
M  V30 3449 O 323.08 0.52968 -1.87149 0
M  V30 3450 C 323.363 -2.97486 -2.02914 0
M  V30 3451 C 323.216 -4.31579 -1.26727 0
M  V30 3452 C 324.535 -3.19422 -3.0275 0
M  V30 3453 H 321.654 -0.62301 -0.393735 0
M  V30 3454 H 324.296 -1.8645 -0.365563 0
M  V30 3455 H 322.446 -2.84629 -2.64421 0
M  V30 3456 H 324.118 -4.56284 -0.67845 0
M  V30 3457 H 322.361 -4.30049 -0.569273 0
M  V30 3458 H 323.032 -5.16106 -1.95803 0
M  V30 3459 H 325.508 -3.316 -2.51357 0
M  V30 3460 H 324.384 -4.09169 -3.65885 0
M  V30 3461 H 324.645 -2.35656 -3.74057 0
M  V30 3462 N 323.704 0.605807 -1.45491 0
M  V30 3463 C 324.634 1.72709 -1.57143 0
M  V30 3464 C 325.615 1.6476 -0.422884 0
M  V30 3465 O 326.8 1.83132 -0.646247 0
M  V30 3466 C 323.93 3.11316 -1.53948 0
M  V30 3467 C 322.884 3.34077 -2.67537 0
M  V30 3468 C 322.21 4.72975 -2.49397 0
M  V30 3469 C 323.51 3.24158 -4.09535 0
M  V30 3470 H 325.204 1.63214 -2.51001 0
M  V30 3471 H 322.75 0.78379 -1.208 0
M  V30 3472 H 324.703 3.89557 -1.60696 0
M  V30 3473 H 323.427 3.21655 -0.566205 0
M  V30 3474 H 322.086 2.58227 -2.6022 0
M  V30 3475 H 321.734 4.8005 -1.50205 0
M  V30 3476 H 321.434 4.8916 -3.25571 0
M  V30 3477 H 322.958 5.53414 -2.58002 0
M  V30 3478 H 324.372 3.92271 -4.18086 0
M  V30 3479 H 322.769 3.51872 -4.86113 0
M  V30 3480 H 323.839 2.2157 -4.31317 0
M  V30 3481 N 325.182 1.32811 0.848464 0
M  V30 3482 C 326.115 1.16601 1.96162 0
M  V30 3483 C 327.093 0.0638855 1.62474 0
M  V30 3484 O 328.277 0.224348 1.8716 0
M  V30 3485 C 325.404 0.786333 3.29446 0
M  V30 3486 C 324.45 1.89459 3.8211 0
M  V30 3487 S 325.283 3.50395 4.04949 0
M  V30 3488 C 326.439 3.14413 5.41198 0
M  V30 3489 H 326.672 2.10832 2.09612 0
M  V30 3490 H 324.205 1.17543 1.00115 0
M  V30 3491 H 326.163 0.574044 4.06466 0
M  V30 3492 H 324.824 -0.137218 3.138 0
M  V30 3493 H 324.017 1.58207 4.78526 0
M  V30 3494 H 323.619 2.06304 3.11953 0
M  V30 3495 H 325.911 2.64642 6.23675 0
M  V30 3496 H 326.854 4.09874 5.77416 0
M  V30 3497 H 327.262 2.51266 5.05495 0
M  V30 3498 N 326.66 -1.06551 1.16123 0
M  V30 3499 C 327.885 -1.83544 0.965735 0
M  V30 3500 C 328.31 -1.81843 -0.481102 0
M  V30 3501 O 327.668 -1.21732 -1.34354 0
M  V30 3502 C 327.716 -3.28169 1.49457 0
M  V30 3503 O 326.82 -4.0643 0.699157 0
M  V30 3504 H 326.161 -0.568026 0.343864 0
M  V30 3505 H 328.691 -1.34362 1.54299 0
M  V30 3506 H 328.701 -3.78992 1.51092 0
M  V30 3507 H 327.376 -3.28722 2.54784 0
M  V30 3508 H 325.953 -3.65216 0.7531 0
M  V30 3509 N 328.138 -0.959301 -1.25041 0
M  V30 3510 C 329.068 -0.501388 -2.28053 0
M  V30 3511 C 330.049 0.454673 -1.63911 0
M  V30 3512 O 331.234 0.352618 -1.90972 0
M  V30 3513 C 328.364 0.217224 -3.4662 0
M  V30 3514 C 327.318 -0.654034 -4.22973 0
M  V30 3515 C 326.644 0.195589 -5.34342 0
M  V30 3516 C 327.944 -1.93447 -4.85155 0
M  V30 3517 H 329.638 -1.36238 -2.66608 0
M  V30 3518 H 327.184 -0.656534 -1.28163 0
M  V30 3519 H 329.137 0.548732 -4.17812 0
M  V30 3520 H 327.861 1.1125 -3.07068 0
M  V30 3521 H 326.52 -0.968693 -3.5357 0
M  V30 3522 H 326.168 1.09076 -4.91031 0
M  V30 3523 H 325.868 -0.384091 -5.86343 0
M  V30 3524 H 327.392 0.521958 -6.08365 0
M  V30 3525 H 328.806 -1.66908 -5.48466 0
M  V30 3526 H 327.203 -2.46018 -5.47353 0
M  V30 3527 H 328.273 -2.63466 -4.07079 0
M  V30 3528 N 329.616 1.39756 -0.72842 0
M  V30 3529 C 330.546 2.33289 -0.0991354 0
M  V30 3530 C 331.527 1.53568 0.731489 0
M  V30 3531 O 332.712 1.81987 0.677807 0
M  V30 3532 C 329.842 3.3763 0.813834 0
M  V30 3533 C 328.796 4.2791 0.0878663 0
M  V30 3534 C 328.122 5.22894 1.11741 0
M  V30 3535 C 329.422 5.11314 -1.06563 0
M  V30 3536 H 331.116 2.86163 -0.880408 0
M  V30 3537 H 328.662 1.37591 -0.424819 0
M  V30 3538 H 330.615 4.0201 1.26355 0
M  V30 3539 H 329.339 2.83181 1.62715 0
M  V30 3540 H 327.998 3.65 -0.342159 0
M  V30 3541 H 327.646 4.64744 1.92412 0
M  V30 3542 H 327.346 5.84143 0.636477 0
M  V30 3543 H 328.87 5.90151 1.56697 0
M  V30 3544 H 330.284 5.69076 -0.694671 0
M  V30 3545 H 328.681 5.81671 -1.47577 0
M  V30 3546 H 329.751 4.46534 -1.89038 0
M  V30 3547 N 331.094 0.475555 1.50254 0
M  V30 3548 C 332.334 -0.0765802 2.04256 0
M  V30 3549 C 332.698 -1.36587 1.34937 0
M  V30 3550 O 333.899 -2.00066 1.79519 0
M  V30 3551 C 332.17 -0.251668 3.56513 0
M  V30 3552 S 333.729 -0.761716 4.32138 0
M  V30 3553 H 330.547 -0.0138456 0.710865 0
M  V30 3554 H 333.149 0.643714 1.84598 0
M  V30 3555 H 331.853 0.692404 4.04517 0
M  V30 3556 H 331.384 -0.997946 3.80532 0
M  V30 3557 H 333.399 -2.03451 4.52573 0
M  V30 3558 N 332.573 -1.56217 0.208337 0
M  V30 3559 C 333.536 -2.18455 -0.693557 0
M  V30 3560 C 334.536 -1.14268 -1.13135 0
M  V30 3561 O 335.726 -1.39577 -1.0423 0
M  V30 3562 C 332.858 -2.79727 -1.94848 0
M  V30 3563 H 334.051 -2.99519 -0.15114 0
M  V30 3564 H 331.604 -1.56245 -0.041287 0
M  V30 3565 H 332.339 -2.02497 -2.53309 0
M  V30 3566 H 332.124 -3.56009 -1.64316 0
M  V30 3567 H 333.614 -3.27475 -2.59133 0
M  V30 3568 N 334.051 0.0651679 -1.57465 0
M  V30 3569 C 335.001 1.0838 -2.00594 0
M  V30 3570 C 335.985 1.34106 -0.889071 0
M  V30 3571 O 337.177 1.34295 -1.15299 0
M  V30 3572 C 334.306 2.39565 -2.45894 0
M  V30 3573 C 333.392 2.17085 -3.64328 0
M  V30 3574 N 333.783 1.64553 -4.78285 0
M  V30 3575 C 332.081 2.4753 -3.71006 0
M  V30 3576 C 332.782 1.57042 -5.60101 0
M  V30 3577 N 331.758 2.03328 -5.04141 0
M  V30 3578 H 335.56 0.671062 -2.86136 0
M  V30 3579 H 333.074 0.27213 -1.60104 0
M  V30 3580 H 335.071 3.13308 -2.75034 0
M  V30 3581 H 333.731 2.81549 -1.61741 0
M  V30 3582 H 334.742 1.33323 -5.00445 0
M  V30 3583 H 331.419 2.92835 -2.9758 0
M  V30 3584 H 332.809 1.17223 -6.61595 0
M  V30 3585 N 335.529 1.53961 0.336706 0
M  V30 3586 C 336.459 1.85417 1.41925 0
M  V30 3587 C 337.44 0.709856 1.5458 0
M  V30 3588 O 338.625 0.962396 1.68676 0
M  V30 3589 C 335.755 2.06985 2.78881 0
M  V30 3590 C 334.709 3.22813 2.81026 0
M  V30 3591 C 334.035 3.29727 4.20932 0
M  V30 3592 C 335.335 4.60767 2.45949 0
M  V30 3593 H 337.029 2.76079 1.15848 0
M  V30 3594 H 334.575 1.32839 0.555859 0
M  V30 3595 H 336.528 2.27575 3.54665 0
M  V30 3596 H 335.252 1.13061 3.06406 0
M  V30 3597 H 333.911 3.0209 2.07695 0
M  V30 3598 H 333.559 2.33385 4.45579 0
M  V30 3599 H 333.259 4.07566 4.23277 0
M  V30 3600 H 334.783 3.52536 4.98549 0
M  V30 3601 H 336.197 4.81325 3.11446 0
M  V30 3602 H 334.594 5.4106 2.59566 0
M  V30 3603 H 335.664 4.6391 1.41122 0
M  V30 3604 N 337.007 -0.598083 1.45811 0
M  V30 3605 C 338.255 -1.35413 1.50026 0
M  V30 3606 C 338.576 -1.94444 0.147177 0
M  V30 3607 O 337.846 -1.77701 -0.824571 0
M  V30 3608 H 336.426 -0.502727 0.552517 0
M  V30 3609 H 339.088 -0.701606 1.81834 0
M  V30 3610 H 338.184 -2.16871 2.2444 0
M  V30 3611 N 338.485 -1.33259 -0.841409 0
M  V30 3612 C 339.415 -1.25926 -1.96634 0
M  V30 3613 C 340.396 -0.140349 -1.6952 0
M  V30 3614 O 341.581 -0.329707 -1.91381 0
M  V30 3615 C 338.711 -0.99512 -3.32738 0
M  V30 3616 C 337.665 -2.0767 -3.74242 0
M  V30 3617 C 336.991 -1.66474 -5.08125 0
M  V30 3618 C 338.291 -3.49318 -3.88297 0
M  V30 3619 H 339.985 -2.20046 -2.03027 0
M  V30 3620 H 337.531 -1.05931 -0.975425 0
M  V30 3621 H 339.484 -0.930323 -4.11002 0
M  V30 3622 H 338.208 -0.0183004 -3.26595 0
M  V30 3623 H 336.867 -2.13187 -2.98239 0
M  V30 3624 H 336.515 -0.675012 -4.9845 0
M  V30 3625 H 336.215 -2.3885 -5.36865 0
M  V30 3626 H 337.739 -1.61455 -5.88867 0
M  V30 3627 H 339.153 -3.46316 -4.56879 0
M  V30 3628 H 337.55 -4.20158 -4.28471 0
M  V30 3629 H 338.62 -3.8801 -2.9082 0
M  V30 3630 N 339.963 1.05934 -1.16686 0
M  V30 3631 C 341.188 1.83029 -0.975455 0
M  V30 3632 C 341.613 1.82096 0.471452 0
M  V30 3633 O 340.971 1.22443 1.33706 0
M  V30 3634 C 341.019 3.27372 -1.51195 0
M  V30 3635 O 340.123 4.06054 -0.720701 0
M  V30 3636 H 339.464 0.566194 -0.346872 0
M  V30 3637 H 341.994 1.33541 -1.55009 0
M  V30 3638 H 342.004 3.78186 -1.53099 0
M  V30 3639 H 340.679 3.27366 -2.56523 0
M  V30 3640 H 339.256 3.64812 -0.772458 0
M  V30 3641 N 341.441 0.965919 1.2453 0
M  V30 3642 C 342.852 0.665929 1.7442 0
M  V30 3643 C 343.203 -0.818407 1.78316 0
M  V30 3644 O 342.328 -1.64037 1.41141 0
M  V30 3645 C 342.923 1.20211 3.16757 0
M  V30 3646 C 341.482 0.952059 3.6416 0
M  V30 3647 C 340.629 1.33848 2.42858 0
M  V30 3648 H 343.58 1.14144 1.10258 0
M  V30 3649 H 343.601 0.567544 3.76244 0
M  V30 3650 H 343.113 2.28244 3.13889 0
M  V30 3651 H 341.214 -0.112821 3.72429 0
M  V30 3652 H 341.327 1.59645 4.51719 0
M  V30 3653 H 339.691 0.756864 2.43195 0
M  V30 3654 H 340.474 2.42827 2.42673 0
M  V30 3655 N 342.919 -1.39368 0.735821 0
M  V30 3656 C 343.866 -2.30599 0.0963825 0
M  V30 3657 C 344.836 -1.49257 -0.728794 0
M  V30 3658 O 346.021 -1.77941 -0.688588 0
M  V30 3659 C 343.161 -3.35596 -0.804305 0
M  V30 3660 C 342.274 -4.31987 0.0335761 0
M  V30 3661 C 341.409 -5.24053 -0.868461 0
M  V30 3662 C 340.448 -6.12095 -0.0258776 0
M  V30 3663 N 339.585 -6.96514 -0.883893 0
M  V30 3664 H 344.425 -2.8471 0.880002 0
M  V30 3665 H 341.962 -1.40188 0.445619 0
M  V30 3666 H 343.92 -3.95062 -1.34096 0
M  V30 3667 H 342.55 -2.82938 -1.55389 0
M  V30 3668 H 341.602 -3.74133 0.68766 0
M  V30 3669 H 342.914 -4.94074 0.685036 0
M  V30 3670 H 342.068 -5.88549 -1.47293 0
M  V30 3671 H 340.807 -4.62289 -1.5537 0
M  V30 3672 H 339.812 -5.4661 0.591386 0
M  V30 3673 H 341.037 -6.75923 0.656156 0
M  V30 3674 H 338.983 -6.37318 -1.55441 0
M  V30 3675 H 338.9 -7.55448 -0.288931 0
M  V30 3676 H 340.168 -7.65439 -1.4739 0
M  V30 3677 N 344.397 -0.483516 -1.5 0
M  V30 3678 C 345.674 0.129337 -1.95172 0
M  V30 3679 C 346.054 1.55802 -1.4244 0
M  V30 3680 O 345.402 2.19625 -0.630649 0
M  V30 3681 C 345.612 0.0599251 -3.48949 0
M  V30 3682 C 346.96 0.242617 -4.23906 0
M  V30 3683 O 347.984 0.135933 -3.55941 0
M  V30 3684 O 346.843 0.459454 -5.44565 0
M  V30 3685 H 343.937 0.104887 -0.820322 0
M  V30 3686 H 346.483 -0.544807 -1.60717 0
M  V30 3687 H 345.255 -0.937079 -3.79914 0
M  V30 3688 H 344.878 0.774984 -3.89974 0
M  V30 3689 N 345.875 1.56104 -0.216619 0
M  V30 3690 C 347.124 1.97348 0.416744 0
M  V30 3691 C 347.437 1.10715 1.6125 0
M  V30 3692 O 348.643 1.41836 2.31506 0
M  V30 3693 C 347.099 3.51059 0.792835 0
M  V30 3694 C 346.707 4.46387 -0.379828 0
M  V30 3695 C 348.451 4.01026 1.39208 0
M  V30 3696 C 346.358 5.91397 0.0184223 0
M  V30 3697 H 345.288 0.736942 0.159475 0
M  V30 3698 H 347.939 1.80827 -0.31205 0
M  V30 3699 H 346.321 3.63162 1.57891 0
M  V30 3700 H 347.495 4.46029 -1.15737 0
M  V30 3701 H 345.81 4.06734 -0.891979 0
M  V30 3702 H 348.407 5.0686 1.70286 0
M  V30 3703 H 348.75 3.46587 2.30614 0
M  V30 3704 H 349.283 3.92125 0.669537 0
M  V30 3705 H 346.022 6.49807 -0.862002 0
M  V30 3706 H 345.542 5.94961 0.760384 0
M  V30 3707 H 347.221 6.45455 0.446818 0
M  V30 3708 N 347.353 -0.0568162 1.57498 0
M  V30 3709 C 348.599 -0.75422 1.88253 0
M  V30 3710 C 348.932 -1.76461 0.810865 0
M  V30 3711 O 348.207 -1.93691 -0.177259 0
M  V30 3712 C 348.49 -1.44878 3.2967 0
M  V30 3713 C 348.343 -0.453789 4.47505 0
M  V30 3714 C 349.662 -2.38994 3.69554 0
M  V30 3715 H 346.781 -0.272724 0.684683 0
M  V30 3716 H 349.423 -0.0172113 1.89992 0
M  V30 3717 H 347.573 -2.077 3.28318 0
M  V30 3718 H 349.245 0.170371 4.60985 0
M  V30 3719 H 347.488 0.229552 4.33192 0
M  V30 3720 H 348.159 -0.977699 5.43273 0
M  V30 3721 H 350.635 -1.86239 3.72095 0
M  V30 3722 H 349.511 -2.84587 4.69363 0
M  V30 3723 H 349.772 -3.24461 3.00296 0
M  V30 3724 N 348.832 -1.54138 -0.328536 0
M  V30 3725 C 349.742 -1.86192 -1.42723 0
M  V30 3726 C 350.758 -0.753382 -1.56844 0
M  V30 3727 O 351.934 -1.04718 -1.72035 0
M  V30 3728 C 348.999 -2.07824 -2.77507 0
M  V30 3729 C 348.06 -3.31641 -2.72603 0
M  V30 3730 C 347.293 -3.52232 -4.00959 0
M  V30 3731 O 347.516 -2.7636 -4.9898 0
M  V30 3732 O 346.45 -4.45699 -4.0452 0
M  V30 3733 H 350.276 -2.79608 -1.18547 0
M  V30 3734 H 347.861 -1.3998 -0.522104 0
M  V30 3735 H 349.743 -2.23411 -3.57303 0
M  V30 3736 H 348.418 -1.17596 -3.01584 0
M  V30 3737 H 347.325 -3.21444 -1.91376 0
M  V30 3738 H 348.658 -4.2191 -2.53481 0
M  V30 3739 N 350.31 0.590341 -1.46126 0
M  V30 3740 C 351.243 1.71434 -1.50617 0
M  V30 3741 C 352.221 1.58543 -0.360948 0
M  V30 3742 O 353.405 1.79865 -0.563985 0
M  V30 3743 C 350.532 3.09422 -1.37753 0
M  V30 3744 C 349.578 3.40854 -2.5636 0
M  V30 3745 S 350.411 3.33773 -4.18755 0
M  V30 3746 C 351.567 4.74312 -4.08386 0
M  V30 3747 H 351.8 1.67364 -2.45717 0
M  V30 3748 H 349.333 0.76845 -1.33919 0
M  V30 3749 H 351.291 3.8903 -1.31018 0
M  V30 3750 H 349.952 3.10989 -0.440949 0
M  V30 3751 H 349.145 4.41368 -2.43332 0
M  V30 3752 H 348.747 2.68798 -2.60046 0
M  V30 3753 H 351.039 5.64522 -3.74595 0
M  V30 3754 H 351.982 4.92397 -5.08872 0
M  V30 3755 H 352.39 4.50803 -3.3976 0
M  V30 3756 N 351.788 1.33704 0.83433 0
M  V30 3757 C 352.698 1.26382 1.97648 0
M  V30 3758 C 353.714 0.173548 1.73132 0
M  V30 3759 O 354.89 0.397962 1.97429 0
M  V30 3760 C 351.955 1.00769 3.31733 0
M  V30 3761 C 351.016 2.1884 3.69334 0
M  V30 3762 C 350.249 1.9444 4.9702 0
M  V30 3763 O 350.472 0.896961 5.63303 0
M  V30 3764 O 349.406 2.81093 5.32231 0
M  V30 3765 H 353.232 2.22444 2.06767 0
M  V30 3766 H 350.817 1.13795 0.968037 0
M  V30 3767 H 352.699 0.882186 4.12062 0
M  V30 3768 H 351.374 0.0773783 3.23608 0
M  V30 3769 H 350.281 2.36946 2.89495 0
M  V30 3770 H 351.614 3.10221 3.82131 0
M  V30 3771 N 353.266 -1.05314 1.17247 0
M  V30 3772 C 354.196 -2.1498 0.911362 0
M  V30 3773 C 355.177 -1.69471 -0.146169 0
M  V30 3774 O 356.362 -1.942 0.003812 0
M  V30 3775 C 353.492 -3.4472 0.422528 0
M  V30 3776 C 352.446 -4.03789 1.4191 0
M  V30 3777 C 351.772 -5.28858 0.788274 0
M  V30 3778 C 353.072 -4.41418 2.7919 0
M  V30 3779 H 354.766 -2.3708 1.82848 0
M  V30 3780 H 352.312 -1.13938 0.880569 0
M  V30 3781 H 354.265 -4.20787 0.227289 0
M  V30 3782 H 352.989 -3.22269 -0.530123 0
M  V30 3783 H 351.648 -3.2979 1.60106 0
M  V30 3784 H 351.296 -5.02709 -0.171173 0
M  V30 3785 H 350.996 -5.69338 1.45353 0
M  V30 3786 H 352.52 -6.07612 0.603282 0
M  V30 3787 H 353.934 -5.08524 2.64719 0
M  V30 3788 H 352.331 -4.92913 3.42282 0
M  V30 3789 H 353.401 -3.51819 3.33693 0
M  V30 3790 N 354.744 -0.972509 -1.24016 0
M  V30 3791 C 355.984 -0.644951 -1.93958 0
M  V30 3792 C 356.348 0.80559 -1.74282 0
M  V30 3793 O 357.549 1.2436 -2.38302 0
M  V30 3794 C 355.82 -1.01521 -3.42678 0
M  V30 3795 S 357.379 -0.802927 -4.31391 0
M  V30 3796 H 354.197 -0.236452 -0.670531 0
M  V30 3797 H 356.799 -1.25048 -1.50277 0
M  V30 3798 H 355.503 -2.06769 -3.54506 0
M  V30 3799 H 355.034 -0.400648 -3.91355 0
M  V30 3800 H 357.049 0.317256 -4.95185 0
M  V30 3801 N 356.222 1.38976 -0.743202 0
M  V30 3802 C 357.152 2.33171 -0.123873 0
M  V30 3803 C 358.133 1.54336 0.71516 0
M  V30 3804 O 359.318 1.82696 0.658467 0
M  V30 3805 C 356.448 3.38474 0.777978 0
M  V30 3806 C 355.402 4.27979 0.0424758 0
M  V30 3807 C 354.728 5.2405 1.06189 0
M  V30 3808 C 356.028 5.10155 -1.1198 0
M  V30 3809 H 357.722 2.85213 -0.910709 0
M  V30 3810 H 355.268 1.37133 -0.439388 0
M  V30 3811 H 357.221 4.03328 1.22084 0
M  V30 3812 H 355.945 2.84891 1.59702 0
M  V30 3813 H 354.604 3.64616 -0.380853 0
M  V30 3814 H 354.252 4.66758 1.87472 0
M  V30 3815 H 353.952 5.84785 0.574485 0
M  V30 3816 H 355.476 5.9178 1.50428 0
M  V30 3817 H 356.89 5.68307 -0.75499 0
M  V30 3818 H 355.287 5.80073 -1.53738 0
M  V30 3819 H 356.357 4.44504 -1.93764 0
M  V30 3820 N 357.7 0.491464 1.49741 0
M  V30 3821 C 358.663 -0.280906 2.27472 0
M  V30 3822 C 359.663 -0.902454 1.33088 0
M  V30 3823 O 360.853 -0.768465 1.56334 0
M  V30 3824 C 357.985 -1.40209 3.10732 0
M  V30 3825 H 359.178 0.401056 2.97206 0
M  V30 3826 H 356.731 0.246131 1.5435 0
M  V30 3827 H 357.466 -2.11849 2.45541 0
M  V30 3828 H 357.251 -0.961969 3.80117 0
M  V30 3829 H 358.741 -1.9464 3.69466 0
M  V30 3830 N 359.178 -1.55987 0.224894 0
M  V30 3831 C 360.455 -1.90232 -0.455083 0
M  V30 3832 C 360.835 -1.14269 -1.77499 0
M  V30 3833 O 360.183 -0.253079 -2.27094 0
M  V30 3834 C 360.393 -3.42993 -0.644758 0
M  V30 3835 C 361.741 -4.13821 -0.950669 0
M  V30 3836 O 362.765 -3.4861 -0.731423 0
M  V30 3837 O 361.624 -5.29128 -1.36695 0
M  V30 3838 H 358.718 -0.79108 -0.241084 0
M  V30 3839 H 361.264 -1.67581 0.267327 0
M  V30 3840 H 360.036 -3.90252 0.28613 0
M  V30 3841 H 359.659 -3.71434 -1.41853 0
M  V30 3842 N 360.656 0.0484629 -1.57525 0
M  V30 3843 C 361.884 0.755421 -1.92616 0
M  V30 3844 C 362.299 1.69919 -0.822984 0
M  V30 3845 O 361.656 1.81378 0.202085 0
M  V30 3846 C 361.707 1.52915 -3.27566 0
M  V30 3847 O 361.428 0.62329 -4.33644 0
M  V30 3848 C 362.929 2.33502 -3.76818 0
M  V30 3849 H 360.149 0.213465 -0.63614 0
M  V30 3850 H 362.693 0.0117698 -2.04497 0
M  V30 3851 H 360.848 2.22486 -3.17142 0
M  V30 3852 H 361.262 1.16383 -5.11425 0
M  V30 3853 H 362.736 2.83214 -4.73808 0
M  V30 3854 H 363.213 3.14068 -3.07014 0
M  V30 3855 H 363.819 1.69043 -3.90262 0
M  V30 3856 N 362.134 1.5431 0.320358 0
M  V30 3857 C 363.066 1.80262 1.41556 0
M  V30 3858 C 364.079 0.684723 1.477 0
M  V30 3859 O 365.268 0.961886 1.50366 0
M  V30 3860 C 362.368 1.90825 2.8007 0
M  V30 3861 C 361.541 3.21023 2.97091 0
M  V30 3862 C 360.6 3.22247 4.15985 0
M  V30 3863 O 359.626 3.95871 4.08992 0
M  V30 3864 N 360.828 2.46258 5.25678 0
M  V30 3865 H 363.593 2.74778 1.19655 0
M  V30 3866 H 361.154 1.53646 0.510358 0
M  V30 3867 H 363.146 1.89067 3.57821 0
M  V30 3868 H 361.716 1.03392 2.95006 0
M  V30 3869 H 360.936 3.35715 2.06614 0
M  V30 3870 H 362.224 4.0698 3.05361 0
M  V30 3871 H 361.622 1.86037 5.34235 0
M  V30 3872 H 360.179 2.50275 6.01835 0
M  V30 3873 N 363.613 -0.582584 1.46437 0
M  V30 3874 C 365.024 -1.1647 1.45916 0
M  V30 3875 C 365.375 -1.95177 0.200077 0
M  V30 3876 O 364.5 -2.04874 -0.696819 0
M  V30 3877 C 365.095 -2.11885 2.64367 0
M  V30 3878 C 363.654 -2.65421 2.66887 0
M  V30 3879 C 362.801 -1.41294 2.38603 0
M  V30 3880 H 365.752 -0.370514 1.54314 0
M  V30 3881 H 365.773 -2.9535 2.39892 0
M  V30 3882 H 365.285 -1.54573 3.5599 0
M  V30 3883 H 363.386 -3.26602 1.79338 0
M  V30 3884 H 363.499 -3.08147 3.66854 0
M  V30 3885 H 361.863 -1.71109 1.88663 0
M  V30 3886 H 362.646 -0.858125 3.32402 0
M  V30 3887 N 365.091 -1.34144 -0.827227 0
M  V30 3888 C 366.054 -1.25264 -1.91942 0
M  V30 3889 C 367.054 -0.168866 -1.59911 0
M  V30 3890 O 368.244 -0.421198 -1.69031 0
M  V30 3891 C 365.376 -0.932952 -3.27885 0
M  V30 3892 H 366.569 -2.22357 -2.0124 0
M  V30 3893 H 364.122 -1.1837 -1.0207 0
M  V30 3894 H 364.857 0.0349917 -3.24281 0
M  V30 3895 H 364.642 -1.71682 -3.52516 0
M  V30 3896 H 366.132 -0.895874 -4.07877 0
M  V30 3897 N 366.569 1.04691 -1.17803 0
M  V30 3898 C 367.815 1.78045 -0.970969 0
M  V30 3899 C 368.148 1.87686 0.498751 0
M  V30 3900 O 367.423 1.38035 1.37027 0
M  V30 3901 C 367.706 3.2166 -1.61884 0
M  V30 3902 C 367.559 3.20001 -3.161 0
M  V30 3903 C 368.878 4.1962 -1.3269 0
M  V30 3904 H 365.997 0.64633 -0.354155 0
M  V30 3905 H 368.639 1.22333 -1.45378 0
M  V30 3906 H 366.789 3.69232 -1.20831 0
M  V30 3907 H 368.461 2.80467 -3.66246 0
M  V30 3908 H 366.704 2.58203 -3.48588 0
M  V30 3909 H 367.375 4.21386 -3.56564 0
M  V30 3910 H 369.851 3.80567 -1.68249 0
M  V30 3911 H 368.727 5.18339 -1.80599 0
M  V30 3912 H 368.988 4.414 -0.248622 0
M  V30 3913 N 368.047 0.979072 1.23499 0
M  V30 3914 C 368.977 0.537606 2.27227 0
M  V30 3915 C 369.958 -0.428539 1.64613 0
M  V30 3916 O 371.143 -0.322191 1.91509 0
M  V30 3917 C 368.273 -0.162052 3.46922 0
M  V30 3918 C 367.227 0.721242 4.21879 0
M  V30 3919 C 366.553 -0.110555 5.34586 0
M  V30 3920 C 367.853 2.01141 4.82016 0
M  V30 3921 H 369.547 1.40462 2.64406 0
M  V30 3922 H 367.093 0.67684 1.27102 0
M  V30 3923 H 369.046 -0.482192 4.18632 0
M  V30 3924 H 367.77 -1.06351 3.08799 0
M  V30 3925 H 366.429 1.02482 3.51984 0
M  V30 3926 H 366.077 -1.0125 4.92704 0
M  V30 3927 H 365.777 0.477325 5.85658 0
M  V30 3928 H 367.301 -0.425107 6.09118 0
M  V30 3929 H 368.715 1.75612 5.45741 0
M  V30 3930 H 367.112 2.54695 5.43369 0
M  V30 3931 H 368.182 2.69909 4.02836 0
M  V30 3932 N 369.525 -1.3858 0.750561 0
M  V30 3933 C 370.773 -1.99789 0.30477 0
M  V30 3934 C 371.094 -1.59874 -1.11649 0
M  V30 3935 O 370.364 -0.85417 -1.76297 0
M  V30 3936 H 368.944 -0.738902 0.109694 0
M  V30 3937 H 371.606 -1.69391 0.963983 0
M  V30 3938 H 370.702 -3.09952 0.365499 0
M  V30 3939 N 371.003 -0.499398 -1.49478 0
M  V30 3940 C 372.251 0.0455996 -2.02049 0
M  V30 3941 C 372.572 1.37633 -1.38138 0
M  V30 3942 O 371.842 1.8842 -0.536166 0
M  V30 3943 H 370.422 0.0198416 -0.746736 0
M  V30 3944 H 373.084 -0.656274 -1.83519 0
M  V30 3945 H 372.18 0.176445 -3.11601 0
M  V30 3946 N 372.481 1.55866 -0.233164 0
M  V30 3947 C 373.444 2.1953 0.658715 0
M  V30 3948 C 374.444 1.16053 1.11303 0
M  V30 3949 O 375.634 1.41218 1.01996 0
M  V30 3950 C 372.766 2.82791 1.90373 0
M  V30 3951 H 373.959 2.99721 0.10347 0
M  V30 3952 H 371.512 1.56291 0.0164245 0
M  V30 3953 H 372.247 2.06501 2.50056 0
M  V30 3954 H 372.032 3.58578 1.58632 0
M  V30 3955 H 373.522 3.31556 2.53891 0
M  V30 3956 N 373.959 -0.0401083 1.57549 0
M  V30 3957 C 375.189 -0.744115 1.92734 0
M  V30 3958 C 375.597 -1.70005 0.830348 0
M  V30 3959 O 374.94 -1.82576 -0.20286 0
M  V30 3960 C 375.002 -1.56516 3.2364 0
M  V30 3961 C 374.666 -0.7752 4.50377 0
M  V30 3962 C 375.663 -0.0803326 5.19838 0
M  V30 3963 C 373.348 -0.733002 4.96923 0
M  V30 3964 C 375.342 0.646154 6.34116 0
M  V30 3965 C 373.029 -0.00276321 6.111 0
M  V30 3966 C 374.027 0.685585 6.7955 0
M  V30 3967 O 373.715 1.40399 7.91545 0
M  V30 3968 H 373.447 -0.214861 0.640945 0
M  V30 3969 H 376.001 -0.00503675 2.05399 0
M  V30 3970 H 374.231 -2.3478 3.07271 0
M  V30 3971 H 375.92 -2.15076 3.44234 0
M  V30 3972 H 376.686 -0.104035 4.84888 0
M  V30 3973 H 372.565 -1.25827 4.43496 0
M  V30 3974 H 376.109 1.18398 6.87479 0
M  V30 3975 H 372.006 0.0229012 6.45496 0
M  V30 3976 H 372.774 1.31653 8.07843 0
M  V30 3977 N 375.437 -1.54477 -0.31217 0
M  V30 3978 C 376.714 -1.63891 -1.06767 0
M  V30 3979 C 377.094 -0.480028 -2.0557 0
M  V30 3980 O 376.442 0.524487 -2.22399 0
M  V30 3981 C 376.652 -3.01402 -1.75948 0
M  V30 3982 C 378 -3.57838 -2.28554 0
M  V30 3983 O 379.024 -3.03782 -1.85998 0
M  V30 3984 O 377.883 -4.52462 -3.06497 0
M  V30 3985 H 374.977 -0.664125 -0.492816 0
M  V30 3986 H 377.523 -1.66823 -0.311149 0
M  V30 3987 H 376.295 -3.77187 -1.04144 0
M  V30 3988 H 375.918 -3.02199 -2.58383 0
M  V30 3989 N 376.915 0.57481 -1.46744 0
M  V30 3990 C 377.825 1.711 -1.60505 0
M  V30 3991 C 378.841 1.67008 -0.488307 0
M  V30 3992 O 380.017 1.86774 -0.753495 0
M  V30 3993 C 377.082 3.07608 -1.59932 0
M  V30 3994 C 376.143 3.22904 -2.82898 0
M  V30 3995 C 375.376 4.529 -2.82343 0
M  V30 3996 O 375.599 5.37278 -1.91542 0
M  V30 3997 O 374.533 4.71611 -3.73987 0
M  V30 3998 H 378.359 1.62436 -2.56609 0
M  V30 3999 H 375.944 0.742779 -1.29627 0
M  V30 4000 H 377.826 3.88877 -1.62336 0
M  V30 4001 H 376.501 3.16692 -0.669898 0
M  V30 4002 H 375.408 2.41099 -2.86046 0
M  V30 4003 H 376.741 3.18715 -3.75076 0
M  V30 4004 N 378.394 1.34581 0.820102 0
M  V30 4005 C 379.641 1.27096 1.57648 0
M  V30 4006 C 379.969 -0.158317 1.93855 0
M  V30 4007 O 379.224 -1.12028 1.60463 0
M  V30 4008 C 379.523 2.10997 2.8847 0
M  V30 4009 C 379.189 3.59966 2.71543 0
M  V30 4010 C 377.851 4.00575 2.66634 0
M  V30 4011 C 380.203 4.54548 2.55021 0
M  V30 4012 C 377.531 5.33953 2.43128 0
M  V30 4013 C 379.883 5.88109 2.33047 0
M  V30 4014 C 378.547 6.27878 2.26552 0
M  V30 4015 H 377.817 0.465078 0.576874 0
M  V30 4016 H 380.464 1.6635 0.948671 0
M  V30 4017 H 378.769 1.6458 3.55557 0
M  V30 4018 H 380.466 2.0255 3.46084 0
M  V30 4019 H 377.056 3.27733 2.76205 0
M  V30 4020 H 381.24 4.24069 2.57835 0
M  V30 4021 H 376.496 5.63781 2.3656 0
M  V30 4022 H 380.67 6.60985 2.19251 0
M  V30 4023 H 378.297 7.31162 2.081 0
M  V30 4024 N 379.872 -1.04064 1.18357 0
M  V30 4025 C 381.121 -1.76662 0.973313 0
M  V30 4026 C 381.434 -1.89154 -0.497991 0
M  V30 4027 O 382.64 -2.58606 -0.826762 0
M  V30 4028 C 381.096 -3.17624 1.69242 0
M  V30 4029 C 380.704 -3.13225 3.20303 0
M  V30 4030 C 382.448 -3.946 1.56497 0
M  V30 4031 C 380.355 -4.49046 3.84853 0
M  V30 4032 H 379.285 -0.662214 0.36054 0
M  V30 4033 H 381.936 -1.16553 1.41731 0
M  V30 4034 H 380.318 -3.78129 1.1762 0
M  V30 4035 H 381.492 -2.62172 3.78949 0
M  V30 4036 H 379.807 -2.49749 3.33189 0
M  V30 4037 H 382.404 -4.95042 2.02084 0
M  V30 4038 H 382.747 -4.13074 0.517243 0
M  V30 4039 H 383.28 -3.4067 2.05399 0
M  V30 4040 H 380.019 -4.35777 4.89672 0
M  V30 4041 H 379.539 -5.00203 3.30994 0
M  V30 4042 H 381.218 -5.17961 3.87718 0
M  V30 4043 N 381.35 -0.985608 -1.22978 0
M  V30 4044 C 382.597 -0.657386 -1.91532 0
M  V30 4045 C 382.925 0.809707 -1.76845 0
M  V30 4046 O 382.18 1.60021 -1.12658 0
M  V30 4047 C 382.479 -1.00014 -3.43121 0
M  V30 4048 C 382.145 -2.4583 -3.77993 0
M  V30 4049 C 380.807 -2.85679 -3.87222 0
M  V30 4050 C 383.159 -3.40378 -3.94705 0
M  V30 4051 C 380.487 -4.19081 -4.10595 0
M  V30 4052 C 382.839 -4.73429 -4.1958 0
M  V30 4053 C 381.503 -5.1303 -4.27032 0
M  V30 4054 H 380.773 -0.240555 -0.700867 0
M  V30 4055 H 383.42 -1.24044 -1.45895 0
M  V30 4056 H 381.725 -0.335072 -3.90365 0
M  V30 4057 H 383.422 -0.724322 -3.94404 0
M  V30 4058 H 380.012 -2.13939 -3.71387 0
M  V30 4059 H 384.196 -3.10766 -3.8696 0
M  V30 4060 H 379.452 -4.49362 -4.14589 0
M  V30 4061 H 383.626 -5.46644 -4.31455 0
M  V30 4062 H 381.253 -6.16418 -4.44896 0
M  V30 4063 N 382.828 1.3818 -0.7579 0
M  V30 4064 C 383.791 2.28764 -0.141286 0
M  V30 4065 C 384.791 1.47388 0.642907 0
M  V30 4066 O 385.981 1.67781 0.468536 0
M  V30 4067 C 383.113 3.31184 0.808069 0
M  V30 4068 H 384.306 2.848 -0.939633 0
M  V30 4069 H 381.859 1.47212 -0.525191 0
M  V30 4070 H 382.594 2.80247 1.63193 0
M  V30 4071 H 382.379 3.91314 0.248104 0
M  V30 4072 H 383.869 3.98909 1.23536 0
M  V30 4073 N 384.306 0.507319 1.49211 0
M  V30 4074 C 385.717 0.0611118 1.866 0
M  V30 4075 C 386.068 -1.35488 1.41907 0
M  V30 4076 O 385.193 -2.0108 0.799726 0
M  V30 4077 C 385.788 0.104125 3.3864 0
M  V30 4078 C 384.347 -0.28677 3.75306 0
M  V30 4079 C 383.494 0.473893 2.73221 0
M  V30 4080 H 386.445 0.719775 1.41439 0
M  V30 4081 H 386.466 -0.689672 3.74198 0
M  V30 4082 H 385.978 1.13482 3.71138 0
M  V30 4083 H 384.079 -1.32046 3.48417 0
M  V30 4084 H 384.192 0.0370745 4.79086 0
M  V30 4085 H 382.556 -0.0770644 2.54583 0
M  V30 4086 H 383.339 1.50478 3.08563 0
M  V30 4087 N 385.784 -1.5574 0.241426 0
M  V30 4088 C 387.2 -1.59196 -0.113548 0
M  V30 4089 C 387.4 -1.25852 -1.57364 0
M  V30 4090 O 386.456 -1.00322 -2.31715 0
M  V30 4091 C 387.769 -2.99814 0.230695 0
M  V30 4092 C 389.317 -3.12513 0.174547 0
M  V30 4093 C 389.792 -4.55342 0.492744 0
M  V30 4094 N 391.283 -4.61076 0.443043 0
M  V30 4095 C 392.018 -5.6956 0.662484 0
M  V30 4096 N 391.514 -6.86328 0.944761 0
M  V30 4097 N 393.307 -5.58957 0.593564 0
M  V30 4098 H 385.458 -1.75685 1.19368 0
M  V30 4099 H 387.721 -0.81756 0.479896 0
M  V30 4100 H 387.427 -3.28932 1.24485 0
M  V30 4101 H 387.301 -3.74568 -0.444833 0
M  V30 4102 H 389.688 -2.83179 -0.830277 0
M  V30 4103 H 389.769 -2.40045 0.883845 0
M  V30 4104 H 389.413 -4.85396 1.4951 0
M  V30 4105 H 389.343 -5.26062 -0.23797 0
M  V30 4106 H 391.834 -3.77179 0.233374 0
M  V30 4107 H 392.147 -7.64935 1.09977 0
M  V30 4108 H 390.492 -6.88025 0.982175 0
M  V30 4109 H 393.683 -4.66611 0.373123 0
M  V30 4110 H 393.856 -6.43433 0.767981 0
M  V30 4111 N 387.262 0.0317525 -1.57568 0
M  V30 4112 C 388.192 1.03274 -2.0942 0
M  V30 4113 C 389.173 1.3788 -0.996143 0
M  V30 4114 O 390.358 1.46811 -1.27122 0
M  V30 4115 C 387.488 2.33448 -2.57137 0
M  V30 4116 C 386.442 2.13091 -3.71182 0
M  V30 4117 C 385.768 3.49001 -4.05095 0
M  V30 4118 C 387.068 1.51928 -4.99715 0
M  V30 4119 H 388.762 0.60112 -2.93303 0
M  V30 4120 H 386.308 0.287705 -1.41097 0
M  V30 4121 H 388.261 3.03802 -2.92032 0
M  V30 4122 H 386.985 2.78665 -1.70333 0
M  V30 4123 H 385.644 1.45171 -3.36632 0
M  V30 4124 H 385.292 3.91862 -3.15362 0
M  V30 4125 H 384.992 3.36207 -4.81911 0
M  V30 4126 H 386.516 4.20721 -4.42522 0
M  V30 4127 H 387.93 2.12196 -5.32584 0
M  V30 4128 H 386.327 1.49716 -5.81124 0
M  V30 4129 H 387.397 0.484811 -4.8247 0
M  V30 4130 N 388.74 1.54641 0.303973 0
M  V30 4131 C 390.017 1.64455 1.05896 0
M  V30 4132 C 390.397 0.490923 2.05312 0
M  V30 4133 O 389.745 -0.512685 2.22674 0
M  V30 4134 C 389.955 3.02331 1.74347 0
M  V30 4135 C 391.303 3.59045 2.26653 0
M  V30 4136 O 392.327 3.04764 1.84384 0
M  V30 4137 O 391.186 4.54081 3.04093 0
M  V30 4138 H 388.28 0.666729 0.489287 0
M  V30 4139 H 390.826 1.66986 0.302298 0
M  V30 4140 H 389.598 3.77734 1.02142 0
M  V30 4141 H 389.221 3.03565 2.56777 0
M  V30 4142 N 390.218 -0.567019 1.47046 0
M  V30 4143 C 391.166 -1.69593 1.59188 0
M  V30 4144 C 392.16 -1.63046 0.459609 0
M  V30 4145 O 393.366 -1.6835 0.637058 0
M  V30 4146 H 389.741 -0.560993 0.500791 0
M  V30 4147 H 391.712 -1.56488 2.54075 0
M  V30 4148 C 390.461 -3.07964 1.61411 0
M  V30 4149 H 389.784 -3.13679 2.47881 0
M  V30 4150 H 391.224 -3.86671 1.73958 0
M  V30 4151 C 389.683 -3.35123 0.34559 0
M  V30 4152 O 390.213 -3.97812 -0.557521 0
M  V30 4153 N 388.419 -2.89699 0.22864 0
M  V30 4154 H 387.966 -2.38863 0.964479 0
M  V30 4155 H 387.924 -3.08242 -0.619192 0
M  V30 4156 N 391.696 -1.35014 -0.812953 0
M  V30 4157 C 392.626 -1.30069 -1.93919 0
M  V30 4158 C 393.607 -0.176275 -1.69184 0
M  V30 4159 O 394.792 -0.370227 -1.90638 0
M  V30 4160 C 391.922 -1.06547 -3.30552 0
M  V30 4161 C 390.876 -2.15561 -3.69753 0
M  V30 4162 C 390.202 -1.77214 -5.04479 0
M  V30 4163 C 391.502 -3.57476 -3.808 0
M  V30 4164 H 393.196 -2.24303 -1.98314 0
M  V30 4165 H 390.742 -1.07977 -0.952736 0
M  V30 4166 H 392.695 -1.01729 -4.08937 0
M  V30 4167 H 391.419 -0.0875719 -3.26483 0
M  V30 4168 H 390.078 -2.19466 -2.9365 0
M  V30 4169 H 389.726 -0.780589 -4.96906 0
M  V30 4170 H 389.426 -2.50184 -5.31678 0
M  V30 4171 H 390.95 -1.7391 -5.8531 0
M  V30 4172 H 392.364 -3.55929 -4.4943 0
M  V30 4173 H 390.761 -4.29152 -4.19462 0
M  V30 4174 H 391.831 -3.94091 -2.82525 0
M  V30 4175 N 393.175 1.03435 -1.18907 0
M  V30 4176 C 394.125 2.09924 -0.889706 0
M  V30 4177 C 395.109 1.60261 0.143216 0
M  V30 4178 O 396.301 1.76892 -0.0617122 0
M  V30 4179 C 393.43 3.40669 -0.424168 0
M  V30 4180 C 392.516 3.97082 -1.48952 0
M  V30 4181 N 392.907 4.27227 -2.70759 0
M  V30 4182 C 391.205 4.25029 -1.35152 0
M  V30 4183 C 391.906 4.7246 -3.39347 0
M  V30 4184 N 390.882 4.7366 -2.66735 0
M  V30 4185 H 394.684 2.31116 -1.81555 0
M  V30 4186 H 392.198 1.21246 -1.08042 0
M  V30 4187 H 394.195 4.16461 -0.191176 0
M  V30 4188 H 392.855 3.20901 0.495263 0
M  V30 4189 H 393.866 4.16678 -3.0757 0
M  V30 4190 H 390.543 4.14554 -0.495126 0
M  V30 4191 H 391.933 5.04751 -4.43481 0
M  V30 4192 N 394.653 0.992116 1.22453 0
M  V30 4193 C 395.878 0.685644 1.95739 0
M  V30 4194 C 396.303 -0.743 1.72804 0
M  V30 4195 O 395.661 -1.50778 1.00676 0
M  V30 4196 C 395.709 0.996293 3.46564 0
M  V30 4197 O 394.813 0.0945512 4.12292 0
M  V30 4198 H 394.154 0.256694 0.612376 0
M  V30 4199 H 396.684 1.32888 1.5557 0
M  V30 4200 H 396.694 0.93781 3.97076 0
M  V30 4201 H 395.369 2.03733 3.62582 0
M  V30 4202 H 393.946 0.208451 3.72317 0
M  V30 4203 N 396.131 -1.37776 0.765217 0
M  V30 4204 C 397.371 -2.01691 0.331669 0
M  V30 4205 C 397.735 -1.59432 -1.06983 0
M  V30 4206 O 398.936 -2.15761 -1.60314 0
M  V30 4207 C 397.207 -3.54385 0.463261 0
M  V30 4208 S 398.766 -4.38652 0.114011 0
M  V30 4209 H 395.584 -0.699387 0.127979 0
M  V30 4210 H 398.186 -1.68084 0.998396 0
M  V30 4211 H 396.89 -3.82629 1.48401 0
M  V30 4212 H 396.421 -3.92783 -0.220246 0
M  V30 4213 H 398.436 -4.84021 -1.09261 0
M  V30 4214 N 397.609 -0.515225 -1.4894 0
M  V30 4215 C 398.856 0.024215 -2.02486 0
M  V30 4216 C 399.184 1.35671 -1.39368 0
M  V30 4217 O 398.439 1.88566 -0.523574 0
M  V30 4218 C 398.738 0.210595 -3.56779 0
M  V30 4219 C 398.404 -1.04569 -4.38607 0
M  V30 4220 C 397.066 -1.39002 -4.60686 0
M  V30 4221 C 399.418 -1.88008 -4.86109 0
M  V30 4222 C 396.746 -2.568 -5.27514 0
M  V30 4223 C 399.098 -3.04972 -5.54234 0
M  V30 4224 C 397.762 -3.39768 -5.74555 0
M  V30 4225 H 397.032 0.00886088 -0.740947 0
M  V30 4226 H 399.679 -0.678263 -1.79086 0
M  V30 4227 H 397.984 0.99572 -3.78936 0
M  V30 4228 H 399.681 0.642659 -3.95817 0
M  V30 4229 H 396.271 -0.767497 -4.21672 0
M  V30 4230 H 400.455 -1.62719 -4.68867 0
M  V30 4231 H 395.711 -2.8398 -5.41447 0
M  V30 4232 H 399.885 -3.69943 -5.90013 0
M  V30 4233 H 397.512 -4.31148 -6.26112 0
M  V30 4234 N 399.087 1.5561 -0.249682 0
M  V30 4235 C 400.327 2.00916 0.37579 0
M  V30 4236 C 400.691 1.13409 1.54927 0
M  V30 4237 O 401.892 1.48183 2.24266 0
M  V30 4238 C 400.163 3.48949 0.772633 0
M  V30 4239 S 401.722 4.16261 1.38824 0
M  V30 4240 H 398.54 0.70112 0.118117 0
M  V30 4241 H 401.142 1.92052 -0.365567 0
M  V30 4242 H 399.846 4.103 -0.090683 0
M  V30 4243 H 399.377 3.61745 1.5461 0
M  V30 4244 H 401.392 4.17778 2.67724 0
M  V30 4245 N 400.565 -0.0233959 1.57583 0
M  V30 4246 C 401.528 -1.00693 2.05897 0
M  V30 4247 C 402.528 -1.28693 0.964092 0
M  V30 4248 O 403.718 -1.23602 1.22753 0
M  V30 4249 C 400.85 -2.33825 2.4807 0
M  V30 4250 H 402.043 -0.589476 2.9405 0
M  V30 4251 H 399.596 -0.270354 1.53944 0
M  V30 4252 H 400.331 -2.80307 1.6309 0
M  V30 4253 H 400.116 -2.1483 3.2801 0
M  V30 4254 H 401.606 -3.04426 2.85857 0
M  V30 4255 N 402.043 -1.548 -0.295768 0
M  V30 4256 C 402.973 -1.89115 -1.36959 0
M  V30 4257 C 403.954 -0.75059 -1.52644 0
M  V30 4258 O 405.139 -1.00678 -1.66065 0
M  V30 4259 C 402.269 -2.14307 -2.73295 0
M  V30 4260 C 401.223 -3.30151 -2.72368 0
M  V30 4261 C 400.549 -3.40772 -4.12042 0
M  V30 4262 C 401.849 -4.67126 -2.33646 0
M  V30 4263 H 403.543 -2.79053 -1.08488 0
M  V30 4264 H 401.089 -1.34266 -0.520443 0
M  V30 4265 H 403.042 -2.36898 -3.48507 0
M  V30 4266 H 401.766 -1.21145 -3.03301 0
M  V30 4267 H 400.425 -3.0749 -1.99613 0
M  V30 4268 H 400.073 -2.45117 -4.39234 0
M  V30 4269 H 399.773 -4.18645 -4.12322 0
M  V30 4270 H 401.297 -3.6563 -4.89027 0
M  V30 4271 H 402.711 -4.89414 -2.98575 0
M  V30 4272 H 401.108 -5.47751 -2.45129 0
M  V30 4273 H 402.178 -4.67489 -1.28772 0
M  V30 4274 N 403.521 0.559213 -1.47345 0
M  V30 4275 C 404.453 1.68161 -1.55738 0
M  V30 4276 C 405.466 1.56636 -0.443744 0
M  V30 4277 O 406.655 1.6363 -0.713258 0
M  V30 4278 C 403.755 3.06611 -1.4437 0
M  V30 4279 C 402.928 3.4391 -2.70268 0
M  V30 4280 C 401.987 4.61515 -2.52765 0
M  V30 4281 O 401.013 4.66197 -3.26572 0
M  V30 4282 N 402.215 5.57883 -1.6046 0
M  V30 4283 H 404.98 1.61408 -2.52522 0
M  V30 4284 H 402.541 0.7458 -1.43699 0
M  V30 4285 H 404.533 3.83117 -1.30398 0
M  V30 4286 H 403.103 3.07602 -0.556766 0
M  V30 4287 H 402.323 2.56873 -2.99015 0
M  V30 4288 H 403.611 3.65605 -3.53851 0
M  V30 4289 H 403.009 5.56855 -0.996422 0
M  V30 4290 H 401.566 6.33723 -1.52441 0
M  V30 4291 N 404.999 1.35443 0.805782 0
M  V30 4292 C 405.962 1.28301 1.89925 0
M  V30 4293 C 406.962 0.194285 1.59622 0
M  V30 4294 O 408.152 0.448036 1.6834 0
M  V30 4295 C 405.284 0.984997 3.2636 0
M  V30 4296 H 406.477 2.2553 1.97677 0
M  V30 4297 H 404.03 1.19979 1.00173 0
M  V30 4298 H 404.765 0.016603 3.24296 0
M  V30 4299 H 404.55 1.77269 3.4974 0
M  V30 4300 H 406.04 0.960651 4.064 0
M  V30 4301 N 406.477 -1.02803 1.19454 0
M  V30 4302 C 407.407 -2.12999 0.956758 0
M  V30 4303 C 408.388 -1.69743 -0.110188 0
M  V30 4304 O 409.573 -1.94148 0.0450038 0
M  V30 4305 C 406.703 -3.43746 0.495553 0
M  V30 4306 C 405.657 -4.00688 1.50443 0
M  V30 4307 C 404.983 -5.27067 0.900275 0
M  V30 4308 C 406.283 -4.35397 2.8849 0
M  V30 4309 H 407.977 -2.33148 1.87836 0
M  V30 4310 H 405.523 -1.12045 0.904539 0
M  V30 4311 H 407.476 -4.2021 0.316493 0
M  V30 4312 H 406.2 -3.23321 -0.461646 0
M  V30 4313 H 404.859 -3.2632 1.67065 0
M  V30 4314 H 404.507 -5.02959 -0.064503 0
M  V30 4315 H 404.207 -5.66127 1.57397 0
M  V30 4316 H 405.731 -6.06196 0.73203 0
M  V30 4317 H 407.145 -5.02795 2.75446 0
M  V30 4318 H 405.542 -4.85541 3.52661 0
M  V30 4319 H 406.612 -3.44662 3.41081 0
M  V30 4320 N 407.956 -0.998596 -1.21925 0
M  V30 4321 C 409.205 -0.673085 -1.90138 0
M  V30 4322 C 409.518 0.79895 -1.78539 0
M  V30 4323 O 410.724 1.23628 -2.4172 0
M  V30 4324 C 409.18 -1.15339 -3.40918 0
M  V30 4325 C 408.788 -2.65106 -3.61141 0
M  V30 4326 C 410.532 -0.902476 -4.14796 0
M  V30 4327 C 408.439 -3.0671 -5.05651 0
M  V30 4328 H 407.369 -0.248057 -0.712028 0
M  V30 4329 H 410.02 -1.20891 -1.38049 0
M  V30 4330 H 408.402 -0.545658 -3.92223 0
M  V30 4331 H 409.576 -3.31274 -3.20304 0
M  V30 4332 H 407.891 -2.88142 -3.00605 0
M  V30 4333 H 410.488 -1.18895 -5.21314 0
M  V30 4334 H 410.831 0.161349 -4.15987 0
M  V30 4335 H 411.364 -1.47269 -3.69536 0
M  V30 4336 H 408.103 -4.12292 -5.09603 0
M  V30 4337 H 407.623 -2.45249 -5.47369 0
M  V30 4338 H 409.302 -2.9833 -5.74115 0
M  V30 4339 N 409.434 1.37368 -0.772513 0
M  V30 4340 C 410.711 1.93839 -0.26188 0
M  V30 4341 C 411.091 1.7061 1.24319 0
M  V30 4342 O 410.439 1.05534 2.02669 0
M  V30 4343 C 410.649 3.43154 -0.636102 0
M  V30 4344 C 411.997 4.20249 -0.606324 0
M  V30 4345 O 413.021 3.5152 -0.575538 0
M  V30 4346 O 411.88 5.42809 -0.634086 0
M  V30 4347 H 408.974 0.82478 -0.0605555 0
M  V30 4348 H 411.52 1.4665 -0.853917 0
M  V30 4349 H 410.292 3.53647 -1.6748 0
M  V30 4350 H 409.915 3.97596 -0.0170516 0
M  V30 4351 N 410.912 0.523116 1.48665 0
M  V30 4352 C 412.137 -0.0117284 2.07397 0
M  V30 4353 C 412.562 -1.28031 1.37803 0
M  V30 4354 O 411.92 -1.75836 0.441762 0
M  V30 4355 C 411.968 -0.225786 3.59892 0
M  V30 4356 O 411.072 -1.29592 3.91509 0
M  V30 4357 H 410.413 0.0360673 0.66302 0
M  V30 4358 H 412.943 0.729066 1.9117 0
M  V30 4359 H 412.953 -0.450552 4.05505 0
M  V30 4360 H 411.628 0.700944 4.09951 0
M  V30 4361 H 410.205 -1.05436 3.57684 0
M  V30 4362 N 412.39 -1.55475 0.257931 0
M  V30 4363 C 413.63 -2.01112 -0.365129 0
M  V30 4364 C 413.994 -1.1423 -1.54323 0
M  V30 4365 O 415.195 -1.49371 -2.23477 0
M  V30 4366 C 413.466 -3.49353 -0.754117 0
M  V30 4367 S 415.025 -4.16992 -1.36614 0
M  V30 4368 H 411.843 -0.701737 -0.114397 0
M  V30 4369 H 414.445 -1.91855 0.375747 0
M  V30 4370 H 413.149 -4.10246 0.112441 0
M  V30 4371 H 412.68 -3.6256 -1.52689 0
M  V30 4372 H 414.695 -4.19191 -2.65505 0
M  V30 4373 N 413.868 0.0150385 -1.57593 0
M  V30 4374 C 414.831 0.995996 -2.06428 0
M  V30 4375 C 415.831 1.2818 -0.970903 0
M  V30 4376 O 417.021 1.22949 -1.23406 0
M  V30 4377 C 414.153 2.32506 -2.49307 0
M  V30 4378 H 415.346 0.573873 -2.94358 0
M  V30 4379 H 412.899 0.262186 -1.54085 0
M  V30 4380 H 413.634 2.79438 -1.64575 0
M  V30 4381 H 413.419 2.13087 -3.29145 0
M  V30 4382 H 414.909 3.02906 -2.87468 0
M  V30 4383 N 415.346 1.54954 0.287554 0
M  V30 4384 C 416.594 1.74528 1.01904 0
M  V30 4385 C 416.915 0.541349 1.87335 0
M  V30 4386 O 416.185 -0.444108 1.908 0
M  V30 4387 H 414.765 0.643576 0.379235 0
M  V30 4388 H 417.427 1.92333 0.315294 0
M  V30 4389 H 416.523 2.64015 1.6644 0
M  V30 4390 N 416.824 -0.551391 1.4764 0
M  V30 4391 C 418.235 -1.13349 1.48354 0
M  V30 4392 C 418.586 -1.94709 0.241432 0
M  V30 4393 O 417.711 -2.06306 -0.653205 0
M  V30 4394 C 418.306 -2.0623 2.68802 0
M  V30 4395 C 416.865 -2.597 2.72457 0
M  V30 4396 C 416.012 -1.36201 2.41546 0
M  V30 4397 H 418.963 -0.337698 1.55065 0
M  V30 4398 H 418.984 -2.90196 2.46103 0
M  V30 4399 H 418.496 -1.46987 3.59188 0
M  V30 4400 H 416.597 -3.22724 1.86225 0
M  V30 4401 H 416.71 -3.00296 3.73308 0
M  V30 4402 H 415.074 -1.67068 1.9225 0
M  V30 4403 H 415.857 -0.787425 3.34147 0
M  V30 4404 N 418.302 -1.35869 -0.798587 0
M  V30 4405 C 419.55 -1.29332 -1.55298 0
M  V30 4406 C 419.871 0.129729 -1.94568 0
M  V30 4407 O 419.141 1.06796 -1.6423 0
M  V30 4408 H 417.721 -0.475737 -0.57592 0
M  V30 4409 H 420.383 -1.70062 -0.952093 0
M  V30 4410 H 419.479 -1.91458 -2.46476 0
M  V30 4411 N 419.78 1.02168 -1.19998 0
M  V30 4412 C 421.005 1.79833 -1.03319 0
M  V30 4413 C 421.43 1.83504 0.413281 0
M  V30 4414 O 420.788 1.26635 1.29743 0
M  V30 4415 C 420.836 3.22396 -1.61533 0
M  V30 4416 O 419.94 4.03555 -0.849519 0
M  V30 4417 H 419.281 0.554872 -0.364709 0
M  V30 4418 H 421.811 1.28542 -1.59179 0
M  V30 4419 H 421.821 3.73124 -1.65054 0
M  V30 4420 H 420.496 3.19039 -2.66809 0
M  V30 4421 H 419.073 3.62169 -0.888129 0
M  V30 4422 N 421.258 1.00505 1.21394 0
M  V30 4423 C 422.188 0.585684 2.26035 0
M  V30 4424 C 423.169 -0.393525 1.65485 0
M  V30 4425 O 424.354 -0.281497 1.92149 0
M  V30 4426 C 421.484 -0.0884283 3.47187 0
M  V30 4427 C 420.438 0.810567 4.20254 0
M  V30 4428 C 419.764 0.00286382 5.347 0
M  V30 4429 C 421.064 2.1132 4.77641 0
M  V30 4430 H 422.758 1.46039 2.61368 0
M  V30 4431 H 420.304 0.703648 1.25638 0
M  V30 4432 H 422.257 -0.393286 4.19561 0
M  V30 4433 H 420.981 -0.997766 3.10986 0
M  V30 4434 H 419.64 1.09925 3.49731 0
M  V30 4435 H 419.288 -0.907765 4.94741 0
M  V30 4436 H 418.988 0.601444 5.84514 0
M  V30 4437 H 420.512 -0.295808 6.09883 0
M  V30 4438 H 421.926 1.87148 5.41893 0
M  V30 4439 H 420.323 2.66164 5.37845 0
M  V30 4440 H 421.393 2.78393 3.9702 0
M  V30 4441 N 422.737 -1.36956 0.779787 0
M  V30 4442 C 423.7 -2.2851 0.177662 0
M  V30 4443 C 424.7 -1.48393 -0.619377 0
M  V30 4444 O 425.89 -1.68505 -0.441785 0
M  V30 4445 C 423.022 -3.32428 -0.755279 0
M  V30 4446 H 424.215 -2.83269 0.984823 0
M  V30 4447 H 421.768 -1.46358 0.548544 0
M  V30 4448 H 422.503 -2.82808 -1.58714 0
M  V30 4449 H 422.288 -3.91659 -0.185817 0
M  V30 4450 H 423.778 -4.00824 -1.17174 0
M  V30 4451 N 424.215 -0.530993 -1.48385 0
M  V30 4452 C 425.443 -0.00134122 -2.069 0
M  V30 4453 C 425.858 1.2805 -1.3874 0
M  V30 4454 O 425.215 1.76204 -0.475244 0
M  V30 4455 C 425.266 0.225256 -3.60798 0
M  V30 4456 O 424.987 -1.0058 -4.26398 0
M  V30 4457 C 426.488 0.795172 -4.3611 0
M  V30 4458 H 423.708 -0.0339704 -0.67014 0
M  V30 4459 H 426.252 -0.736926 -1.90761 0
M  V30 4460 H 424.407 0.910891 -3.76539 0
M  V30 4461 H 424.821 -0.787165 -5.1856 0
M  V30 4462 H 426.295 0.903143 -5.44562 0
M  V30 4463 H 426.772 1.80031 -4.00606 0
M  V30 4464 H 427.378 0.146069 -4.25049 0
M  V30 4465 N 425.693 1.55336 -0.266172 0
M  V30 4466 C 426.603 2.2583 0.635458 0
M  V30 4467 C 427.619 1.28106 1.17749 0
M  V30 4468 O 428.795 1.61024 1.20968 0
M  V30 4469 C 425.86 2.95879 1.80712 0
M  V30 4470 C 424.921 4.09059 1.30265 0
M  V30 4471 C 424.154 4.75759 2.41846 0
M  V30 4472 O 424.377 4.41622 3.61007 0
M  V30 4473 O 423.311 5.63888 2.1051 0
M  V30 4474 H 427.137 3.03631 0.0646693 0
M  V30 4475 H 424.722 1.49361 -0.0339177 0
M  V30 4476 H 426.604 3.39932 2.49047 0
M  V30 4477 H 425.279 2.21002 2.36516 0
M  V30 4478 H 424.186 3.69482 0.586019 0
M  V30 4479 H 425.519 4.85811 0.790458 0
M  V30 4480 N 427.171 -0.0066808 1.57599 0
M  V30 4481 C 428.582 -0.550379 1.78403 0
M  V30 4482 C 428.933 -1.74339 0.900014 0
M  V30 4483 O 428.058 -2.16166 0.100713 0
M  V30 4484 C 428.653 -1.00523 3.23544 0
M  V30 4485 C 427.212 -1.49428 3.45468 0
M  V30 4486 C 426.359 -0.442444 2.73748 0
M  V30 4487 H 429.31 0.219508 1.57175 0
M  V30 4488 H 429.331 -1.87157 3.31289 0
M  V30 4489 H 428.843 -0.136735 3.87859 0
M  V30 4490 H 426.944 -2.3839 2.86358 0
M  V30 4491 H 427.057 -1.52635 4.54136 0
M  V30 4492 H 425.421 -0.902578 2.38171 0
M  V30 4493 H 426.204 0.416973 3.40758 0
M  V30 4494 N 428.649 -1.55105 -0.279332 0
M  V30 4495 C 429.599 -1.83937 -1.34727 0
M  V30 4496 C 430.583 -0.69785 -1.44979 0
M  V30 4497 O 431.775 -0.95904 -1.48766 0
M  V30 4498 C 428.904 -2.1092 -2.70864 0
M  V30 4499 C 427.99 -3.31314 -2.64748 0
M  V30 4500 N 428.381 -4.51371 -2.2825 0
M  V30 4501 C 426.679 -3.33777 -2.95819 0
M  V30 4502 C 427.38 -5.33447 -2.31969 0
M  V30 4503 N 426.356 -4.71697 -2.7019 0
M  V30 4504 H 430.158 -2.74309 -1.05506 0
M  V30 4505 H 427.672 -1.54896 -0.487959 0
M  V30 4506 H 429.669 -2.2973 -3.47893 0
M  V30 4507 H 428.329 -1.21828 -3.00979 0
M  V30 4508 H 429.34 -4.77584 -2.00335 0
M  V30 4509 H 426.017 -2.54858 -3.30687 0
M  V30 4510 H 427.407 -6.39424 -2.06365 0
M  V30 4511 N 430.127 0.543554 -1.4793 0
M  V30 4512 C 431.373 1.30201 -1.55485 0
M  V30 4513 C 431.706 1.92925 -0.222201 0
M  V30 4514 O 430.981 1.78586 0.77053 0
M  V30 4515 C 431.264 2.40174 -2.68307 0
M  V30 4516 C 431.117 1.8223 -4.11233 0
M  V30 4517 C 432.436 3.42024 -2.76961 0
M  V30 4518 H 429.555 0.472036 -0.565996 0
M  V30 4519 H 432.197 0.606914 -1.80046 0
M  V30 4520 H 430.347 2.99463 -2.47495 0
M  V30 4521 H 432.019 1.27096 -4.43446 0
M  V30 4522 H 430.262 1.12832 -4.18869 0
M  V30 4523 H 430.933 2.61793 -4.85972 0
M  V30 4524 H 433.409 2.92672 -2.95774 0
M  V30 4525 H 432.285 4.16383 -3.57654 0
M  V30 4526 H 432.546 4.0173 -1.84568 0
M  V30 4527 N 431.605 1.3629 0.791371 0
M  V30 4528 C 433.021 1.16661 1.08914 0
M  V30 4529 C 433.221 -0.0106266 2.01497 0
M  V30 4530 O 432.277 -0.676596 2.43266 0
M  V30 4531 C 433.59 2.47656 1.70549 0
M  V30 4532 C 435.138 2.54002 1.82899 0
M  V30 4533 C 435.613 3.85078 2.47949 0
M  V30 4534 N 437.104 3.86413 2.5542 0
M  V30 4535 C 437.839 4.84572 3.06557 0
M  V30 4536 N 437.335 5.93124 3.58016 0
M  V30 4537 N 439.128 4.71994 3.05251 0
M  V30 4538 H 431.279 2.11668 0.176238 0
M  V30 4539 H 433.542 0.937486 0.140796 0
M  V30 4540 H 433.248 3.34059 1.09989 0
M  V30 4541 H 433.122 2.63319 2.70079 0
M  V30 4542 H 435.509 1.68018 2.42598 0
M  V30 4543 H 435.59 2.42239 0.821808 0
M  V30 4544 H 435.234 4.71467 1.88895 0
M  V30 4545 H 435.164 3.94135 3.49235 0
M  V30 4546 H 437.655 3.07988 2.18979 0
M  V30 4547 H 437.968 6.63999 3.95381 0
M  V30 4548 H 436.313 5.96796 3.56173 0
M  V30 4549 H 439.504 3.86321 2.64336 0
M  V30 4550 H 439.677 5.48653 3.44796 0
M  V30 4551 N 433.083 -1.0153 1.20538 0
M  V30 4552 C 434.016 -2.09759 0.898695 0
M  V30 4553 C 434.994 -1.61909 -0.149733 0
M  V30 4554 O 436.178 -1.88486 -0.0230293 0
M  V30 4555 C 433.305 -3.36913 0.347512 0
M  V30 4556 C 432.351 -4.03655 1.37713 0
M  V30 4557 S 433.184 -4.47402 2.94265 0
M  V30 4558 C 434.34 -5.77756 2.40726 0
M  V30 4559 H 434.573 -2.3545 1.81523 0
M  V30 4560 H 432.106 -1.14665 1.03399 0
M  V30 4561 H 434.064 -4.10484 0.0360518 0
M  V30 4562 H 432.725 -3.09291 -0.547546 0
M  V30 4563 H 431.918 -4.9514 0.940872 0
M  V30 4564 H 431.52 -3.36313 1.63614 0
M  V30 4565 H 433.812 -6.52994 1.80569 0
M  V30 4566 H 434.755 -6.2618 3.30612 0
M  V30 4567 H 435.163 -5.34081 1.82806 0
M  V30 4568 N 434.561 -1.01147 -1.20859 0
M  V30 4569 C 435.807 -0.698899 -1.90377 0
M  V30 4570 C 436.14 0.76904 -1.78324 0
M  V30 4571 O 435.415 1.55817 -1.16409 0
M  V30 4572 C 435.698 -1.12878 -3.41951 0
M  V30 4573 C 435.551 -2.65665 -3.62963 0
M  V30 4574 C 436.87 -0.696114 -4.3456 0
M  V30 4575 H 433.989 -0.255372 -0.691342 0
M  V30 4576 H 436.631 -1.25831 -1.42361 0
M  V30 4577 H 434.781 -0.652827 -3.82976 0
M  V30 4578 H 436.453 -3.21074 -3.31224 0
M  V30 4579 H 434.696 -3.06878 -3.06608 0
M  V30 4580 H 435.367 -2.90797 -4.69192 0
M  V30 4581 H 437.843 -1.10521 -4.01154 0
M  V30 4582 H 436.719 -1.025 -5.39245 0
M  V30 4583 H 436.98 0.402465 -4.40264 0
M  V30 4584 N 436.039 1.36541 -0.78704 0
M  V30 4585 C 437.267 2.03561 -0.370199 0
M  V30 4586 C 437.682 1.59347 1.01263 0
M  V30 4587 O 437.039 0.781781 1.64907 0
M  V30 4588 C 437.09 3.59033 -0.421614 0
M  V30 4589 O 436.811 4.01634 -1.7499 0
M  V30 4590 C 438.312 4.433 0.00489763 0
M  V30 4591 H 435.532 0.653346 -0.152904 0
M  V30 4592 H 438.076 1.74566 -1.06522 0
M  V30 4593 H 436.231 3.86746 0.224971 0
M  V30 4594 H 436.645 4.96217 -1.69909 0
M  V30 4595 H 438.119 5.51939 -0.0822184 0
M  V30 4596 H 438.596 4.26285 1.05723 0
M  V30 4597 H 439.202 4.20843 -0.614085 0
M  V30 4598 N 437.518 0.538854 1.48102 0
M  V30 4599 C 438.448 -0.207654 2.32575 0
M  V30 4600 C 439.429 -0.926559 1.4265 0
M  V30 4601 O 440.614 -0.91061 1.71527 0
M  V30 4602 C 437.744 -1.24957 3.24042 0
M  V30 4603 C 436.698 -0.648263 4.23062 0
M  V30 4604 C 436.024 -1.79348 5.03725 0
M  V30 4605 C 437.324 0.385897 5.20872 0
M  V30 4606 H 439.018 0.497534 2.95237 0
M  V30 4607 H 436.564 0.240715 1.41974 0
M  V30 4608 H 438.517 -1.77983 3.81969 0
M  V30 4609 H 437.241 -1.98446 2.59397 0
M  V30 4610 H 435.9 -0.139452 3.66335 0
M  V30 4611 H 435.548 -2.51696 4.35498 0
M  V30 4612 H 435.248 -1.39702 5.70751 0
M  V30 4613 H 436.772 -2.32735 5.64506 0
M  V30 4614 H 438.186 -0.057607 5.73271 0
M  V30 4615 H 436.583 0.700227 5.96001 0
M  V30 4616 H 437.653 1.28848 4.67468 0
M  V30 4617 N 438.996 -1.55193 0.274407 0
M  V30 4618 C 440.226 -2.03692 -0.345442 0
M  V30 4619 C 440.634 -1.15224 -1.50067 0
M  V30 4620 O 439.977 -0.164749 -1.8296 0
M  V30 4621 C 440.039 -3.48325 -0.88939 0
M  V30 4622 C 439.703 -4.56794 0.137115 0
M  V30 4623 C 440.7 -5.11028 0.956378 0
M  V30 4624 C 438.385 -5.01568 0.27115 0
M  V30 4625 C 440.379 -6.08552 1.89587 0
M  V30 4626 C 438.066 -5.98918 1.21412 0
M  V30 4627 C 439.064 -6.52291 2.02498 0
M  V30 4628 O 438.752 -7.47738 2.952 0
M  V30 4629 H 438.484 -0.670893 -0.0829332 0
M  V30 4630 H 441.038 -2.01387 0.404056 0
M  V30 4631 H 439.268 -3.47867 -1.68895 0
M  V30 4632 H 440.957 -3.80167 -1.42225 0
M  V30 4633 H 441.723 -4.7725 0.863559 0
M  V30 4634 H 437.602 -4.5967 -0.349987 0
M  V30 4635 H 441.146 -6.50137 2.52918 0
M  V30 4636 H 437.043 -6.32114 1.30776 0
M  V30 4637 H 437.811 -7.65451 2.89874 0
M  V30 4638 N 440.474 -0.00167713 -1.576 0
M  V30 4639 C 441.751 0.719951 -1.81868 0
M  V30 4640 C 442.131 1.91895 -0.879747 0
M  V30 4641 O 441.479 2.28389 0.0711423 0
M  V30 4642 C 441.689 1.12409 -3.30402 0
M  V30 4643 C 443.037 1.52724 -3.96182 0
M  V30 4644 O 444.061 1.21784 -3.34734 0
M  V30 4645 O 442.92 2.10265 -5.04431 0
M  V30 4646 H 440.014 0.350707 -0.748955 0
M  V30 4647 H 442.56 -0.0272597 -1.69678 0
M  V30 4648 H 441.332 0.269532 -3.90371 0
M  V30 4649 H 440.955 1.93035 -3.47596 0
M  V30 4650 N 441.952 1.55251 0.271103 0
M  V30 4651 C 442.9 1.89054 1.35504 0
M  V30 4652 C 443.894 0.767064 1.51038 0
M  V30 4653 O 445.1 0.951429 1.528 0
M  V30 4654 H 441.475 0.600072 0.45323 0
M  V30 4655 H 443.446 2.79598 1.04247 0
M  V30 4656 C 442.195 2.18068 2.70817 0
M  V30 4657 H 441.518 3.04005 2.59656 0
M  V30 4658 H 442.958 2.4564 3.45597 0
M  V30 4659 C 441.417 0.988901 3.2206 0
M  V30 4660 O 441.947 0.224501 4.01072 0
M  V30 4661 N 440.153 0.786085 2.79766 0
M  V30 4662 H 439.7 1.40937 2.15626 0
M  V30 4663 H 439.658 -0.00969349 3.14399 0
M  V30 4664 N 443.43 -0.535701 1.48216 0
M  V30 4665 C 444.34 -1.66785 1.64985 0
M  V30 4666 C 445.356 -1.65654 0.532414 0
M  V30 4667 O 446.532 -1.8471 0.80275 0
M  V30 4668 C 443.597 -3.0326 1.68031 0
M  V30 4669 C 442.658 -3.1529 2.9136 0
M  V30 4670 C 441.891 -4.45255 2.94252 0
M  V30 4671 O 442.114 -5.32011 2.05719 0
M  V30 4672 O 441.048 -4.6153 3.86359 0
M  V30 4673 H 444.874 -1.55576 2.60825 0
M  V30 4674 H 442.459 -0.70815 1.31551 0
M  V30 4675 H 444.341 -3.84436 1.72589 0
M  V30 4676 H 443.016 -3.14805 0.753628 0
M  V30 4677 H 441.923 -2.3343 2.92337 0
M  V30 4678 H 443.256 -3.08658 3.83394 0
M  V30 4679 N 444.908 -1.36708 -0.784132 0
M  V30 4680 C 445.818 -1.3363 -1.92822 0
M  V30 4681 C 446.834 -0.237686 -1.72369 0
M  V30 4682 O 448.01 -0.470962 -1.95816 0
M  V30 4683 C 445.075 -1.13011 -3.27764 0
M  V30 4684 C 444.136 -2.32397 -3.60957 0
M  V30 4685 C 443.369 -2.12752 -4.89461 0
M  V30 4686 O 443.592 -1.10541 -5.59586 0
M  V30 4687 O 442.526 -3.00653 -5.21432 0
M  V30 4688 H 446.352 -2.29964 -1.98369 0
M  V30 4689 H 443.937 -1.1731 -0.925136 0
M  V30 4690 H 445.819 -1.03451 -4.08504 0
M  V30 4691 H 444.494 -0.19743 -3.23097 0
M  V30 4692 H 443.401 -2.47527 -2.80502 0
M  V30 4693 H 444.734 -3.2419 -3.70354 0
M  V30 4694 N 446.386 1.0089 -1.21074 0
M  V30 4695 C 447.632 1.74866 -1.02712 0
M  V30 4696 C 447.965 1.89178 0.438787 0
M  V30 4697 O 447.24 1.42325 1.32567 0
M  V30 4698 C 447.523 3.16347 -1.72036 0
M  V30 4699 C 447.376 3.09782 -3.26121 0
M  V30 4700 C 448.695 4.15187 -1.45973 0
M  V30 4701 H 445.814 0.634736 -0.374539 0
M  V30 4702 H 448.456 1.17646 -1.49196 0
M  V30 4703 H 446.606 3.65201 -1.32517 0
M  V30 4704 H 448.278 2.68673 -3.74983 0
M  V30 4705 H 446.521 2.46982 -3.56626 0
M  V30 4706 H 447.192 4.09829 -3.6979 0
M  V30 4707 H 449.668 3.75022 -1.80272 0
M  V30 4708 H 448.544 5.12331 -1.96999 0
M  V30 4709 H 448.805 4.40386 -0.388924 0
M  V30 4710 N 447.864 1.01787 1.20321 0
M  V30 4711 C 449.112 0.706538 1.89347 0
M  V30 4712 C 449.433 -0.766289 1.79313 0
M  V30 4713 O 448.703 -1.55126 1.19635 0
M  V30 4714 H 447.283 0.258348 0.700903 0
M  V30 4715 H 449.945 1.28974 1.46122 0
M  V30 4716 H 449.041 0.991066 2.95946 0
M  V30 4717 N 449.342 -1.36122 0.79427 0
M  V30 4718 C 450.567 -2.03891 0.379871 0
M  V30 4719 C 450.992 -1.59488 -0.997251 0
M  V30 4720 O 450.35 -0.765652 -1.64339 0
M  V30 4721 C 450.398 -3.57687 0.457442 0
M  V30 4722 O 449.502 -4.08931 -0.5338 0
M  V30 4723 H 448.843 -0.6443 0.160541 0
M  V30 4724 H 451.373 -1.73976 1.07673 0
M  V30 4725 H 451.383 -4.06721 0.322792 0
M  V30 4726 H 450.058 -3.89357 1.46199 0
M  V30 4727 H 448.635 -3.71154 -0.360409 0
M  V30 4728 N 450.82 -0.546701 -1.47814 0
M  V30 4729 C 451.73 0.21026 -2.33656 0
M  V30 4730 C 452.746 0.922413 -1.47538 0
M  V30 4731 O 453.922 0.893652 -1.80488 0
M  V30 4732 C 450.987 1.23348 -3.24016 0
M  V30 4733 C 450.048 0.529883 -4.26017 0
M  V30 4734 C 449.281 1.50435 -5.12059 0
M  V30 4735 O 449.504 2.73837 -5.00369 0
M  V30 4736 O 448.438 1.03459 -5.92942 0
M  V30 4737 H 452.264 -0.493605 -2.99662 0
M  V30 4738 H 449.849 -0.307427 -1.46203 0
M  V30 4739 H 451.731 1.82438 -3.79861 0
M  V30 4740 H 450.406 1.91945 -2.60651 0
M  V30 4741 H 449.313 -0.101948 -3.73961 0
M  V30 4742 H 450.646 -0.11445 -4.92067 0
M  V30 4743 N 452.299 1.55045 -0.282633 0
M  V30 4744 C 453.524 2.04628 0.337977 0
M  V30 4745 C 453.949 1.15937 1.48123 0
M  V30 4746 O 453.307 0.159532 1.80597 0
M  V30 4747 C 453.355 3.51854 0.78936 0
M  V30 4748 O 452.459 3.66236 1.89592 0
M  V30 4749 H 451.8 0.660434 0.0687261 0
M  V30 4750 H 454.33 2.00261 -0.419124 0
M  V30 4751 H 454.34 3.93361 1.08311 0
M  V30 4752 H 453.015 4.15873 -0.0470419 0
M  V30 4753 H 451.592 3.36633 1.60413 0
M  V30 4754 N 453.777 0.010035 1.57597 0
M  V30 4755 C 454.74 -0.963029 2.07986 0
M  V30 4756 C 455.74 -1.26619 0.991173 0
M  V30 4757 O 456.93 -1.2097 1.25347 0
M  V30 4758 C 454.062 -2.2851 2.52974 0
M  V30 4759 H 455.255 -0.526971 2.95234 0
M  V30 4760 H 452.808 -0.237639 1.54483 0
M  V30 4761 H 453.543 -2.76784 1.69 0
M  V30 4762 H 453.328 -2.07824 3.32493 0
M  V30 4763 H 454.818 -2.98294 2.9225 0
M  V30 4764 N 455.255 -1.55392 -0.262866 0
M  V30 4765 C 456.187 -1.85392 -1.34768 0
M  V30 4766 C 457.2 -0.739069 -1.45057 0
M  V30 4767 O 458.389 -1.01703 -1.46693 0
M  V30 4768 C 455.489 -2.01088 -2.72795 0
M  V30 4769 C 454.662 -3.31828 -2.84972 0
M  V30 4770 C 453.721 -3.37464 -4.03738 0
M  V30 4771 O 452.747 -4.10778 -3.94018 0
M  V30 4772 N 453.949 -2.65599 -5.16176 0
M  V30 4773 H 456.714 -2.79029 -1.09375 0
M  V30 4774 H 454.275 -1.55434 -0.452981 0
M  V30 4775 H 456.267 -2.02217 -3.50557 0
M  V30 4776 H 454.837 -1.1427 -2.90966 0
M  V30 4777 H 454.057 -3.43152 -1.94012 0
M  V30 4778 H 455.345 -4.18032 -2.90045 0
M  V30 4779 H 454.743 -2.05736 -5.26962 0
M  V30 4780 H 453.3 -2.72439 -5.92132 0
M  V30 4781 N 456.733 0.527833 -1.48498 0
M  V30 4782 C 457.981 1.28101 -1.56316 0
M  V30 4783 C 458.302 1.9352 -0.239781 0
M  V30 4784 O 457.572 1.81433 0.738849 0
M  V30 4785 H 456.152 0.475793 -0.575873 0
M  V30 4786 H 458.814 0.614052 -1.84974 0
M  V30 4787 H 457.91 2.05916 -2.34532 0
M  V30 4788 N 458.211 1.37122 0.776871 0
M  V30 4789 C 459.174 1.32301 1.8716 0
M  V30 4790 C 460.174 0.228099 1.59174 0
M  V30 4791 O 461.364 0.483642 1.67352 0
M  V30 4792 C 458.496 1.054 3.24197 0
M  V30 4793 H 459.689 2.29673 1.92848 0
M  V30 4794 H 457.242 1.22077 0.97606 0
M  V30 4795 H 457.977 0.0853872 3.24188 0
M  V30 4796 H 457.762 1.84648 3.45901 0
M  V30 4797 H 459.252 1.04664 4.04271 0
M  V30 4798 N 459.689 -1.00246 1.21608 0
M  V30 4799 C 460.621 -2.09244 0.935401 0
M  V30 4800 C 461.634 -1.62592 -0.0823594 0
M  V30 4801 O 462.823 -1.77865 0.150456 0
M  V30 4802 C 459.923 -3.36724 0.383453 0
M  V30 4803 C 459.096 -4.1245 1.45615 0
M  V30 4804 C 458.155 -5.18219 0.912991 0
M  V30 4805 O 457.181 -5.46337 1.59701 0
M  V30 4806 N 458.383 -5.7987 -0.270478 0
M  V30 4807 H 461.148 -2.33905 1.87373 0
M  V30 4808 H 458.709 -1.16748 1.12167 0
M  V30 4809 H 460.701 -4.047 0.00562157 0
M  V30 4810 H 459.271 -3.09201 -0.459758 0
M  V30 4811 H 458.491 -3.39241 2.00772 0
M  V30 4812 H 459.779 -4.59819 2.17817 0
M  V30 4813 H 459.177 -5.59381 -0.843195 0
M  V30 4814 H 457.734 -6.49126 -0.589794 0
M  V30 4815 N 461.167 -1.02423 -1.1978 0
M  V30 4816 C 462.392 -0.7373 -1.93852 0
M  V30 4817 C 462.817 0.696923 -1.74713 0
M  V30 4818 O 462.175 1.48056 -1.04638 0
M  V30 4819 C 462.223 -1.08783 -3.438 0
M  V30 4820 O 461.327 -0.20383 -4.11896 0
M  V30 4821 H 460.668 -0.27284 -0.605355 0
M  V30 4822 H 463.198 -1.36966 -1.51992 0
M  V30 4823 H 463.208 -1.04276 -3.9445 0
M  V30 4824 H 461.883 -2.13274 -3.57053 0
M  V30 4825 H 460.46 -0.307091 -3.71633 0
M  V30 4826 N 462.645 1.35699 -0.801477 0
M  V30 4827 C 463.575 2.32436 -0.222658 0
M  V30 4828 C 464.556 1.5723 0.649057 0
M  V30 4829 O 465.741 1.85324 0.580387 0
M  V30 4830 C 462.871 3.41469 0.633719 0
M  V30 4831 C 461.825 4.27774 -0.139083 0
M  V30 4832 C 461.151 5.28082 0.838666 0
M  V30 4833 C 462.451 5.04946 -1.33517 0
M  V30 4834 H 464.145 2.81094 -1.03086 0
M  V30 4835 H 461.691 1.35146 -0.497155 0
M  V30 4836 H 463.644 4.08143 1.04868 0
M  V30 4837 H 462.368 2.91408 1.47475 0
M  V30 4838 H 461.027 3.62673 -0.535156 0
M  V30 4839 H 460.675 4.7429 1.67506 0
M  V30 4840 H 460.375 5.86695 0.32594 0
M  V30 4841 H 461.899 5.97628 1.25194 0
M  V30 4842 H 463.313 5.64593 -0.995349 0
M  V30 4843 H 461.71 5.7303 -1.78202 0
M  V30 4844 H 462.78 4.35886 -2.12442 0
M  V30 4845 N 464.123 0.554532 1.47522 0
M  V30 4846 C 465.053 -0.182974 2.32782 0
M  V30 4847 C 466.034 -0.911377 1.43624 0
M  V30 4848 O 467.219 -0.892366 1.72483 0
M  V30 4849 C 464.349 -1.21513 3.25349 0
M  V30 4850 C 463.303 -0.603355 4.23726 0
M  V30 4851 C 462.629 -1.73995 5.05598 0
M  V30 4852 C 463.929 0.441121 5.20434 0
M  V30 4853 H 465.623 0.52882 2.94693 0
M  V30 4854 H 463.169 0.255759 1.41711 0
M  V30 4855 H 465.122 -1.73922 3.83835 0
M  V30 4856 H 463.846 -1.95683 2.61487 0
M  V30 4857 H 462.505 -0.10059 3.66462 0
M  V30 4858 H 462.153 -2.47063 4.38143 0
M  V30 4859 H 461.853 -1.3364 5.72201 0
M  V30 4860 H 463.377 -2.26735 5.66942 0
M  V30 4861 H 464.791 0.00319931 5.733 0
M  V30 4862 H 463.188 0.763402 5.95224 0
M  V30 4863 H 464.258 1.33799 4.66075 0
M  V30 4864 N 465.601 -1.54893 0.290851 0
M  V30 4865 C 466.829 -2.04343 -0.324288 0
M  V30 4866 C 467.244 -1.16859 -1.48289 0
M  V30 4867 O 466.601 -0.192018 -1.81487 0
M  V30 4868 C 466.652 -3.52756 -0.79026 0
M  V30 4869 O 466.373 -4.36913 0.322213 0
M  V30 4870 C 467.874 -4.18161 -1.4716 0
M  V30 4871 H 465.094 -0.667135 -0.0719173 0
M  V30 4872 H 467.638 -1.99981 0.427529 0
M  V30 4873 H 465.793 -3.57511 -1.49213 0
M  V30 4874 H 466.207 -5.24486 -0.0387372 0
M  V30 4875 H 467.681 -5.23562 -1.7489 0
M  V30 4876 H 468.158 -3.67282 -2.40834 0
M  V30 4877 H 468.764 -4.17454 -0.813178 0
M  V30 4878 N 467.08 -0.0183926 -1.57589 0
M  V30 4879 C 467.99 0.982943 -2.13015 0
M  V30 4880 C 469.006 1.36443 -1.07979 0
M  V30 4881 O 470.182 1.44802 -1.3998 0
M  V30 4882 C 467.247 2.25024 -2.63752 0
M  V30 4883 C 466.308 1.93018 -3.83461 0
M  V30 4884 C 465.541 3.13706 -4.31769 0
M  V30 4885 O 465.764 4.2601 -3.79305 0
M  V30 4886 O 464.698 2.96629 -5.23732 0
M  V30 4887 H 468.524 0.541709 -2.9883 0
M  V30 4888 H 466.109 0.201565 -1.48034 0
M  V30 4889 H 467.991 2.99441 -2.96502 0
M  V30 4890 H 466.666 2.68349 -1.81026 0
M  V30 4891 H 465.573 1.16019 -3.55655 0
M  V30 4892 H 466.906 1.54516 -4.67317 0
M  V30 4893 N 468.558 1.5553 0.254621 0
M  V30 4894 C 469.488 1.9268 1.31897 0
M  V30 4895 C 470.469 0.790797 1.506 0
M  V30 4896 O 471.654 1.05045 1.63337 0
M  V30 4897 C 468.784 2.21477 2.67517 0
M  V30 4898 C 467.738 3.37256 2.63519 0
M  V30 4899 C 467.064 3.51576 4.02862 0
M  V30 4900 C 468.364 4.73157 2.21179 0
M  V30 4901 H 470.058 2.81832 1.01051 0
M  V30 4902 H 467.604 1.35599 0.484662 0
M  V30 4903 H 469.557 2.46055 3.42104 0
M  V30 4904 H 468.281 1.29144 2.99982 0
M  V30 4905 H 466.94 3.12675 1.9139 0
M  V30 4906 H 466.588 2.56676 4.32581 0
M  V30 4907 H 466.288 4.2943 4.01078 0
M  V30 4908 H 467.812 3.78467 4.79161 0
M  V30 4909 H 469.226 4.97158 2.85494 0
M  V30 4910 H 467.623 5.54058 2.30521 0
M  V30 4911 H 468.693 4.70739 1.16332 0
M  V30 4912 N 470.036 -0.519951 1.48776 0
M  V30 4913 C 471.282 -1.27711 1.57536 0
M  V30 4914 C 471.615 -1.92547 0.252866 0
M  V30 4915 O 470.89 -1.7979 -0.742021 0
M  V30 4916 C 471.173 -2.35875 2.72094 0
M  V30 4917 C 471.026 -1.75664 4.1408 0
M  V30 4918 C 472.345 -3.37575 2.82367 0
M  V30 4919 H 469.464 -0.462971 0.573434 0
M  V30 4920 H 472.106 -0.578194 1.80989 0
M  V30 4921 H 470.256 -2.95488 2.52228 0
M  V30 4922 H 471.928 -1.20025 4.45412 0
M  V30 4923 H 470.171 -1.06154 4.20611 0
M  V30 4924 H 470.842 -2.54029 4.90075 0
M  V30 4925 H 473.318 -2.87929 3.00393 0
M  V30 4926 H 472.194 -4.1064 3.64233 0
M  V30 4927 H 472.455 -3.98743 1.90936 0
M  V30 4928 N 471.514 -1.37532 -0.769588 0
M  V30 4929 C 472.444 -1.36172 -1.89682 0
M  V30 4930 C 473.425 -0.23001 -1.68538 0
M  V30 4931 O 474.61 -0.43069 -1.89364 0
M  V30 4932 C 471.74 -1.1701 -3.26995 0
M  V30 4933 C 470.694 -2.27216 -3.62708 0
M  V30 4934 C 470.02 -1.93174 -4.98586 0
M  V30 4935 C 471.32 -3.6941 -3.69234 0
M  V30 4936 H 473.014 -2.30499 -1.91078 0
M  V30 4937 H 470.56 -1.10953 -0.917902 0
M  V30 4938 H 472.513 -1.14688 -4.05493 0
M  V30 4939 H 471.237 -0.191395 -3.26039 0
M  V30 4940 H 469.896 -2.28697 -2.86519 0
M  V30 4941 H 469.544 -0.938281 -4.94171 0
M  V30 4942 H 469.244 -2.66973 -5.23449 0
M  V30 4943 H 470.768 -1.92443 -5.79481 0
M  V30 4944 H 472.182 -3.70047 -4.37879 0
M  V30 4945 H 470.579 -4.4228 -4.05597 0
M  V30 4946 H 471.649 -4.0288 -2.69844 0
M  V30 4947 N 472.992 0.995999 -1.22138 0
M  V30 4948 C 474.408 1.25917 -0.980667 0
M  V30 4949 C 474.608 1.98819 0.327604 0
M  V30 4950 O 473.664 2.29587 1.05101 0
M  V30 4951 C 474.977 2.07399 -2.17729 0
M  V30 4952 C 476.525 2.20594 -2.22052 0
M  V30 4953 C 477 3.05462 -3.41258 0
M  V30 4954 N 478.491 3.13049 -3.41401 0
M  V30 4955 C 479.226 3.78997 -4.30289 0
M  V30 4956 N 478.722 4.46899 -5.2939 0
M  V30 4957 N 480.515 3.75728 -4.18073 0
M  V30 4958 H 472.666 0.507158 -2.06256 0
M  V30 4959 H 474.929 0.28658 -0.903646 0
M  V30 4960 H 474.635 1.61191 -3.12586 0
M  V30 4961 H 474.509 3.08154 -2.17534 0
M  V30 4962 H 476.896 2.66017 -1.27745 0
M  V30 4963 H 476.977 1.1928 -2.26287 0
M  V30 4964 H 476.621 2.60739 -4.35864 0
M  V30 4965 H 476.551 4.06911 -3.34262 0
M  V30 4966 H 479.042 2.64721 -2.69688 0
M  V30 4967 H 479.355 4.94952 -5.935 0
M  V30 4968 H 477.7 4.45657 -5.33306 0
M  V30 4969 H 480.891 3.2184 -3.39907 0
M  V30 4970 H 481.064 4.26845 -4.87553 0
M  V30 4971 N 474.47 1.03057 1.19235 0
M  V30 4972 C 475.886 0.747947 1.40989 0
M  V30 4973 C 476.086 -0.666752 1.90149 0
M  V30 4974 O 475.142 -1.43249 2.07933 0
M  V30 4975 C 476.455 1.7855 2.41951 0
M  V30 4976 C 478.003 1.80524 2.55695 0
M  V30 4977 C 478.478 2.83243 3.59913 0
M  V30 4978 N 479.969 2.8207 3.67411 0
M  V30 4979 C 480.704 3.58204 4.47747 0
M  V30 4980 N 480.2 4.44057 5.31775 0
M  V30 4981 N 481.993 3.46738 4.42413 0
M  V30 4982 H 474.144 1.94367 0.856468 0
M  V30 4983 H 476.407 0.840412 0.438647 0
M  V30 4984 H 476.113 2.79973 2.12857 0
M  V30 4985 H 475.987 1.6092 3.41152 0
M  V30 4986 H 478.374 0.79778 2.84112 0
M  V30 4987 H 478.455 2.02229 1.56643 0
M  V30 4988 H 478.099 3.84161 3.32239 0
M  V30 4989 H 478.029 2.58795 4.5862 0
M  V30 4990 H 480.52 2.19803 3.074 0
M  V30 4991 H 480.833 4.98884 5.90199 0
M  V30 4992 H 479.178 4.48129 5.3123 0
M  V30 4993 H 482.369 2.79077 3.75811 0
M  V30 4994 H 482.542 4.06322 5.04783 0
M  V30 4995 N 475.948 -1.35272 0.808662 0
M  V30 4996 C 477.197 -1.97963 0.386483 0
M  V30 4997 C 477.51 -1.64866 -1.05255 0
M  V30 4998 O 478.716 -2.20937 -1.57794 0
M  V30 4999 C 477.172 -3.54162 0.640096 0
M  V30 5000 C 476.78 -3.96166 2.0918 0
M  V30 5001 C 478.524 -4.23553 0.283376 0
M  V30 5002 C 476.431 -5.4522 2.29106 0
M  V30 5003 H 475.361 -0.740742 0.140774 0
M  V30 5004 H 478.012 -1.5431 0.993012 0
M  V30 5005 H 476.394 -3.95983 -0.0364117 0
M  V30 5006 H 477.568 -3.65491 2.80629 0
M  V30 5007 H 475.883 -3.3967 2.40859 0
M  V30 5008 H 478.48 -5.33124 0.410273 0
M  V30 5009 H 478.823 -4.09105 -0.770659 0
M  V30 5010 H 479.356 -3.8716 0.913884 0
M  V30 5011 H 476.095 -5.64638 3.32962 0
M  V30 5012 H 475.615 -5.77457 1.62184 0
M  V30 5013 H 477.294 -6.1171 2.1076 0
M  V30 5014 N 477.426 -0.562348 -1.47226 0
M  V30 5015 C 478.651 -0.0432632 -2.07355 0
M  V30 5016 C 479.076 1.24332 -1.41149 0
M  V30 5017 O 478.434 1.74603 -0.488226 0
M  V30 5018 C 478.482 0.130288 -3.60365 0
M  V30 5019 O 477.586 1.19166 -3.94808 0
M  V30 5020 H 476.927 -0.0536334 -0.66183 0
M  V30 5021 H 479.457 -0.779495 -1.89169 0
M  V30 5022 H 479.467 0.342881 -4.06557 0
M  V30 5023 H 478.142 -0.809389 -4.07948 0
M  V30 5024 H 476.719 0.959153 -3.60354 0
M  V30 5025 N 478.904 1.54736 -0.299062 0
M  V30 5026 C 479.867 2.22127 0.565012 0
M  V30 5027 C 480.867 1.20669 1.06281 0
M  V30 5028 O 482.057 1.45417 0.959145 0
M  V30 5029 C 479.189 2.90611 1.78208 0
M  V30 5030 H 480.382 2.99891 -0.0237448 0
M  V30 5031 H 477.935 1.5622 -0.0498788 0
M  V30 5032 H 478.67 2.16921 2.41072 0
M  V30 5033 H 478.455 3.64984 1.43281 0
M  V30 5034 H 479.945 3.42026 2.396 0
M  V30 5035 N 480.382 0.0267497 1.57577 0
M  V30 5036 C 481.607 -0.666227 1.96408 0
M  V30 5037 C 482.032 -1.65004 0.903071 0
M  V30 5038 O 481.39 -1.80787 -0.136263 0
M  V30 5039 C 481.438 -1.35101 3.34335 0
M  V30 5040 O 480.542 -2.46623 3.30531 0
M  V30 5041 H 479.883 -0.175206 0.640468 0
M  V30 5042 H 482.413 0.0878977 2.04411 0
M  V30 5043 H 482.423 -1.70834 3.70513 0
M  V30 5044 H 481.098 -0.629844 4.11103 0
M  V30 5045 H 479.675 -2.13019 3.06068 0
M  V30 5046 N 481.861 -1.55662 -0.24637 0
M  V30 5047 C 483.101 -1.79283 -0.981685 0
M  V30 5048 C 483.465 -0.596356 -1.82504 0
M  V30 5049 O 484.666 -0.711342 -2.59217 0
M  V30 5050 C 482.937 -3.07648 -1.819 0
M  V30 5051 S 484.496 -3.52491 -2.61334 0
M  V30 5052 H 481.314 -0.629676 -0.330196 0
M  V30 5053 H 483.916 -1.93901 -0.249498 0
M  V30 5054 H 482.62 -3.92794 -1.18915 0
M  V30 5055 H 482.151 -2.95768 -2.59393 0
M  V30 5056 H 484.166 -3.13866 -3.84321 0
M  V30 5057 N 483.339 0.512053 -1.4905 0
M  V30 5058 C 484.271 1.63121 -1.6101 0
M  V30 5059 C 485.284 1.55145 -0.493352 0
M  V30 5060 O 486.473 1.61278 -0.764955 0
M  V30 5061 C 483.573 3.01863 -1.54052 0
M  V30 5062 C 482.746 3.35138 -2.81072 0
M  V30 5063 C 481.805 4.5324 -2.67319 0
M  V30 5064 O 480.831 4.55571 -3.41238 0
M  V30 5065 N 482.033 5.52495 -1.78127 0
M  V30 5066 H 484.798 1.53292 -2.5753 0
M  V30 5067 H 482.359 0.699706 -1.45999 0
M  V30 5068 H 484.351 3.78774 -1.42521 0
M  V30 5069 H 482.921 3.05675 -0.654345 0
M  V30 5070 H 482.141 2.4723 -3.07036 0
M  V30 5071 H 483.429 3.54162 -3.65304 0
M  V30 5072 H 482.827 5.53403 -1.17308 0
M  V30 5073 H 481.384 6.28553 -1.72525 0
M  V30 5074 N 484.817 1.37938 0.762283 0
M  V30 5075 C 485.767 1.30976 1.86626 0
M  V30 5076 C 486.751 0.195714 1.59705 0
M  V30 5077 O 487.943 0.430937 1.71674 0
M  V30 5078 C 485.072 1.12847 3.24223 0
M  V30 5079 C 484.158 2.28836 3.57064 0
M  V30 5080 N 484.549 3.54256 3.61022 0
M  V30 5081 C 482.847 2.21198 3.87282 0
M  V30 5082 C 483.548 4.30798 3.90881 0
M  V30 5083 N 482.524 3.60049 4.07266 0
M  V30 5084 H 486.326 2.25946 1.87951 0
M  V30 5085 H 483.84 1.31046 0.959206 0
M  V30 5086 H 485.837 1.05943 4.03214 0
M  V30 5087 H 484.497 0.188024 3.24155 0
M  V30 5088 H 485.508 3.8804 3.42995 0
M  V30 5089 H 482.185 1.35264 3.94981 0
M  V30 5090 H 483.575 5.39386 4.00639 0
M  V30 5091 N 486.295 -0.989507 1.22664 0
M  V30 5092 C 487.706 -1.54406 1.04955 0
M  V30 5093 C 488.057 -1.92366 -0.385951 0
M  V30 5094 O 487.182 -1.75111 -1.27142 0
M  V30 5095 C 487.777 -2.80578 1.89899 0
M  V30 5096 C 486.336 -3.32464 1.76478 0
M  V30 5097 C 485.483 -2.05524 1.86159 0
M  V30 5098 H 488.434 -0.810211 1.3646 0
M  V30 5099 H 488.455 -3.53075 1.4184 0
M  V30 5100 H 487.967 -2.52918 2.94371 0
M  V30 5101 H 486.068 -3.65024 0.747528 0
M  V30 5102 H 486.181 -4.02838 2.59342 0
M  V30 5103 H 484.545 -2.19241 1.29636 0
M  V30 5104 H 485.328 -1.80258 2.92168 0
M  V30 5105 N 487.773 -1.03688 -1.18687 0
M  V30 5106 C 489.001 -0.757918 -1.92518 0
M  V30 5107 C 489.416 0.684398 -1.75959 0
M  V30 5108 O 488.773 1.46617 -1.08673 0
M  V30 5109 C 488.824 -1.10985 -3.44042 0
M  V30 5110 O 488.545 -2.49554 -3.60076 0
M  V30 5111 C 490.046 -0.854844 -4.3498 0
M  V30 5112 H 487.266 -0.276699 -0.611293 0
M  V30 5113 H 489.81 -1.38352 -1.50595 0
M  V30 5114 H 487.965 -0.529279 -3.83767 0
M  V30 5115 H 488.379 -2.6291 -4.53849 0
M  V30 5116 H 489.853 -1.15098 -5.39867 0
M  V30 5117 H 490.33 0.210507 -4.38695 0
M  V30 5118 H 490.936 -1.41853 -4.00946 0
M  V30 5119 N 489.251 1.34841 -0.815825 0
M  V30 5120 C 490.214 2.27959 -0.238185 0
M  V30 5121 C 491.214 1.49983 0.579816 0
M  V30 5122 O 492.404 1.69617 0.396953 0
M  V30 5123 C 489.536 3.34314 0.666876 0
M  V30 5124 H 490.729 2.80558 -1.05958 0
M  V30 5125 H 488.282 1.44852 -0.587156 0
M  V30 5126 H 489.017 2.86916 1.5116 0
M  V30 5127 H 488.802 3.92014 0.0819106 0
M  V30 5128 H 490.292 4.0379 1.06506 0
M  V30 5129 N 490.729 0.570148 1.46925 0
M  V30 5130 C 491.976 0.0509529 2.02436 0
M  V30 5131 C 492.304 -1.30405 1.44308 0
M  V30 5132 O 491.559 -1.86493 0.593198 0
M  V30 5133 C 491.858 -0.0780336 3.57315 0
M  V30 5134 C 491.524 1.20775 4.34424 0
M  V30 5135 C 490.186 1.56004 4.5521 0
M  V30 5136 C 492.538 2.0592 4.78797 0
M  V30 5137 C 489.866 2.76201 5.17619 0
M  V30 5138 C 492.218 3.25332 5.42533 0
M  V30 5139 C 490.882 3.60859 5.61549 0
M  V30 5140 H 490.152 0.018645 0.740765 0
M  V30 5141 H 492.799 0.744262 1.76445 0
M  V30 5142 H 491.104 -0.854394 3.82371 0
M  V30 5143 H 492.801 -0.495312 3.97929 0
M  V30 5144 H 489.391 0.923469 4.18533 0
M  V30 5145 H 493.575 1.80008 4.62505 0
M  V30 5146 H 488.831 3.0388 5.30535 0
M  V30 5147 H 493.005 3.91586 5.75876 0
M  V30 5148 H 490.632 4.54088 6.09678 0
M  V30 5149 N 492.207 -1.54576 0.307264 0
M  V30 5150 C 493.117 -2.27435 -0.57536 0
M  V30 5151 C 494.133 -1.31183 -1.14311 0
M  V30 5152 O 495.309 -1.64175 -1.16656 0
M  V30 5153 C 492.374 -3.00566 -1.72803 0
M  V30 5154 C 491.435 -4.12369 -1.19373 0
M  V30 5155 C 490.668 -4.82003 -2.29147 0
M  V30 5156 O 490.891 -4.51038 -3.49171 0
M  V30 5157 O 489.825 -5.69271 -1.95485 0
M  V30 5158 H 493.651 -3.03696 0.0158558 0
M  V30 5159 H 491.236 -1.49219 0.0735064 0
M  V30 5160 H 493.118 -3.46416 -2.39946 0
M  V30 5161 H 491.793 -2.27195 -2.30574 0
M  V30 5162 H 490.7 -3.70905 -0.487851 0
M  V30 5163 H 492.033 -4.87736 -0.661376 0
M  V30 5164 N 493.685 -0.035106 -1.57561 0
M  V30 5165 C 494.595 0.960295 -2.14046 0
M  V30 5166 C 495.611 1.3529 -1.0942 0
M  V30 5167 O 496.787 1.43309 -1.41508 0
M  V30 5168 C 493.852 2.22214 -2.66124 0
M  V30 5169 C 492.913 1.8894 -3.85487 0
M  V30 5170 C 492.146 3.09109 -4.35072 0
M  V30 5171 O 492.369 4.21963 -3.83802 0
M  V30 5172 O 491.303 2.91058 -5.26848 0
M  V30 5173 H 495.129 0.509983 -2.99387 0
M  V30 5174 H 492.714 0.185853 -1.48239 0
M  V30 5175 H 494.596 2.96279 -2.99661 0
M  V30 5176 H 493.271 2.66414 -1.83862 0
M  V30 5177 H 492.178 1.12241 -3.56865 0
M  V30 5178 H 493.511 1.49551 -4.6893 0
M  V30 5179 N 495.163 1.55791 0.238111 0
M  V30 5180 C 496.126 1.90239 1.27835 0
M  V30 5181 C 497.126 0.779552 1.4064 0
M  V30 5182 O 498.316 1.04747 1.3919 0
M  V30 5183 C 495.448 2.13859 2.65475 0
M  V30 5184 H 496.641 2.83262 0.985034 0
M  V30 5185 H 494.194 1.48818 0.477799 0
M  V30 5186 H 494.929 1.23334 2.99932 0
M  V30 5187 H 494.714 2.95643 2.57561 0
M  V30 5188 H 496.204 2.41664 3.40571 0
M  V30 5189 N 496.642 -0.504142 1.49319 0
M  V30 5190 C 497.891 -1.25507 1.57895 0
M  V30 5191 C 498.204 -1.93735 0.269433 0
M  V30 5192 O 499.41 -2.70492 0.233706 0
M  V30 5193 C 497.866 -2.27869 2.78574 0
M  V30 5194 C 497.474 -1.65594 4.16272 0
M  V30 5195 C 499.218 -3.0381 2.96479 0
M  V30 5196 C 497.125 -2.66048 5.28178 0
M  V30 5197 H 496.055 -0.47212 0.587894 0
M  V30 5198 H 498.706 -0.52931 1.757 0
M  V30 5199 H 497.088 -3.03594 2.54257 0
M  V30 5200 H 498.262 -0.958826 4.50714 0
M  V30 5201 H 496.577 -1.02055 4.037 0
M  V30 5202 H 499.174 -3.78925 3.77253 0
M  V30 5203 H 499.517 -3.61235 2.06918 0
M  V30 5204 H 500.05 -2.352 3.20821 0
M  V30 5205 H 496.789 -2.13408 6.19788 0
M  V30 5206 H 496.309 -3.34009 4.98195 0
M  V30 5207 H 497.988 -3.28536 5.57381 0
M  V30 5208 N 498.12 -1.38341 -0.754957 0
M  V30 5209 C 499.531 -1.30803 -1.3322 0
M  V30 5210 C 499.882 0.0368 -1.96165 0
M  V30 5211 O 499.007 0.938844 -1.94974 0
M  V30 5212 C 499.602 -2.3688 -2.42225 0
M  V30 5213 C 498.161 -2.32925 -2.95674 0
M  V30 5214 C 497.308 -2.19819 -1.69042 0
M  V30 5215 H 500.259 -1.48719 -0.553937 0
M  V30 5216 H 500.28 -2.02517 -3.22129 0
M  V30 5217 H 499.792 -3.34747 -1.96383 0
M  V30 5218 H 497.893 -1.38635 -3.45848 0
M  V30 5219 H 498.006 -3.27008 -3.50146 0
M  V30 5220 H 496.37 -1.66648 -1.92615 0
M  V30 5221 H 497.153 -3.19625 -1.25279 0
M  V30 5222 N 499.598 0.982988 -1.23187 0
M  V30 5223 C 500.545 2.07491 -1.01075 0
M  V30 5224 C 501.515 1.65949 0.070905 0
M  V30 5225 O 502.7 1.90629 -0.0806822 0
M  V30 5226 C 499.84 3.39751 -0.605261 0
M  V30 5227 C 498.953 3.94578 -1.75876 0
M  V30 5228 C 498.088 5.15039 -1.3003 0
M  V30 5229 C 497.127 5.62027 -2.42472 0
M  V30 5230 N 496.264 6.73719 -1.97602 0
M  V30 5231 H 501.104 2.25739 -1.9454 0
M  V30 5232 H 498.641 1.10659 -0.969179 0
M  V30 5233 H 500.599 4.15719 -0.351279 0
M  V30 5234 H 499.229 3.21473 0.292382 0
M  V30 5235 H 498.281 3.1539 -2.12681 0
M  V30 5236 H 499.593 4.25422 -2.60418 0
M  V30 5237 H 498.747 5.9833 -1.00429 0
M  V30 5238 H 497.486 4.85843 -0.425216 0
M  V30 5239 H 496.491 4.77318 -2.7285 0
M  V30 5240 H 497.716 5.93244 -3.30512 0
M  V30 5241 H 495.662 6.46287 -1.1247 0
M  V30 5242 H 495.579 7.03934 -2.75705 0
M  V30 5243 H 496.847 7.6049 -1.71098 0
M  V30 5244 N 501.076 1.04316 1.18135 0
M  V30 5245 C 502.301 0.768047 1.92655 0
M  V30 5246 C 502.726 -0.66904 1.758 0
M  V30 5247 O 502.084 -1.46372 1.06981 0
M  V30 5248 C 502.132 1.14239 3.42026 0
M  V30 5249 O 501.236 0.269333 4.1152 0
M  V30 5250 H 500.577 0.282436 0.600937 0
M  V30 5251 H 503.107 1.39367 1.49793 0
M  V30 5252 H 503.117 1.10538 3.92741 0
M  V30 5253 H 501.792 2.18928 3.53615 0
M  V30 5254 H 500.369 0.366175 3.71098 0
M  V30 5255 N 502.554 -1.34406 0.822964 0
M  V30 5256 C 503.801 -1.98284 0.411057 0
M  V30 5257 C 504.129 -1.65245 -1.02588 0
M  V30 5258 O 503.384 -0.91619 -1.72929 0
M  V30 5259 C 503.683 -3.52981 0.560268 0
M  V30 5260 C 503.349 -4.05931 1.96293 0
M  V30 5261 C 502.011 -4.20103 2.34664 0
M  V30 5262 C 504.363 -4.34412 2.87985 0
M  V30 5263 C 501.691 -4.60082 3.64062 0
M  V30 5264 C 504.043 -4.75838 4.16847 0
M  V30 5265 C 502.707 -4.88215 4.55195 0
M  V30 5266 H 501.977 -0.725573 0.150416 0
M  V30 5267 H 504.624 -1.60349 1.04692 0
M  V30 5268 H 502.929 -3.91477 -0.158982 0
M  V30 5269 H 504.626 -4.00385 0.222087 0
M  V30 5270 H 501.216 -3.95363 1.65487 0
M  V30 5271 H 505.4 -4.23001 2.59584 0
M  V30 5272 H 500.656 -4.67856 3.93599 0
M  V30 5273 H 504.83 -4.96834 4.87984 0
M  V30 5274 H 502.457 -5.18952 5.55512 0
M  V30 5275 N 504.032 -0.577932 -1.46621 0
M  V30 5276 C 504.965 0.206312 -2.27265 0
M  V30 5277 C 505.943 0.901306 -1.35334 0
M  V30 5278 O 507.127 0.916151 -1.64739 0
M  V30 5279 C 504.254 1.29563 -3.1294 0
M  V30 5280 C 503.3 0.706981 -4.206 0
M  V30 5281 S 504.133 -0.462459 -5.33499 0
M  V30 5282 C 505.289 0.628171 -6.2274 0
M  V30 5283 H 505.522 -0.477961 -2.93433 0
M  V30 5284 H 503.055 -0.364715 -1.50031 0
M  V30 5285 H 505.013 1.91935 -3.62865 0
M  V30 5286 H 503.674 1.95183 -2.46095 0
M  V30 5287 H 502.867 1.52565 -4.80354 0
M  V30 5288 H 502.469 0.159022 -3.73662 0
M  V30 5289 H 504.761 1.51506 -6.60342 0
M  V30 5290 H 505.704 0.0674961 -7.08068 0
M  V30 5291 H 506.112 0.930167 -5.56784 0
M  V30 5292 N 505.51 1.54411 -0.315457 0
M  V30 5293 C 506.759 1.99599 0.290395 0
M  V30 5294 C 507.072 1.20746 1.53882 0
M  V30 5295 O 508.278 1.56272 2.22017 0
M  V30 5296 C 506.734 3.5539 0.56797 0
M  V30 5297 C 506.342 4.43068 -0.662945 0
M  V30 5298 C 508.086 4.09067 1.13422 0
M  V30 5299 C 505.993 5.90317 -0.357722 0
M  V30 5300 H 504.923 0.745592 0.112286 0
M  V30 5301 H 507.574 1.78477 -0.426418 0
M  V30 5302 H 505.956 3.72468 1.34476 0
M  V30 5303 H 507.13 4.37765 -1.43869 0
M  V30 5304 H 505.445 4.00238 -1.14884 0
M  V30 5305 H 508.042 5.16663 1.37707 0
M  V30 5306 H 508.385 3.60552 2.08106 0
M  V30 5307 H 508.918 3.95589 0.418805 0
M  V30 5308 H 505.657 6.4301 -1.27351 0
M  V30 5309 H 505.177 5.98592 0.380472 0
M  V30 5310 H 506.856 6.4699 0.0354284 0
M  V30 5311 N 506.988 0.0434614 1.5754 0
M  V30 5312 C 508.213 -0.645358 1.97104 0
M  V30 5313 C 508.638 -1.64037 0.920521 0
M  V30 5314 O 507.996 -1.80922 -0.11708 0
M  V30 5315 C 508.044 -1.31547 3.35749 0
M  V30 5316 O 507.148 -2.43103 3.33129 0
M  V30 5317 H 506.489 -0.168403 0.64229 0
M  V30 5318 H 509.019 0.109573 2.04306 0
M  V30 5319 H 509.029 -1.66895 3.72304 0
M  V30 5320 H 507.704 -0.586205 4.11748 0
M  V30 5321 H 506.281 -2.0976 3.0831 0
M  V30 5322 N 508.466 -1.55915 -0.229846 0
M  V30 5323 C 509.429 -1.90914 -1.26824 0
M  V30 5324 C 510.429 -0.786999 -1.40225 0
M  V30 5325 O 511.619 -1.05484 -1.38632 0
M  V30 5326 C 508.751 -2.15264 -2.64337 0
M  V30 5327 H 509.944 -2.8378 -0.969998 0
M  V30 5328 H 507.497 -1.49069 -0.4699 0
M  V30 5329 H 508.232 -1.24923 -2.99274 0
M  V30 5330 H 508.017 -2.97005 -2.55989 0
M  V30 5331 H 509.507 -2.43467 -3.39284 0
M  V30 5332 N 509.944 0.496216 -1.49584 0
M  V30 5333 C 511.221 1.25755 -1.49816 0
M  V30 5334 C 511.601 2.09859 -0.228572 0
M  V30 5335 O 510.949 2.14449 0.788908 0
M  V30 5336 C 511.159 2.11017 -2.7798 0
M  V30 5337 C 512.507 2.70047 -3.27658 0
M  V30 5338 O 513.531 2.21281 -2.79129 0
M  V30 5339 O 512.39 3.58834 -4.1219 0
M  V30 5340 H 509.484 0.569322 -0.599834 0
M  V30 5341 H 512.03 0.510094 -1.61852 0
M  V30 5342 H 510.802 1.48879 -3.61871 0
M  V30 5343 H 510.425 2.92947 -2.68827 0
M  V30 5344 N 511.423 1.38739 0.74761 0
M  V30 5345 C 512.356 1.3083 1.86972 0
M  V30 5346 C 513.334 0.184229 1.61553 0
M  V30 5347 O 514.518 0.36256 1.8498 0
M  V30 5348 C 511.645 1.02854 3.22705 0
M  V30 5349 C 510.691 2.17281 3.67003 0
M  V30 5350 S 511.524 3.79468 3.77842 0
M  V30 5351 C 512.68 3.53692 5.16385 0
M  V30 5352 H 512.913 2.258 1.93395 0
M  V30 5353 H 510.446 1.24646 0.911199 0
M  V30 5354 H 512.404 0.87397 4.01089 0
M  V30 5355 H 511.065 0.0959295 3.13953 0
M  V30 5356 H 510.258 1.93267 4.65472 0
M  V30 5357 H 509.86 2.28876 2.9579 0
M  V30 5358 H 512.152 3.10176 6.02327 0
M  V30 5359 H 513.095 4.51576 5.45422 0
M  V30 5360 H 513.503 2.8807 4.85464 0
M  V30 5361 N 512.901 -0.976442 1.23707 0
M  V30 5362 C 513.864 -2.0511 1.02287 0
M  V30 5363 C 514.864 -1.60791 -0.0167195 0
M  V30 5364 O 516.054 -1.72761 0.223408 0
M  V30 5365 C 513.186 -3.36458 0.548507 0
M  V30 5366 H 514.379 -2.25545 1.9766 0
M  V30 5367 H 511.932 -1.15042 1.05806 0
M  V30 5368 H 512.667 -3.21713 -0.408818 0
M  V30 5369 H 512.452 -3.69967 1.29874 0
M  V30 5370 H 513.942 -4.15489 0.419406 0
M  V30 5371 N 514.379 -1.04941 -1.1758 0
M  V30 5372 C 515.329 -0.618378 -2.19454 0
M  V30 5373 C 516.313 0.343813 -1.57184 0
M  V30 5374 O 517.505 0.16145 -1.76262 0
M  V30 5375 C 514.634 0.00803847 -3.43299 0
M  V30 5376 C 513.72 -0.977827 -4.12673 0
M  V30 5377 N 514.111 -2.14826 -4.57912 0
M  V30 5378 C 512.409 -0.805748 -4.38661 0
M  V30 5379 C 513.11 -2.77174 -5.11419 0
M  V30 5380 N 512.086 -2.04989 -5.03468 0
M  V30 5381 H 515.888 -1.51018 -2.52132 0
M  V30 5382 H 513.402 -0.919201 -1.33882 0
M  V30 5383 H 515.399 0.334584 -4.15555 0
M  V30 5384 H 514.059 0.895272 -3.12114 0
M  V30 5385 H 515.07 -2.52673 -4.52081 0
M  V30 5386 H 511.747 0.0306506 -4.17489 0
M  V30 5387 H 513.137 -3.76416 -5.56562 0
M  V30 5388 N 515.857 1.33968 -0.830081 0
M  V30 5389 C 516.82 2.27694 -0.26235 0
M  V30 5390 C 517.82 1.50589 0.563876 0
M  V30 5391 O 519.01 1.70028 0.378941 0
M  V30 5392 C 516.142 3.35002 0.63138 0
M  V30 5393 H 517.335 2.79419 -1.08928 0
M  V30 5394 H 514.888 1.44221 -0.602486 0
M  V30 5395 H 515.623 2.88504 1.48109 0
M  V30 5396 H 515.408 3.92079 0.0403276 0
M  V30 5397 H 516.898 4.04897 1.02217 0
M  V30 5398 N 517.335 0.585699 1.46312 0
M  V30 5399 C 518.581 0.0725284 2.0267 0
M  V30 5400 C 518.914 -1.28523 1.45586 0
M  V30 5401 O 518.189 -1.84283 0.622101 0
M  V30 5402 C 518.472 0.0099788 3.60099 0
M  V30 5403 C 518.325 1.39685 4.27561 0
M  V30 5404 C 519.644 -0.689117 4.34671 0
M  V30 5405 H 516.763 0.0278307 0.736474 0
M  V30 5406 H 519.405 0.753472 1.74421 0
M  V30 5407 H 517.555 -0.56992 3.84297 0
M  V30 5408 H 519.227 2.02215 4.14617 0
M  V30 5409 H 517.47 1.96374 3.86807 0
M  V30 5410 H 518.141 1.30553 5.36339 0
M  V30 5411 H 520.617 -0.196446 4.15636 0
M  V30 5412 H 519.493 -0.701921 5.44393 0
M  V30 5413 H 519.754 -1.75101 4.05946 0
M  V30 5414 N 518.813 -1.54241 0.323641 0
M  V30 5415 C 519.763 -2.21071 -0.557833 0
M  V30 5416 C 520.747 -1.19126 -1.08157 0
M  V30 5417 O 521.939 -1.44755 -1.01857 0
M  V30 5418 C 519.068 -2.97208 -1.71821 0
M  V30 5419 C 518.154 -4.06491 -1.20936 0
M  V30 5420 N 518.545 -5.04052 -0.420202 0
M  V30 5421 C 516.843 -4.20443 -1.48808 0
M  V30 5422 C 517.544 -5.81516 -0.146413 0
M  V30 5423 N 516.52 -5.38641 -0.732562 0
M  V30 5424 H 520.322 -2.93853 0.0523921 0
M  V30 5425 H 517.836 -1.61883 0.129502 0
M  V30 5426 H 519.833 -3.4357 -2.36146 0
M  V30 5427 H 518.493 -2.25947 -2.33191 0
M  V30 5428 H 519.504 -5.17862 -0.0630401 0
M  V30 5429 H 516.181 -3.60396 -2.10762 0
M  V30 5430 H 517.571 -6.70119 0.488895 0
M  V30 5431 N 520.291 -0.0518155 -1.57515 0
M  V30 5432 C 521.702 0.483787 -1.80323 0
M  V30 5433 C 522.053 1.70879 -0.964099 0
M  V30 5434 O 521.178 2.15643 -0.180872 0
M  V30 5435 C 521.773 0.884459 -3.27052 0
M  V30 5436 C 520.332 1.36504 -3.50776 0
M  V30 5437 C 519.479 0.340539 -2.75201 0
M  V30 5438 H 522.43 -0.277691 -1.56252 0
M  V30 5439 H 522.451 1.74733 -3.38007 0
M  V30 5440 H 521.963 -0.00731093 -3.88099 0
M  V30 5441 H 520.064 2.27598 -2.95009 0
M  V30 5442 H 520.177 1.35675 -4.59488 0
M  V30 5443 H 518.541 0.81356 -2.41357 0
M  V30 5444 H 519.324 -0.543156 -3.38976 0
M  V30 5445 N 521.769 1.56035 0.221574 0
M  V30 5446 C 522.717 1.93269 1.29421 0
M  V30 5447 C 523.711 0.814727 1.48521 0
M  V30 5448 O 524.917 0.999559 1.49696 0
M  V30 5449 H 521.292 0.614188 0.43391 0
M  V30 5450 H 523.263 2.82773 0.952987 0
M  V30 5451 C 522.012 2.26573 2.63742 0
M  V30 5452 H 521.335 3.12112 2.49853 0
M  V30 5453 H 522.775 2.5651 3.37607 0
M  V30 5454 C 521.234 1.09086 3.1875 0
M  V30 5455 O 521.764 0.351985 4.00155 0
M  V30 5456 N 519.97 0.874693 2.77124 0
M  V30 5457 H 519.517 1.47726 2.11033 0
M  V30 5458 H 519.475 0.0903349 3.1427 0
M  V30 5459 N 523.247 -0.488276 1.49845 0
M  V30 5460 C 524.477 -1.26344 1.63465 0
M  V30 5461 C 524.885 -1.86637 0.310379 0
M  V30 5462 O 524.228 -1.69184 -0.715712 0
M  V30 5463 C 524.29 -2.42407 2.65479 0
M  V30 5464 C 523.954 -2.02886 4.09495 0
M  V30 5465 C 524.951 -1.56124 4.95904 0
M  V30 5466 C 522.636 -2.12131 4.55308 0
M  V30 5467 C 524.63 -1.19129 6.26169 0
M  V30 5468 C 522.317 -1.74747 5.85582 0
M  V30 5469 C 523.315 -1.28322 6.70837 0
M  V30 5470 O 523.003 -0.914491 7.98682 0
M  V30 5471 H 522.735 -0.388921 0.552916 0
M  V30 5472 H 525.289 -0.591288 1.96705 0
M  V30 5473 H 523.519 -3.12739 2.27445 0
M  V30 5474 H 525.208 -3.04409 2.68495 0
M  V30 5475 H 525.974 -1.48417 4.61733 0
M  V30 5476 H 521.853 -2.47217 3.89107 0
M  V30 5477 H 525.397 -0.828211 6.92666 0
M  V30 5478 H 521.294 -1.82109 6.19279 0
M  V30 5479 H 522.062 -1.04485 8.11804 0
M  V30 5480 N 524.725 -1.39134 -0.740242 0
M  V30 5481 C 525.655 -1.40165 -1.86751 0
M  V30 5482 C 526.636 -0.265708 -1.68012 0
M  V30 5483 O 527.821 -0.47076 -1.88408 0
M  V30 5484 C 524.951 -1.2392 -3.2444 0
M  V30 5485 C 523.905 -2.34858 -3.57807 0
M  V30 5486 C 523.231 -2.03707 -4.94376 0
M  V30 5487 C 524.531 -3.77159 -3.61315 0
M  V30 5488 H 526.225 -2.345 -1.86145 0
M  V30 5489 H 523.771 -1.12875 -0.89416 0
M  V30 5490 H 525.724 -1.23263 -4.02969 0
M  V30 5491 H 524.448 -0.26051 -3.25559 0
M  V30 5492 H 523.107 -2.34723 -2.81604 0
M  V30 5493 H 522.755 -1.04289 -4.9207 0
M  V30 5494 H 522.455 -2.78016 -5.17669 0
M  V30 5495 H 523.979 -2.04691 -5.75268 0
M  V30 5496 H 525.393 -3.79252 -4.29931 0
M  V30 5497 H 523.79 -4.50784 -3.96124 0
M  V30 5498 H 524.86 -4.08513 -2.61238 0
M  V30 5499 N 526.204 0.969867 -1.24223 0
M  V30 5500 C 527.481 1.68774 -0.988664 0
M  V30 5501 C 527.861 2.05342 0.489673 0
M  V30 5502 O 527.209 1.75486 1.46345 0
M  V30 5503 C 527.419 2.92135 -1.90941 0
M  V30 5504 C 528.767 3.64422 -2.17903 0
M  V30 5505 O 529.791 3.02188 -1.88576 0
M  V30 5506 O 528.65 4.76446 -2.67697 0
M  V30 5507 H 525.744 0.737736 -0.37373 0
M  V30 5508 H 528.29 1.02415 -1.35312 0
M  V30 5509 H 527.062 2.61788 -2.90831 0
M  V30 5510 H 526.685 3.66228 -1.54798 0
M  V30 5511 N 527.682 1.05563 1.17022 0
M  V30 5512 C 528.629 0.659893 2.21165 0
M  V30 5513 C 529.599 -0.339813 1.62587 0
M  V30 5514 O 530.784 -0.230378 1.89404 0
M  V30 5515 C 527.924 0.0447297 3.45071 0
M  V30 5516 C 527.037 1.09372 4.17926 0
M  V30 5517 C 526.172 0.445481 5.29329 0
M  V30 5518 C 525.211 1.47852 5.93975 0
M  V30 5519 N 524.348 0.854172 6.96885 0
M  V30 5520 H 529.188 1.55243 2.54369 0
M  V30 5521 H 526.725 0.776336 1.24946 0
M  V30 5522 H 528.683 -0.329404 4.15898 0
M  V30 5523 H 527.313 -0.811244 3.1244 0
M  V30 5524 H 526.365 1.58564 3.45777 0
M  V30 5525 H 527.677 1.87773 4.62107 0
M  V30 5526 H 526.831 0.0179688 6.06697 0
M  V30 5527 H 525.57 -0.370481 4.86291 0
M  V30 5528 H 524.575 1.91601 5.15334 0
M  V30 5529 H 525.8 2.29645 6.39093 0
M  V30 5530 H 523.746 0.0587882 6.55974 0
M  V30 5531 H 523.663 1.57567 7.39397 0
M  V30 5532 H 524.931 0.451559 7.78191 0
M  V30 5533 N 529.16 -1.33526 0.837174 0
M  V30 5534 C 530.11 -2.2672 0.241269 0
M  V30 5535 C 531.094 -1.49183 -0.602756 0
M  V30 5536 O 532.286 -1.71052 -0.455002 0
M  V30 5537 C 529.415 -3.38294 -0.584125 0
M  V30 5538 C 528.501 -4.23231 0.271315 0
M  V30 5539 N 528.892 -4.87473 1.34922 0
M  V30 5540 C 527.19 -4.45962 0.0580589 0
M  V30 5541 C 527.891 -5.50685 1.87405 0
M  V30 5542 N 526.867 -5.30732 1.17578 0
M  V30 5543 H 530.669 -2.73903 1.06558 0
M  V30 5544 H 528.183 -1.47411 0.68145 0
M  V30 5545 H 530.18 -4.04044 -1.02731 0
M  V30 5546 H 528.84 -2.9266 -1.40643 0
M  V30 5547 H 529.851 -4.88077 1.7321 0
M  V30 5548 H 526.528 -4.11052 -0.730938 0
M  V30 5549 H 527.918 -6.11845 2.77661 0
M  V30 5550 N 530.638 -0.59345 -1.46 0
M  V30 5551 C 531.548 0.135817 -2.34207 0
M  V30 5552 C 532.564 0.875008 -1.50398 0
M  V30 5553 O 533.74 0.835778 -1.83239 0
M  V30 5554 C 530.805 1.12977 -3.27776 0
M  V30 5555 C 529.866 0.394081 -4.27487 0
M  V30 5556 C 529.099 1.34068 -5.16586 0
M  V30 5557 O 529.322 2.5778 -5.08828 0
M  V30 5558 O 528.256 0.845426 -5.95933 0
M  V30 5559 H 532.082 -0.588691 -2.9794 0
M  V30 5560 H 529.667 -0.353784 -1.45151 0
M  V30 5561 H 531.549 1.70261 -3.85473 0
M  V30 5562 H 530.224 1.83556 -2.66625 0
M  V30 5563 H 529.131 -0.220869 -3.73447 0
M  V30 5564 H 530.464 -0.270939 -4.91454 0
M  V30 5565 N 532.116 1.54067 -0.331816 0
M  V30 5566 C 533.026 2.28322 0.539104 0
M  V30 5567 C 534.042 1.32985 1.1221 0
M  V30 5568 O 535.218 1.6601 1.1403 0
M  V30 5569 C 532.283 3.03277 1.68 0
M  V30 5570 C 531.344 4.14216 1.12798 0
M  V30 5571 C 530.577 4.85588 2.2145 0
M  V30 5572 O 530.8 4.56536 3.41952 0
M  V30 5573 O 529.734 5.72309 1.86404 0
M  V30 5574 H 533.56 3.03632 -0.0641692 0
M  V30 5575 H 531.145 1.49083 -0.0972365 0
M  V30 5576 H 533.027 3.50189 2.34405 0
M  V30 5577 H 531.702 2.30834 2.2693 0
M  V30 5578 H 530.609 3.71635 0.428782 0
M  V30 5579 H 531.942 4.88727 0.583698 0
M  V30 5580 N 533.594 0.0601682 1.57485 0
M  V30 5581 C 534.542 -0.928899 2.13247 0
M  V30 5582 C 535.536 -1.31616 1.06647 0
M  V30 5583 O 536.742 -1.29476 1.25043 0
M  V30 5584 H 533.117 -0.317455 0.681708 0
M  V30 5585 H 535.088 -0.433566 2.95233 0
M  V30 5586 C 533.837 -2.19121 2.69965 0
M  V30 5587 H 533.16 -1.90204 3.51657 0
M  V30 5588 H 534.6 -2.86465 3.12592 0
M  V30 5589 C 533.059 -2.94195 1.64168 0
M  V30 5590 O 533.589 -3.87468 1.05978 0
M  V30 5591 N 531.795 -2.57089 1.35476 0
M  V30 5592 H 531.342 -1.81314 1.82984 0
M  V30 5593 H 531.3 -3.07624 0.649196 0
M  V30 5594 N 535.072 -1.5615 -0.213296 0
M  V30 5595 C 536.022 -1.89485 -1.26804 0
M  V30 5596 C 537.006 -0.758713 -1.41889 0
M  V30 5597 O 538.198 -1.02127 -1.44565 0
M  V30 5598 C 535.327 -2.22219 -2.61675 0
M  V30 5599 C 534.413 -3.42245 -2.50458 0
M  V30 5600 N 534.804 -4.60645 -2.089 0
M  V30 5601 C 533.102 -3.46023 -2.81397 0
M  V30 5602 C 533.803 -5.42805 -2.09135 0
M  V30 5603 N 532.779 -4.82732 -2.49941 0
M  V30 5604 H 536.581 -2.78537 -0.937771 0
M  V30 5605 H 534.095 -1.56826 -0.421824 0
M  V30 5606 H 536.092 -2.44278 -3.37837 0
M  V30 5607 H 534.752 -1.34484 -2.95541 0
M  V30 5608 H 535.763 -4.85651 -1.79899 0
M  V30 5609 H 532.44 -2.68654 -3.1958 0
M  V30 5610 H 533.83 -6.47601 -1.79059 0
M  V30 5611 N 536.55 0.480323 -1.50102 0
M  V30 5612 C 537.966 0.813295 -1.37323 0
M  V30 5613 C 538.166 1.97027 -0.422206 0
M  V30 5614 O 537.222 2.5212 0.138563 0
M  V30 5615 C 538.535 1.13404 -2.78496 0
M  V30 5616 C 540.083 1.24104 -2.87345 0
M  V30 5617 C 540.558 1.59497 -4.29331 0
M  V30 5618 N 542.049 1.66507 -4.32238 0
M  V30 5619 C 542.784 1.95378 -5.39087 0
M  V30 5620 N 542.28 2.22333 -6.56155 0
M  V30 5621 N 544.073 1.96803 -5.26522 0
M  V30 5622 H 536.224 -0.282291 -2.10516 0
M  V30 5623 H 538.487 -0.063752 -0.945854 0
M  V30 5624 H 538.193 0.357064 -3.49883 0
M  V30 5625 H 538.067 2.07251 -3.15162 0
M  V30 5626 H 540.454 2.00871 -2.16183 0
M  V30 5627 H 540.535 0.282593 -2.54234 0
M  V30 5628 H 540.179 0.832736 -5.01027 0
M  V30 5629 H 540.109 2.56477 -4.59921 0
M  V30 5630 H 542.6 1.47753 -3.47818 0
M  V30 5631 H 542.913 2.43611 -7.33399 0
M  V30 5632 H 541.258 2.19745 -6.59346 0
M  V30 5633 H 544.449 1.75235 -4.34062 0
M  V30 5634 H 544.622 2.18969 -6.09883 0
M  V30 5635 N 538.028 1.39524 0.732853 0
M  V30 5636 C 539.439 1.32905 1.31122 0
M  V30 5637 C 539.79 -0.00558708 1.96199 0
M  V30 5638 O 538.915 -0.907706 1.96443 0
M  V30 5639 C 539.51 2.40704 2.38426 0
M  V30 5640 C 538.069 2.37599 2.91931 0
M  V30 5641 C 537.216 2.2248 1.65523 0
M  V30 5642 H 540.167 1.49581 0.530207 0
M  V30 5643 H 540.188 2.07616 3.18867 0
M  V30 5644 H 539.7 3.37829 1.91033 0
M  V30 5645 H 537.801 1.44119 3.43599 0
M  V30 5646 H 537.914 3.32538 3.44899 0
M  V30 5647 H 536.278 1.69691 1.8994 0
M  V30 5648 H 537.061 3.21577 1.20178 0
M  V30 5649 N 539.506 -0.963266 1.24736 0
M  V30 5650 C 540.436 -2.07628 1.06832 0
M  V30 5651 C 541.417 -1.70088 -0.0200566 0
M  V30 5652 O 542.602 -1.93636 0.147854 0
M  V30 5653 C 539.732 -3.40636 0.677069 0
M  V30 5654 C 538.686 -3.9215 1.71471 0
M  V30 5655 C 538.012 -5.21553 1.1784 0
M  V30 5656 C 539.312 -4.19493 3.11164 0
M  V30 5657 H 541.006 -2.22864 1.9993 0
M  V30 5658 H 538.552 -1.07093 0.96266 0
M  V30 5659 H 540.505 -4.17941 0.538792 0
M  V30 5660 H 539.229 -3.25313 -0.289612 0
M  V30 5661 H 537.888 -3.17005 1.84128 0
M  V30 5662 H 537.536 -5.02593 0.202195 0
M  V30 5663 H 537.236 -5.56988 1.87185 0
M  V30 5664 H 538.76 -6.01463 1.05233 0
M  V30 5665 H 540.174 -4.87487 3.01711 0
M  V30 5666 H 538.571 -4.66165 3.77902 0
M  V30 5667 H 539.641 -3.26097 3.58871 0
M  V30 5668 N 540.985 -1.06182 -1.16461 0
M  V30 5669 C 542.232 -0.777863 -1.86964 0
M  V30 5670 C 542.56 0.695602 -1.81636 0
M  V30 5671 O 541.815 1.52532 -1.22607 0
M  V30 5672 C 542.114 -1.21633 -3.36066 0
M  V30 5673 C 541.78 -2.69371 -3.61594 0
M  V30 5674 C 540.442 -3.09727 -3.6827 0
M  V30 5675 C 542.794 -3.64791 -3.7226 0
M  V30 5676 C 540.122 -4.44345 -3.83112 0
M  V30 5677 C 542.474 -4.99155 -3.88623 0
M  V30 5678 C 541.138 -5.39149 -3.93541 0
M  V30 5679 H 540.408 -0.28464 -0.68415 0
M  V30 5680 H 543.055 -1.33071 -1.37711 0
M  V30 5681 H 541.36 -0.582651 -3.87443 0
M  V30 5682 H 543.057 -0.973682 -3.88999 0
M  V30 5683 H 539.647 -2.37124 -3.57029 0
M  V30 5684 H 543.831 -3.34746 -3.66413 0
M  V30 5685 H 539.087 -4.74819 -3.85172 0
M  V30 5686 H 543.261 -5.72976 -3.95817 0
M  V30 5687 H 540.888 -6.43464 -4.04794 0
M  V30 5688 N 542.463 1.3308 -0.844243 0
M  V30 5689 C 543.413 2.26589 -0.253289 0
M  V30 5690 C 544.397 1.49501 0.594836 0
M  V30 5691 O 545.589 1.71291 0.445924 0
M  V30 5692 C 542.718 3.38599 0.566176 0
M  V30 5693 C 541.804 4.23081 -0.293756 0
M  V30 5694 N 542.195 4.86751 -1.37505 0
M  V30 5695 C 540.493 4.45925 -0.0817086 0
M  V30 5696 C 541.194 5.49684 -1.90323 0
M  V30 5697 N 540.17 5.30101 -1.20391 0
M  V30 5698 H 543.972 2.73334 -1.08009 0
M  V30 5699 H 541.486 1.47048 -0.689258 0
M  V30 5700 H 543.483 4.04584 1.00587 0
M  V30 5701 H 542.143 2.93401 1.39089 0
M  V30 5702 H 543.154 4.87151 -1.75796 0
M  V30 5703 H 539.831 4.11434 0.709129 0
M  V30 5704 H 541.221 6.10363 -2.80902 0
M  V30 5705 N 543.941 0.601185 1.45683 0
M  V30 5706 C 544.888 -0.121396 2.30481 0
M  V30 5707 C 545.858 -0.866232 1.41724 0
M  V30 5708 O 547.043 -0.85324 1.70659 0
M  V30 5709 C 544.183 -1.11704 3.26521 0
M  V30 5710 C 543.296 -0.373741 4.3038 0
M  V30 5711 C 542.431 -1.35854 5.13534 0
M  V30 5712 C 541.47 -0.602689 6.09126 0
M  V30 5713 N 540.607 -1.53645 6.85082 0
M  V30 5714 H 545.447 0.607732 2.91737 0
M  V30 5715 H 542.984 0.311502 1.43764 0
M  V30 5716 H 544.942 -1.70735 3.80664 0
M  V30 5717 H 543.572 -1.81366 2.67032 0
M  V30 5718 H 542.624 0.331962 3.78949 0
M  V30 5719 H 543.936 0.2163 4.98331 0
M  V30 5720 H 543.09 -2.02111 5.72046 0
M  V30 5721 H 541.829 -1.98251 4.45587 0
M  V30 5722 H 540.834 0.0735482 5.49751 0
M  V30 5723 H 542.059 0.0161467 6.79098 0
M  V30 5724 H 540.005 -2.14819 6.1983 0
M  V30 5725 H 539.922 -0.999688 7.49361 0
M  V30 5726 H 541.19 -2.1888 7.48139 0
M  V30 5727 N 545.419 -1.53889 0.339982 0
M  V30 5728 C 546.667 -2.00458 -0.257112 0
M  V30 5729 C 546.988 -1.22953 -1.51353 0
M  V30 5730 O 546.258 -0.335734 -1.93002 0
M  V30 5731 H 544.838 -0.740544 -0.0979965 0
M  V30 5732 H 547.5 -1.89386 0.460317 0
M  V30 5733 H 546.596 -3.08035 -0.502057 0
M  V30 5734 N 546.897 -0.0685191 -1.57451 0
M  V30 5735 C 548.308 0.464634 -1.80826 0
M  V30 5736 C 548.659 1.69847 -0.982169 0
M  V30 5737 O 547.784 2.15439 -0.203734 0
M  V30 5738 C 548.379 0.849721 -3.27971 0
M  V30 5739 C 546.938 1.32776 -3.52204 0
M  V30 5740 C 546.085 0.311332 -2.75547 0
M  V30 5741 H 549.036 -0.294248 -1.55948 0
M  V30 5742 H 549.057 1.71138 -3.39841 0
M  V30 5743 H 548.569 -0.0484736 -3.8807 0
M  V30 5744 H 546.67 2.24456 -2.97406 0
M  V30 5745 H 546.783 1.30794 -4.60901 0
M  V30 5746 H 545.147 0.787915 -2.42206 0
M  V30 5747 H 545.93 -0.579078 -3.38381 0
M  V30 5748 N 548.375 1.56261 0.205012 0
M  V30 5749 C 549.621 1.80306 0.9283 0
M  V30 5750 C 549.954 0.640932 1.83319 0
M  V30 5751 O 549.229 -0.359032 1.91158 0
M  V30 5752 C 549.512 3.14547 1.75306 0
M  V30 5753 C 549.365 4.41236 0.873562 0
M  V30 5754 C 550.684 3.45382 2.72762 0
M  V30 5755 H 547.803 0.655929 0.336044 0
M  V30 5756 H 550.445 1.88984 0.196211 0
M  V30 5757 H 548.595 3.0728 2.37721 0
M  V30 5758 H 550.267 4.60539 0.264887 0
M  V30 5759 H 548.51 4.33427 0.179773 0
M  V30 5760 H 549.181 5.31639 1.48541 0
M  V30 5761 H 551.657 3.52884 2.20481 0
M  V30 5762 H 550.533 4.40449 3.2756 0
M  V30 5763 H 550.794 2.68377 3.51321 0
M  V30 5764 N 549.853 -0.472356 1.50355 0
M  V30 5765 C 551.102 -1.2213 1.60522 0
M  V30 5766 C 551.415 -1.9312 0.310466 0
M  V30 5767 O 552.621 -2.69936 0.291029 0
M  V30 5768 C 551.077 -2.21909 2.83345 0
M  V30 5769 C 550.685 -1.56727 4.19691 0
M  V30 5770 C 552.429 -2.97453 3.02856 0
M  V30 5771 C 550.336 -2.54785 5.33703 0
M  V30 5772 H 549.266 -0.459543 0.597776 0
M  V30 5773 H 551.917 -0.491922 1.76783 0
M  V30 5774 H 550.299 -2.98133 2.60639 0
M  V30 5775 H 551.473 -0.863007 4.52646 0
M  V30 5776 H 549.788 -0.934685 4.05774 0
M  V30 5777 H 552.385 -3.70838 3.85205 0
M  V30 5778 H 552.728 -3.56764 2.14534 0
M  V30 5779 H 553.261 -2.28342 3.25737 0
M  V30 5780 H 550 -2.00214 6.24175 0
M  V30 5781 H 549.52 -3.23367 5.05167 0
M  V30 5782 H 551.199 -3.16639 5.64224 0
M  V30 5783 N 551.331 -1.39911 -0.725443 0
M  V30 5784 C 552.278 -1.39393 -1.83952 0
M  V30 5785 C 553.248 -0.252249 -1.64173 0
M  V30 5786 O 554.433 -0.44882 -1.85446 0
M  V30 5787 C 551.573 -1.25262 -3.21564 0
M  V30 5788 C 550.686 -2.49054 -3.52982 0
M  V30 5789 C 549.821 -2.27439 -4.80047 0
M  V30 5790 C 548.86 -3.46857 -5.04338 0
M  V30 5791 N 547.997 -3.24499 -6.22611 0
M  V30 5792 H 552.837 -2.34622 -1.83729 0
M  V30 5793 H 550.374 -1.16537 -0.897636 0
M  V30 5794 H 552.332 -1.15077 -4.01015 0
M  V30 5795 H 550.962 -0.33657 -3.21041 0
M  V30 5796 H 550.014 -2.69805 -2.6816 0
M  V30 5797 H 551.326 -3.37973 -3.66846 0
M  V30 5798 H 550.48 -2.14551 -5.67497 0
M  V30 5799 H 549.219 -1.35929 -4.68374 0
M  V30 5800 H 548.224 -3.60232 -4.15346 0
M  V30 5801 H 549.449 -4.3928 -5.17889 0
M  V30 5802 H 547.395 -2.35663 -6.12208 0
M  V30 5803 H 547.312 -4.06978 -6.37106 0
M  V30 5804 H 548.58 -3.15325 -7.12875 0
M  V30 5805 N 552.809 0.956637 -1.25245 0
M  V30 5806 C 554.055 1.70352 -1.10036 0
M  V30 5807 C 554.388 1.90869 0.358156 0
M  V30 5808 O 553.663 1.47819 1.26411 0
M  V30 5809 C 553.946 3.08766 -1.85298 0
M  V30 5810 C 553.799 2.95672 -3.38966 0
M  V30 5811 C 555.118 4.08622 -1.63451 0
M  V30 5812 H 552.237 0.618279 -0.401123 0
M  V30 5813 H 554.879 1.11212 -1.54051 0
M  V30 5814 H 553.029 3.59252 -1.47887 0
M  V30 5815 H 554.701 2.52527 -3.86041 0
M  V30 5816 H 552.944 2.31634 -3.6678 0
M  V30 5817 H 553.615 3.93776 -3.86839 0
M  V30 5818 H 556.091 3.67038 -1.96015 0
M  V30 5819 H 554.967 5.03514 -2.18551 0
M  V30 5820 H 555.228 4.3834 -0.575357 0
M  V30 5821 N 554.287 1.06798 1.15896 0
M  V30 5822 C 555.235 0.677525 2.22514 0
M  V30 5823 C 556.229 -0.308994 1.66558 0
M  V30 5824 O 557.435 -0.173308 1.79164 0
M  V30 5825 H 553.81 0.200994 0.724642 0
M  V30 5826 H 555.781 1.5865 2.52731 0
M  V30 5827 C 554.53 0.0854153 3.47595 0
M  V30 5828 H 553.853 0.835645 3.90969 0
M  V30 5829 H 555.293 -0.150199 4.23734 0
M  V30 5830 C 553.752 -1.1724 3.15843 0
M  V30 5831 O 554.282 -2.25965 3.32119 0
M  V30 5832 N 552.488 -1.07636 2.69931 0
M  V30 5833 H 552.035 -0.191559 2.56887 0
M  V30 5834 H 551.993 -1.91876 2.4906 0
M  V30 5835 N 555.766 -1.3263 0.851289 0
M  V30 5836 C 556.991 -2.02097 0.466006 0
M  V30 5837 C 557.416 -1.63574 -0.928709 0
M  V30 5838 O 556.774 -0.834665 -1.60944 0
M  V30 5839 C 556.822 -3.55425 0.608737 0
M  V30 5840 O 555.926 -4.10827 -0.359878 0
M  V30 5841 H 555.267 -0.636911 0.187724 0
M  V30 5842 H 557.797 -1.69253 1.14955 0
M  V30 5843 H 557.807 -4.04986 0.495006 0
M  V30 5844 H 556.482 -3.82806 1.62581 0
M  V30 5845 H 555.059 -3.72349 -0.202666 0
M  V30 5846 N 557.244 -0.608902 -1.45362 0
M  V30 5847 C 558.191 0.109172 -2.30542 0
M  V30 5848 C 559.161 0.858704 -1.42181 0
M  V30 5849 O 560.346 0.844178 -1.71109 0
M  V30 5850 C 557.486 1.09971 -3.27109 0
M  V30 5851 C 556.599 0.350911 -4.30572 0
M  V30 5852 C 555.734 1.33129 -5.14247 0
M  V30 5853 C 554.773 0.570377 -6.09437 0
M  V30 5854 N 553.91 1.5001 -6.85887 0
M  V30 5855 H 558.75 -0.623195 -2.91411 0
M  V30 5856 H 556.287 -0.319122 -1.43597 0
M  V30 5857 H 558.245 1.68714 -3.81564 0
M  V30 5858 H 556.875 1.79947 -2.67991 0
M  V30 5859 H 555.927 -0.352054 -3.78767 0
M  V30 5860 H 557.239 -0.242725 -4.98209 0
M  V30 5861 H 556.393 1.99074 -5.73109 0
M  V30 5862 H 555.132 1.95885 -4.46632 0
M  V30 5863 H 554.137 -0.102702 -5.49704 0
M  V30 5864 H 555.362 -0.0521607 -6.7908 0
M  V30 5865 H 553.308 2.11529 -6.2096 0
M  V30 5866 H 553.225 0.959934 -7.49881 0
M  V30 5867 H 554.493 2.14909 -7.49289 0
M  V30 5868 N 558.722 1.53707 -0.348139 0
M  V30 5869 C 559.654 2.22725 0.540946 0
M  V30 5870 C 560.667 1.2354 1.06027 0
M  V30 5871 O 561.856 1.49867 0.96964 0
M  V30 5872 C 558.956 2.89756 1.75768 0
M  V30 5873 C 558.129 4.15297 1.37285 0
M  V30 5874 C 557.188 4.65697 2.44976 0
M  V30 5875 O 556.214 5.29798 2.08092 0
M  V30 5876 N 557.416 4.42017 3.763 0
M  V30 5877 H 560.181 2.99658 -0.0501592 0
M  V30 5878 H 557.742 1.60979 -0.17248 0
M  V30 5879 H 559.734 3.20388 2.47252 0
M  V30 5880 H 558.304 2.16382 2.25605 0
M  V30 5881 H 557.524 3.9116 0.488584 0
M  V30 5882 H 558.812 4.96948 1.09179 0
M  V30 5883 H 558.21 3.9076 4.09051 0
M  V30 5884 H 556.767 4.77242 4.4394 0
M  V30 5885 N 560.2 0.0768682 1.57412 0
M  V30 5886 C 561.616 -0.279772 1.57129 0
M  V30 5887 C 561.816 -1.69688 1.08666 0
M  V30 5888 O 560.872 -2.40953 0.754843 0
M  V30 5889 C 562.185 -0.0848055 3.0058 0
M  V30 5890 C 563.733 -0.153954 3.12621 0
M  V30 5891 C 564.208 0.0127946 4.57998 0
M  V30 5892 N 565.699 -0.0426435 4.6318 0
M  V30 5893 C 566.434 0.0618892 5.73367 0
M  V30 5894 N 565.93 0.220229 6.9245 0
M  V30 5895 N 567.723 0.00446072 5.621 0
M  V30 5896 H 559.874 1.00297 1.87228 0
M  V30 5897 H 562.137 0.391565 0.863354 0
M  V30 5898 H 561.843 0.89325 3.40168 0
M  V30 5899 H 561.717 -0.834961 3.67843 0
M  V30 5900 H 564.104 -1.1225 2.72917 0
M  V30 5901 H 564.185 0.627389 2.47987 0
M  V30 5902 H 563.829 0.978128 4.98392 0
M  V30 5903 H 563.759 -0.788016 5.20671 0
M  V30 5904 H 566.25 -0.163226 3.77547 0
M  V30 5905 H 566.563 0.291999 7.72248 0
M  V30 5906 H 564.908 0.255658 6.9453 0
M  V30 5907 H 568.099 -0.117979 4.67951 0
M  V30 5908 H 568.272 0.0893796 6.47938 0
M  V30 5909 N 561.678 -1.56367 -0.196722 0
M  V30 5910 C 562.908 -1.84371 -0.932254 0
M  V30 5911 C 563.316 -0.657013 -1.77426 0
M  V30 5912 O 562.659 0.383576 -1.79651 0
M  V30 5913 C 562.721 -3.06454 -1.87952 0
M  V30 5914 C 562.385 -4.40425 -1.21962 0
M  V30 5915 C 563.382 -5.16457 -0.597343 0
M  V30 5916 C 561.067 -4.8716 -1.22396 0
M  V30 5917 C 563.061 -6.37399 0.0117913 0
M  V30 5918 C 560.748 -6.08038 -0.610995 0
M  V30 5919 C 561.746 -6.83 0.00580487 0
M  V30 5920 O 561.434 -8.01589 0.609173 0
M  V30 5921 H 561.166 -0.616377 -0.277589 0
M  V30 5922 H 563.72 -2.04329 -0.209452 0
M  V30 5923 H 561.95 -2.82377 -2.64197 0
M  V30 5924 H 563.639 -3.21118 -2.48271 0
M  V30 5925 H 564.405 -4.81445 -0.586142 0
M  V30 5926 H 560.284 -4.2877 -1.69345 0
M  V30 5927 H 563.828 -6.9585 0.493836 0
M  V30 5928 H 559.725 -6.42519 -0.619693 0
M  V30 5929 H 560.493 -8.16935 0.505919 0
M  V30 5930 N 563.156 0.464375 -1.50603 0
M  V30 5931 C 564.119 1.54393 -1.69397 0
M  V30 5932 C 565.119 1.50566 -0.564504 0
M  V30 5933 O 566.309 1.53066 -0.831645 0
M  V30 5934 C 563.441 2.9401 -1.72543 0
M  V30 5935 H 564.634 1.39044 -2.65719 0
M  V30 5936 H 562.187 0.69122 -1.40185 0
M  V30 5937 H 562.922 3.14795 -0.77938 0
M  V30 5938 H 562.707 2.98195 -2.54602 0
M  V30 5939 H 564.197 3.72375 -1.89015 0
M  V30 5940 N 564.634 1.40294 0.718013 0
M  V30 5941 C 565.859 1.41941 1.5122 0
M  V30 5942 C 566.284 0.0202371 1.88089 0
M  V30 5943 O 565.642 -0.971078 1.53101 0
M  V30 5944 C 565.69 2.3141 2.76554 0
M  V30 5945 O 564.794 1.75567 3.73162 0
M  V30 5946 H 564.135 0.482644 0.456016 0
M  V30 5947 H 566.665 1.84494 0.884478 0
M  V30 5948 H 566.675 2.46513 3.25108 0
M  V30 5949 H 565.35 3.33085 2.49053 0
M  V30 5950 H 563.927 1.69798 3.31999 0
M  V30 5951 N 566.112 -0.949982 1.2575 0
M  V30 5952 C 567.06 -2.06869 1.06339 0
M  V30 5953 C 568.054 -1.69399 -0.00708901 0
M  V30 5954 O 569.26 -1.79383 0.148897 0
M  V30 5955 H 565.635 -0.677197 0.326969 0
M  V30 5956 H 567.606 -2.20396 2.01167 0
M  V30 5957 C 566.355 -3.40503 0.703769 0
M  V30 5958 H 565.678 -3.69807 1.51931 0
M  V30 5959 H 567.118 -4.19623 0.607677 0
M  V30 5960 C 565.577 -3.31685 -0.5905 0
M  V30 5961 O 566.107 -3.67085 -1.63131 0
M  V30 5962 N 564.313 -2.84797 -0.577859 0
M  V30 5963 H 563.86 -2.56186 0.26951 0
M  V30 5964 H 563.818 -2.79279 -1.44398 0
M  V30 5965 N 567.59 -1.07411 -1.15328 0
M  V30 5966 C 568.553 -0.698914 -2.18284 0
M  V30 5967 C 569.553 0.261149 -1.58665 0
M  V30 5968 O 570.743 0.0420277 -1.74149 0
M  V30 5969 C 567.875 -0.0302427 -3.40887 0
M  V30 5970 H 569.068 -1.61045 -2.52991 0
M  V30 5971 H 566.621 -0.870724 -1.298 0
M  V30 5972 H 567.356 0.893505 -3.11748 0
M  V30 5973 H 567.141 -0.720759 -3.85419 0
M  V30 5974 H 568.631 0.21759 -4.17033 0
M  V30 5975 N 569.068 1.32177 -0.85831 0
M  V30 5976 C 570.314 1.97417 -0.46417 0
M  V30 5977 C 570.647 1.67746 0.978514 0
M  V30 5978 O 569.922 0.967654 1.68721 0
M  V30 5979 C 570.205 3.53069 -0.708094 0
M  V30 5980 C 570.058 3.92357 -2.19946 0
M  V30 5981 C 571.377 4.39783 -0.166881 0
M  V30 5982 H 568.496 0.717097 -0.17012 0
M  V30 5983 H 571.138 1.56499 -1.07741 0
M  V30 5984 H 569.288 3.88054 -0.186128 0
M  V30 5985 H 570.96 3.67533 -2.78779 0
M  V30 5986 H 569.203 3.41384 -2.67656 0
M  V30 5987 H 569.874 5.00841 -2.32082 0
M  V30 5988 H 572.35 4.11556 -0.613285 0
M  V30 5989 H 571.226 5.47671 -0.367093 0
M  V30 5990 H 571.487 4.32196 0.930559 0
M  V30 5991 N 570.547 0.616602 1.45037 0
M  V30 5992 C 571.772 0.120192 2.07051 0
M  V30 5993 C 572.197 -1.19008 1.45666 0
M  V30 5994 O 571.555 -1.7267 0.552692 0
M  V30 5995 C 571.603 0.00354901 3.606 0
M  V30 5996 O 570.707 -1.04431 3.98958 0
M  V30 5997 H 570.048 0.0781599 0.659384 0
M  V30 5998 H 572.578 0.849167 1.86146 0
M  V30 5999 H 572.588 -0.191754 4.07549 0
M  V30 6000 H 571.263 0.960239 4.04663 0
M  V30 6001 H 569.84 -0.824749 3.63665 0
M  V30 6002 N 572.025 -1.5352 0.356285 0
M  V30 6003 C 572.935 -2.29151 -0.502712 0
M  V30 6004 C 573.951 -1.34753 -1.1008 0
M  V30 6005 O 575.127 -1.67803 -1.11374 0
M  V30 6006 C 572.192 -3.05911 -1.63154 0
M  V30 6007 C 571.253 -4.15958 -1.06194 0
M  V30 6008 C 570.486 -4.8905 -2.13696 0
M  V30 6009 O 570.709 -4.61919 -3.34645 0
M  V30 6010 O 569.643 -5.75202 -1.77275 0
M  V30 6011 H 573.469 -3.03492 0.112466 0
M  V30 6012 H 571.054 -1.4891 0.120942 0
M  V30 6013 H 572.936 -3.53874 -2.28804 0
M  V30 6014 H 571.611 -2.34415 -2.23229 0
M  V30 6015 H 570.518 -3.7227 -0.369603 0
M  V30 6016 H 571.851 -4.89593 -0.505872 0
M  V30 6017 N 573.503 -0.0852151 -1.57369 0
M  V30 6018 C 574.466 0.8627 -2.12344 0
M  V30 6019 C 575.466 1.21746 -1.05046 0
M  V30 6020 O 576.656 1.14852 -1.30976 0
M  V30 6021 C 573.788 2.1618 -2.63589 0
M  V30 6022 H 574.981 0.385511 -2.97412 0
M  V30 6023 H 572.534 0.163663 -1.55441 0
M  V30 6024 H 573.269 2.68406 -1.82013 0
M  V30 6025 H 573.054 1.91723 -3.4203 0
M  V30 6026 H 574.544 2.84011 -3.06149 0
M  V30 6027 N 574.981 1.5647 0.188427 0
M  V30 6028 C 575.911 1.98101 1.23606 0
M  V30 6029 C 576.892 0.853961 1.47111 0
M  V30 6030 O 578.077 1.11879 1.58735 0
M  V30 6031 C 575.207 2.32624 2.57882 0
M  V30 6032 C 574.161 3.48129 2.48978 0
M  V30 6033 C 573.487 3.68347 3.87588 0
M  V30 6034 C 574.787 4.82112 2.00911 0
M  V30 6035 H 576.481 2.85864 0.890068 0
M  V30 6036 H 574.027 1.37532 0.426714 0
M  V30 6037 H 575.98 2.60343 3.3136 0
M  V30 6038 H 574.704 1.41751 2.94235 0
M  V30 6039 H 573.363 3.20511 1.77956 0
M  V30 6040 H 573.011 2.74793 4.21305 0
M  V30 6041 H 572.711 4.46055 3.82503 0
M  V30 6042 H 574.235 3.98449 4.62678 0
M  V30 6043 H 575.649 5.08819 2.64151 0
M  V30 6044 H 574.046 5.63337 2.06814 0
M  V30 6045 H 575.116 4.75249 0.96262 0
M  V30 6046 N 576.459 -0.456382 1.50847 0
M  V30 6047 C 577.708 -1.2042 1.61808 0
M  V30 6048 C 578.021 -1.9278 0.330932 0
M  V30 6049 O 579.227 -2.69612 0.319643 0
M  V30 6050 C 577.683 -2.18891 2.85683 0
M  V30 6051 C 577.291 -1.52267 4.2133 0
M  V30 6052 C 579.035 -2.94224 3.05994 0
M  V30 6053 C 576.942 -2.4911 5.36375 0
M  V30 6054 H 575.872 -0.453177 0.602616 0
M  V30 6055 H 578.523 -0.473144 1.77295 0
M  V30 6056 H 576.905 -2.95351 2.63787 0
M  V30 6057 H 578.079 -0.814949 4.53536 0
M  V30 6058 H 576.394 -0.891594 4.06743 0
M  V30 6059 H 578.991 -3.66732 3.89117 0
M  V30 6060 H 579.334 -3.54469 2.18306 0
M  V30 6061 H 579.867 -2.24874 3.28141 0
M  V30 6062 H 576.606 -1.93582 6.26264 0
M  V30 6063 H 576.126 -3.17991 5.08569 0
M  V30 6064 H 577.805 -3.10637 5.67551 0
M  V30 6065 N 577.937 -1.40673 -0.710563 0
M  V30 6066 C 579.353 -1.22813 -1.01928 0
M  V30 6067 C 579.553 -0.10687 -2.01216 0
M  V30 6068 O 578.609 0.533614 -2.46797 0
M  V30 6069 C 579.922 -2.57178 -1.5582 0
M  V30 6070 C 581.47 -2.64233 -1.67779 0
M  V30 6071 C 581.945 -3.98879 -2.25076 0
M  V30 6072 N 583.436 -4.00647 -2.32456 0
M  V30 6073 C 584.171 -5.01621 -2.77784 0
M  V30 6074 N 583.667 -6.12989 -3.22826 0
M  V30 6075 N 585.46 -4.88988 -2.77213 0
M  V30 6076 H 577.611 -2.12335 -0.05253 0
M  V30 6077 H 579.874 -0.9441 -0.085898 0
M  V30 6078 H 579.58 -3.39903 -0.903249 0
M  V30 6079 H 579.454 -2.78618 -2.54267 0
M  V30 6080 H 581.841 -1.81876 -2.3239 0
M  V30 6081 H 581.922 -2.46619 -0.679178 0
M  V30 6082 H 581.566 -4.81678 -1.61086 0
M  V30 6083 H 581.496 -4.13826 -3.25661 0
M  V30 6084 H 583.987 -3.20231 -2.0065 0
M  V30 6085 H 584.3 -6.85921 -3.55995 0
M  V30 6086 H 582.645 -6.16547 -3.20773 0
M  V30 6087 H 585.836 -4.01075 -2.41363 0
M  V30 6088 H 586.009 -5.67822 -3.12221 0
M  V30 6089 N 579.415 0.9433 -1.26252 0
M  V30 6090 C 580.325 2.07532 -1.09397 0
M  V30 6091 C 581.341 1.73977 -0.0280449 0
M  V30 6092 O 582.517 2.00067 -0.231337 0
M  V30 6093 C 579.582 3.39002 -0.726523 0
M  V30 6094 C 578.643 3.86353 -1.87163 0
M  V30 6095 C 577.876 5.11549 -1.52162 0
M  V30 6096 O 578.099 5.68834 -0.422385 0
M  V30 6097 O 577.033 5.53889 -2.35565 0
M  V30 6098 H 580.859 2.24658 -2.04359 0
M  V30 6099 H 578.444 1.05988 -1.05295 0
M  V30 6100 H 580.326 4.18 -0.534236 0
M  V30 6101 H 579.001 3.2312 0.193721 0
M  V30 6102 H 577.908 3.0831 -2.11886 0
M  V30 6103 H 579.241 4.06752 -2.77152 0
M  V30 6104 N 580.893 1.08022 1.14757 0
M  V30 6105 C 582.139 0.808705 1.85978 0
M  V30 6106 C 582.472 -0.663764 1.82504 0
M  V30 6107 O 581.747 -1.48765 1.25296 0
M  V30 6108 C 582.03 1.32623 3.34788 0
M  V30 6109 C 581.883 2.86375 3.46856 0
M  V30 6110 C 583.202 0.948291 4.29762 0
M  V30 6111 H 580.321 0.295244 0.675278 0
M  V30 6112 H 582.963 1.33917 1.34783 0
M  V30 6113 H 581.113 0.875002 3.78518 0
M  V30 6114 H 582.785 3.39839 3.11941 0
M  V30 6115 H 581.028 3.24232 2.88194 0
M  V30 6116 H 581.699 3.17658 4.51439 0
M  V30 6117 H 584.175 1.33722 3.94028 0
M  V30 6118 H 583.051 1.33765 5.32352 0
M  V30 6119 H 583.312 -0.145094 4.41862 0
M  V30 6120 N 582.371 -1.3172 0.865308 0
M  V30 6121 C 583.334 -2.26918 0.322627 0
M  V30 6122 C 584.334 -1.52031 -0.523751 0
M  V30 6123 O 585.524 -1.70973 -0.333727 0
M  V30 6124 C 582.656 -3.36558 -0.542338 0
M  V30 6125 H 583.849 -2.76432 1.16298 0
M  V30 6126 H 581.402 -1.42573 0.640512 0
M  V30 6127 H 582.137 -2.92329 -1.40407 0
M  V30 6128 H 581.922 -3.92048 0.0636395 0
M  V30 6129 H 583.412 -4.07465 -0.91446 0
M  V30 6130 N 583.85 -0.624285 -1.44708 0
M  V30 6131 C 584.798 0.0969952 -2.32398 0
M  V30 6132 C 585.792 0.842762 -1.46949 0
M  V30 6133 O 586.998 0.756436 -1.63334 0
M  V30 6134 H 583.373 0.0501306 -0.750327 0
M  V30 6135 H 585.344 -0.660767 -2.90992 0
M  V30 6136 C 584.093 1.06967 -3.30837 0
M  V30 6137 H 583.416 0.505242 -3.96595 0
M  V30 6138 H 584.856 1.54397 -3.94889 0
M  V30 6139 C 583.315 2.15153 -2.5925 0
M  V30 6140 O 583.845 3.23139 -2.3863 0
M  V30 6141 N 582.051 1.90898 -2.19103 0
M  V30 6142 H 581.598 1.03086 -2.36074 0
M  V30 6143 H 581.556 2.63485 -1.71531 0
M  V30 6144 N 585.328 1.53329 -0.364422 0
M  V30 6145 C 586.275 2.25698 0.482607 0
M  V30 6146 C 587.245 1.26325 1.07848 0
M  V30 6147 O 588.43 1.55104 1.11119 0
M  V30 6148 C 585.57 3.04873 1.61699 0
M  V30 6149 C 584.683 4.19135 1.0464 0
M  V30 6150 C 583.818 4.85754 2.14979 0
M  V30 6151 C 582.857 5.9205 1.5538 0
M  V30 6152 N 581.994 6.52365 2.59547 0
M  V30 6153 H 586.834 2.97666 -0.141032 0
M  V30 6154 H 584.371 1.46875 -0.0813692 0
M  V30 6155 H 586.329 3.49051 2.28516 0
M  V30 6156 H 584.959 2.35162 2.2113 0
M  V30 6157 H 584.011 3.79451 0.268553 0
M  V30 6158 H 585.323 4.95525 0.570653 0
M  V30 6159 H 584.477 5.3311 2.89619 0
M  V30 6160 H 583.216 4.08834 2.65906 0
M  V30 6161 H 582.221 5.44058 0.792549 0
M  V30 6162 H 583.446 6.7089 1.0528 0
M  V30 6163 H 581.392 5.78298 3.09689 0
M  V30 6164 H 581.309 7.2429 2.16655 0
M  V30 6165 H 582.577 7.0437 3.33892 0
M  V30 6166 N 586.806 0.0935595 1.57322 0
M  V30 6167 C 588.052 -0.571355 1.94585 0
M  V30 6168 C 588.385 -1.67929 0.975366 0
M  V30 6169 O 587.66 -1.94498 0.00816206 0
M  V30 6170 C 587.943 -1.12797 3.41978 0
M  V30 6171 C 587.796 -0.0251881 4.49793 0
M  V30 6172 C 589.115 -2.02682 3.90651 0
M  V30 6173 H 586.234 -0.206223 0.70756 0
M  V30 6174 H 588.876 0.163956 1.89291 0
M  V30 6175 H 587.026 -1.75461 3.4662 0
M  V30 6176 H 588.698 0.608979 4.57263 0
M  V30 6177 H 586.941 0.641399 4.29032 0
M  V30 6178 H 587.612 -0.455433 5.50118 0
M  V30 6179 H 590.088 -1.49925 3.88152 0
M  V30 6180 H 588.964 -2.38555 4.94351 0
M  V30 6181 H 589.225 -2.94362 3.29854 0
M  V30 6182 N 588.284 -1.56567 -0.180126 0
M  V30 6183 C 589.231 -1.95725 -1.22313 0
M  V30 6184 C 590.201 -0.819911 -1.44453 0
M  V30 6185 O 591.386 -1.07931 -1.57339 0
M  V30 6186 C 588.526 -2.31484 -2.55947 0
M  V30 6187 C 587.639 -3.58354 -2.4126 0
M  V30 6188 C 586.774 -3.83366 -3.67701 0
M  V30 6189 C 585.813 -5.03612 -3.47909 0
M  V30 6190 N 584.95 -5.24802 -4.66398 0
M  V30 6191 H 589.79 -2.84642 -0.882198 0
M  V30 6192 H 587.327 -1.4085 -0.42422 0
M  V30 6193 H 589.285 -2.50237 -3.33822 0
M  V30 6194 H 587.915 -1.45689 -2.88053 0
M  V30 6195 H 586.967 -3.47565 -1.54606 0
M  V30 6196 H 588.279 -4.46386 -2.22577 0
M  V30 6197 H 587.433 -4.02439 -4.54013 0
M  V30 6198 H 586.172 -2.93692 -3.89353 0
M  V30 6199 H 585.177 -4.84447 -2.59983 0
M  V30 6200 H 586.402 -5.94809 -3.27688 0
M  V30 6201 H 584.348 -4.38079 -4.88286 0
M  V30 6202 H 584.265 -6.07041 -4.50596 0
M  V30 6203 H 585.533 -5.48346 -5.54019 0
M  V30 6204 N 589.762 0.448376 -1.51087 0
M  V30 6205 C 591.008 1.20049 -1.6345 0
M  V30 6206 C 591.341 1.91121 -0.344444 0
M  V30 6207 O 590.616 1.83125 0.655396 0
M  V30 6208 C 590.899 2.22624 -2.83038 0
M  V30 6209 C 590.752 1.55708 -4.21989 0
M  V30 6210 C 592.071 3.23718 -2.98152 0
M  V30 6211 H 589.19 0.435085 -0.59487 0
M  V30 6212 H 591.832 0.491183 -1.83541 0
M  V30 6213 H 589.982 2.83117 -2.66039 0
M  V30 6214 H 591.654 0.986367 -4.50631 0
M  V30 6215 H 589.897 0.859647 -4.25197 0
M  V30 6216 H 590.568 2.30357 -5.01637 0
M  V30 6217 H 593.044 2.73269 -3.13788 0
M  V30 6218 H 591.92 3.92795 -3.83411 0
M  V30 6219 H 592.181 3.89179 -2.09743 0
M  V30 6220 N 591.24 1.41047 0.703093 0
M  V30 6221 C 592.651 1.35657 1.28274 0
M  V30 6222 C 593.002 0.0360309 1.96167 0
M  V30 6223 O 592.127 -0.865833 1.98324 0
M  V30 6224 C 592.722 2.45707 2.33267 0
M  V30 6225 C 591.281 2.43738 2.86825 0
M  V30 6226 C 590.428 2.25941 1.60767 0
M  V30 6227 H 593.379 1.50672 0.49836 0
M  V30 6228 H 593.4 2.14333 3.14391 0
M  V30 6229 H 592.912 3.41805 1.83824 0
M  V30 6230 H 591.013 1.51375 3.40465 0
M  V30 6231 H 591.126 3.39779 3.37768 0
M  V30 6232 H 589.49 1.73681 1.86298 0
M  V30 6233 H 590.273 3.24054 1.1333 0
M  V30 6234 N 592.718 -0.936591 1.26751 0
M  V30 6235 C 593.648 -2.05315 1.11212 0
M  V30 6236 C 594.629 -1.70092 0.0160262 0
M  V30 6237 O 595.814 -1.93279 0.188894 0
M  V30 6238 C 592.944 -3.39123 0.749171 0
M  V30 6239 C 591.898 -3.88425 1.79751 0
M  V30 6240 C 591.224 -5.18936 1.28876 0
M  V30 6241 C 592.524 -4.12798 3.19992 0
M  V30 6242 H 594.218 -2.18573 2.04613 0
M  V30 6243 H 591.764 -1.05027 0.985159 0
M  V30 6244 H 593.717 -4.16704 0.627323 0
M  V30 6245 H 592.441 -3.25855 -0.220543 0
M  V30 6246 H 591.1 -3.13028 1.90811 0
M  V30 6247 H 590.748 -5.02051 0.308757 0
M  V30 6248 H 590.448 -5.52892 1.98958 0
M  V30 6249 H 591.972 -5.99096 1.17967 0
M  V30 6250 H 593.386 -4.80977 3.11983 0
M  V30 6251 H 591.783 -4.58044 3.87705 0
M  V30 6252 H 592.853 -3.18412 3.65707 0
M  V30 6253 N 594.196 -1.08629 -1.14182 0
M  V30 6254 C 595.128 -0.676189 -2.18998 0
M  V30 6255 C 596.141 0.277871 -1.60411 0
M  V30 6256 O 597.33 0.0651771 -1.78381 0
M  V30 6257 C 594.43 0.0254916 -3.3889 0
M  V30 6258 C 593.603 -0.948039 -4.27002 0
M  V30 6259 C 592.662 -0.281268 -5.25448 0
M  V30 6260 O 591.688 -0.926378 -5.61611 0
M  V30 6261 N 592.89 0.967923 -5.72374 0
M  V30 6262 H 595.655 -1.57792 -2.54798 0
M  V30 6263 H 593.216 -0.972665 -1.29425 0
M  V30 6264 H 595.208 0.482554 -4.01813 0
M  V30 6265 H 593.778 0.829348 -3.01398 0
M  V30 6266 H 592.998 -1.58388 -3.6098 0
M  V30 6267 H 594.286 -1.60765 -4.82734 0
M  V30 6268 H 593.684 1.51175 -5.45126 0
M  V30 6269 H 592.241 1.36844 -6.37273 0
M  V30 6270 N 595.674 1.31259 -0.872281 0
M  V30 6271 C 596.951 1.91362 -0.404943 0
M  V30 6272 C 597.331 1.79362 1.11321 0
M  V30 6273 O 596.679 1.20277 1.94283 0
M  V30 6274 C 596.889 3.3749 -0.888893 0
M  V30 6275 C 598.237 4.14593 -0.916384 0
M  V30 6276 O 599.261 3.46282 -0.834701 0
M  V30 6277 O 598.12 5.3661 -1.03498 0
M  V30 6278 H 595.214 0.818016 -0.121569 0
M  V30 6279 H 597.76 1.39912 -0.960346 0
M  V30 6280 H 596.532 3.40249 -1.93251 0
M  V30 6281 H 596.155 3.96375 -0.311932 0
M  V30 6282 N 597.152 0.631951 1.44375 0
M  V30 6283 C 598.082 -0.0593243 2.33425 0
M  V30 6284 C 599.063 -0.833964 1.48253 0
M  V30 6285 O 600.248 -0.799682 1.76971 0
M  V30 6286 C 597.378 -1.04096 3.31333 0
M  V30 6287 C 596.332 -0.377899 4.26328 0
M  V30 6288 C 595.658 -1.4695 5.14111 0
M  V30 6289 C 596.958 0.716371 5.17364 0
M  V30 6290 H 598.652 0.684287 2.91475 0
M  V30 6291 H 596.198 0.330518 1.40156 0
M  V30 6292 H 598.151 -1.53331 3.92514 0
M  V30 6293 H 596.875 -1.81547 2.71493 0
M  V30 6294 H 595.534 0.0938054 3.6648 0
M  V30 6295 H 595.182 -2.2349 4.50623 0
M  V30 6296 H 594.882 -1.03121 5.78481 0
M  V30 6297 H 596.406 -1.96363 5.78164 0
M  V30 6298 H 597.82 0.307089 5.72477 0
M  V30 6299 H 596.217 1.07784 5.90341 0
M  V30 6300 H 597.287 1.58316 4.58327 0
M  V30 6301 N 598.631 -1.53133 0.372548 0
M  V30 6302 C 599.564 -2.22328 -0.514361 0
M  V30 6303 C 600.542 -1.21776 -1.07747 0
M  V30 6304 O 601.726 -1.50704 -1.13228 0
M  V30 6305 C 598.853 -2.92343 -1.71035 0
M  V30 6306 C 597.899 -4.07026 -1.27405 0
M  V30 6307 S 598.732 -5.34821 -0.269526 0
M  V30 6308 C 599.888 -6.08352 -1.47168 0
M  V30 6309 H 600.121 -2.9721 0.0732683 0
M  V30 6310 H 597.654 -1.53603 0.156673 0
M  V30 6311 H 599.612 -3.33296 -2.39634 0
M  V30 6312 H 598.273 -2.17173 -2.26925 0
M  V30 6313 H 597.466 -4.55056 -2.16656 0
M  V30 6314 H 597.068 -3.68001 -0.66719 0
M  V30 6315 H 599.36 -6.33507 -2.40157 0
M  V30 6316 H 600.303 -7.0053 -1.03263 0
M  V30 6317 H 600.711 -5.38893 -1.6809 0
M  V30 6318 N 600.109 -0.101901 -1.5727 0
M  V30 6319 C 601.355 0.561027 -1.94885 0
M  V30 6320 C 601.688 1.6741 -0.984258 0
M  V30 6321 O 600.963 1.94491 -0.0184767 0
M  V30 6322 C 601.246 1.10982 -3.42571 0
M  V30 6323 C 601.099 0.00133418 -4.498 0
M  V30 6324 C 602.418 2.00608 -3.9172 0
M  V30 6325 H 599.537 0.202467 -0.708644 0
M  V30 6326 H 602.179 -0.173992 -1.89202 0
M  V30 6327 H 600.329 1.73621 -3.47546 0
M  V30 6328 H 602.001 -0.63322 -4.56933 0
M  V30 6329 H 600.244 -0.664143 -4.28686 0
M  V30 6330 H 600.915 0.426253 -5.50352 0
M  V30 6331 H 603.391 1.47864 -3.88941 0
M  V30 6332 H 602.267 2.3593 -4.95609 0
M  V30 6333 H 602.528 2.92608 -3.3141 0
M  V30 6334 N 601.587 1.56661 0.17182 0
M  V30 6335 C 603.003 1.50768 0.52357 0
M  V30 6336 C 603.203 0.806072 1.84675 0
M  V30 6337 O 602.259 0.366233 2.4983 0
M  V30 6338 C 603.572 2.955 0.556793 0
M  V30 6339 C 605.12 3.06303 0.644029 0
M  V30 6340 C 605.595 4.52492 0.708148 0
M  V30 6341 N 607.086 4.56737 0.771051 0
M  V30 6342 C 607.821 5.67196 0.841229 0
M  V30 6343 N 607.317 6.87287 0.872272 0
M  V30 6344 N 609.11 5.55165 0.88021 0
M  V30 6345 H 601.261 2.00679 -0.695817 0
M  V30 6346 H 603.524 0.914219 -0.250814 0
M  V30 6347 H 603.23 3.49986 -0.346774 0
M  V30 6348 H 603.104 3.50119 1.40346 0
M  V30 6349 H 605.491 2.51851 1.53802 0
M  V30 6350 H 605.572 2.5477 -0.229297 0
M  V30 6351 H 605.216 5.07575 -0.181585 0
M  V30 6352 H 605.146 5.01781 1.59761 0
M  V30 6353 H 607.637 3.70274 0.755364 0
M  V30 6354 H 607.95 7.6722 0.92698 0
M  V30 6355 H 606.295 6.89898 0.840557 0
M  V30 6356 H 609.486 4.60263 0.852956 0
M  V30 6357 H 609.659 6.41271 0.931439 0
M  V30 6358 N 603.065 -0.440357 1.51323 0
M  V30 6359 C 604.013 -1.55492 1.72988 0
M  V30 6360 C 605.007 -1.58564 0.596138 0
M  V30 6361 O 606.213 -1.62345 0.777443 0
M  V30 6362 H 602.588 -0.516532 0.546533 0
M  V30 6363 H 604.559 -1.34392 2.66423 0
M  V30 6364 C 603.308 -2.93176 1.86931 0
M  V30 6365 H 602.631 -2.91543 2.73574 0
M  V30 6366 H 604.071 -3.70537 2.06103 0
M  V30 6367 C 602.53 -3.30988 0.628365 0
M  V30 6368 O 603.06 -4.01106 -0.218367 0
M  V30 6369 N 601.266 -2.86719 0.473339 0
M  V30 6370 H 600.813 -2.2983 1.16345 0
M  V30 6371 H 600.771 -3.12381 -0.355727 0
M  V30 6372 N 604.543 -1.41418 -0.695603 0
M  V30 6373 C 605.82 -1.31264 -1.45014 0
M  V30 6374 C 606.2 0.0597994 -2.11015 0
M  V30 6375 O 605.548 1.07403 -2.01685 0
M  V30 6376 C 605.758 -2.466 -2.4696 0
M  V30 6377 C 607.106 -2.87763 -3.12214 0
M  V30 6378 O 608.13 -2.46339 -2.57285 0
M  V30 6379 O 606.989 -3.59395 -4.11701 0
M  V30 6380 H 604.083 -0.516576 -0.645816 0
M  V30 6381 H 606.629 -1.53382 -0.726084 0
M  V30 6382 H 605.401 -3.38183 -1.96845 0
M  V30 6383 H 605.024 -2.26358 -3.26876 0
M  V30 6384 N 606.021 0.929856 -1.27246 0
M  V30 6385 C 607.249 1.71144 -1.16265 0
M  V30 6386 C 607.664 1.867 0.280786 0
M  V30 6387 O 607.021 1.38249 1.19136 0
M  V30 6388 C 607.072 3.11222 -1.83911 0
M  V30 6389 O 606.793 2.96398 -3.22614 0
M  V30 6390 C 608.294 4.05541 -1.79028 0
M  V30 6391 H 605.514 0.535499 -0.404328 0
M  V30 6392 H 608.058 1.16492 -1.68077 0
M  V30 6393 H 606.213 3.6274 -1.36009 0
M  V30 6394 H 606.627 3.8494 -3.56261 0
M  V30 6395 H 608.101 5.01351 -2.30978 0
M  V30 6396 H 608.578 4.32589 -0.759168 0
M  V30 6397 H 609.184 3.59947 -2.26535 0
M  V30 6398 N 607.499 1.09233 1.13605 0
M  V30 6399 C 608.91 0.846839 1.6639 0
M  V30 6400 C 609.261 -0.625031 1.85978 0
M  V30 6401 O 608.386 -1.48173 1.57714 0
M  V30 6402 C 608.981 1.5307 3.0225 0
M  V30 6403 C 607.54 1.33223 3.52035 0
M  V30 6404 C 606.687 1.58806 2.27323 0
M  V30 6405 H 609.638 1.25175 0.975541 0
M  V30 6406 H 609.659 0.96267 3.68121 0
M  V30 6407 H 609.171 2.60192 2.87961 0
M  V30 6408 H 607.272 0.282091 3.71531 0
M  V30 6409 H 607.385 2.0657 4.32279 0
M  V30 6410 H 605.749 1.01007 2.33815 0
M  V30 6411 H 606.532 2.67153 2.15602 0
M  V30 6412 N 608.977 -1.30795 0.87923 0
M  V30 6413 C 610.217 -1.98155 0.50141 0
M  V30 6414 C 610.581 -1.67925 -0.930863 0
M  V30 6415 O 611.782 -2.28572 -1.41451 0
M  V30 6416 C 610.053 -3.49184 0.761937 0
M  V30 6417 S 611.612 -4.36107 0.485361 0
M  V30 6418 H 608.43 -0.686025 0.186792 0
M  V30 6419 H 611.032 -1.59018 1.13726 0
M  V30 6420 H 609.736 -3.68676 1.80295 0
M  V30 6421 H 609.267 -3.93236 0.113432 0
M  V30 6422 H 611.282 -4.9154 -0.678467 0
M  V30 6423 N 610.455 -0.639598 -1.44038 0
M  V30 6424 C 611.703 -0.147188 -2.01563 0
M  V30 6425 C 612.024 1.2384 -1.50628 0
M  V30 6426 O 611.294 1.82452 -0.713316 0
M  V30 6427 H 609.874 -0.0514231 -0.745228 0
M  V30 6428 H 612.536 -0.828205 -1.76428 0
M  V30 6429 H 611.632 -0.121358 -3.11864 0
M  V30 6430 N 611.933 1.52934 -0.380664 0
M  V30 6431 C 613.161 2.05886 0.204599 0
M  V30 6432 C 613.576 1.25305 1.41223 0
M  V30 6433 O 612.933 0.297504 1.80059 0
M  V30 6434 C 612.984 3.56764 0.583249 0
M  V30 6435 O 612.705 4.34292 -0.576398 0
M  V30 6436 C 614.206 4.2603 1.2253 0
M  V30 6437 H 611.426 0.670193 0.0328991 0
M  V30 6438 H 613.97 1.97148 -0.543397 0
M  V30 6439 H 612.125 3.65603 1.28115 0
M  V30 6440 H 612.539 5.23819 -0.267119 0
M  V30 6441 H 614.013 5.32868 1.44068 0
M  V30 6442 H 614.49 3.80698 2.19011 0
M  V30 6443 H 615.096 4.21485 0.568407 0
M  V30 6444 N 613.412 0.11024 1.57214 0
M  V30 6445 C 614.64 -0.557834 1.99238 0
M  V30 6446 C 615.055 -1.60778 0.989734 0
M  V30 6447 O 614.412 -1.82491 -0.0186092 0
M  V30 6448 C 614.463 -1.19189 3.41286 0
M  V30 6449 O 614.184 -0.183919 4.37714 0
M  V30 6450 C 615.685 -1.94413 3.98395 0
M  V30 6451 H 612.905 -0.148392 0.654386 0
M  V30 6452 H 615.449 0.193996 2.03578 0
M  V30 6453 H 613.604 -1.89456 3.37913 0
M  V30 6454 H 614.018 -0.643475 5.20538 0
M  V30 6455 H 615.492 -2.34116 4.99894 0
M  V30 6456 H 615.969 -2.81592 3.3705 0
M  V30 6457 H 616.575 -1.28928 4.05287 0
M  V30 6458 N 614.89 -1.56749 -0.16351 0
M  V30 6459 C 616.139 -1.81626 -0.877211 0
M  V30 6460 C 616.452 -0.688791 -1.83071 0
M  V30 6461 O 617.658 -0.822697 -2.58735 0
M  V30 6462 C 616.114 -3.21858 -1.61045 0
M  V30 6463 C 615.722 -4.42494 -0.700195 0
M  V30 6464 C 617.466 -3.56021 -2.31192 0
M  V30 6465 C 615.373 -5.73748 -1.43412 0
M  V30 6466 H 614.303 -0.67731 -0.331312 0
M  V30 6467 H 616.954 -1.83039 -0.13006 0
M  V30 6468 H 615.336 -3.14784 -2.40264 0
M  V30 6469 H 616.51 -4.60766 0.0555849 0
M  V30 6470 H 614.825 -4.1626 -0.10799 0
M  V30 6471 H 617.422 -4.51333 -2.8671 0
M  V30 6472 H 617.765 -2.81277 -3.06902 0
M  V30 6473 H 618.298 -3.64682 -1.58909 0
M  V30 6474 H 615.037 -6.51543 -0.719186 0
M  V30 6475 H 614.557 -5.5944 -2.16302 0
M  V30 6476 H 616.236 -6.15975 -1.9795 0
M  V30 6477 N 616.368 0.432326 -1.51554 0
M  V30 6478 C 617.616 1.17901 -1.64146 0
M  V30 6479 C 617.937 1.91604 -0.362367 0
M  V30 6480 O 617.207 1.85764 0.621968 0
M  V30 6481 H 615.787 0.438206 -0.604966 0
M  V30 6482 H 618.449 0.495172 -1.88505 0
M  V30 6483 H 617.545 1.90584 -2.47152 0
M  V30 6484 N 617.846 1.41785 0.688094 0
M  V30 6485 C 619.257 1.3701 1.26828 0
M  V30 6486 C 619.608 0.056835 1.96118 0
M  V30 6487 O 618.733 -0.84475 1.99231 0
M  V30 6488 C 619.328 2.48168 2.30648 0
M  V30 6489 C 617.887 2.46766 2.84224 0
M  V30 6490 C 617.034 2.27633 1.58361 0
M  V30 6491 H 619.985 1.51192 0.482351 0
M  V30 6492 H 620.006 2.17655 3.121 0
M  V30 6493 H 619.518 3.43735 1.80188 0
M  V30 6494 H 617.619 1.54978 3.3884 0
M  V30 6495 H 617.732 3.43342 3.34145 0
M  V30 6496 H 616.096 1.75648 1.84445 0
M  V30 6497 H 616.879 3.25238 1.09887 0
M  V30 6498 N 619.324 -0.923095 1.27737 0
M  V30 6499 C 620.573 -1.66581 1.13727 0
M  V30 6500 C 620.886 -1.9304 -0.315433 0
M  V30 6501 O 622.092 -2.65309 -0.57651 0
M  V30 6502 C 620.548 -3.00047 1.98745 0
M  V30 6503 C 620.156 -2.8127 3.48699 0
M  V30 6504 C 621.9 -3.77887 1.93395 0
M  V30 6505 C 619.807 -4.1032 4.25901 0
M  V30 6506 H 618.737 -0.624834 0.422017 0
M  V30 6507 H 621.388 -1.02514 1.52194 0
M  V30 6508 H 619.77 -3.65197 1.53125 0
M  V30 6509 H 620.944 -2.24859 4.02213 0
M  V30 6510 H 619.259 -2.16854 3.55476 0
M  V30 6511 H 621.856 -4.73526 2.48348 0
M  V30 6512 H 622.199 -4.06264 0.908605 0
M  V30 6513 H 622.732 -3.19541 2.36935 0
M  V30 6514 H 619.471 -3.8712 5.28978 0
M  V30 6515 H 618.991 -4.66377 3.77163 0
M  V30 6516 H 620.67 -4.78648 4.35321 0
M  V30 6517 N 620.802 -1.09834 -1.13024 0
M  V30 6518 C 621.732 -0.763451 -2.20666 0
M  V30 6519 C 622.713 0.260778 -1.68089 0
M  V30 6520 O 623.898 0.127915 -1.93778 0
M  V30 6521 C 621.028 -0.187744 -3.46792 0
M  V30 6522 C 619.982 -1.14196 -4.12484 0
M  V30 6523 C 619.308 -0.427755 -5.32986 0
M  V30 6524 C 620.608 -2.48607 -4.59338 0
M  V30 6525 H 622.302 -1.66347 -2.48936 0
M  V30 6526 H 619.848 -0.801261 -1.19649 0
M  V30 6527 H 621.801 0.0586375 -4.21359 0
M  V30 6528 H 620.525 0.747485 -3.17931 0
M  V30 6529 H 619.184 -1.37369 -3.3989 0
M  V30 6530 H 618.832 0.511747 -5.0039 0
M  V30 6531 H 618.532 -1.06403 -5.77886 0
M  V30 6532 H 620.056 -0.189772 -6.10305 0
M  V30 6533 H 621.47 -2.29618 -5.25308 0
M  V30 6534 H 619.867 -3.08062 -5.14993 0
M  V30 6535 H 620.937 -3.09062 -3.73642 0
M  V30 6536 N 622.28 1.30327 -0.886154 0
M  V30 6537 C 623.243 2.26376 -0.358687 0
M  V30 6538 C 624.243 1.52845 0.499498 0
M  V30 6539 O 625.433 1.71483 0.306485 0
M  V30 6540 C 622.565 3.37379 0.488726 0
M  V30 6541 H 623.758 2.74547 -1.20681 0
M  V30 6542 H 621.311 1.41536 -0.663113 0
M  V30 6543 H 622.046 2.94526 1.35739 0
M  V30 6544 H 621.831 3.91897 -0.126003 0
M  V30 6545 H 623.321 4.08868 0.84952 0
M  V30 6546 N 623.758 0.647228 1.43697 0
M  V30 6547 C 624.983 0.164083 2.0675 0
M  V30 6548 C 625.408 -1.15892 1.48158 0
M  V30 6549 O 624.766 -1.71459 0.589194 0
M  V30 6550 C 624.814 0.0800368 3.60511 0
M  V30 6551 O 623.918 -0.959453 4.01084 0
M  V30 6552 H 623.259 0.0921288 0.657578 0
M  V30 6553 H 625.789 0.88846 1.84303 0
M  V30 6554 H 625.799 -0.105263 4.07864 0
M  V30 6555 H 624.474 1.04586 4.02535 0
M  V30 6556 H 623.051 -0.747425 3.65333 0
M  V30 6557 N 625.236 -1.5273 0.388769 0
M  V30 6558 C 626.652 -1.59553 0.0387049 0
M  V30 6559 C 626.852 -1.40278 -1.44652 0
M  V30 6560 O 625.908 -1.21951 -2.21098 0
M  V30 6561 C 627.221 -2.9625 0.515409 0
M  V30 6562 C 628.769 -3.09426 0.471621 0
M  V30 6563 C 629.244 -4.48572 0.924505 0
M  V30 6564 N 630.735 -4.54754 0.880496 0
M  V30 6565 C 631.47 -5.60653 1.20234 0
M  V30 6566 N 630.966 -6.74198 1.59463 0
M  V30 6567 N 632.759 -5.50755 1.12363 0
M  V30 6568 H 624.91 -1.63508 1.35569 0
M  V30 6569 H 627.173 -0.768097 0.555636 0
M  V30 6570 H 626.879 -3.15569 1.5527 0
M  V30 6571 H 626.753 -3.77102 -0.085792 0
M  V30 6572 H 629.14 -2.89804 -0.556588 0
M  V30 6573 H 629.221 -2.30528 1.10862 0
M  V30 6574 H 628.865 -4.68936 1.95094 0
M  V30 6575 H 628.795 -5.25935 0.264524 0
M  V30 6576 H 631.286 -3.73237 0.591815 0
M  V30 6577 H 631.599 -7.5097 1.82385 0
M  V30 6578 H 629.944 -6.75531 1.63349 0
M  V30 6579 H 633.135 -4.6093 0.816169 0
M  V30 6580 H 633.308 -6.33184 1.37777 0
M  V30 6581 N 626.714 -0.118576 -1.57153 0
M  V30 6582 C 627.644 0.828436 -2.1831 0
M  V30 6583 C 628.625 1.27758 -1.12303 0
M  V30 6584 O 629.81 1.34026 -1.40537 0
M  V30 6585 C 626.94 2.07876 -2.78217 0
M  V30 6586 C 625.894 1.76742 -3.89803 0
M  V30 6587 C 625.22 3.08801 -4.36516 0
M  V30 6588 C 626.52 1.03606 -5.11921 0
M  V30 6589 H 628.214 0.318824 -2.97698 0
M  V30 6590 H 625.76 0.151911 -1.43196 0
M  V30 6591 H 627.713 2.74584 -3.19659 0
M  V30 6592 H 626.437 2.61161 -1.96118 0
M  V30 6593 H 625.096 1.12424 -3.48936 0
M  V30 6594 H 624.744 3.6002 -3.51276 0
M  V30 6595 H 624.444 2.88743 -5.11763 0
M  V30 6596 H 625.968 3.76627 -4.80608 0
M  V30 6597 H 627.382 1.60467 -5.50385 0
M  V30 6598 H 625.779 0.936454 -5.92748 0
M  V30 6599 H 626.849 0.0227421 -4.84895 0
M  V30 6600 N 628.193 1.56834 0.155195 0
M  V30 6601 C 629.441 1.82536 0.867462 0
M  V30 6602 C 629.762 0.698168 1.82073 0
M  V30 6603 O 629.032 -0.280807 1.93877 0
M  V30 6604 H 627.612 0.673401 0.323327 0
M  V30 6605 H 630.274 1.94313 0.151156 0
M  V30 6606 H 629.37 2.77171 1.43466 0
M  V30 6607 N 629.671 -0.424282 1.51781 0
M  V30 6608 C 630.601 -1.52305 1.7699 0
M  V30 6609 C 631.582 -1.5839 0.620209 0
M  V30 6610 O 632.767 -1.73908 0.864268 0
M  V30 6611 C 629.897 -2.90271 1.90683 0
M  V30 6612 C 628.851 -2.99043 3.06198 0
M  V30 6613 C 628.177 -4.39116 3.05092 0
M  V30 6614 C 629.477 -2.7192 4.45934 0
M  V30 6615 H 631.171 -1.31461 2.68995 0
M  V30 6616 H 628.717 -0.630985 1.29439 0
M  V30 6617 H 630.67 -3.6711 2.06901 0
M  V30 6618 H 629.394 -3.12376 0.953365 0
M  V30 6619 H 628.053 -2.24646 2.89706 0
M  V30 6620 H 627.701 -4.58207 2.07498 0
M  V30 6621 H 627.401 -4.45912 3.82669 0
M  V30 6622 H 628.925 -5.17911 3.2342 0
M  V30 6623 H 630.339 -3.38487 4.62709 0
M  V30 6624 H 628.736 -2.90111 5.25315 0
M  V30 6625 H 629.806 -1.67445 4.55072 0
M  V30 6626 N 631.149 -1.42148 -0.680565 0
M  V30 6627 C 632.565 -1.24947 -0.992995 0
M  V30 6628 C 632.765 -0.149527 -2.00944 0
M  V30 6629 O 631.821 0.481145 -2.47873 0
M  V30 6630 C 633.134 -2.60426 -1.5033 0
M  V30 6631 C 634.682 -2.67733 -1.62137 0
M  V30 6632 C 635.157 -4.03564 -2.16565 0
M  V30 6633 N 636.648 -4.05488 -2.23905 0
M  V30 6634 C 637.383 -5.07401 -2.67081 0
M  V30 6635 N 636.879 -6.19698 -3.09751 0
M  V30 6636 N 638.672 -4.94758 -2.66778 0
M  V30 6637 H 630.823 -2.12399 -0.0074788 0
M  V30 6638 H 633.086 -0.94571 -0.0658529 0
M  V30 6639 H 632.792 -3.41743 -0.830947 0
M  V30 6640 H 632.666 -2.83949 -2.483 0
M  V30 6641 H 635.053 -1.86765 -2.2848 0
M  V30 6642 H 635.134 -2.48004 -0.626713 0
M  V30 6643 H 634.778 -4.84987 -1.50833 0
M  V30 6644 H 634.708 -4.20641 -3.1681 0
M  V30 6645 H 637.199 -3.24415 -1.93812 0
M  V30 6646 H 637.512 -6.93318 -3.41365 0
M  V30 6647 H 635.857 -6.23212 -3.07623 0
M  V30 6648 H 639.048 -4.06105 -2.32801 0
M  V30 6649 H 639.221 -5.74317 -3.00107 0
M  V30 6650 N 632.627 0.916307 -1.28225 0
M  V30 6651 C 633.873 1.66765 -1.154 0
M  V30 6652 C 634.206 1.91912 0.297251 0
M  V30 6653 O 633.481 1.51766 1.21644 0
M  V30 6654 C 633.764 3.02715 -1.95028 0
M  V30 6655 C 633.617 2.84738 -3.48201 0
M  V30 6656 C 634.936 4.03215 -1.76369 0
M  V30 6657 H 632.055 0.605205 -0.42059 0
M  V30 6658 H 634.697 1.06255 -1.57512 0
M  V30 6659 H 632.847 3.54365 -1.59242 0
M  V30 6660 H 634.519 2.40118 -3.9388 0
M  V30 6661 H 632.762 2.19848 -3.73964 0
M  V30 6662 H 633.433 3.8127 -3.99171 0
M  V30 6663 H 635.909 3.60617 -2.07593 0
M  V30 6664 H 634.785 4.96306 -2.34459 0
M  V30 6665 H 635.046 4.36288 -0.71452 0
M  V30 6666 N 634.105 1.10431 1.1244 0
M  V30 6667 C 635.035 0.775143 2.20258 0
M  V30 6668 C 636.016 -0.25186 1.68225 0
M  V30 6669 O 637.201 -0.117637 1.93843 0
M  V30 6670 C 634.331 0.206133 3.46688 0
M  V30 6671 C 633.285 1.16382 4.11873 0
M  V30 6672 C 632.611 0.456014 5.32752 0
M  V30 6673 C 633.911 2.5104 4.58013 0
M  V30 6674 H 635.605 1.67665 2.4805 0
M  V30 6675 H 633.151 0.807595 1.19222 0
M  V30 6676 H 635.104 -0.036291 4.21384 0
M  V30 6677 H 633.828 -0.730614 3.18323 0
M  V30 6678 H 632.487 1.39169 3.39157 0
M  V30 6679 H 632.135 -0.485203 5.00654 0
M  V30 6680 H 631.835 1.09466 5.77314 0
M  V30 6681 H 633.359 0.222135 6.10196 0
M  V30 6682 H 634.773 2.32401 5.24083 0
M  V30 6683 H 633.17 3.10789 5.13352 0
M  V30 6684 H 634.24 3.11039 3.71998 0
M  V30 6685 N 635.583 -1.29855 0.893053 0
M  V30 6686 C 636.86 -1.90694 0.435336 0
M  V30 6687 C 637.24 -1.8111 -1.08454 0
M  V30 6688 O 636.588 -1.23352 -1.92345 0
M  V30 6689 C 636.798 -3.36033 0.942472 0
M  V30 6690 C 638.146 -4.13083 0.982226 0
M  V30 6691 O 639.17 -3.4491 0.889686 0
M  V30 6692 O 638.029 -5.34896 1.12022 0
M  V30 6693 H 635.123 -0.815978 0.134567 0
M  V30 6694 H 637.669 -1.38367 0.982484 0
M  V30 6695 H 636.441 -3.37132 1.9864 0
M  V30 6696 H 636.064 -3.95828 0.374952 0
M  V30 6697 N 637.061 -0.65484 -1.43351 0
M  V30 6698 C 637.991 0.0221809 -2.33489 0
M  V30 6699 C 638.972 0.810272 -1.49561 0
M  V30 6700 O 640.157 0.771426 -1.78221 0
M  V30 6701 C 637.287 0.988117 -3.32947 0
M  V30 6702 C 636.241 0.310026 -4.26876 0
M  V30 6703 C 635.567 1.38752 -5.16384 0
M  V30 6704 C 636.867 -0.798589 -5.16159 0
M  V30 6705 H 638.561 -0.730571 -2.9035 0
M  V30 6706 H 636.107 -0.352773 -1.39612 0
M  V30 6707 H 638.06 1.47067 -3.94904 0
M  V30 6708 H 636.784 1.77205 -2.74346 0
M  V30 6709 H 635.443 -0.152097 -3.66284 0
M  V30 6710 H 635.091 2.16293 -4.54121 0
M  V30 6711 H 634.791 0.939051 -5.80048 0
M  V30 6712 H 636.315 1.87141 -5.81215 0
M  V30 6713 H 637.729 -0.398126 -5.71916 0
M  V30 6714 H 636.126 -1.17163 -5.88552 0
M  V30 6715 H 637.196 -1.65588 -4.55751 0
M  V30 6716 N 638.539 1.52521 -0.396863 0
M  V30 6717 C 639.787 2.01274 0.182536 0
M  V30 6718 C 640.108 1.28485 1.46685 0
M  V30 6719 O 639.378 0.407134 1.91623 0
M  V30 6720 H 637.958 0.743671 0.0704442 0
M  V30 6721 H 640.62 1.87547 -0.530289 0
M  V30 6722 H 639.716 3.09687 0.387385 0
M  V30 6723 N 640.017 0.126909 1.57088 0
M  V30 6724 C 641.242 -0.53997 2.00248 0
M  V30 6725 C 641.667 -1.58927 1.00618 0
M  V30 6726 O 641.025 -1.81288 -0.0210131 0
M  V30 6727 C 641.073 -1.13565 3.4225 0
M  V30 6728 O 640.177 -2.25103 3.45547 0
M  V30 6729 H 639.518 -0.13412 0.650314 0
M  V30 6730 H 642.048 0.217718 2.03438 0
M  V30 6731 H 642.058 -1.46925 3.80627 0
M  V30 6732 H 640.733 -0.367122 4.14277 0
M  V30 6733 H 639.31 -1.93123 3.18995 0
M  V30 6734 N 641.495 -1.56914 -0.146875 0
M  V30 6735 C 642.906 -1.72799 -0.706928 0
M  V30 6736 C 643.257 -0.741329 -1.81656 0
M  V30 6737 O 642.382 0.0920162 -2.16204 0
M  V30 6738 C 642.977 -3.13317 -1.28911 0
M  V30 6739 C 641.536 -3.30803 -1.79573 0
M  V30 6740 C 640.683 -2.68725 -0.684252 0
M  V30 6741 H 643.634 -1.58504 0.0787931 0
M  V30 6742 H 643.655 -3.13323 -2.15891 0
M  V30 6743 H 643.167 -3.85104 -0.481284 0
M  V30 6744 H 641.268 -2.64012 -2.62923 0
M  V30 6745 H 641.381 -4.38754 -1.92436 0
M  V30 6746 H 639.745 -2.29196 -1.11091 0
M  V30 6747 H 640.528 -3.43117 0.112134 0
M  V30 6748 N 642.974 0.416227 -1.52004 0
M  V30 6749 C 643.906 1.52552 -1.71058 0
M  V30 6750 C 644.919 1.51693 -0.59102 0
M  V30 6751 O 646.108 1.56087 -0.865973 0
M  V30 6752 C 643.208 2.91455 -1.72937 0
M  V30 6753 C 642.381 3.16584 -3.01816 0
M  V30 6754 C 641.44 4.35322 -2.95603 0
M  V30 6755 O 640.466 4.32947 -3.6952 0
M  V30 6756 N 641.668 5.40049 -2.12903 0
M  V30 6757 H 644.433 1.36604 -2.66757 0
M  V30 6758 H 641.994 0.60544 -1.50153 0
M  V30 6759 H 643.986 3.68944 -1.66321 0
M  V30 6760 H 642.556 3.00895 -0.847418 0
M  V30 6761 H 641.776 2.27203 -3.22137 0
M  V30 6762 H 643.064 3.30213 -3.87088 0
M  V30 6763 H 642.462 5.44823 -1.52265 0
M  V30 6764 H 641.019 6.16308 -2.1215 0
M  V30 6765 N 644.452 1.42507 0.673017 0
M  V30 6766 C 645.382 1.48916 1.79851 0
M  V30 6767 C 646.363 0.345566 1.66553 0
M  V30 6768 O 647.548 0.560116 1.85947 0
M  V30 6769 C 644.678 1.39258 3.18158 0
M  V30 6770 C 643.632 2.51662 3.46194 0
M  V30 6771 C 642.958 2.27062 4.84094 0
M  V30 6772 C 644.258 3.93968 3.42909 0
M  V30 6773 H 645.952 2.43114 1.74745 0
M  V30 6774 H 643.498 1.17013 0.839288 0
M  V30 6775 H 645.451 1.42349 3.96629 0
M  V30 6776 H 644.175 0.415542 3.23946 0
M  V30 6777 H 642.834 2.47891 2.70084 0
M  V30 6778 H 642.482 1.27648 4.86534 0
M  V30 6779 H 642.182 3.02398 5.03815 0
M  V30 6780 H 643.706 2.31905 5.64847 0
M  V30 6781 H 645.12 3.99332 4.11347 0
M  V30 6782 H 643.517 4.6917 3.74165 0
M  V30 6783 H 644.587 4.20512 2.41449 0
M  V30 6784 N 645.93 -0.909495 1.28709 0
M  V30 6785 C 646.893 -1.99399 1.13016 0
M  V30 6786 C 647.893 -1.60654 0.068536 0
M  V30 6787 O 649.083 -1.71334 0.314671 0
M  V30 6788 C 646.215 -3.33078 0.726085 0
M  V30 6789 H 647.408 -2.14751 2.09338 0
M  V30 6790 H 644.961 -1.09272 1.11756 0
M  V30 6791 H 645.696 -3.23428 -0.23771 0
M  V30 6792 H 645.481 -3.62562 1.49302 0
M  V30 6793 H 646.971 -4.12681 0.639058 0
M  V30 6794 N 647.408 -1.11026 -1.11852 0
M  V30 6795 C 648.341 -0.708501 -2.16923 0
M  V30 6796 C 649.319 0.293196 -1.59935 0
M  V30 6797 O 650.503 0.190641 -1.87533 0
M  V30 6798 C 647.63 -0.0463705 -3.38668 0
M  V30 6799 C 646.676 -1.01252 -4.14307 0
M  V30 6800 S 647.509 -2.53291 -4.71809 0
M  V30 6801 C 648.665 -1.88366 -5.96883 0
M  V30 6802 H 648.898 -1.59854 -2.50667 0
M  V30 6803 H 646.431 -0.927869 -1.2341 0
M  V30 6804 H 648.389 0.329314 -4.09177 0
M  V30 6805 H 647.05 0.820562 -3.03192 0
M  V30 6806 H 646.243 -0.496596 -5.01548 0
M  V30 6807 H 645.845 -1.33042 -3.49537 0
M  V30 6808 H 648.137 -1.21753 -6.6647 0
M  V30 6809 H 649.08 -2.73588 -6.53112 0
M  V30 6810 H 649.488 -1.34562 -5.48227 0
M  V30 6811 N 648.886 1.2938 -0.899927 0
M  V30 6812 C 649.836 2.25311 -0.349165 0
M  V30 6813 C 650.82 1.51889 0.530892 0
M  V30 6814 O 652.012 1.73028 0.372872 0
M  V30 6815 C 649.141 3.40696 0.422055 0
M  V30 6816 C 648.227 4.21455 -0.472935 0
M  V30 6817 N 648.618 4.8048 -1.58026 0
M  V30 6818 C 646.916 4.45177 -0.270767 0
M  V30 6819 C 647.617 5.41117 -2.13465 0
M  V30 6820 N 646.593 5.24518 -1.42766 0
M  V30 6821 H 650.395 2.68507 -1.19505 0
M  V30 6822 H 647.909 1.43992 -0.751006 0
M  V30 6823 H 649.906 4.08486 0.833369 0
M  V30 6824 H 648.566 2.99037 1.2652 0
M  V30 6825 H 649.577 4.79257 -1.96299 0
M  V30 6826 H 646.254 4.14071 0.533988 0
M  V30 6827 H 647.644 5.979 -3.06537 0
M  V30 6828 N 650.364 0.662433 1.43002 0
M  V30 6829 C 651.589 0.186003 2.06564 0
M  V30 6830 C 652.014 -1.14314 1.49379 0
M  V30 6831 O 651.372 -1.70824 0.607346 0
M  V30 6832 C 651.42 0.118269 3.60406 0
M  V30 6833 O 650.524 -0.916859 4.02079 0
M  V30 6834 H 649.865 0.0990981 0.656563 0
M  V30 6835 H 652.395 0.907958 1.8335 0
M  V30 6836 H 652.405 -0.0619981 4.07953 0
M  V30 6837 H 651.08 1.08849 4.01403 0
M  V30 6838 H 649.657 -0.708635 3.66105 0
M  V30 6839 N 651.842 -1.52309 0.404946 0
M  V30 6840 C 653.091 -2.00952 -0.173529 0
M  V30 6841 C 653.404 -1.29512 -1.46581 0
M  V30 6842 O 654.61 -1.6895 -2.12528 0
M  V30 6843 C 653.066 -3.58097 -0.359801 0
M  V30 6844 C 652.674 -4.38449 0.920138 0
M  V30 6845 C 654.418 -4.14984 -0.893794 0
M  V30 6846 C 652.325 -5.87227 0.701285 0
M  V30 6847 H 651.255 -0.750871 -0.0686244 0
M  V30 6848 H 653.906 -1.75687 0.529749 0
M  V30 6849 H 652.288 -3.79675 -1.12531 0
M  V30 6850 H 653.462 -4.28633 1.69147 0
M  V30 6851 H 651.777 -3.92859 1.38024 0
M  V30 6852 H 654.374 -5.23813 -1.0735 0
M  V30 6853 H 654.717 -3.72072 -1.8673 0
M  V30 6854 H 655.25 -3.97358 -0.187453 0
M  V30 6855 H 651.989 -6.34491 1.64624 0
M  V30 6856 H 651.509 -5.99792 -0.0308288 0
M  V30 6857 H 653.188 -6.46096 0.341846 0
M  V30 6858 N 653.32 -0.135238 -1.57019 0
M  V30 6859 C 654.736 0.221262 -1.58059 0
M  V30 6860 C 654.936 1.65538 -1.14889 0
M  V30 6861 O 653.992 2.37985 -0.843751 0
M  V30 6862 C 655.305 -0.0268114 -3.00688 0
M  V30 6863 C 656.853 0.0378206 -3.12977 0
M  V30 6864 C 657.328 -0.182769 -4.57635 0
M  V30 6865 N 658.819 -0.129292 -4.6302 0
M  V30 6866 C 659.554 -0.274648 -5.72742 0
M  V30 6867 N 659.05 -0.477075 -6.91155 0
M  V30 6868 N 660.843 -0.213077 -5.61696 0
M  V30 6869 H 652.994 -1.07177 -1.83376 0
M  V30 6870 H 655.257 -0.423338 -0.848227 0
M  V30 6871 H 654.963 -1.01889 -3.36618 0
M  V30 6872 H 654.837 0.697863 -3.70688 0
M  V30 6873 H 657.224 1.02043 -2.76896 0
M  V30 6874 H 657.305 -0.718996 -2.45487 0
M  V30 6875 H 656.949 -1.16243 -4.94419 0
M  V30 6876 H 656.879 0.59423 -5.23237 0
M  V30 6877 H 659.37 0.0229896 -3.77893 0
M  V30 6878 H 659.683 -0.578413 -7.70632 0
M  V30 6879 H 658.028 -0.513252 -6.93102 0
M  V30 6880 H 661.219 -0.0557796 -4.68067 0
M  V30 6881 H 661.392 -0.329796 -6.4716 0
M  V30 6882 N 654.798 1.5699 0.138552 0
M  V30 6883 C 655.708 2.02174 1.19008 0
M  V30 6884 C 656.724 0.938622 1.46512 0
M  V30 6885 O 657.9 1.24872 1.58016 0
M  V30 6886 C 654.965 2.40045 2.50159 0
M  V30 6887 C 654.026 3.62346 2.30226 0
M  V30 6888 C 653.259 3.98401 3.55123 0
M  V30 6889 O 653.482 3.35019 4.61647 0
M  V30 6890 O 652.416 4.91606 3.47285 0
M  V30 6891 H 656.242 2.91954 0.836452 0
M  V30 6892 H 653.827 1.45293 0.347907 0
M  V30 6893 H 655.709 2.65225 3.27465 0
M  V30 6894 H 654.384 1.53417 2.85035 0
M  V30 6895 H 653.291 3.42341 1.50843 0
M  V30 6896 H 654.624 4.49617 2.00262 0
M  V30 6897 N 656.276 -0.40816 1.52223 0
M  V30 6898 C 657.209 -1.51834 1.70357 0
M  V30 6899 C 658.187 -1.52973 0.551171 0
M  V30 6900 O 659.371 -1.71667 0.778642 0
M  V30 6901 C 656.498 -2.90362 1.74378 0
M  V30 6902 C 655.544 -3.0713 2.95928 0
M  V30 6903 S 656.377 -2.80342 4.56255 0
M  V30 6904 C 657.533 -4.21098 4.63063 0
M  V30 6905 H 657.766 -1.36223 2.64255 0
M  V30 6906 H 655.299 -0.599798 1.42274 0
M  V30 6907 H 657.257 -3.70199 1.77379 0
M  V30 6908 H 655.918 -3.03314 0.816063 0
M  V30 6909 H 655.111 -4.08482 2.95226 0
M  V30 6910 H 654.713 -2.3516 2.90819 0
M  V30 6911 H 657.005 -5.14749 4.40499 0
M  V30 6912 H 657.948 -4.26823 5.65002 0
M  V30 6913 H 658.356 -4.06114 3.92086 0
M  V30 6914 N 657.755 -1.42862 -0.66545 0
M  V30 6915 C 658.718 -1.46756 -1.76055 0
M  V30 6916 C 659.718 -0.353866 -1.56858 0
M  V30 6917 O 660.908 -0.615099 -1.62979 0
M  V30 6918 C 658.04 -1.30829 -3.14796 0
M  V30 6919 H 659.233 -2.44271 -1.73987 0
M  V30 6920 H 656.786 -1.29447 -0.875965 0
M  V30 6921 H 657.521 -0.342733 -3.22484 0
M  V30 6922 H 657.306 -2.11551 -3.30134 0
M  V30 6923 H 658.796 -1.36458 -3.94676 0
M  V30 6924 N 659.233 0.902656 -1.29189 0
M  V30 6925 C 660.473 1.6672 -1.18254 0
M  V30 6926 C 660.837 1.90199 0.262336 0
M  V30 6927 O 662.038 2.6421 0.494612 0
M  V30 6928 C 660.309 2.98178 -1.9704 0
M  V30 6929 S 661.868 3.89226 -2.02605 0
M  V30 6930 H 658.686 0.572432 -0.421714 0
M  V30 6931 H 661.288 1.07279 -1.63436 0
M  V30 6932 H 659.992 2.788 -3.01163 0
M  V30 6933 H 659.523 3.62661 -1.5245 0
M  V30 6934 H 661.538 4.82913 -1.14059 0
M  V30 6935 N 660.711 1.11618 1.11262 0
M  V30 6936 C 661.939 0.888739 1.8684 0
M  V30 6937 C 662.354 -0.561558 1.80255 0
M  V30 6938 O 661.711 -1.38782 1.18515 0
M  V30 6939 C 661.762 1.34422 3.35579 0
M  V30 6940 O 661.483 2.73766 3.42029 0
M  V30 6941 C 662.984 1.15246 4.28058 0
M  V30 6942 H 660.204 0.318152 0.590779 0
M  V30 6943 H 662.748 1.48398 1.40707 0
M  V30 6944 H 660.903 0.79239 3.7921 0
M  V30 6945 H 661.317 2.9355 4.34659 0
M  V30 6946 H 662.791 1.52015 5.30656 0
M  V30 6947 H 663.268 0.0922007 4.39103 0
M  V30 6948 H 663.874 1.69136 3.90222 0
M  V30 6949 N 662.189 -1.289 0.906776 0
M  V30 6950 C 663.417 -1.99401 0.551969 0
M  V30 6951 C 663.832 -1.67816 -0.865048 0
M  V30 6952 O 663.189 -0.927078 -1.57199 0
M  V30 6953 C 663.24 -3.53779 0.743152 0
M  V30 6954 O 662.961 -3.84248 2.1044 0
M  V30 6955 C 664.462 -4.41543 0.39424 0
M  V30 6956 H 661.682 -0.636926 0.211106 0
M  V30 6957 H 664.226 -1.64266 1.21807 0
M  V30 6958 H 662.381 -3.87201 0.124143 0
M  V30 6959 H 662.795 -4.78904 2.13895 0
M  V30 6960 H 664.269 -5.48957 0.578814 0
M  V30 6961 H 664.746 -4.34073 -0.669137 0
M  V30 6962 H 665.352 -4.13605 0.990491 0
M  V30 6963 N 663.667 -0.670007 -1.42649 0
M  V30 6964 C 664.915 -0.18991 -2.01206 0
M  V30 6965 C 665.236 1.20617 -1.53221 0
M  V30 6966 O 664.506 1.80898 -0.751856 0
M  V30 6967 H 663.086 -0.0672189 -0.743969 0
M  V30 6968 H 665.748 -0.865442 -1.74631 0
M  V30 6969 H 664.844 -0.187481 -3.11536 0
M  V30 6970 N 665.145 1.52092 -0.413018 0
M  V30 6971 C 666.391 2.02154 0.161737 0
M  V30 6972 C 666.724 1.29789 1.44459 0
M  V30 6973 O 665.999 0.405378 1.90229 0
M  V30 6974 C 666.282 3.5781 0.405463 0
M  V30 6975 C 666.135 4.40819 -0.894335 0
M  V30 6976 C 667.454 4.23821 1.18591 0
M  V30 6977 H 664.573 0.734769 0.0573077 0
M  V30 6978 H 667.215 1.81948 -0.547247 0
M  V30 6979 H 665.365 3.75158 1.0094 0
M  V30 6980 H 667.037 4.35175 -1.53039 0
M  V30 6981 H 665.28 4.06877 -1.50444 0
M  V30 6982 H 665.951 5.47819 -0.678144 0
M  V30 6983 H 668.427 4.10596 0.674573 0
M  V30 6984 H 667.303 5.32663 1.3252 0
M  V30 6985 H 667.564 3.83038 2.20758 0
M  V30 6986 N 666.623 0.143563 1.56945 0
M  V30 6987 C 667.553 -0.7936 2.196 0
M  V30 6988 C 668.534 -1.25955 1.14321 0
M  V30 6989 O 669.719 -1.31773 1.42651 0
M  V30 6990 C 666.849 -2.03424 2.81489 0
M  V30 6991 C 665.803 -1.70519 3.92565 0
M  V30 6992 C 665.129 -3.01817 4.41373 0
M  V30 6993 C 666.429 -0.95449 5.13504 0
M  V30 6994 H 668.123 -0.271423 2.98167 0
M  V30 6995 H 665.669 -0.12911 1.4342 0
M  V30 6996 H 667.622 -2.69463 3.23987 0
M  V30 6997 H 666.346 -2.58008 2.00248 0
M  V30 6998 H 665.005 -1.06859 3.5068 0
M  V30 6999 H 664.653 -3.54386 3.56959 0
M  V30 7000 H 664.353 -2.80565 5.16292 0
M  V30 7001 H 665.877 -3.68934 4.86539 0
M  V30 7002 H 667.291 -1.5169 5.52868 0
M  V30 7003 H 665.688 -0.842035 5.94163 0
M  V30 7004 H 666.758 0.0544033 4.84869 0
M  V30 7005 N 668.101 -1.57061 -0.130224 0
M  V30 7006 C 669.033 -1.96147 -1.18571 0
M  V30 7007 C 670.046 -0.859347 -1.38272 0
M  V30 7008 O 671.235 -1.13769 -1.37545 0
M  V30 7009 C 668.335 -2.23484 -2.54771 0
M  V30 7010 C 667.508 -3.54786 -2.55824 0
M  V30 7011 C 666.567 -3.70467 -3.73686 0
M  V30 7012 O 665.593 -4.42693 -3.57787 0
M  V30 7013 N 666.795 -3.08389 -4.91809 0
M  V30 7014 H 669.56 -2.87295 -0.853333 0
M  V30 7015 H 667.121 -1.58714 -0.319621 0
M  V30 7016 H 669.113 -2.312 -3.32158 0
M  V30 7017 H 667.683 -1.38518 -2.80235 0
M  V30 7018 H 666.903 -3.5836 -1.64232 0
M  V30 7019 H 668.191 -4.4111 -2.53573 0
M  V30 7020 H 667.589 -2.49656 -5.0763 0
M  V30 7021 H 666.146 -3.21642 -5.66912 0
M  V30 7022 N 669.579 0.400081 -1.52437 0
M  V30 7023 C 670.807 1.16768 -1.70801 0
M  V30 7024 C 671.222 1.84036 -0.421462 0
M  V30 7025 O 670.579 1.72242 0.603228 0
M  V30 7026 C 670.63 2.22403 -2.8499 0
M  V30 7027 O 670.351 1.57879 -4.08663 0
M  V30 7028 C 671.852 3.11974 -3.1494 0
M  V30 7029 H 669.072 0.350533 -0.57216 0
M  V30 7030 H 671.616 0.469534 -1.99037 0
M  V30 7031 H 669.771 2.87871 -2.59247 0
M  V30 7032 H 670.185 2.27982 -4.7236 0
M  V30 7033 H 671.659 3.82148 -3.9833 0
M  V30 7034 H 672.136 3.74858 -2.28863 0
M  V30 7035 H 672.742 2.52165 -3.42481 0
M  V30 7036 N 671.057 1.43213 0.657864 0
M  V30 7037 C 671.987 1.50815 1.78262 0
M  V30 7038 C 672.968 0.363211 1.66177 0
M  V30 7039 O 674.153 0.579806 1.85343 0
M  V30 7040 C 671.283 1.42625 3.16663 0
M  V30 7041 C 670.237 2.5532 3.43505 0
M  V30 7042 C 669.563 2.32184 4.81658 0
M  V30 7043 C 670.863 3.97583 3.38711 0
M  V30 7044 H 672.557 2.44954 1.72157 0
M  V30 7045 H 670.103 1.17896 0.82683 0
M  V30 7046 H 672.056 1.46548 3.95097 0
M  V30 7047 H 670.78 0.449877 3.23487 0
M  V30 7048 H 669.439 2.50742 2.6744 0
M  V30 7049 H 669.087 1.32801 4.85153 0
M  V30 7050 H 668.787 3.07724 5.00579 0
M  V30 7051 H 670.311 2.37883 5.62356 0
M  V30 7052 H 671.725 4.03673 4.07089 0
M  V30 7053 H 670.122 4.73112 3.69168 0
M  V30 7054 H 671.192 4.23049 2.36976 0
M  V30 7055 N 672.536 -0.895792 1.29666 0
M  V30 7056 C 673.764 -1.68001 1.20761 0
M  V30 7057 C 674.179 -1.87379 -0.231187 0
M  V30 7058 O 673.536 -1.41359 -1.15429 0
M  V30 7059 C 673.587 -3.06236 1.92098 0
M  V30 7060 O 673.308 -2.8774 3.30359 0
M  V30 7061 C 674.809 -4.00652 1.89717 0
M  V30 7062 H 672.029 -0.524591 0.418384 0
M  V30 7063 H 674.573 -1.11995 1.71106 0
M  V30 7064 H 672.728 -3.59007 1.45578 0
M  V30 7065 H 673.142 -3.75359 3.66342 0
M  V30 7066 H 674.616 -4.95051 2.44189 0
M  V30 7067 H 675.093 -4.30424 0.873595 0
M  V30 7068 H 675.699 -3.53815 2.35998 0
M  V30 7069 N 674.014 -1.12206 -1.10668 0
M  V30 7070 C 674.944 -0.810086 -2.18997 0
M  V30 7071 C 675.925 0.225065 -1.68604 0
M  V30 7072 O 677.11 0.086783 -1.94006 0
M  V30 7073 C 674.24 -0.261262 -3.46316 0
M  V30 7074 C 673.194 -1.2292 -4.09969 0
M  V30 7075 C 672.52 -0.540713 -5.31959 0
M  V30 7076 C 673.82 -2.58295 -4.53962 0
M  V30 7077 H 675.514 -1.7159 -2.45352 0
M  V30 7078 H 673.06 -0.82646 -1.17922 0
M  V30 7079 H 675.013 -0.0307522 -4.21389 0
M  V30 7080 H 673.737 0.679879 -3.19445 0
M  V30 7081 H 672.396 -1.44548 -3.369 0
M  V30 7082 H 672.044 0.405492 -5.01363 0
M  V30 7083 H 671.744 -1.18637 -5.75499 0
M  V30 7084 H 673.268 -0.319184 -6.09765 0
M  V30 7085 H 674.682 -2.40709 -5.20319 0
M  V30 7086 H 673.079 -3.18916 -5.08343 0
M  V30 7087 H 674.149 -3.16918 -3.67002 0
M  V30 7088 N 675.492 1.28418 -0.913599 0
M  V30 7089 C 676.739 1.94981 -0.546674 0
M  V30 7090 C 677.067 1.7192 0.909606 0
M  V30 7091 O 676.322 1.03314 1.66207 0
M  V30 7092 C 676.621 3.48283 -0.802099 0
M  V30 7093 C 676.287 3.91444 -2.2379 0
M  V30 7094 C 674.949 4.02939 -2.63046 0
M  V30 7095 C 677.301 4.13542 -3.17227 0
M  V30 7096 C 674.629 4.3391 -3.94891 0
M  V30 7097 C 676.981 4.45992 -4.48636 0
M  V30 7098 C 675.645 4.55698 -4.87746 0
M  V30 7099 H 674.915 0.713487 -0.200042 0
M  V30 7100 H 677.562 1.52756 -1.15489 0
M  V30 7101 H 675.867 3.91643 -0.111076 0
M  V30 7102 H 677.564 3.97903 -0.497375 0
M  V30 7103 H 674.154 3.83024 -1.9233 0
M  V30 7104 H 678.338 4.04114 -2.88107 0
M  V30 7105 H 673.594 4.39631 -4.24894 0
M  V30 7106 H 677.768 4.62038 -5.21051 0
M  V30 7107 H 675.395 4.79451 -5.89942 0
M  V30 7108 N 676.97 0.677563 1.42291 0
M  V30 7109 C 677.917 0.000947061 2.308 0
M  V30 7110 C 678.887 -0.789889 1.46116 0
M  V30 7111 O 680.072 -0.761578 1.74942 0
M  V30 7112 C 677.212 -0.942387 3.31984 0
M  V30 7113 C 676.325 -0.14508 4.31756 0
M  V30 7114 C 675.46 -1.08442 5.20013 0
M  V30 7115 C 674.499 -0.278958 6.11464 0
M  V30 7116 N 673.636 -1.17115 6.92263 0
M  V30 7117 H 678.476 0.761521 2.88106 0
M  V30 7118 H 676.013 0.38727 1.41911 0
M  V30 7119 H 677.971 -1.50317 3.89179 0
M  V30 7120 H 676.601 -1.66956 2.76271 0
M  V30 7121 H 675.653 0.532368 3.76656 0
M  V30 7122 H 676.965 0.48015 4.96484 0
M  V30 7123 H 676.119 -1.71504 5.81955 0
M  V30 7124 H 674.858 -1.74353 4.55469 0
M  V30 7125 H 673.863 0.364856 5.48588 0
M  V30 7126 H 675.088 0.376099 6.78058 0
M  V30 7127 H 673.034 -1.81661 6.30345 0
M  V30 7128 H 672.951 -0.601063 7.53607 0
M  V30 7129 H 674.219 -1.78915 7.58689 0
M  V30 7130 N 678.448 -1.51871 0.421078 0
M  V30 7131 C 679.696 -2.01539 -0.150492 0
M  V30 7132 C 680.017 -1.30803 -1.44623 0
M  V30 7133 O 679.287 -0.437568 -1.90951 0
M  V30 7134 H 677.867 -0.744698 -0.0586041 0
M  V30 7135 H 680.529 -1.8668 0.560059 0
M  V30 7136 H 679.625 -3.10264 -0.338068 0
M  V30 7137 N 679.926 -0.151884 -1.56866 0
M  V30 7138 C 681.173 0.498004 -1.96281 0
M  V30 7139 C 681.501 1.64551 -1.03698 0
M  V30 7140 O 680.756 1.95585 -0.0671497 0
M  V30 7141 C 681.055 1.04074 -3.41911 0
M  V30 7142 C 680.721 0.0111688 -4.50899 0
M  V30 7143 C 679.383 -0.271844 -4.80432 0
M  V30 7144 C 681.735 -0.68869 -5.1663 0
M  V30 7145 C 679.063 -1.26044 -5.73001 0
M  V30 7146 C 681.415 -1.66613 -6.10264 0
M  V30 7147 C 680.079 -1.9568 -6.38174 0
M  V30 7148 H 679.349 0.182233 -0.718242 0
M  V30 7149 H 681.996 -0.239746 -1.89993 0
M  V30 7150 H 680.301 1.85592 -3.45055 0
M  V30 7151 H 681.998 1.55224 -3.69738 0
M  V30 7152 H 678.588 0.241932 -4.27917 0
M  V30 7153 H 682.772 -0.48324 -4.93942 0
M  V30 7154 H 678.028 -1.49202 -5.92915 0
M  V30 7155 H 682.202 -2.21392 -6.60272 0
M  V30 7156 H 679.829 -2.72434 -7.09707 0
M  V30 7157 N 681.404 1.57128 0.121893 0
M  V30 7158 C 682.651 1.847 0.830188 0
M  V30 7159 C 682.979 0.736543 1.80015 0
M  V30 7160 O 682.234 -0.272358 1.93796 0
M  V30 7161 C 682.533 3.1874 1.61677 0
M  V30 7162 C 682.199 4.43901 0.791361 0
M  V30 7163 C 680.861 4.77887 0.563731 0
M  V30 7164 C 683.213 5.20753 0.215823 0
M  V30 7165 C 680.541 5.86168 -0.249737 0
M  V30 7166 C 682.893 6.29891 -0.584821 0
M  V30 7167 C 681.557 6.6241 -0.822794 0
M  V30 7168 H 680.827 0.675866 0.303787 0
M  V30 7169 H 683.474 1.91276 0.0926894 0
M  V30 7170 H 681.779 3.07728 2.42509 0
M  V30 7171 H 683.476 3.37295 2.16872 0
M  V30 7172 H 680.066 4.17272 0.978867 0
M  V30 7173 H 684.25 4.94851 0.378907 0
M  V30 7174 H 679.506 6.0979 -0.44336 0
M  V30 7175 H 683.68 6.88624 -1.03779 0
M  V30 7176 H 681.307 7.46147 -1.45496 0
M  V30 7177 N 682.882 -0.391992 1.52647 0
M  V30 7178 C 683.792 -1.503 1.80131 0
M  V30 7179 C 684.808 -1.59825 0.687882 0
M  V30 7180 O 685.984 -1.76218 0.975149 0
M  V30 7181 C 683.049 -2.85863 1.96171 0
M  V30 7182 C 682.11 -2.86084 3.20085 0
M  V30 7183 C 681.343 -4.15181 3.35351 0
M  V30 7184 O 681.566 -5.09981 2.55491 0
M  V30 7185 O 680.5 -4.22603 4.28591 0
M  V30 7186 H 684.326 -1.30007 2.74466 0
M  V30 7187 H 681.911 -0.579539 1.37701 0
M  V30 7188 H 683.793 -3.66236 2.08445 0
M  V30 7189 H 682.468 -3.06189 1.05025 0
M  V30 7190 H 681.375 -2.04504 3.13256 0
M  V30 7191 H 682.708 -2.7071 4.11068 0
M  V30 7192 N 684.36 -1.4356 -0.65026 0
M  V30 7193 C 685.29 -1.51758 -1.77459 0
M  V30 7194 C 686.271 -0.372019 -1.65982 0
M  V30 7195 O 687.456 -0.589627 -1.85033 0
M  V30 7196 C 684.586 -1.44302 -3.15902 0
M  V30 7197 C 683.54 -2.57138 -3.42146 0
M  V30 7198 C 682.866 -2.34735 -4.8042 0
M  V30 7199 C 684.166 -3.99373 -3.36598 0
M  V30 7200 H 685.86 -2.45863 -1.70855 0
M  V30 7201 H 683.406 -1.18333 -0.820566 0
M  V30 7202 H 685.359 -1.48641 -3.94314 0
M  V30 7203 H 684.083 -0.467026 -3.23244 0
M  V30 7204 H 682.742 -2.52157 -2.66106 0
M  V30 7205 H 682.39 -1.35372 -4.84441 0
M  V30 7206 H 682.09 -3.10375 -4.9894 0
M  V30 7207 H 683.614 -2.40862 -5.61086 0
M  V30 7208 H 685.028 -4.05826 -4.04942 0
M  V30 7209 H 683.425 -4.75063 -3.66654 0
M  V30 7210 H 684.495 -4.243 -2.34729 0
M  V30 7211 N 685.838 0.888903 -1.30139 0
M  V30 7212 C 687.085 1.64037 -1.18736 0
M  V30 7213 C 687.413 1.92771 0.258801 0
M  V30 7214 O 686.668 1.54427 1.20212 0
M  V30 7215 C 686.967 2.99041 -1.95728 0
M  V30 7216 C 686.633 2.89874 -3.45375 0
M  V30 7217 C 685.295 2.87082 -3.86183 0
M  V30 7218 C 687.647 2.78289 -4.40687 0
M  V30 7219 C 684.975 2.70536 -5.20603 0
M  V30 7220 C 687.327 2.63282 -5.75209 0
M  V30 7221 C 685.991 2.58861 -6.15262 0
M  V30 7222 H 685.261 0.600253 -0.434485 0
M  V30 7223 H 687.908 1.0338 -1.61198 0
M  V30 7224 H 686.213 3.63626 -1.45888 0
M  V30 7225 H 687.91 3.56139 -1.843 0
M  V30 7226 H 684.5 2.92856 -3.12943 0
M  V30 7227 H 688.684 2.79516 -4.10103 0
M  V30 7228 H 683.94 2.65526 -5.50732 0
M  V30 7229 H 688.114 2.5329 -6.48704 0
M  V30 7230 H 685.741 2.45799 -7.19366 0
M  V30 7231 N 687.317 1.12792 1.10072 0
M  V30 7232 C 688.728 0.899346 1.63611 0
M  V30 7233 C 689.079 -0.565547 1.87872 0
M  V30 7234 O 688.204 -1.43081 1.62348 0
M  V30 7235 C 688.799 1.62608 2.97227 0
M  V30 7236 C 687.358 1.44356 3.47618 0
M  V30 7237 C 686.505 1.65958 2.22156 0
M  V30 7238 H 689.456 1.28216 0.935223 0
M  V30 7239 H 689.477 1.0793 3.64872 0
M  V30 7240 H 688.989 2.69221 2.79538 0
M  V30 7241 H 687.09 0.400148 3.70445 0
M  V30 7242 H 687.203 2.20218 4.25489 0
M  V30 7243 H 685.567 1.08395 2.30484 0
M  V30 7244 H 686.35 2.73877 2.06993 0
M  V30 7245 N 688.795 -1.27931 0.920396 0
M  V30 7246 C 690.02 -1.99343 0.572478 0
M  V30 7247 C 690.445 -1.68267 -0.840696 0
M  V30 7248 O 689.803 -0.918805 -1.56294 0
M  V30 7249 C 689.851 -3.51698 0.796284 0
M  V30 7250 O 688.955 -4.12157 -0.141602 0
M  V30 7251 H 688.296 -0.626065 0.221221 0
M  V30 7252 H 690.826 -1.62921 1.23765 0
M  V30 7253 H 690.836 -4.01793 0.708984 0
M  V30 7254 H 689.511 -3.73649 1.82644 0
M  V30 7255 H 688.088 -3.729 -0.005007 0
M  V30 7256 N 690.273 -0.685099 -1.4193 0
M  V30 7257 C 691.203 -0.0273506 -2.33484 0
M  V30 7258 C 692.184 0.778366 -1.51246 0
M  V30 7259 O 693.369 0.733449 -1.79817 0
M  V30 7260 C 690.499 0.917272 -3.34968 0
M  V30 7261 C 689.453 0.21941 -4.27437 0
M  V30 7262 C 688.779 1.27768 -5.1921 0
M  V30 7263 C 690.079 -0.907894 -5.14349 0
M  V30 7264 H 691.773 -0.791994 -2.88735 0
M  V30 7265 H 689.319 -0.382308 -1.38832 0
M  V30 7266 H 691.272 1.38657 -3.97935 0
M  V30 7267 H 689.996 1.71346 -2.78043 0
M  V30 7268 H 688.655 -0.229757 -3.65879 0
M  V30 7269 H 688.303 2.06612 -4.58607 0
M  V30 7270 H 688.003 0.815803 -5.81909 0
M  V30 7271 H 689.527 1.7477 -5.85054 0
M  V30 7272 H 690.941 -0.519348 -5.70943 0
M  V30 7273 H 689.338 -1.2962 -5.85934 0
M  V30 7274 H 690.408 -1.75218 -4.52136 0
M  V30 7275 N 691.751 1.51645 -0.429126 0
M  V30 7276 C 692.976 2.06917 0.141399 0
M  V30 7277 C 693.401 1.29527 1.36398 0
M  V30 7278 O 692.759 0.33094 1.78254 0
M  V30 7279 C 692.807 3.57776 0.4504 0
M  V30 7280 O 691.911 3.82639 1.53821 0
M  V30 7281 H 691.252 0.663978 0.0054647 0
M  V30 7282 H 693.782 1.95355 -0.608093 0
M  V30 7283 H 693.792 4.01894 0.703249 0
M  V30 7284 H 692.467 4.13532 -0.443213 0
M  V30 7285 H 691.044 3.5039 1.27597 0
M  V30 7286 N 693.229 0.160201 1.56784 0
M  V30 7287 C 694.179 -0.786461 2.14007 0
M  V30 7288 C 695.163 -1.20046 1.07134 0
M  V30 7289 O 696.355 -1.16468 1.33283 0
M  V30 7290 C 693.484 -2.02024 2.77563 0
M  V30 7291 C 692.57 -1.62874 3.91578 0
M  V30 7292 N 692.961 -0.946176 4.96871 0
M  V30 7293 C 691.259 -1.92054 4.02531 0
M  V30 7294 C 691.96 -0.755084 5.76778 0
M  V30 7295 N 690.936 -1.29307 5.27997 0
M  V30 7296 H 694.738 -0.255879 2.92784 0
M  V30 7297 H 692.252 -0.0408778 1.62349 0
M  V30 7298 H 694.249 -2.70855 3.16928 0
M  V30 7299 H 692.909 -2.55587 2.00263 0
M  V30 7300 H 693.92 -0.605455 5.14349 0
M  V30 7301 H 690.597 -2.47374 3.36322 0
M  V30 7302 H 691.987 -0.216138 6.71552 0
M  V30 7303 N 694.707 -1.5719 -0.113559 0
M  V30 7304 C 695.655 -2.01725 -1.158 0
M  V30 7305 C 696.649 -0.915105 -1.42556 0
M  V30 7306 O 697.855 -1.10031 -1.42454 0
M  V30 7307 H 694.23 -0.64262 -0.390569 0
M  V30 7308 H 696.201 -2.88666 -0.755926 0
M  V30 7309 C 694.95 -2.44203 -2.47507 0
M  V30 7310 H 694.273 -3.28582 -2.27758 0
M  V30 7311 H 695.713 -2.79158 -3.19135 0
M  V30 7312 C 694.172 -1.30785 -3.10478 0
M  V30 7313 O 694.702 -0.626807 -3.9678 0
M  V30 7314 N 692.908 -1.06352 -2.7044 0
M  V30 7315 H 692.455 -1.61913 -2.00355 0
M  V30 7316 H 692.413 -0.306614 -3.12901 0
M  V30 7317 N 696.185 0.383891 -1.52853 0
M  V30 7318 C 697.115 1.47559 -1.80965 0
M  V30 7319 C 698.096 1.5669 -0.661986 0
M  V30 7320 O 699.281 1.71556 -0.910072 0
M  V30 7321 C 696.411 2.85114 -1.98312 0
M  V30 7322 C 695.365 2.9082 -3.14019 0
M  V30 7323 C 694.691 4.30873 -3.16627 0
M  V30 7324 C 695.991 2.60001 -4.52986 0
M  V30 7325 H 697.685 1.24283 -2.72386 0
M  V30 7326 H 695.231 0.596445 -1.31067 0
M  V30 7327 H 697.184 3.61496 -2.16561 0
M  V30 7328 H 695.908 3.09738 -1.03585 0
M  V30 7329 H 694.567 2.16886 -2.9556 0
M  V30 7330 H 694.215 4.52545 -2.19573 0
M  V30 7331 H 693.915 4.3561 -3.94357 0
M  V30 7332 H 695.439 5.09154 -3.37038 0
M  V30 7333 H 696.853 3.261 -4.71521 0
M  V30 7334 H 695.25 2.76081 -5.32822 0
M  V30 7335 H 696.32 1.5532 -4.59351 0
M  V30 7336 N 697.663 1.43903 0.642637 0
M  V30 7337 C 698.593 1.52697 1.76652 0
M  V30 7338 C 699.574 0.380816 1.65782 0
M  V30 7339 O 700.759 0.599432 1.84717 0
M  V30 7340 C 697.889 1.45975 3.15133 0
M  V30 7341 C 696.843 2.58949 3.40778 0
M  V30 7342 C 696.169 2.37279 4.79169 0
M  V30 7343 C 697.469 4.01153 3.34475 0
M  V30 7344 H 699.163 2.46766 1.69549 0
M  V30 7345 H 696.709 1.18767 0.814279 0
M  V30 7346 H 698.662 1.5073 3.93521 0
M  V30 7347 H 697.386 0.484162 3.22991 0
M  V30 7348 H 696.045 2.53564 2.64765 0
M  V30 7349 H 695.693 1.37939 4.83717 0
M  V30 7350 H 695.393 3.13016 4.97287 0
M  V30 7351 H 696.917 2.43834 5.59801 0
M  V30 7352 H 698.331 4.07968 4.02784 0
M  V30 7353 H 696.728 4.77001 3.64129 0
M  V30 7354 H 697.798 4.25539 2.32475 0
M  V30 7355 N 699.141 -0.881989 1.30609 0
M  V30 7356 C 700.387 -1.63647 1.19781 0
M  V30 7357 C 700.72 -1.92632 -0.246265 0
M  V30 7358 O 699.995 -1.54938 -1.17577 0
M  V30 7359 C 700.278 -2.97437 2.02985 0
M  V30 7360 C 700.131 -2.75406 3.55628 0
M  V30 7361 C 701.45 -3.98397 1.86997 0
M  V30 7362 H 698.569 -0.593841 0.436488 0
M  V30 7363 H 701.211 -1.02041 1.60273 0
M  V30 7364 H 699.361 -3.50018 1.68581 0
M  V30 7365 H 701.033 -2.2959 4.00107 0
M  V30 7366 H 699.276 -2.09856 3.79662 0
M  V30 7367 H 699.947 -3.70552 4.09139 0
M  V30 7368 H 702.423 -3.54986 2.17081 0
M  V30 7369 H 701.299 -4.89916 2.47536 0
M  V30 7370 H 701.56 -4.3424 0.829943 0
M  V30 7371 N 700.619 -1.13374 -1.09472 0
M  V30 7372 C 701.896 -0.806329 -1.78207 0
M  V30 7373 C 702.276 0.702191 -1.99079 0
M  V30 7374 O 701.624 1.63931 -1.59182 0
M  V30 7375 C 701.834 -1.59271 -3.10538 0
M  V30 7376 C 703.182 -1.78509 -3.85253 0
M  V30 7377 O 704.206 -1.55866 -3.20288 0
M  V30 7378 O 703.065 -2.16287 -5.01879 0
M  V30 7379 H 700.159 -0.29435 -0.772843 0
M  V30 7380 H 702.705 -1.23833 -1.16033 0
M  V30 7381 H 701.477 -2.61792 -2.90828 0
M  V30 7382 H 701.1 -1.15562 -3.80436 0
M  V30 7383 O 702.136 1.21979 -1.05846 0
M  V30 7384 H 702.827 1.79103 -0.73768 0
M  V30 END ATOM
M  V30 BEGIN BOND
M  V30 END BOND
M  V30 END CTAB
M  END
$$$$
