drugbank_target|P0AFK9 Spermidine/putrescine-binding periplasmic protein (DB03566)
 OpenBabel12092120033D

  0  0  0     0  0            999 V3000
M  V30 BEGIN CTAB
M  V30 COUNTS 5433 5503 0 0 0
M  V30 BEGIN ATOM
M  V30 1 H -0.908 1.98254 -0.117106 0
M  V30 2 N 0 1.576 0 0
M  V30 3 C 0.933 2.03868 1.02534 0
M  V30 4 C 1.911 0.928543 1.3348 0
M  V30 5 O 3.095 1.19667 1.45644 0
M  V30 6 C 0.222 2.43627 2.35294 0
M  V30 7 C -0.732 3.65373 2.2001 0
M  V30 8 S 0.101 5.13292 1.52614 0
M  V30 9 C 1.257 5.56322 2.86805 0
M  V30 10 H 1.49 2.90518 0.631377 0
M  V30 11 H -0.977 1.52953 0.210867 0
M  V30 12 H 0.981 2.67203 3.11629 0
M  V30 13 H -0.358 1.57376 2.7183 0
M  V30 14 H -1.165 3.90944 3.18086 0
M  V30 15 H -1.563 3.418 1.51819 0
M  V30 16 H 0.729 5.58782 3.83104 0
M  V30 17 H 1.672 6.56266 2.65933 0
M  V30 18 H 2.08 4.83886 2.90714 0
M  V30 19 N 1.4781 -0.272755 1.55222 0
M  V30 20 C 2.4251 -1.33716 1.88119 0
M  V30 21 C 3.3951 -1.49066 0.73271 0
M  V30 22 O 4.5801 -1.63469 0.984002 0
M  V30 23 C 1.7201 -2.69238 2.15882 0
M  V30 24 C 0.8331 -2.62108 3.43399 0
M  V30 25 C -0.0319 -3.89811 3.60861 0
M  V30 26 C -0.9929 -3.77193 4.8207 0
M  V30 27 N -1.8559 -4.9673 4.96189 0
M  V30 28 H 2.9841 -1.04962 2.78903 0
M  V30 29 H 0.5211 -0.507088 1.38083 0
M  V30 30 H 2.4791 -3.48089 2.29978 0
M  V30 31 H 1.1091 -2.96194 1.28331 0
M  V30 32 H 0.1611 -1.74967 3.37773 0
M  V30 33 H 1.4731 -2.48685 4.32386 0
M  V30 34 H 0.6271 -4.77103 3.74777 0
M  V30 35 H -0.6339 -4.06102 2.7006 0
M  V30 36 H -1.6289 -2.88284 4.68159 0
M  V30 37 H -0.4039 -3.62421 5.74307 0
M  V30 38 H -2.4579 -5.13431 4.08319 0
M  V30 39 H -2.5409 -4.85839 5.79221 0
M  V30 40 H -1.2729 -5.85594 5.1449 0
M  V30 41 N 2.9562 -1.48159 -0.537278 0
M  V30 42 C 3.9032 -1.62138 -1.64256 0
M  V30 43 C 4.8732 -0.463668 -1.59497 0
M  V30 44 O 6.0582 -0.686241 -1.78032 0
M  V30 45 C 3.1982 -1.66028 -3.02537 0
M  V30 46 C 2.3112 -2.92855 -3.17585 0
M  V30 47 C 1.4462 -2.87952 -4.46382 0
M  V30 48 C 0.4852 -4.09516 -4.54932 0
M  V30 49 N -0.3778 -4.02733 -5.75109 0
M  V30 50 H 4.4622 -2.56529 -1.51647 0
M  V30 51 H 1.9992 -1.27224 -0.738414 0
M  V30 52 H 3.9572 -1.66265 -3.82638 0
M  V30 53 H 2.5872 -0.751331 -3.13934 0
M  V30 54 H 1.6392 -3.02395 -2.30784 0
M  V30 55 H 2.9512 -3.82822 -3.19764 0
M  V30 56 H 2.1052 -2.8655 -5.34765 0
M  V30 57 H 0.8442 -1.95702 -4.46712 0
M  V30 58 H -0.1508 -4.11201 -3.64957 0
M  V30 59 H 1.0742 -5.02917 -4.56346 0
M  V30 60 H -0.9798 -3.13299 -5.76351 0
M  V30 61 H -1.0628 -4.86397 -5.78752 0
M  V30 62 H 0.2052 -4.05379 -6.65799 0
M  V30 63 N 4.4343 0.785586 -1.36625 0
M  V30 64 C 5.6803 1.5452 -1.32269 0
M  V30 65 C 6.0353 1.92159 0.0962266 0
M  V30 66 O 5.3283 1.60158 1.05167 0
M  V30 67 C 5.5223 2.83007 -2.1827 0
M  V30 68 C 5.3513 2.57925 -3.68382 0
M  V30 69 C 4.1213 2.52752 -4.37544 0
M  V30 70 C 6.3193 2.26861 -4.61561 0
M  V30 71 N 4.3013 2.19608 -5.73276 0
M  V30 72 C 5.6723 2.03738 -5.85569 0
M  V30 73 C 7.7273 2.129 -4.50087 0
M  V30 74 C 6.4303 1.68065 -6.9939 0
M  V30 75 C 8.4563 1.78626 -5.63779 0
M  V30 76 C 7.8183 1.56353 -6.86828 0
M  V30 77 H 3.9173 0.566301 -0.539283 0
M  V30 78 H 6.5013 0.917736 -1.71714 0
M  V30 79 H 4.6723 3.43614 -1.81063 0
M  V30 80 H 6.4043 3.48775 -2.05275 0
M  V30 81 H 3.1593 2.6813 -3.90389 0
M  V30 82 H 3.5833 2.05771 -6.44971 0
M  V30 83 H 8.2253 2.28808 -3.55537 0
M  V30 84 H 5.9433 1.50895 -7.93887 0
M  V30 85 H 9.5293 1.68502 -5.56865 0
M  V30 86 H 8.4093 1.30223 -7.73312 0
M  V30 87 N 5.9124 1.20967 1.01018 0
M  V30 88 C 7.1374 1.0503 1.78839 0
M  V30 89 C 7.5624 -0.395752 1.8389 0
M  V30 90 O 6.9204 -1.28529 1.27867 0
M  V30 91 C 6.9684 1.64602 3.2084 0
M  V30 92 O 6.0724 0.887988 4.02726 0
M  V30 93 H 5.4134 0.369987 0.551367 0
M  V30 94 H 7.9434 1.60399 1.27018 0
M  V30 95 H 7.9534 1.68607 3.71532 0
M  V30 96 H 6.6284 2.69841 3.16479 0
M  V30 97 H 5.2054 0.922648 3.61305 0
M  V30 98 N 7.3905 -1.2043 1.01659 0
M  V30 99 C 8.8065 -1.41852 0.731442 0
M  V30 100 C 9.0065 -1.89358 -0.688898 0
M  V30 101 O 8.0625 -2.06247 -1.45666 0
M  V30 102 C 9.3755 -2.44019 1.75714 0
M  V30 103 C 10.9235 -2.57785 1.77527 0
M  V30 104 C 11.3985 -3.63194 2.79023 0
M  V30 105 N 12.8895 -3.70678 2.77763 0
M  V30 106 C 13.6245 -4.51897 3.52954 0
M  V30 107 N 13.1205 -5.36921 4.37821 0
M  V30 108 N 14.9135 -4.4643 3.41551 0
M  V30 109 H 7.0645 -0.879093 1.93354 0
M  V30 110 H 9.3275 -0.448425 0.835236 0
M  V30 111 H 9.0335 -2.1611 2.77469 0
M  V30 112 H 8.9075 -3.43007 1.56927 0
M  V30 113 H 11.2945 -2.85023 0.764569 0
M  V30 114 H 11.3755 -1.58992 2.00387 0
M  V30 115 H 11.0195 -3.36699 3.80258 0
M  V30 116 H 10.9495 -4.61609 2.53425 0
M  V30 117 H 13.4405 -3.09944 2.16201 0
M  V30 118 H 13.7535 -5.95981 4.91962 0
M  V30 119 H 12.0985 -5.36424 4.41899 0
M  V30 120 H 15.2895 -3.79042 2.74672 0
M  V30 121 H 15.4625 -5.09491 4.00404 0
M  V30 122 N 8.8686 -0.792821 -1.36206 0
M  V30 123 C 9.8186 -0.166598 -2.27391 0
M  V30 124 C 10.8026 0.651479 -1.47121 0
M  V30 125 O 11.9946 0.510994 -1.69463 0
M  V30 126 C 9.1236 0.695033 -3.36191 0
M  V30 127 C 8.2096 -0.132019 -4.23894 0
M  V30 128 N 8.6006 -1.18822 -4.91645 0
M  V30 129 C 6.8986 0.0885952 -4.45912 0
M  V30 130 C 7.5996 -1.69198 -5.56549 0
M  V30 131 N 6.5756 -1.00065 -5.34311 0
M  V30 132 H 10.3776 -0.974947 -2.77258 0
M  V30 133 H 7.8916 -0.632616 -1.49572 0
M  V30 134 H 9.8886 1.1596 -4.00448 0
M  V30 135 H 8.5486 1.50189 -2.87877 0
M  V30 136 H 9.5596 -1.57069 -4.93507 0
M  V30 137 H 6.2366 0.865688 -4.08426 0
M  V30 138 H 7.6266 -2.57395 -6.20643 0
M  V30 139 N 10.3467 1.47872 -0.545128 0
M  V30 140 C 11.2767 2.32661 0.197793 0
M  V30 141 C 12.2577 1.43041 0.920504 0
M  V30 142 O 13.4427 1.71912 0.90333 0
M  V30 143 C 10.5727 3.24569 1.23582 0
M  V30 144 C 9.5267 4.23333 0.630323 0
M  V30 145 C 8.8527 5.0448 1.77211 0
M  V30 146 C 10.1527 5.20704 -0.407974 0
M  V30 147 H 11.8467 2.95024 -0.510045 0
M  V30 148 H 9.3927 1.4187 -0.246731 0
M  V30 149 H 11.3457 3.8272 1.76362 0
M  V30 150 H 10.0697 2.60236 1.97344 0
M  V30 151 H 8.7287 3.6639 0.123922 0
M  V30 152 H 8.3767 4.36561 2.49847 0
M  V30 153 H 8.0767 5.71339 1.37281 0
M  V30 154 H 9.6007 5.65487 2.3034 0
M  V30 155 H 11.0147 5.7329 0.033305 0
M  V30 156 H 9.4117 5.95699 -0.725486 0
M  V30 157 H 10.4817 4.66917 -1.30828 0
M  V30 158 N 11.8248 0.280983 1.55075 0
M  V30 159 C 12.7548 -0.597469 2.25727 0
M  V30 160 C 13.7358 -1.15417 1.24952 0
M  V30 161 O 14.9208 -1.18722 1.53684 0
M  V30 162 C 12.0508 -1.7789 2.98283 0
M  V30 163 C 11.0048 -1.35347 4.06036 0
M  V30 164 C 10.3308 -2.61846 4.66198 0
M  V30 165 C 11.6308 -0.499354 5.19907 0
M  V30 166 H 13.3248 -0.00824265 2.99399 0
M  V30 167 H 10.8708 -0.0025244 1.44 0
M  V30 168 H 12.8238 -2.39937 3.46422 0
M  V30 169 H 11.5478 -2.39405 2.22155 0
M  V30 170 H 10.2068 -0.756156 3.58717 0
M  V30 171 H 9.8548 -3.21632 3.86732 0
M  V30 172 H 9.5548 -2.3409 5.38958 0
M  V30 173 H 11.0788 -3.24732 5.1709 0
M  V30 174 H 12.4928 -1.02498 5.64063 0
M  V30 175 H 10.8898 -0.316424 5.99265 0
M  V30 176 H 11.9598 0.480459 4.82514 0
M  V30 177 N 13.3029 -1.57598 0.00835791 0
M  V30 178 C 14.2659 -2.07884 -0.965242 0
M  V30 179 C 15.2659 -0.989825 -1.26725 0
M  V30 180 O 16.4559 -1.25218 -1.21104 0
M  V30 181 C 13.5879 -2.52731 -2.28779 0
M  V30 182 H 14.7809 -2.95178 -0.530112 0
M  V30 183 H 12.3339 -1.54458 -0.239283 0
M  V30 184 H 13.0689 -1.68705 -2.76964 0
M  V30 185 H 12.8539 -3.32272 -2.08177 0
M  V30 186 H 14.3439 -2.91933 -2.98605 0
M  V30 187 N 14.781 0.264519 -1.55364 0
M  V30 188 C 15.744 1.31046 -1.88042 0
M  V30 189 C 16.744 1.41943 -0.755569 0
M  V30 190 O 17.934 1.40947 -1.02369 0
M  V30 191 C 15.066 2.69067 -2.09323 0
M  V30 192 H 16.259 1.03297 -2.81549 0
M  V30 193 H 13.812 0.502989 -1.47986 0
M  V30 194 H 14.547 3.01982 -1.18226 0
M  V30 195 H 14.332 2.62542 -2.91229 0
M  V30 196 H 15.822 3.44623 -2.35848 0
M  V30 197 N 16.2591 1.48442 0.529413 0
M  V30 198 C 17.5071 1.56179 1.28267 0
M  V30 199 C 17.8281 0.237721 1.93546 0
M  V30 200 O 17.0981 -0.740779 1.81354 0
M  V30 201 H 15.6781 0.575367 0.476405 0
M  V30 202 H 18.3401 1.84909 0.61602 0
M  V30 203 H 17.4361 2.34312 2.06165 0
M  V30 204 N 17.7372 -0.778329 1.37039 0
M  V30 205 C 18.7002 -1.87301 1.32102 0
M  V30 206 C 19.7002 -1.59198 0.226405 0
M  V30 207 O 20.8902 -1.67403 0.481861 0
M  V30 208 C 18.0222 -3.24309 1.05055 0
M  V30 209 H 19.2152 -1.93093 2.29467 0
M  V30 210 H 16.7682 -0.977358 1.21973 0
M  V30 211 H 17.5032 -3.24196 0.0819373 0
M  V30 212 H 17.2882 -3.46098 1.84279 0
M  V30 213 H 18.7782 -4.04382 1.04234 0
M  V30 214 N 19.2153 -1.21501 -1.00376 0
M  V30 215 C 20.1453 -0.999478 -2.11028 0
M  V30 216 C 21.1263 0.0759671 -1.6993 0
M  V30 217 O 22.3113 -0.0841106 -1.94018 0
M  V30 218 C 19.4413 -0.564709 -3.42678 0
M  V30 219 C 18.3953 -1.58486 -3.97576 0
M  V30 220 C 17.7213 -1.00628 -5.25146 0
M  V30 221 C 19.0213 -2.97204 -4.29496 0
M  V30 222 H 20.7153 -1.92495 -2.29317 0
M  V30 223 H 18.2613 -0.92693 -1.102 0
M  V30 224 H 20.2143 -0.401091 -4.19487 0
M  V30 225 H 18.9383 0.396411 -3.24185 0
M  V30 226 H 17.5973 -1.73606 -3.22888 0
M  V30 227 H 17.2453 -0.0368439 -5.02987 0
M  V30 228 H 16.9453 -1.68771 -5.62841 0
M  V30 229 H 18.4693 -0.854015 -6.04598 0
M  V30 230 H 19.8833 -2.8552 -4.97143 0
M  V30 231 H 18.2803 -3.62372 -4.78338 0
M  V30 232 H 19.3503 -3.47956 -3.3772 0
M  V30 233 N 20.6934 1.19889 -1.02296 0
M  V30 234 C 21.6564 2.21116 -0.603351 0
M  V30 235 C 22.6564 1.5738 0.329884 0
M  V30 236 O 23.8464 1.73802 0.117702 0
M  V30 237 C 20.9784 3.40696 0.117992 0
M  V30 238 H 22.1714 2.59754 -1.49893 0
M  V30 239 H 19.7244 1.33463 -0.813468 0
M  V30 240 H 20.4594 3.07569 1.0282 0
M  V30 241 H 20.2444 3.88188 -0.552511 0
M  V30 242 H 21.7344 4.15692 0.398696 0
M  V30 243 N 22.1715 0.800033 1.35784 0
M  V30 244 C 23.1015 0.220184 2.3246 0
M  V30 245 C 24.0825 -0.65073 1.57161 0
M  V30 246 O 25.2675 -0.582359 1.85263 0
M  V30 247 C 22.3975 -0.637353 3.41402 0
M  V30 248 C 21.3515 0.134531 4.27789 0
M  V30 249 C 20.6775 -0.844285 5.27992 0
M  V30 250 C 21.9775 1.32979 5.05088 0
M  V30 251 H 23.6715 1.02787 2.81203 0
M  V30 252 H 21.2175 0.495717 1.35199 0
M  V30 253 H 23.1705 -1.05302 4.08031 0
M  V30 254 H 21.8945 -1.47785 2.91251 0
M  V30 255 H 20.5535 0.531296 3.6273 0
M  V30 256 H 20.2015 -1.68011 4.74111 0
M  V30 257 H 19.9015 -0.332184 5.8666 0
M  V30 258 H 21.4255 -1.2583 5.97494 0
M  V30 259 H 22.8395 0.98934 5.64699 0
M  V30 260 H 21.2365 1.77593 5.7322 0
M  V30 261 H 22.3065 2.11978 4.36111 0
M  V30 262 N 23.6496 -1.47581 0.552962 0
M  V30 263 C 24.8976 -2.02082 0.0272703 0
M  V30 264 C 25.2186 -1.4301 -1.32563 0
M  V30 265 O 24.4886 -0.603745 -1.86365 0
M  V30 266 H 23.0686 -0.746966 0.00709182 0
M  V30 267 H 25.7306 -1.81033 0.722008 0
M  V30 268 H 24.8266 -3.12034 -0.0639951 0
M  V30 269 N 25.1277 -0.289203 -1.54924 0
M  V30 270 C 26.0607 0.633823 -2.19221 0
M  V30 271 C 27.0387 1.14174 -1.15772 0
M  V30 272 O 28.2227 1.21211 -1.44361 0
M  V30 273 C 25.3497 1.86592 -2.82668 0
M  V30 274 C 24.3957 1.49227 -3.99542 0
M  V30 275 S 25.2287 0.558312 -5.32582 0
M  V30 276 C 26.3847 1.79847 -5.99505 0
M  V30 277 H 26.6177 0.0875416 -2.97171 0
M  V30 278 H 24.1507 -0.0733899 -1.54225 0
M  V30 279 H 26.1087 2.57305 -3.19851 0
M  V30 280 H 24.7697 2.38335 -2.04585 0
M  V30 281 H 23.9627 2.40945 -4.42676 0
M  V30 282 H 23.5647 0.865193 -3.63855 0
M  V30 283 H 25.8567 2.7406 -6.19595 0
M  V30 284 H 26.7997 1.4099 -6.93922 0
M  V30 285 H 27.2077 1.96982 -5.29016 0
M  V30 286 N 26.6058 1.57591 -0.0167156 0
M  V30 287 C 27.8308 1.9598 0.67872 0
M  V30 288 C 28.2558 0.892546 1.65575 0
M  V30 289 O 27.6138 -0.147772 1.80697 0
M  V30 290 C 27.6618 3.33468 1.37227 0
M  V30 291 O 26.7658 3.28954 2.48722 0
M  V30 292 H 26.1068 0.639339 0.17928 0
M  V30 293 H 28.6368 2.04463 -0.0748802 0
M  V30 294 H 28.6468 3.69417 1.7319 0
M  V30 295 H 27.3218 4.10694 0.656007 0
M  V30 296 H 25.8988 3.04705 2.14963 0
M  V30 297 N 28.0839 -0.256276 1.55502 0
M  V30 298 C 29.0469 -1.30047 1.88734 0
M  V30 299 C 30.0469 -1.4154 0.763086 0
M  V30 300 O 31.2369 -1.40403 1.03115 0
M  V30 301 C 28.3689 -2.67953 2.10747 0
M  V30 302 H 29.5619 -1.01802 2.82093 0
M  V30 303 H 27.1149 -0.495134 1.4825 0
M  V30 304 H 27.8499 -3.01351 1.19825 0
M  V30 305 H 27.6349 -2.60993 2.92617 0
M  V30 306 H 29.1249 -3.43368 2.37673 0
M  V30 307 N 29.562 -1.4872 -0.521534 0
M  V30 308 C 30.525 -1.63379 -1.60748 0
M  V30 309 C 31.525 -0.50661 -1.52611 0
M  V30 310 O 32.715 -0.772601 -1.5613 0
M  V30 311 C 29.847 -1.61192 -3.00383 0
M  V30 312 H 31.04 -2.60217 -1.49087 0
M  V30 313 H 28.593 -1.37444 -0.744235 0
M  V30 314 H 29.328 -0.65863 -3.17541 0
M  V30 315 H 29.113 -2.43032 -3.07698 0
M  V30 316 H 30.603 -1.7466 -3.7932 0
M  V30 317 N 31.0401 0.771051 -1.3745 0
M  V30 318 C 31.9901 1.87456 -1.29785 0
M  V30 319 C 32.9741 1.59827 -0.185541 0
M  V30 320 O 34.1661 1.71945 -0.419997 0
M  V30 321 C 31.2951 3.24935 -1.1078 0
M  V30 322 C 30.3811 3.58514 -2.26558 0
M  V30 323 N 30.7721 3.6327 -3.5195 0
M  V30 324 C 29.0701 3.88683 -2.18727 0
M  V30 325 C 29.7711 3.93616 -4.283 0
M  V30 326 N 28.7471 4.09551 -3.57448 0
M  V30 327 H 32.5491 1.89386 -2.24745 0
M  V30 328 H 30.0631 0.967531 -1.30432 0
M  V30 329 H 32.0601 4.03881 -1.03374 0
M  V30 330 H 30.7201 3.24268 -0.16738 0
M  V30 331 H 31.7311 3.45458 -3.85848 0
M  V30 332 H 28.4081 3.95834 -1.32746 0
M  V30 333 H 29.7981 4.04066 -5.36824 0
M  V30 334 N 32.5182 1.22032 0.997298 0
M  V30 335 C 33.4812 0.987909 2.06816 0
M  V30 336 C 34.4812 -0.0440084 1.6074 0
M  V30 337 O 35.6712 0.194053 1.73116 0
M  V30 338 C 32.8032 0.49132 3.37341 0
M  V30 339 H 33.9962 1.93803 2.28868 0
M  V30 340 H 31.5492 1.03838 1.16822 0
M  V30 341 H 32.2842 -0.463364 3.20973 0
M  V30 342 H 32.0692 1.23575 3.72118 0
M  V30 343 H 33.5592 0.348824 4.16141 0
M  V30 344 N 33.9963 -1.19345 1.0293 0
M  V30 345 C 35.2733 -1.84811 0.640642 0
M  V30 346 C 35.6533 -1.91855 -0.88062 0
M  V30 347 O 35.0013 -1.43587 -1.7775 0
M  V30 348 C 35.2113 -3.23755 1.30321 0
M  V30 349 C 36.5593 -3.99912 1.42673 0
M  V30 350 O 37.5833 -3.33155 1.26041 0
M  V30 351 O 36.4423 -5.19494 1.6967 0
M  V30 352 H 33.5363 -0.796443 0.222726 0
M  V30 353 H 36.0823 -1.26831 1.12748 0
M  V30 354 H 34.8543 -3.13466 2.34211 0
M  V30 355 H 34.4773 -3.89381 0.804261 0
M  V30 356 N 35.4744 -0.807222 -1.35358 0
M  V30 357 C 36.7514 -0.311126 -1.9311 0
M  V30 358 C 37.1314 1.19937 -1.73719 0
M  V30 359 O 36.4794 1.99918 -1.10657 0
M  V30 360 C 36.6894 -0.723226 -3.41424 0
M  V30 361 C 38.0374 -0.713078 -4.18569 0
M  V30 362 O 39.0614 -0.664811 -3.49941 0
M  V30 363 O 37.9204 -0.772022 -5.41019 0
M  V30 364 H 35.0144 -0.081526 -0.822972 0
M  V30 365 H 37.5604 -0.890962 -1.4443 0
M  V30 366 H 36.3324 -1.76426 -3.4927 0
M  V30 367 H 35.9554 -0.118232 -3.97424 0
M  V30 368 N 36.9525 1.47285 -0.560781 0
M  V30 369 C 37.9005 2.31756 0.197942 0
M  V30 370 C 38.8945 1.43146 0.905854 0
M  V30 371 O 40.1005 1.59891 0.826733 0
M  V30 372 H 36.4755 0.747438 0.0827049 0
M  V30 373 H 38.4465 2.9359 -0.533629 0
M  V30 374 C 37.1955 3.25874 1.21249 0
M  V30 375 H 36.5185 3.94023 0.67719 0
M  V30 376 H 37.9585 3.87803 1.71419 0
M  V30 377 C 36.4175 2.49651 2.26221 0
M  V30 378 O 36.9475 2.24355 3.33208 0
M  V30 379 N 35.1535 2.10597 2.00243 0
M  V30 380 H 34.7005 2.31369 1.13252 0
M  V30 381 H 34.6585 1.59913 2.70694 0
M  V30 382 N 38.4306 0.297415 1.54768 0
M  V30 383 C 39.3786 -0.596051 2.24833 0
M  V30 384 C 40.3726 -1.13992 1.25308 0
M  V30 385 O 41.5786 -1.09098 1.4317 0
M  V30 386 H 37.9536 -0.210814 0.721846 0
M  V30 387 H 39.9246 0.0174667 2.98395 0
M  V30 388 C 38.6736 -1.75818 2.99972 0
M  V30 389 H 37.9966 -1.3489 3.76357 0
M  V30 390 H 39.4366 -2.35949 3.52284 0
M  V30 391 C 37.8956 -2.66014 2.06732 0
M  V30 392 O 38.4256 -3.67009 1.63302 0
M  V30 393 N 36.6316 -2.33669 1.72763 0
M  V30 394 H 36.1786 -1.51586 2.08277 0
M  V30 395 H 36.1366 -2.94285 1.10652 0
M  V30 396 N 39.9087 -1.5758 0.0250728 0
M  V30 397 C 41.1367 -1.9593 -0.664747 0
M  V30 398 C 41.5517 -0.901352 -1.65895 0
M  V30 399 O 40.9087 0.117255 -1.82123 0
M  V30 400 C 40.9597 -3.34342 -1.37468 0
M  V30 401 O 40.6807 -4.36079 -0.420324 0
M  V30 402 C 42.1817 -3.873 -2.1567 0
M  V30 403 H 39.4017 -0.645405 -0.183557 0
M  V30 404 H 41.9457 -2.04329 0.0836372 0
M  V30 405 H 40.1007 -3.27175 -2.0745 0
M  V30 406 H 40.5147 -5.16297 -0.923991 0
M  V30 407 H 41.9887 -4.86504 -2.60803 0
M  V30 408 H 42.4657 -3.21331 -2.99405 0
M  V30 409 H 43.0717 -3.97723 -1.50654 0
M  V30 410 N 41.3868 0.248026 -1.55636 0
M  V30 411 C 42.3168 1.31079 -1.93237 0
M  V30 412 C 43.2978 1.50264 -0.797174 0
M  V30 413 O 44.4828 1.62891 -1.05737 0
M  V30 414 C 41.6128 2.66575 -2.22609 0
M  V30 415 C 40.5668 2.62087 -3.3837 0
M  V30 416 C 39.8928 4.01369 -3.53281 0
M  V30 417 C 41.1928 2.19171 -4.7409 0
M  V30 418 H 42.8868 0.998556 -2.82257 0
M  V30 419 H 40.4328 0.47891 -1.35803 0
M  V30 420 H 42.3858 3.41057 -2.47503 0
M  V30 421 H 41.1098 2.99432 -1.30414 0
M  V30 422 H 39.7688 1.90063 -3.13483 0
M  V30 423 H 39.4168 4.31489 -2.58508 0
M  V30 424 H 39.1168 3.99254 -4.31127 0
M  V30 425 H 40.6408 4.77552 -3.80495 0
M  V30 426 H 42.0548 2.83384 -4.98363 0
M  V30 427 H 40.4518 2.2817 -5.5503 0
M  V30 428 H 41.5218 1.14336 -4.71227 0
M  V30 429 N 42.8649 1.48995 0.513639 0
M  V30 430 C 44.0949 1.61297 1.291 0
M  V30 431 C 44.5029 0.278656 1.87137 0
M  V30 432 O 43.8459 -0.744325 1.67945 0
M  V30 433 C 43.9079 2.61326 2.46879 0
M  V30 434 C 43.5719 4.05993 2.09807 0
M  V30 435 C 44.5689 4.93183 1.64519 0
M  V30 436 C 42.2539 4.51642 2.19829 0
M  V30 437 C 44.2479 6.24056 1.2974 0
M  V30 438 C 41.9349 5.82532 1.84662 0
M  V30 439 C 42.9329 6.68562 1.3969 0
M  V30 440 O 42.6209 7.97014 1.04992 0
M  V30 441 H 42.3529 0.546236 0.39825 0
M  V30 442 H 44.9069 1.95673 0.62459 0
M  V30 443 H 43.1369 2.22104 3.16554 0
M  V30 444 H 44.8259 2.6329 3.08923 0
M  V30 445 H 45.5919 4.59147 1.56233 0
M  V30 446 H 41.4709 3.84855 2.53786 0
M  V30 447 H 45.0149 6.91161 0.945659 0
M  V30 448 H 40.9119 6.16099 1.92594 0
M  V30 449 H 41.6799 8.09913 1.18249 0
M  V30 450 N 44.343 -0.763751 1.37857 0
M  V30 451 C 45.59 -1.52257 1.33506 0
M  V30 452 C 45.918 -1.94343 -0.078022 0
M  V30 453 O 45.173 -1.64958 -1.05297 0
M  V30 454 C 45.472 -2.79499 2.22745 0
M  V30 455 C 45.138 -2.56426 3.70886 0
M  V30 456 C 43.8 -2.49842 4.11257 0
M  V30 457 C 46.152 -2.36008 4.64704 0
M  V30 458 C 43.48 -2.20841 5.43549 0
M  V30 459 C 45.832 -2.0853 5.97242 0
M  V30 460 C 44.496 -2.00396 6.36709 0
M  V30 461 H 43.766 -0.557149 0.488534 0
M  V30 462 H 46.413 -0.879073 1.70131 0
M  V30 463 H 44.718 -3.48447 1.79142 0
M  V30 464 H 46.415 -3.37413 2.16688 0
M  V30 465 H 43.005 -2.62416 3.38874 0
M  V30 466 H 47.189 -2.40079 4.34368 0
M  V30 467 H 42.445 -2.13045 5.73081 0
M  V30 468 H 46.619 -1.91732 6.69486 0
M  V30 469 H 44.246 -1.77688 7.39142 0
M  V30 470 N 45.8211 -1.22559 -0.990812 0
M  V30 471 C 47.0511 -1.07623 -1.76355 0
M  V30 472 C 47.4591 0.37601 -1.85426 0
M  V30 473 O 46.8021 1.27228 -1.32509 0
M  V30 474 C 46.8641 -1.61507 -3.21179 0
M  V30 475 C 46.5281 -3.10146 -3.35646 0
M  V30 476 C 47.5251 -4.07553 -3.22796 0
M  V30 477 C 45.2101 -3.49644 -3.60631 0
M  V30 478 C 47.2041 -5.42442 -3.34716 0
M  V30 479 C 44.8911 -4.84682 -3.72192 0
M  V30 480 C 45.8891 -5.8089 -3.59243 0
M  V30 481 O 45.5771 -7.13476 -3.70415 0
M  V30 482 H 45.3091 -0.377745 -0.560611 0
M  V30 483 H 47.8631 -1.62658 -1.25425 0
M  V30 484 H 46.0931 -1.00881 -3.73309 0
M  V30 485 H 47.7821 -1.42202 -3.80175 0
M  V30 486 H 48.5481 -3.78381 -3.03403 0
M  V30 487 H 44.4271 -2.75282 -3.69785 0
M  V30 488 H 47.9711 -6.17518 -3.24526 0
M  V30 489 H 43.8681 -5.13534 -3.91092 0
M  V30 490 H 44.6361 -7.21083 -3.87275 0
M  V30 491 N 47.2992 1.18797 -1.03562 0
M  V30 492 C 48.2472 2.24297 -0.615905 0
M  V30 493 C 49.2412 1.65643 0.354808 0
M  V30 494 O 50.4472 1.78618 0.22265 0
M  V30 495 H 46.8222 0.729909 -0.180934 0
M  V30 496 H 48.7932 2.5701 -1.5162 0
M  V30 497 C 47.5422 3.47698 0.0104735 0
M  V30 498 H 46.8652 3.93125 -0.727509 0
M  V30 499 H 48.3052 4.23159 0.266995 0
M  V30 500 C 46.7642 3.12489 1.25905 0
M  V30 501 O 47.2942 3.25761 2.35038 0
M  V30 502 N 45.5002 2.6686 1.15039 0
M  V30 503 H 45.0472 2.56261 0.262328 0
M  V30 504 H 45.0052 2.43674 1.98672 0
M  V30 505 N 48.7773 0.814389 1.34928 0
M  V30 506 C 50.0233 0.408167 1.99263 0
M  V30 507 C 50.3783 -1.0154 1.63424 0
M  V30 508 O 49.6713 -1.69607 0.891289 0
M  V30 509 C 49.8653 0.537781 3.53331 0
M  V30 510 C 49.6943 1.9724 4.04137 0
M  V30 511 C 48.4643 2.60245 4.33129 0
M  V30 512 C 50.6623 2.93801 4.2212 0
M  V30 513 N 48.6443 3.95036 4.69914 0
M  V30 514 C 50.0153 4.1348 4.6199 0
M  V30 515 C 52.0703 2.9053 4.04348 0
M  V30 516 C 50.7733 5.3033 4.85945 0
M  V30 517 C 52.7993 4.06589 4.29464 0
M  V30 518 C 52.1613 5.25017 4.69613 0
M  V30 519 H 48.2603 0.197289 0.756704 0
M  V30 520 H 50.8443 1.05728 1.63492 0
M  V30 521 H 49.0153 -0.0813868 3.88315 0
M  V30 522 H 50.7473 0.105389 4.04563 0
M  V30 523 H 47.5023 2.11545 4.23728 0
M  V30 524 H 47.9263 4.64455 4.92555 0
M  V30 525 H 52.5683 2.00115 3.72443 0
M  V30 526 H 50.2863 6.21309 5.16721 0
M  V30 527 H 53.8723 4.05447 4.17257 0
M  V30 528 H 52.7523 6.1333 4.88667 0
M  V30 529 N 50.2554 -1.46986 0.568584 0
M  V30 530 C 51.4834 -2.0683 0.0539956 0
M  V30 531 C 51.8984 -1.41953 -1.24478 0
M  V30 532 O 51.2554 -0.519933 -1.74937 0
M  V30 533 C 51.3064 -3.61254 -0.133362 0
M  V30 534 O 51.0274 -4.237 1.11399 0
M  V30 535 C 52.5284 -4.37992 -0.683927 0
M  V30 536 H 49.7484 -0.669058 0.0510141 0
M  V30 537 H 52.2924 -1.88824 0.785234 0
M  V30 538 H 50.4474 -3.78735 -0.81477 0
M  V30 539 H 50.8614 -5.16388 0.91888 0
M  V30 540 H 52.3354 -5.46684 -0.764263 0
M  V30 541 H 52.8124 -4.05058 -1.69778 0
M  V30 542 H 53.4184 -4.25283 -0.0378494 0
M  V30 543 N 51.7335 -0.305618 -1.54608 0
M  V30 544 C 52.6435 0.57778 -2.27374 0
M  V30 545 C 53.6595 1.14451 -1.31061 0
M  V30 546 O 54.8355 1.16831 -1.6405 0
M  V30 547 C 51.9005 1.73123 -3.00382 0
M  V30 548 C 50.9615 1.19812 -4.12242 0
M  V30 549 C 50.1945 2.2966 -4.81759 0
M  V30 550 O 50.4175 3.49651 -4.50666 0
M  V30 551 O 49.3515 1.96091 -5.69062 0
M  V30 552 H 53.1775 -0.012624 -3.03697 0
M  V30 553 H 50.7625 -0.0719184 -1.49227 0
M  V30 554 H 52.6445 2.40315 -3.4616 0
M  V30 555 H 51.3195 2.30815 -2.26949 0
M  V30 556 H 50.2265 0.491798 -3.70853 0
M  V30 557 H 51.5595 0.666566 -4.87666 0
M  V30 558 N 53.2116 1.57565 -0.0334293 0
M  V30 559 C 54.4416 1.95996 0.653398 0
M  V30 560 C 54.8496 0.908749 1.65947 0
M  V30 561 O 54.1926 -0.117471 1.83324 0
M  V30 562 C 54.2546 3.30589 1.41249 0
M  V30 563 C 53.9186 4.53503 0.564263 0
M  V30 564 C 54.9156 5.19647 -0.16225 0
M  V30 565 C 52.6006 4.99801 0.500398 0
M  V30 566 C 54.5946 6.30412 -0.941255 0
M  V30 567 C 52.2816 6.10448 -0.282308 0
M  V30 568 C 53.2796 6.75612 -1.00184 0
M  V30 569 O 52.9676 7.84134 -1.77171 0
M  V30 570 H 52.6996 0.65027 0.184728 0
M  V30 571 H 55.2536 2.05199 -0.0907841 0
M  V30 572 H 53.4836 3.17888 2.20191 0
M  V30 573 H 55.1726 3.53892 1.98784 0
M  V30 574 H 55.9386 4.84846 -0.12227 0
M  V30 575 H 51.8176 4.48883 1.05002 0
M  V30 576 H 55.3616 6.81208 -1.50339 0
M  V30 577 H 51.2586 6.44686 -0.323989 0
M  V30 578 H 52.0266 8.00822 -1.69194 0
M  V30 579 N 54.6897 -0.239769 1.55765 0
M  V30 580 C 55.9357 -0.968234 1.78194 0
M  V30 581 C 56.2687 -1.84701 0.599938 0
M  V30 582 O 55.5437 -1.9031 -0.401524 0
M  V30 583 C 55.8267 -1.8227 3.10564 0
M  V30 584 C 55.6797 -0.971633 4.3918 0
M  V30 585 C 56.9987 -2.80388 3.39221 0
M  V30 586 H 54.1177 -0.350572 0.648281 0
M  V30 587 H 56.7597 -0.238259 1.885 0
M  V30 588 H 54.9097 -2.44507 3.01908 0
M  V30 589 H 56.5817 -0.367408 4.59835 0
M  V30 590 H 54.8247 -0.276276 4.32919 0
M  V30 591 H 55.4957 -1.60346 5.28198 0
M  V30 592 H 57.9717 -2.28287 3.47885 0
M  V30 593 H 56.8477 -3.3729 4.33044 0
M  V30 594 H 57.1087 -3.57212 2.60484 0
M  V30 595 N 56.1678 -1.49265 -0.50573 0
M  V30 596 C 57.5788 -1.51769 -1.08734 0
M  V30 597 C 57.9298 -0.301192 -1.93874 0
M  V30 598 O 57.0548 0.589456 -2.08217 0
M  V30 599 C 57.6498 -2.75017 -1.97867 0
M  V30 600 C 56.2088 -2.80314 -2.51199 0
M  V30 601 C 55.3558 -2.4562 -1.28709 0
M  V30 602 H 58.3068 -1.56031 -0.289855 0
M  V30 603 H 58.3278 -2.5491 -2.82491 0
M  V30 604 H 57.8398 -3.63539 -1.35873 0
M  V30 605 H 55.9408 -1.96061 -3.16845 0
M  V30 606 H 56.0538 -3.82366 -2.88675 0
M  V30 607 H 54.4178 -1.97297 -1.61078 0
M  V30 608 H 55.2008 -3.36411 -0.6843 0
M  V30 609 N 57.6459 0.756429 -1.3826 0
M  V30 610 C 59.0569 1.33359 -1.30661 0
M  V30 611 C 59.4079 1.96161 0.0388875 0
M  V30 612 O 58.5329 1.94874 0.940918 0
M  V30 613 C 59.1279 2.42477 -2.36622 0
M  V30 614 C 57.6869 2.95922 -2.3261 0
M  V30 615 C 56.8339 1.69275 -2.19639 0
M  V30 616 H 59.7849 0.55552 -1.4866 0
M  V30 617 H 59.8059 3.22345 -2.02174 0
M  V30 618 H 59.3179 1.96739 -3.34538 0
M  V30 619 H 57.4189 3.45996 -1.38267 0
M  V30 620 H 57.5319 3.50494 -3.26636 0
M  V30 621 H 55.8959 1.92793 -1.66442 0
M  V30 622 H 56.6789 1.25619 -3.19491 0
M  V30 623 N 59.124 1.23083 0.984299 0
M  V30 624 C 60.372 1.05848 1.72165 0
M  V30 625 C 60.693 -0.406049 1.90726 0
M  V30 626 O 59.963 -1.29139 1.47309 0
M  V30 627 H 58.543 0.388685 0.637913 0
M  V30 628 H 61.205 1.54736 1.18503 0
M  V30 629 H 60.301 1.54327 2.71274 0
M  V30 630 N 60.6021 -1.18246 1.0419 0
M  V30 631 C 61.5321 -2.24127 0.654914 0
M  V30 632 C 62.5131 -1.66617 -0.342451 0
M  V30 633 O 63.6981 -1.92924 -0.222277 0
M  V30 634 C 60.8281 -3.47295 0.0183757 0
M  V30 635 C 59.7821 -4.17563 0.939414 0
M  V30 636 C 59.1081 -5.34438 0.167286 0
M  V30 637 C 60.4081 -4.70917 2.25908 0
M  V30 638 H 62.1021 -2.56753 1.54007 0
M  V30 639 H 59.6481 -1.23414 0.74195 0
M  V30 640 H 61.6011 -4.20572 -0.264082 0
M  V30 641 H 60.3251 -3.13907 -0.901664 0
M  V30 642 H 58.9841 -3.46186 1.20628 0
M  V30 643 H 58.6321 -4.97298 -0.7552 0
M  V30 644 H 58.3321 -5.82388 0.780901 0
M  V30 645 H 59.8561 -6.10504 -0.108125 0
M  V30 646 H 61.2701 -5.35882 2.03724 0
M  V30 647 H 59.6671 -5.29406 2.82577 0
M  V30 648 H 60.7371 -3.88272 2.9047 0
M  V30 649 N 62.0802 -0.821533 -1.34494 0
M  V30 650 C 63.0102 -0.257138 -2.3208 0
M  V30 651 C 63.9912 0.625645 -1.58176 0
M  V30 652 O 65.1762 0.552811 -1.86166 0
M  V30 653 C 62.3062 0.582958 -3.42372 0
M  V30 654 C 61.2602 -0.202571 -4.2752 0
M  V30 655 C 60.5862 0.760179 -5.29269 0
M  V30 656 C 61.8862 -1.40998 -5.02908 0
M  V30 657 H 63.5802 -1.07247 -2.79532 0
M  V30 658 H 61.1262 -0.517163 -1.34393 0
M  V30 659 H 63.0792 0.987972 -4.09655 0
M  V30 660 H 61.8032 1.43133 -2.93565 0
M  V30 661 H 60.4622 -0.588936 -3.61838 0
M  V30 662 H 60.1102 1.60447 -4.76724 0
M  V30 663 H 59.8102 0.238809 -5.87115 0
M  V30 664 H 61.3342 1.16308 -5.9942 0
M  V30 665 H 62.7482 -1.07905 -5.63054 0
M  V30 666 H 61.1452 -1.86689 -5.70322 0
M  V30 667 H 62.2152 -2.1889 -4.32684 0
M  V30 668 N 63.5583 1.46682 -0.576371 0
M  V30 669 C 64.4683 2.34032 0.163141 0
M  V30 670 C 65.4843 1.49367 0.892501 0
M  V30 671 O 66.6603 1.82252 0.857106 0
M  V30 672 C 63.7253 3.26435 1.16795 0
M  V30 673 C 62.7863 4.26998 0.443944 0
M  V30 674 C 62.0193 5.14986 1.40088 0
M  V30 675 O 62.2423 5.05785 2.637 0
M  V30 676 O 61.1763 5.94906 0.914917 0
M  V30 677 H 65.0023 2.98607 -0.55388 0
M  V30 678 H 62.5873 1.45554 -0.336821 0
M  V30 679 H 64.4693 3.83459 1.74748 0
M  V30 680 H 63.1443 2.64465 1.86655 0
M  V30 681 H 62.0513 3.7368 -0.177271 0
M  V30 682 H 63.3843 4.91736 -0.213566 0
M  V30 683 N 65.0364 0.313813 1.54444 0
M  V30 684 C 65.9684 -0.590425 2.21465 0
M  V30 685 C 66.9814 -1.08753 1.21147 0
M  V30 686 O 68.1704 -1.00278 1.4767 0
M  V30 687 C 65.2704 -1.82179 2.85769 0
M  V30 688 C 64.4434 -1.46502 4.12136 0
M  V30 689 C 63.5024 -2.55288 4.60124 0
M  V30 690 O 62.5284 -2.19842 5.25032 0
M  V30 691 N 63.7304 -3.86053 4.33525 0
M  V30 692 H 66.4954 -0.0166033 2.99695 0
M  V30 693 H 64.0564 0.136578 1.61323 0
M  V30 694 H 66.0484 -2.54328 3.14801 0
M  V30 695 H 64.6184 -2.30369 2.11303 0
M  V30 696 H 63.8384 -0.575595 3.89975 0
M  V30 697 H 65.1264 -1.20221 4.94393 0
M  V30 698 H 64.5244 -4.17654 3.81552 0
M  V30 699 H 63.0814 -4.54461 4.67235 0
M  V30 700 N 66.5145 -1.57545 0.0417849 0
M  V30 701 C 67.7615 -1.92317 -0.634082 0
M  V30 702 C 68.0895 -0.919334 -1.71402 0
M  V30 703 O 67.3445 0.0698253 -1.95575 0
M  V30 704 C 67.6435 -3.33794 -1.27735 0
M  V30 705 C 67.3095 -4.49716 -0.326543 0
M  V30 706 C 65.9715 -4.81156 -0.0648814 0
M  V30 707 C 68.3235 -5.20182 0.325623 0
M  V30 708 C 65.6515 -5.80414 0.856539 0
M  V30 709 C 68.0035 -6.20424 1.23518 0
M  V30 710 C 66.6675 -6.50298 1.5056 0
M  V30 711 H 65.9375 -0.703736 -0.232027 0
M  V30 712 H 68.5845 -1.91205 0.106259 0
M  V30 713 H 66.8895 -3.31228 -2.09274 0
M  V30 714 H 68.5865 -3.57975 -1.80707 0
M  V30 715 H 65.1765 -4.25176 -0.540665 0
M  V30 716 H 69.3605 -4.96112 0.136546 0
M  V30 717 H 64.6165 -6.019 1.07363 0
M  V30 718 H 68.7905 -6.74141 1.74664 0
M  V30 719 H 66.4175 -7.27025 2.22123 0
M  V30 720 N 67.9926 0.231505 -1.5589 0
M  V30 721 C 69.2206 0.974505 -1.82513 0
M  V30 722 C 69.6356 1.78344 -0.619591 0
M  V30 723 O 68.9926 1.77792 0.411848 0
M  V30 724 C 69.0436 1.90007 -3.07538 0
M  V30 725 O 68.7646 1.12385 -4.2344 0
M  V30 726 C 70.2656 2.75779 -3.47075 0
M  V30 727 H 67.4856 0.286065 -0.606966 0
M  V30 728 H 70.0296 0.249739 -2.02969 0
M  V30 729 H 68.1846 2.57891 -2.89086 0
M  V30 730 H 68.5986 1.75125 -4.944 0
M  V30 731 H 70.0726 3.36443 -4.37619 0
M  V30 732 H 70.5496 3.47672 -2.68367 0
M  V30 733 H 71.1556 2.13323 -3.67931 0
M  V30 734 N 69.4707 1.49531 0.497807 0
M  V30 735 C 70.4177 1.66436 1.59899 0
M  V30 736 C 71.3877 0.505793 1.58212 0
M  V30 737 O 72.5727 0.733202 1.7615 0
M  V30 738 C 69.7127 1.7399 2.98029 0
M  V30 739 C 68.8257 3.01172 3.09708 0
M  V30 740 C 67.9607 2.99686 4.38591 0
M  V30 741 C 66.9997 4.21434 4.43914 0
M  V30 742 N 66.1367 4.1784 5.64229 0
M  V30 743 H 70.9767 2.60459 1.44793 0
M  V30 744 H 68.5137 1.29137 0.704423 0
M  V30 745 H 70.4717 1.76352 3.78095 0
M  V30 746 H 69.1017 0.834301 3.11832 0
M  V30 747 H 68.1537 3.08408 2.22685 0
M  V30 748 H 69.4657 3.91165 3.09502 0
M  V30 749 H 68.6197 3.00628 5.2698 0
M  V30 750 H 67.3587 2.07477 4.41367 0
M  V30 751 H 66.3637 4.20733 3.53926 0
M  V30 752 H 67.5887 5.14839 4.42851 0
M  V30 753 H 65.5347 3.28469 5.67841 0
M  V30 754 H 65.4517 5.01571 5.65652 0
M  V30 755 H 66.7197 4.22889 6.54817 0
M  V30 756 N 70.9488 -0.749086 1.3866 0
M  V30 757 C 71.8588 -1.89358 1.38494 0
M  V30 758 C 72.8748 -1.71708 0.281476 0
M  V30 759 O 74.0508 -1.94554 0.520643 0
M  V30 760 C 71.1158 -3.24782 1.21316 0
M  V30 761 C 70.1768 -3.54926 2.41508 0
M  V30 762 C 69.4098 -4.83888 2.2514 0
M  V30 763 O 69.6328 -5.56592 1.24746 0
M  V30 764 O 68.5668 -5.13612 3.13826 0
M  V30 765 H 72.3928 -1.92452 2.34938 0
M  V30 766 H 69.9778 -0.894981 1.19626 0
M  V30 767 H 71.8598 -4.05739 1.13814 0
M  V30 768 H 70.5348 -3.2249 0.279592 0
M  V30 769 H 69.4418 -2.74112 2.54585 0
M  V30 770 H 70.7748 -3.61983 3.3351 0
M  V30 771 N 72.4269 -1.23603 -0.977757 0
M  V30 772 C 73.6549 -1.09646 -1.75458 0
M  V30 773 C 74.0699 0.351859 -1.85492 0
M  V30 774 O 73.4269 1.24327 -1.336 0
M  V30 775 C 73.4779 -1.71895 -3.18016 0
M  V30 776 O 73.1989 -3.11063 -3.08498 0
M  V30 777 C 74.6999 -1.63415 -4.12081 0
M  V30 778 H 71.9199 -0.38359 -0.550545 0
M  V30 779 H 74.4639 -1.63507 -1.22824 0
M  V30 780 H 72.6189 -1.22061 -3.67668 0
M  V30 781 H 73.0329 -3.41305 -3.9826 0
M  V30 782 H 74.5069 -2.11669 -5.09804 0
M  V30 783 H 74.9839 -0.593462 -4.35172 0
M  V30 784 H 75.5899 -2.12628 -3.68334 0
M  V30 785 N 73.905 1.17692 -1.04816 0
M  V30 786 C 75.153 1.87488 -0.754497 0
M  V30 787 C 75.474 1.81205 0.720407 0
M  V30 788 O 74.744 1.23544 1.52032 0
M  V30 789 H 73.324 0.694101 -0.276102 0
M  V30 790 H 75.986 1.42793 -1.32651 0
M  V30 791 H 75.082 2.93328 -1.06606 0
M  V30 792 N 75.3831 0.828654 1.34056 0
M  V30 793 C 76.6321 0.415828 1.97367 0
M  V30 794 C 76.9451 -1.02796 1.6641 0
M  V30 795 O 78.1511 -1.54497 2.23255 0
M  V30 796 C 76.6071 0.692601 3.53173 0
M  V30 797 C 76.2151 2.15038 3.93017 0
M  V30 798 C 77.9591 0.346222 4.23086 0
M  V30 799 C 75.8661 2.37174 5.41758 0
M  V30 800 H 74.7961 0.151755 0.738571 0
M  V30 801 H 77.4471 1.01581 1.52819 0
M  V30 802 H 75.8291 0.0223764 3.95994 0
M  V30 803 H 77.0031 2.86024 3.61285 0
M  V30 804 H 75.3181 2.45875 3.36057 0
M  V30 805 H 77.9151 0.48937 5.32456 0
M  V30 806 H 78.2581 -0.709842 4.10204 0
M  V30 807 H 78.7911 0.971258 3.85761 0
M  V30 808 H 75.5301 3.41308 5.59633 0
M  V30 809 H 75.0501 1.70738 5.74986 0
M  V30 810 H 76.7291 2.19818 6.08514 0
M  V30 811 N 76.8612 -1.46375 0.584142 0
M  V30 812 C 77.8082 -2.30323 -0.148286 0
M  V30 813 C 78.7782 -1.40703 -0.882713 0
M  V30 814 O 79.9632 -1.69651 -0.873099 0
M  V30 815 C 77.1032 -3.25196 -1.15507 0
M  V30 816 C 76.2162 -4.29915 -0.423943 0
M  V30 817 C 75.3512 -5.11914 -1.41838 0
M  V30 818 C 74.3902 -6.08381 -0.673736 0
M  V30 819 N 73.5272 -6.83242 -1.6163 0
M  V30 820 H 78.3672 -2.92427 0.573644 0
M  V30 821 H 75.9042 -1.44118 0.294703 0
M  V30 822 H 77.8622 -3.78646 -1.75166 0
M  V30 823 H 76.4922 -2.64898 -1.8447 0
M  V30 824 H 75.5442 -3.7931 0.287714 0
M  V30 825 H 76.8562 -4.98549 0.158128 0
M  V30 826 H 76.0102 -5.69648 -2.08773 0
M  V30 827 H 74.7492 -4.43243 -2.03438 0
M  V30 828 H 73.7542 -5.49799 0.00938483 0
M  V30 829 H 74.9792 -6.79071 -0.0631082 0
M  V30 830 H 72.9252 -6.1728 -2.22038 0
M  V30 831 H 72.8422 -7.48144 -1.08707 0
M  V30 832 H 74.1102 -7.45534 -2.27596 0
M  V30 833 N 78.3393 -0.321999 -1.54275 0
M  V30 834 C 79.5853 0.281461 -2.00837 0
M  V30 835 C 79.9183 1.51909 -1.20985 0
M  V30 836 O 79.1933 1.923 -0.291733 0
M  V30 837 C 79.4763 0.617162 -3.54772 0
M  V30 838 C 79.3293 -0.631064 -4.45351 0
M  V30 839 C 80.6483 1.43542 -4.16033 0
M  V30 840 H 77.7673 0.100826 -0.730071 0
M  V30 841 H 80.4093 -0.438268 -1.84876 0
M  V30 842 H 78.5593 1.23034 -3.68504 0
M  V30 843 H 80.2313 -1.26934 -4.43492 0
M  V30 844 H 78.4743 -1.26025 -4.15091 0
M  V30 845 H 79.1453 -0.351735 -5.50878 0
M  V30 846 H 81.6213 0.917134 -4.05867 0
M  V30 847 H 80.4973 1.63907 -5.23856 0
M  V30 848 H 80.7583 2.43108 -3.69257 0
M  V30 849 N 79.8174 1.5752 -0.0501392 0
M  V30 850 C 81.0664 1.91827 0.623328 0
M  V30 851 C 81.3794 0.930222 1.72065 0
M  V30 852 O 82.5854 1.1653 2.4522 0
M  V30 853 C 81.0414 3.40692 1.16003 0
M  V30 854 C 80.6494 4.479 0.0948811 0
M  V30 855 C 82.3934 3.84034 1.80881 0
M  V30 856 C 80.3004 5.87879 0.644411 0
M  V30 857 H 79.2304 0.715918 0.236596 0
M  V30 858 H 81.8814 1.83115 -0.118861 0
M  V30 859 H 80.2634 3.44405 1.9545 0
M  V30 860 H 81.4374 4.55775 -0.678675 0
M  V30 861 H 79.7524 4.13892 -0.45637 0
M  V30 862 H 82.3494 4.85984 2.22988 0
M  V30 863 H 82.6924 3.20225 2.6601 0
M  V30 864 H 83.2254 3.82833 1.0809 0
M  V30 865 H 79.9644 6.55282 -0.169229 0
M  V30 866 H 79.4844 5.83567 1.38598 0
M  V30 867 H 81.1634 6.37098 1.12763 0
M  V30 868 N 81.2955 -0.223234 1.56011 0
M  V30 869 C 82.5255 -0.963413 1.82762 0
M  V30 870 C 82.9335 -1.78516 0.626804 0
M  V30 871 O 82.2765 -1.78974 -0.414014 0
M  V30 872 C 82.3385 -1.93126 3.0322 0
M  V30 873 C 82.0025 -1.2942 4.38291 0
M  V30 874 C 82.9995 -0.684916 5.15369 0
M  V30 875 C 80.6845 -1.30647 4.85012 0
M  V30 876 C 82.6785 -0.0963971 6.37327 0
M  V30 877 C 80.3655 -0.71411 6.06913 0
M  V30 878 C 81.3635 -0.110123 6.82911 0
M  V30 879 O 81.0515 0.47303 8.02507 0
M  V30 880 H 80.7835 -0.288011 0.611576 0
M  V30 881 H 83.3375 -0.244103 2.03944 0
M  V30 882 H 81.5675 -2.68952 2.77852 0
M  V30 883 H 83.2565 -2.53685 3.16857 0
M  V30 884 H 84.0225 -0.667774 4.80381 0
M  V30 885 H 79.9015 -1.76598 4.25833 0
M  V30 886 H 83.4455 0.375657 6.96588 0
M  V30 887 H 79.3425 -0.728659 6.41374 0
M  V30 888 H 80.1105 0.367186 8.17676 0
M  V30 889 N 82.7736 -1.49793 -0.48987 0
M  V30 890 C 83.9986 -1.63836 -1.27172 0
M  V30 891 C 84.4236 -0.31402 -1.8546 0
M  V30 892 O 83.7816 0.719803 -1.66399 0
M  V30 893 C 83.8296 -2.71797 -2.36978 0
M  V30 894 O 82.9336 -2.31744 -3.41128 0
M  V30 895 H 82.2746 -0.547997 -0.37496 0
M  V30 896 H 84.8046 -1.96053 -0.585191 0
M  V30 897 H 84.8146 -2.94305 -2.82575 0
M  V30 898 H 83.4896 -3.67923 -1.93921 0
M  V30 899 H 82.0666 -2.1961 -3.01373 0
M  V30 900 N 84.2517 0.741722 -1.39055 0
M  V30 901 C 85.4797 1.53098 -1.39171 0
M  V30 902 C 85.8947 1.88794 0.0155099 0
M  V30 903 O 85.2517 1.53626 0.985159 0
M  V30 904 C 85.3027 2.82274 -2.2584 0
M  V30 905 O 85.0237 2.48097 -3.61081 0
M  V30 906 C 86.5247 3.76343 -2.34266 0
M  V30 907 H 83.7447 0.473335 -0.4756 0
M  V30 908 H 86.2887 0.917045 -1.82785 0
M  V30 909 H 84.4437 3.40015 -1.85656 0
M  V30 910 H 84.8577 3.31029 -4.06842 0
M  V30 911 H 86.3317 4.63898 -2.9917 0
M  V30 912 H 86.8087 4.17619 -1.35982 0
M  V30 913 H 87.4147 3.24523 -2.74891 0
M  V30 914 N 85.7298 1.2412 0.971189 0
M  V30 915 C 86.9598 1.10415 1.7462 0
M  V30 916 C 87.3678 -0.346462 1.86001 0
M  V30 917 O 86.7108 -1.25104 1.34517 0
M  V30 918 C 86.7728 1.66596 3.18568 0
M  V30 919 C 86.4368 3.15446 3.3067 0
M  V30 920 C 87.4338 4.12636 3.16271 0
M  V30 921 C 85.1188 3.55337 3.55022 0
M  V30 922 C 87.1128 5.47699 3.26044 0
M  V30 923 C 84.7998 4.90542 3.64434 0
M  V30 924 C 85.7978 5.86532 3.49956 0
M  V30 925 O 85.4858 7.19279 3.59017 0
M  V30 926 H 85.2178 0.386616 0.55453 0
M  V30 927 H 87.7718 1.64633 1.22821 0
M  V30 928 H 86.0018 1.06808 3.71657 0
M  V30 929 H 87.6908 1.48232 3.77865 0
M  V30 930 H 88.4568 3.8316 2.97344 0
M  V30 931 H 84.3358 2.8113 3.65359 0
M  V30 932 H 87.8798 6.22603 3.14661 0
M  V30 933 H 83.7768 5.19691 3.82873 0
M  V30 934 H 84.5448 7.27153 3.75754 0
M  V30 935 N 87.2079 -1.17134 1.05439 0
M  V30 936 C 88.1179 -2.24878 0.668365 0
M  V30 937 C 89.1339 -1.71186 -0.311687 0
M  V30 938 O 90.3099 -2.00738 -0.163161 0
M  V30 939 C 87.3749 -3.46662 0.051648 0
M  V30 940 C 86.4359 -4.15429 1.08246 0
M  V30 941 C 85.6689 -5.31399 0.495082 0
M  V30 942 O 85.8919 -5.66153 -0.694743 0
M  V30 943 O 84.8259 -5.89187 1.23056 0
M  V30 944 H 88.6519 -2.60189 1.56637 0
M  V30 945 H 86.2369 -1.24482 0.826104 0
M  V30 946 H 88.1189 -4.20394 -0.290966 0
M  V30 947 H 86.7939 -3.13142 -0.819971 0
M  V30 948 H 85.7009 -3.43704 1.47711 0
M  V30 949 H 87.0339 -4.52982 1.92532 0
M  V30 950 N 88.686 -0.835752 -1.33615 0
M  V30 951 C 89.911 -0.442389 -2.02627 0
M  V30 952 C 90.336 0.947735 -1.62479 0
M  V30 953 O 89.694 1.61907 -0.815826 0
M  V30 954 C 89.742 -0.567216 -3.56111 0
M  V30 955 O 88.846 0.407799 -4.10379 0
M  V30 956 H 88.187 -0.180278 -0.639059 0
M  V30 957 H 90.717 -1.12972 -1.70583 0
M  V30 958 H 90.727 -0.447708 -4.05536 0
M  V30 959 H 89.402 -1.58103 -3.84677 0
M  V30 960 H 87.979 0.246107 -3.72087 0
M  V30 961 N 90.1641 1.46063 -0.591896 0
M  V30 962 C 91.1121 2.32124 0.148739 0
M  V30 963 C 92.1061 1.45035 0.875286 0
M  V30 964 O 93.3121 1.61609 0.792632 0
M  V30 965 H 89.6871 0.749024 0.066832 0
M  V30 966 H 91.6581 2.92392 -0.595783 0
M  V30 967 C 90.4071 3.28373 1.1431 0
M  V30 968 H 89.7301 3.95371 0.59346 0
M  V30 969 H 91.1701 3.91352 1.63155 0
M  V30 970 C 89.6291 2.54393 2.20875 0
M  V30 971 O 90.1591 2.31373 3.28374 0
M  V30 972 N 88.3651 2.14797 1.95731 0
M  V30 973 H 87.9121 2.33719 1.08319 0
M  V30 974 H 87.8701 1.65619 2.67241 0
M  V30 975 N 91.6422 0.330177 1.54103 0
M  V30 976 C 92.5522 -0.541534 2.28264 0
M  V30 977 C 93.5682 -1.12351 1.32866 0
M  V30 978 O 94.7442 -1.14206 1.65888 0
M  V30 979 C 91.8092 -1.68322 3.03098 0
M  V30 980 C 90.8702 -1.13238 4.14096 0
M  V30 981 C 90.1032 -2.21966 4.85352 0
M  V30 982 O 90.3262 -3.42437 4.56172 0
M  V30 983 O 89.2602 -1.87013 5.7211 0
M  V30 984 H 93.0862 0.060938 3.03639 0
M  V30 985 H 90.6712 0.09565 1.49093 0
M  V30 986 H 92.5532 -2.34777 3.49939 0
M  V30 987 H 91.2282 -2.27176 2.30593 0
M  V30 988 H 90.1352 -0.432736 3.71589 0
M  V30 989 H 91.4682 -0.588898 4.88664 0
M  V30 990 N 93.1203 -1.57491 0.0584922 0
M  V30 991 C 94.3483 -1.97296 -0.623037 0
M  V30 992 C 94.7633 -0.936338 -1.63946 0
M  V30 993 O 94.1203 0.0785981 -1.82331 0
M  V30 994 C 94.1713 -3.37183 -1.30345 0
M  V30 995 O 93.8923 -4.36872 -0.32773 0
M  V30 996 C 95.3933 -3.91788 -2.07406 0
M  V30 997 H 92.6133 -0.649153 -0.169826 0
M  V30 998 H 95.1573 -2.04106 0.12696 0
M  V30 999 H 93.3123 -3.31502 -2.00463 0
M  V30 1000 H 93.7263 -5.18141 -0.814269 0
M  V30 1001 H 95.2003 -4.91926 -2.50425 0
M  V30 1002 H 95.6773 -3.27609 -2.92521 0
M  V30 1003 H 96.2833 -4.00829 -1.42184 0
M  V30 1004 N 94.5984 0.214957 -1.56127 0
M  V30 1005 C 95.5314 1.29382 -1.87977 0
M  V30 1006 C 96.5094 1.44897 -0.737807 0
M  V30 1007 O 97.6934 1.60605 -0.986833 0
M  V30 1008 C 94.8204 2.66325 -2.09258 0
M  V30 1009 C 93.8664 2.67789 -3.31951 0
M  V30 1010 S 94.6994 2.21198 -4.8768 0
M  V30 1011 C 95.8554 3.60003 -5.12004 0
M  V30 1012 H 96.0884 1.02173 -2.79192 0
M  V30 1013 H 93.6214 0.417516 -1.48648 0
M  V30 1014 H 95.5794 3.45162 -2.22201 0
M  V30 1015 H 94.2404 2.90755 -1.18829 0
M  V30 1016 H 93.4334 3.68436 -3.43906 0
M  V30 1017 H 93.0354 1.9702 -3.17898 0
M  V30 1018 H 95.3274 4.55739 -5.01307 0
M  V30 1019 H 96.2704 3.52959 -6.13861 0
M  V30 1020 H 96.6784 3.53996 -4.39712 0
M  V30 1021 N 96.0765 1.50051 0.48192 0
M  V30 1022 C 97.3065 1.63999 1.2565 0
M  V30 1023 C 97.7145 0.318288 1.86504 0
M  V30 1024 O 97.0575 -0.708534 1.69486 0
M  V30 1025 C 97.1195 2.66504 2.4128 0
M  V30 1026 C 96.7835 4.10352 2.01148 0
M  V30 1027 C 97.7805 4.96562 1.54021 0
M  V30 1028 C 95.4655 4.56203 2.10199 0
M  V30 1029 C 97.4595 6.26668 1.16473 0
M  V30 1030 C 95.1465 5.86318 1.72264 0
M  V30 1031 C 96.1445 6.71375 1.25477 0
M  V30 1032 O 95.8325 7.99062 0.880626 0
M  V30 1033 H 95.5645 0.55456 0.386574 0
M  V30 1034 H 98.1185 1.96954 0.582944 0
M  V30 1035 H 96.3485 2.28769 3.11772 0
M  V30 1036 H 98.0375 2.69783 3.03268 0
M  V30 1037 H 98.8035 4.62358 1.46458 0
M  V30 1038 H 94.6825 3.90152 2.45566 0
M  V30 1039 H 98.2265 6.93011 0.798841 0
M  V30 1040 H 94.1235 6.20046 1.79482 0
M  V30 1041 H 94.8915 8.12239 1.01043 0
M  V30 1042 N 97.5546 -0.734337 1.39446 0
M  V30 1043 C 98.5176 -1.83004 1.37994 0
M  V30 1044 C 99.5176 -1.58397 0.276938 0
M  V30 1045 O 100.708 -1.65785 0.534875 0
M  V30 1046 C 97.8396 -3.20802 1.1532 0
M  V30 1047 H 99.0326 -1.85694 2.35494 0
M  V30 1048 H 96.5856 -0.938059 1.25021 0
M  V30 1049 H 97.3206 -3.23772 0.185036 0
M  V30 1050 H 97.1056 -3.4006 1.95197 0
M  V30 1051 H 98.5956 -4.00862 1.17046 0
M  V30 1052 N 99.0327 -1.24633 -0.964593 0
M  V30 1053 C 99.9797 -1.04144 -2.05968 0
M  V30 1054 C 100.95 0.046262 -1.66036 0
M  V30 1055 O 102.135 -0.108972 -1.90489 0
M  V30 1056 C 99.2747 -0.65563 -3.38815 0
M  V30 1057 C 98.3877 -1.81714 -3.91923 0
M  V30 1058 C 97.5227 -1.37662 -5.13052 0
M  V30 1059 C 96.5617 -2.50788 -5.58365 0
M  V30 1060 N 95.6987 -2.07582 -6.70712 0
M  V30 1061 H 100.539 -1.9787 -2.22827 0
M  V30 1062 H 98.0757 -0.9855 -1.09208 0
M  V30 1063 H 100.034 -0.412954 -4.15151 0
M  V30 1064 H 98.6637 0.244627 -3.21872 0
M  V30 1065 H 97.7157 -2.1734 -3.12198 0
M  V30 1066 H 99.0277 -2.66705 -4.21509 0
M  V30 1067 H 98.1817 -1.093 -5.96773 0
M  V30 1068 H 96.9207 -0.497293 -4.85158 0
M  V30 1069 H 95.9257 -2.79906 -4.73215 0
M  V30 1070 H 97.1507 -3.39283 -5.88272 0
M  V30 1071 H 95.0967 -1.22051 -6.44546 0
M  V30 1072 H 95.0137 -2.86125 -6.99763 0
M  V30 1073 H 96.2817 -1.82369 -7.57867 0
M  V30 1074 N 100.511 1.16574 -1.06058 0
M  V30 1075 C 101.441 2.23057 -0.690488 0
M  V30 1076 C 102.422 1.67141 0.315901 0
M  V30 1077 O 103.607 1.93253 0.191556 0
M  V30 1078 C 100.737 3.47222 -0.073625 0
M  V30 1079 C 99.6908 4.16016 -1.00573 0
M  V30 1080 C 99.0168 5.34104 -0.252289 0
M  V30 1081 C 100.317 4.67264 -2.33371 0
M  V30 1082 H 102.011 2.54271 -1.58072 0
M  V30 1083 H 99.5568 1.22218 -0.76149 0
M  V30 1084 H 101.51 4.20939 0.19714 0
M  V30 1085 H 100.234 3.15302 0.85161 0
M  V30 1086 H 98.8928 3.44223 -1.2612 0
M  V30 1087 H 98.5408 4.98437 0.675988 0
M  V30 1088 H 98.2408 5.81072 -0.873455 0
M  V30 1089 H 99.7648 6.10599 0.0109857 0
M  V30 1090 H 101.179 5.32573 -2.12223 0
M  V30 1091 H 99.5758 5.24843 -2.90963 0
M  V30 1092 H 100.646 3.83602 -2.96611 0
M  V30 1093 N 101.989 0.842826 1.3317 0
M  V30 1094 C 102.936 0.276885 2.29133 0
M  V30 1095 C 103.906 -0.609527 1.54512 0
M  V30 1096 O 105.091 -0.546955 1.82792 0
M  V30 1097 C 102.231 -0.538707 3.40869 0
M  V30 1098 C 101.344 0.372169 4.30394 0
M  V30 1099 C 100.479 -0.454908 5.29249 0
M  V30 1100 C 99.5179 0.45411 6.10413 0
M  V30 1101 N 98.6549 -0.335075 7.013 0
M  V30 1102 H 103.495 1.10052 2.76934 0
M  V30 1103 H 101.032 0.554161 1.36262 0
M  V30 1104 H 102.99 -1.02709 4.0436 0
M  V30 1105 H 101.62 -1.32727 2.9425 0
M  V30 1106 H 100.672 0.97888 3.6759 0
M  V30 1107 H 101.984 1.0703 4.87182 0
M  V30 1108 H 101.138 -1.00695 5.98285 0
M  V30 1109 H 99.8769 -1.18646 4.73048 0
M  V30 1110 H 98.8819 1.01813 5.40291 0
M  V30 1111 H 100.107 1.18409 6.68697 0
M  V30 1112 H 98.0529 -1.04994 6.47543 0
M  V30 1113 H 97.9699 0.304262 7.55387 0
M  V30 1114 H 99.2379 -0.869224 7.74638 0
M  V30 1115 N 103.467 -1.45747 0.599634 0
M  V30 1116 C 104.695 -2.06668 0.0978551 0
M  V30 1117 C 105.11 -1.44562 -1.21439 0
M  V30 1118 O 104.467 -0.556923 -1.73795 0
M  V30 1119 C 104.518 -3.61456 -0.0567044 0
M  V30 1120 O 104.239 -4.21242 1.20361 0
M  V30 1121 C 105.74 -4.39345 -0.590869 0
M  V30 1122 H 102.96 -0.667825 0.0651943 0
M  V30 1123 H 105.504 -1.87115 0.82511 0
M  V30 1124 H 103.659 -3.80378 -0.734251 0
M  V30 1125 H 104.073 -5.14323 1.02821 0
M  V30 1126 H 105.547 -5.48182 -0.648131 0
M  V30 1127 H 106.024 -4.08568 -1.61147 0
M  V30 1128 H 106.63 -4.25268 0.0523679 0
M  V30 1129 N 104.945 -0.338344 -1.53925 0
M  V30 1130 C 106.175 0.260919 -2.04946 0
M  V30 1131 C 106.583 1.45174 -1.2133 0
M  V30 1132 O 105.926 1.82122 -0.240262 0
M  V30 1133 C 105.988 0.744596 -3.51704 0
M  V30 1134 C 105.652 -0.325883 -4.55837 0
M  V30 1135 C 106.649 -1.16687 -5.06636 0
M  V30 1136 C 104.334 -0.478317 -5.00017 0
M  V30 1137 C 106.328 -2.14588 -6.00192 0
M  V30 1138 C 104.015 -1.46073 -5.93385 0
M  V30 1139 C 105.013 -2.29297 -6.4336 0
M  V30 1140 O 104.701 -3.25867 -7.34892 0
M  V30 1141 H 104.433 0.0551207 -0.673749 0
M  V30 1142 H 106.987 -0.486984 -1.99544 0
M  V30 1143 H 105.217 1.54366 -3.54553 0
M  V30 1144 H 106.906 1.26383 -3.85723 0
M  V30 1145 H 107.672 -1.06016 -4.73271 0
M  V30 1146 H 103.551 0.159613 -4.60724 0
M  V30 1147 H 107.095 -2.79585 -6.39123 0
M  V30 1148 H 102.992 -1.56802 -6.26166 0
M  V30 1149 H 103.76 -3.21278 -7.5281 0
M  V30 1150 N 106.423 1.57458 -0.0668435 0
M  V30 1151 C 107.37 2.12439 0.902122 0
M  V30 1152 C 108.34 1.03565 1.2986 0
M  V30 1153 O 109.525 1.312 1.38532 0
M  V30 1154 C 106.665 2.6865 2.16614 0
M  V30 1155 C 105.778 3.91663 1.82274 0
M  V30 1156 C 104.913 4.36134 3.0325 0
M  V30 1157 C 103.952 5.51808 2.64904 0
M  V30 1158 N 103.089 5.9126 3.78624 0
M  V30 1159 H 107.929 2.94934 0.426382 0
M  V30 1160 H 105.466 1.4575 0.198819 0
M  V30 1161 H 107.424 2.99346 2.90599 0
M  V30 1162 H 106.054 1.88928 2.61737 0
M  V30 1163 H 105.106 3.6746 0.983719 0
M  V30 1164 H 106.418 4.75693 1.50059 0
M  V30 1165 H 105.572 4.68465 3.85519 0
M  V30 1166 H 104.311 3.50948 3.38655 0
M  V30 1167 H 103.316 5.19133 1.81055 0
M  V30 1168 H 104.541 6.38722 2.30675 0
M  V30 1169 H 102.487 5.09024 4.138 0
M  V30 1170 H 102.404 6.70018 3.5016 0
M  V30 1171 H 103.672 6.28212 4.61486 0
M  V30 1172 N 107.901 -0.206675 1.56239 0
M  V30 1173 C 109.178 -0.954051 1.70755 0
M  V30 1174 C 109.558 -2.01841 0.618353 0
M  V30 1175 O 108.906 -2.25444 -0.372434 0
M  V30 1176 C 109.116 -1.551 3.12642 0
M  V30 1177 C 110.464 -2.03757 3.72516 0
M  V30 1178 O 111.488 -1.64965 3.15698 0
M  V30 1179 O 110.347 -2.75103 4.72208 0
M  V30 1180 H 107.441 -0.446636 0.696021 0
M  V30 1181 H 109.987 -0.197283 1.68549 0
M  V30 1182 H 108.759 -0.783212 3.83382 0
M  V30 1183 H 108.382 -2.37291 3.19028 0
M  V30 1184 N 109.379 -1.50304 -0.473955 0
M  V30 1185 C 110.627 -1.60832 -1.22382 0
M  V30 1186 C 110.948 -0.30939 -1.9253 0
M  V30 1187 O 110.218 0.67296 -1.83978 0
M  V30 1188 H 108.798 -0.592652 -0.454723 0
M  V30 1189 H 111.46 -1.87068 -0.546968 0
M  V30 1190 H 110.556 -2.41803 -1.97327 0
M  V30 1191 N 110.857 0.726932 -1.39834 0
M  V30 1192 C 111.82 1.82269 -1.38962 0
M  V30 1193 C 112.82 1.58248 -0.285334 0
M  V30 1194 O 114.01 1.65499 -0.54366 0
M  V30 1195 C 111.142 3.20186 -1.17019 0
M  V30 1196 H 112.335 1.84443 -2.36476 0
M  V30 1197 H 109.888 0.931416 -1.25516 0
M  V30 1198 H 110.623 3.23669 -0.202204 0
M  V30 1199 H 110.408 3.3902 -1.96998 0
M  V30 1200 H 111.898 4.00235 -1.1917 0
M  V30 1201 N 112.336 1.25143 0.95797 0
M  V30 1202 C 113.566 1.12261 1.73439 0
M  V30 1203 C 113.974 -0.326715 1.86358 0
M  V30 1204 O 113.317 -1.2367 1.35836 0
M  V30 1205 C 113.379 1.69966 3.16784 0
M  V30 1206 C 113.043 3.18936 3.27305 0
M  V30 1207 C 114.04 4.15968 3.11877 0
M  V30 1208 C 111.725 3.59083 3.51234 0
M  V30 1209 C 113.719 5.51126 3.20217 0
M  V30 1210 C 111.406 4.9438 3.5921 0
M  V30 1211 C 112.404 5.90211 3.43716 0
M  V30 1212 O 112.092 7.23046 3.51368 0
M  V30 1213 H 111.824 0.392476 0.550399 0
M  V30 1214 H 114.378 1.65927 1.21068 0
M  V30 1215 H 112.608 1.10744 3.70503 0
M  V30 1216 H 114.297 1.52232 3.76272 0
M  V30 1217 H 115.063 3.86292 2.93264 0
M  V30 1218 H 110.942 2.84989 3.62356 0
M  V30 1219 H 114.486 6.25905 3.0804 0
M  V30 1220 H 110.383 5.23723 3.77339 0
M  V30 1221 H 111.151 7.31097 3.6802 0
M  V30 1222 N 113.814 -1.1601 1.06675 0
M  V30 1223 C 115.091 -1.82679 0.699114 0
M  V30 1224 C 115.471 -1.94559 -0.819137 0
M  V30 1225 O 114.819 -1.49169 -1.73092 0
M  V30 1226 C 115.029 -3.19445 1.40555 0
M  V30 1227 C 116.377 -3.95171 1.55323 0
M  V30 1228 O 117.401 -3.28976 1.36577 0
M  V30 1229 O 116.26 -5.13833 1.86112 0
M  V30 1230 H 113.354 -0.788954 0.247951 0
M  V30 1231 H 115.9 -1.23179 1.16726 0
M  V30 1232 H 114.672 -3.05856 2.44065 0
M  V30 1233 H 114.295 -3.86625 0.927733 0
M  V30 1234 N 115.292 -0.849877 -1.32721 0
M  V30 1235 C 116.222 -0.306308 -2.31482 0
M  V30 1236 C 117.203 0.591952 -1.59468 0
M  V30 1237 O 118.388 0.513199 -1.87296 0
M  V30 1238 C 115.518 0.510204 -3.43532 0
M  V30 1239 C 114.472 -0.293209 -4.26994 0
M  V30 1240 C 113.798 0.647743 -5.30762 0
M  V30 1241 C 115.098 -1.51634 -4.99804 0
M  V30 1242 H 116.792 -1.13153 -2.77195 0
M  V30 1243 H 114.338 -0.545553 -1.33266 0
M  V30 1244 H 116.291 0.900856 -4.11658 0
M  V30 1245 H 115.015 1.36874 -2.96535 0
M  V30 1246 H 113.674 -0.665555 -3.60508 0
M  V30 1247 H 113.322 1.50299 -4.8002 0
M  V30 1248 H 113.022 0.11422 -5.87489 0
M  V30 1249 H 114.546 1.03567 -6.01753 0
M  V30 1250 H 115.96 -1.19824 -5.60638 0
M  V30 1251 H 114.357 -1.98745 -5.66234 0
M  V30 1252 H 115.427 -2.28018 -4.27943 0
M  V30 1253 N 116.77 1.45427 -0.607355 0
M  V30 1254 C 118.016 2.0254 -0.102607 0
M  V30 1255 C 118.349 1.47478 1.26348 0
M  V30 1256 O 117.624 0.64939 1.83339 0
M  V30 1257 C 117.907 3.60044 -0.0634347 0
M  V30 1258 C 117.76 4.2544 -1.46017 0
M  V30 1259 C 119.079 4.35646 0.624514 0
M  V30 1260 H 116.198 0.73598 -0.0387607 0
M  V30 1261 H 118.84 1.73284 -0.779282 0
M  V30 1262 H 116.99 3.85101 0.512808 0
M  V30 1263 H 118.662 4.11569 -2.08347 0
M  V30 1264 H 116.905 3.83849 -2.02094 0
M  V30 1265 H 117.576 5.34342 -1.385 0
M  V30 1266 H 120.052 4.15882 0.134723 0
M  V30 1267 H 118.928 5.45376 0.621028 0
M  V30 1268 H 119.189 4.08501 1.69055 0
M  V30 1269 N 118.248 0.346503 1.53744 0
M  V30 1270 C 119.494 -0.249473 2.0126 0
M  V30 1271 C 119.827 -1.49965 1.23386 0
M  V30 1272 O 119.102 -1.91811 0.32229 0
M  V30 1273 C 119.385 -0.560643 3.55709 0
M  V30 1274 C 119.238 0.701836 4.44291 0
M  V30 1275 C 120.557 -1.36905 4.18264 0
M  V30 1276 H 117.676 -0.0891987 0.731582 0
M  V30 1277 H 120.318 0.467624 1.84156 0
M  V30 1278 H 118.468 -1.17156 3.70414 0
M  V30 1279 H 120.14 1.33974 4.41417 0
M  V30 1280 H 118.383 1.32612 4.13033 0
M  V30 1281 H 119.054 0.43933 5.50249 0
M  V30 1282 H 121.53 -0.852448 4.07275 0
M  V30 1283 H 120.406 -1.55553 5.26398 0
M  V30 1284 H 120.667 -2.37203 3.73078 0
M  V30 1285 N 119.726 -1.57421 0.075193 0
M  V30 1286 C 121.137 -1.81021 -0.456964 0
M  V30 1287 C 121.488 -0.98936 -1.69429 0
M  V30 1288 O 120.613 -0.212865 -2.15351 0
M  V30 1289 C 121.208 -3.28329 -0.83581 0
M  V30 1290 C 119.767 -3.52764 -1.31281 0
M  V30 1291 C 118.914 -2.75676 -0.299648 0
M  V30 1292 H 121.865 -1.55822 0.300856 0
M  V30 1293 H 121.886 -3.40564 -1.69696 0
M  V30 1294 H 121.398 -3.88046 0.0649238 0
M  V30 1295 H 119.499 -2.98355 -2.23193 0
M  V30 1296 H 119.612 -4.61451 -1.28839 0
M  V30 1297 H 117.976 -2.42538 -0.777641 0
M  V30 1298 H 118.759 -3.38132 0.593417 0
M  V30 1299 N 121.204 0.198386 -1.56346 0
M  V30 1300 C 122.429 0.939682 -1.84891 0
M  V30 1301 C 122.854 1.76202 -0.658369 0
M  V30 1302 O 122.212 1.76993 0.392851 0
M  V30 1303 C 122.26 1.81428 -3.11635 0
M  V30 1304 O 121.364 2.91265 -2.91956 0
M  V30 1305 H 120.705 0.264807 -0.608912 0
M  V30 1306 H 123.235 0.204695 -2.03573 0
M  V30 1307 H 123.245 2.21958 -3.42343 0
M  V30 1308 H 121.92 1.21004 -3.97908 0
M  V30 1309 H 120.497 2.54514 -2.72538 0
M  V30 1310 N 122.682 1.50554 0.465978 0
M  V30 1311 C 123.91 1.65563 1.24083 0
M  V30 1312 C 124.325 0.341051 1.85694 0
M  V30 1313 O 123.682 -0.677543 1.69457 0
M  V30 1314 C 123.733 2.75051 2.34583 0
M  V30 1315 O 123.454 4.01413 1.75497 0
M  V30 1316 C 124.955 3.01078 3.25372 0
M  V30 1317 H 122.175 0.55638 0.375077 0
M  V30 1318 H 124.719 1.96807 0.555624 0
M  V30 1319 H 122.874 2.46486 2.9887 0
M  V30 1320 H 123.288 4.62002 2.48303 0
M  V30 1321 H 124.762 3.81339 3.99105 0
M  V30 1322 H 125.239 2.12349 3.84453 0
M  V30 1323 H 125.845 3.31194 2.66816 0
M  V30 1324 N 124.16 -0.719506 1.40217 0
M  V30 1325 C 125.39 -1.50646 1.41384 0
M  V30 1326 C 125.798 -1.89197 0.0107743 0
M  V30 1327 O 125.141 -1.55709 -0.974708 0
M  V30 1328 C 125.203 -2.81405 2.23722 0
M  V30 1329 C 124.867 -2.65199 3.72181 0
M  V30 1330 C 125.864 -2.32717 4.64907 0
M  V30 1331 C 123.549 -2.81586 4.1595 0
M  V30 1332 C 125.543 -2.16827 5.99387 0
M  V30 1333 C 123.23 -2.65313 5.50502 0
M  V30 1334 C 124.228 -2.32981 6.42035 0
M  V30 1335 O 123.916 -2.16827 7.74107 0
M  V30 1336 H 123.648 -0.471606 0.484318 0
M  V30 1337 H 126.202 -0.895456 1.84853 0
M  V30 1338 H 124.432 -3.44823 1.75026 0
M  V30 1339 H 126.121 -3.43102 2.16878 0
M  V30 1340 H 126.887 -2.19694 4.32388 0
M  V30 1341 H 122.766 -3.0574 3.45027 0
M  V30 1342 H 126.31 -1.91513 6.70797 0
M  V30 1343 H 122.207 -2.7792 5.82607 0
M  V30 1344 H 122.975 -2.31778 7.84998 0
M  V30 1345 N 125.638 -1.25649 -0.95132 0
M  V30 1346 C 126.868 -1.13179 -1.72841 0
M  V30 1347 C 127.276 0.316827 -1.86528 0
M  V30 1348 O 126.619 1.22948 -1.3649 0
M  V30 1349 C 126.681 -1.71644 -3.15878 0
M  V30 1350 C 126.345 -3.20667 -3.25609 0
M  V30 1351 C 127.342 -4.17616 -3.09666 0
M  V30 1352 C 125.027 -3.6094 -3.49324 0
M  V30 1353 C 127.021 -5.52817 -3.17289 0
M  V30 1354 C 124.708 -4.96278 -3.56584 0
M  V30 1355 C 125.706 -5.92025 -3.40581 0
M  V30 1356 O 125.394 -7.24899 -3.47528 0
M  V30 1357 H 125.126 -0.395389 -0.54831 0
M  V30 1358 H 127.68 -1.66566 -1.20187 0
M  V30 1359 H 125.91 -1.12707 -3.69911 0
M  V30 1360 H 127.599 -1.54225 -3.75459 0
M  V30 1361 H 128.365 -3.87842 -2.91211 0
M  V30 1362 H 124.244 -2.86907 -3.6084 0
M  V30 1363 H 127.788 -6.2753 -3.04716 0
M  V30 1364 H 123.685 -5.25716 -3.74556 0
M  V30 1365 H 124.453 -7.33039 -3.64138 0
M  V30 1366 N 127.117 1.15442 -1.07289 0
M  V30 1367 C 128.363 1.86489 -0.796846 0
M  V30 1368 C 128.696 1.82078 0.675371 0
M  V30 1369 O 127.971 1.24346 1.4956 0
M  V30 1370 C 128.254 3.35626 -1.30489 0
M  V30 1371 C 128.107 3.48673 -2.84161 0
M  V30 1372 C 129.426 4.30357 -0.920907 0
M  V30 1373 H 126.545 0.677144 -0.290939 0
M  V30 1374 H 129.187 1.35633 -1.33056 0
M  V30 1375 H 127.337 3.79068 -0.850883 0
M  V30 1376 H 129.009 3.14099 -3.37846 0
M  V30 1377 H 127.252 2.90253 -3.22391 0
M  V30 1378 H 127.923 4.53453 -3.14777 0
M  V30 1379 H 130.399 3.94871 -1.3121 0
M  V30 1380 H 129.275 5.33193 -1.30372 0
M  V30 1381 H 129.536 4.4176 0.173226 0
M  V30 1382 N 128.595 0.856903 1.32268 0
M  V30 1383 C 129.872 0.382583 1.91822 0
M  V30 1384 C 130.252 -1.13407 1.78051 0
M  V30 1385 O 129.6 -1.95673 1.18001 0
M  V30 1386 C 129.81 0.849446 3.38505 0
M  V30 1387 C 131.158 0.867936 4.15634 0
M  V30 1388 O 132.182 0.794232 3.47232 0
M  V30 1389 O 131.041 0.972286 5.37781 0
M  V30 1390 H 128.135 0.112014 0.819379 0
M  V30 1391 H 130.681 0.943952 1.41024 0
M  V30 1392 H 129.453 1.89267 3.42482 0
M  V30 1393 H 129.076 0.265652 3.96712 0
M  V30 1394 N 130.073 -1.45103 0.615059 0
M  V30 1395 C 131.02 -2.30586 -0.0993978 0
M  V30 1396 C 131.99 -1.42544 -0.852669 0
M  V30 1397 O 133.175 -1.71465 -0.836917 0
M  V30 1398 C 130.315 -3.27572 -1.08583 0
M  V30 1399 C 129.428 -4.30717 -0.332656 0
M  V30 1400 C 128.563 -5.14807 -1.30947 0
M  V30 1401 C 127.602 -6.09673 -0.544538 0
M  V30 1402 N 126.739 -6.86517 -1.47101 0
M  V30 1403 H 131.579 -2.91144 0.635542 0
M  V30 1404 H 129.116 -1.4346 0.325206 0
M  V30 1405 H 131.074 -3.82276 -1.67095 0
M  V30 1406 H 129.704 -2.68751 -1.78809 0
M  V30 1407 H 128.756 -3.78615 0.368107 0
M  V30 1408 H 130.068 -4.98102 0.263842 0
M  V30 1409 H 129.222 -5.73948 -1.96643 0
M  V30 1410 H 127.961 -4.47458 -1.9399 0
M  V30 1411 H 126.966 -5.49656 0.126003 0
M  V30 1412 H 128.191 -6.79052 0.080947 0
M  V30 1413 H 126.137 -6.21851 -2.08895 0
M  V30 1414 H 126.054 -7.50281 -0.928137 0
M  V30 1415 H 127.322 -7.50194 -2.11731 0
M  V30 1416 N 131.551 -0.354651 -1.53558 0
M  V30 1417 C 132.484 0.540273 -2.21712 0
M  V30 1418 C 133.462 1.09161 -1.2051 0
M  V30 1419 O 134.646 1.14979 -1.49372 0
M  V30 1420 C 131.773 1.74435 -2.90328 0
M  V30 1421 C 130.819 1.32146 -4.05512 0
M  V30 1422 S 131.652 0.331924 -5.3447 0
M  V30 1423 C 132.808 1.54258 -6.06593 0
M  V30 1424 H 133.041 -0.0385776 -2.97275 0
M  V30 1425 H 130.574 -0.138736 -1.53775 0
M  V30 1426 H 132.532 2.43507 -3.30476 0
M  V30 1427 H 131.193 2.29444 -2.1451 0
M  V30 1428 H 130.386 2.21952 -4.52497 0
M  V30 1429 H 129.988 0.710091 -3.67197 0
M  V30 1430 H 132.28 2.47534 -6.30661 0
M  V30 1431 H 133.223 1.11431 -6.99277 0
M  V30 1432 H 133.631 1.74367 -5.36895 0
M  V30 1433 N 133.029 1.57378 -0.0835403 0
M  V30 1434 C 134.445 1.57246 0.273109 0
M  V30 1435 C 134.645 1.09385 1.69225 0
M  V30 1436 O 133.701 0.765051 2.40631 0
M  V30 1437 C 135.014 3.00614 0.0720628 0
M  V30 1438 C 136.562 3.12684 0.1407 0
M  V30 1439 C 137.037 4.57989 -0.0322094 0
M  V30 1440 N 138.528 4.63194 0.0230085 0
M  V30 1441 C 139.263 5.73335 -0.0861941 0
M  V30 1442 N 138.759 6.9235 -0.24958 0
M  V30 1443 N 140.552 5.62093 -0.0282886 0
M  V30 1444 H 132.703 1.86801 -1.0109 0
M  V30 1445 H 134.966 0.861687 -0.395222 0
M  V30 1446 H 134.672 3.39786 -0.907662 0
M  V30 1447 H 134.546 3.68193 0.81936 0
M  V30 1448 H 136.933 2.73391 1.11092 0
M  V30 1449 H 137.014 2.47719 -0.637896 0
M  V30 1450 H 136.658 4.97973 -0.999247 0
M  V30 1451 H 136.588 5.21 0.765937 0
M  V30 1452 H 139.079 3.77613 0.14722 0
M  V30 1453 H 139.392 7.72117 -0.324733 0
M  V30 1454 H 137.737 6.94415 -0.285097 0
M  V30 1455 H 140.928 4.67997 0.0981408 0
M  V30 1456 H 141.101 6.47895 -0.116845 0
M  V30 1457 N 134.507 -0.190092 1.56449 0
M  V30 1458 C 135.454 -1.23557 1.94942 0
M  V30 1459 C 136.424 -1.44972 0.810696 0
M  V30 1460 O 137.609 -1.58023 1.06927 0
M  V30 1461 C 134.749 -2.57416 2.2985 0
M  V30 1462 C 133.862 -2.43537 3.5681 0
M  V30 1463 C 132.997 -3.70134 3.81017 0
M  V30 1464 C 132.036 -3.51109 5.01387 0
M  V30 1465 N 131.173 -4.6973 5.21822 0
M  V30 1466 H 136.013 -0.900304 2.84075 0
M  V30 1467 H 133.55 -0.43318 1.40577 0
M  V30 1468 H 135.508 -3.35409 2.48106 0
M  V30 1469 H 134.138 -2.88975 1.43852 0
M  V30 1470 H 133.19 -1.56816 3.46573 0
M  V30 1471 H 134.502 -2.25415 4.4496 0
M  V30 1472 H 133.656 -4.56566 3.9954 0
M  V30 1473 H 132.395 -3.91215 2.91207 0
M  V30 1474 H 131.4 -2.63063 4.82782 0
M  V30 1475 H 132.625 -3.31468 5.9271 0
M  V30 1476 H 130.571 -4.91065 4.34961 0
M  V30 1477 H 130.488 -4.54452 6.0416 0
M  V30 1478 H 131.756 -5.57499 5.44808 0
M  V30 1479 N 135.985 -1.50799 -0.457987 0
M  V30 1480 C 136.895 -1.73426 -1.57989 0
M  V30 1481 C 137.911 -0.617745 -1.62665 0
M  V30 1482 O 139.087 -0.897614 -1.80291 0
M  V30 1483 C 136.152 -1.83557 -2.94122 0
M  V30 1484 C 135.213 -3.07345 -2.99729 0
M  V30 1485 C 134.446 -3.16983 -4.29368 0
M  V30 1486 O 134.669 -2.33077 -5.20607 0
M  V30 1487 O 133.603 -4.09812 -4.40837 0
M  V30 1488 H 137.429 -2.68555 -1.41817 0
M  V30 1489 H 135.014 -1.35052 -0.638859 0
M  V30 1490 H 136.896 -1.92326 -3.74952 0
M  V30 1491 H 135.571 -0.916137 -3.10465 0
M  V30 1492 H 134.478 -3.04068 -2.1793 0
M  V30 1493 H 135.811 -3.9891 -2.88326 0
M  V30 1494 N 137.463 0.71206 -1.40597 0
M  V30 1495 C 138.711 1.46907 -1.38791 0
M  V30 1496 C 139.032 1.94998 0.00780391 0
M  V30 1497 O 138.302 1.70587 0.963174 0
M  V30 1498 H 136.882 0.545043 -0.51082 0
M  V30 1499 H 139.544 0.843882 -1.75683 0
M  V30 1500 H 138.64 2.34021 -2.06496 0
M  V30 1501 N 138.941 1.26152 0.944643 0
M  V30 1502 C 139.874 1.01729 2.04271 0
M  V30 1503 C 140.852 -0.0568101 1.62501 0
M  V30 1504 O 142.036 0.0848987 1.88309 0
M  V30 1505 C 139.163 0.539792 3.34371 0
M  V30 1506 C 138.209 1.60593 3.9511 0
M  V30 1507 S 139.042 3.19392 4.29825 0
M  V30 1508 C 140.198 2.73402 5.63029 0
M  V30 1509 H 140.431 1.94703 2.24673 0
M  V30 1510 H 137.964 1.09793 1.08558 0
M  V30 1511 H 139.922 0.270956 4.09605 0
M  V30 1512 H 138.583 -0.369609 3.11918 0
M  V30 1513 H 137.776 1.22275 4.88943 0
M  V30 1514 H 137.378 1.82596 3.26397 0
M  V30 1515 H 139.67 2.1765 6.41588 0
M  V30 1516 H 140.613 3.65913 6.06229 0
M  V30 1517 H 141.021 2.13077 5.22741 0
M  V30 1518 N 140.419 -1.14872 1.07899 0
M  V30 1519 C 141.668 -1.85135 0.800499 0
M  V30 1520 C 141.981 -1.83547 -0.676014 0
M  V30 1521 O 143.187 -2.49548 -1.06948 0
M  V30 1522 C 141.643 -3.3231 1.38197 0
M  V30 1523 C 141.251 -3.42329 2.8899 0
M  V30 1524 C 142.995 -4.0772 1.18174 0
M  V30 1525 C 140.902 -4.83684 3.403 0
M  V30 1526 H 139.832 -0.693563 0.29578 0
M  V30 1527 H 142.483 -1.29532 1.29976 0
M  V30 1528 H 140.865 -3.87618 0.810431 0
M  V30 1529 H 142.039 -2.97097 3.52236 0
M  V30 1530 H 140.354 -2.80369 3.07867 0
M  V30 1531 H 142.951 -5.12049 1.5398 0
M  V30 1532 H 143.294 -4.16124 0.12117 0
M  V30 1533 H 143.827 -3.58696 1.71994 0
M  V30 1534 H 140.566 -4.80465 4.45907 0
M  V30 1535 H 140.086 -5.29474 2.81811 0
M  V30 1536 H 141.765 -5.52558 3.36584 0
M  V30 1537 N 141.898 -0.863906 -1.31812 0
M  V30 1538 C 142.83 -0.272485 -2.27575 0
M  V30 1539 C 143.843 0.56104 -1.52827 0
M  V30 1540 O 145.032 0.384021 -1.7432 0
M  V30 1541 C 142.132 0.63283 -3.32939 0
M  V30 1542 C 141.305 -0.166902 -4.37081 0
M  V30 1543 C 140.364 0.665608 -5.21973 0
M  V30 1544 O 139.39 0.0958091 -5.69119 0
M  V30 1545 N 140.592 1.9787 -5.45736 0
M  V30 1546 H 143.357 -1.0954 -2.78964 0
M  V30 1547 H 140.918 -0.724791 -1.4477 0
M  V30 1548 H 142.91 1.19532 -3.86645 0
M  V30 1549 H 141.48 1.35642 -2.81638 0
M  V30 1550 H 140.7 -0.910838 -3.83533 0
M  V30 1551 H 141.988 -0.715874 -5.03739 0
M  V30 1552 H 141.386 2.46484 -5.09178 0
M  V30 1553 H 139.943 2.48911 -6.024 0
M  V30 1554 N 143.376 1.44774 -0.622745 0
M  V30 1555 C 144.323 2.30635 0.0871679 0
M  V30 1556 C 145.293 1.42994 0.845097 0
M  V30 1557 O 146.478 1.71907 0.827812 0
M  V30 1558 C 143.618 3.28144 1.06844 0
M  V30 1559 C 142.731 4.30888 0.309809 0
M  V30 1560 C 141.866 5.15494 1.28215 0
M  V30 1561 C 140.905 6.09953 0.512198 0
M  V30 1562 N 140.042 6.87287 1.43458 0
M  V30 1563 H 144.882 2.90803 -0.650974 0
M  V30 1564 H 142.419 1.43286 -0.33281 0
M  V30 1565 H 144.377 3.83157 1.65066 0
M  V30 1566 H 143.007 2.69695 1.77382 0
M  V30 1567 H 142.059 3.78414 -0.388181 0
M  V30 1568 H 143.371 4.97955 -0.290254 0
M  V30 1569 H 142.525 5.74983 1.93596 0
M  V30 1570 H 141.264 4.48481 1.91614 0
M  V30 1571 H 140.269 5.49581 -0.155151 0
M  V30 1572 H 141.494 6.78999 -0.116958 0
M  V30 1573 H 139.44 6.2295 2.05594 0
M  V30 1574 H 139.357 7.50763 0.888335 0
M  V30 1575 H 140.625 7.51306 2.07749 0
M  V30 1576 N 144.854 0.36279 1.53368 0
M  V30 1577 C 146.103 -0.22888 2.00397 0
M  V30 1578 C 146.416 -1.50096 1.25421 0
M  V30 1579 O 147.622 -2.17106 1.63025 0
M  V30 1580 C 146.078 -0.458417 3.56969 0
M  V30 1581 C 145.686 0.798877 4.4082 0
M  V30 1582 C 147.43 -1.00789 4.12361 0
M  V30 1583 C 145.337 0.539078 5.88938 0
M  V30 1584 H 144.267 -0.089305 0.748693 0
M  V30 1585 H 146.918 0.481099 1.77081 0
M  V30 1586 H 145.3 -1.22959 3.76427 0
M  V30 1587 H 146.474 1.57262 4.33134 0
M  V30 1588 H 144.789 1.27137 3.96516 0
M  V30 1589 H 147.386 -1.21754 5.20653 0
M  V30 1590 H 147.729 -1.9692 3.66781 0
M  V30 1591 H 148.262 -0.296961 3.9669 0
M  V30 1592 H 145.001 1.47064 6.3879 0
M  V30 1593 H 144.521 -0.196222 5.99479 0
M  V30 1594 H 146.2 0.163542 6.46793 0
M  V30 1595 N 146.332 -1.57332 0.0918853 0
M  V30 1596 C 147.609 -1.85691 -0.614668 0
M  V30 1597 C 147.989 -0.988146 -1.86545 0
M  V30 1598 O 147.337 -0.0597055 -2.28422 0
M  V30 1599 C 147.547 -3.36294 -0.933126 0
M  V30 1600 C 148.895 -4.04275 -1.29796 0
M  V30 1601 O 149.919 -3.41157 -1.02424 0
M  V30 1602 O 148.778 -5.1564 -1.81047 0
M  V30 1603 H 145.872 -0.767802 -0.307261 0
M  V30 1604 H 148.418 -1.69244 0.12434 0
M  V30 1605 H 147.19 -3.91273 -0.0456404 0
M  V30 1606 H 146.813 -3.58076 -1.72822 0
M  V30 1607 N 147.81 0.181792 -1.56548 0
M  V30 1608 C 148.757 1.22521 -1.95595 0
M  V30 1609 C 149.727 1.4454 -0.818373 0
M  V30 1610 O 150.912 1.57454 -1.07763 0
M  V30 1611 C 148.052 2.56193 -2.31212 0
M  V30 1612 C 147.165 2.41641 -3.58097 0
M  V30 1613 C 146.3 3.68108 -3.82975 0
M  V30 1614 C 145.339 3.48445 -5.03242 0
M  V30 1615 N 144.476 4.66956 -5.24306 0
M  V30 1616 H 149.316 0.885226 -2.84548 0
M  V30 1617 H 146.853 0.425718 -1.40805 0
M  V30 1618 H 148.811 3.34088 -2.49882 0
M  V30 1619 H 147.441 2.88208 -1.45382 0
M  V30 1620 H 146.493 1.54976 -3.474 0
M  V30 1621 H 147.805 2.23052 -4.46149 0
M  V30 1622 H 146.959 4.54441 -4.01956 0
M  V30 1623 H 145.698 3.89666 -2.93278 0
M  V30 1624 H 144.703 2.60499 -4.8417 0
M  V30 1625 H 145.928 3.2832 -5.9446 0
M  V30 1626 H 143.874 4.88752 -4.37559 0
M  V30 1627 H 143.791 4.51242 -6.06561 0
M  V30 1628 H 145.059 5.54602 -5.47756 0
M  V30 1629 N 149.288 1.51039 0.449983 0
M  V30 1630 C 150.513 1.6715 1.22783 0
M  V30 1631 C 150.938 0.363081 1.84563 0
M  V30 1632 O 150.296 -0.675433 1.68249 0
M  V30 1633 C 150.344 2.77985 2.29689 0
M  V30 1634 O 149.448 2.40707 3.34864 0
M  V30 1635 H 148.789 0.557746 0.360299 0
M  V30 1636 H 151.319 1.97535 0.533005 0
M  V30 1637 H 151.329 3.01693 2.74673 0
M  V30 1638 H 150.004 3.72935 1.84098 0
M  V30 1639 H 148.581 2.27523 2.95445 0
M  V30 1640 N 150.766 -0.704594 1.40972 0
M  V30 1641 C 151.713 -1.81862 1.42109 0
M  V30 1642 C 152.683 -1.63781 0.276593 0
M  V30 1643 O 153.868 -1.84759 0.4763 0
M  V30 1644 C 151.008 -3.19669 1.30022 0
M  V30 1645 C 150.121 -3.49246 2.54267 0
M  V30 1646 C 149.256 -4.76618 2.3454 0
M  V30 1647 C 148.295 -4.99133 3.54306 0
M  V30 1648 N 147.432 -6.17726 3.33706 0
M  V30 1649 H 152.272 -1.80226 2.37324 0
M  V30 1650 H 149.809 -0.880238 1.17857 0
M  V30 1651 H 151.767 -3.99263 1.21018 0
M  V30 1652 H 150.397 -3.20506 0.384192 0
M  V30 1653 H 149.449 -2.64125 2.73756 0
M  V30 1654 H 150.761 -3.61788 3.43381 0
M  V30 1655 H 149.915 -5.64249 2.22952 0
M  V30 1656 H 148.654 -4.66305 1.42867 0
M  V30 1657 H 147.659 -4.09953 3.66359 0
M  V30 1658 H 148.884 -5.11311 4.4692 0
M  V30 1659 H 146.83 -6.08642 2.44725 0
M  V30 1660 H 146.747 -6.30995 4.16391 0
M  V30 1661 H 148.015 -7.08115 3.25873 0
M  V30 1662 N 152.244 -1.26651 -0.937939 0
M  V30 1663 C 153.174 -1.10993 -2.05433 0
M  V30 1664 C 154.155 -0.0142161 -1.70094 0
M  V30 1665 O 155.34 -0.186837 -1.93299 0
M  V30 1666 C 152.47 -0.745561 -3.39203 0
M  V30 1667 C 151.424 -1.79337 -3.88616 0
M  V30 1668 C 150.75 -1.28324 -5.19073 0
M  V30 1669 C 152.05 -3.19553 -4.13138 0
M  V30 1670 H 153.744 -2.0438 -2.1879 0
M  V30 1671 H 151.29 -0.984041 -1.05131 0
M  V30 1672 H 153.243 -0.622888 -4.16771 0
M  V30 1673 H 151.967 0.22401 -3.25831 0
M  V30 1674 H 150.626 -1.90477 -3.13231 0
M  V30 1675 H 150.274 -0.303414 -5.02084 0
M  V30 1676 H 149.974 -1.98369 -5.53103 0
M  V30 1677 H 151.498 -1.1733 -5.99221 0
M  V30 1678 H 152.912 -3.11471 -4.81309 0
M  V30 1679 H 151.309 -3.87218 -4.58457 0
M  V30 1680 H 152.379 -3.65368 -3.18801 0
M  V30 1681 N 153.722 1.14298 -1.08507 0
M  V30 1682 C 154.95 1.89219 -0.836876 0
M  V30 1683 C 155.365 1.78638 0.611054 0
M  V30 1684 O 154.722 1.14643 1.41998 0
M  V30 1685 C 154.773 3.39158 -1.25116 0
M  V30 1686 O 154.494 3.49449 -2.64229 0
M  V30 1687 C 155.995 4.31073 -1.03398 0
M  V30 1688 H 153.215 0.599328 -0.301739 0
M  V30 1689 H 155.759 1.44746 -1.44461 0
M  V30 1690 H 153.914 3.81251 -0.687514 0
M  V30 1691 H 154.328 4.42589 -2.81452 0
M  V30 1692 H 155.802 5.34646 -1.37323 0
M  V30 1693 H 156.279 4.3919 0.0289259 0
M  V30 1694 H 156.885 3.94738 -1.58311 0
M  V30 1695 N 155.201 0.870884 1.31352 0
M  V30 1696 C 156.149 0.316445 2.30437 0
M  V30 1697 C 157.143 -0.568965 1.59559 0
M  V30 1698 O 158.349 -0.454964 1.74155 0
M  V30 1699 H 154.724 0.0836521 0.747333 0
M  V30 1700 H 156.695 1.16606 2.74673 0
M  V30 1701 C 155.444 -0.46635 3.44558 0
M  V30 1702 H 154.767 0.205687 3.99271 0
M  V30 1703 H 156.207 -0.819614 4.16003 0
M  V30 1704 C 154.666 -1.65797 2.9328 0
M  V30 1705 O 155.196 -2.75728 2.92125 0
M  V30 1706 N 153.402 -1.49041 2.4947 0
M  V30 1707 H 152.949 -0.59612 2.50608 0
M  V30 1708 H 152.907 -2.28911 2.15516 0
M  V30 1709 N 156.679 -1.44442 0.630414 0
M  V30 1710 C 157.926 -2.02052 0.134617 0
M  V30 1711 C 158.254 -1.49576 -1.24327 0
M  V30 1712 O 157.509 -0.669806 -1.83881 0
M  V30 1713 C 157.808 -3.57332 0.0697835 0
M  V30 1714 C 157.474 -4.29058 1.38635 0
M  V30 1715 C 156.136 -4.4837 1.74694 0
M  V30 1716 C 158.488 -4.69872 2.25543 0
M  V30 1717 C 155.816 -5.05756 2.97369 0
M  V30 1718 C 158.168 -5.28616 3.47487 0
M  V30 1719 C 156.832 -5.46147 3.8377 0
M  V30 1720 H 156.102 -0.739361 0.0492598 0
M  V30 1721 H 158.749 -1.73217 0.816586 0
M  V30 1722 H 157.054 -3.85577 -0.695553 0
M  V30 1723 H 158.751 -3.99637 -0.330344 0
M  V30 1724 H 155.341 -4.14357 1.09574 0
M  V30 1725 H 159.525 -4.54666 1.98979 0
M  V30 1726 H 154.781 -5.17515 3.25558 0
M  V30 1727 H 158.955 -5.59192 4.15063 0
M  V30 1728 H 156.582 -5.9038 4.7891 0
M  V30 1729 N 158.157 -0.370918 -1.53173 0
M  V30 1730 C 159.382 0.220293 -2.06227 0
M  V30 1731 C 159.807 1.41243 -1.24225 0
M  V30 1732 O 159.165 1.79387 -0.262645 0
M  V30 1733 C 159.213 0.586663 -3.55796 0
M  V30 1734 O 158.317 1.68317 -3.76488 0
M  V30 1735 H 157.658 0.0308099 -0.663285 0
M  V30 1736 H 160.188 -0.533068 -1.97534 0
M  V30 1737 H 160.198 0.85617 -3.98916 0
M  V30 1738 H 158.873 -0.285013 -4.14922 0
M  V30 1739 H 157.45 1.40881 -3.45264 0
M  V30 1740 N 159.635 1.57281 -0.100228 0
M  V30 1741 C 160.583 2.15542 0.874328 0
M  V30 1742 C 161.577 1.09962 1.28859 0
M  V30 1743 O 162.783 1.28298 1.26252 0
M  V30 1744 H 159.158 0.689567 0.300003 0
M  V30 1745 H 161.129 2.96241 0.35829 0
M  V30 1746 C 159.878 2.75454 2.1218 0
M  V30 1747 H 159.201 3.56384 1.81193 0
M  V30 1748 H 160.641 3.19781 2.78417 0
M  V30 1749 C 159.1 1.71602 2.89921 0
M  V30 1750 O 159.63 1.15804 3.84646 0
M  V30 1751 N 157.836 1.41975 2.53558 0
M  V30 1752 H 157.383 1.87539 1.76598 0
M  V30 1753 H 157.341 0.727274 3.05873 0
M  V30 1754 N 161.113 -0.173488 1.56642 0
M  V30 1755 C 162.043 -1.2171 1.99271 0
M  V30 1756 C 163.024 -1.46289 0.867959 0
M  V30 1757 O 164.209 -1.5766 1.13388 0
M  V30 1758 C 161.339 -2.55651 2.35074 0
M  V30 1759 C 160.293 -2.45645 3.50489 0
M  V30 1760 C 159.619 -3.84056 3.72028 0
M  V30 1761 C 160.919 -1.96302 4.84007 0
M  V30 1762 H 162.613 -0.86275 2.867 0
M  V30 1763 H 160.159 -0.413571 1.37933 0
M  V30 1764 H 162.112 -3.2886 2.63494 0
M  V30 1765 H 160.836 -2.92869 1.44552 0
M  V30 1766 H 159.495 -1.7489 3.22194 0
M  V30 1767 H 159.143 -4.18664 2.788 0
M  V30 1768 H 158.843 -3.7823 4.49684 0
M  V30 1769 H 160.367 -4.58854 4.02846 0
M  V30 1770 H 161.781 -2.59284 5.11317 0
M  V30 1771 H 160.178 -2.01429 5.65284 0
M  V30 1772 H 161.248 -0.917226 4.76146 0
M  V30 1773 N 162.591 -1.51276 -0.441967 0
M  V30 1774 C 163.868 -1.54252 -1.20273 0
M  V30 1775 C 164.248 -0.30408 -2.08898 0
M  V30 1776 O 163.596 0.711084 -2.17154 0
M  V30 1777 C 163.806 -2.85406 -2.00859 0
M  V30 1778 C 165.154 -3.37181 -2.58059 0
M  V30 1779 O 166.178 -2.86925 -2.11074 0
M  V30 1780 O 165.037 -4.24858 -3.43741 0
M  V30 1781 H 162.131 -0.619969 -0.547328 0
M  V30 1782 H 164.677 -1.63586 -0.451413 0
M  V30 1783 H 163.449 -3.67003 -1.35736 0
M  V30 1784 H 163.072 -2.79213 -2.83065 0
M  V30 1785 N 164.069 0.697108 -1.41344 0
M  V30 1786 C 165.48 1.27697 -1.36199 0
M  V30 1787 C 165.831 1.9615 -0.0443463 0
M  V30 1788 O 164.956 1.98689 0.857419 0
M  V30 1789 C 165.551 2.32223 -2.46694 0
M  V30 1790 C 164.11 2.8579 -2.44952 0
M  V30 1791 C 163.257 1.59807 -2.26621 0
M  V30 1792 H 166.208 0.491968 -1.50882 0
M  V30 1793 H 166.229 3.1348 -2.15664 0
M  V30 1794 H 165.741 1.82373 -3.42581 0
M  V30 1795 H 163.842 3.3982 -1.52817 0
M  V30 1796 H 163.955 3.36325 -3.41207 0
M  V30 1797 H 162.319 1.8556 -1.7447 0
M  V30 1798 H 163.102 1.11956 -3.24532 0
M  V30 1799 N 165.547 1.27147 0.931209 0
M  V30 1800 C 166.824 1.0401 1.65654 0
M  V30 1801 C 167.204 -0.426297 2.06751 0
M  V30 1802 O 166.552 -1.40879 1.79904 0
M  V30 1803 C 166.762 1.99834 2.86125 0
M  V30 1804 C 168.11 2.29007 3.57549 0
M  V30 1805 O 169.134 1.97779 2.96246 0
M  V30 1806 O 167.993 2.82222 4.67989 0
M  V30 1807 H 165.087 0.396239 0.725895 0
M  V30 1808 H 167.633 1.38397 0.982056 0
M  V30 1809 H 166.405 2.98744 2.52721 0
M  V30 1810 H 166.028 1.65987 3.61295 0
M  V30 1811 N 167.025 -1.13721 1.09112 0
M  V30 1812 C 167.958 -2.18094 0.67158 0
M  V30 1813 C 168.936 -1.59414 -0.320299 0
M  V30 1814 O 170.12 -1.87183 -0.222444 0
M  V30 1815 C 167.247 -3.38698 -0.0111189 0
M  V30 1816 C 166.293 -4.15966 0.942055 0
M  V30 1817 S 167.126 -4.7604 2.45246 0
M  V30 1818 C 168.282 -5.99994 1.78208 0
M  V30 1819 H 168.515 -2.53344 1.55577 0
M  V30 1820 H 166.048 -1.24967 0.906789 0
M  V30 1821 H 168.006 -4.08559 -0.398716 0
M  V30 1822 H 166.667 -3.01756 -0.871905 0
M  V30 1823 H 165.86 -5.02318 0.411396 0
M  V30 1824 H 165.462 -3.51745 1.2709 0
M  V30 1825 H 167.754 -6.68441 1.10424 0
M  V30 1826 H 168.697 -6.57662 2.62463 0
M  V30 1827 H 169.105 -5.50432 1.25238 0
M  V30 1828 N 168.503 -0.877838 -1.30888 0
M  V30 1829 C 169.433 -0.35534 -2.3078 0
M  V30 1830 C 170.414 0.557994 -1.60687 0
M  V30 1831 O 171.599 0.473355 -1.88343 0
M  V30 1832 C 168.729 0.437221 -3.44537 0
M  V30 1833 C 167.683 -0.383715 -4.26276 0
M  V30 1834 C 167.009 0.535014 -5.32017 0
M  V30 1835 C 168.309 -1.62201 -4.96476 0
M  V30 1836 H 170.003 -1.19007 -2.74732 0
M  V30 1837 H 167.549 -0.573698 -1.32078 0
M  V30 1838 H 169.502 0.813334 -4.13477 0
M  V30 1839 H 168.226 1.30553 -2.99372 0
M  V30 1840 H 166.885 -0.741874 -3.59015 0
M  V30 1841 H 166.533 1.40083 -4.831 0
M  V30 1842 H 166.233 -0.0104211 -5.87599 0
M  V30 1843 H 167.757 0.907799 -6.03814 0
M  V30 1844 H 169.171 -1.31689 -5.5797 0
M  V30 1845 H 167.568 -2.10711 -5.61891 0
M  V30 1846 H 168.638 -2.37044 -4.23011 0
M  V30 1847 N 169.982 1.44106 -0.638065 0
M  V30 1848 C 170.93 2.3248 0.0748149 0
M  V30 1849 C 171.924 1.47746 0.828702 0
M  V30 1850 O 173.13 1.64049 0.740816 0
M  V30 1851 H 169.505 0.750771 0.0429686 0
M  V30 1852 H 171.476 2.90348 -0.688504 0
M  V30 1853 C 170.225 3.31843 1.03805 0
M  V30 1854 H 169.548 3.97059 0.467375 0
M  V30 1855 H 170.988 3.96345 1.50622 0
M  V30 1856 C 169.447 2.61291 2.1267 0
M  V30 1857 O 169.977 2.41702 3.20847 0
M  V30 1858 N 168.183 2.20915 1.88798 0
M  V30 1859 H 167.73 2.37047 1.00829 0
M  V30 1860 H 167.688 1.74038 2.61836 0
M  V30 1861 N 171.46 0.379036 1.52974 0
M  V30 1862 C 172.407 -0.461048 2.26148 0
M  V30 1863 C 173.377 -1.06637 1.27349 0
M  V30 1864 O 174.562 -1.09633 1.56157 0
M  V30 1865 C 171.702 -1.58782 3.06402 0
M  V30 1866 C 170.815 -1.00636 4.20115 0
M  V30 1867 C 169.95 -2.10334 4.87784 0
M  V30 1868 C 168.989 -1.49724 5.93506 0
M  V30 1869 N 168.126 -2.5331 6.54812 0
M  V30 1870 H 172.966 0.169429 2.97518 0
M  V30 1871 H 170.503 0.0953806 1.4679 0
M  V30 1872 H 172.461 -2.25174 3.51215 0
M  V30 1873 H 171.091 -2.18876 2.37261 0
M  V30 1874 H 170.143 -0.232332 3.7969 0
M  V30 1875 H 171.455 -0.523343 4.96047 0
M  V30 1876 H 170.609 -2.84519 5.35849 0
M  V30 1877 H 169.348 -2.61992 4.11353 0
M  V30 1878 H 168.353 -0.740598 5.44789 0
M  V30 1879 H 169.578 -0.988732 6.71864 0
M  V30 1880 H 167.524 -3.04156 5.81227 0
M  V30 1881 H 167.441 -2.09734 7.26325 0
M  V30 1882 H 168.709 -3.27155 7.07524 0
M  V30 1883 N 172.938 -1.57226 0.108567 0
M  V30 1884 C 174.349 -1.8195 -0.418464 0
M  V30 1885 C 174.7 -1.02508 -1.67292 0
M  V30 1886 O 173.825 -0.258496 -2.14851 0
M  V30 1887 C 174.42 -3.30028 -0.765979 0
M  V30 1888 C 172.979 -3.55469 -1.23769 0
M  V30 1889 C 172.126 -2.7625 -0.241106 0
M  V30 1890 H 175.077 -1.55149 0.33384 0
M  V30 1891 H 175.098 -3.44086 -1.62434 0
M  V30 1892 H 174.61 -3.87821 0.147219 0
M  V30 1893 H 172.711 -3.03022 -2.16814 0
M  V30 1894 H 172.824 -4.6408 -1.19022 0
M  V30 1895 H 171.188 -2.44133 -0.72602 0
M  V30 1896 H 171.971 -3.36797 0.665007 0
M  V30 1897 N 174.416 0.165178 -1.56732 0
M  V30 1898 C 175.663 0.880807 -1.8234 0
M  V30 1899 C 175.991 1.81977 -0.686621 0
M  V30 1900 O 175.246 1.92971 0.325697 0
M  V30 1901 C 175.545 1.70405 -3.1416 0
M  V30 1902 C 175.211 0.913475 -4.4155 0
M  V30 1903 C 173.873 0.695303 -4.7615 0
M  V30 1904 C 176.225 0.359349 -5.1996 0
M  V30 1905 C 173.553 -0.0879947 -5.86634 0
M  V30 1906 C 175.905 -0.410893 -6.31264 0
M  V30 1907 C 174.569 -0.639808 -6.64427 0
M  V30 1908 H 173.839 0.32231 -0.667231 0
M  V30 1909 H 176.486 0.145402 -1.90947 0
M  V30 1910 H 174.791 2.50903 -3.00923 0
M  V30 1911 H 176.488 2.26091 -3.31186 0
M  V30 1912 H 173.078 1.09357 -4.14414 0
M  V30 1913 H 177.262 0.515228 -4.93618 0
M  V30 1914 H 172.518 -0.27503 -6.10781 0
M  V30 1915 H 176.692 -0.847494 -6.91224 0
M  V30 1916 H 174.319 -1.24864 -7.49875 0
M  V30 1917 N 175.894 1.51508 0.433938 0
M  V30 1918 C 177.171 1.54888 1.19453 0
M  V30 1919 C 177.551 0.315154 2.08734 0
M  V30 1920 O 176.899 -0.699558 2.17528 0
M  V30 1921 C 177.109 2.86467 1.99342 0
M  V30 1922 C 178.457 3.38545 2.56267 0
M  V30 1923 O 179.481 2.88041 2.0955 0
M  V30 1924 O 178.34 4.26675 3.41483 0
M  V30 1925 H 175.434 0.622863 0.544032 0
M  V30 1926 H 177.98 1.63823 0.442732 0
M  V30 1927 H 176.752 3.67718 1.33788 0
M  V30 1928 H 176.375 2.8071 2.8158 0
M  V30 1929 N 177.372 -0.689602 1.41712 0
M  V30 1930 C 178.783 -1.26973 1.36875 0
M  V30 1931 C 179.134 -1.96124 0.054748 0
M  V30 1932 O 178.259 -1.99141 -0.84687 0
M  V30 1933 C 178.854 -2.30912 2.47922 0
M  V30 1934 C 177.413 -2.84486 2.46464 0
M  V30 1935 C 176.56 -1.58603 2.27465 0
M  V30 1936 H 179.511 -0.48396 1.51141 0
M  V30 1937 H 179.532 -3.12331 2.17323 0
M  V30 1938 H 179.044 -1.80554 3.43543 0
M  V30 1939 H 177.145 -3.39005 1.54617 0
M  V30 1940 H 177.258 -3.34511 3.42986 0
M  V30 1941 H 175.622 -1.84632 1.75451 0
M  V30 1942 H 176.405 -1.10233 3.25121 0
M  V30 1943 N 178.85 -1.27639 -0.924453 0
M  V30 1944 C 179.798 -1.10485 -2.04685 0
M  V30 1945 C 180.792 -0.0270421 -1.69378 0
M  V30 1946 O 181.998 -0.185008 -1.79047 0
M  V30 1947 H 178.373 -0.340546 -0.670472 0
M  V30 1948 H 180.344 -2.05566 -2.16298 0
M  V30 1949 C 179.093 -0.772229 -3.39016 0
M  V30 1950 H 178.416 -1.59351 -3.66671 0
M  V30 1951 H 179.856 -0.692097 -4.18313 0
M  V30 1952 C 178.315 0.523554 -3.32807 0
M  V30 1953 O 178.845 1.55702 -3.70297 0
M  V30 1954 N 177.051 0.520363 -2.85903 0
M  V30 1955 H 176.598 -0.32107 -2.55591 0
M  V30 1956 H 176.556 1.38742 -2.82131 0
M  V30 1957 N 180.328 1.1314 -1.09713 0
M  V30 1958 C 181.276 2.20717 -0.733934 0
M  V30 1959 C 182.27 1.6729 0.266506 0
M  V30 1960 O 183.476 1.79547 0.127656 0
M  V30 1961 H 179.851 0.719292 -0.21937 0
M  V30 1962 H 181.822 2.48611 -1.6503 0
M  V30 1963 C 180.571 3.47265 -0.173849 0
M  V30 1964 H 179.894 3.88716 -0.934873 0
M  V30 1965 H 181.334 4.23979 0.0423126 0
M  V30 1966 C 179.793 3.18724 1.09164 0
M  V30 1967 O 180.323 3.37762 2.17439 0
M  V30 1968 N 178.529 2.72583 1.00732 0
M  V30 1969 H 178.076 2.57291 0.126121 0
M  V30 1970 H 178.034 2.53862 1.85476 0
M  V30 1971 N 181.806 0.884767 1.30421 0
M  V30 1972 C 183.083 0.423185 1.90967 0
M  V30 1973 C 183.463 -1.09605 1.80416 0
M  V30 1974 O 182.811 -1.93126 1.22125 0
M  V30 1975 C 183.021 0.921056 3.36627 0
M  V30 1976 C 184.369 0.955903 4.137 0
M  V30 1977 O 185.393 0.867706 3.4547 0
M  V30 1978 O 184.252 1.08614 5.35598 0
M  V30 1979 H 181.346 0.129369 0.816819 0
M  V30 1980 H 183.892 0.973653 1.3899 0
M  V30 1981 H 182.664 1.96489 3.3839 0
M  V30 1982 H 182.287 0.349741 3.96059 0
M  V30 1983 N 183.284 -1.43765 0.645699 0
M  V30 1984 C 184.514 -2.05953 0.163318 0
M  V30 1985 C 184.922 -1.48432 -1.17322 0
M  V30 1986 O 184.265 -0.607295 -1.73371 0
M  V30 1987 C 184.327 -3.59499 -0.0103065 0
M  V30 1988 C 183.991 -4.39563 1.25035 0
M  V30 1989 C 184.988 -4.72108 2.17739 0
M  V30 1990 C 182.673 -4.79697 1.48983 0
M  V30 1991 C 184.667 -5.43688 3.3269 0
M  V30 1992 C 182.354 -5.51023 2.64229 0
M  V30 1993 C 183.352 -5.8294 3.55908 0
M  V30 1994 O 183.04 -6.5281 4.69142 0
M  V30 1995 H 182.772 -0.670798 0.0836986 0
M  V30 1996 H 185.326 -1.85384 0.884407 0
M  V30 1997 H 183.556 -3.78613 -0.78669 0
M  V30 1998 H 185.245 -4.03408 -0.449087 0
M  V30 1999 H 186.011 -4.41627 2.00476 0
M  V30 2000 H 181.89 -4.54266 0.785078 0
M  V30 2001 H 185.434 -5.68517 4.04269 0
M  V30 2002 H 181.331 -5.8092 2.81429 0
M  V30 2003 H 182.099 -6.71288 4.6831 0
M  V30 2004 N 184.763 -0.387143 -1.52771 0
M  V30 2005 C 185.988 0.198407 -2.06449 0
M  V30 2006 C 186.413 1.39918 -1.25716 0
M  V30 2007 O 185.771 1.79099 -0.281657 0
M  V30 2008 C 185.819 0.548893 -3.56398 0
M  V30 2009 O 184.923 1.64315 -3.78252 0
M  V30 2010 H 184.264 0.0237731 -0.663574 0
M  V30 2011 H 186.794 -0.553989 -1.96957 0
M  V30 2012 H 186.804 0.813812 -3.99801 0
M  V30 2013 H 185.479 -0.329005 -4.14597 0
M  V30 2014 H 184.056 1.37211 -3.46738 0
M  V30 2015 N 186.241 1.57166 -0.116904 0
M  V30 2016 C 187.49 1.94298 0.541407 0
M  V30 2017 C 187.803 1.00236 1.67964 0
M  V30 2018 O 189.009 1.26826 2.40057 0
M  V30 2019 C 187.465 3.45306 1.01449 0
M  V30 2020 C 187.073 4.47899 -0.0951738 0
M  V30 2021 C 188.817 3.91361 1.6443 0
M  V30 2022 C 186.724 5.90083 0.394491 0
M  V30 2023 H 185.654 0.725308 0.206019 0
M  V30 2024 H 188.305 1.82446 -0.196419 0
M  V30 2025 H 186.687 3.52385 1.80667 0
M  V30 2026 H 187.861 4.52486 -0.871374 0
M  V30 2027 H 186.176 4.11583 -0.631505 0
M  V30 2028 H 188.773 4.95004 2.02176 0
M  V30 2029 H 189.116 3.3122 2.52189 0
M  V30 2030 H 189.649 3.87073 0.917559 0
M  V30 2031 H 186.388 6.53974 -0.447004 0
M  V30 2032 H 185.908 5.88921 1.13722 0
M  V30 2033 H 187.587 6.41307 0.856399 0
M  V30 2034 N 187.719 -0.156864 1.56817 0
M  V30 2035 C 189.13 -0.717916 1.72345 0
M  V30 2036 C 189.481 -1.82124 0.729747 0
M  V30 2037 O 188.606 -2.16141 -0.105781 0
M  V30 2038 C 189.201 -1.30904 3.12489 0
M  V30 2039 C 187.76 -1.81676 3.29653 0
M  V30 2040 C 186.907 -0.701349 2.68284 0
M  V30 2041 H 189.858 0.0686989 1.58551 0
M  V30 2042 H 189.879 -2.17882 3.11942 0
M  V30 2043 H 189.391 -0.505796 3.8479 0
M  V30 2044 H 187.492 -2.64598 2.62333 0
M  V30 2045 H 187.605 -1.95226 4.3752 0
M  V30 2046 H 185.969 -1.12548 2.28484 0
M  V30 2047 H 186.752 0.0902846 3.43181 0
M  V30 2048 N 189.197 -1.51736 -0.425897 0
M  V30 2049 C 190.427 -1.68549 -1.19476 0
M  V30 2050 C 190.835 -0.387288 -1.85194 0
M  V30 2051 O 190.178 0.645142 -1.71999 0
M  V30 2052 C 190.24 -2.75275 -2.31223 0
M  V30 2053 C 189.904 -4.17534 -1.8578 0
M  V30 2054 C 190.901 -5.01936 -1.35485 0
M  V30 2055 C 188.586 -4.6369 -1.93123 0
M  V30 2056 C 190.58 -6.30559 -0.931347 0
M  V30 2057 C 188.267 -5.92307 -1.50384 0
M  V30 2058 C 189.265 -6.75569 -1.00473 0
M  V30 2059 O 188.953 -8.0178 -0.583452 0
M  V30 2060 H 188.685 -0.568525 -0.365725 0
M  V30 2061 H 191.239 -1.98982 -0.509444 0
M  V30 2062 H 189.469 -2.40182 -3.03067 0
M  V30 2063 H 191.158 -2.80853 -2.93047 0
M  V30 2064 H 191.924 -4.67475 -1.29197 0
M  V30 2065 H 187.803 -3.98997 -2.30916 0
M  V30 2066 H 191.347 -6.95498 -0.541084 0
M  V30 2067 H 187.244 -6.2628 -1.56346 0
M  V30 2068 H 188.012 -8.1543 -0.708275 0
M  V30 2069 N 190.675 0.682077 -1.42076 0
M  V30 2070 C 191.924 1.43786 -1.41451 0
M  V30 2071 C 192.237 1.95574 -0.0317074 0
M  V30 2072 O 193.443 2.71326 0.0971462 0
M  V30 2073 C 191.899 2.60071 -2.48779 0
M  V30 2074 C 191.507 2.15013 -3.93031 0
M  V30 2075 C 193.251 3.37626 -2.57311 0
M  V30 2076 C 191.158 3.28336 -4.91883 0
M  V30 2077 H 190.088 0.540143 -0.526082 0
M  V30 2078 H 192.739 0.739157 -1.67955 0
M  V30 2079 H 191.121 3.32275 -2.15429 0
M  V30 2080 H 192.295 1.5001 -4.35699 0
M  V30 2081 H 190.61 1.50416 -3.88284 0
M  V30 2082 H 193.207 4.22012 -3.28345 0
M  V30 2083 H 193.55 3.83727 -1.61429 0
M  V30 2084 H 194.083 2.72488 -2.89819 0
M  V30 2085 H 190.822 2.87234 -5.89217 0
M  V30 2086 H 190.342 3.92145 -4.53853 0
M  V30 2087 H 192.021 3.93913 -5.13265 0
M  V30 2088 N 192.153 1.28127 0.917671 0
M  V30 2089 C 193.399 1.16232 1.66918 0
M  V30 2090 C 193.754 -0.28701 1.90247 0
M  V30 2091 O 193.047 -1.20586 1.48895 0
M  V30 2092 C 193.241 1.89018 3.03327 0
M  V30 2093 C 193.07 3.4088 2.9331 0
M  V30 2094 C 191.84 4.10214 2.95047 0
M  V30 2095 C 194.038 4.36689 2.71675 0
M  V30 2096 N 192.02 5.48571 2.75577 0
M  V30 2097 C 193.391 5.62382 2.6101 0
M  V30 2098 C 195.446 4.26661 2.56641 0
M  V30 2099 C 194.149 6.79189 2.36843 0
M  V30 2100 C 196.175 5.432 2.33853 0
M  V30 2101 C 195.537 6.67855 2.23939 0
M  V30 2102 H 191.636 0.48024 0.617166 0
M  V30 2103 H 194.22 1.61727 1.08409 0
M  V30 2104 H 192.391 1.45963 3.59929 0
M  V30 2105 H 194.123 1.69541 3.67475 0
M  V30 2106 H 190.878 3.61762 3.05655 0
M  V30 2107 H 191.302 6.21287 2.68945 0
M  V30 2108 H 195.944 3.30998 2.63059 0
M  V30 2109 H 193.662 7.74926 2.29164 0
M  V30 2110 H 197.248 5.37328 2.23091 0
M  V30 2111 H 196.128 7.56511 2.06546 0
M  V30 2112 N 193.631 -1.12557 1.10312 0
M  V30 2113 C 194.879 -1.83675 0.843091 0
M  V30 2114 C 195.2 -1.84435 -0.633131 0
M  V30 2115 O 194.47 -1.30657 -1.45964 0
M  V30 2116 H 193.05 -0.680138 0.308904 0
M  V30 2117 H 195.712 -1.36301 1.39313 0
M  V30 2118 H 194.808 -2.87908 1.2048 0
M  V30 2119 N 195.109 -0.891671 -1.2995 0
M  V30 2120 C 196.072 -0.36828 -2.26222 0
M  V30 2121 C 197.072 0.493014 -1.53056 0
M  V30 2122 O 198.262 0.299213 -1.71611 0
M  V30 2123 C 195.394 0.47442 -3.37583 0
M  V30 2124 H 196.587 -1.21844 -2.74033 0
M  V30 2125 H 194.14 -0.669107 -1.41254 0
M  V30 2126 H 194.875 1.34489 -2.95099 0
M  V30 2127 H 194.66 -0.142615 -3.91841 0
M  V30 2128 H 196.15 0.83218 -4.09224 0
M  V30 2129 N 196.587 1.43421 -0.653314 0
M  V30 2130 C 197.815 2.06163 -0.174491 0
M  V30 2131 C 198.23 1.48969 1.1599 0
M  V30 2132 O 197.587 0.621042 1.71608 0
M  V30 2133 C 197.638 3.61417 -0.0774865 0
M  V30 2134 O 197.359 4.16485 -1.35912 0
M  V30 2135 C 198.86 4.41235 0.427402 0
M  V30 2136 H 196.08 0.664946 -0.0899353 0
M  V30 2137 H 198.624 1.83924 -0.893988 0
M  V30 2138 H 196.779 3.82841 0.59257 0
M  V30 2139 H 197.193 5.10153 -1.21839 0
M  V30 2140 H 198.667 5.5021 0.44423 0
M  V30 2141 H 199.144 4.14268 1.45873 0
M  V30 2142 H 199.75 4.2478 -0.210167 0
M  V30 2143 N 198.065 0.39524 1.52563 0
M  V30 2144 C 199.028 -0.425001 2.25225 0
M  V30 2145 C 200.028 -0.985266 1.27079 0
M  V30 2146 O 201.218 -0.866332 1.5113 0
M  V30 2147 C 198.35 -1.59686 3.01186 0
M  V30 2148 H 199.543 0.211233 2.99155 0
M  V30 2149 H 197.096 0.147472 1.55603 0
M  V30 2150 H 197.831 -2.27035 2.31572 0
M  V30 2151 H 197.616 -1.20176 3.73229 0
M  V30 2152 H 199.106 -2.17743 3.5634 0
M  V30 2153 N 199.544 -1.57102 0.125237 0
M  V30 2154 C 200.793 -1.94582 -0.531095 0
M  V30 2155 C 201.106 -1.01126 -1.6743 0
M  V30 2156 O 202.312 -1.28097 -2.39381 0
M  V30 2157 C 200.768 -3.45839 -0.996164 0
M  V30 2158 C 200.376 -4.47842 0.118926 0
M  V30 2159 C 202.12 -3.92227 -1.62352 0
M  V30 2160 C 200.027 -5.90284 -0.363192 0
M  V30 2161 H 198.957 -0.726391 -0.20217 0
M  V30 2162 H 201.608 -1.82339 0.206092 0
M  V30 2163 H 199.99 -3.53338 -1.78796 0
M  V30 2164 H 201.164 -4.52018 0.895358 0
M  V30 2165 H 199.479 -4.11243 0.653324 0
M  V30 2166 H 202.076 -4.96069 -1.99548 0
M  V30 2167 H 202.419 -3.32552 -2.50429 0
M  V30 2168 H 202.952 -3.87554 -0.897019 0
M  V30 2169 H 199.691 -6.53728 0.481679 0
M  V30 2170 H 199.211 -5.89515 -1.10597 0
M  V30 2171 H 200.89 -6.41752 -0.822377 0
M  V30 2172 N 201.022 0.148545 -1.56898 0
M  V30 2173 C 202.27 0.859717 -1.82902 0
M  V30 2174 C 202.591 1.81775 -0.70588 0
M  V30 2175 O 201.861 1.93994 0.272586 0
M  V30 2176 H 200.441 0.320469 -0.674766 0
M  V30 2177 H 203.103 0.142918 -1.94375 0
M  V30 2178 H 202.199 1.4229 -2.77777 0
M  V30 2179 N 202.5 1.5196 0.417844 0
M  V30 2180 C 203.746 1.65836 1.16732 0
M  V30 2181 C 204.079 0.382881 1.90388 0
M  V30 2182 O 203.354 -0.618368 1.84408 0
M  V30 2183 C 203.637 2.87466 2.16876 0
M  V30 2184 C 203.49 4.25041 1.47174 0
M  V30 2185 C 204.809 3.04613 3.17646 0
M  V30 2186 H 201.928 0.603515 0.423011 0
M  V30 2187 H 204.57 1.84494 0.454105 0
M  V30 2188 H 202.72 2.71689 2.777 0
M  V30 2189 H 204.392 4.52527 0.895376 0
M  V30 2190 H 202.635 4.26843 0.773806 0
M  V30 2191 H 203.306 5.06176 2.20204 0
M  V30 2192 H 205.782 3.1923 2.66892 0
M  V30 2193 H 204.658 3.91247 3.8499 0
M  V30 2194 H 204.919 2.17541 3.84874 0
M  V30 2195 N 203.978 -0.674533 1.42435 0
M  V30 2196 C 204.926 -1.80934 1.46169 0
M  V30 2197 C 205.92 -1.66006 0.3374 0
M  V30 2198 O 207.126 -1.72611 0.510425 0
M  V30 2199 H 203.501 -0.596594 0.457798 0
M  V30 2200 H 205.472 -1.74903 2.41767 0
M  V30 2201 C 204.221 -3.19088 1.38123 0
M  V30 2202 H 203.544 -3.31203 2.23931 0
M  V30 2203 H 204.984 -3.9851 1.44797 0
M  V30 2204 C 203.443 -3.36763 0.0960517 0
M  V30 2205 O 203.973 -3.92581 -0.851073 0
M  V30 2206 N 202.179 -2.90597 0.0131186 0
M  V30 2207 H 201.726 -2.45359 0.784639 0
M  V30 2208 H 201.684 -3.028 -0.846133 0
M  V30 2209 N 205.456 -1.28612 -0.910864 0
M  V30 2210 C 206.704 -1.15705 -1.65701 0
M  V30 2211 C 207.025 0.29416 -1.92769 0
M  V30 2212 O 206.295 1.20331 -1.54588 0
M  V30 2213 H 204.875 -0.425216 -0.614167 0
M  V30 2214 H 207.537 -1.61381 -1.0928 0
M  V30 2215 H 206.633 -1.6988 -2.61815 0
M  V30 2216 N 206.934 1.1197 -1.10907 0
M  V30 2217 C 208.211 1.79959 -0.766432 0
M  V30 2218 C 208.591 1.97466 0.746363 0
M  V30 2219 O 207.939 1.55491 1.67436 0
M  V30 2220 C 208.149 3.14009 -1.52314 0
M  V30 2221 C 209.497 3.89134 -1.69883 0
M  V30 2222 O 210.521 3.2368 -1.48692 0
M  V30 2223 O 209.38 5.06572 -2.05054 0
M  V30 2224 H 206.474 0.779208 -0.277062 0
M  V30 2225 H 209.02 1.18762 -1.21217 0
M  V30 2226 H 207.792 2.96587 -2.55249 0
M  V30 2227 H 207.415 3.82915 -1.07059 0
M  V30 2228 N 208.412 0.89855 1.29475 0
M  V30 2229 C 209.375 0.380272 2.26023 0
M  V30 2230 C 210.375 -0.484891 1.53315 0
M  V30 2231 O 211.565 -0.290108 1.71767 0
M  V30 2232 C 208.697 -0.45651 3.3783 0
M  V30 2233 H 209.89 1.23295 2.73383 0
M  V30 2234 H 207.443 0.676589 1.40897 0
M  V30 2235 H 208.178 -1.32922 2.95808 0
M  V30 2236 H 207.963 0.163393 3.91759 0
M  V30 2237 H 209.453 -0.810466 4.0966 0
M  V30 2238 N 209.89 -1.43072 0.660911 0
M  V30 2239 C 211.136 -2.0202 0.177708 0
M  V30 2240 C 211.469 -1.52066 -1.20787 0
M  V30 2241 O 210.744 -0.716987 -1.80802 0
M  V30 2242 C 211.027 -3.59561 0.197019 0
M  V30 2243 C 210.88 -4.19727 1.61706 0
M  V30 2244 C 212.199 -4.37664 -0.462396 0
M  V30 2245 H 209.318 -0.734034 0.0660494 0
M  V30 2246 H 211.96 -1.70272 0.843058 0
M  V30 2247 H 210.11 -3.86739 -0.369527 0
M  V30 2248 H 211.782 -4.03553 2.23479 0
M  V30 2249 H 210.025 -3.76084 2.16201 0
M  V30 2250 H 210.696 -5.28834 1.58237 0
M  V30 2251 H 213.172 -4.16095 0.0197215 0
M  V30 2252 H 212.048 -5.47305 -0.418188 0
M  V30 2253 H 212.309 -4.14493 -1.53778 0
M  V30 2254 N 211.368 -0.403325 -1.52352 0
M  V30 2255 C 212.645 0.232611 -1.94212 0
M  V30 2256 C 213.025 1.63133 -1.33981 0
M  V30 2257 O 212.373 2.22659 -0.513344 0
M  V30 2258 C 212.583 0.244811 -3.4814 0
M  V30 2259 C 213.931 0.46698 -4.22024 0
M  V30 2260 O 214.955 0.324419 -3.5472 0
M  V30 2261 O 213.814 0.74747 -5.41364 0
M  V30 2262 H 210.908 0.148223 -0.813609 0
M  V30 2263 H 213.454 -0.458848 -1.63379 0
M  V30 2264 H 212.226 -0.734378 -3.84347 0
M  V30 2265 H 211.849 0.980611 -3.85318 0
M  V30 2266 N 212.846 1.57033 -0.133567 0
M  V30 2267 C 214.257 1.82593 0.389464 0
M  V30 2268 C 214.608 1.05156 1.6564 0
M  V30 2269 O 213.733 0.292644 2.14412 0
M  V30 2270 C 214.328 3.31204 0.713377 0
M  V30 2271 C 212.887 3.57393 1.18098 0
M  V30 2272 C 212.034 2.76598 0.197126 0
M  V30 2273 H 214.985 1.54598 -0.358481 0
M  V30 2274 H 215.006 3.46627 1.56939 0
M  V30 2275 H 214.518 3.87537 -0.2089 0
M  V30 2276 H 212.619 3.06433 2.11966 0
M  V30 2277 H 212.732 4.65915 1.11624 0
M  V30 2278 H 211.096 2.45257 0.687088 0
M  V30 2279 H 211.879 3.35697 -0.718504 0
M  V30 2280 N 214.325 -0.140222 1.56975 0
M  V30 2281 C 215.272 -1.17292 1.98774 0
M  V30 2282 C 216.242 -1.4232 0.856408 0
M  V30 2283 O 217.427 -1.54541 1.119 0
M  V30 2284 C 214.567 -2.49973 2.37923 0
M  V30 2285 C 213.68 -2.32062 3.64378 0
M  V30 2286 C 212.815 -3.57825 3.926 0
M  V30 2287 C 211.854 -3.3498 5.12303 0
M  V30 2288 N 210.991 -4.52891 5.36502 0
M  V30 2289 H 215.831 -0.809472 2.86795 0
M  V30 2290 H 213.368 -0.388237 1.41884 0
M  V30 2291 H 215.326 -3.27346 2.58652 0
M  V30 2292 H 213.956 -2.84252 1.52972 0
M  V30 2293 H 213.008 -1.45711 3.51387 0
M  V30 2294 H 214.32 -2.11145 4.51906 0
M  V30 2295 H 213.474 -4.43624 4.13863 0
M  V30 2296 H 212.213 -3.81753 3.03506 0
M  V30 2297 H 211.218 -2.4757 4.90906 0
M  V30 2298 H 212.443 -3.12444 6.02956 0
M  V30 2299 H 210.389 -4.76979 4.50363 0
M  V30 2300 H 210.306 -4.35001 6.18312 0
M  V30 2301 H 211.574 -5.39884 5.62268 0
M  V30 2302 N 215.803 -1.52179 -0.40978 0
M  V30 2303 C 217.028 -1.70347 -1.18308 0
M  V30 2304 C 217.453 -0.411887 -1.83535 0
M  V30 2305 O 216.811 0.630587 -1.6998 0
M  V30 2306 C 216.859 -2.83977 -2.22238 0
M  V30 2307 O 215.963 -2.495 -3.28365 0
M  V30 2308 H 215.304 -0.567103 -0.345384 0
M  V30 2309 H 217.834 -1.98879 -0.480445 0
M  V30 2310 H 217.844 -3.0887 -2.66577 0
M  V30 2311 H 216.519 -3.77685 -1.74146 0
M  V30 2312 H 215.096 -2.35277 -2.89308 0
M  V30 2313 N 217.281 0.66697 -1.42791 0
M  V30 2314 C 218.527 1.4291 -1.43891 0
M  V30 2315 C 218.86 1.94114 -0.0578972 0
M  V30 2316 O 218.135 1.71414 0.91911 0
M  V30 2317 C 218.418 2.62049 -2.46987 0
M  V30 2318 C 218.271 2.16426 -3.94309 0
M  V30 2319 C 219.59 3.64266 -2.46978 0
M  V30 2320 H 216.709 0.518306 -0.523954 0
M  V30 2321 H 219.351 0.757321 -1.74255 0
M  V30 2322 H 217.501 3.19361 -2.21225 0
M  V30 2323 H 219.173 1.64221 -4.31079 0
M  V30 2324 H 217.416 1.47925 -4.078 0
M  V30 2325 H 218.087 3.02038 -4.62036 0
M  V30 2326 H 220.563 3.16686 -2.69906 0
M  V30 2327 H 219.439 4.45196 -3.21079 0
M  V30 2328 H 219.7 4.15927 -1.49857 0
M  V30 2329 N 218.759 1.29093 0.90403 0
M  V30 2330 C 219.987 1.19689 1.68766 0
M  V30 2331 C 220.402 -0.243113 1.87228 0
M  V30 2332 O 219.759 -1.16326 1.40621 0
M  V30 2333 C 219.81 1.90144 3.07453 0
M  V30 2334 O 219.531 3.2852 2.89838 0
M  V30 2335 C 221.032 1.87162 4.01852 0
M  V30 2336 H 218.252 0.415035 0.527244 0
M  V30 2337 H 220.796 1.7039 1.13082 0
M  V30 2338 H 218.951 1.43289 3.59926 0
M  V30 2339 H 219.365 3.63944 3.77684 0
M  V30 2340 H 220.839 2.41032 4.96596 0
M  V30 2341 H 221.316 0.84617 4.30972 0
M  V30 2342 H 221.922 2.33741 3.5531 0
M  V30 2343 N 220.237 -1.11381 1.11499 0
M  V30 2344 C 221.462 -1.87475 0.887019 0
M  V30 2345 C 221.887 -1.79639 -0.557796 0
M  V30 2346 O 221.245 -1.15924 -1.39396 0
M  V30 2347 C 221.293 -3.34213 1.35403 0
M  V30 2348 O 220.397 -4.0903 0.526146 0
M  V30 2349 H 219.738 -0.582099 0.319463 0
M  V30 2350 H 222.268 -1.40785 1.48461 0
M  V30 2351 H 222.278 -3.8506 1.34881 0
M  V30 2352 H 220.953 -3.39232 2.40612 0
M  V30 2353 H 219.53 -3.68082 0.597522 0
M  V30 2354 N 221.715 -0.905404 -1.28997 0
M  V30 2355 C 222.961 -0.544465 -1.95977 0
M  V30 2356 C 223.316 0.90041 -1.70031 0
M  V30 2357 O 222.609 1.63064 -1.00601 0
M  V30 2358 C 222.803 -0.779906 -3.48787 0
M  V30 2359 C 222.632 -2.24612 -3.89589 0
M  V30 2360 C 221.402 -2.89464 -4.14172 0
M  V30 2361 C 223.6 -3.22182 -4.00878 0
M  V30 2362 N 221.582 -4.26469 -4.41585 0
M  V30 2363 C 222.953 -4.44323 -4.32409 0
M  V30 2364 C 225.008 -3.17694 -3.83373 0
M  V30 2365 C 223.711 -5.62546 -4.48258 0
M  V30 2366 C 225.737 -4.35208 -4.00435 0
M  V30 2367 C 225.099 -5.56121 -4.3233 0
M  V30 2368 H 221.198 -0.248948 -0.741316 0
M  V30 2369 H 223.782 -1.1674 -1.5582 0
M  V30 2370 H 221.953 -0.186308 -3.87953 0
M  V30 2371 H 223.685 -0.383833 -4.02876 0
M  V30 2372 H 220.44 -2.40232 -4.08149 0
M  V30 2373 H 220.864 -4.97283 -4.5939 0
M  V30 2374 H 225.506 -2.25297 -3.57773 0
M  V30 2375 H 223.224 -6.55429 -4.72692 0
M  V30 2376 H 226.81 -4.33228 -3.88336 0
M  V30 2377 H 225.69 -6.45537 -4.45255 0
M  V30 2378 N 223.193 1.4272 -0.668489 0
M  V30 2379 C 224.156 2.292 0.00448567 0
M  V30 2380 C 225.156 1.43001 0.735339 0
M  V30 2381 O 226.346 1.64461 0.57429 0
M  V30 2382 C 223.478 3.25375 1.01705 0
M  V30 2383 H 224.671 2.90199 -0.756608 0
M  V30 2384 H 222.224 1.50254 -0.430506 0
M  V30 2385 H 222.959 2.69301 1.80686 0
M  V30 2386 H 222.744 3.88944 0.496463 0
M  V30 2387 H 224.234 3.90245 1.48655 0
M  V30 2388 N 224.671 0.411399 1.52136 0
M  V30 2389 C 225.948 -0.222308 1.94333 0
M  V30 2390 C 226.328 -1.6242 1.34844 0
M  V30 2391 O 225.676 -2.22384 0.525145 0
M  V30 2392 C 225.886 -0.226345 3.48265 0
M  V30 2393 C 227.234 -0.444592 4.22266 0
M  V30 2394 O 228.258 -0.305602 3.54887 0
M  V30 2395 O 227.117 -0.718749 5.41753 0
M  V30 2396 H 224.211 -0.143907 0.814383 0
M  V30 2397 H 226.757 0.467506 1.63133 0
M  V30 2398 H 225.529 0.75475 3.83952 0
M  V30 2399 H 225.152 -0.960163 3.85832 0
M  V30 2400 N 226.149 -1.5696 0.141893 0
M  V30 2401 C 227.079 -2.19516 -0.795936 0
M  V30 2402 C 228.06 -1.14187 -1.26077 0
M  V30 2403 O 229.245 -1.42511 -1.31925 0
M  V30 2404 C 226.375 -2.81272 -2.03723 0
M  V30 2405 C 225.329 -3.92384 -1.70936 0
M  V30 2406 C 224.655 -4.41052 -3.02287 0
M  V30 2407 C 225.955 -5.13403 -0.959954 0
M  V30 2408 H 227.649 -2.98138 -0.274596 0
M  V30 2409 H 225.195 -1.43406 -0.130636 0
M  V30 2410 H 227.148 -3.237 -2.69808 0
M  V30 2411 H 225.872 -1.99973 -2.58221 0
M  V30 2412 H 224.531 -3.50566 -1.07232 0
M  V30 2413 H 224.179 -3.56582 -3.54765 0
M  V30 2414 H 223.879 -5.15993 -2.81114 0
M  V30 2415 H 225.403 -4.86146 -3.69451 0
M  V30 2416 H 226.817 -5.52706 -1.52279 0
M  V30 2417 H 225.214 -5.94073 -0.848357 0
M  V30 2418 H 226.284 -4.84875 0.0492434 0
M  V30 2419 N 227.627 0.131896 -1.57047 0
M  V30 2420 C 228.873 0.838268 -1.85323 0
M  V30 2421 C 229.228 1.78098 -0.727937 0
M  V30 2422 O 228.521 1.89645 0.27304 0
M  V30 2423 C 228.715 1.63703 -3.17704 0
M  V30 2424 C 228.544 0.773167 -4.43004 0
M  V30 2425 C 227.314 0.432956 -5.03442 0
M  V30 2426 C 229.512 0.0966216 -5.14209 0
M  V30 2427 N 227.494 -0.442924 -6.123 0
M  V30 2428 C 228.865 -0.638778 -6.16701 0
M  V30 2429 C 230.92 0.018861 -4.97896 0
M  V30 2430 C 229.623 -1.44462 -7.04644 0
M  V30 2431 C 231.649 -0.773762 -5.86316 0
M  V30 2432 C 231.011 -1.4974 -6.883 0
M  V30 2433 H 227.11 0.284086 -0.728573 0
M  V30 2434 H 229.694 0.102731 -1.94429 0
M  V30 2435 H 227.865 2.3437 -3.09718 0
M  V30 2436 H 229.597 2.28774 -3.33833 0
M  V30 2437 H 226.352 0.772237 -4.67262 0
M  V30 2438 H 226.776 -0.872332 -6.71356 0
M  V30 2439 H 231.418 0.56397 -4.19022 0
M  V30 2440 H 229.136 -2.00093 -7.82936 0
M  V30 2441 H 232.722 -0.83612 -5.75761 0
M  V30 2442 H 231.602 -2.10087 -7.55535 0
M  V30 2443 N 229.106 1.52395 0.401703 0
M  V30 2444 C 230.053 1.76268 1.48991 0
M  V30 2445 C 231.023 0.605386 1.54675 0
M  V30 2446 O 232.208 0.843742 1.7113 0
M  V30 2447 C 229.348 1.92592 2.86361 0
M  V30 2448 C 228.461 3.20259 2.89928 0
M  V30 2449 C 227.596 3.26972 4.18644 0
M  V30 2450 C 226.635 4.48812 4.16214 0
M  V30 2451 N 225.772 4.52877 5.36514 0
M  V30 2452 H 230.612 2.6914 1.27935 0
M  V30 2453 H 228.149 1.33355 0.620871 0
M  V30 2454 H 230.107 2.0004 3.66115 0
M  V30 2455 H 228.737 1.03093 3.05895 0
M  V30 2456 H 227.789 3.21945 2.02621 0
M  V30 2457 H 229.101 4.10056 2.83999 0
M  V30 2458 H 228.255 3.33533 5.06794 0
M  V30 2459 H 226.994 2.35126 4.27278 0
M  V30 2460 H 225.999 4.4239 3.26453 0
M  V30 2461 H 227.224 5.41961 4.09213 0
M  V30 2462 H 225.17 3.63917 5.45802 0
M  V30 2463 H 225.087 5.36529 5.32609 0
M  V30 2464 H 226.355 4.63676 6.26597 0
M  V30 2465 N 230.584 -0.659388 1.43143 0
M  V30 2466 C 231.995 -1.24041 1.39537 0
M  V30 2467 C 232.346 -1.95963 0.0963364 0
M  V30 2468 O 231.471 -2.00892 -0.804438 0
M  V30 2469 C 232.066 -2.25601 2.52764 0
M  V30 2470 C 230.625 -2.79195 2.52443 0
M  V30 2471 C 229.772 -1.53743 2.30778 0
M  V30 2472 H 232.723 -0.451792 1.52133 0
M  V30 2473 H 232.744 -3.07651 2.23899 0
M  V30 2474 H 232.256 -1.73226 3.47296 0
M  V30 2475 H 230.357 -3.35649 1.61773 0
M  V30 2476 H 230.47 -3.2716 3.50004 0
M  V30 2477 H 228.834 -1.80869 1.79328 0
M  V30 2478 H 229.617 -1.03312 3.27386 0
M  V30 2479 N 232.062 -1.29571 -0.897171 0
M  V30 2480 C 232.972 -1.16808 -2.03453 0
M  V30 2481 C 233.988 -0.0907471 -1.73763 0
M  V30 2482 O 235.164 -0.303312 -1.99103 0
M  V30 2483 C 232.229 -0.848264 -3.36163 0
M  V30 2484 C 231.29 -2.0097 -3.79354 0
M  V30 2485 C 230.523 -1.70505 -5.05731 0
M  V30 2486 O 230.746 -0.62718 -5.66941 0
M  V30 2487 O 229.68 -2.5538 -5.45036 0
M  V30 2488 H 233.506 -2.12325 -2.17144 0
M  V30 2489 H 231.091 -1.09047 -1.02123 0
M  V30 2490 H 232.973 -0.684581 -4.15802 0
M  V30 2491 H 231.648 0.0771071 -3.23608 0
M  V30 2492 H 230.555 -2.22863 -3.00471 0
M  V30 2493 H 231.888 -2.91636 -3.96496 0
M  V30 2494 N 233.54 1.10788 -1.12088 0
M  V30 2495 C 234.77 1.86191 -0.895351 0
M  V30 2496 C 235.178 1.80763 0.558702 0
M  V30 2497 O 234.521 1.19188 1.39785 0
M  V30 2498 C 234.583 3.35659 -1.28737 0
M  V30 2499 C 234.247 3.64849 -2.75198 0
M  V30 2500 C 235.244 3.61757 -3.734 0
M  V30 2501 C 232.929 3.93641 -3.12013 0
M  V30 2502 C 234.923 3.87045 -5.06434 0
M  V30 2503 C 232.61 4.18585 -4.4523 0
M  V30 2504 C 233.608 4.15277 -5.42249 0
M  V30 2505 O 233.296 4.3959 -6.73065 0
M  V30 2506 H 233.028 0.595425 -0.32007 0
M  V30 2507 H 235.582 1.40992 -1.49367 0
M  V30 2508 H 233.812 3.81497 -0.63224 0
M  V30 2509 H 235.501 3.92441 -1.03656 0
M  V30 2510 H 236.267 3.39557 -3.46303 0
M  V30 2511 H 232.146 3.95348 -2.37109 0
M  V30 2512 H 235.69 3.84378 -5.82151 0
M  V30 2513 H 231.587 4.40264 -4.72057 0
M  V30 2514 H 232.355 4.57123 -6.78956 0
M  V30 2515 N 235.018 0.912232 1.28515 0
M  V30 2516 C 235.965 0.397954 2.27343 0
M  V30 2517 C 236.935 -0.526766 1.57526 0
M  V30 2518 O 238.12 -0.449292 1.85435 0
M  V30 2519 C 235.26 -0.357263 3.43246 0
M  V30 2520 C 234.373 0.599788 4.27816 0
M  V30 2521 C 233.508 -0.173725 5.30916 0
M  V30 2522 C 232.547 0.777039 6.07148 0
M  V30 2523 N 231.684 0.0371398 7.0209 0
M  V30 2524 H 236.524 1.24577 2.70711 0
M  V30 2525 H 234.061 0.625612 1.33133 0
M  V30 2526 H 236.019 -0.8113 4.09236 0
M  V30 2527 H 234.649 -1.16943 3.00872 0
M  V30 2528 H 233.701 1.17235 3.61884 0
M  V30 2529 H 235.013 1.32704 4.80823 0
M  V30 2530 H 234.167 -0.688394 6.02782 0
M  V30 2531 H 232.906 -0.934041 4.78672 0
M  V30 2532 H 231.911 1.3031 5.34134 0
M  V30 2533 H 233.136 1.53689 6.61481 0
M  V30 2534 H 231.082 -0.705213 6.52198 0
M  V30 2535 H 230.999 0.704249 7.52713 0
M  V30 2536 H 232.267 -0.457383 7.78157 0
M  V30 2537 N 236.496 -1.42363 0.676048 0
M  V30 2538 C 237.744 -2.01123 0.198437 0
M  V30 2539 C 238.065 -1.53731 -1.19966 0
M  V30 2540 O 237.335 -0.759518 -1.80577 0
M  V30 2541 H 235.915 -0.743678 0.0703721 0
M  V30 2542 H 238.577 -1.74263 0.872837 0
M  V30 2543 H 237.673 -3.11454 0.200686 0
M  V30 2544 N 237.974 -0.419461 -1.51915 0
M  V30 2545 C 239.199 0.154572 -2.06823 0
M  V30 2546 C 239.624 1.3722 -1.28656 0
M  V30 2547 O 238.982 1.78461 -0.319583 0
M  V30 2548 C 239.03 0.473172 -3.57482 0
M  V30 2549 O 238.134 1.56255 -3.81652 0
M  V30 2550 H 237.475 0.0096924 -0.663929 0
M  V30 2551 H 240.005 -0.595642 -1.95738 0
M  V30 2552 H 240.015 0.728825 -4.01438 0
M  V30 2553 H 238.69 -0.416873 -4.13805 0
M  V30 2554 H 237.267 1.29825 -3.49571 0
M  V30 2555 N 239.452 1.56882 -0.150215 0
M  V30 2556 C 240.382 2.19935 0.784284 0
M  V30 2557 C 241.363 1.14854 1.25469 0
M  V30 2558 O 242.548 1.43209 1.31168 0
M  V30 2559 C 239.678 2.82349 2.02229 0
M  V30 2560 C 238.632 3.93285 1.68853 0
M  V30 2561 C 237.958 4.42649 2.99944 0
M  V30 2562 C 239.258 5.13904 0.932714 0
M  V30 2563 H 240.952 2.9828 0.258781 0
M  V30 2564 H 238.498 1.43473 0.123029 0
M  V30 2565 H 240.451 3.25126 2.68088 0
M  V30 2566 H 239.175 2.0134 2.57157 0
M  V30 2567 H 237.834 3.5113 1.05371 0
M  V30 2568 H 237.482 3.58458 3.52869 0
M  V30 2569 H 237.182 5.17476 2.78374 0
M  V30 2570 H 238.706 4.88099 3.66868 0
M  V30 2571 H 240.12 5.53506 1.49345 0
M  V30 2572 H 238.517 5.94515 0.81684 0
M  V30 2573 H 239.587 4.84842 -0.0749568 0
M  V30 2574 N 240.93 -0.123565 1.57115 0
M  V30 2575 C 241.86 -1.15309 2.03042 0
M  V30 2576 C 242.841 -1.43454 0.914061 0
M  V30 2577 O 244.026 -1.53973 1.18347 0
M  V30 2578 C 241.156 -2.48043 2.43089 0
M  V30 2579 C 240.11 -2.3437 3.58127 0
M  V30 2580 C 239.436 -3.72026 3.84059 0
M  V30 2581 C 240.736 -1.80804 4.90007 0
M  V30 2582 H 242.43 -0.771102 2.893 0
M  V30 2583 H 239.976 -0.369479 1.39179 0
M  V30 2584 H 241.929 -3.20311 2.73823 0
M  V30 2585 H 240.653 -2.88122 1.53796 0
M  V30 2586 H 239.312 -1.64551 3.27595 0
M  V30 2587 H 238.96 -4.09582 2.91979 0
M  V30 2588 H 238.66 -3.63732 4.6149 0
M  V30 2589 H 240.184 -4.45806 4.1724 0
M  V30 2590 H 241.598 -2.42886 5.19307 0
M  V30 2591 H 239.995 -1.83343 5.71407 0
M  V30 2592 H 241.065 -0.76528 4.78823 0
M  V30 2593 N 242.408 -1.52605 -0.393616 0
M  V30 2594 C 243.338 -1.80022 -1.48709 0
M  V30 2595 C 244.319 -0.651995 -1.57108 0
M  V30 2596 O 245.504 -0.89913 -1.72132 0
M  V30 2597 C 242.634 -1.96492 -2.86371 0
M  V30 2598 C 241.588 -3.12161 -2.92813 0
M  V30 2599 C 240.914 -3.13877 -4.3288 0
M  V30 2600 C 242.214 -4.51322 -2.6288 0
M  V30 2601 H 243.908 -2.71589 -1.26015 0
M  V30 2602 H 241.454 -1.30684 -0.604778 0
M  V30 2603 H 243.407 -2.14255 -3.62867 0
M  V30 2604 H 242.131 -1.01611 -3.10391 0
M  V30 2605 H 240.79 -2.94173 -2.18764 0
M  V30 2606 H 240.438 -2.16687 -4.53933 0
M  V30 2607 H 240.138 -3.91576 -4.38112 0
M  V30 2608 H 241.662 -3.33789 -5.1129 0
M  V30 2609 H 243.076 -4.69435 -3.29096 0
M  V30 2610 H 241.473 -5.31053 -2.79468 0
M  V30 2611 H 242.543 -4.58353 -1.58242 0
M  V30 2612 N 243.887 0.651787 -1.4349 0
M  V30 2613 C 245.115 1.43937 -1.48626 0
M  V30 2614 C 245.53 1.8851 -0.104587 0
M  V30 2615 O 244.887 1.5958 0.885464 0
M  V30 2616 C 244.938 2.6734 -2.43334 0
M  V30 2617 O 244.659 2.24631 -3.76128 0
M  V30 2618 C 246.16 3.60683 -2.57726 0
M  V30 2619 H 243.38 0.44213 -0.504739 0
M  V30 2620 H 245.924 0.798944 -1.88248 0
M  V30 2621 H 244.079 3.2752 -2.06904 0
M  V30 2622 H 244.493 3.04485 -4.2707 0
M  V30 2623 H 245.967 4.43933 -3.28067 0
M  V30 2624 H 246.444 4.08126 -1.62265 0
M  V30 2625 H 247.05 3.06384 -2.94973 0
M  V30 2626 N 245.365 1.30045 0.890287 0
M  V30 2627 C 246.642 1.09227 1.62262 0
M  V30 2628 C 247.022 -0.360305 2.08002 0
M  V30 2629 O 246.37 -1.35084 1.84295 0
M  V30 2630 C 246.58 2.08835 2.79623 0
M  V30 2631 C 247.928 2.40266 3.50082 0
M  V30 2632 O 248.952 2.07104 2.89804 0
M  V30 2633 O 247.811 2.96967 4.58773 0
M  V30 2634 H 244.905 0.419132 0.712922 0
M  V30 2635 H 247.451 1.41451 0.937529 0
M  V30 2636 H 246.223 3.06633 2.43089 0
M  V30 2637 H 245.846 1.77397 3.55832 0
M  V30 2638 N 246.843 -1.10192 1.12674 0
M  V30 2639 C 248.12 -1.78717 0.794965 0
M  V30 2640 C 248.5 -1.98628 -0.714853 0
M  V30 2641 O 247.848 -1.58135 -1.64941 0
M  V30 2642 C 248.058 -3.11546 1.5729 0
M  V30 2643 C 249.406 -3.86382 1.76052 0
M  V30 2644 O 250.43 -3.21274 1.53823 0
M  V30 2645 O 249.289 -5.03246 2.13087 0
M  V30 2646 H 246.383 -0.774702 0.289423 0
M  V30 2647 H 248.929 -1.16819 1.23091 0
M  V30 2648 H 247.701 -2.92489 2.59935 0
M  V30 2649 H 247.324 -3.81164 1.13137 0
M  V30 2650 N 248.321 -0.919034 -1.28029 0
M  V30 2651 C 249.284 -0.416182 -2.2539 0
M  V30 2652 C 250.284 0.460438 -1.54067 0
M  V30 2653 O 251.474 0.262744 -1.72207 0
M  V30 2654 C 248.606 0.402707 -3.38513 0
M  V30 2655 H 249.799 -1.27629 -2.71387 0
M  V30 2656 H 247.352 -0.698919 -1.39803 0
M  V30 2657 H 248.087 1.282 -2.97885 0
M  V30 2658 H 247.872 -0.225698 -3.9145 0
M  V30 2659 H 249.362 0.745191 -4.10897 0
M  V30 2660 N 249.799 1.42003 -0.683588 0
M  V30 2661 C 251.215 1.55625 -0.353976 0
M  V30 2662 C 251.415 1.66151 1.14 0
M  V30 2663 O 250.471 1.63329 1.92561 0
M  V30 2664 C 251.784 2.80171 -1.092 0
M  V30 2665 C 253.332 2.93954 -1.07518 0
M  V30 2666 C 253.807 4.21372 -1.79471 0
M  V30 2667 N 255.298 4.28303 -1.76381 0
M  V30 2668 C 256.033 5.25729 -2.28904 0
M  V30 2669 N 255.529 6.29254 -2.89846 0
M  V30 2670 N 257.322 5.17586 -2.19228 0
M  V30 2671 H 249.473 1.33415 -1.6527 0
M  V30 2672 H 251.736 0.64282 -0.696769 0
M  V30 2673 H 251.442 2.78561 -2.14701 0
M  V30 2674 H 251.316 3.7133 -0.662862 0
M  V30 2675 H 253.703 2.95086 -0.028475 0
M  V30 2676 H 253.784 2.04002 -1.54328 0
M  V30 2677 H 253.428 4.21001 -2.84114 0
M  V30 2678 H 253.358 5.10275 -1.30104 0
M  V30 2679 H 255.849 3.54119 -1.31939 0
M  V30 2680 H 256.162 6.99964 -3.27522 0
M  V30 2681 H 254.507 6.29791 -2.93919 0
M  V30 2682 H 257.698 4.35631 -1.71299 0
M  V30 2683 H 257.871 5.93348 -2.60466 0
M  V30 2684 N 251.277 0.427512 1.51691 0
M  V30 2685 C 252.187 -0.39527 2.31246 0
M  V30 2686 C 253.203 -1.03674 1.39742 0
M  V30 2687 O 254.379 -1.03425 1.72816 0
M  V30 2688 C 251.444 -1.48706 3.13189 0
M  V30 2689 C 250.505 -0.866743 4.20459 0
M  V30 2690 C 249.738 -1.90651 4.98486 0
M  V30 2691 O 249.961 -3.12733 4.77026 0
M  V30 2692 O 248.895 -1.5025 5.82845 0
M  V30 2693 H 252.721 0.253918 3.02637 0
M  V30 2694 H 250.306 0.190274 1.48183 0
M  V30 2695 H 252.188 -2.12047 3.64162 0
M  V30 2696 H 250.863 -2.12051 2.44573 0
M  V30 2697 H 249.77 -0.195544 3.73589 0
M  V30 2698 H 251.103 -0.276934 4.9142 0
M  V30 2699 N 252.755 -1.56801 0.158532 0
M  V30 2700 C 254.001 -1.96781 -0.490405 0
M  V30 2701 C 254.334 -1.04397 -1.63753 0
M  V30 2702 O 253.609 -0.0885805 -1.94298 0
M  V30 2703 C 253.892 -3.4635 -0.985594 0
M  V30 2704 C 253.745 -4.49512 0.160824 0
M  V30 2705 C 255.064 -3.98697 -1.86355 0
M  V30 2706 H 252.183 -0.715482 -0.176788 0
M  V30 2707 H 254.825 -1.88451 0.242088 0
M  V30 2708 H 252.975 -3.53579 -1.60978 0
M  V30 2709 H 254.647 -4.54353 0.797537 0
M  V30 2710 H 252.89 -4.26013 0.818256 0
M  V30 2711 H 253.561 -5.51531 -0.227569 0
M  V30 2712 H 256.037 -3.94019 -1.33746 0
M  V30 2713 H 254.913 -5.03792 -2.17909 0
M  V30 2714 H 255.174 -3.41744 -2.8047 0
M  V30 2715 N 254.233 0.115231 -1.57178 0
M  V30 2716 C 255.48 0.822351 -1.8505 0
M  V30 2717 C 255.808 1.79701 -0.744168 0
M  V30 2718 O 255.063 1.93909 0.26414 0
M  V30 2719 C 255.362 1.60324 -3.19423 0
M  V30 2720 C 255.028 0.772536 -4.44233 0
M  V30 2721 C 253.69 0.543468 -4.78121 0
M  V30 2722 C 256.042 0.193746 -5.2084 0
M  V30 2723 C 253.37 -0.274583 -5.86057 0
M  V30 2724 C 255.722 -0.611517 -6.29637 0
M  V30 2725 C 254.386 -0.850867 -6.62055 0
M  V30 2726 H 253.656 0.30092 -0.677147 0
M  V30 2727 H 256.303 0.0845802 -1.91313 0
M  V30 2728 H 254.608 2.41203 -3.08753 0
M  V30 2729 H 256.305 2.1544 -3.38211 0
M  V30 2730 H 252.895 0.96117 -4.17683 0
M  V30 2731 H 257.079 0.357926 -4.95008 0
M  V30 2732 H 252.335 -0.469206 -6.09597 0
M  V30 2733 H 256.509 -1.06697 -6.88178 0
M  V30 2734 H 254.136 -1.48657 -7.45523 0
M  V30 2735 N 255.711 1.52812 0.385517 0
M  V30 2736 C 256.643 1.74096 1.49074 0
M  V30 2737 C 257.656 0.621462 1.50472 0
M  V30 2738 O 258.845 0.897245 1.54311 0
M  V30 2739 C 255.945 1.78774 2.87911 0
M  V30 2740 C 255.118 3.08134 3.10439 0
M  V30 2741 C 254.177 3.04313 4.29278 0
M  V30 2742 O 253.203 3.78168 4.25415 0
M  V30 2743 N 254.405 2.23741 5.35649 0
M  V30 2744 H 257.17 2.69455 1.31202 0
M  V30 2745 H 254.731 1.51343 0.575065 0
M  V30 2746 H 256.723 1.73721 3.65518 0
M  V30 2747 H 255.293 0.907869 2.99126 0
M  V30 2748 H 254.513 3.26649 2.20667 0
M  V30 2749 H 255.801 3.93662 3.22347 0
M  V30 2750 H 255.199 1.63211 5.41645 0
M  V30 2751 H 253.756 2.24524 6.11909 0
M  V30 2752 N 257.189 -0.644168 1.43834 0
M  V30 2753 C 258.122 -1.76906 1.44151 0
M  V30 2754 C 259.1 -1.59774 0.301857 0
M  V30 2755 O 260.284 -1.81834 0.496841 0
M  V30 2756 C 257.411 -3.14321 1.26174 0
M  V30 2757 C 256.457 -3.50134 2.43533 0
M  V30 2758 S 257.29 -3.49085 4.06079 0
M  V30 2759 C 258.446 -4.89142 3.90501 0
M  V30 2760 H 258.679 -1.76368 2.39336 0
M  V30 2761 H 256.212 -0.817624 1.30974 0
M  V30 2762 H 258.17 -3.93625 1.16489 0
M  V30 2763 H 256.831 -3.12412 0.325224 0
M  V30 2764 H 256.024 -4.50095 2.26783 0
M  V30 2765 H 255.626 -2.78264 2.4989 0
M  V30 2766 H 257.918 -5.78036 3.53385 0
M  V30 2767 H 258.861 -5.10945 4.90246 0
M  V30 2768 H 259.269 -4.63102 3.22795 0
M  V30 2769 N 258.668 -1.30515 -0.883378 0
M  V30 2770 C 259.631 -1.1701 -1.97082 0
M  V30 2771 C 260.631 -0.10089 -1.60483 0
M  V30 2772 O 261.821 -0.349127 -1.70666 0
M  V30 2773 C 258.953 -0.793045 -3.31547 0
M  V30 2774 H 260.146 -2.13622 -2.10489 0
M  V30 2775 H 257.699 -1.13935 -1.06998 0
M  V30 2776 H 258.434 0.172499 -3.23841 0
M  V30 2777 H 258.219 -1.56576 -3.5948 0
M  V30 2778 H 259.709 -0.722073 -4.1131 0
M  V30 2779 N 260.146 1.09593 -1.13257 0
M  V30 2780 C 261.076 2.18214 -0.830946 0
M  V30 2781 C 262.057 1.68812 0.208966 0
M  V30 2782 O 263.242 1.9408 0.0682666 0
M  V30 2783 C 260.372 3.46051 -0.294296 0
M  V30 2784 C 259.326 4.08778 -1.26826 0
M  V30 2785 C 258.652 5.31419 -0.591449 0
M  V30 2786 C 259.952 4.51476 -2.62615 0
M  V30 2787 H 261.646 2.43703 -1.73923 0
M  V30 2788 H 259.192 1.17128 -0.837675 0
M  V30 2789 H 261.145 4.2134 -0.0709606 0
M  V30 2790 H 259.869 3.20079 0.649366 0
M  V30 2791 H 258.528 3.35505 -1.47756 0
M  V30 2792 H 258.176 5.01727 0.357633 0
M  V30 2793 H 257.876 5.74341 -1.24123 0
M  V30 2794 H 259.4 6.09433 -0.377355 0
M  V30 2795 H 260.814 5.17999 -2.45663 0
M  V30 2796 H 259.211 5.05277 -3.23752 0
M  V30 2797 H 260.281 3.63962 -3.20406 0
M  V30 2798 N 261.624 0.925811 1.2754 0
M  V30 2799 C 263.04 0.625767 1.46821 0
M  V30 2800 C 263.24 -0.825506 1.83814 0
M  V30 2801 O 262.296 -1.60356 1.95044 0
M  V30 2802 C 263.609 1.57402 2.56213 0
M  V30 2803 C 265.157 1.58204 2.70075 0
M  V30 2804 C 265.632 2.51721 3.82623 0
M  V30 2805 N 267.123 2.49917 3.89994 0
M  V30 2806 C 267.858 3.18968 4.76494 0
M  V30 2807 N 267.354 3.97391 5.67496 0
M  V30 2808 N 269.147 3.07996 4.70208 0
M  V30 2809 H 261.298 1.86409 1.01811 0
M  V30 2810 H 263.561 0.800213 0.508295 0
M  V30 2811 H 263.267 2.60925 2.35819 0
M  V30 2812 H 263.141 1.31428 3.53563 0
M  V30 2813 H 265.528 0.554124 2.89851 0
M  V30 2814 H 265.609 1.88226 1.73218 0
M  V30 2815 H 265.253 3.54622 3.63601 0
M  V30 2816 H 265.183 2.18996 4.78903 0
M  V30 2817 H 267.674 1.9296 3.24923 0
M  V30 2818 H 267.987 4.4707 6.30356 0
M  V30 2819 H 266.332 4.01495 5.67298 0
M  V30 2820 H 269.523 2.46223 3.9811 0
M  V30 2821 H 269.696 3.6208 5.37403 0
M  V30 2822 N 263.102 -1.41638 0.69111 0
M  V30 2823 C 264.049 -2.30789 0.0229705 0
M  V30 2824 C 265.019 -1.46863 -0.775911 0
M  V30 2825 O 266.204 -1.75661 -0.74485 0
M  V30 2826 C 263.344 -3.32868 -0.910666 0
M  V30 2827 C 262.457 -4.31875 -0.103874 0
M  V30 2828 C 261.592 -5.21024 -1.03475 0
M  V30 2829 C 260.631 -6.11702 -0.220598 0
M  V30 2830 N 259.768 -6.93349 -1.10504 0
M  V30 2831 H 264.608 -2.87366 0.788978 0
M  V30 2832 H 262.145 -1.41535 0.400794 0
M  V30 2833 H 264.103 -3.90596 -1.46597 0
M  V30 2834 H 262.733 -2.77851 -1.64312 0
M  V30 2835 H 261.785 -3.76131 0.568285 0
M  V30 2836 H 263.097 -4.96003 0.527504 0
M  V30 2837 H 262.251 -5.83565 -1.65943 0
M  V30 2838 H 260.99 -4.57112 -1.69999 0
M  V30 2839 H 259.995 -5.48215 0.417187 0
M  V30 2840 H 261.22 -6.77668 0.440784 0
M  V30 2841 H 259.166 -6.3205 -1.75638 0
M  V30 2842 H 259.083 -7.54146 -0.529125 0
M  V30 2843 H 260.351 -7.60362 -1.71667 0
M  V30 2844 N 264.58 -0.43555 -1.51462 0
M  V30 2845 C 265.51 0.367376 -2.30592 0
M  V30 2846 C 266.491 1.02263 -1.35928 0
M  V30 2847 O 267.676 1.02661 -1.64847 0
M  V30 2848 C 264.806 1.46983 -3.14664 0
M  V30 2849 C 263.76 0.938161 -4.17591 0
M  V30 2850 C 263.086 2.13622 -4.90173 0
M  V30 2851 C 264.386 -0.0261621 -5.22293 0
M  V30 2852 H 266.08 -0.292969 -2.97963 0
M  V30 2853 H 263.626 -0.14234 -1.43295 0
M  V30 2854 H 265.579 2.03873 -3.688 0
M  V30 2855 H 264.303 2.15843 -2.4511 0
M  V30 2856 H 262.962 0.391481 -3.64504 0
M  V30 2857 H 262.61 2.81098 -4.17124 0
M  V30 2858 H 262.31 1.78688 -5.59772 0
M  V30 2859 H 263.834 2.7107 -5.47132 0
M  V30 2860 H 265.248 0.452384 -5.71512 0
M  V30 2861 H 263.645 -0.287992 -5.99409 0
M  V30 2862 H 264.715 -0.963391 -4.75233 0
M  V30 2863 N 266.058 1.56714 -0.166846 0
M  V30 2864 C 267.306 1.96358 0.478305 0
M  V30 2865 C 267.627 1.0537 1.6408 0
M  V30 2866 O 266.897 0.119154 1.95537 0
M  V30 2867 H 265.477 0.725065 0.179692 0
M  V30 2868 H 268.139 1.93329 -0.246985 0
M  V30 2869 H 267.235 3.00547 0.841292 0
M  V30 2870 N 267.536 -0.106894 1.57237 0
M  V30 2871 C 268.766 -0.825191 1.89405 0
M  V30 2872 C 269.174 -1.73374 0.757496 0
M  V30 2873 O 268.517 -1.81552 -0.280115 0
M  V30 2874 C 268.579 -1.70102 3.1671 0
M  V30 2875 C 268.243 -0.965523 4.46684 0
M  V30 2876 C 269.24 -0.300741 5.19029 0
M  V30 2877 C 266.925 -0.943105 4.93367 0
M  V30 2878 C 268.919 0.376622 6.36286 0
M  V30 2879 C 266.606 -0.261949 6.10538 0
M  V30 2880 C 267.604 0.396748 6.81847 0
M  V30 2881 O 267.292 1.06701 7.96787 0
M  V30 2882 H 267.024 -0.241852 0.631255 0
M  V30 2883 H 269.578 -0.0921491 2.05193 0
M  V30 2884 H 267.808 -2.47601 2.97036 0
M  V30 2885 H 269.497 -2.29483 3.34802 0
M  V30 2886 H 270.263 -0.309599 4.84011 0
M  V30 2887 H 266.142 -1.44524 4.3776 0
M  V30 2888 H 269.686 0.891334 6.91882 0
M  V30 2889 H 265.583 -0.250896 6.45012 0
M  V30 2890 H 266.351 0.972707 8.127 0
M  V30 2891 N 269.014 -1.53014 -0.377408 0
M  V30 2892 C 270.239 -1.72818 -1.14668 0
M  V30 2893 C 270.664 -0.450725 -1.8262 0
M  V30 2894 O 270.022 0.59439 -1.7128 0
M  V30 2895 C 270.07 -2.88627 -2.16164 0
M  V30 2896 O 269.174 -2.56409 -3.22998 0
M  V30 2897 H 268.515 -0.574301 -0.333278 0
M  V30 2898 H 271.045 -1.99853 -0.438152 0
M  V30 2899 H 271.055 -3.14455 -2.59966 0
M  V30 2900 H 269.73 -3.81294 -1.66095 0
M  V30 2901 H 268.307 -2.4136 -2.84253 0
M  V30 2902 N 270.492 0.636531 -1.44174 0
M  V30 2903 C 271.74 1.39343 -1.46383 0
M  V30 2904 C 272.061 1.94766 -0.0955715 0
M  V30 2905 O 271.331 1.75452 0.871395 0
M  V30 2906 H 269.911 0.517199 -0.538994 0
M  V30 2907 H 272.573 0.74957 -1.7991 0
M  V30 2908 H 271.669 2.22746 -2.18611 0
M  V30 2909 N 271.97 1.30982 0.876444 0
M  V30 2910 C 272.918 1.18006 2.00443 0
M  V30 2911 C 273.912 0.0898871 1.69161 0
M  V30 2912 O 275.118 0.251333 1.78237 0
M  V30 2913 H 271.493 0.365196 0.65737 0
M  V30 2914 H 273.464 2.13453 2.0852 0
M  V30 2915 C 272.213 0.897521 3.35916 0
M  V30 2916 H 271.536 1.7285 3.60504 0
M  V30 2917 H 272.976 0.846874 4.15456 0
M  V30 2918 C 271.435 -0.399674 3.34521 0
M  V30 2919 O 271.965 -1.41852 3.7582 0
M  V30 2920 N 270.171 -0.413893 2.87637 0
M  V30 2921 H 269.718 0.41571 2.54224 0
M  V30 2922 H 269.676 -1.28175 2.87086 0
M  V30 2923 N 273.449 -1.08991 1.13837 0
M  V30 2924 C 274.677 -1.85011 0.926202 0
M  V30 2925 C 275.092 -1.8135 -0.525127 0
M  V30 2926 O 274.449 -1.21287 -1.36366 0
M  V30 2927 C 274.5 -3.32802 1.41155 0
M  V30 2928 O 274.221 -3.36444 2.80601 0
M  V30 2929 C 275.722 -4.25649 1.23847 0
M  V30 2930 H 272.942 -0.584249 0.32999 0
M  V30 2931 H 275.486 -1.37688 1.51202 0
M  V30 2932 H 273.641 -3.77536 0.868631 0
M  V30 2933 H 274.055 -4.28657 3.02248 0
M  V30 2934 H 275.529 -5.27485 1.62675 0
M  V30 2935 H 276.006 -4.38828 0.18065 0
M  V30 2936 H 276.612 -3.86735 1.76964 0
M  V30 2937 N 274.927 -0.932562 -1.27047 0
M  V30 2938 C 276.155 -0.592031 -1.98249 0
M  V30 2939 C 276.57 0.831062 -1.69525 0
M  V30 2940 O 275.927 1.55299 -0.958561 0
M  V30 2941 C 275.978 -0.814279 -3.5221 0
M  V30 2942 O 275.699 -2.18139 -3.7993 0
M  V30 2943 C 277.2 -0.483121 -4.4066 0
M  V30 2944 H 274.42 -0.223896 -0.632544 0
M  V30 2945 H 276.964 -1.25091 -1.61779 0
M  V30 2946 H 275.119 -0.20213 -3.86872 0
M  V30 2947 H 275.533 -2.235 -4.74498 0
M  V30 2948 H 277.007 -0.689298 -5.47679 0
M  V30 2949 H 277.484 0.581546 -4.35333 0
M  V30 2950 H 278.09 -1.07362 -4.11526 0
M  V30 2951 N 276.405 1.4127 -0.698611 0
M  V30 2952 C 277.682 1.94955 -0.158762 0
M  V30 2953 C 278.062 1.63781 1.33188 0
M  V30 2954 O 277.41 0.946423 2.07979 0
M  V30 2955 C 277.62 3.46044 -0.453309 0
M  V30 2956 C 278.968 4.22872 -0.382707 0
M  V30 2957 O 279.992 3.54076 -0.388396 0
M  V30 2958 O 278.851 5.45407 -0.345463 0
M  V30 2959 H 275.945 0.82683 -0.0167505 0
M  V30 2960 H 278.491 1.50971 -0.77498 0
M  V30 2961 H 277.263 3.62028 -1.48498 0
M  V30 2962 H 276.886 3.97128 0.19373 0
M  V30 2963 N 277.883 0.443576 1.51229 0
M  V30 2964 C 279.294 -0.0180867 1.86691 0
M  V30 2965 C 279.645 -1.41384 1.36033 0
M  V30 2966 O 278.77 -2.04291 0.713722 0
M  V30 2967 C 279.365 -0.039597 3.38777 0
M  V30 2968 C 277.924 -0.445692 3.73752 0
M  V30 2969 C 277.071 0.357584 2.74985 0
M  V30 2970 H 280.022 0.659138 1.44364 0
M  V30 2971 H 280.043 -0.847761 3.70936 0
M  V30 2972 H 279.555 0.976382 3.75617 0
M  V30 2973 H 277.656 -1.46704 3.42503 0
M  V30 2974 H 277.769 -0.166155 4.78812 0
M  V30 2975 H 276.133 -0.184973 2.54027 0
M  V30 2976 H 276.916 1.37256 3.14668 0
M  V30 2977 N 279.361 -1.56624 0.175154 0
M  V30 2978 C 280.308 -2.18149 -0.753634 0
M  V30 2979 C 281.278 -1.12265 -1.22417 0
M  V30 2980 O 282.463 -1.40432 -1.29165 0
M  V30 2981 C 279.603 -2.82933 -1.97592 0
M  V30 2982 C 278.716 -4.03289 -1.5486 0
M  V30 2983 C 277.851 -4.55988 -2.72485 0
M  V30 2984 C 276.89 -5.68746 -2.26262 0
M  V30 2985 N 276.027 -6.15938 -3.36994 0
M  V30 2986 H 280.867 -2.9717 -0.222195 0
M  V30 2987 H 278.404 -1.46774 -0.0979422 0
M  V30 2988 H 280.362 -3.18653 -2.69288 0
M  V30 2989 H 278.992 -2.06509 -2.481 0
M  V30 2990 H 278.044 -3.73364 -0.728246 0
M  V30 2991 H 279.356 -4.849 -1.16933 0
M  V30 2992 H 278.51 -4.9391 -3.52332 0
M  V30 2993 H 277.249 -3.73443 -3.13674 0
M  V30 2994 H 276.254 -5.30372 -1.44863 0
M  V30 2995 H 277.479 -6.53095 -1.86127 0
M  V30 2996 H 275.425 -5.36321 -3.77751 0
M  V30 2997 H 275.342 -6.92548 -3.03172 0
M  V30 2998 H 276.61 -6.58511 -4.17114 0
M  V30 2999 N 280.839 0.0985539 -1.57292 0
M  V30 3000 C 281.749 1.13824 -2.05137 0
M  V30 3001 C 282.765 1.44076 -0.975604 0
M  V30 3002 O 283.941 1.54786 -1.28853 0
M  V30 3003 C 281.006 2.43969 -2.46333 0
M  V30 3004 C 280.067 2.2093 -3.68087 0
M  V30 3005 C 279.3 3.44869 -4.0731 0
M  V30 3006 O 279.523 4.52972 -3.46659 0
M  V30 3007 O 278.457 3.34661 -5.00285 0
M  V30 3008 H 282.283 0.761881 -2.93988 0
M  V30 3009 H 279.868 0.310818 -1.46131 0
M  V30 3010 H 281.75 3.20609 -2.73473 0
M  V30 3011 H 280.425 2.81038 -1.60621 0
M  V30 3012 H 279.332 1.42081 -3.46069 0
M  V30 3013 H 280.665 1.88755 -4.54568 0
M  V30 3014 N 282.317 1.53212 0.369288 0
M  V30 3015 C 283.566 1.68436 1.10961 0
M  V30 3016 C 283.879 0.440738 1.9057 0
M  V30 3017 O 285.085 0.473446 2.6734 0
M  V30 3018 C 283.541 2.97744 2.0218 0
M  V30 3019 C 283.149 4.29355 1.279 0
M  V30 3020 C 284.893 3.22334 2.76226 0
M  V30 3021 C 282.8 5.49755 2.17999 0
M  V30 3022 H 281.73 0.627568 0.41794 0
M  V30 3023 H 284.381 1.79713 0.370884 0
M  V30 3024 H 282.763 2.8026 2.79768 0
M  V30 3025 H 283.937 4.57458 0.554007 0
M  V30 3026 H 282.252 4.11179 0.657311 0
M  V30 3027 H 284.849 4.09471 3.43857 0
M  V30 3028 H 285.192 2.38238 3.41392 0
M  V30 3029 H 285.725 3.40475 2.05723 0
M  V30 3030 H 282.464 6.36318 1.57417 0
M  V30 3031 H 281.984 5.25937 2.88359 0
M  V30 3032 H 283.663 5.84401 2.77641 0
M  V30 3033 N 283.795 -0.628877 1.44509 0
M  V30 3034 C 284.705 -1.7694 1.54044 0
M  V30 3035 C 285.721 -1.68705 0.425987 0
M  V30 3036 O 286.897 -1.89442 0.683656 0
M  V30 3037 C 283.962 -3.13332 1.48405 0
M  V30 3038 C 283.023 -3.33181 2.70719 0
M  V30 3039 C 282.256 -4.63067 2.6534 0
M  V30 3040 O 282.479 -5.44017 1.71469 0
M  V30 3041 O 281.413 -4.85167 3.56226 0
M  V30 3042 H 285.239 -1.71848 2.50403 0
M  V30 3043 H 282.824 -0.790378 1.26781 0
M  V30 3044 H 284.706 -3.94634 1.47791 0
M  V30 3045 H 283.381 -3.1896 0.551898 0
M  V30 3046 H 282.288 -2.51549 2.769 0
M  V30 3047 H 283.621 -3.32416 3.62988 0
M  V30 3048 N 285.273 -1.31445 -0.869486 0
M  V30 3049 C 286.236 -1.19094 -1.9583 0
M  V30 3050 C 287.236 -0.117906 -1.60367 0
M  V30 3051 O 288.426 -0.367208 -1.70286 0
M  V30 3052 C 285.558 -0.828165 -3.30688 0
M  V30 3053 H 286.751 -2.15842 -2.08212 0
M  V30 3054 H 284.304 -1.15063 -1.05784 0
M  V30 3055 H 285.039 0.138142 -3.24006 0
M  V30 3056 H 284.824 -1.6038 -3.578 0
M  V30 3057 H 286.314 -0.765658 -4.10521 0
M  V30 3058 N 286.751 1.08385 -1.14413 0
M  V30 3059 C 287.714 2.13486 -0.834048 0
M  V30 3060 C 288.714 1.59988 0.161418 0
M  V30 3061 O 289.904 1.74071 -0.0669575 0
M  V30 3062 C 287.036 3.4003 -0.243354 0
M  V30 3063 H 288.229 2.42425 -1.7655 0
M  V30 3064 H 285.782 1.24101 -0.950189 0
M  V30 3065 H 286.517 3.16726 0.696807 0
M  V30 3066 H 286.302 3.80157 -0.960367 0
M  V30 3067 H 287.792 4.17577 -0.0436242 0
M  V30 3068 N 288.23 0.939286 1.26551 0
M  V30 3069 C 289.46 0.601663 1.97645 0
M  V30 3070 C 289.868 -0.827206 1.70159 0
M  V30 3071 O 289.211 -1.56291 0.965338 0
M  V30 3072 C 289.273 0.761725 3.51337 0
M  V30 3073 C 288.937 2.16487 4.0247 0
M  V30 3074 C 289.934 3.14016 4.14355 0
M  V30 3075 C 287.619 2.48494 4.36527 0
M  V30 3076 C 289.613 4.41654 4.59587 0
M  V30 3077 C 287.3 3.76364 4.81449 0
M  V30 3078 C 288.298 4.72758 4.92939 0
M  V30 3079 O 287.986 5.98352 5.36871 0
M  V30 3080 H 287.718 0.225758 0.637189 0
M  V30 3081 H 290.272 1.26178 1.62075 0
M  V30 3082 H 288.502 0.0444808 3.86674 0
M  V30 3083 H 290.191 0.427442 4.03643 0
M  V30 3084 H 290.957 2.90613 3.8829 0
M  V30 3085 H 286.836 1.74202 4.26819 0
M  V30 3086 H 290.38 5.16896 4.68471 0
M  V30 3087 H 286.277 3.99582 5.06956 0
M  V30 3088 H 287.045 6.01507 5.55096 0
M  V30 3089 N 289.708 -1.40897 0.706093 0
M  V30 3090 C 290.656 -2.32572 0.0361893 0
M  V30 3091 C 291.65 -1.51532 -0.757266 0
M  V30 3092 O 292.856 -1.67396 -0.661703 0
M  V30 3093 H 289.231 -0.751966 -0.00709935 0
M  V30 3094 H 291.202 -2.86733 0.826249 0
M  V30 3095 C 289.951 -3.36418 -0.87854 0
M  V30 3096 H 289.274 -3.98836 -0.277401 0
M  V30 3097 H 290.714 -4.0308 -1.3154 0
M  V30 3098 C 289.173 -2.71141 -1.99961 0
M  V30 3099 O 289.703 -2.56735 -3.0895 0
M  V30 3100 N 287.909 -2.29671 -1.78043 0
M  V30 3101 H 287.456 -2.41588 -0.894042 0
M  V30 3102 H 287.414 -1.86332 -2.53235 0
M  V30 3103 N 291.186 -0.45159 -1.50991 0
M  V30 3104 C 292.096 0.358431 -2.31846 0
M  V30 3105 C 293.112 1.01438 -1.41373 0
M  V30 3106 O 294.288 1.00663 -1.74439 0
M  V30 3107 C 291.353 1.43704 -3.15515 0
M  V30 3108 C 290.414 0.799742 -4.21785 0
M  V30 3109 C 289.647 1.82696 -5.01456 0
M  V30 3110 O 289.87 3.05105 -4.81941 0
M  V30 3111 O 288.804 1.40958 -5.85162 0
M  V30 3112 H 292.63 -0.302032 -3.02194 0
M  V30 3113 H 290.215 -0.213825 -1.47862 0
M  V30 3114 H 292.097 2.06227 -3.67489 0
M  V30 3115 H 290.772 2.08133 -2.47916 0
M  V30 3116 H 289.679 0.136084 -3.73852 0
M  V30 3117 H 291.012 0.198718 -4.91799 0
M  V30 3118 N 292.664 1.56529 -0.183458 0
M  V30 3119 C 293.594 2.21549 0.737456 0
M  V30 3120 C 294.575 1.17489 1.23005 0
M  V30 3121 O 295.76 1.45959 1.281 0
M  V30 3122 C 292.89 2.86575 1.96194 0
M  V30 3123 C 291.844 3.96778 1.60473 0
M  V30 3124 C 291.17 4.48911 2.90487 0
M  V30 3125 C 292.47 5.15767 0.823497 0
M  V30 3126 H 294.164 2.98761 0.195453 0
M  V30 3127 H 291.71 1.43702 0.0925686 0
M  V30 3128 H 293.663 3.30739 2.61131 0
M  V30 3129 H 292.387 2.06749 2.52828 0
M  V30 3130 H 291.046 3.53286 0.978997 0
M  V30 3131 H 290.694 3.65862 3.45186 0
M  V30 3132 H 290.394 5.23265 2.67335 0
M  V30 3133 H 291.918 4.95771 3.56432 0
M  V30 3134 H 293.332 5.56549 1.37571 0
M  V30 3135 H 291.729 5.96114 0.690551 0
M  V30 3136 H 292.799 4.84574 -0.177782 0
M  V30 3137 N 294.142 -0.090211 1.57342 0
M  V30 3138 C 295.089 -1.10909 2.02405 0
M  V30 3139 C 296.059 -1.39523 0.901252 0
M  V30 3140 O 297.244 -1.50903 1.1676 0
M  V30 3141 C 294.384 -2.42277 2.45755 0
M  V30 3142 C 293.497 -2.20352 3.71576 0
M  V30 3143 C 292.632 -3.45154 4.03785 0
M  V30 3144 C 291.671 -3.18512 5.22701 0
M  V30 3145 N 290.808 -4.35593 5.50639 0
M  V30 3146 H 295.648 -0.71782 2.89225 0
M  V30 3147 H 293.185 -0.342901 1.43048 0
M  V30 3148 H 295.143 -3.18951 2.68935 0
M  V30 3149 H 293.773 -2.79242 1.61938 0
M  V30 3150 H 292.825 -1.34458 3.55844 0
M  V30 3151 H 294.137 -1.96661 4.58395 0
M  V30 3152 H 293.291 -4.30233 4.27767 0
M  V30 3153 H 292.03 -3.71904 3.15498 0
M  V30 3154 H 291.035 -2.31827 4.98534 0
M  V30 3155 H 292.26 -2.93103 6.12591 0
M  V30 3156 H 290.206 -4.6241 4.6531 0
M  V30 3157 H 290.123 -4.1511 6.31838 0
M  V30 3158 H 291.391 -5.21723 5.7916 0
M  V30 3159 N 295.62 -1.53406 -0.361157 0
M  V30 3160 C 296.567 -1.80156 -1.44265 0
M  V30 3161 C 297.537 -0.646183 -1.53015 0
M  V30 3162 O 298.722 -0.888818 -1.68833 0
M  V30 3163 C 295.862 -2.00116 -2.81154 0
M  V30 3164 C 294.975 -3.27833 -2.81335 0
M  V30 3165 C 294.11 -3.37957 -4.09828 0
M  V30 3166 C 293.149 -4.59689 -4.04168 0
M  V30 3167 N 292.286 -4.66942 -5.24318 0
M  V30 3168 H 297.126 -2.72438 -1.20754 0
M  V30 3169 H 294.663 -1.34954 -0.585296 0
M  V30 3170 H 296.621 -2.09677 -3.60682 0
M  V30 3171 H 295.251 -1.11167 -3.03054 0
M  V30 3172 H 294.303 -3.27204 -1.94014 0
M  V30 3173 H 295.615 -4.17442 -2.73027 0
M  V30 3174 H 294.769 -3.46853 -4.97773 0
M  V30 3175 H 293.508 -2.46372 -4.20894 0
M  V30 3176 H 292.513 -4.50889 -3.14609 0
M  V30 3177 H 293.738 -5.5262 -3.947 0
M  V30 3178 H 291.684 -3.7826 -5.35962 0
M  V30 3179 H 291.601 -5.50462 -5.18197 0
M  V30 3180 H 292.869 -4.80127 -6.14084 0
M  V30 3181 N 297.098 0.621204 -1.44841 0
M  V30 3182 C 298.028 1.74366 -1.55303 0
M  V30 3183 C 299.009 1.65199 -0.405385 0
M  V30 3184 O 300.194 1.83807 -0.626787 0
M  V30 3185 C 297.324 3.12931 -1.50637 0
M  V30 3186 C 296.278 3.36896 -2.63979 0
M  V30 3187 C 295.604 4.75594 -2.44366 0
M  V30 3188 C 296.904 3.28483 -4.06074 0
M  V30 3189 H 298.598 1.65867 -2.49256 0
M  V30 3190 H 296.144 0.796558 -1.19962 0
M  V30 3191 H 298.097 3.9124 -1.56555 0
M  V30 3192 H 296.821 3.22237 -0.532057 0
M  V30 3193 H 295.48 2.60972 -2.57467 0
M  V30 3194 H 295.128 4.81616 -1.45105 0
M  V30 3195 H 294.828 4.92586 -3.20364 0
M  V30 3196 H 296.352 5.5612 -2.52117 0
M  V30 3197 H 297.766 3.96684 -4.13902 0
M  V30 3198 H 296.163 3.57008 -4.82354 0
M  V30 3199 H 297.233 2.26133 -4.28943 0
M  V30 3200 N 298.576 1.31904 0.862503 0
M  V30 3201 C 299.509 1.14514 1.97388 0
M  V30 3202 C 300.487 0.0466493 1.62533 0
M  V30 3203 O 301.671 0.204484 1.87388 0
M  V30 3204 C 298.798 0.751347 3.30261 0
M  V30 3205 C 297.844 1.85395 3.84098 0
M  V30 3206 S 298.677 3.46081 4.08642 0
M  V30 3207 C 299.833 3.08655 5.44502 0
M  V30 3208 H 300.066 2.08597 2.11836 0
M  V30 3209 H 297.599 1.16475 1.01356 0
M  V30 3210 H 299.557 0.530901 4.07052 0
M  V30 3211 H 298.218 -0.170493 3.13637 0
M  V30 3212 H 297.411 1.53122 4.80177 0
M  V30 3213 H 297.013 2.02984 3.14123 0
M  V30 3214 H 299.305 2.58012 6.26447 0
M  V30 3215 H 300.248 4.03726 5.81731 0
M  V30 3216 H 300.656 2.45891 5.08132 0
M  V30 3217 N 300.054 -1.07777 1.14986 0
M  V30 3218 C 301.465 -1.61766 0.932127 0
M  V30 3219 C 301.816 -1.88974 -0.527581 0
M  V30 3220 O 300.941 -1.65198 -1.39781 0
M  V30 3221 C 301.536 -2.93891 1.68563 0
M  V30 3222 C 300.095 -3.44639 1.5133 0
M  V30 3223 C 299.242 -2.18767 1.704 0
M  V30 3224 H 302.193 -0.909201 1.30074 0
M  V30 3225 H 302.214 -3.62623 1.15259 0
M  V30 3226 H 301.726 -2.74057 2.74799 0
M  V30 3227 H 299.827 -3.69564 0.474702 0
M  V30 3228 H 299.94 -4.20966 2.28746 0
M  V30 3229 H 298.304 -2.28253 1.13016 0
M  V30 3230 H 299.087 -2.01433 2.77992 0
M  V30 3231 N 301.532 -0.945985 -1.26051 0
M  V30 3232 C 302.48 -0.450259 -2.282 0
M  V30 3233 C 303.474 0.47497 -1.62605 0
M  V30 3234 O 304.68 0.352653 -1.76512 0
M  V30 3235 H 301.055 -0.127081 -0.741184 0
M  V30 3236 H 303.026 -1.32422 -2.67408 0
M  V30 3237 C 301.775 0.26467 -3.46691 0
M  V30 3238 H 301.098 -0.438123 -3.97392 0
M  V30 3239 H 302.538 0.575678 -4.20074 0
M  V30 3240 C 300.997 1.48416 -3.02447 0
M  V30 3241 O 301.527 2.58227 -3.07704 0
M  V30 3242 N 299.733 1.34243 -2.57735 0
M  V30 3243 H 299.28 0.448994 -2.53657 0
M  V30 3244 H 299.238 2.15957 -2.28495 0
M  V30 3245 N 303.011 1.40521 -0.713556 0
M  V30 3246 C 304.257 2.01221 -0.252564 0
M  V30 3247 C 304.59 1.56444 1.1506 0
M  V30 3248 O 303.865 0.783597 1.78017 0
M  V30 3249 C 304.148 3.58582 -0.330332 0
M  V30 3250 C 304.001 4.13437 -1.77173 0
M  V30 3251 C 305.32 4.39079 0.299641 0
M  V30 3252 H 302.439 0.731077 -0.0932471 0
M  V30 3253 H 305.081 1.67026 -0.905673 0
M  V30 3254 H 303.231 3.87844 0.225737 0
M  V30 3255 H 304.903 3.9498 -2.38303 0
M  V30 3256 H 303.146 3.67801 -2.3001 0
M  V30 3257 H 303.817 5.22597 -1.77755 0
M  V30 3258 H 306.293 4.15735 -0.174139 0
M  V30 3259 H 305.169 5.4848 0.214771 0
M  V30 3260 H 305.43 4.19915 1.38288 0
M  V30 3261 N 304.489 0.459591 1.5075 0
M  V30 3262 C 305.452 -0.329093 2.26825 0
M  V30 3263 C 306.452 -0.930481 1.31144 0
M  V30 3264 O 307.642 -0.801453 1.54669 0
M  V30 3265 C 304.774 -1.46768 3.07688 0
M  V30 3266 H 305.967 0.337924 2.9799 0
M  V30 3267 H 303.52 0.213336 1.54837 0
M  V30 3268 H 304.255 -2.17009 2.40993 0
M  V30 3269 H 304.04 -1.04238 3.77991 0
M  V30 3270 H 305.53 -2.02433 3.65254 0
M  V30 3271 N 305.967 -1.56429 0.191757 0
M  V30 3272 C 306.93 -2.17707 -0.716688 0
M  V30 3273 C 307.93 -1.13061 -1.14341 0
M  V30 3274 O 309.12 -1.38464 -1.05704 0
M  V30 3275 C 306.252 -2.77644 -1.97804 0
M  V30 3276 H 307.445 -2.99342 -0.1829 0
M  V30 3277 H 304.998 -1.56193 -0.0578566 0
M  V30 3278 H 305.733 -1.99799 -2.55443 0
M  V30 3279 H 305.518 -3.54246 -1.68083 0
M  V30 3280 H 307.008 -3.24708 -2.62592 0
M  V30 3281 N 307.445 0.0818655 -1.57387 0
M  V30 3282 C 308.692 0.782914 -1.86753 0
M  V30 3283 C 309.02 1.78082 -0.782118 0
M  V30 3284 O 308.275 1.94426 0.22295 0
M  V30 3285 C 308.574 1.53513 -3.22752 0
M  V30 3286 C 308.24 0.678134 -4.45771 0
M  V30 3287 C 306.902 0.441929 -4.79166 0
M  V30 3288 C 309.254 0.0832243 -5.21134 0
M  V30 3289 C 306.582 -0.398833 -5.85343 0
M  V30 3290 C 308.934 -0.744935 -6.28199 0
M  V30 3291 C 307.598 -0.991107 -6.60101 0
M  V30 3292 H 306.868 0.286489 -0.683378 0
M  V30 3293 H 309.515 0.0439808 -1.91449 0
M  V30 3294 H 307.82 2.34599 -3.138 0
M  V30 3295 H 309.517 2.08218 -3.42705 0
M  V30 3296 H 306.107 0.872357 -4.19628 0
M  V30 3297 H 310.291 0.252847 -4.95655 0
M  V30 3298 H 305.547 -0.598405 -6.08465 0
M  V30 3299 H 309.721 -1.21271 -6.8576 0
M  V30 3300 H 307.348 -1.64437 -7.42202 0
M  V30 3301 N 308.923 1.53595 0.353017 0
M  V30 3302 C 309.871 1.81605 1.45335 0
M  V30 3303 C 310.865 0.685923 1.54892 0
M  V30 3304 O 312.071 0.869095 1.57628 0
M  V30 3305 H 308.446 0.575204 0.484401 0
M  V30 3306 H 310.417 2.73679 1.18921 0
M  V30 3307 C 309.166 2.03406 2.81995 0
M  V30 3308 H 308.489 2.89814 2.75405 0
M  V30 3309 H 309.929 2.26975 3.58132 0
M  V30 3310 C 308.388 0.816794 3.26849 0
M  V30 3311 O 308.918 0.0115856 4.01698 0
M  V30 3312 N 307.124 0.636682 2.8354 0
M  V30 3313 H 306.671 1.2931 2.22793 0
M  V30 3314 H 306.629 -0.176336 3.13905 0
M  V30 3315 N 310.401 -0.613514 1.45168 0
M  V30 3316 C 311.626 -1.40437 1.52618 0
M  V30 3317 C 312.051 -1.87438 0.157707 0
M  V30 3318 O 311.409 -1.59791 -0.856537 0
M  V30 3319 C 311.457 -2.58894 2.51011 0
M  V30 3320 O 310.561 -3.59326 2.02382 0
M  V30 3321 H 309.902 -0.419506 0.514695 0
M  V30 3322 H 312.432 -0.747215 1.90467 0
M  V30 3323 H 312.442 -3.06214 2.69624 0
M  V30 3324 H 311.117 -2.24032 3.50403 0
M  V30 3325 H 309.694 -3.18695 1.93618 0
M  V30 3326 N 311.879 -1.3236 -0.855495 0
M  V30 3327 C 313.156 -1.13491 -1.59309 0
M  V30 3328 C 313.536 0.30503 -2.08885 0
M  V30 3329 O 312.884 1.30151 -1.87811 0
M  V30 3330 C 313.094 -2.16176 -2.73987 0
M  V30 3331 C 314.442 -2.49463 -3.43589 0
M  V30 3332 O 315.466 -2.14715 -2.84211 0
M  V30 3333 O 314.325 -3.09027 -4.50738 0
M  V30 3334 H 311.419 -0.437887 -0.701559 0
M  V30 3335 H 313.965 -1.43887 -0.899696 0
M  V30 3336 H 312.737 -3.1297 -2.34873 0
M  V30 3337 H 312.36 -1.86769 -3.51003 0
M  V30 3338 N 313.357 1.07166 -1.15556 0
M  V30 3339 C 314.305 2.16517 -0.8499 0
M  V30 3340 C 315.299 1.68468 0.177454 0
M  V30 3341 O 316.505 1.79971 0.0323026 0
M  V30 3342 H 312.88 0.706652 -0.25719 0
M  V30 3343 H 314.851 2.39514 -1.77976 0
M  V30 3344 C 313.6 3.45855 -0.357682 0
M  V30 3345 H 312.923 3.83214 -1.13961 0
M  V30 3346 H 314.363 4.23607 -0.182489 0
M  V30 3347 C 312.822 3.24062 0.921152 0
M  V30 3348 O 313.352 3.48813 1.9923 0
M  V30 3349 N 311.558 2.77539 0.86141 0
M  V30 3350 H 311.105 2.57598 -0.0104408 0
M  V30 3351 H 311.063 2.63337 1.71758 0
M  V30 3352 N 314.835 0.952656 1.25548 0
M  V30 3353 C 316.246 0.647392 1.75116 0
M  V30 3354 C 316.597 -0.837274 1.77438 0
M  V30 3355 O 315.722 -1.65525 1.39393 0
M  V30 3356 C 316.317 1.16845 3.18014 0
M  V30 3357 C 314.876 0.913382 3.6515 0
M  V30 3358 C 314.023 1.31265 2.44264 0
M  V30 3359 H 316.974 1.12968 1.11462 0
M  V30 3360 H 316.995 0.527606 3.76824 0
M  V30 3361 H 316.507 2.24902 3.16292 0
M  V30 3362 H 314.608 -0.152316 3.72289 0
M  V30 3363 H 314.721 1.54845 4.53387 0
M  V30 3364 H 313.085 0.731028 2.43984 0
M  V30 3365 H 313.868 2.40239 2.45234 0
M  V30 3366 N 316.313 -1.40141 0.720998 0
M  V30 3367 C 317.276 -2.29058 0.0805834 0
M  V30 3368 C 318.276 -1.45632 -0.681758 0
M  V30 3369 O 319.466 -1.6648 -0.512856 0
M  V30 3370 C 316.598 -3.28925 -0.895593 0
M  V30 3371 H 317.791 -2.87191 0.863793 0
M  V30 3372 H 315.344 -1.48553 0.485975 0
M  V30 3373 H 316.079 -2.75822 -1.70566 0
M  V30 3374 H 315.864 -3.90519 -0.351766 0
M  V30 3375 H 317.354 -3.95494 -1.34069 0
M  V30 3376 N 317.792 -0.46758 -1.50504 0
M  V30 3377 C 318.74 0.342482 -2.30065 0
M  V30 3378 C 319.734 0.993596 -1.37201 0
M  V30 3379 O 320.94 0.925102 -1.54408 0
M  V30 3380 H 317.315 0.129283 -0.740803 0
M  V30 3381 H 319.286 -0.34899 -2.96352 0
M  V30 3382 C 318.035 1.4139 -3.17654 0
M  V30 3383 H 317.358 0.922264 -3.89017 0
M  V30 3384 H 318.798 1.95335 -3.76325 0
M  V30 3385 C 317.257 2.4139 -2.35016 0
M  V30 3386 O 317.787 3.46586 -2.03079 0
M  V30 3387 N 315.993 2.13021 -1.97662 0
M  V30 3388 H 315.54 1.27499 -2.23834 0
M  V30 3389 H 315.498 2.80164 -1.42673 0
M  V30 3390 N 319.27 1.56325 -0.20005 0
M  V30 3391 C 320.681 1.8408 0.31167 0
M  V30 3392 C 321.032 1.12087 1.61031 0
M  V30 3393 O 320.157 0.38332 2.12978 0
M  V30 3394 C 320.752 3.33932 0.57226 0
M  V30 3395 C 319.311 3.6208 1.02834 0
M  V30 3396 C 318.458 2.77186 0.079634 0
M  V30 3397 H 321.409 1.52939 -0.423729 0
M  V30 3398 H 321.43 3.52971 1.42096 0
M  V30 3399 H 320.942 3.86303 -0.37308 0
M  V30 3400 H 319.043 3.15147 1.98778 0
M  V30 3401 H 319.156 4.7023 0.917624 0
M  V30 3402 H 317.52 2.47951 0.582448 0
M  V30 3403 H 318.303 3.32347 -0.860238 0
M  V30 3404 N 320.748 -0.0735177 1.57428 0
M  V30 3405 C 321.978 -0.78483 1.91112 0
M  V30 3406 C 322.386 -1.71729 0.7941 0
M  V30 3407 O 321.729 -1.82105 -0.241542 0
M  V30 3408 C 321.791 -1.63346 3.20247 0
M  V30 3409 C 321.455 -0.870557 4.48632 0
M  V30 3410 C 322.452 -0.19058 5.19551 0
M  V30 3411 C 320.137 -0.838242 4.95256 0
M  V30 3412 C 322.131 0.511503 6.35344 0
M  V30 3413 C 319.818 -0.132386 6.10957 0
M  V30 3414 C 320.816 0.541288 6.80852 0
M  V30 3415 O 320.504 1.23578 7.94345 0
M  V30 3416 H 320.236 -0.228408 0.636244 0
M  V30 3417 H 322.79 -0.0486039 2.05342 0
M  V30 3418 H 321.02 -2.41245 3.02222 0
M  V30 3419 H 322.709 -2.22329 3.39595 0
M  V30 3420 H 323.475 -0.206864 4.84559 0
M  V30 3421 H 319.354 -1.35206 4.40727 0
M  V30 3422 H 322.898 1.03789 6.89836 0
M  V30 3423 H 318.795 -0.114023 6.45399 0
M  V30 3424 H 319.563 1.14487 8.10454 0
M  V30 3425 N 322.226 -1.5378 -0.344866 0
M  V30 3426 C 323.159 -1.7649 -1.4466 0
M  V30 3427 C 324.137 -0.613954 -1.50563 0
M  V30 3428 O 325.321 -0.84896 -1.683 0
M  V30 3429 C 322.448 -1.86235 -2.82903 0
M  V30 3430 C 321.494 -3.08375 -2.94631 0
M  V30 3431 S 322.327 -4.67457 -2.61236 0
M  V30 3432 C 323.483 -4.80079 -4.0159 0
M  V30 3433 H 323.716 -2.69661 -1.2518 0
M  V30 3434 H 321.249 -1.44632 -0.540455 0
M  V30 3435 H 323.207 -1.92535 -3.62547 0
M  V30 3436 H 321.868 -0.940786 -2.9968 0
M  V30 3437 H 321.061 -3.11865 -3.95925 0
M  V30 3438 H 320.663 -3.00294 -2.22934 0
M  V30 3439 H 322.955 -4.61407 -4.96094 0
M  V30 3440 H 323.898 -5.82168 -4.03095 0
M  V30 3441 H 324.306 -4.08544 -3.89554 0
M  V30 3442 N 323.704 0.605807 -1.45491 0
M  V30 3443 C 324.614 1.74466 -1.56839 0
M  V30 3444 C 325.63 1.68006 -0.452772 0
M  V30 3445 O 326.806 1.8833 -0.713708 0
M  V30 3446 C 323.871 3.10931 -1.53371 0
M  V30 3447 C 322.932 3.28832 -2.75986 0
M  V30 3448 C 322.165 4.58787 -2.72673 0
M  V30 3449 O 322.388 5.4122 -1.80102 0
M  V30 3450 O 321.322 4.79438 -3.63899 0
M  V30 3451 H 325.148 1.67843 -2.53106 0
M  V30 3452 H 322.733 0.770108 -1.28022 0
M  V30 3453 H 324.615 3.92233 -1.54051 0
M  V30 3454 H 323.29 3.18042 -0.602572 0
M  V30 3455 H 322.197 2.47112 -2.80867 0
M  V30 3456 H 323.53 3.26599 -3.68231 0
M  V30 3457 N 325.182 1.32811 0.848464 0
M  V30 3458 C 326.43 1.23479 1.59991 0
M  V30 3459 C 326.751 -0.201853 1.93952 0
M  V30 3460 O 326.021 -1.12818 1.60153 0
M  V30 3461 H 324.601 0.454034 0.593179 0
M  V30 3462 H 327.263 1.66412 1.01455 0
M  V30 3463 H 326.359 1.82178 2.53412 0
M  V30 3464 N 326.66 -1.06551 1.16123 0
M  V30 3465 C 327.57 -2.17484 0.879662 0
M  V30 3466 C 328.586 -1.73377 -0.147104 0
M  V30 3467 O 329.762 -2.01379 0.0289128 0
M  V30 3468 C 326.827 -3.44591 0.381829 0
M  V30 3469 C 325.888 -4.0322 1.4735 0
M  V30 3470 C 325.121 -5.24261 0.999324 0
M  V30 3471 O 325.344 -5.70198 -0.151957 0
M  V30 3472 O 324.278 -5.74775 1.78653 0
M  V30 3473 H 328.104 -2.44075 1.80724 0
M  V30 3474 H 325.689 -1.16042 0.940992 0
M  V30 3475 H 327.571 -4.21254 0.111053 0
M  V30 3476 H 326.246 -3.19532 -0.51777 0
M  V30 3477 H 325.153 -3.2806 1.79798 0
M  V30 3478 H 326.486 -4.32568 2.34831 0
M  V30 3479 N 328.138 -0.959301 -1.25041 0
M  V30 3480 C 329.384 -0.617525 -1.9317 0
M  V30 3481 C 329.717 0.843981 -1.74902 0
M  V30 3482 O 328.992 1.60615 -1.09696 0
M  V30 3483 C 329.275 -0.982736 -3.46431 0
M  V30 3484 C 329.128 -2.50032 -3.73904 0
M  V30 3485 C 330.447 -0.511176 -4.37121 0
M  V30 3486 H 327.566 -0.22582 -0.701552 0
M  V30 3487 H 330.208 -1.19679 -1.4757 0
M  V30 3488 H 328.358 -0.489806 -3.854 0
M  V30 3489 H 330.03 -3.06737 -3.44544 0
M  V30 3490 H 328.273 -2.93598 -3.19348 0
M  V30 3491 H 328.944 -2.70635 -4.81103 0
M  V30 3492 H 331.42 -0.934075 -4.0548 0
M  V30 3493 H 330.296 -0.795361 -5.43107 0
M  V30 3494 H 330.557 0.588834 -4.38161 0
M  V30 3495 N 329.616 1.39756 -0.72842 0
M  V30 3496 C 330.564 2.32485 -0.0731849 0
M  V30 3497 C 331.558 1.52717 0.733063 0
M  V30 3498 O 332.764 1.68428 0.634988 0
M  V30 3499 H 329.139 0.751984 -0.00486469 0
M  V30 3500 H 331.11 2.85382 -0.871761 0
M  V30 3501 C 329.859 3.37773 0.824908 0
M  V30 3502 H 329.182 3.99227 0.213915 0
M  V30 3503 H 330.622 4.05121 1.25111 0
M  V30 3504 C 329.081 2.74287 1.95622 0
M  V30 3505 O 329.611 2.61618 3.04826 0
M  V30 3506 N 327.817 2.32475 1.74367 0
M  V30 3507 H 327.364 2.4298 0.855494 0
M  V30 3508 H 327.322 1.90337 2.50238 0
M  V30 3509 N 331.094 0.475555 1.50254 0
M  V30 3510 C 332.024 -0.30611 2.31485 0
M  V30 3511 C 333.005 -0.986228 1.38591 0
M  V30 3512 O 334.19 -0.982541 1.67511 0
M  V30 3513 C 331.32 -1.38588 3.1845 0
M  V30 3514 C 330.274 -0.827115 4.19932 0
M  V30 3515 C 329.6 -2.00551 4.95665 0
M  V30 3516 C 330.9 0.16463 5.2204 0
M  V30 3517 H 332.594 0.371866 2.97082 0
M  V30 3518 H 330.14 0.180282 1.42867 0
M  V30 3519 H 332.093 -1.94023 3.74076 0
M  V30 3520 H 330.817 -2.09269 2.50747 0
M  V30 3521 H 329.476 -0.294702 3.65414 0
M  V30 3522 H 329.124 -2.6994 4.2443 0
M  V30 3523 H 328.824 -1.63784 5.64313 0
M  V30 3524 H 330.348 -2.56468 5.54127 0
M  V30 3525 H 331.762 -0.300699 5.72511 0
M  V30 3526 H 330.159 0.446813 5.98434 0
M  V30 3527 H 331.229 1.08905 4.72512 0
M  V30 3528 N 332.573 -1.56217 0.208337 0
M  V30 3529 C 333.821 -1.97558 -0.426076 0
M  V30 3530 C 334.142 -1.09683 -1.61229 0
M  V30 3531 O 333.412 -0.170956 -1.95153 0
M  V30 3532 H 331.992 -0.729575 -0.160405 0
M  V30 3533 H 334.654 -1.92606 0.298155 0
M  V30 3534 H 333.75 -3.02672 -0.761312 0
M  V30 3535 N 334.051 0.0651679 -1.57465 0
M  V30 3536 C 334.984 1.10876 -1.99453 0
M  V30 3537 C 335.962 1.37205 -0.872555 0
M  V30 3538 O 337.146 1.50468 -1.13542 0
M  V30 3539 C 334.273 2.45167 -2.3369 0
M  V30 3540 C 333.319 2.3493 -3.55964 0
M  V30 3541 S 334.152 1.73708 -5.06543 0
M  V30 3542 C 335.308 3.09563 -5.43987 0
M  V30 3543 H 335.541 0.750967 -2.87659 0
M  V30 3544 H 333.074 0.273933 -1.51951 0
M  V30 3545 H 335.032 3.22412 -2.54088 0
M  V30 3546 H 333.693 2.78105 -1.46001 0
M  V30 3547 H 332.886 3.3398 -3.77457 0
M  V30 3548 H 332.488 1.65823 -3.3523 0
M  V30 3549 H 334.78 4.05882 -5.42463 0
M  V30 3550 H 335.723 2.92843 -6.44708 0
M  V30 3551 H 336.131 3.10474 -4.71451 0
M  V30 3552 N 335.529 1.53961 0.336706 0
M  V30 3553 C 336.778 1.70751 1.07363 0
M  V30 3554 C 337.091 0.481061 1.89592 0
M  V30 3555 O 338.297 0.530046 2.66276 0
M  V30 3556 C 336.753 3.01965 1.95818 0
M  V30 3557 C 336.361 4.31971 1.18764 0
M  V30 3558 C 338.105 3.28121 2.69327 0
M  V30 3559 C 336.012 5.54255 2.06289 0
M  V30 3560 H 334.942 0.636292 0.404535 0
M  V30 3561 H 337.593 1.80459 0.332681 0
M  V30 3562 H 335.975 2.86132 2.7376 0
M  V30 3563 H 337.149 4.5853 0.456849 0
M  V30 3564 H 335.464 4.12481 0.569946 0
M  V30 3565 H 338.061 4.16673 3.35094 0
M  V30 3566 H 338.404 2.45426 3.36261 0
M  V30 3567 H 338.937 3.44762 1.98454 0
M  V30 3568 H 335.676 6.39513 1.43885 0
M  V30 3569 H 335.196 5.31935 2.77138 0
M  V30 3570 H 336.875 5.90159 2.65182 0
M  V30 3571 N 337.007 -0.598083 1.45811 0
M  V30 3572 C 338.253 -1.35679 1.51535 0
M  V30 3573 C 338.608 -1.91745 0.15864 0
M  V30 3574 O 337.901 -1.72654 -0.830724 0
M  V30 3575 C 338.095 -2.51669 2.53766 0
M  V30 3576 C 337.924 -2.06963 3.99245 0
M  V30 3577 C 336.694 -1.92693 4.67116 0
M  V30 3578 C 338.892 -1.63855 4.875 0
M  V30 3579 N 336.874 -1.41897 5.97276 0
M  V30 3580 C 338.245 -1.24541 6.07363 0
M  V30 3581 C 340.3 -1.51533 4.74281 0
M  V30 3582 C 339.003 -0.741354 7.15469 0
M  V30 3583 C 341.029 -1.0253 5.82444 0
M  V30 3584 C 340.391 -0.641869 7.01469 0
M  V30 3585 H 336.49 -0.490042 0.609412 0
M  V30 3586 H 339.074 -0.682687 1.82339 0
M  V30 3587 H 337.245 -3.16663 2.24898 0
M  V30 3588 H 338.977 -3.18578 2.4958 0
M  V30 3589 H 335.732 -2.1417 4.22408 0
M  V30 3590 H 336.156 -1.18704 6.66512 0
M  V30 3591 H 340.798 -1.798 3.82664 0
M  V30 3592 H 338.516 -0.446243 8.06867 0
M  V30 3593 H 342.102 -0.934088 5.74253 0
M  V30 3594 H 340.982 -0.268531 7.8374 0
M  V30 3595 N 338.485 -1.33259 -0.841409 0
M  V30 3596 C 339.433 -1.23279 -1.97244 0
M  V30 3597 C 340.427 -0.134706 -1.68864 0
M  V30 3598 O 341.633 -0.298501 -1.77508 0
M  V30 3599 H 338.008 -0.382497 -0.647457 0
M  V30 3600 H 339.979 -2.18906 -2.02787 0
M  V30 3601 C 338.728 -0.986268 -3.33419 0
M  V30 3602 H 338.051 -1.82347 -3.55794 0
M  V30 3603 H 339.491 -0.956728 -4.13065 0
M  V30 3604 C 337.95 0.310842 -3.35463 0
M  V30 3605 O 338.48 1.31838 -3.79449 0
M  V30 3606 N 336.686 0.337485 -2.88634 0
M  V30 3607 H 336.233 -0.482967 -2.53032 0
M  V30 3608 H 336.191 1.20518 -2.90384 0
M  V30 3609 N 339.963 1.05934 -1.16686 0
M  V30 3610 C 341.211 1.78447 -0.948744 0
M  V30 3611 C 341.532 1.87813 0.524523 0
M  V30 3612 O 340.802 1.38945 1.38098 0
M  V30 3613 H 339.382 0.660971 -0.348033 0
M  V30 3614 H 342.044 1.27947 -1.47022 0
M  V30 3615 H 341.14 2.80394 -1.37061 0
M  V30 3616 N 341.441 0.965919 1.2453 0
M  V30 3617 C 342.666 0.643971 1.97149 0
M  V30 3618 C 343.091 -0.779487 1.71189 0
M  V30 3619 O 342.449 -1.5288 0.974553 0
M  V30 3620 C 342.497 0.922557 3.48599 0
M  V30 3621 O 341.601 0.00707672 4.12399 0
M  V30 3622 H 340.942 0.243647 0.617683 0
M  V30 3623 H 343.472 1.29558 1.58353 0
M  V30 3624 H 343.482 0.853373 3.98976 0
M  V30 3625 H 342.157 1.95996 3.66822 0
M  V30 3626 H 340.734 0.12943 3.72675 0
M  V30 3627 N 342.919 -1.39368 0.735821 0
M  V30 3628 C 343.882 -2.2896 0.104874 0
M  V30 3629 C 344.882 -1.46347 -0.666274 0
M  V30 3630 O 346.072 -1.67014 -0.49517 0
M  V30 3631 C 343.204 -3.29857 -0.860656 0
M  V30 3632 H 344.397 -2.86259 0.894205 0
M  V30 3633 H 341.95 -1.48029 0.501704 0
M  V30 3634 H 342.685 -2.77615 -1.67631 0
M  V30 3635 H 342.47 -3.9087 -0.310327 0
M  V30 3636 H 343.96 -3.96893 -1.29867 0
M  V30 3637 N 344.397 -0.483516 -1.5 0
M  V30 3638 C 345.644 0.0671597 -2.02389 0
M  V30 3639 C 345.972 1.38597 -1.36459 0
M  V30 3640 O 345.227 1.89634 -0.483458 0
M  V30 3641 C 345.526 0.286226 -3.56252 0
M  V30 3642 C 345.192 -0.952416 -4.40726 0
M  V30 3643 C 343.854 -1.29199 -4.63531 0
M  V30 3644 C 346.206 -1.77655 -4.89988 0
M  V30 3645 C 343.534 -2.45553 -5.32842 0
M  V30 3646 C 345.886 -2.93147 -5.60578 0
M  V30 3647 C 344.55 -3.27505 -5.81633 0
M  V30 3648 H 343.82 0.0245755 -0.740592 0
M  V30 3649 H 346.467 -0.640124 -1.80485 0
M  V30 3650 H 344.772 1.07587 -3.76739 0
M  V30 3651 H 346.469 0.726473 -3.94365 0
M  V30 3652 H 343.059 -0.677881 -4.23205 0
M  V30 3653 H 347.243 -1.52737 -4.72213 0
M  V30 3654 H 342.499 -2.72431 -5.47349 0
M  V30 3655 H 346.673 -3.57344 -5.97727 0
M  V30 3656 H 344.3 -4.1777 -6.35116 0
M  V30 3657 N 345.875 1.56104 -0.216619 0
M  V30 3658 C 347.121 1.98466 0.417033 0
M  V30 3659 C 347.454 1.10403 1.59765 0
M  V30 3660 O 346.729 0.160632 1.93836 0
M  V30 3661 C 347.012 3.49769 0.85637 0
M  V30 3662 C 346.865 4.48606 -0.327546 0
M  V30 3663 C 348.184 4.05339 1.7143 0
M  V30 3664 H 345.303 0.721551 0.150112 0
M  V30 3665 H 347.945 1.87423 -0.311864 0
M  V30 3666 H 346.095 3.5931 1.47745 0
M  V30 3667 H 347.767 4.5108 -0.965618 0
M  V30 3668 H 346.01 4.22682 -0.975805 0
M  V30 3669 H 346.681 5.51995 0.0227149 0
M  V30 3670 H 349.157 3.98712 1.19031 0
M  V30 3671 H 348.033 5.11533 1.99061 0
M  V30 3672 H 348.294 3.51918 2.67593 0
M  V30 3673 N 347.353 -0.0568162 1.57498 0
M  V30 3674 C 348.316 -1.05038 2.03715 0
M  V30 3675 C 349.316 -1.30709 0.936577 0
M  V30 3676 O 350.506 -1.26178 1.20103 0
M  V30 3677 C 347.638 -2.39034 2.43055 0
M  V30 3678 H 348.831 -0.651715 2.92733 0
M  V30 3679 H 346.384 -0.302947 1.53336 0
M  V30 3680 H 347.119 -2.83703 1.57108 0
M  V30 3681 H 346.904 -2.21739 3.2338 0
M  V30 3682 H 348.394 -3.10421 2.79336 0
M  V30 3683 N 348.832 -1.54138 -0.328536 0
M  V30 3684 C 350.248 -1.44736 -0.672574 0
M  V30 3685 C 350.448 -0.616217 -1.91846 0
M  V30 3686 O 349.504 -0.113067 -2.52247 0
M  V30 3687 C 350.817 -2.884 -0.851217 0
M  V30 3688 C 352.365 -2.98271 -0.948877 0
M  V30 3689 C 352.84 -4.43074 -1.15973 0
M  V30 3690 N 354.331 -4.46665 -1.22658 0
M  V30 3691 C 355.066 -5.55857 -1.40751 0
M  V30 3692 N 354.562 -6.75026 -1.5592 0
M  V30 3693 N 356.355 -5.43495 -1.4342 0
M  V30 3694 H 348.506 -2.06661 0.490421 0
M  V30 3695 H 350.769 -0.934812 0.157579 0
M  V30 3696 H 350.475 -3.51699 -0.00704236 0
M  V30 3697 H 350.349 -3.34225 -1.74853 0
M  V30 3698 H 352.736 -2.35102 -1.78356 0
M  V30 3699 H 352.817 -2.55785 -0.0281435 0
M  V30 3700 H 352.461 -5.06827 -0.329915 0
M  V30 3701 H 352.391 -4.83165 -2.09426 0
M  V30 3702 H 354.882 -3.60797 -1.124 0
M  V30 3703 H 355.195 -7.54004 -1.69404 0
M  V30 3704 H 353.54 -6.77944 -1.53027 0
M  V30 3705 H 356.731 -4.49349 -1.31162 0
M  V30 3706 H 356.904 -6.28649 -1.57178 0
M  V30 3707 N 350.31 0.590341 -1.46126 0
M  V30 3708 C 351.242 1.71427 -1.52136 0
M  V30 3709 C 352.255 1.57542 -0.41042 0
M  V30 3710 O 353.444 1.65106 -0.678389 0
M  V30 3711 C 350.544 3.09605 -1.37834 0
M  V30 3712 C 349.717 3.49566 -2.62912 0
M  V30 3713 C 348.776 4.66773 -2.42918 0
M  V30 3714 O 347.802 4.73019 -3.1661 0
M  V30 3715 N 349.004 5.61161 -1.4859 0
M  V30 3716 H 351.769 1.66728 -2.49042 0
M  V30 3717 H 349.33 0.776113 -1.42085 0
M  V30 3718 H 351.322 3.85796 -1.22243 0
M  V30 3719 H 349.892 3.08714 -0.491393 0
M  V30 3720 H 349.112 2.63158 -2.93499 0
M  V30 3721 H 350.4 3.73028 -3.46017 0
M  V30 3722 H 349.798 5.58844 -0.87808 0
M  V30 3723 H 348.355 6.36814 -1.38965 0
M  V30 3724 N 351.788 1.33704 0.83433 0
M  V30 3725 C 352.751 1.24244 1.92603 0
M  V30 3726 C 353.751 0.160383 1.59998 0
M  V30 3727 O 354.941 0.412228 1.69252 0
M  V30 3728 C 352.073 0.91555 3.28376 0
M  V30 3729 H 353.266 2.21287 2.02416 0
M  V30 3730 H 350.819 1.17827 1.02696 0
M  V30 3731 H 351.554 -0.0521886 3.24258 0
M  V30 3732 H 351.339 1.69811 3.53422 0
M  V30 3733 H 352.829 0.874231 4.08347 0
M  V30 3734 N 353.266 -1.05314 1.17247 0
M  V30 3735 C 354.514 -1.77941 0.958194 0
M  V30 3736 C 354.835 -1.88089 -0.514556 0
M  V30 3737 O 354.105 -1.39676 -1.37359 0
M  V30 3738 H 352.685 -0.659116 0.351533 0
M  V30 3739 H 355.347 -1.27166 1.47699 0
M  V30 3740 H 354.443 -2.79663 1.38546 0
M  V30 3741 N 354.744 -0.972509 -1.24016 0
M  V30 3742 C 355.972 -0.654803 -1.96265 0
M  V30 3743 C 356.387 0.776708 -1.72083 0
M  V30 3744 O 355.744 1.52171 -1.00748 0
M  V30 3745 C 355.795 -0.92592 -3.49441 0
M  V30 3746 O 355.516 -2.30116 -3.72798 0
M  V30 3747 C 357.017 -0.623068 -4.38899 0
M  V30 3748 H 354.237 -0.243907 -0.6251 0
M  V30 3749 H 356.781 -1.30175 -1.57717 0
M  V30 3750 H 354.936 -0.325108 -3.86033 0
M  V30 3751 H 355.35 -2.38483 -4.67147 0
M  V30 3752 H 356.824 -0.863189 -5.45209 0
M  V30 3753 H 357.301 0.442754 -4.36963 0
M  V30 3754 H 357.907 -1.204 -4.07902 0
M  V30 3755 N 356.222 1.38976 -0.743202 0
M  V30 3756 C 357.633 1.83123 -0.363732 0
M  V30 3757 C 357.984 1.6205 1.10609 0
M  V30 3758 O 357.109 1.11606 1.854 0
M  V30 3759 C 357.704 3.32439 -0.653408 0
M  V30 3760 C 356.263 3.74974 -0.327338 0
M  V30 3761 C 355.41 2.61878 -0.911875 0
M  V30 3762 H 358.361 1.27852 -0.940191 0
M  V30 3763 H 358.382 3.80432 0.0720031 0
M  V30 3764 H 357.894 3.47745 -1.72323 0
M  V30 3765 H 355.995 3.65252 0.736314 0
M  V30 3766 H 356.108 4.72106 -0.815631 0
M  V30 3767 H 354.472 2.52448 -0.337944 0
M  V30 3768 H 355.255 2.79987 -1.98651 0
M  V30 3769 N 357.7 0.491464 1.49741 0
M  V30 3770 C 358.949 -0.0582189 2.01616 0
M  V30 3771 C 359.262 -1.38927 1.3769 0
M  V30 3772 O 360.468 -2.02509 1.80838 0
M  V30 3773 C 358.924 -0.154235 3.59569 0
M  V30 3774 C 358.532 1.1696 4.32463 0
M  V30 3775 C 360.276 -0.65479 4.1942 0
M  V30 3776 C 358.183 1.03627 5.8225 0
M  V30 3777 H 357.113 -0.0255317 0.753568 0
M  V30 3778 H 359.764 0.629445 1.72367 0
M  V30 3779 H 358.146 -0.906138 3.85493 0
M  V30 3780 H 359.32 1.93405 4.18248 0
M  V30 3781 H 357.635 1.60285 3.84315 0
M  V30 3782 H 360.232 -0.771903 5.29099 0
M  V30 3783 H 360.575 -1.65127 3.8215 0
M  V30 3784 H 361.108 0.040304 3.9778 0
M  V30 3785 H 357.847 2.00672 6.24028 0
M  V30 3786 H 357.367 0.312546 5.98985 0
M  V30 3787 H 359.046 0.711114 6.4308 0
M  V30 3788 N 359.178 -1.55987 0.224894 0
M  V30 3789 C 360.455 -1.90232 -0.455083 0
M  V30 3790 C 360.835 -1.14269 -1.77499 0
M  V30 3791 O 360.183 -0.253079 -2.27094 0
M  V30 3792 C 360.393 -3.42993 -0.644758 0
M  V30 3793 C 361.741 -4.13821 -0.950669 0
M  V30 3794 O 362.765 -3.4861 -0.731423 0
M  V30 3795 O 361.624 -5.29128 -1.36695 0
M  V30 3796 H 358.718 -0.79108 -0.241084 0
M  V30 3797 H 361.264 -1.67581 0.267327 0
M  V30 3798 H 360.036 -3.90252 0.28613 0
M  V30 3799 H 359.659 -3.71434 -1.41853 0
M  V30 3800 N 360.656 0.0484629 -1.57525 0
M  V30 3801 C 361.902 0.744226 -1.88651 0
M  V30 3802 C 362.235 1.76029 -0.820212 0
M  V30 3803 O 361.51 1.93782 0.166985 0
M  V30 3804 C 361.793 1.43128 -3.30434 0
M  V30 3805 C 361.646 0.43005 -4.47739 0
M  V30 3806 C 362.965 2.37031 -3.70816 0
M  V30 3807 H 360.084 0.269089 -0.68612 0
M  V30 3808 H 362.726 0.00713532 -1.89999 0
M  V30 3809 H 360.876 2.05956 -3.29415 0
M  V30 3810 H 362.548 -0.194816 -4.60888 0
M  V30 3811 H 360.791 -0.252522 -4.33064 0
M  V30 3812 H 361.462 0.948874 -5.43783 0
M  V30 3813 H 363.938 1.84263 -3.73077 0
M  V30 3814 H 362.814 2.82094 -4.70865 0
M  V30 3815 H 363.075 3.22864 -3.02012 0
M  V30 3816 N 362.134 1.5431 0.320358 0
M  V30 3817 C 363.38 1.72924 1.05949 0
M  V30 3818 C 363.713 0.503185 1.87568 0
M  V30 3819 O 362.988 -0.499839 1.87968 0
M  V30 3820 C 363.271 3.00676 1.98156 0
M  V30 3821 C 363.124 4.3354 1.19845 0
M  V30 3822 C 364.443 3.24198 2.9763 0
M  V30 3823 H 361.562 0.629195 0.383774 0
M  V30 3824 H 364.204 1.87008 0.335854 0
M  V30 3825 H 362.354 2.888 2.59859 0
M  V30 3826 H 364.026 4.57305 0.605773 0
M  V30 3827 H 362.269 4.309 0.500784 0
M  V30 3828 H 362.94 5.19156 1.87567 0
M  V30 3829 H 365.416 3.35557 2.4605 0
M  V30 3830 H 364.292 4.14938 3.59329 0
M  V30 3831 H 364.553 2.41577 3.7026 0
M  V30 3832 N 363.613 -0.582584 1.46437 0
M  V30 3833 C 364.859 -1.34064 1.52965 0
M  V30 3834 C 365.214 -1.91566 0.178968 0
M  V30 3835 O 364.507 -1.73526 -0.812365 0
M  V30 3836 C 364.701 -2.48964 2.56421 0
M  V30 3837 C 364.53 -2.02717 4.01417 0
M  V30 3838 C 363.3 -1.87728 4.69134 0
M  V30 3839 C 365.498 -1.58675 4.8921 0
M  V30 3840 N 363.48 -1.35554 5.98747 0
M  V30 3841 C 364.851 -1.18093 6.08649 0
M  V30 3842 C 366.906 -1.46494 4.75861 0
M  V30 3843 C 365.609 -0.665427 7.16215 0
M  V30 3844 C 367.635 -0.96347 5.83499 0
M  V30 3845 C 366.997 -0.567432 7.02111 0
M  V30 3846 H 363.096 -0.483551 0.614575 0
M  V30 3847 H 365.68 -0.663309 1.83053 0
M  V30 3848 H 363.851 -3.1426 2.28244 0
M  V30 3849 H 365.583 -3.15913 2.52944 0
M  V30 3850 H 362.338 -2.09678 4.24655 0
M  V30 3851 H 362.762 -1.11628 6.67734 0
M  V30 3852 H 367.404 -1.75731 3.8455 0
M  V30 3853 H 365.122 -0.360639 8.07295 0
M  V30 3854 H 368.708 -0.873129 5.75211 0
M  V30 3855 H 367.588 -0.185389 7.83981 0
M  V30 3856 N 365.091 -1.34144 -0.827227 0
M  V30 3857 C 366.502 -1.23557 -1.39966 0
M  V30 3858 C 366.853 0.140731 -1.95695 0
M  V30 3859 O 365.978 1.04087 -1.89723 0
M  V30 3860 C 366.573 -2.23708 -2.54441 0
M  V30 3861 C 365.132 -2.16924 -3.07605 0
M  V30 3862 C 364.279 -2.10549 -1.80456 0
M  V30 3863 H 367.23 -1.45573 -0.631991 0
M  V30 3864 H 367.251 -1.85157 -3.32411 0
M  V30 3865 H 366.763 -3.23866 -2.13851 0
M  V30 3866 H 364.864 -1.20107 -3.52711 0
M  V30 3867 H 364.977 -3.07988 -3.66988 0
M  V30 3868 H 363.341 -1.56203 -2.01178 0
M  V30 3869 H 364.124 -3.12535 -1.42046 0
M  V30 3870 N 366.569 1.04691 -1.17803 0
M  V30 3871 C 367.516 2.12557 -0.899343 0
M  V30 3872 C 368.486 1.65339 0.158771 0
M  V30 3873 O 369.671 1.90789 0.0204797 0
M  V30 3874 C 366.811 3.42481 -0.424315 0
M  V30 3875 C 365.924 4.03346 -1.54713 0
M  V30 3876 C 365.059 5.21208 -1.02546 0
M  V30 3877 C 364.098 5.74089 -2.12339 0
M  V30 3878 N 363.235 6.83247 -1.61612 0
M  V30 3879 H 368.075 2.35734 -1.823 0
M  V30 3880 H 365.612 1.1564 -0.909159 0
M  V30 3881 H 367.57 4.16996 -0.130421 0
M  V30 3882 H 366.2 3.19471 0.462377 0
M  V30 3883 H 365.252 3.2622 -1.95664 0
M  V30 3884 H 366.564 4.38628 -2.37501 0
M  V30 3885 H 365.718 6.02812 -0.685718 0
M  V30 3886 H 364.457 4.87414 -0.167084 0
M  V30 3887 H 363.462 4.91111 -2.47165 0
M  V30 3888 H 364.687 6.0993 -2.98601 0
M  V30 3889 H 362.633 6.5134 -0.780533 0
M  V30 3890 H 362.55 7.17559 -2.38003 0
M  V30 3891 H 363.818 7.68491 -1.30545 0
M  V30 3892 N 368.047 0.979072 1.23499 0
M  V30 3893 C 368.957 0.526431 2.28617 0
M  V30 3894 C 369.973 -0.418126 1.68901 0
M  V30 3895 O 371.149 -0.288372 1.99325 0
M  V30 3896 C 368.214 -0.165235 3.46306 0
M  V30 3897 C 367.275 0.82056 4.21385 0
M  V30 3898 C 366.508 0.161807 5.33455 0
M  V30 3899 O 366.731 -1.04742 5.60701 0
M  V30 3900 O 365.665 0.859708 5.95729 0
M  V30 3901 H 369.491 1.4006 2.69475 0
M  V30 3902 H 367.076 0.746643 1.29405 0
M  V30 3903 H 368.958 -0.553287 4.17752 0
M  V30 3904 H 367.633 -1.01419 3.07402 0
M  V30 3905 H 366.54 1.25929 3.52268 0
M  V30 3906 H 367.873 1.63828 4.64135 0
M  V30 3907 N 369.525 -1.3858 0.750561 0
M  V30 3908 C 370.773 -1.99789 0.30477 0
M  V30 3909 C 371.094 -1.59874 -1.11649 0
M  V30 3910 O 370.364 -0.85417 -1.76297 0
M  V30 3911 H 368.944 -0.738902 0.109694 0
M  V30 3912 H 371.606 -1.69391 0.963983 0
M  V30 3913 H 370.702 -3.09952 0.365499 0
M  V30 3914 N 371.003 -0.499398 -1.49478 0
M  V30 3915 C 372.251 0.0455996 -2.02049 0
M  V30 3916 C 372.572 1.37633 -1.38138 0
M  V30 3917 O 371.842 1.8842 -0.536166 0
M  V30 3918 H 370.422 0.0198416 -0.746736 0
M  V30 3919 H 373.084 -0.656274 -1.83519 0
M  V30 3920 H 372.18 0.176445 -3.11601 0
M  V30 3921 N 372.481 1.55866 -0.233164 0
M  V30 3922 C 373.73 1.97779 0.39579 0
M  V30 3923 C 374.043 1.12419 1.60066 0
M  V30 3924 O 375.249 1.44283 2.29988 0
M  V30 3925 C 373.705 3.5188 0.755556 0
M  V30 3926 C 373.313 4.45959 -0.427152 0
M  V30 3927 C 375.057 4.02479 1.34946 0
M  V30 3928 C 372.964 5.91383 -0.0443043 0
M  V30 3929 H 371.894 0.738592 0.15165 0
M  V30 3930 H 374.545 1.80486 -0.331212 0
M  V30 3931 H 372.927 3.64816 1.5403 0
M  V30 3932 H 374.101 4.44776 -1.20462 0
M  V30 3933 H 372.416 4.05765 -0.935068 0
M  V30 3934 H 375.013 5.08637 1.649 0
M  V30 3935 H 375.356 3.49014 2.26925 0
M  V30 3936 H 375.889 3.92813 0.62791 0
M  V30 3937 H 372.628 6.48857 -0.930874 0
M  V30 3938 H 372.148 5.95734 0.697238 0
M  V30 3939 H 373.827 6.45893 0.378334 0
M  V30 3940 N 373.959 -0.0401083 1.57549 0
M  V30 3941 C 375.206 -0.733125 1.88763 0
M  V30 3942 C 375.534 -1.75946 0.829058 0
M  V30 3943 O 374.789 -1.94949 -0.171323 0
M  V30 3944 C 375.088 -1.44902 3.26708 0
M  V30 3945 C 374.754 -0.559707 4.47413 0
M  V30 3946 C 373.416 -0.314731 4.8017 0
M  V30 3947 C 375.768 0.0549743 5.21171 0
M  V30 3948 C 373.096 0.553886 5.8408 0
M  V30 3949 C 375.448 0.911229 6.26003 0
M  V30 3950 C 374.112 1.16577 6.57241 0
M  V30 3951 H 373.382 -0.268269 0.690733 0
M  V30 3952 H 376.029 0.00679408 1.91499 0
M  V30 3953 H 374.334 -2.26197 3.1991 0
M  V30 3954 H 376.031 -1.99058 3.48105 0
M  V30 3955 H 372.621 -0.760793 4.21794 0
M  V30 3956 H 376.805 -0.121344 4.96152 0
M  V30 3957 H 372.061 0.759518 6.06664 0
M  V30 3958 H 376.235 1.3941 6.82303 0
M  V30 3959 H 373.862 1.84058 7.37582 0
M  V30 3960 N 375.437 -1.54477 -0.31217 0
M  V30 3961 C 376.683 -1.74417 -1.04644 0
M  V30 3962 C 377.038 -0.517641 -1.85306 0
M  V30 3963 O 376.331 0.489973 -1.85229 0
M  V30 3964 C 376.525 -2.967 -1.99258 0
M  V30 3965 C 376.354 -4.31128 -1.27901 0
M  V30 3966 C 375.124 -4.95087 -1.01079 0
M  V30 3967 C 377.322 -5.09662 -0.689119 0
M  V30 3968 N 375.304 -6.13322 -0.266323 0
M  V30 3969 C 376.675 -6.19952 -0.0768523 0
M  V30 3970 C 378.73 -4.94355 -0.593061 0
M  V30 3971 C 377.433 -7.16604 0.622165 0
M  V30 3972 C 379.459 -5.91328 0.0922792 0
M  V30 3973 C 378.821 -7.00978 0.693443 0
M  V30 3974 H 374.92 -0.69094 -0.366231 0
M  V30 3975 H 377.504 -1.91946 -0.326319 0
M  V30 3976 H 375.675 -2.80616 -2.68532 0
M  V30 3977 H 377.407 -3.05216 -2.65755 0
M  V30 3978 H 374.162 -4.55235 -1.30607 0
M  V30 3979 H 374.586 -6.76937 0.0920973 0
M  V30 3980 H 379.228 -4.09719 -1.04355 0
M  V30 3981 H 376.946 -8.0079 1.08445 0
M  V30 3982 H 380.532 -5.81562 0.166396 0
M  V30 3983 H 379.412 -7.74725 1.21533 0
M  V30 3984 N 376.915 0.57481 -1.46744 0
M  V30 3985 C 377.848 1.69827 -1.52427 0
M  V30 3986 C 378.826 1.58151 -0.377744 0
M  V30 3987 O 380.01 1.79257 -0.58303 0
M  V30 3988 C 377.137 3.07943 -1.41027 0
M  V30 3989 C 376.183 3.38116 -2.59961 0
M  V30 3990 S 377.016 3.29313 -4.22272 0
M  V30 3991 C 378.172 4.69953 -4.13394 0
M  V30 3992 H 378.405 1.64748 -2.47478 0
M  V30 3993 H 375.938 0.754203 -1.34726 0
M  V30 3994 H 377.896 3.87619 -1.35137 0
M  V30 3995 H 376.557 3.10504 -0.473909 0
M  V30 3996 H 375.75 4.38762 -2.47999 0
M  V30 3997 H 375.352 2.66024 -2.62882 0
M  V30 3998 H 377.644 5.60517 -3.80562 0
M  V30 3999 H 378.587 4.86972 -5.14066 0
M  V30 4000 H 378.995 4.47174 -3.44522 0
M  V30 4001 N 378.394 1.34581 0.820102 0
M  V30 4002 C 379.671 1.17675 1.56244 0
M  V30 4003 C 380.051 -0.249541 2.0962 0
M  V30 4004 O 379.399 -1.25125 1.91196 0
M  V30 4005 C 379.609 2.23364 2.6816 0
M  V30 4006 C 380.957 2.58485 3.36854 0
M  V30 4007 O 381.981 2.22175 2.78418 0
M  V30 4008 O 380.84 3.20868 4.42386 0
M  V30 4009 H 377.934 0.456333 0.689702 0
M  V30 4010 H 380.48 1.46222 0.861231 0
M  V30 4011 H 379.252 3.19087 2.26493 0
M  V30 4012 H 378.875 1.96009 3.45928 0
M  V30 4013 N 379.872 -1.04064 1.18357 0
M  V30 4014 C 381.097 -1.81454 1.00445 0
M  V30 4015 C 381.522 -1.82823 -0.442423 0
M  V30 4016 O 380.88 -1.24555 -1.31741 0
M  V30 4017 C 380.928 -3.24925 1.56384 0
M  V30 4018 O 380.032 -4.04856 0.785209 0
M  V30 4019 H 379.373 -0.560604 0.355835 0
M  V30 4020 H 381.903 -1.31059 1.57114 0
M  V30 4021 H 381.913 -3.75702 1.59097 0
M  V30 4022 H 380.588 -3.23244 2.61699 0
M  V30 4023 H 379.165 -3.63537 0.830399 0
M  V30 4024 N 381.35 -0.985608 -1.22978 0
M  V30 4025 C 382.28 -0.549649 -2.26939 0
M  V30 4026 C 383.261 0.419803 -1.64838 0
M  V30 4027 O 384.446 0.31203 -1.91677 0
M  V30 4028 C 381.576 0.143652 -3.47003 0
M  V30 4029 C 380.53 -0.743606 -4.21491 0
M  V30 4030 C 379.856 0.0822027 -5.34637 0
M  V30 4031 C 381.156 -2.03694 -4.80943 0
M  V30 4032 H 382.85 -1.41862 -2.63658 0
M  V30 4033 H 380.396 -0.683571 -1.26741 0
M  V30 4034 H 382.349 0.459985 -4.18882 0
M  V30 4035 H 381.073 1.04711 -3.09359 0
M  V30 4036 H 379.732 -1.04347 -3.51436 0
M  V30 4037 H 379.38 0.986359 -4.93234 0
M  V30 4038 H 379.08 -0.508377 -5.85397 0
M  V30 4039 H 380.604 0.392797 -6.09335 0
M  V30 4040 H 382.018 -1.78504 -5.44802 0
M  V30 4041 H 380.415 -2.57573 -5.42011 0
M  V30 4042 H 381.485 -2.72042 -4.01399 0
M  V30 4043 N 382.828 1.3818 -0.7579 0
M  V30 4044 C 383.791 2.28764 -0.141286 0
M  V30 4045 C 384.791 1.47388 0.642907 0
M  V30 4046 O 385.981 1.67781 0.468536 0
M  V30 4047 C 383.113 3.31184 0.808069 0
M  V30 4048 H 384.306 2.848 -0.939633 0
M  V30 4049 H 381.859 1.47212 -0.525191 0
M  V30 4050 H 382.594 2.80247 1.63193 0
M  V30 4051 H 382.379 3.91314 0.248104 0
M  V30 4052 H 383.869 3.98909 1.23536 0
M  V30 4053 N 384.306 0.507319 1.49211 0
M  V30 4054 C 385.555 -0.0368315 2.01666 0
M  V30 4055 C 385.868 -1.37459 1.39156 0
M  V30 4056 O 387.074 -2.00579 1.82976 0
M  V30 4057 C 385.53 -0.116089 3.59713 0
M  V30 4058 C 385.138 1.2154 4.31198 0
M  V30 4059 C 386.882 -0.610268 4.2009 0
M  V30 4060 C 384.789 1.09796 5.81119 0
M  V30 4061 H 383.719 -0.0175376 0.753796 0
M  V30 4062 H 386.37 0.647691 1.71689 0
M  V30 4063 H 384.752 -0.8652 3.86433 0
M  V30 4064 H 385.926 1.9783 4.16173 0
M  V30 4065 H 384.241 1.64352 3.82593 0
M  V30 4066 H 386.838 -0.715742 5.29888 0
M  V30 4067 H 387.181 -1.61064 3.8388 0
M  V30 4068 H 387.714 0.0824916 3.97714 0
M  V30 4069 H 384.453 2.0728 6.21864 0
M  V30 4070 H 383.973 0.376058 5.9862 0
M  V30 4071 H 385.652 0.779281 6.4229 0
M  V30 4072 N 385.784 -1.5574 0.241426 0
M  V30 4073 C 387.195 -1.84842 -0.262755 0
M  V30 4074 C 387.546 -1.16317 -1.58003 0
M  V30 4075 O 386.671 -0.439653 -2.11887 0
M  V30 4076 C 387.266 -3.35332 -0.483523 0
M  V30 4077 C 385.825 -3.6468 -0.931977 0
M  V30 4078 C 384.972 -2.77299 -0.0061151 0
M  V30 4079 H 387.923 -1.51761 0.464129 0
M  V30 4080 H 387.944 -3.56615 -1.32688 0
M  V30 4081 H 387.456 -3.85178 0.47537 0
M  V30 4082 H 385.557 -3.20307 -1.90353 0
M  V30 4083 H 385.67 -4.72498 -0.792628 0
M  V30 4084 H 384.034 -2.49408 -0.516503 0
M  V30 4085 H 384.817 -3.2995 0.948052 0
M  V30 4086 N 387.262 0.0317525 -1.57568 0
M  V30 4087 C 388.225 1.01783 -2.0536 0
M  V30 4088 C 389.225 1.29203 -0.957253 0
M  V30 4089 O 390.415 1.24251 -1.22095 0
M  V30 4090 C 387.547 2.35137 -2.46827 0
M  V30 4091 H 388.74 0.605062 -2.93733 0
M  V30 4092 H 386.293 0.278514 -1.53799 0
M  V30 4093 H 387.028 2.81168 -1.61602 0
M  V30 4094 H 386.813 2.16566 -3.26866 0
M  V30 4095 H 388.303 3.05938 -2.84239 0
M  V30 4096 N 388.74 1.54641 0.303973 0
M  V30 4097 C 389.688 1.86137 1.39484 0
M  V30 4098 C 390.682 0.734854 1.52631 0
M  V30 4099 O 391.888 0.918803 1.54784 0
M  V30 4100 H 388.263 0.590324 0.465856 0
M  V30 4101 H 390.234 2.77324 1.10154 0
M  V30 4102 C 388.983 2.12274 2.75382 0
M  V30 4103 H 388.306 2.98429 2.66046 0
M  V30 4104 H 389.746 2.38254 3.5073 0
M  V30 4105 C 388.205 0.920365 3.24085 0
M  V30 4106 O 388.735 0.139377 4.01458 0
M  V30 4107 N 386.941 0.726566 2.81371 0
M  V30 4108 H 386.488 1.36332 2.18567 0
M  V30 4109 H 386.446 -0.0763799 3.14307 0
M  V30 4110 N 390.218 -0.567019 1.47046 0
M  V30 4111 C 391.181 -1.65696 1.58359 0
M  V30 4112 C 392.181 -1.54097 0.459441 0
M  V30 4113 O 393.371 -1.58432 0.724225 0
M  V30 4114 C 390.503 -3.05197 1.51879 0
M  V30 4115 H 391.696 -1.57019 2.5551 0
M  V30 4116 H 389.249 -0.786148 1.3509 0
M  V30 4117 H 389.984 -3.19417 0.560673 0
M  V30 4118 H 389.769 -3.15025 2.33455 0
M  V30 4119 H 391.259 -3.84511 1.62913 0
M  V30 4120 N 391.696 -1.35014 -0.812953 0
M  V30 4121 C 392.643 -1.27412 -1.92444 0
M  V30 4122 C 393.613 -0.14733 -1.65445 0
M  V30 4123 O 394.798 -0.329974 -1.87925 0
M  V30 4124 C 391.938 -1.04558 -3.28879 0
M  V30 4125 C 391.051 -2.26101 -3.68106 0
M  V30 4126 C 390.186 -1.96449 -4.9354 0
M  V30 4127 C 389.225 -3.14081 -5.25376 0
M  V30 4128 N 388.362 -2.84246 -6.41988 0
M  V30 4129 H 393.202 -2.22463 -1.98278 0
M  V30 4130 H 390.739 -1.10593 -0.969933 0
M  V30 4131 H 392.697 -0.893413 -4.07522 0
M  V30 4132 H 391.327 -0.131719 -3.22531 0
M  V30 4133 H 390.379 -2.52204 -2.84775 0
M  V30 4134 H 391.691 -3.13959 -3.87597 0
M  V30 4135 H 390.845 -1.78026 -5.79993 0
M  V30 4136 H 389.584 -1.05867 -4.76071 0
M  V30 4137 H 388.589 -3.33089 -4.37415 0
M  V30 4138 H 389.814 -4.05455 -5.44778 0
M  V30 4139 H 387.76 -1.96252 -6.25956 0
M  V30 4140 H 387.677 -3.65637 -6.61699 0
M  V30 4141 H 388.945 -2.6935 -7.31485 0
M  V30 4142 N 393.175 1.03435 -1.18907 0
M  V30 4143 C 394.123 2.13703 -0.918353 0
M  V30 4144 C 395.117 1.68947 0.123767 0
M  V30 4145 O 396.323 1.79983 -0.0249701 0
M  V30 4146 H 392.698 0.698112 -0.279542 0
M  V30 4147 H 394.669 2.33731 -1.85506 0
M  V30 4148 C 393.418 3.44542 -0.467532 0
M  V30 4149 H 392.741 3.79394 -1.26095 0
M  V30 4150 H 394.181 4.22812 -0.317164 0
M  V30 4151 C 392.64 3.26829 0.817588 0
M  V30 4152 O 393.17 3.54975 1.88031 0
M  V30 4153 N 391.376 2.80139 0.772677 0
M  V30 4154 H 390.923 2.57434 -0.0923883 0
M  V30 4155 H 390.881 2.68668 1.63294 0
M  V30 4156 N 394.653 0.992116 1.22453 0
M  V30 4157 C 395.6 0.541731 2.24352 0
M  V30 4158 C 396.57 -0.425519 1.60557 0
M  V30 4159 O 397.755 -0.330453 1.87917 0
M  V30 4160 C 394.895 -0.138248 3.44823 0
M  V30 4161 C 394.008 0.870649 4.23136 0
M  V30 4162 C 393.143 0.164269 5.30946 0
M  V30 4163 C 392.182 1.16159 6.00977 0
M  V30 4164 N 391.319 0.483568 7.00433 0
M  V30 4165 H 396.159 1.41541 2.62241 0
M  V30 4166 H 393.696 0.709013 1.28885 0
M  V30 4167 H 395.654 -0.5494 4.13567 0
M  V30 4168 H 394.284 -0.975721 3.077 0
M  V30 4169 H 393.336 1.40013 3.53696 0
M  V30 4170 H 394.648 1.63014 4.7141 0
M  V30 4171 H 393.802 -0.303653 6.0594 0
M  V30 4172 H 392.541 -0.627733 4.83643 0
M  V30 4173 H 391.546 1.64015 5.24766 0
M  V30 4174 H 392.771 1.95445 6.50368 0
M  V30 4175 H 390.717 -0.289012 6.55363 0
M  V30 4176 H 390.634 1.18152 7.4671 0
M  V30 4177 H 391.902 0.0384219 7.79491 0
M  V30 4178 N 396.131 -1.37776 0.765217 0
M  V30 4179 C 397.041 -2.34135 0.147666 0
M  V30 4180 C 398.057 -1.59854 -0.687215 0
M  V30 4181 O 399.233 -1.91983 -0.608659 0
M  V30 4182 C 396.298 -3.3901 -0.72617 0
M  V30 4183 C 395.359 -4.2912 0.124417 0
M  V30 4184 C 394.592 -5.28986 -0.707807 0
M  V30 4185 O 394.815 -5.36205 -1.94525 0
M  V30 4186 O 393.749 -6.01779 -0.12046 0
M  V30 4187 H 397.575 -2.88664 0.943758 0
M  V30 4188 H 395.16 -1.39824 0.526277 0
M  V30 4189 H 397.042 -4.03195 -1.22524 0
M  V30 4190 H 395.717 -2.86819 -1.50056 0
M  V30 4191 H 394.624 -3.68057 0.669696 0
M  V30 4192 H 395.957 -4.84598 0.861736 0
M  V30 4193 N 397.609 -0.515225 -1.4894 0
M  V30 4194 C 398.857 0.0241671 -2.02086 0
M  V30 4195 C 399.178 1.3616 -1.3959 0
M  V30 4196 O 398.448 1.87841 -0.556121 0
M  V30 4197 H 397.028 0.0119203 -0.746905 0
M  V30 4198 H 399.69 -0.675702 -1.82812 0
M  V30 4199 H 398.786 0.143385 -3.1177 0
M  V30 4200 N 399.087 1.5561 -0.249682 0
M  V30 4201 C 400.05 2.20217 0.635394 0
M  V30 4202 C 401.05 1.17227 1.10066 0
M  V30 4203 O 402.24 1.42292 1.00492 0
M  V30 4204 C 399.372 2.84794 1.87363 0
M  V30 4205 H 400.565 2.99814 0.0716752 0
M  V30 4206 H 398.118 1.563 -0.000153234 0
M  V30 4207 H 398.853 2.09142 2.47851 0
M  V30 4208 H 398.638 3.60241 1.5482 0
M  V30 4209 H 400.128 3.3423 2.5036 0
M  V30 4210 N 400.565 -0.0233959 1.57583 0
M  V30 4211 C 401.495 -1.02162 2.09965 0
M  V30 4212 C 402.476 -1.3735 1.00344 0
M  V30 4213 O 403.661 -1.46135 1.27899 0
M  V30 4214 C 400.791 -2.32081 2.58371 0
M  V30 4215 C 399.745 -2.1112 3.72307 0
M  V30 4216 C 399.071 -3.46848 4.06941 0
M  V30 4217 C 400.371 -1.49276 5.00514 0
M  V30 4218 H 402.065 -0.585557 2.93618 0
M  V30 4219 H 399.611 -0.280218 1.41247 0
M  V30 4220 H 401.564 -3.02249 2.93639 0
M  V30 4221 H 400.288 -2.77758 1.71808 0
M  V30 4222 H 398.947 -1.43384 3.37397 0
M  V30 4223 H 398.595 -3.90184 3.17436 0
M  V30 4224 H 398.295 -3.33646 4.83688 0
M  V30 4225 H 399.819 -4.18369 4.44747 0
M  V30 4226 H 401.233 -2.09368 5.33702 0
M  V30 4227 H 399.63 -1.46632 5.8191 0
M  V30 4228 H 400.7 -0.459217 4.82721 0
M  V30 4229 N 402.043 -1.548 -0.295768 0
M  V30 4230 C 402.99 -1.86113 -1.36494 0
M  V30 4231 C 403.96 -0.7105 -1.50137 0
M  V30 4232 O 405.145 -0.959626 -1.64912 0
M  V30 4233 C 402.285 -2.11861 -2.72413 0
M  V30 4234 C 401.398 -3.39471 -2.67177 0
M  V30 4235 C 400.533 -3.55035 -3.95125 0
M  V30 4236 C 399.572 -4.76418 -3.84308 0
M  V30 4237 N 398.709 -4.8876 -5.04042 0
M  V30 4238 H 403.549 -2.77314 -1.09091 0
M  V30 4239 H 401.086 -1.37315 -0.52753 0
M  V30 4240 H 403.044 -2.24786 -3.51464 0
M  V30 4241 H 401.674 -1.2392 -2.98066 0
M  V30 4242 H 400.726 -3.35139 -1.79962 0
M  V30 4243 H 402.038 -4.28646 -2.55076 0
M  V30 4244 H 401.192 -3.67653 -4.82614 0
M  V30 4245 H 399.931 -2.64002 -4.10066 0
M  V30 4246 H 398.936 -4.63827 -2.95202 0
M  V30 4247 H 400.161 -5.68863 -3.70906 0
M  V30 4248 H 398.107 -4.00652 -5.19436 0
M  V30 4249 H 398.024 -5.71945 -4.94384 0
M  V30 4250 H 399.292 -5.0574 -5.93167 0
M  V30 4251 N 403.521 0.559213 -1.47345 0
M  V30 4252 C 404.451 1.67622 -1.62558 0
M  V30 4253 C 405.432 1.63331 -0.475087 0
M  V30 4254 O 406.617 1.80983 -0.704182 0
M  V30 4255 C 403.747 3.0626 -1.63774 0
M  V30 4256 C 402.701 3.25397 -2.7803 0
M  V30 4257 C 402.027 4.64801 -2.64318 0
M  V30 4258 C 403.327 3.10965 -4.19641 0
M  V30 4259 H 405.021 1.55146 -2.56067 0
M  V30 4260 H 402.567 0.744961 -1.23233 0
M  V30 4261 H 404.52 3.84247 -1.73008 0
M  V30 4262 H 403.244 3.1969 -0.66825 0
M  V30 4263 H 401.903 2.49817 -2.68304 0
M  V30 4264 H 401.551 4.75028 -1.65401 0
M  V30 4265 H 401.251 4.78555 -3.40968 0
M  V30 4266 H 402.775 5.44926 -2.75478 0
M  V30 4267 H 404.189 3.78772 -4.30354 0
M  V30 4268 H 402.586 3.36229 -4.97062 0
M  V30 4269 H 403.656 2.07736 -4.38148 0
M  V30 4270 N 404.999 1.35443 0.805782 0
M  V30 4271 C 406.248 1.28097 1.55801 0
M  V30 4272 C 406.561 -0.142428 1.95081 0
M  V30 4273 O 407.767 -0.33817 2.69386 0
M  V30 4274 C 406.223 2.24653 2.81174 0
M  V30 4275 C 405.831 3.72342 2.49129 0
M  V30 4276 C 407.575 2.2625 3.59181 0
M  V30 4277 C 405.482 4.60719 3.70799 0
M  V30 4278 H 404.412 0.475937 0.584808 0
M  V30 4279 H 407.063 1.60712 0.885661 0
M  V30 4280 H 405.445 1.85011 3.50124 0
M  V30 4281 H 406.619 4.20624 1.88181 0
M  V30 4282 H 404.934 3.73361 1.84366 0
M  V30 4283 H 407.531 2.89495 4.49552 0
M  V30 4284 H 407.874 1.26647 3.96568 0
M  V30 4285 H 408.407 2.64426 2.97193 0
M  V30 4286 H 405.146 5.61324 3.3852 0
M  V30 4287 H 404.666 4.17163 4.3097 0
M  V30 4288 H 406.345 4.76182 4.38018 0
M  V30 4289 N 406.477 -1.02803 1.19454 0
M  V30 4290 C 407.425 -2.13213 0.929673 0
M  V30 4291 C 408.419 -1.69011 -0.114806 0
M  V30 4292 O 409.625 -1.79967 0.0345147 0
M  V30 4293 H 406 -0.69662 0.28324 0
M  V30 4294 H 407.971 -2.32744 1.86743 0
M  V30 4295 C 406.72 -3.4429 0.485797 0
M  V30 4296 H 406.043 -3.7872 1.28105 0
M  V30 4297 H 407.483 -4.22638 0.339582 0
M  V30 4298 C 405.942 -3.27258 -0.800244 0
M  V30 4299 O 406.472 -3.55967 -1.86146 0
M  V30 4300 N 404.678 -2.80545 -0.75781 0
M  V30 4301 H 404.225 -2.57382 0.106039 0
M  V30 4302 H 404.183 -2.6953 -1.61867 0
M  V30 4303 N 407.956 -0.998596 -1.21925 0
M  V30 4304 C 409.203 -0.677663 -1.90824 0
M  V30 4305 C 409.531 0.790905 -1.77693 0
M  V30 4306 O 408.786 1.58817 -1.14349 0
M  V30 4307 C 409.085 -1.03648 -3.42041 0
M  V30 4308 C 408.751 -2.49825 -3.75364 0
M  V30 4309 C 407.413 -2.8977 -3.8417 0
M  V30 4310 C 409.765 -3.44545 -3.91073 0
M  V30 4311 C 407.093 -4.23412 -4.06127 0
M  V30 4312 C 409.445 -4.77853 -4.14535 0
M  V30 4313 C 408.109 -5.17531 -4.21566 0
M  V30 4314 H 407.379 -0.247975 -0.698276 0
M  V30 4315 H 410.026 -1.25584 -1.44571 0
M  V30 4316 H 408.331 -0.376457 -3.89987 0
M  V30 4317 H 410.028 -0.766113 -3.93614 0
M  V30 4318 H 406.618 -2.17866 -3.69097 0
M  V30 4319 H 410.802 -3.14853 -3.83642 0
M  V30 4320 H 406.058 -4.53734 -4.09799 0
M  V30 4321 H 410.232 -5.51189 -4.25633 0
M  V30 4322 H 407.859 -6.21102 -4.38333 0
M  V30 4323 N 409.434 1.37368 -0.772513 0
M  V30 4324 C 410.364 2.32856 -0.173304 0
M  V30 4325 C 411.345 1.55818 0.682262 0
M  V30 4326 O 412.53 1.84052 0.619566 0
M  V30 4327 C 409.66 3.40048 0.706007 0
M  V30 4328 C 408.614 4.27973 -0.0483144 0
M  V30 4329 C 407.94 5.26184 0.950491 0
M  V30 4330 C 409.24 5.07665 -1.22776 0
M  V30 4331 H 410.934 2.83217 -0.971002 0
M  V30 4332 H 408.48 1.3617 -0.468377 0
M  V30 4333 H 410.433 4.05827 1.13501 0
M  V30 4334 H 409.157 2.88214 1.53623 0
M  V30 4335 H 407.816 3.63726 -0.458107 0
M  V30 4336 H 407.464 4.7063 1.77529 0
M  V30 4337 H 407.164 5.85872 0.450314 0
M  V30 4338 H 408.688 5.94838 1.37842 0
M  V30 4339 H 410.102 5.66578 -0.875366 0
M  V30 4340 H 408.499 5.76681 -1.66007 0
M  V30 4341 H 409.569 4.40294 -2.03149 0
M  V30 4342 N 410.912 0.523116 1.48665 0
M  V30 4343 C 411.842 -0.23231 2.32342 0
M  V30 4344 C 412.823 -0.941637 1.41659 0
M  V30 4345 O 414.008 -0.928751 1.70552 0
M  V30 4346 C 411.138 -1.28387 3.22698 0
M  V30 4347 C 410.092 -0.693098 4.22351 0
M  V30 4348 C 409.418 -1.8468 5.01794 0
M  V30 4349 C 410.718 0.33063 5.21252 0
M  V30 4350 H 412.412 0.466192 2.95748 0
M  V30 4351 H 409.958 0.225643 1.42221 0
M  V30 4352 H 411.911 -1.82024 3.80059 0
M  V30 4353 H 410.635 -2.01186 2.57278 0
M  V30 4354 H 409.294 -0.178299 3.66166 0
M  V30 4355 H 408.942 -2.56301 4.32804 0
M  V30 4356 H 408.642 -1.45747 5.69238 0
M  V30 4357 H 410.166 -2.38709 5.62006 0
M  V30 4358 H 411.58 -0.118407 5.73178 0
M  V30 4359 H 409.977 0.636974 5.9671 0
M  V30 4360 H 411.047 1.23883 4.68808 0
M  V30 4361 N 412.39 -1.55475 0.257931 0
M  V30 4362 C 413.806 -1.59307 -0.0966563 0
M  V30 4363 C 414.006 -1.27514 -1.5602 0
M  V30 4364 O 413.062 -1.02774 -2.30637 0
M  V30 4365 C 414.375 -2.99552 0.262481 0
M  V30 4366 C 415.923 -3.1231 0.207683 0
M  V30 4367 C 416.398 -4.54793 0.541012 0
M  V30 4368 N 417.889 -4.6058 0.491921 0
M  V30 4369 C 418.624 -5.68825 0.722857 0
M  V30 4370 N 418.12 -6.85287 1.0175 0
M  V30 4371 N 419.913 -5.58296 0.652815 0
M  V30 4372 H 412.064 -1.74409 1.21224 0
M  V30 4373 H 414.327 -0.812424 0.48854 0
M  V30 4374 H 414.033 -3.27593 1.27967 0
M  V30 4375 H 413.907 -3.75019 -0.40508 0
M  V30 4376 H 416.294 -2.84044 -0.800195 0
M  V30 4377 H 416.375 -2.39095 0.909255 0
M  V30 4378 H 416.019 -4.83783 1.5465 0
M  V30 4379 H 415.949 -5.26285 -0.18216 0
M  V30 4380 H 418.44 -3.7691 0.273366 0
M  V30 4381 H 418.753 -7.63725 1.18084 0
M  V30 4382 H 417.098 -6.86945 1.05509 0
M  V30 4383 H 420.289 -4.66189 0.422592 0
M  V30 4384 H 420.462 -6.42582 0.836182 0
M  V30 4385 N 413.868 0.0150385 -1.57593 0
M  V30 4386 C 415.279 0.559832 -1.78109 0
M  V30 4387 C 415.63 1.74814 -0.890756 0
M  V30 4388 O 414.755 2.16216 -0.0892482 0
M  V30 4389 C 415.35 1.02238 -3.23006 0
M  V30 4390 C 413.909 1.51258 -3.44671 0
M  V30 4391 C 413.056 0.456955 -2.73509 0
M  V30 4392 H 416.007 -0.211169 -1.57289 0
M  V30 4393 H 416.028 1.88912 -3.30292 0
M  V30 4394 H 415.54 0.157302 -3.87781 0
M  V30 4395 H 413.641 2.39905 -2.8509 0
M  V30 4396 H 413.754 1.55042 -4.5332 0
M  V30 4397 H 412.118 0.915196 -2.37689 0
M  V30 4398 H 412.901 -0.398896 -3.40975 0
M  V30 4399 N 415.346 1.54954 0.287554 0
M  V30 4400 C 416.623 1.65569 1.04146 0
M  V30 4401 C 417.003 0.512672 2.0478 0
M  V30 4402 O 416.351 -0.489038 2.23205 0
M  V30 4403 C 416.561 3.04163 1.71131 0
M  V30 4404 C 417.909 3.61429 2.22832 0
M  V30 4405 O 418.933 3.06702 1.81141 0
M  V30 4406 O 417.792 4.57281 2.9926 0
M  V30 4407 H 414.886 0.671881 0.482188 0
M  V30 4408 H 417.432 1.67297 0.28457 0
M  V30 4409 H 416.204 3.78796 0.981303 0
M  V30 4410 H 415.827 3.06271 2.53543 0
M  V30 4411 N 416.824 -0.551391 1.4764 0
M  V30 4412 C 418.07 -1.31024 1.54792 0
M  V30 4413 C 418.403 -1.9304 0.211967 0
M  V30 4414 O 417.678 -1.78175 -0.77999 0
M  V30 4415 C 417.961 -2.41593 2.67029 0
M  V30 4416 C 417.814 -1.84408 4.10261 0
M  V30 4417 C 419.133 -3.43488 2.75143 0
M  V30 4418 H 416.252 -0.475031 0.563485 0
M  V30 4419 H 418.894 -0.616454 1.79722 0
M  V30 4420 H 417.044 -3.00772 2.45904 0
M  V30 4421 H 418.716 -1.29445 4.42766 0
M  V30 4422 H 416.959 -1.15051 4.18265 0
M  V30 4423 H 417.63 -2.64367 4.84576 0
M  V30 4424 H 420.106 -2.94236 2.94218 0
M  V30 4425 H 418.982 -4.18274 3.55441 0
M  V30 4426 H 419.243 -4.02703 1.82435 0
M  V30 4427 N 418.302 -1.35869 -0.798587 0
M  V30 4428 C 419.265 -1.29307 -1.89242 0
M  V30 4429 C 420.265 -0.202747 -1.59517 0
M  V30 4430 O 421.455 -0.456957 -1.681 0
M  V30 4431 C 418.587 -1.00229 -3.25833 0
M  V30 4432 H 419.78 -2.26576 -1.96478 0
M  V30 4433 H 417.333 -1.20509 -0.995358 0
M  V30 4434 H 418.068 -0.033801 -3.24282 0
M  V30 4435 H 417.853 -1.79121 -3.48795 0
M  V30 4436 H 419.343 -0.98219 -4.05885 0
M  V30 4437 N 419.78 1.02168 -1.19998 0
M  V30 4438 C 420.727 2.10601 -0.944228 0
M  V30 4439 C 421.697 1.65639 0.123664 0
M  V30 4440 O 422.882 1.9079 -0.0199941 0
M  V30 4441 C 420.022 3.41504 -0.496865 0
M  V30 4442 C 419.135 3.99973 -1.63234 0
M  V30 4443 C 418.27 5.18915 -1.13579 0
M  V30 4444 C 417.309 5.69456 -2.24468 0
M  V30 4445 N 416.446 6.79665 -1.76068 0
M  V30 4446 H 421.286 2.31814 -1.8726 0
M  V30 4447 H 418.823 1.13686 -0.933483 0
M  V30 4448 H 420.781 4.16626 -0.218843 0
M  V30 4449 H 419.411 3.2038 0.394508 0
M  V30 4450 H 418.463 3.21997 -2.0254 0
M  V30 4451 H 419.775 4.33492 -2.46752 0
M  V30 4452 H 418.929 6.01222 -0.813429 0
M  V30 4453 H 417.668 4.8695 -0.270434 0
M  V30 4454 H 416.673 4.85757 -2.57526 0
M  V30 4455 H 417.898 6.03459 -3.11472 0
M  V30 4456 H 415.844 6.49538 -0.918516 0
M  V30 4457 H 415.761 7.12349 -2.5317 0
M  V30 4458 H 417.029 7.65549 -1.46817 0
M  V30 4459 N 421.258 1.00505 1.21394 0
M  V30 4460 C 422.19 0.52372 2.23136 0
M  V30 4461 C 423.203 -0.387714 1.58116 0
M  V30 4462 O 424.392 -0.187905 1.77508 0
M  V30 4463 C 421.492 -0.258885 3.3791 0
M  V30 4464 C 420.665 0.651634 4.32519 0
M  V30 4465 C 419.724 -0.0813705 5.26137 0
M  V30 4466 O 418.75 0.537295 5.66658 0
M  V30 4467 N 419.952 -1.35992 5.64346 0
M  V30 4468 H 422.717 1.39865 2.65062 0
M  V30 4469 H 420.278 0.881196 1.35818 0
M  V30 4470 H 422.27 -0.758208 3.97534 0
M  V30 4471 H 420.84 -1.035 2.94968 0
M  V30 4472 H 420.06 1.33145 3.71034 0
M  V30 4473 H 421.348 1.27129 4.92662 0
M  V30 4474 H 420.746 -1.88368 5.33417 0
M  V30 4475 H 419.303 -1.8042 6.26332 0
M  V30 4476 N 422.737 -1.36956 0.779787 0
M  V30 4477 C 423.983 -1.99787 0.348281 0
M  V30 4478 C 424.316 -1.61756 -1.07465 0
M  V30 4479 O 423.591 -0.867639 -1.74075 0
M  V30 4480 C 423.874 -3.56597 0.50104 0
M  V30 4481 C 423.727 -4.04513 1.96697 0
M  V30 4482 C 425.046 -4.40008 -0.0898097 0
M  V30 4483 H 422.165 -0.725796 0.128022 0
M  V30 4484 H 424.807 -1.62514 0.984331 0
M  V30 4485 H 422.957 -3.88479 -0.0404347 0
M  V30 4486 H 424.629 -3.83161 2.56876 0
M  V30 4487 H 422.872 -3.56408 2.47297 0
M  V30 4488 H 423.543 -5.1352 2.02486 0
M  V30 4489 H 426.019 -4.14431 0.372293 0
M  V30 4490 H 424.895 -5.4888 0.0471605 0
M  V30 4491 H 425.156 -4.26035 -1.18096 0
M  V30 4492 N 424.215 -0.530993 -1.48385 0
M  V30 4493 C 425.178 0.220497 -2.28137 0
M  V30 4494 C 426.178 0.866851 -1.35434 0
M  V30 4495 O 427.368 0.726746 -1.58316 0
M  V30 4496 C 424.5 1.31921 -3.1434 0
M  V30 4497 H 425.693 -0.479714 -2.96038 0
M  V30 4498 H 423.246 -0.286968 -1.53643 0
M  V30 4499 H 423.981 2.05264 -2.51072 0
M  V30 4500 H 423.766 0.86085 -3.82533 0
M  V30 4501 H 425.256 1.84776 -3.74497 0
M  V30 4502 N 425.693 1.55336 -0.266172 0
M  V30 4503 C 426.603 2.2583 0.635458 0
M  V30 4504 C 427.619 1.28106 1.17749 0
M  V30 4505 O 428.795 1.61024 1.20968 0
M  V30 4506 C 425.86 2.95879 1.80712 0
M  V30 4507 C 424.921 4.09059 1.30265 0
M  V30 4508 C 424.154 4.75759 2.41846 0
M  V30 4509 O 424.377 4.41622 3.61007 0
M  V30 4510 O 423.311 5.63888 2.1051 0
M  V30 4511 H 427.137 3.03631 0.0646693 0
M  V30 4512 H 424.722 1.49361 -0.0339177 0
M  V30 4513 H 426.604 3.39932 2.49047 0
M  V30 4514 H 425.279 2.21002 2.36516 0
M  V30 4515 H 424.186 3.69482 0.586019 0
M  V30 4516 H 425.519 4.85811 0.790458 0
M  V30 4517 N 427.171 -0.0066808 1.57599 0
M  V30 4518 C 428.399 -0.704087 1.94551 0
M  V30 4519 C 428.814 -1.67677 0.867746 0
M  V30 4520 O 428.171 -1.8185 -0.153925 0
M  V30 4521 C 428.222 -1.44177 3.31505 0
M  V30 4522 O 427.943 -0.508097 4.35144 0
M  V30 4523 C 429.444 -2.23429 3.82876 0
M  V30 4524 H 426.664 -0.196523 0.641576 0
M  V30 4525 H 429.208 0.042453 2.04456 0
M  V30 4526 H 427.363 -2.13999 3.22929 0
M  V30 4527 H 427.777 -1.02782 5.14331 0
M  V30 4528 H 429.251 -2.70552 4.8115 0
M  V30 4529 H 429.728 -3.05818 3.15233 0
M  V30 4530 H 430.334 -1.58636 3.94607 0
M  V30 4531 N 428.649 -1.55105 -0.279332 0
M  V30 4532 C 429.898 -1.74618 -1.00952 0
M  V30 4533 C 430.211 -0.551096 -1.87676 0
M  V30 4534 O 431.417 -0.628507 -2.64125 0
M  V30 4535 C 429.873 -3.09025 -1.84476 0
M  V30 4536 C 429.481 -4.36081 -1.0265 0
M  V30 4537 C 431.225 -3.37891 -2.56963 0
M  V30 4538 C 429.132 -5.6153 -1.85576 0
M  V30 4539 H 428.062 -0.650868 -0.38064 0
M  V30 4540 H 430.713 -1.81569 -0.265475 0
M  V30 4541 H 429.095 -2.96095 -2.62952 0
M  V30 4542 H 430.269 -4.59909 -0.286354 0
M  V30 4543 H 428.584 -4.14312 -0.416464 0
M  V30 4544 H 431.181 -4.28822 -3.19399 0
M  V30 4545 H 431.524 -2.57737 -3.26921 0
M  V30 4546 H 432.057 -3.5189 -1.85522 0
M  V30 4547 H 428.796 -6.44413 -1.2005 0
M  V30 4548 H 428.316 -5.41854 -2.57204 0
M  V30 4549 H 429.995 -5.99594 -2.43096 0
M  V30 4550 N 430.127 0.543554 -1.4793 0
M  V30 4551 C 431.375 1.29752 -1.54948 0
M  V30 4552 C 431.696 1.93764 -0.219242 0
M  V30 4553 O 430.966 1.80639 0.75805 0
M  V30 4554 H 429.546 0.481874 -0.570795 0
M  V30 4555 H 432.208 0.633636 -1.84312 0
M  V30 4556 H 431.304 2.08392 -2.32334 0
M  V30 4557 N 431.605 1.3629 0.791371 0
M  V30 4558 C 432.835 1.33368 1.57786 0
M  V30 4559 C 433.243 -0.0875188 1.88997 0
M  V30 4560 O 432.586 -1.05427 1.50435 0
M  V30 4561 C 432.648 2.08802 2.92646 0
M  V30 4562 C 432.312 3.57903 2.84174 0
M  V30 4563 C 433.309 4.52191 2.56553 0
M  V30 4564 C 430.994 4.00762 3.02812 0
M  V30 4565 C 432.988 5.87315 2.47669 0
M  V30 4566 C 430.675 5.35977 2.93551 0
M  V30 4567 C 431.673 6.29066 2.66017 0
M  V30 4568 O 431.361 7.61798 2.56746 0
M  V30 4569 H 431.093 0.459166 0.496128 0
M  V30 4570 H 433.647 1.79952 0.990269 0
M  V30 4571 H 431.877 1.56878 3.53449 0
M  V30 4572 H 433.566 1.98762 3.53904 0
M  V30 4573 H 434.332 4.20393 2.41858 0
M  V30 4574 H 430.211 3.2868 3.2325 0
M  V30 4575 H 433.755 6.59943 2.26099 0
M  V30 4576 H 429.652 5.67384 3.07808 0
M  V30 4577 H 430.42 7.71898 2.72242 0
M  V30 4578 N 433.083 -1.0153 1.20538 0
M  V30 4579 C 434.494 -1.56598 1.01657 0
M  V30 4580 C 434.845 -1.91505 -0.426668 0
M  V30 4581 O 433.97 -1.72375 -1.30827 0
M  V30 4582 C 434.565 -2.84542 1.83905 0
M  V30 4583 C 433.124 -3.36133 1.69386 0
M  V30 4584 C 432.271 -2.09427 1.81757 0
M  V30 4585 H 435.222 -0.838974 1.34711 0
M  V30 4586 H 435.243 -3.56004 1.34319 0
M  V30 4587 H 434.755 -2.59105 2.8894 0
M  V30 4588 H 432.856 -3.66528 0.669933 0
M  V30 4589 H 432.969 -4.08248 2.50739 0
M  V30 4590 H 431.333 -2.21941 1.24957 0
M  V30 4591 H 432.116 -1.86414 2.88279 0
M  V30 4592 N 434.561 -1.01147 -1.20859 0
M  V30 4593 C 435.789 -0.716911 -1.94082 0
M  V30 4594 C 436.204 0.721568 -1.74467 0
M  V30 4595 O 435.561 1.48889 -1.05539 0
M  V30 4596 C 435.612 -1.03662 -3.46318 0
M  V30 4597 O 435.333 -2.4186 -3.65288 0
M  V30 4598 C 436.834 -0.762386 -4.36695 0
M  V30 4599 H 434.054 -0.26367 -0.617024 0
M  V30 4600 H 436.598 -1.35127 -1.53496 0
M  V30 4601 H 434.753 -0.447757 -3.84804 0
M  V30 4602 H 435.167 -2.53224 -4.59323 0
M  V30 4603 H 436.641 -1.03621 -5.42187 0
M  V30 4604 H 437.118 0.303514 -4.3815 0
M  V30 4605 H 437.724 -1.33316 -4.03865 0
M  V30 4606 N 436.039 1.36541 -0.78704 0
M  V30 4607 C 437.45 1.81873 -0.421807 0
M  V30 4608 C 437.801 1.65487 1.05397 0
M  V30 4609 O 436.926 1.17448 1.81755 0
M  V30 4610 C 437.521 3.30192 -0.758841 0
M  V30 4611 C 436.08 3.73743 -0.446468 0
M  V30 4612 C 435.227 2.58844 -0.994728 0
M  V30 4613 H 438.178 1.24796 -0.98039 0
M  V30 4614 H 438.199 3.80468 -0.0490648 0
M  V30 4615 H 437.711 3.42087 -1.83299 0
M  V30 4616 H 435.812 3.6741 0.619739 0
M  V30 4617 H 435.925 4.69272 -0.965415 0
M  V30 4618 H 434.289 2.51245 -0.418087 0
M  V30 4619 H 435.072 2.73525 -2.07458 0
M  V30 4620 N 437.518 0.538854 1.48102 0
M  V30 4621 C 438.466 -0.232325 2.31437 0
M  V30 4622 C 439.46 -0.927004 1.41785 0
M  V30 4623 O 440.666 -0.850378 1.58646 0
M  V30 4624 H 437.041 -0.0937916 0.746128 0
M  V30 4625 H 439.012 0.489986 2.9435 0
M  V30 4626 C 437.761 -1.26074 3.24038 0
M  V30 4627 H 437.084 -0.735609 3.92974 0
M  V30 4628 H 438.524 -1.77157 3.85216 0
M  V30 4629 C 436.983 -2.29902 2.46265 0
M  V30 4630 O 437.513 -3.36502 2.19384 0
M  V30 4631 N 435.719 -2.03348 2.07601 0
M  V30 4632 H 435.266 -1.16675 2.29662 0
M  V30 4633 H 435.224 -2.73038 1.55877 0
M  V30 4634 N 438.996 -1.55193 0.274407 0
M  V30 4635 C 439.926 -2.25471 -0.607032 0
M  V30 4636 C 440.907 -1.24461 -1.15946 0
M  V30 4637 O 442.092 -1.53179 -1.19373 0
M  V30 4638 C 439.222 -2.97526 -1.79153 0
M  V30 4639 C 438.176 -4.05459 -1.37067 0
M  V30 4640 C 437.502 -4.65084 -2.6382 0
M  V30 4641 C 438.802 -5.19691 -0.521389 0
M  V30 4642 H 440.496 -2.99393 -0.0209343 0
M  V30 4643 H 438.042 -1.43997 -0.00862866 0
M  V30 4644 H 439.995 -3.45402 -2.41404 0
M  V30 4645 H 438.719 -2.21138 -2.40344 0
M  V30 4646 H 437.378 -3.58393 -0.771355 0
M  V30 4647 H 437.026 -3.85365 -3.23268 0
M  V30 4648 H 436.726 -5.37961 -2.36372 0
M  V30 4649 H 438.25 -5.15708 -3.26921 0
M  V30 4650 H 439.664 -5.63623 -1.04889 0
M  V30 4651 H 438.061 -5.99126 -0.341825 0
M  V30 4652 H 439.131 -4.82713 0.46 0
M  V30 4653 N 440.474 -0.00167713 -1.576 0
M  V30 4654 C 441.437 0.974046 -2.07473 0
M  V30 4655 C 442.437 1.27143 -0.984444 0
M  V30 4656 O 443.627 1.21633 -1.24703 0
M  V30 4657 C 440.759 2.29849 -2.51759 0
M  V30 4658 H 441.952 0.54262 -2.9495 0
M  V30 4659 H 439.505 0.245829 -1.54355 0
M  V30 4660 H 440.24 2.77677 -1.67529 0
M  V30 4661 H 440.025 2.09584 -3.31386 0
M  V30 4662 H 441.515 2.9984 -2.90664 0
M  V30 4663 N 441.952 1.55251 0.271103 0
M  V30 4664 C 442.915 1.87484 1.31842 0
M  V30 4665 C 443.915 0.749545 1.42262 0
M  V30 4666 O 445.105 1.01771 1.4138 0
M  V30 4667 C 442.237 2.0818 2.69951 0
M  V30 4668 H 443.43 2.81108 1.0449 0
M  V30 4669 H 440.983 1.47771 0.509258 0
M  V30 4670 H 441.718 1.16944 3.02481 0
M  V30 4671 H 441.503 2.90114 2.63774 0
M  V30 4672 H 442.993 2.34385 3.4562 0
M  V30 4673 N 443.43 -0.535701 1.48216 0
M  V30 4674 C 444.846 -0.863701 1.3421 0
M  V30 4675 C 445.046 -1.98458 0.34879 0
M  V30 4676 O 444.102 -2.51432 -0.23204 0
M  V30 4677 C 445.415 -1.23662 2.74095 0
M  V30 4678 C 446.963 -1.34683 2.82541 0
M  V30 4679 C 447.438 -1.75322 4.23115 0
M  V30 4680 N 448.929 -1.82434 4.2576 0
M  V30 4681 C 449.664 -2.15252 5.31464 0
M  V30 4682 N 449.16 -2.46533 6.47452 0
M  V30 4683 N 450.953 -2.16209 5.18855 0
M  V30 4684 H 443.104 0.203965 2.11418 0
M  V30 4685 H 445.367 0.0286033 0.947568 0
M  V30 4686 H 445.073 -0.486674 3.48316 0
M  V30 4687 H 444.947 -2.18805 3.07253 0
M  V30 4688 H 447.334 -2.08756 2.08579 0
M  V30 4689 H 447.415 -0.376756 2.5301 0
M  V30 4690 H 447.059 -1.01812 4.97591 0
M  V30 4691 H 446.989 -2.7337 4.50085 0
M  V30 4692 H 449.48 -1.6056 3.42095 0
M  V30 4693 H 449.793 -2.70662 7.23852 0
M  V30 4694 H 448.138 -2.44065 6.50736 0
M  V30 4695 H 451.329 -1.91224 4.2726 0
M  V30 4696 H 451.502 -2.41453 6.01335 0
M  V30 4697 N 444.908 -1.36708 -0.784132 0
M  V30 4698 C 445.855 -1.31466 -1.89698 0
M  V30 4699 C 446.825 -0.18239 -1.65096 0
M  V30 4700 O 448.01 -0.369762 -1.87183 0
M  V30 4701 C 445.15 -1.1151 -3.26588 0
M  V30 4702 C 444.263 -2.33859 -3.63227 0
M  V30 4703 C 443.398 -2.06873 -4.89262 0
M  V30 4704 C 442.437 -3.25154 -5.18595 0
M  V30 4705 N 441.574 -2.978 -6.35814 0
M  V30 4706 H 446.414 -2.26619 -1.93515 0
M  V30 4707 H 443.951 -1.12625 -0.946256 0
M  V30 4708 H 445.909 -0.979653 -4.05535 0
M  V30 4709 H 444.539 -0.200103 -3.22179 0
M  V30 4710 H 443.591 -2.58188 -2.79362 0
M  V30 4711 H 444.903 -3.22109 -3.8085 0
M  V30 4712 H 444.057 -1.90289 -5.76086 0
M  V30 4713 H 442.796 -1.15942 -4.73718 0
M  V30 4714 H 441.801 -3.42292 -4.30251 0
M  V30 4715 H 443.026 -4.1692 -5.36055 0
M  V30 4716 H 440.972 -2.09485 -6.21653 0
M  V30 4717 H 440.889 -3.7959 -6.53794 0
M  V30 4718 H 442.157 -2.84805 -7.25607 0
M  V30 4719 N 446.386 1.0089 -1.21074 0
M  V30 4720 C 447.316 2.1145 -0.990523 0
M  V30 4721 C 448.297 1.69897 0.0831699 0
M  V30 4722 O 449.482 1.94052 -0.0758853 0
M  V30 4723 C 446.612 3.42914 -0.550177 0
M  V30 4724 C 445.566 3.98244 -1.56799 0
M  V30 4725 C 444.892 5.25568 -0.984013 0
M  V30 4726 C 446.192 4.30752 -2.95381 0
M  V30 4727 H 447.886 2.3013 -1.91521 0
M  V30 4728 H 445.432 1.10592 -0.92225 0
M  V30 4729 H 447.385 4.19653 -0.383305 0
M  V30 4730 H 446.109 3.24014 0.41015 0
M  V30 4731 H 444.768 3.23621 -1.72236 0
M  V30 4732 H 444.416 5.02998 -0.0155216 0
M  V30 4733 H 444.116 5.63551 -1.66384 0
M  V30 4734 H 445.64 6.04955 -0.828378 0
M  V30 4735 H 447.054 4.98349 -2.8341 0
M  V30 4736 H 445.451 4.79869 -3.60341 0
M  V30 4737 H 446.521 3.39192 -3.46521 0
M  V30 4738 N 447.864 1.01787 1.20321 0
M  V30 4739 C 448.794 0.609625 2.25401 0
M  V30 4740 C 449.775 -0.375951 1.65893 0
M  V30 4741 O 450.96 -0.261101 1.92437 0
M  V30 4742 C 448.09 -0.0515995 3.47262 0
M  V30 4743 C 447.044 0.855095 4.19371 0
M  V30 4744 C 446.37 0.0595757 5.34667 0
M  V30 4745 C 447.67 2.16374 4.75373 0
M  V30 4746 H 449.364 1.48803 2.59804 0
M  V30 4747 H 446.91 0.716934 1.24884 0
M  V30 4748 H 448.863 -0.348764 4.19954 0
M  V30 4749 H 447.587 -0.964726 3.12027 0
M  V30 4750 H 446.246 1.13628 3.48546 0
M  V30 4751 H 445.894 -0.85524 4.95676 0
M  V30 4752 H 445.594 0.663406 5.83843 0
M  V30 4753 H 447.118 -0.231105 6.10162 0
M  V30 4754 H 448.532 1.92885 5.39878 0
M  V30 4755 H 446.929 2.71853 5.34991 0
M  V30 4756 H 447.999 2.82589 3.94045 0
M  V30 4757 N 449.342 -1.36122 0.79427 0
M  V30 4758 C 450.567 -2.03891 0.379871 0
M  V30 4759 C 450.992 -1.59488 -0.997251 0
M  V30 4760 O 450.35 -0.765652 -1.64339 0
M  V30 4761 C 450.398 -3.57687 0.457442 0
M  V30 4762 O 449.502 -4.08931 -0.5338 0
M  V30 4763 H 448.843 -0.6443 0.160541 0
M  V30 4764 H 451.373 -1.73976 1.07673 0
M  V30 4765 H 451.383 -4.06721 0.322792 0
M  V30 4766 H 450.058 -3.89357 1.46199 0
M  V30 4767 H 448.635 -3.71154 -0.360409 0
M  V30 4768 N 450.82 -0.546701 -1.47814 0
M  V30 4769 C 452.231 -0.110564 -1.86372 0
M  V30 4770 C 452.582 1.31678 -1.45449 0
M  V30 4771 O 451.707 1.98889 -0.852758 0
M  V30 4772 C 452.302 -0.193873 -3.38245 0
M  V30 4773 C 450.861 0.187164 -3.75934 0
M  V30 4774 C 450.008 -0.546166 -2.71868 0
M  V30 4775 H 452.959 -0.757022 -1.39481 0
M  V30 4776 H 452.98 0.590218 -3.75895 0
M  V30 4777 H 452.492 -1.23282 -3.67999 0
M  V30 4778 H 450.593 1.22762 -3.51796 0
M  V30 4779 H 450.706 -0.164083 -4.78819 0
M  V30 4780 H 449.07 0.00953904 -2.54698 0
M  V30 4781 H 449.853 -1.58606 -3.04465 0
M  V30 4782 N 452.299 1.55045 -0.282633 0
M  V30 4783 C 453.209 2.26491 0.61147 0
M  V30 4784 C 454.225 1.29348 1.16384 0
M  V30 4785 O 455.401 1.62298 1.19253 0
M  V30 4786 C 452.466 2.97779 1.77563 0
M  V30 4787 C 451.527 4.10418 1.25919 0
M  V30 4788 C 450.76 4.78297 2.36786 0
M  V30 4789 O 450.983 4.45426 3.56303 0
M  V30 4790 O 449.917 5.66089 2.04517 0
M  V30 4791 H 453.743 3.03683 0.0324615 0
M  V30 4792 H 451.328 1.49317 -0.0497576 0
M  V30 4793 H 453.21 3.42554 2.45427 0
M  V30 4794 H 451.885 2.23498 2.34159 0
M  V30 4795 H 450.792 3.70082 0.546797 0
M  V30 4796 H 452.125 4.86622 0.738887 0
M  V30 4797 N 453.777 0.010035 1.57597 0
M  V30 4798 C 455.023 -0.673697 1.91283 0
M  V30 4799 C 455.356 -1.72863 0.884979 0
M  V30 4800 O 454.631 -1.94268 -0.0949487 0
M  V30 4801 C 454.914 -1.30766 3.35518 0
M  V30 4802 C 454.767 -0.263578 4.49027 0
M  V30 4803 C 456.086 -2.23105 3.79358 0
M  V30 4804 H 453.205 -0.243439 0.695634 0
M  V30 4805 H 455.847 0.0633864 1.89894 0
M  V30 4806 H 453.997 -1.93588 3.36832 0
M  V30 4807 H 455.669 0.365738 4.59848 0
M  V30 4808 H 453.912 0.413077 4.31829 0
M  V30 4809 H 454.583 -0.746398 5.4693 0
M  V30 4810 H 457.059 -1.70289 3.79659 0
M  V30 4811 H 455.935 -2.64424 4.81011 0
M  V30 4812 H 456.196 -3.11433 3.13787 0
M  V30 4813 N 455.255 -1.55392 -0.262866 0
M  V30 4814 C 456.218 -1.88181 -1.30846 0
M  V30 4815 C 457.218 -0.757079 -1.41862 0
M  V30 4816 O 458.408 -1.02519 -1.40838 0
M  V30 4817 C 455.54 -2.09609 -2.68844 0
M  V30 4818 H 456.733 -2.81659 -1.02997 0
M  V30 4819 H 454.286 -1.48039 -0.501414 0
M  V30 4820 H 455.021 -1.18547 -3.01856 0
M  V30 4821 H 454.806 -2.91508 -2.62231 0
M  V30 4822 H 456.296 -2.36215 -3.44372 0
M  V30 4823 N 456.733 0.527833 -1.48498 0
M  V30 4824 C 457.681 1.65313 -1.63628 0
M  V30 4825 C 458.675 1.6177 -0.502676 0
M  V30 4826 O 459.881 1.66601 -0.681469 0
M  V30 4827 H 456.256 0.547518 -0.515488 0
M  V30 4828 H 458.227 1.49696 -2.58135 0
M  V30 4829 C 456.976 3.03576 -1.6952 0
M  V30 4830 H 456.299 3.06997 -2.56111 0
M  V30 4831 H 457.739 3.81923 -1.84149 0
M  V30 4832 C 456.198 3.34089 -0.43432 0
M  V30 4833 O 456.728 3.99151 0.451852 0
M  V30 4834 N 454.934 2.88991 -0.305368 0
M  V30 4835 H 454.481 2.36222 -1.02747 0
M  V30 4836 H 454.439 3.09776 0.537249 0
M  V30 4837 N 458.211 1.37122 0.776871 0
M  V30 4838 C 459.488 1.22586 1.52421 0
M  V30 4839 C 459.868 -0.182726 2.10308 0
M  V30 4840 O 459.216 -1.18979 1.9508 0
M  V30 4841 C 459.426 2.31782 2.60918 0
M  V30 4842 C 460.774 2.69071 3.2846 0
M  V30 4843 O 461.798 2.3092 2.71209 0
M  V30 4844 O 460.657 3.3478 4.31954 0
M  V30 4845 H 457.751 0.478045 0.674835 0
M  V30 4846 H 460.297 1.48888 0.814275 0
M  V30 4847 H 459.069 3.26131 2.16227 0
M  V30 4848 H 458.692 2.06916 3.39517 0
M  V30 4849 N 459.689 -1.00246 1.21608 0
M  V30 4850 C 460.636 -2.09073 0.977613 0
M  V30 4851 C 461.606 -1.65815 -0.097297 0
M  V30 4852 O 462.791 -1.90734 0.0503445 0
M  V30 4853 C 459.931 -3.40671 0.551133 0
M  V30 4854 C 459.044 -3.97326 1.69576 0
M  V30 4855 C 458.179 -5.17043 1.2182 0
M  V30 4856 C 457.218 -5.65813 2.335 0
M  V30 4857 N 456.355 -6.76778 1.86859 0
M  V30 4858 H 461.195 -2.28806 1.90924 0
M  V30 4859 H 458.732 -1.12186 0.951452 0
M  V30 4860 H 460.69 -4.16225 0.285097 0
M  V30 4861 H 459.32 -3.20967 -0.343489 0
M  V30 4862 H 458.372 -3.18734 2.07637 0
M  V30 4863 H 459.684 -4.29511 2.53617 0
M  V30 4864 H 458.838 -5.99852 0.908975 0
M  V30 4865 H 457.577 -4.86458 0.347869 0
M  V30 4866 H 456.582 -4.81599 2.65222 0
M  V30 4867 H 457.807 -5.98427 3.21033 0
M  V30 4868 H 455.753 -6.47994 1.02174 0
M  V30 4869 H 455.67 -7.08231 2.64471 0
M  V30 4870 H 456.938 -7.63116 1.58978 0
M  V30 4871 N 461.167 -1.02423 -1.1978 0
M  V30 4872 C 462.395 -0.737456 -1.93311 0
M  V30 4873 C 462.81 0.703023 -1.75223 0
M  V30 4874 O 462.167 1.47761 -1.07112 0
M  V30 4875 C 462.218 -1.0733 -3.45199 0
M  V30 4876 O 461.939 -2.4572 -3.62702 0
M  V30 4877 C 463.44 -0.80866 -4.35862 0
M  V30 4878 H 460.66 -0.2702 -0.614193 0
M  V30 4879 H 463.204 -1.36747 -1.52054 0
M  V30 4880 H 461.359 -0.488545 -3.84307 0
M  V30 4881 H 461.773 -2.58081 -4.56612 0
M  V30 4882 H 463.247 -1.09365 -5.41057 0
M  V30 4883 H 463.724 0.257025 -4.38447 0
M  V30 4884 H 464.33 -1.37592 -4.02428 0
M  V30 4885 N 462.645 1.35699 -0.801477 0
M  V30 4886 C 463.575 2.32436 -0.222658 0
M  V30 4887 C 464.556 1.5723 0.649057 0
M  V30 4888 O 465.741 1.85324 0.580387 0
M  V30 4889 C 462.871 3.41469 0.633719 0
M  V30 4890 C 461.825 4.27774 -0.139083 0
M  V30 4891 C 461.151 5.28082 0.838666 0
M  V30 4892 C 462.451 5.04946 -1.33517 0
M  V30 4893 H 464.145 2.81094 -1.03086 0
M  V30 4894 H 461.691 1.35146 -0.497155 0
M  V30 4895 H 463.644 4.08143 1.04868 0
M  V30 4896 H 462.368 2.91408 1.47475 0
M  V30 4897 H 461.027 3.62673 -0.535156 0
M  V30 4898 H 460.675 4.7429 1.67506 0
M  V30 4899 H 460.375 5.86695 0.32594 0
M  V30 4900 H 461.899 5.97628 1.25194 0
M  V30 4901 H 463.313 5.64593 -0.995349 0
M  V30 4902 H 461.71 5.7303 -1.78202 0
M  V30 4903 H 462.78 4.35886 -2.12442 0
M  V30 4904 N 464.123 0.554532 1.47522 0
M  V30 4905 C 465.353 0.0342074 2.06572 0
M  V30 4906 C 465.761 -1.26375 1.40805 0
M  V30 4907 O 465.104 -1.7683 0.49769 0
M  V30 4908 C 465.166 -0.235096 3.5873 0
M  V30 4909 C 464.83 0.973024 4.46521 0
M  V30 4910 C 465.827 1.8779 4.848 0
M  V30 4911 C 463.512 1.18694 4.88075 0
M  V30 4912 C 465.506 2.98039 5.63428 0
M  V30 4913 C 463.193 2.29254 5.66468 0
M  V30 4914 C 464.191 3.18757 6.04055 0
M  V30 4915 O 463.879 4.27401 6.8087 0
M  V30 4916 H 463.611 0.041587 0.67472 0
M  V30 4917 H 466.165 0.766748 1.90552 0
M  V30 4918 H 464.395 -1.02191 3.72953 0
M  V30 4919 H 466.084 -0.700477 3.9981 0
M  V30 4920 H 466.85 1.72467 4.53299 0
M  V30 4921 H 462.729 0.49947 4.58286 0
M  V30 4922 H 466.273 3.67926 5.92685 0
M  V30 4923 H 462.17 2.4455 5.97382 0
M  V30 4924 H 462.938 4.25415 6.9926 0
M  V30 4925 N 465.601 -1.54893 0.290851 0
M  V30 4926 C 467.012 -1.85584 -0.203816 0
M  V30 4927 C 467.363 -1.21285 -1.54222 0
M  V30 4928 O 466.488 -0.506841 -2.10381 0
M  V30 4929 C 467.083 -3.367 -0.376595 0
M  V30 4930 C 465.642 -3.6746 -0.815485 0
M  V30 4931 C 464.789 -2.77178 0.0821087 0
M  V30 4932 H 467.74 -1.50208 0.512175 0
M  V30 4933 H 467.761 -3.60656 -1.21275 0
M  V30 4934 H 467.273 -3.8347 0.59767 0
M  V30 4935 H 465.374 -3.26201 -1.80066 0
M  V30 4936 H 465.487 -4.7478 -0.641905 0
M  V30 4937 H 463.851 -2.50925 -0.436895 0
M  V30 4938 H 464.634 -3.26767 1.05254 0
M  V30 4939 N 467.08 -0.0183926 -1.57589 0
M  V30 4940 C 468.357 0.700621 -1.82622 0
M  V30 4941 C 468.737 1.90951 -0.90005 0
M  V30 4942 O 468.085 2.28452 0.0469145 0
M  V30 4943 C 468.295 1.08899 -3.31575 0
M  V30 4944 C 469.643 1.48514 -3.9778 0
M  V30 4945 O 470.667 1.18227 -3.36007 0
M  V30 4946 O 469.526 2.04903 -5.06633 0
M  V30 4947 H 466.62 0.342743 -0.752633 0
M  V30 4948 H 469.166 -0.0452548 -1.6964 0
M  V30 4949 H 467.938 0.228113 -3.90635 0
M  V30 4950 H 467.561 1.89338 -3.49624 0
M  V30 4951 N 468.558 1.5553 0.254621 0
M  V30 4952 C 469.521 1.88872 1.29846 0
M  V30 4953 C 470.521 0.764591 1.41459 0
M  V30 4954 O 471.711 1.03265 1.40293 0
M  V30 4955 C 468.843 2.11032 2.67728 0
M  V30 4956 H 470.036 2.82201 1.01502 0
M  V30 4957 H 467.589 1.48303 0.493556 0
M  V30 4958 H 468.324 1.20146 3.01223 0
M  V30 4959 H 468.109 2.92895 2.60682 0
M  V30 4960 H 469.599 2.38038 3.43115 0
M  V30 4961 N 470.036 -0.519951 1.48776 0
M  V30 4962 C 470.946 -1.65025 1.66745 0
M  V30 4963 C 471.962 -1.6508 0.549954 0
M  V30 4964 O 473.138 -1.83848 0.822295 0
M  V30 4965 C 470.203 -3.0146 1.71238 0
M  V30 4966 C 469.264 -3.12182 2.94688 0
M  V30 4967 C 468.497 -4.42109 2.98958 0
M  V30 4968 O 468.72 -5.29799 2.1135 0
M  V30 4969 O 467.654 -4.57406 3.91233 0
M  V30 4970 H 471.48 -1.52801 2.62461 0
M  V30 4971 H 469.065 -0.694157 1.32294 0
M  V30 4972 H 470.947 -3.82584 1.76657 0
M  V30 4973 H 469.622 -3.13988 0.786975 0
M  V30 4974 H 468.529 -2.30316 2.94797 0
M  V30 4975 H 469.862 -3.04574 3.86646 0
M  V30 4976 N 471.514 -1.37532 -0.769588 0
M  V30 4977 C 472.742 -1.36059 -1.55871 0
M  V30 4978 C 473.157 0.053544 -1.88724 0
M  V30 4979 O 472.514 1.01591 -1.5161 0
M  V30 4980 C 472.565 -2.20107 -2.86767 0
M  V30 4981 O 472.286 -3.56009 -2.55321 0
M  V30 4982 C 473.787 -2.26636 -3.80987 0
M  V30 4983 H 471.007 -0.465967 -0.482821 0
M  V30 4984 H 473.551 -1.80901 -0.953686 0
M  V30 4985 H 471.706 -1.78768 -3.43687 0
M  V30 4986 H 472.12 -4.0009 -3.39158 0
M  V30 4987 H 473.594 -2.89763 -4.69831 0
M  V30 4988 H 474.071 -1.2754 -4.20274 0
M  V30 4989 H 474.677 -2.68296 -3.29996 0
M  V30 4990 N 472.992 0.995999 -1.22138 0
M  V30 4991 C 474.241 1.72928 -1.03821 0
M  V30 4992 C 474.554 1.90872 0.427444 0
M  V30 4993 O 475.76 2.61496 0.730212 0
M  V30 4994 C 474.216 3.11124 -1.80913 0
M  V30 4995 C 473.824 3.01122 -3.31707 0
M  V30 4996 C 475.568 3.8852 -1.71035 0
M  V30 4997 C 473.475 4.34453 -4.01253 0
M  V30 4998 H 472.405 0.648376 -0.384869 0
M  V30 4999 H 475.056 1.11213 -1.45959 0
M  V30 5000 H 473.438 3.73503 -1.31573 0
M  V30 5001 H 474.612 2.47926 -3.88419 0
M  V30 5002 H 472.927 2.3721 -3.42228 0
M  V30 5003 H 475.524 4.872 -2.20318 0
M  V30 5004 H 475.867 4.1087 -0.670196 0
M  V30 5005 H 476.4 3.32812 -2.17902 0
M  V30 5006 H 473.139 4.17303 -5.05508 0
M  V30 5007 H 472.659 4.87574 -3.49331 0
M  V30 5008 H 474.338 5.03215 -4.06674 0
M  V30 5009 N 474.47 1.03057 1.19235 0
M  V30 5010 C 475.417 0.612832 2.22515 0
M  V30 5011 C 476.387 -0.374224 1.61829 0
M  V30 5012 O 477.572 -0.270501 1.88873 0
M  V30 5013 C 474.712 -0.028475 3.45088 0
M  V30 5014 C 473.825 1.00483 4.20151 0
M  V30 5015 C 472.96 0.333102 5.30155 0
M  V30 5016 C 471.999 1.3522 5.96977 0
M  V30 5017 N 471.136 0.70616 6.9854 0
M  V30 5018 H 475.976 1.49812 2.57605 0
M  V30 5019 H 473.513 0.749658 1.26564 0
M  V30 5020 H 475.471 -0.417548 4.15105 0
M  V30 5021 H 474.101 -0.877334 3.10649 0
M  V30 5022 H 473.153 1.51194 3.49062 0
M  V30 5023 H 474.465 1.77929 4.65986 0
M  V30 5024 H 473.619 -0.110725 6.06599 0
M  V30 5025 H 472.358 -0.473547 4.85396 0
M  V30 5026 H 471.363 1.80627 5.19282 0
M  V30 5027 H 472.588 2.16037 6.4382 0
M  V30 5028 H 470.534 -0.0803667 6.55951 0
M  V30 5029 H 470.451 1.41848 7.42573 0
M  V30 5030 H 471.719 0.286391 7.78974 0
M  V30 5031 N 475.948 -1.35272 0.808662 0
M  V30 5032 C 476.896 -2.31663 0.208606 0
M  V30 5033 C 477.89 -1.56731 -0.642778 0
M  V30 5034 O 479.096 -1.71843 -0.53571 0
M  V30 5035 H 475.471 -0.750421 0.0486993 0
M  V30 5036 H 477.442 -2.79814 1.03666 0
M  V30 5037 C 476.191 -3.42008 -0.626573 0
M  V30 5038 H 475.514 -3.99795 0.0192103 0
M  V30 5039 H 476.954 -4.11727 -1.01278 0
M  V30 5040 C 475.413 -2.85226 -1.79298 0
M  V30 5041 O 475.943 -2.78945 -2.89055 0
M  V30 5042 N 474.149 -2.42245 -1.60516 0
M  V30 5043 H 473.696 -2.47554 -0.712375 0
M  V30 5044 H 473.654 -2.04603 -2.38715 0
M  V30 5045 N 477.426 -0.562348 -1.47226 0
M  V30 5046 C 478.674 -0.0401371 -2.0206 0
M  V30 5047 C 478.995 1.3165 -1.43852 0
M  V30 5048 O 478.265 1.85976 -0.615599 0
M  V30 5049 H 476.845 -0.0118479 -0.746906 0
M  V30 5050 H 479.507 -0.73352 -1.8057 0
M  V30 5051 H 478.603 0.0441254 -3.12069 0
M  V30 5052 N 478.904 1.54736 -0.299062 0
M  V30 5053 C 479.814 2.27127 0.587413 0
M  V30 5054 C 480.83 1.30575 1.15005 0
M  V30 5055 O 482.006 1.63554 1.17525 0
M  V30 5056 C 479.071 2.99645 1.74395 0
M  V30 5057 C 478.132 4.11731 1.21559 0
M  V30 5058 C 477.365 4.80781 2.317 0
M  V30 5059 O 477.588 4.4918 3.51558 0
M  V30 5060 O 476.522 5.68226 1.98501 0
M  V30 5061 H 480.348 3.037 0.000250109 0
M  V30 5062 H 477.933 1.49256 -0.0655919 0
M  V30 5063 H 479.815 3.45138 2.4178 0
M  V30 5064 H 478.49 2.25969 2.31775 0
M  V30 5065 H 477.397 3.70641 0.507514 0
M  V30 5066 H 478.73 4.87379 0.687233 0
M  V30 5067 N 480.382 0.0267497 1.57577 0
M  V30 5068 C 481.628 -0.647596 1.92815 0
M  V30 5069 C 481.983 -1.69872 0.903396 0
M  V30 5070 O 481.276 -1.91429 -0.0808881 0
M  V30 5071 C 481.47 -1.30914 3.3256 0
M  V30 5072 C 481.299 -0.323621 4.48534 0
M  V30 5073 C 480.069 0.0756607 5.05243 0
M  V30 5074 C 482.267 0.42112 5.12573 0
M  V30 5075 N 480.249 1.0566 6.04739 0
M  V30 5076 C 481.62 1.25589 6.07147 0
M  V30 5077 C 483.675 0.482077 4.95561 0
M  V30 5078 C 482.378 2.1461 6.86538 0
M  V30 5079 C 484.404 1.35962 5.75559 0
M  V30 5080 C 483.766 2.18217 6.69747 0
M  V30 5081 H 479.865 -0.209357 0.753454 0
M  V30 5082 H 482.449 0.0933695 1.94476 0
M  V30 5083 H 480.62 -2.02026 3.31723 0
M  V30 5084 H 482.352 -1.94033 3.55153 0
M  V30 5085 H 479.107 -0.298294 4.7266 0
M  V30 5086 H 479.531 1.54324 6.59176 0
M  V30 5087 H 484.173 -0.139609 4.22569 0
M  V30 5088 H 481.891 2.77835 7.58837 0
M  V30 5089 H 485.477 1.41105 5.6443 0
M  V30 5090 H 484.357 2.85022 7.3057 0
M  V30 5091 N 481.861 -1.55662 -0.24637 0
M  V30 5092 C 482.793 -1.86811 -1.32794 0
M  V30 5093 C 483.806 -0.754413 -1.44265 0
M  V30 5094 O 484.995 -1.03253 -1.45606 0
M  V30 5095 C 482.095 -2.0397 -2.70646 0
M  V30 5096 C 481.268 -3.34832 -2.81436 0
M  V30 5097 C 480.327 -3.41727 -4.00136 0
M  V30 5098 O 479.353 -4.14934 -3.89639 0
M  V30 5099 N 480.555 -2.71058 -5.1333 0
M  V30 5100 H 483.32 -2.80174 -1.06409 0
M  V30 5101 H 480.881 -1.55906 -0.43647 0
M  V30 5102 H 482.873 -2.05924 -3.48393 0
M  V30 5103 H 481.443 -1.1735 -2.89738 0
M  V30 5104 H 480.663 -3.4519 -1.90361 0
M  V30 5105 H 481.951 -4.21085 -2.85595 0
M  V30 5106 H 481.349 -2.11314 -5.2475 0
M  V30 5107 H 479.906 -2.78704 -5.89209 0
M  V30 5108 N 483.339 0.512053 -1.4905 0
M  V30 5109 C 484.287 1.63568 -1.65373 0
M  V30 5110 C 485.281 1.61228 -0.519806 0
M  V30 5111 O 486.487 1.65869 -0.699101 0
M  V30 5112 H 482.862 0.542019 -0.521267 0
M  V30 5113 H 484.833 1.4695 -2.59708 0
M  V30 5114 C 483.582 3.01761 -1.7273 0
M  V30 5115 H 482.905 3.04263 -2.59353 0
M  V30 5116 H 484.345 3.79948 -1.8819 0
M  V30 5117 C 482.804 3.33609 -0.46973 0
M  V30 5118 O 483.334 3.99607 0.409492 0
M  V30 5119 N 481.54 2.88651 -0.336003 0
M  V30 5120 H 481.087 2.35119 -1.05247 0
M  V30 5121 H 481.045 3.10328 0.504363 0
M  V30 5122 N 484.817 1.37938 0.762283 0
M  V30 5123 C 486.094 1.24196 1.51112 0
M  V30 5124 C 486.474 -0.160409 2.1049 0
M  V30 5125 O 485.822 -1.16904 1.96331 0
M  V30 5126 C 486.032 2.34537 2.58445 0
M  V30 5127 C 487.38 2.7254 3.25588 0
M  V30 5128 O 488.404 2.33783 2.68745 0
M  V30 5129 O 487.263 3.39343 4.28379 0
M  V30 5130 H 484.357 0.485175 0.669727 0
M  V30 5131 H 486.903 1.49743 0.798438 0
M  V30 5132 H 485.675 3.28406 2.12756 0
M  V30 5133 H 485.298 2.10505 3.37303 0
M  V30 5134 N 486.295 -0.989507 1.22664 0
M  V30 5135 C 487.541 -1.7321 1.05481 0
M  V30 5136 C 487.874 -1.89852 -0.408635 0
M  V30 5137 O 487.149 -1.44416 -1.30285 0
M  V30 5138 C 487.432 -3.1357 1.77047 0
M  V30 5139 C 487.285 -3.04555 3.31008 0
M  V30 5140 C 488.604 -4.12812 1.5256 0
M  V30 5141 H 485.723 -0.628697 0.384589 0
M  V30 5142 H 488.365 -1.15258 1.51049 0
M  V30 5143 H 486.515 -3.63046 1.3831 0
M  V30 5144 H 488.187 -2.62674 3.7921 0
M  V30 5145 H 486.43 -2.41278 3.6051 0
M  V30 5146 H 487.101 -4.03894 3.76263 0
M  V30 5147 H 489.577 -3.72106 1.86215 0
M  V30 5148 H 488.453 -5.09132 2.05124 0
M  V30 5149 H 488.714 -4.39711 0.458936 0
M  V30 5150 N 487.773 -1.03688 -1.18687 0
M  V30 5151 C 489.021 -0.736572 -1.88199 0
M  V30 5152 C 489.342 0.737665 -1.80509 0
M  V30 5153 O 488.612 1.53204 -1.22088 0
M  V30 5154 H 487.192 -0.269466 -0.696704 0
M  V30 5155 H 489.854 -1.31282 -1.44052 0
M  V30 5156 H 488.95 -1.03802 -2.94332 0
M  V30 5157 N 489.251 1.34841 -0.815825 0
M  V30 5158 C 490.214 2.27959 -0.238185 0
M  V30 5159 C 491.214 1.49983 0.579816 0
M  V30 5160 O 492.404 1.69617 0.396953 0
M  V30 5161 C 489.536 3.34314 0.666876 0
M  V30 5162 H 490.729 2.80558 -1.05958 0
M  V30 5163 H 488.282 1.44852 -0.587156 0
M  V30 5164 H 489.017 2.86916 1.5116 0
M  V30 5165 H 488.802 3.92014 0.0819106 0
M  V30 5166 H 490.292 4.0379 1.06506 0
M  V30 5167 N 490.729 0.570148 1.46925 0
M  V30 5168 C 491.692 -0.159933 2.28641 0
M  V30 5169 C 492.692 -0.830638 1.37685 0
M  V30 5170 O 493.882 -0.684516 1.60187 0
M  V30 5171 C 491.014 -1.2354 3.17727 0
M  V30 5172 H 492.207 0.558035 2.94662 0
M  V30 5173 H 489.76 0.327603 1.52828 0
M  V30 5174 H 490.495 -1.98535 2.56426 0
M  V30 5175 H 490.28 -0.759125 3.84681 0
M  V30 5176 H 491.77 -1.74782 3.79264 0
M  V30 5177 N 492.207 -1.54576 0.307264 0
M  V30 5178 C 493.432 -2.05139 -0.305379 0
M  V30 5179 C 493.857 -1.18278 -1.46259 0
M  V30 5180 O 493.215 -0.188243 -1.8032 0
M  V30 5181 C 493.263 -3.53066 -0.733283 0
M  V30 5182 O 492.367 -3.69206 -1.83741 0
M  V30 5183 H 491.708 -0.661444 -0.0582105 0
M  V30 5184 H 494.238 -1.99569 0.450931 0
M  V30 5185 H 494.248 -3.95034 -1.02039 0
M  V30 5186 H 492.923 -4.15746 0.113198 0
M  V30 5187 H 491.5 -3.39143 -1.55037 0
M  V30 5188 N 493.685 -0.035106 -1.57561 0
M  V30 5189 C 494.91 0.655802 -1.96759 0
M  V30 5190 C 495.335 1.64523 -0.911809 0
M  V30 5191 O 494.693 1.80857 0.126673 0
M  V30 5192 C 494.741 1.33326 -3.35047 0
M  V30 5193 O 493.845 2.44866 -3.31835 0
M  V30 5194 H 493.186 0.171807 -0.641388 0
M  V30 5195 H 495.716 -0.0987369 -2.04362 0
M  V30 5196 H 495.726 1.68867 -3.71413 0
M  V30 5197 H 494.401 0.608033 -4.11431 0
M  V30 5198 H 492.978 2.11392 -3.07193 0
M  V30 5199 N 495.163 1.55791 0.238111 0
M  V30 5200 C 496.412 1.77234 0.962868 0
M  V30 5201 C 496.725 0.600661 1.86149 0
M  V30 5202 O 497.931 0.698315 2.62366 0
M  V30 5203 C 496.387 3.13808 1.76218 0
M  V30 5204 C 495.995 4.3865 0.910518 0
M  V30 5205 C 497.739 3.44585 2.47914 0
M  V30 5206 C 495.646 5.66252 1.70623 0
M  V30 5207 H 494.576 0.660731 0.36325 0
M  V30 5208 H 497.227 1.8221 0.217242 0
M  V30 5209 H 495.609 3.02963 2.55009 0
M  V30 5210 H 496.783 4.60507 0.164316 0
M  V30 5211 H 495.098 4.15271 0.30647 0
M  V30 5212 H 497.695 4.3714 3.07917 0
M  V30 5213 H 498.038 2.66314 3.19973 0
M  V30 5214 H 498.571 3.56685 1.76127 0
M  V30 5215 H 495.31 6.47369 1.02923 0
M  V30 5216 H 494.83 5.48483 2.42748 0
M  V30 5217 H 496.509 6.05829 2.27114 0
M  V30 5218 N 496.642 -0.504142 1.49319 0
M  V30 5219 C 497.872 -1.28071 1.62116 0
M  V30 5220 C 498.28 -1.86955 0.290566 0
M  V30 5221 O 497.623 -1.68415 -0.733616 0
M  V30 5222 C 497.685 -2.4521 2.62893 0
M  V30 5223 C 497.349 -2.07218 4.0732 0
M  V30 5224 C 498.346 -1.61375 4.94221 0
M  V30 5225 C 496.031 -2.16949 4.53033 0
M  V30 5226 C 498.025 -1.25763 6.2487 0
M  V30 5227 C 495.712 -1.80949 5.83696 0
M  V30 5228 C 496.71 -1.3543 6.69438 0
M  V30 5229 O 496.398 -0.99915 7.97667 0
M  V30 5230 H 496.13 -0.394763 0.54876 0
M  V30 5231 H 498.684 -0.612118 1.96067 0
M  V30 5232 H 496.914 -3.15134 2.24115 0
M  V30 5233 H 498.603 -3.0724 2.65252 0
M  V30 5234 H 499.369 -1.53306 4.60133 0
M  V30 5235 H 495.248 -2.5133 3.86463 0
M  V30 5236 H 498.792 -0.901631 6.91749 0
M  V30 5237 H 494.689 -1.88667 6.17313 0
M  V30 5238 H 495.457 -1.13089 8.1065 0
M  V30 5239 N 498.12 -1.38341 -0.754957 0
M  V30 5240 C 499.03 -1.3769 -1.89944 0
M  V30 5241 C 500.046 -0.274194 -1.71826 0
M  V30 5242 O 501.222 -0.512391 -1.94773 0
M  V30 5243 C 498.287 -1.19938 -3.25293 0
M  V30 5244 C 497.348 -2.40001 -3.55946 0
M  V30 5245 C 496.581 -2.23087 -4.84838 0
M  V30 5246 O 496.804 -1.22386 -5.57116 0
M  V30 5247 O 495.738 -3.11646 -5.14937 0
M  V30 5248 H 499.564 -2.3412 -1.93446 0
M  V30 5249 H 497.149 -1.19246 -0.900044 0
M  V30 5250 H 499.031 -1.12093 -4.06218 0
M  V30 5251 H 497.706 -0.265919 -3.22606 0
M  V30 5252 H 496.613 -2.53421 -2.75188 0
M  V30 5253 H 497.946 -3.31973 -3.63394 0
M  V30 5254 N 499.598 0.982988 -1.23187 0
M  V30 5255 C 500.508 2.10907 -1.02739 0
M  V30 5256 C 501.524 1.73979 0.0273188 0
M  V30 5257 O 502.7 2.00702 -0.16757 0
M  V30 5258 C 499.765 3.41142 -0.618304 0
M  V30 5259 C 498.826 3.92112 -1.74777 0
M  V30 5260 C 498.059 5.16131 -1.3581 0
M  V30 5261 O 498.282 5.6989 -0.241201 0
M  V30 5262 O 497.216 5.61103 -2.17824 0
M  V30 5263 H 501.042 2.31046 -1.97108 0
M  V30 5264 H 498.627 1.09284 -1.01869 0
M  V30 5265 H 500.509 4.19488 -0.400982 0
M  V30 5266 H 499.184 3.2234 0.296421 0
M  V30 5267 H 498.091 3.14895 -2.0197 0
M  V30 5268 H 499.424 4.15364 -2.64071 0
M  V30 5269 N 501.076 1.04316 1.18135 0
M  V30 5270 C 502.306 0.767003 1.91835 0
M  V30 5271 C 502.714 -0.68002 1.76557 0
M  V30 5272 O 502.057 -1.47548 1.09432 0
M  V30 5273 C 502.119 1.05674 3.43618 0
M  V30 5274 C 501.783 2.49818 3.82675 0
M  V30 5275 C 502.78 3.48003 3.86251 0
M  V30 5276 C 500.465 2.84596 4.13897 0
M  V30 5277 C 502.459 4.79016 4.20503 0
M  V30 5278 C 500.146 4.15813 4.4782 0
M  V30 5279 C 501.144 5.12834 4.51099 0
M  V30 5280 O 500.832 6.41699 4.84229 0
M  V30 5281 H 500.564 0.278948 0.615763 0
M  V30 5282 H 503.118 1.3946 1.50798 0
M  V30 5283 H 501.348 0.372029 3.84906 0
M  V30 5284 H 503.037 0.767994 3.98568 0
M  V30 5285 H 503.803 3.22475 3.62264 0
M  V30 5286 H 499.682 2.09748 4.1052 0
M  V30 5287 H 503.226 5.54739 4.22978 0
M  V30 5288 H 499.123 4.41109 4.71268 0
M  V30 5289 H 499.891 6.46387 5.02121 0
M  V30 5290 N 502.554 -1.34406 0.822964 0
M  V30 5291 C 503.784 -2.02214 0.423424 0
M  V30 5292 C 504.192 -1.62124 -0.975322 0
M  V30 5293 O 503.535 -0.822452 -1.6426 0
M  V30 5294 C 503.597 -3.56721 0.446107 0
M  V30 5295 C 503.261 -4.20136 1.79819 0
M  V30 5296 C 504.258 -4.4065 2.75904 0
M  V30 5297 C 501.943 -4.56906 2.08669 0
M  V30 5298 C 503.937 -4.9706 3.99012 0
M  V30 5299 C 501.624 -5.13026 3.32036 0
M  V30 5300 C 502.622 -5.33047 4.27024 0
M  V30 5301 O 502.31 -5.87979 5.48211 0
M  V30 5302 H 502.042 -0.654748 0.168169 0
M  V30 5303 H 504.596 -1.72659 1.11257 0
M  V30 5304 H 502.826 -3.85537 -0.299734 0
M  V30 5305 H 504.515 -4.05845 0.0666114 0
M  V30 5306 H 505.281 -4.12607 2.54912 0
M  V30 5307 H 501.16 -4.40626 1.35535 0
M  V30 5308 H 504.704 -5.12603 4.73164 0
M  V30 5309 H 500.601 -5.40498 3.52891 0
M  V30 5310 H 501.369 -6.06413 5.49732 0
M  V30 5311 N 504.032 -0.577932 -1.46621 0
M  V30 5312 C 504.964 0.195801 -2.28362 0
M  V30 5313 C 505.977 0.859983 -1.38232 0
M  V30 5314 O 507.166 0.730349 -1.62875 0
M  V30 5315 C 504.266 1.29639 -3.13124 0
M  V30 5316 C 503.439 0.725049 -4.31349 0
M  V30 5317 C 502.498 1.71274 -4.97546 0
M  V30 5318 O 501.524 1.25067 -5.5529 0
M  V30 5319 N 502.726 3.04672 -4.94121 0
M  V30 5320 H 505.491 -0.505468 -2.95407 0
M  V30 5321 H 503.052 -0.415381 -1.56481 0
M  V30 5322 H 505.044 1.95631 -3.54275 0
M  V30 5323 H 503.614 1.90059 -2.48186 0
M  V30 5324 H 502.834 -0.112205 -3.9404 0
M  V30 5325 H 504.122 0.323034 -5.07774 0
M  V30 5326 H 503.52 3.4484 -4.48444 0
M  V30 5327 H 502.077 3.66166 -5.39227 0
M  V30 5328 N 505.51 1.54411 -0.315457 0
M  V30 5329 C 506.457 2.24048 0.554166 0
M  V30 5330 C 507.427 1.2283 1.11812 0
M  V30 5331 O 508.612 1.51491 1.15997 0
M  V30 5332 C 505.752 2.99574 1.71316 0
M  V30 5333 C 504.865 4.15594 1.17922 0
M  V30 5334 C 504 4.78669 2.30324 0
M  V30 5335 C 503.039 5.86807 1.74137 0
M  V30 5336 N 502.176 6.43777 2.8017 0
M  V30 5337 H 507.016 2.97964 -0.0462602 0
M  V30 5338 H 504.553 1.47059 -0.0346009 0
M  V30 5339 H 506.511 3.41604 2.39505 0
M  V30 5340 H 505.141 2.28008 2.285 0
M  V30 5341 H 504.193 3.78404 0.389136 0
M  V30 5342 H 505.505 4.93459 0.728012 0
M  V30 5343 H 504.659 5.23626 3.06433 0
M  V30 5344 H 503.398 4.00168 2.78778 0
M  V30 5345 H 502.403 5.41261 0.965236 0
M  V30 5346 H 503.628 6.67201 1.2657 0
M  V30 5347 H 501.574 5.68153 3.2793 0
M  V30 5348 H 501.491 7.17031 2.39588 0
M  V30 5349 H 502.759 6.9339 3.56132 0
M  V30 5350 N 506.988 0.0434614 1.5754 0
M  V30 5351 C 507.918 -0.931651 2.14109 0
M  V30 5352 C 508.899 -1.32971 1.06079 0
M  V30 5353 O 510.084 -1.40579 1.33982 0
M  V30 5354 C 507.214 -2.20914 2.67982 0
M  V30 5355 C 506.168 -1.95139 3.80926 0
M  V30 5356 C 505.494 -3.29276 4.21285 0
M  V30 5357 C 506.794 -1.27913 5.06395 0
M  V30 5358 H 508.488 -0.460497 2.95837 0
M  V30 5359 H 506.034 -0.220058 1.42309 0
M  V30 5360 H 507.987 -2.89522 3.06194 0
M  V30 5361 H 506.711 -2.70221 1.83434 0
M  V30 5362 H 505.37 -1.28945 3.43175 0
M  V30 5363 H 505.018 -3.76369 3.33699 0
M  V30 5364 H 504.718 -3.12831 4.97404 0
M  V30 5365 H 506.242 -3.99129 4.62091 0
M  V30 5366 H 507.656 -1.86544 5.42102 0
M  V30 5367 H 506.053 -1.2182 5.87605 0
M  V30 5368 H 507.123 -0.254066 4.84234 0
M  V30 5369 N 508.466 -1.55915 -0.229846 0
M  V30 5370 C 509.413 -1.91734 -1.28478 0
M  V30 5371 C 510.383 -0.773539 -1.46988 0
M  V30 5372 O 511.568 -1.02871 -1.60693 0
M  V30 5373 C 508.708 -2.23224 -2.63182 0
M  V30 5374 C 507.821 -3.50497 -2.52539 0
M  V30 5375 C 506.956 -3.71474 -3.79711 0
M  V30 5376 C 505.995 -4.92289 -3.63755 0
M  V30 5377 N 505.132 -5.09698 -4.82858 0
M  V30 5378 H 509.972 -2.81692 -0.972308 0
M  V30 5379 H 507.509 -1.39429 -0.468815 0
M  V30 5380 H 509.467 -2.3949 -3.41614 0
M  V30 5381 H 508.097 -1.36451 -2.92542 0
M  V30 5382 H 507.149 -3.4247 -1.65585 0
M  V30 5383 H 508.461 -4.39079 -2.36666 0
M  V30 5384 H 507.615 -3.87791 -4.66586 0
M  V30 5385 H 506.354 -2.81157 -3.985 0
M  V30 5386 H 505.359 -4.7593 -2.75264 0
M  V30 5387 H 506.584 -5.84083 -3.46445 0
M  V30 5388 H 504.53 -4.22322 -5.01976 0
M  V30 5389 H 504.447 -5.92399 -4.69681 0
M  V30 5390 H 505.715 -5.30443 -5.71183 0
M  V30 5391 N 509.944 0.496216 -1.49584 0
M  V30 5392 C 510.907 1.57952 -1.66084 0
M  V30 5393 C 511.907 1.51729 -0.53244 0
M  V30 5394 O 513.097 1.54796 -0.79899 0
M  V30 5395 C 510.229 2.97604 -1.66268 0
M  V30 5396 H 511.422 1.44649 -2.6271 0
M  V30 5397 H 508.975 0.7208 -1.38687 0
M  V30 5398 H 509.71 3.16378 -0.712432 0
M  V30 5399 H 509.495 3.03528 -2.4822 0
M  V30 5400 H 510.985 3.76301 -1.81073 0
M  V30 5401 N 511.423 1.38739 0.74761 0
M  V30 5402 C 512.671 1.35007 1.50391 0
M  V30 5403 C 512.992 -0.0574274 1.94915 0
M  V30 5404 O 512.262 -1.00628 1.6808 0
M  V30 5405 H 510.842 0.496784 0.557866 0
M  V30 5406 H 513.504 1.73479 0.888319 0
M  V30 5407 H 512.6 2.00474 2.392 0
M  V30 5408 N 512.901 -0.976442 1.23707 0
M  V30 5409 C 514.317 -1.24341 1.00058 0
M  V30 5410 C 514.517 -1.99315 -0.295932 0
M  V30 5411 O 513.573 -2.3123 -1.01435 0
M  V30 5412 C 514.886 -2.03909 2.21001 0
M  V30 5413 C 516.434 -2.17034 2.25534 0
M  V30 5414 C 516.909 -2.99994 3.46075 0
M  V30 5415 N 518.4 -3.07578 3.46338 0
M  V30 5416 C 519.135 -3.72104 4.36264 0
M  V30 5417 N 518.631 -4.3842 5.36432 0
M  V30 5418 N 520.424 -3.69029 4.23998 0
M  V30 5419 H 512.575 -0.47428 2.07037 0
M  V30 5420 H 514.838 -0.272167 0.908091 0
M  V30 5421 H 514.544 -1.56198 3.15111 0
M  V30 5422 H 514.418 -3.04654 2.22409 0
M  V30 5423 H 516.805 -2.63951 1.31961 0
M  V30 5424 H 516.886 -1.15664 2.28156 0
M  V30 5425 H 516.53 -2.53772 4.39957 0
M  V30 5426 H 516.46 -4.01541 3.40694 0
M  V30 5427 H 518.951 -2.60397 2.73865 0
M  V30 5428 H 519.264 -4.85447 6.013 0
M  V30 5429 H 517.609 -4.37116 5.40328 0
M  V30 5430 H 520.8 -3.16392 3.44984 0
M  V30 5431 H 520.973 -4.19034 4.94282 0
M  V30 5432 O 514.418 -1.17461 -1.10838 0
M  V30 5433 H 515.109 -0.912283 -1.70872 0
M  V30 END ATOM
M  V30 BEGIN BOND
M  V30 END BOND
M  V30 END CTAB
M  END
$$$$
