drugbank_target|P19624 4-hydroxythreonine-4-phosphate dehydrogenase (DB02609)
 OpenBabel12092119563D

  0  0  0     0  0            999 V3000
M  V30 BEGIN CTAB
M  V30 COUNTS 5000 5049 0 0 0
M  V30 BEGIN ATOM
M  V30 1 H -0.908 1.98254 -0.117106 0
M  V30 2 N 0 1.576 0 0
M  V30 3 C 0.933 2.03868 1.02534 0
M  V30 4 C 1.911 0.928543 1.3348 0
M  V30 5 O 3.095 1.19667 1.45644 0
M  V30 6 C 0.222 2.43627 2.35294 0
M  V30 7 C -0.732 3.65373 2.2001 0
M  V30 8 S 0.101 5.13292 1.52614 0
M  V30 9 C 1.257 5.56322 2.86805 0
M  V30 10 H 1.49 2.90518 0.631377 0
M  V30 11 H -0.977 1.52953 0.210867 0
M  V30 12 H 0.981 2.67203 3.11629 0
M  V30 13 H -0.358 1.57376 2.7183 0
M  V30 14 H -1.165 3.90944 3.18086 0
M  V30 15 H -1.563 3.418 1.51819 0
M  V30 16 H 0.729 5.58782 3.83104 0
M  V30 17 H 1.672 6.56266 2.65933 0
M  V30 18 H 2.08 4.83886 2.90714 0
M  V30 19 N 1.4781 -0.272755 1.55222 0
M  V30 20 C 2.7241 -1.00581 1.761 0
M  V30 21 C 3.0571 -1.85932 0.560625 0
M  V30 22 O 2.3321 -1.89416 -0.441801 0
M  V30 23 C 2.6151 -1.88816 3.06628 0
M  V30 24 C 2.4681 -1.06457 4.37021 0
M  V30 25 C 3.7871 -2.8752 3.33197 0
M  V30 26 H 0.9061 -0.364244 0.640699 0
M  V30 27 H 3.5481 -0.278189 1.87952 0
M  V30 28 H 1.6981 -2.50856 2.96654 0
M  V30 29 H 3.3701 -0.464863 4.58952 0
M  V30 30 H 1.6131 -0.368043 4.32236 0
M  V30 31 H 2.2841 -1.71514 5.24678 0
M  V30 32 H 4.7601 -2.35615 3.42965 0
M  V30 33 H 3.6361 -3.46399 4.25792 0
M  V30 34 H 3.8971 -3.62657 2.52849 0
M  V30 35 N 2.9562 -1.48159 -0.537278 0
M  V30 36 C 3.9032 -1.62138 -1.64256 0
M  V30 37 C 4.8732 -0.463668 -1.59497 0
M  V30 38 O 6.0582 -0.686241 -1.78032 0
M  V30 39 C 3.1982 -1.66028 -3.02537 0
M  V30 40 C 2.3112 -2.92855 -3.17585 0
M  V30 41 C 1.4462 -2.87952 -4.46382 0
M  V30 42 C 0.4852 -4.09516 -4.54932 0
M  V30 43 N -0.3778 -4.02733 -5.75109 0
M  V30 44 H 4.4622 -2.56529 -1.51647 0
M  V30 45 H 1.9992 -1.27224 -0.738414 0
M  V30 46 H 3.9572 -1.66265 -3.82638 0
M  V30 47 H 2.5872 -0.751331 -3.13934 0
M  V30 48 H 1.6392 -3.02395 -2.30784 0
M  V30 49 H 2.9512 -3.82822 -3.19764 0
M  V30 50 H 2.1052 -2.8655 -5.34765 0
M  V30 51 H 0.8442 -1.95702 -4.46712 0
M  V30 52 H -0.1508 -4.11201 -3.64957 0
M  V30 53 H 1.0742 -5.02917 -4.56346 0
M  V30 54 H -0.9798 -3.13299 -5.76351 0
M  V30 55 H -1.0628 -4.86397 -5.78752 0
M  V30 56 H 0.2052 -4.05379 -6.65799 0
M  V30 57 N 4.4343 0.785586 -1.36625 0
M  V30 58 C 5.6623 1.57448 -1.3423 0
M  V30 59 C 6.0773 1.88649 0.0755653 0
M  V30 60 O 5.4343 1.50414 1.03354 0
M  V30 61 C 5.4853 2.89316 -2.16745 0
M  V30 62 O 5.2063 2.59459 -3.53005 0
M  V30 63 C 6.7073 3.83606 -2.22174 0
M  V30 64 H 3.9273 0.488226 -0.4603 0
M  V30 65 H 6.4713 0.974733 -1.79775 0
M  V30 66 H 4.6263 3.4575 -1.74745 0
M  V30 67 H 5.0403 3.43804 -3.96105 0
M  V30 68 H 6.5143 4.73181 -2.8426 0
M  V30 69 H 6.9913 4.21734 -1.22627 0
M  V30 70 H 7.5973 3.33104 -2.64427 0
M  V30 71 N 5.9124 1.20967 1.01018 0
M  V30 72 C 6.8444 0.922059 2.09835 0
M  V30 73 C 7.8574 -0.0927106 1.62536 0
M  V30 74 O 9.0464 0.139127 1.77957 0
M  V30 75 C 6.1464 0.362004 3.36961 0
M  V30 76 C 5.3194 1.42986 4.13369 0
M  V30 77 C 4.3784 0.879976 5.1879 0
M  V30 78 O 3.4044 1.56219 5.47343 0
M  V30 79 N 4.6064 -0.307396 5.79686 0
M  V30 80 H 7.3714 1.8588 2.35093 0
M  V30 81 H 4.9324 1.11422 1.1746 0
M  V30 82 H 6.9244 -0.0201474 4.04695 0
M  V30 83 H 5.4944 -0.479437 3.08902 0
M  V30 84 H 4.7144 1.98608 3.40512 0
M  V30 85 H 6.0024 2.14885 4.61196 0
M  V30 86 H 5.4004 -0.878796 5.58832 0
M  V30 87 H 3.9574 -0.631115 6.48737 0
M  V30 88 N 7.3905 -1.2043 1.01659 0
M  V30 89 C 8.8065 -1.41852 0.731442 0
M  V30 90 C 9.0065 -1.89358 -0.688898 0
M  V30 91 O 8.0625 -2.06247 -1.45666 0
M  V30 92 C 9.3755 -2.44019 1.75714 0
M  V30 93 C 10.9235 -2.57785 1.77527 0
M  V30 94 C 11.3985 -3.63194 2.79023 0
M  V30 95 N 12.8895 -3.70678 2.77763 0
M  V30 96 C 13.6245 -4.51897 3.52954 0
M  V30 97 N 13.1205 -5.36921 4.37821 0
M  V30 98 N 14.9135 -4.4643 3.41551 0
M  V30 99 H 7.0645 -0.879093 1.93354 0
M  V30 100 H 9.3275 -0.448425 0.835236 0
M  V30 101 H 9.0335 -2.1611 2.77469 0
M  V30 102 H 8.9075 -3.43007 1.56927 0
M  V30 103 H 11.2945 -2.85023 0.764569 0
M  V30 104 H 11.3755 -1.58992 2.00387 0
M  V30 105 H 11.0195 -3.36699 3.80258 0
M  V30 106 H 10.9495 -4.61609 2.53425 0
M  V30 107 H 13.4405 -3.09944 2.16201 0
M  V30 108 H 13.7535 -5.95981 4.91962 0
M  V30 109 H 12.0985 -5.36424 4.41899 0
M  V30 110 H 15.2895 -3.79042 2.74672 0
M  V30 111 H 15.4625 -5.09491 4.00404 0
M  V30 112 N 8.8686 -0.792821 -1.36206 0
M  V30 113 C 10.1146 -0.36733 -1.99446 0
M  V30 114 C 10.4476 1.05917 -1.62774 0
M  V30 115 O 9.7226 1.7324 -0.88421 0
M  V30 116 C 10.0056 -0.535044 -3.56103 0
M  V30 117 C 9.8586 -2.00548 -4.02617 0
M  V30 118 C 11.1776 0.0478191 -4.40074 0
M  V30 119 H 8.2966 -0.134941 -0.724541 0
M  V30 120 H 10.9386 -0.999794 -1.61568 0
M  V30 121 H 9.0886 0.00336329 -3.885 0
M  V30 122 H 10.7606 -2.60521 -3.80692 0
M  V30 123 H 9.0036 -2.50686 -3.54032 0
M  V30 124 H 9.6746 -2.07377 -5.11565 0
M  V30 125 H 12.1506 -0.411822 -4.14057 0
M  V30 126 H 11.0266 -0.0995336 -5.4881 0
M  V30 127 H 11.2876 1.14025 -4.27142 0
M  V30 128 N 10.3467 1.47872 -0.545128 0
M  V30 129 C 11.5927 2.02793 -0.0166104 0
M  V30 130 C 11.9257 1.41987 1.32489 0
M  V30 131 O 11.2007 0.571045 1.85928 0
M  V30 132 C 11.4837 3.59989 0.0893294 0
M  V30 133 C 11.3367 4.3125 -1.27841 0
M  V30 134 C 12.6557 4.32606 0.808724 0
M  V30 135 H 9.7747 0.736962 -0.00751035 0
M  V30 136 H 12.4167 1.76433 -0.705085 0
M  V30 137 H 10.5667 3.82579 0.675681 0
M  V30 138 H 12.2387 4.20035 -1.90704 0
M  V30 139 H 10.4817 3.92076 -1.85632 0
M  V30 140 H 11.1527 5.39736 -1.15713 0
M  V30 141 H 13.6287 4.14936 0.310992 0
M  V30 142 H 12.5047 5.42251 0.851782 0
M  V30 143 H 12.7657 4.00963 1.86229 0
M  V30 144 N 11.8248 0.280983 1.55075 0
M  V30 145 C 13.0738 -0.334784 1.98902 0
M  V30 146 C 13.3868 -1.56534 1.17288 0
M  V30 147 O 14.5928 -2.25443 1.51287 0
M  V30 148 C 13.0488 -0.646994 3.54037 0
M  V30 149 C 12.6568 0.564085 4.44435 0
M  V30 150 C 14.4008 -1.22506 4.06439 0
M  V30 151 C 12.3078 0.226137 5.90967 0
M  V30 152 H 11.2378 -0.128866 0.742906 0
M  V30 153 H 13.8888 0.386556 1.79382 0
M  V30 154 H 12.2708 -1.42739 3.6938 0
M  V30 155 H 13.4448 1.34082 4.40861 0
M  V30 156 H 11.7598 1.0594 4.02698 0
M  V30 157 H 14.3568 -1.49182 5.13468 0
M  V30 158 H 14.6998 -2.16085 3.55827 0
M  V30 159 H 15.2328 -0.50682 3.94558 0
M  V30 160 H 11.9718 1.12996 6.45687 0
M  V30 161 H 11.4918 -0.513717 5.97596 0
M  V30 162 H 13.1708 -0.179539 6.46751 0
M  V30 163 N 13.3029 -1.57598 0.00835791 0
M  V30 164 C 14.5309 -1.95214 -0.68549 0
M  V30 165 C 14.9459 -0.883706 -1.66841 0
M  V30 166 O 14.3029 0.136565 -1.81988 0
M  V30 167 C 14.3539 -3.32865 -1.41007 0
M  V30 168 O 14.0749 -4.35609 -0.466552 0
M  V30 169 C 15.5759 -3.84991 -2.19765 0
M  V30 170 H 12.7959 -0.643422 -0.190392 0
M  V30 171 H 15.3399 -2.04406 0.0619607 0
M  V30 172 H 13.4949 -3.24956 -2.10908 0
M  V30 173 H 13.9089 -5.15288 -0.978699 0
M  V30 174 H 15.3829 -4.8371 -2.65948 0
M  V30 175 H 15.8599 -3.18137 -3.02796 0
M  V30 176 H 16.4659 -3.96103 -1.54864 0
M  V30 177 N 14.781 0.264519 -1.55364 0
M  V30 178 C 16.192 0.834936 -1.6699 0
M  V30 179 C 16.543 1.86718 -0.602552 0
M  V30 180 O 15.668 2.14899 0.254425 0
M  V30 181 C 16.263 1.5212 -3.02729 0
M  V30 182 C 14.822 2.03954 -3.16354 0
M  V30 183 C 13.969 0.884498 -2.62815 0
M  V30 184 H 16.92 0.0406869 -1.58648 0
M  V30 185 H 16.941 2.38853 -2.96191 0
M  V30 186 H 16.453 0.769668 -3.80392 0
M  V30 187 H 14.554 2.82041 -2.43482 0
M  V30 188 H 14.667 2.24902 -4.23032 0
M  V30 189 H 13.031 1.2802 -2.20188 0
M  V30 190 H 13.814 0.14634 -3.42988 0
M  V30 191 N 16.2591 1.48442 0.529413 0
M  V30 192 C 17.5071 1.56179 1.28267 0
M  V30 193 C 17.8281 0.237721 1.93546 0
M  V30 194 O 17.0981 -0.740779 1.81354 0
M  V30 195 H 15.6781 0.575367 0.476405 0
M  V30 196 H 18.3401 1.84909 0.61602 0
M  V30 197 H 17.4361 2.34312 2.06165 0
M  V30 198 N 17.7372 -0.778329 1.37039 0
M  V30 199 C 18.6472 -1.92253 1.34446 0
M  V30 200 C 19.6632 -1.72267 0.244991 0
M  V30 201 O 20.8392 -1.95615 0.479258 0
M  V30 202 C 17.9042 -3.27282 1.144 0
M  V30 203 C 16.9652 -3.59969 2.33925 0
M  V30 204 C 16.1982 -4.88555 2.14825 0
M  V30 205 O 16.4212 -5.59113 1.12912 0
M  V30 206 O 15.3552 -5.20153 3.02861 0
M  V30 207 H 19.1812 -1.97392 2.30803 0
M  V30 208 H 16.7662 -0.920154 1.17701 0
M  V30 209 H 18.6482 -4.08062 1.05182 0
M  V30 210 H 17.3232 -3.23011 0.211124 0
M  V30 211 H 16.2302 -2.7945 2.48714 0
M  V30 212 H 17.5632 -3.68976 3.25757 0
M  V30 213 N 19.2153 -1.21501 -1.00376 0
M  V30 214 C 20.6263 -1.03146 -1.55621 0
M  V30 215 C 20.9773 0.408375 -1.91903 0
M  V30 216 O 20.1023 1.29177 -1.73616 0
M  V30 217 C 20.6973 -1.86612 -2.82775 0
M  V30 218 C 19.2563 -1.72586 -3.34501 0
M  V30 219 C 18.4033 -1.83747 -2.07683 0
M  V30 220 H 21.3543 -1.35505 -0.826081 0
M  V30 221 H 21.3753 -1.3771 -3.54706 0
M  V30 222 H 20.8873 -2.91399 -2.56336 0
M  V30 223 H 18.9883 -0.704877 -3.65872 0
M  V30 224 H 19.1013 -2.54623 -4.05837 0
M  V30 225 H 17.4653 -1.27069 -2.20739 0
M  V30 226 H 18.2483 -2.90044 -1.83655 0
M  V30 227 N 20.6934 1.19889 -1.02296 0
M  V30 228 C 21.6564 2.21116 -0.603351 0
M  V30 229 C 22.6564 1.5738 0.329884 0
M  V30 230 O 23.8464 1.73802 0.117702 0
M  V30 231 C 20.9784 3.40696 0.117992 0
M  V30 232 H 22.1714 2.59754 -1.49893 0
M  V30 233 H 19.7244 1.33463 -0.813468 0
M  V30 234 H 20.4594 3.07569 1.0282 0
M  V30 235 H 20.2444 3.88188 -0.552511 0
M  V30 236 H 21.7344 4.15692 0.398696 0
M  V30 237 N 22.1715 0.800033 1.35784 0
M  V30 238 C 23.4195 0.376597 1.9856 0
M  V30 239 C 23.7405 -1.05812 1.63795 0
M  V30 240 O 23.0105 -1.73103 0.917171 0
M  V30 241 H 21.5905 0.136261 0.734467 0
M  V30 242 H 24.2525 1.02442 1.65806 0
M  V30 243 H 23.3485 0.477002 3.08433 0
M  V30 244 N 23.6496 -1.47581 0.552962 0
M  V30 245 C 24.8986 -2.01684 0.0251995 0
M  V30 246 C 25.2116 -1.43317 -1.33115 0
M  V30 247 O 26.4176 -1.89057 -1.94858 0
M  V30 248 C 24.8736 -3.599 -0.00542052 0
M  V30 249 C 24.4816 -4.27257 1.34742 0
M  V30 250 C 26.2256 -4.21768 -0.4808 0
M  V30 251 C 24.1326 -5.77467 1.27614 0
M  V30 252 H 23.0626 -0.753979 0.00565033 0
M  V30 253 H 25.7136 -1.69616 0.70018 0
M  V30 254 H 24.0956 -3.88911 -0.745961 0
M  V30 255 H 25.2696 -4.09893 2.10534 0
M  V30 256 H 23.5846 -3.77358 1.76039 0
M  V30 257 H 26.1816 -5.31838 -0.55246 0
M  V30 258 H 26.5246 -3.88651 -1.49184 0
M  V30 259 H 27.0576 -3.97273 0.204752 0
M  V30 260 H 23.7966 -6.15196 2.26304 0
M  V30 261 H 23.3166 -5.9718 0.55996 0
M  V30 262 H 24.9956 -6.3959 0.976421 0
M  V30 263 N 25.1277 -0.289203 -1.54924 0
M  V30 264 C 26.3757 0.322879 -1.99504 0
M  V30 265 C 26.6967 1.55313 -1.1791 0
M  V30 266 O 25.9667 1.94001 -0.272097 0
M  V30 267 H 24.5467 0.122291 -0.736922 0
M  V30 268 H 27.2087 -0.397802 -1.90797 0
M  V30 269 H 26.3047 0.603061 -3.06218 0
M  V30 270 N 26.6058 1.57591 -0.0167156 0
M  V30 271 C 28.0168 1.79201 0.523834 0
M  V30 272 C 28.3678 0.925796 1.72984 0
M  V30 273 O 27.4928 0.132792 2.15992 0
M  V30 274 C 28.0878 3.25 0.957091 0
M  V30 275 C 26.6468 3.47648 1.44283 0
M  V30 276 C 25.7938 2.74374 0.401757 0
M  V30 277 H 28.7448 1.56831 -0.242816 0
M  V30 278 H 28.7658 3.34031 1.82219 0
M  V30 279 H 28.2778 3.88019 0.0791415 0
M  V30 280 H 26.3788 2.89866 2.34113 0
M  V30 281 H 26.4918 4.56352 1.45877 0
M  V30 282 H 24.8558 2.39485 0.867121 0
M  V30 283 H 25.6388 3.40102 -0.467513 0
M  V30 284 N 28.0839 -0.256276 1.55502 0
M  V30 285 C 29.3609 -1.00789 1.67633 0
M  V30 286 C 29.7409 -2.03706 0.553826 0
M  V30 287 O 29.0889 -2.24145 -0.443969 0
M  V30 288 C 29.2989 -1.64968 3.07549 0
M  V30 289 C 30.6469 -2.15505 3.65845 0
M  V30 290 O 31.6709 -1.74925 3.1029 0
M  V30 291 O 30.5299 -2.89986 4.63217 0
M  V30 292 H 27.6239 -0.468553 0.681459 0
M  V30 293 H 30.1699 -0.250806 1.67836 0
M  V30 294 H 28.9419 -0.904785 3.80696 0
M  V30 295 H 28.5649 -2.47321 3.11317 0
M  V30 296 N 29.562 -1.4872 -0.521534 0
M  V30 297 C 30.492 -1.66771 -1.63431 0
M  V30 298 C 31.473 -0.516499 -1.62069 0
M  V30 299 O 32.658 -0.750013 -1.79132 0
M  V30 300 C 29.788 -1.71515 -3.01993 0
M  V30 301 C 28.742 -2.86222 -3.18216 0
M  V30 302 C 28.068 -2.76061 -4.57924 0
M  V30 303 C 29.368 -4.27419 -3.00184 0
M  V30 304 H 31.062 -2.59932 -1.48579 0
M  V30 305 H 28.608 -1.25089 -0.713358 0
M  V30 306 H 30.561 -1.82731 -3.7972 0
M  V30 307 H 29.285 -0.749393 -3.17886 0
M  V30 308 H 27.944 -2.74575 -2.42908 0
M  V30 309 H 27.592 -1.77437 -4.70665 0
M  V30 310 H 27.292 -3.53037 -4.69722 0
M  V30 311 H 28.816 -2.89256 -5.37739 0
M  V30 312 H 30.23 -4.39855 -3.67697 0
M  V30 313 H 28.627 -5.05458 -3.2347 0
M  V30 314 H 29.697 -4.43293 -1.96518 0
M  V30 315 N 31.0401 0.771051 -1.3745 0
M  V30 316 C 32.2861 1.5319 -1.32894 0
M  V30 317 C 32.6191 1.94008 0.0862511 0
M  V30 318 O 31.8941 1.64124 1.04373 0
M  V30 319 C 32.1771 2.79648 -2.26868 0
M  V30 320 C 32.0301 2.45079 -3.77169 0
M  V30 321 C 33.3491 3.81583 -2.19277 0
M  V30 322 H 30.4681 0.555744 -0.484064 0
M  V30 323 H 33.1101 0.884492 -1.68157 0
M  V30 324 H 31.2601 3.34891 -1.96926 0
M  V30 325 H 32.9321 1.95745 -4.1771 0
M  V30 326 H 31.1751 1.77767 -3.95704 0
M  V30 327 H 31.8461 3.35478 -4.38359 0
M  V30 328 H 34.3221 3.35835 -2.45671 0
M  V30 329 H 33.1981 4.67787 -2.87171 0
M  V30 330 H 33.4591 4.25897 -1.18592 0
M  V30 331 N 32.5182 1.22032 0.997298 0
M  V30 332 C 33.7642 1.04376 1.73878 0
M  V30 333 C 34.0972 -0.420716 1.89588 0
M  V30 334 O 33.3722 -1.31202 1.43583 0
M  V30 335 C 33.6552 1.75047 3.14691 0
M  V30 336 C 33.5082 3.29062 3.06656 0
M  V30 337 C 34.8272 1.49928 4.13775 0
M  V30 338 H 31.9462 0.380578 0.631133 0
M  V30 339 H 34.5882 1.50312 1.16217 0
M  V30 340 H 32.7382 1.35996 3.63919 0
M  V30 341 H 34.4102 3.7753 2.65083 0
M  V30 342 H 32.6532 3.58967 2.43568 0
M  V30 343 H 33.3242 3.73683 4.06282 0
M  V30 344 H 35.8002 1.83842 3.73285 0
M  V30 345 H 34.6762 2.01878 5.10428 0
M  V30 346 H 34.9372 0.430929 4.39995 0
M  V30 347 N 33.9963 -1.19345 1.0293 0
M  V30 348 C 34.9283 -2.22036 0.56857 0
M  V30 349 C 35.9413 -1.58865 -0.355779 0
M  V30 350 O 37.1303 -1.77851 -0.152103 0
M  V30 351 C 34.2303 -3.38363 -0.190752 0
M  V30 352 C 33.4033 -4.31118 0.738643 0
M  V30 353 C 32.4623 -5.26194 0.0246497 0
M  V30 354 O 31.4883 -5.65461 0.651354 0
M  V30 355 N 32.6903 -5.66971 -1.24594 0
M  V30 356 H 35.4553 -2.6219 1.45177 0
M  V30 357 H 33.0163 -1.34015 0.908381 0
M  V30 358 H 35.0083 -3.98981 -0.677961 0
M  V30 359 H 33.5783 -2.96994 -0.975366 0
M  V30 360 H 32.7983 -3.68276 1.40593 0
M  V30 361 H 34.0863 -4.90001 1.37029 0
M  V30 362 H 33.4843 -5.37104 -1.77583 0
M  V30 363 H 32.0413 -6.2984 -1.67764 0
M  V30 364 N 35.4744 -0.807222 -1.35358 0
M  V30 365 C 36.4044 -0.232509 -2.3234 0
M  V30 366 C 37.3854 0.642386 -1.57504 0
M  V30 367 O 38.5704 0.572526 -1.85569 0
M  V30 368 C 35.7004 0.619238 -3.41735 0
M  V30 369 C 34.6544 -0.157215 -4.27711 0
M  V30 370 C 33.9804 0.816273 -5.28433 0
M  V30 371 C 35.2804 -1.35656 -5.04376 0
M  V30 372 H 36.9744 -1.04276 -2.80654 0
M  V30 373 H 34.5204 -0.50288 -1.34934 0
M  V30 374 H 36.4734 1.03137 -4.08584 0
M  V30 375 H 35.1974 1.46239 -2.92031 0
M  V30 376 H 33.8564 -0.550525 -3.62443 0
M  V30 377 H 33.5044 1.65494 -4.74996 0
M  V30 378 H 33.2044 0.301067 -5.86828 0
M  V30 379 H 34.7284 1.22659 -5.98153 0
M  V30 380 H 36.1424 -1.01927 -5.64166 0
M  V30 381 H 34.5394 -1.8063 -5.7227 0
M  V30 382 H 35.6094 -2.14288 -4.34981 0
M  V30 383 N 36.9525 1.47285 -0.560781 0
M  V30 384 C 37.9155 2.28535 0.174488 0
M  V30 385 C 38.9155 1.37153 0.839388 0
M  V30 386 O 40.1055 1.59748 0.694702 0
M  V30 387 C 37.2375 3.16934 1.25561 0
M  V30 388 H 38.4305 2.95012 -0.539262 0
M  V30 389 H 35.9835 1.53034 -0.317865 0
M  V30 390 H 36.7185 2.55157 2.00164 0
M  V30 391 H 36.5035 3.8419 0.783604 0
M  V30 392 H 37.9935 3.78143 1.77193 0
M  V30 393 N 38.4306 0.297415 1.54768 0
M  V30 394 C 39.3626 -0.613881 2.20826 0
M  V30 395 C 40.3756 -1.10032 1.19987 0
M  V30 396 O 41.5646 -1.01839 1.46598 0
M  V30 397 C 38.6646 -1.852 2.83821 0
M  V30 398 C 37.8376 -1.50865 4.10559 0
M  V30 399 C 36.8966 -2.60154 4.57391 0
M  V30 400 O 35.9226 -2.25398 5.2267 0
M  V30 401 N 37.1246 -3.90629 4.29406 0
M  V30 402 H 39.8896 -0.048389 2.99661 0
M  V30 403 H 37.4506 0.11946 1.61459 0
M  V30 404 H 39.4426 -2.57652 3.12086 0
M  V30 405 H 38.0126 -2.32597 2.08847 0
M  V30 406 H 37.2326 -0.616925 3.89343 0
M  V30 407 H 38.5206 -1.25458 4.9309 0
M  V30 408 H 37.9186 -4.21677 3.77101 0
M  V30 409 H 36.4756 -4.59391 4.62388 0
M  V30 410 N 39.9087 -1.5758 0.0250728 0
M  V30 411 C 41.3247 -1.56124 -0.331282 0
M  V30 412 C 41.5247 -1.03029 -1.73169 0
M  V30 413 O 40.5807 -0.675215 -2.43305 0
M  V30 414 C 41.8937 -3.00139 -0.183584 0
M  V30 415 C 43.4417 -3.11946 -0.256654 0
M  V30 416 C 43.9167 -4.57793 -0.137792 0
M  V30 417 N 45.4077 -4.6279 -0.194904 0
M  V30 418 C 46.1427 -5.7326 -0.126655 0
M  V30 419 N 45.6387 -6.928 -0.00755288 0
M  V30 420 N 47.4317 -5.61811 -0.180348 0
M  V30 421 H 39.5827 -1.90424 0.94087 0
M  V30 422 H 41.8457 -0.875761 0.362968 0
M  V30 423 H 41.5517 -3.4292 0.780927 0
M  V30 424 H 41.4257 -3.64899 -0.955448 0
M  V30 425 H 43.8127 -2.69079 -1.21162 0
M  V30 426 H 43.8937 -2.49915 0.545517 0
M  V30 427 H 43.5377 -5.01339 0.813739 0
M  V30 428 H 43.4677 -5.17798 -0.958775 0
M  V30 429 H 45.9587 -3.76807 -0.287267 0
M  V30 430 H 46.2717 -7.72791 0.0379428 0
M  V30 431 H 44.6167 -6.94995 0.0271731 0
M  V30 432 H 47.8077 -4.6731 -0.271767 0
M  V30 433 H 47.9807 -6.47882 -0.123697 0
M  V30 434 N 41.3868 0.248026 -1.55636 0
M  V30 435 C 42.2968 1.32859 -1.93354 0
M  V30 436 C 43.3128 1.52719 -0.833838 0
M  V30 437 O 44.4888 1.66363 -1.13513 0
M  V30 438 C 41.5538 2.66337 -2.21958 0
M  V30 439 C 40.6148 2.55008 -3.45354 0
M  V30 440 C 39.8478 3.82121 -3.72584 0
M  V30 441 O 40.0708 4.83951 -3.01907 0
M  V30 442 O 39.0048 3.80822 -4.6611 0
M  V30 443 H 42.8308 1.03862 -2.85388 0
M  V30 444 H 40.4158 0.448686 -1.42503 0
M  V30 445 H 42.2978 3.45216 -2.4167 0
M  V30 446 H 40.9728 2.95068 -1.33103 0
M  V30 447 H 39.8798 1.7442 -3.30951 0
M  V30 448 H 41.2128 2.31222 -4.34508 0
M  V30 449 N 42.8649 1.48995 0.513639 0
M  V30 450 C 44.1109 1.59053 1.26783 0
M  V30 451 C 44.4659 0.268136 1.90522 0
M  V30 452 O 43.7589 -0.730534 1.77126 0
M  V30 453 C 43.9529 2.67756 2.36731 0
M  V30 454 C 43.7819 4.10437 1.83771 0
M  V30 455 C 42.5519 4.7738 1.65639 0
M  V30 456 C 44.7499 4.9608 1.35681 0
M  V30 457 N 42.7319 6.04419 1.07476 0
M  V30 458 C 44.1029 6.13496 0.895715 0
M  V30 459 C 46.1579 4.82177 1.24136 0
M  V30 460 C 44.8609 7.1854 0.3306 0
M  V30 461 C 46.8869 5.87358 0.690229 0
M  V30 462 C 46.2489 7.03993 0.239292 0
M  V30 463 H 42.3479 0.636463 0.454355 0
M  V30 464 H 44.9319 1.85948 0.577196 0
M  V30 465 H 43.1029 2.42655 3.03271 0
M  V30 466 H 44.8349 2.67406 3.0377 0
M  V30 467 H 41.5899 4.33974 1.8964 0
M  V30 468 H 42.0139 6.72214 0.803579 0
M  V30 469 H 46.6559 3.92329 1.57601 0
M  V30 470 H 44.3739 8.08098 -0.0163435 0
M  V30 471 H 47.9599 5.78658 0.603852 0
M  V30 472 H 46.8399 7.83992 -0.180526 0
M  V30 473 N 44.343 -0.763751 1.37857 0
M  V30 474 C 45.754 -1.3405 1.29952 0
M  V30 475 C 46.105 -1.96138 -0.0492898 0
M  V30 476 O 45.23 -1.94372 -0.951239 0
M  V30 477 C 45.825 -2.43729 2.35333 0
M  V30 478 C 44.384 -2.97151 2.31037 0
M  V30 479 C 43.531 -1.70438 2.18738 0
M  V30 480 H 46.482 -0.563396 1.48363 0
M  V30 481 H 46.503 -3.23412 2.00462 0
M  V30 482 H 46.015 -1.9851 3.33489 0
M  V30 483 H 44.116 -3.46724 1.3643 0
M  V30 484 H 44.229 -3.52221 3.24772 0
M  V30 485 H 42.593 -1.93673 1.65418 0
M  V30 486 H 43.376 -1.27312 3.18821 0
M  V30 487 N 45.8211 -1.22559 -0.990812 0
M  V30 488 C 47.0671 -1.05297 -1.73322 0
M  V30 489 C 47.4001 0.410655 -1.89808 0
M  V30 490 O 46.6751 1.30439 -1.44277 0
M  V30 491 C 46.9581 -1.76713 -3.13759 0
M  V30 492 C 46.8111 -3.30684 -3.04907 0
M  V30 493 C 48.1301 -1.52121 -4.12974 0
M  V30 494 H 45.2491 -0.38392 -0.629106 0
M  V30 495 H 47.8911 -1.50926 -1.15418 0
M  V30 496 H 46.0411 -1.37924 -3.63193 0
M  V30 497 H 47.7131 -3.7893 -2.63077 0
M  V30 498 H 45.9561 -3.60253 -2.41661 0
M  V30 499 H 46.6271 -3.75833 -4.04294 0
M  V30 500 H 49.1031 -1.85819 -3.72304 0
M  V30 501 H 47.9791 -2.04582 -5.0935 0
M  V30 502 H 48.2401 -0.454257 -4.3976 0
M  V30 503 N 47.2992 1.18797 -1.03562 0
M  V30 504 C 48.2092 2.25913 -0.632505 0
M  V30 505 C 49.2252 1.70668 0.338882 0
M  V30 506 O 50.4012 2.00453 0.195076 0
M  V30 507 C 47.4662 3.467 0.00350942 0
M  V30 508 C 46.5272 4.17098 -1.01624 0
M  V30 509 C 45.7602 5.32119 -0.410478 0
M  V30 510 O 45.9832 5.64976 0.784725 0
M  V30 511 O 44.9172 5.9107 -1.13667 0
M  V30 512 H 48.7432 2.62648 -1.52478 0
M  V30 513 H 46.3282 1.25781 -0.806195 0
M  V30 514 H 48.2102 4.19878 0.35781 0
M  V30 515 H 46.8852 3.11798 0.869686 0
M  V30 516 H 45.7922 3.4601 -1.42224 0
M  V30 517 H 47.1252 4.55987 -1.85301 0
M  V30 518 N 48.7773 0.814389 1.34928 0
M  V30 519 C 49.7073 0.244827 2.32213 0
M  V30 520 C 50.6883 -0.634024 1.57842 0
M  V30 521 O 51.8733 -0.562676 1.8587 0
M  V30 522 C 49.0033 -0.601106 3.42058 0
M  V30 523 C 47.9573 0.179896 4.27622 0
M  V30 524 C 47.2833 -0.788237 5.28858 0
M  V30 525 C 48.5833 1.38329 5.03649 0
M  V30 526 H 50.2773 1.05763 2.80097 0
M  V30 527 H 47.8233 0.510029 1.34665 0
M  V30 528 H 49.7763 -1.00968 4.09125 0
M  V30 529 H 48.5003 -1.44688 2.92802 0
M  V30 530 H 47.1593 0.569739 3.62146 0
M  V30 531 H 46.8073 -1.62973 4.75866 0
M  V30 532 H 46.5073 -0.269942 5.8698 0
M  V30 533 H 48.0313 -1.19485 5.98795 0
M  V30 534 H 49.4453 1.04918 5.63618 0
M  V30 535 H 47.8423 1.83662 5.71304 0
M  V30 536 H 48.9123 2.16592 4.33839 0
M  V30 537 N 50.2554 -1.46986 0.568584 0
M  V30 538 C 51.5014 -2.02741 0.0488709 0
M  V30 539 C 51.8344 -1.44077 -1.30214 0
M  V30 540 O 51.1094 -0.600552 -1.84996 0
M  V30 541 C 51.3924 -3.60086 -0.032047 0
M  V30 542 C 51.2454 -4.29162 1.34686 0
M  V30 543 C 52.5644 -4.33838 -0.739798 0
M  V30 544 H 49.6834 -0.736749 0.0192338 0
M  V30 545 H 52.3254 -1.75289 0.733065 0
M  V30 546 H 50.4754 -3.83606 -0.61473 0
M  V30 547 H 52.1474 -4.16948 1.97362 0
M  V30 548 H 50.3904 -3.89073 1.91846 0
M  V30 549 H 51.0614 -5.37826 1.24285 0
M  V30 550 H 53.5374 -4.15378 -0.244939 0
M  V30 551 H 52.4134 -5.43537 -0.765406 0
M  V30 552 H 52.6744 -4.03875 -1.79827 0
M  V30 553 N 51.7335 -0.305618 -1.54608 0
M  V30 554 C 52.9795 0.302746 -2.00528 0
M  V30 555 C 53.3125 1.53184 -1.19367 0
M  V30 556 O 52.5875 1.92598 -0.271321 0
M  V30 557 C 52.8705 0.654756 -3.54097 0
M  V30 558 C 52.7235 -0.583793 -4.45995 0
M  V30 559 C 54.0425 1.47947 -4.14487 0
M  V30 560 H 51.1615 0.108564 -0.72896 0
M  V30 561 H 53.8035 -0.418634 -1.85331 0
M  V30 562 H 51.9535 1.26935 -3.67178 0
M  V30 563 H 53.6255 -1.22224 -4.44814 0
M  V30 564 H 51.8685 -1.21615 -4.16404 0
M  V30 565 H 52.5395 -0.293287 -5.5122 0
M  V30 566 H 55.0155 0.96013 -4.04871 0
M  V30 567 H 53.8915 1.69454 -5.22088 0
M  V30 568 H 54.1525 2.47011 -3.66658 0
M  V30 569 N 53.2116 1.57565 -0.0334293 0
M  V30 570 C 54.4516 1.93844 0.648379 0
M  V30 571 C 54.8156 0.910387 1.69044 0
M  V30 572 O 56.0166 1.15952 2.42505 0
M  V30 573 C 54.2876 3.35017 1.24492 0
M  V30 574 S 55.8466 3.93229 1.94721 0
M  V30 575 H 52.6646 0.678231 0.213364 0
M  V30 576 H 55.2666 1.95254 -0.0981253 0
M  V30 577 H 53.9706 4.07652 0.474128 0
M  V30 578 H 53.5016 3.37061 2.02864 0
M  V30 579 H 55.5166 3.77014 3.22606 0
M  V30 580 N 54.6897 -0.239769 1.55765 0
M  V30 581 C 55.6527 -1.28038 1.90103 0
M  V30 582 C 56.6527 -1.40723 0.778055 0
M  V30 583 O 57.8427 -1.39301 1.04599 0
M  V30 584 C 54.9747 -2.65702 2.13577 0
M  V30 585 H 56.1677 -0.988048 2.83157 0
M  V30 586 H 53.7207 -0.479382 1.48767 0
M  V30 587 H 54.4557 -3.00063 1.23015 0
M  V30 588 H 54.2407 -2.57875 2.95369 0
M  V30 589 H 55.7307 -3.40828 2.41301 0
M  V30 590 N 56.1678 -1.49265 -0.50573 0
M  V30 591 C 57.4448 -1.49012 -1.26707 0
M  V30 592 C 57.8248 -0.215205 -2.1 0
M  V30 593 O 57.1728 0.802547 -2.13943 0
M  V30 594 C 57.3828 -2.7663 -2.12783 0
M  V30 595 C 58.7308 -3.25932 -2.72127 0
M  V30 596 O 59.7548 -2.77715 -2.23054 0
M  V30 597 O 58.6138 -4.09897 -3.61451 0
M  V30 598 H 55.7078 -0.596197 -0.57313 0
M  V30 599 H 58.2538 -1.61524 -0.52039 0
M  V30 600 H 57.0258 -3.60916 -1.5118 0
M  V30 601 H 56.6488 -2.66956 -2.94653 0
M  V30 602 N 57.6459 0.756429 -1.3826 0
M  V30 603 C 58.6089 1.85176 -1.35065 0
M  V30 604 C 59.6089 1.58818 -0.251703 0
M  V30 605 O 60.7989 1.66615 -0.508433 0
M  V30 606 C 57.9309 3.22596 -1.10201 0
M  V30 607 H 59.1239 1.89417 -2.3251 0
M  V30 608 H 56.6769 0.95783 -1.23512 0
M  V30 609 H 57.4119 3.24025 -0.133504 0
M  V30 610 H 57.1969 3.43122 -1.89762 0
M  V30 611 H 58.6869 4.02673 -1.10654 0
M  V30 612 N 59.124 1.23083 0.984299 0
M  V30 613 C 60.352 1.08714 1.76037 0
M  V30 614 C 60.767 -0.361691 1.85303 0
M  V30 615 O 60.124 -1.25034 1.32939 0
M  V30 616 C 60.175 1.70206 3.18923 0
M  V30 617 O 59.896 3.09423 3.10144 0
M  V30 618 C 61.397 1.61227 4.12941 0
M  V30 619 H 58.617 0.380664 0.552572 0
M  V30 620 H 61.161 1.62853 1.23689 0
M  V30 621 H 59.316 1.20109 3.6831 0
M  V30 622 H 59.73 3.39188 4.00065 0
M  V30 623 H 61.204 2.08962 5.10919 0
M  V30 624 H 61.681 0.570375 4.35481 0
M  V30 625 H 62.287 2.10671 3.69456 0
M  V30 626 N 60.6021 -1.18246 1.0419 0
M  V30 627 C 61.5321 -2.24127 0.654914 0
M  V30 628 C 62.5131 -1.66617 -0.342451 0
M  V30 629 O 63.6981 -1.92924 -0.222277 0
M  V30 630 C 60.8281 -3.47295 0.0183757 0
M  V30 631 C 59.7821 -4.17563 0.939414 0
M  V30 632 C 59.1081 -5.34438 0.167286 0
M  V30 633 C 60.4081 -4.70917 2.25908 0
M  V30 634 H 62.1021 -2.56753 1.54007 0
M  V30 635 H 59.6481 -1.23414 0.74195 0
M  V30 636 H 61.6011 -4.20572 -0.264082 0
M  V30 637 H 60.3251 -3.13907 -0.901664 0
M  V30 638 H 58.9841 -3.46186 1.20628 0
M  V30 639 H 58.6321 -4.97298 -0.7552 0
M  V30 640 H 58.3321 -5.82388 0.780901 0
M  V30 641 H 59.8561 -6.10504 -0.108125 0
M  V30 642 H 61.2701 -5.35882 2.03724 0
M  V30 643 H 59.6671 -5.29406 2.82577 0
M  V30 644 H 60.7371 -3.88272 2.9047 0
M  V30 645 N 62.0802 -0.821533 -1.34494 0
M  V30 646 C 63.0102 -0.257138 -2.3208 0
M  V30 647 C 63.9912 0.625645 -1.58176 0
M  V30 648 O 65.1762 0.552811 -1.86166 0
M  V30 649 C 62.3062 0.582958 -3.42372 0
M  V30 650 C 61.2602 -0.202571 -4.2752 0
M  V30 651 C 60.5862 0.760179 -5.29269 0
M  V30 652 C 61.8862 -1.40998 -5.02908 0
M  V30 653 H 63.5802 -1.07247 -2.79532 0
M  V30 654 H 61.1262 -0.517163 -1.34393 0
M  V30 655 H 63.0792 0.987972 -4.09655 0
M  V30 656 H 61.8032 1.43133 -2.93565 0
M  V30 657 H 60.4622 -0.588936 -3.61838 0
M  V30 658 H 60.1102 1.60447 -4.76724 0
M  V30 659 H 59.8102 0.238809 -5.87115 0
M  V30 660 H 61.3342 1.16308 -5.9942 0
M  V30 661 H 62.7482 -1.07905 -5.63054 0
M  V30 662 H 61.1452 -1.86689 -5.70322 0
M  V30 663 H 62.2152 -2.1889 -4.32684 0
M  V30 664 N 63.5583 1.46682 -0.576371 0
M  V30 665 C 64.7863 2.06798 -0.0649635 0
M  V30 666 C 65.2013 1.42612 1.23723 0
M  V30 667 O 64.5583 0.529203 1.74659 0
M  V30 668 C 64.6093 3.6132 0.114202 0
M  V30 669 O 64.3303 4.23104 -1.13644 0
M  V30 670 C 65.8313 4.38349 0.66069 0
M  V30 671 H 63.0513 0.668778 -0.0545616 0
M  V30 672 H 65.5953 1.88404 -0.795237 0
M  V30 673 H 63.7503 3.79162 0.794673 0
M  V30 674 H 64.1643 5.15894 -0.946253 0
M  V30 675 H 65.6383 5.47081 0.73526 0
M  V30 676 H 66.1153 4.05953 1.67627 0
M  V30 677 H 66.7213 4.25297 0.0152951 0
M  V30 678 N 65.0364 0.313813 1.54444 0
M  V30 679 C 65.9844 -0.572171 2.25453 0
M  V30 680 C 66.9784 -1.12657 1.2651 0
M  V30 681 O 68.1844 -1.07573 1.44319 0
M  V30 682 H 64.5594 -0.203146 0.724041 0
M  V30 683 H 66.5304 0.0491145 2.9836 0
M  V30 684 C 65.2794 -1.72626 3.0182 0
M  V30 685 H 64.6024 -1.30891 3.77767 0
M  V30 686 H 66.0424 -2.32199 3.54767 0
M  V30 687 C 64.5014 -2.63806 2.09542 0
M  V30 688 O 65.0314 -3.65256 1.67185 0
M  V30 689 N 63.2374 -2.31824 1.75232 0
M  V30 690 H 62.7844 -1.49368 2.09873 0
M  V30 691 H 62.7424 -2.93095 1.13767 0
M  V30 692 N 66.5145 -1.57545 0.0417849 0
M  V30 693 C 67.9305 -1.56467 -0.314704 0
M  V30 694 C 68.1305 -1.04859 -1.72066 0
M  V30 695 O 67.1865 -0.700983 -2.42575 0
M  V30 696 C 68.4995 -3.00317 -0.15174 0
M  V30 697 C 70.0475 -3.12201 -0.223553 0
M  V30 698 C 70.5225 -4.57913 -0.0892295 0
M  V30 699 N 72.0135 -4.6297 -0.145808 0
M  V30 700 C 72.7485 -5.73362 -0.0658459 0
M  V30 701 N 72.2445 -6.92769 0.0659282 0
M  V30 702 N 74.0375 -5.6197 -0.12075 0
M  V30 703 H 66.1885 -1.89416 0.961014 0
M  V30 704 H 68.4515 -0.871862 0.372237 0
M  V30 705 H 68.1575 -3.42073 0.817254 0
M  V30 706 H 68.0315 -3.65892 -0.916692 0
M  V30 707 H 70.4185 -2.70349 -1.18301 0
M  V30 708 H 70.4995 -2.49323 0.571994 0
M  V30 709 H 70.1435 -5.00448 0.866867 0
M  V30 710 H 70.0735 -5.18786 -0.903802 0
M  V30 711 H 72.5645 -3.7709 -0.247286 0
M  V30 712 H 72.8775 -7.72707 0.119905 0
M  V30 713 H 71.2225 -6.94927 0.100885 0
M  V30 714 H 74.4135 -4.67572 -0.222187 0
M  V30 715 H 74.5865 -6.47977 -0.0549735 0
M  V30 716 N 67.9926 0.231505 -1.5589 0
M  V30 717 C 68.9556 1.27028 -1.90779 0
M  V30 718 C 69.9556 1.40308 -0.785507 0
M  V30 719 O 71.1456 1.38744 -1.05336 0
M  V30 720 C 68.2776 2.64566 -2.14983 0
M  V30 721 H 69.4706 0.973017 -2.83677 0
M  V30 722 H 67.0236 0.471486 -1.49019 0
M  V30 723 H 67.7586 2.99406 -1.24604 0
M  V30 724 H 67.5436 2.56305 -2.96732 0
M  V30 725 H 69.0336 3.39543 -2.43105 0
M  V30 726 N 69.4707 1.49531 0.497807 0
M  V30 727 C 70.4337 1.65916 1.58128 0
M  V30 728 C 71.4337 0.530825 1.51786 0
M  V30 729 O 72.6237 0.797342 1.54881 0
M  V30 730 C 69.7557 1.65951 2.9778 0
M  V30 731 H 70.9487 2.62556 1.44929 0
M  V30 732 H 68.5017 1.38611 0.722275 0
M  V30 733 H 69.2367 0.709065 3.16453 0
M  V30 734 H 69.0217 2.47897 3.03792 0
M  V30 735 H 70.5117 1.80673 3.76493 0
M  V30 736 N 70.9488 -0.749086 1.3866 0
M  V30 737 C 71.8818 -1.87111 1.30631 0
M  V30 738 C 72.8598 -1.61572 0.18251 0
M  V30 739 O 74.0438 -1.85019 0.360592 0
M  V30 740 C 71.1708 -3.22815 1.02511 0
M  V30 741 C 70.2168 -3.67234 2.1689 0
M  V30 742 S 71.0498 -3.78245 3.79066 0
M  V30 743 C 72.2058 -5.16761 3.53142 0
M  V30 744 H 72.4388 -1.93636 2.25594 0
M  V30 745 H 69.9718 -0.912525 1.24549 0
M  V30 746 H 71.9298 -4.01181 0.869701 0
M  V30 747 H 70.5908 -3.13964 0.0925884 0
M  V30 748 H 69.7838 -4.65677 1.92771 0
M  V30 749 H 69.3858 -2.96034 2.28561 0
M  V30 750 H 71.6778 -6.02656 3.09534 0
M  V30 751 H 72.6208 -5.45902 4.50995 0
M  V30 752 H 73.0288 -4.85771 2.87554 0
M  V30 753 N 72.4269 -1.23603 -0.977757 0
M  V30 754 C 73.3569 -1.04401 -2.0886 0
M  V30 755 C 74.3379 0.0399052 -1.70053 0
M  V30 756 O 75.5229 -0.125246 -1.93796 0
M  V30 757 C 72.6529 -0.637269 -3.41403 0
M  V30 758 C 71.6069 -1.66883 -3.94124 0
M  V30 759 C 70.9329 -1.11745 -5.22893 0
M  V30 760 C 72.2329 -3.06247 -4.23096 0
M  V30 761 H 73.9269 -1.97316 -2.25182 0
M  V30 762 H 71.4729 -0.950096 -1.08209 0
M  V30 763 H 73.4259 -0.48998 -4.18542 0
M  V30 764 H 72.1499 0.327557 -3.24953 0
M  V30 765 H 70.8089 -1.80416 -3.19133 0
M  V30 766 H 70.4569 -0.143527 -5.02795 0
M  V30 767 H 70.1569 -1.80672 -5.59134 0
M  V30 768 H 71.6809 -0.982067 -6.02651 0
M  V30 769 H 73.0949 -2.96001 -4.90975 0
M  V30 770 H 71.4919 -3.72436 -4.70544 0
M  V30 771 H 72.5619 -3.55041 -3.30263 0
M  V30 772 N 73.905 1.17692 -1.04816 0
M  V30 773 C 75.153 1.87488 -0.754497 0
M  V30 774 C 75.474 1.81205 0.720407 0
M  V30 775 O 74.744 1.23544 1.52032 0
M  V30 776 H 73.324 0.694101 -0.276102 0
M  V30 777 H 75.986 1.42793 -1.32651 0
M  V30 778 H 75.082 2.93328 -1.06606 0
M  V30 779 N 75.3831 0.828654 1.34056 0
M  V30 780 C 76.3131 0.269443 2.3194 0
M  V30 781 C 77.2941 -0.617247 1.58506 0
M  V30 782 O 78.4791 -0.542931 1.86456 0
M  V30 783 C 75.6091 -0.564793 3.42677 0
M  V30 784 C 74.5631 0.225241 4.27407 0
M  V30 785 C 73.8891 -0.7321 5.29664 0
M  V30 786 C 75.1891 1.43663 5.02154 0
M  V30 787 H 76.8831 1.08728 2.7896 0
M  V30 788 H 74.4291 0.524283 1.34117 0
M  V30 789 H 76.3821 -0.966233 4.10173 0
M  V30 790 H 75.1061 -1.41574 2.9432 0
M  V30 791 H 73.7651 0.608117 3.61521 0
M  V30 792 H 73.4131 -1.57916 4.77568 0
M  V30 793 H 73.1131 -0.20767 5.87233 0
M  V30 794 H 74.6371 -1.13128 6.00029 0
M  V30 795 H 76.0511 1.1089 5.62473 0
M  V30 796 H 74.4481 1.89711 5.69324 0
M  V30 797 H 75.5181 2.21181 4.31517 0
M  V30 798 N 76.8612 -1.46375 0.584142 0
M  V30 799 C 78.2722 -1.86031 0.157959 0
M  V30 800 C 78.6232 -1.48753 -1.27933 0
M  V30 801 O 77.7482 -0.903098 -1.96655 0
M  V30 802 C 78.3432 -3.37642 0.279892 0
M  V30 803 C 76.9022 -3.76289 -0.09143 0
M  V30 804 C 76.0492 -2.7039 0.615178 0
M  V30 805 H 79.0002 -1.37509 0.792274 0
M  V30 806 H 79.0212 -3.77275 -0.494364 0
M  V30 807 H 78.5332 -3.64742 1.32607 0
M  V30 808 H 76.6342 -3.54806 -1.13769 0
M  V30 809 H 76.7472 -4.78246 0.285886 0
M  V30 810 H 75.1112 -2.5464 0.0552833 0
M  V30 811 H 75.8942 -3.0033 1.66303 0
M  V30 812 N 78.3393 -0.321999 -1.54275 0
M  V30 813 C 79.2693 0.537411 -2.27231 0
M  V30 814 C 80.2503 1.12064 -1.27968 0
M  V30 815 O 81.4353 1.14606 -1.56777 0
M  V30 816 C 78.5653 1.69919 -3.02894 0
M  V30 817 C 77.5193 1.24534 -4.09482 0
M  V30 818 C 76.8453 2.49394 -4.72977 0
M  V30 819 C 78.1453 0.361335 -5.21049 0
M  V30 820 H 79.8393 -0.0711406 -2.99315 0
M  V30 821 H 77.3853 -0.0356555 -1.43956 0
M  V30 822 H 79.3383 2.30668 -3.52662 0
M  V30 823 H 78.0623 2.33431 -2.28424 0
M  V30 824 H 76.7213 0.660782 -3.60596 0
M  V30 825 H 76.3693 3.11265 -3.95124 0
M  V30 826 H 76.0693 2.19718 -5.44975 0
M  V30 827 H 77.5933 3.10908 -5.25517 0
M  V30 828 H 79.0073 0.875072 -5.66582 0
M  V30 829 H 77.4043 0.157428 -5.99893 0
M  V30 830 H 78.4743 -0.60822 -4.8107 0
M  V30 831 N 79.8174 1.5752 -0.0501392 0
M  V30 832 C 81.0454 1.96963 0.633492 0
M  V30 833 C 81.4604 0.927631 1.6444 0
M  V30 834 O 80.8174 -0.0882665 1.82286 0
M  V30 835 C 80.8684 3.36487 1.32132 0
M  V30 836 O 80.5894 4.36693 0.350894 0
M  V30 837 C 82.0904 3.90682 2.09481 0
M  V30 838 H 79.3104 0.648244 0.173266 0
M  V30 839 H 81.8544 2.0417 -0.116134 0
M  V30 840 H 80.0094 3.30434 2.02218 0
M  V30 841 H 80.4234 5.17702 0.841735 0
M  V30 842 H 81.8974 4.90591 2.5303 0
M  V30 843 H 82.3744 3.26053 2.94255 0
M  V30 844 H 82.9804 4.00069 1.44307 0
M  V30 845 N 81.2955 -0.223234 1.56011 0
M  V30 846 C 82.2255 -1.27988 1.95298 0
M  V30 847 C 83.2065 -1.48976 0.820979 0
M  V30 848 O 84.3915 -1.61188 1.08315 0
M  V30 849 C 81.5215 -2.63 2.26822 0
M  V30 850 C 80.4755 -2.56671 3.42497 0
M  V30 851 C 79.8015 -3.95697 3.59622 0
M  V30 852 C 81.1015 -2.11601 4.77517 0
M  V30 853 H 82.7955 -0.953525 2.8381 0
M  V30 854 H 80.3415 -0.457244 1.36548 0
M  V30 855 H 82.2945 -3.37077 2.52898 0
M  V30 856 H 81.0185 -2.9732 1.35161 0
M  V30 857 H 79.6775 -1.85051 3.16467 0
M  V30 858 H 79.3255 -4.27322 2.6534 0
M  V30 859 H 79.0255 -3.92345 4.37424 0
M  V30 860 H 80.5495 -4.71438 3.88044 0
M  V30 861 H 81.9635 -2.7542 5.02809 0
M  V30 862 H 80.3605 -2.19311 5.5859 0
M  V30 863 H 81.4305 -1.06824 4.72987 0
M  V30 864 N 82.7736 -1.49793 -0.48987 0
M  V30 865 C 84.1896 -1.36803 -0.822022 0
M  V30 866 C 84.3896 -0.409652 -1.97292 0
M  V30 867 O 83.4456 0.154614 -2.52026 0
M  V30 868 C 84.7586 -2.77768 -1.15175 0
M  V30 869 C 86.3066 -2.86549 -1.25931 0
M  V30 870 C 86.7816 -4.28306 -1.62228 0
M  V30 871 N 88.2726 -4.31169 -1.69256 0
M  V30 872 C 89.0076 -5.37832 -1.98807 0
M  V30 873 N 88.5036 -6.54726 -2.26507 0
M  V30 874 N 90.2966 -5.25258 -2.00152 0
M  V30 875 H 82.4476 -2.10691 0.268881 0
M  V30 876 H 84.7106 -0.946241 0.057728 0
M  V30 877 H 84.4166 -3.49648 -0.379335 0
M  V30 878 H 84.2906 -3.13836 -2.09253 0
M  V30 879 H 86.6776 -2.14899 -2.02243 0
M  V30 880 H 86.7586 -2.54049 -0.298776 0
M  V30 881 H 86.4026 -5.00486 -0.864622 0
M  V30 882 H 86.3326 -4.58279 -2.594 0
M  V30 883 H 88.8236 -3.4687 -1.49965 0
M  V30 884 H 89.1366 -7.31833 -2.48276 0
M  V30 885 H 87.4816 -6.57933 -2.23939 0
M  V30 886 H 90.6726 -4.32938 -1.77996 0
M  V30 887 H 90.8456 -6.08476 -2.22848 0
M  V30 888 N 84.2517 0.741722 -1.39055 0
M  V30 889 C 85.6627 1.31966 -1.32068 0
M  V30 890 C 86.0137 1.96192 0.0180797 0
M  V30 891 O 85.1387 1.95861 0.920196 0
M  V30 892 C 85.7337 2.39954 -2.39181 0
M  V30 893 C 84.2927 2.93438 -2.35735 0
M  V30 894 C 83.4397 1.66936 -2.21422 0
M  V30 895 H 86.3907 0.539721 -1.4924 0
M  V30 896 H 86.4117 3.20182 -2.05581 0
M  V30 897 H 85.9237 1.9318 -3.36605 0
M  V30 898 H 84.0247 3.4451 -1.41929 0
M  V30 899 H 84.1377 3.4701 -3.30335 0
M  V30 900 H 82.5017 1.91016 -1.68478 0
M  V30 901 H 83.2847 1.22224 -3.20806 0
M  V30 902 N 85.7298 1.2412 0.971189 0
M  V30 903 C 86.9598 1.10415 1.7462 0
M  V30 904 C 87.3678 -0.346462 1.86001 0
M  V30 905 O 86.7108 -1.25104 1.34517 0
M  V30 906 C 86.7728 1.66596 3.18568 0
M  V30 907 C 86.4368 3.15446 3.3067 0
M  V30 908 C 87.4338 4.12636 3.16271 0
M  V30 909 C 85.1188 3.55337 3.55022 0
M  V30 910 C 87.1128 5.47699 3.26044 0
M  V30 911 C 84.7998 4.90542 3.64434 0
M  V30 912 C 85.7978 5.86532 3.49956 0
M  V30 913 O 85.4858 7.19279 3.59017 0
M  V30 914 H 85.2178 0.386616 0.55453 0
M  V30 915 H 87.7718 1.64633 1.22821 0
M  V30 916 H 86.0018 1.06808 3.71657 0
M  V30 917 H 87.6908 1.48232 3.77865 0
M  V30 918 H 88.4568 3.8316 2.97344 0
M  V30 919 H 84.3358 2.8113 3.65359 0
M  V30 920 H 87.8798 6.22603 3.14661 0
M  V30 921 H 83.7768 5.19691 3.82873 0
M  V30 922 H 84.5448 7.27153 3.75754 0
M  V30 923 N 87.2079 -1.17134 1.05439 0
M  V30 924 C 88.4329 -1.91913 0.786396 0
M  V30 925 C 88.8579 -1.7643 -0.652234 0
M  V30 926 O 88.2159 -1.08372 -1.45345 0
M  V30 927 C 88.2639 -3.40921 1.17497 0
M  V30 928 O 87.3679 -4.11244 0.308589 0
M  V30 929 H 86.7089 -0.598215 0.288158 0
M  V30 930 H 89.2389 -1.48457 1.4079 0
M  V30 931 H 89.2489 -3.91668 1.14281 0
M  V30 932 H 87.9239 -3.5151 2.22292 0
M  V30 933 H 86.5009 -3.70731 0.40157 0
M  V30 934 N 88.686 -0.835752 -1.33615 0
M  V30 935 C 90.097 -0.487099 -1.80234 0
M  V30 936 C 90.448 0.993627 -1.69179 0
M  V30 937 O 89.573 1.77403 -1.23924 0
M  V30 938 C 90.168 -0.877385 -3.27242 0
M  V30 939 C 88.727 -0.580915 -3.7189 0
M  V30 940 C 87.874 -1.0874 -2.5509 0
M  V30 941 H 90.825 -1.02474 -1.2118 0
M  V30 942 H 90.846 -0.186195 -3.80044 0
M  V30 943 H 90.358 -1.95512 -3.35256 0
M  V30 944 H 88.459 0.486881 -3.69405 0
M  V30 945 H 88.572 -1.13396 -4.65487 0
M  V30 946 H 86.936 -0.508392 -2.49575 0
M  V30 947 H 87.719 -2.17184 -2.65868 0
M  V30 948 N 90.1641 1.46063 -0.591896 0
M  V30 949 C 91.1121 2.32124 0.148739 0
M  V30 950 C 92.1061 1.45035 0.875286 0
M  V30 951 O 93.3121 1.61609 0.792632 0
M  V30 952 H 89.6871 0.749024 0.066832 0
M  V30 953 H 91.6581 2.92392 -0.595783 0
M  V30 954 C 90.4071 3.28373 1.1431 0
M  V30 955 H 89.7301 3.95371 0.59346 0
M  V30 956 H 91.1701 3.91352 1.63155 0
M  V30 957 C 89.6291 2.54393 2.20875 0
M  V30 958 O 90.1591 2.31373 3.28374 0
M  V30 959 N 88.3651 2.14797 1.95731 0
M  V30 960 H 87.9121 2.33719 1.08319 0
M  V30 961 H 87.8701 1.65619 2.67241 0
M  V30 962 N 91.6422 0.330177 1.54103 0
M  V30 963 C 92.8672 -0.274893 2.0557 0
M  V30 964 C 93.2922 -1.44487 1.20437 0
M  V30 965 O 92.6502 -1.80021 0.214991 0
M  V30 966 C 92.6982 -0.68079 3.54115 0
M  V30 967 O 91.8022 -1.7824 3.71893 0
M  V30 968 H 91.1432 -0.0483849 0.662235 0
M  V30 969 H 93.6732 0.480508 1.98878 0
M  V30 970 H 93.6832 -0.961635 3.96505 0
M  V30 971 H 92.3582 0.174903 4.15532 0
M  V30 972 H 90.9352 -1.49985 3.41407 0
M  V30 973 N 93.1203 -1.57491 0.0584922 0
M  V30 974 C 94.5313 -1.80526 -0.476138 0
M  V30 975 C 94.8823 -0.971334 -1.70469 0
M  V30 976 O 94.0073 -0.190012 -2.15564 0
M  V30 977 C 94.6023 -3.27424 -0.870587 0
M  V30 978 C 93.1613 -3.51351 -1.35015 0
M  V30 979 C 92.3083 -2.75343 -0.32887 0
M  V30 980 H 95.2593 -1.56133 0.284312 0
M  V30 981 H 95.2803 -3.38745 -1.73299 0
M  V30 982 H 94.7923 -3.88093 0.0237627 0
M  V30 983 H 92.8933 -2.95971 -2.26345 0
M  V30 984 H 93.0063 -4.60059 -1.33726 0
M  V30 985 H 91.3703 -2.417 -0.803321 0
M  V30 986 H 92.1533 -3.38743 0.557521 0
M  V30 987 N 94.5984 0.214957 -1.56127 0
M  V30 988 C 95.5614 1.24997 -1.92116 0
M  V30 989 C 96.5614 1.39467 -0.800344 0
M  V30 990 O 97.7514 1.37619 -1.06802 0
M  V30 991 C 94.8834 2.62271 -2.17777 0
M  V30 992 H 96.0764 0.942875 -2.84693 0
M  V30 993 H 93.6294 0.455654 -1.49511 0
M  V30 994 H 94.3644 2.98068 -1.27773 0
M  V30 995 H 94.1494 2.53143 -2.99434 0
M  V30 996 H 95.6394 3.36946 -2.46693 0
M  V30 997 N 96.0765 1.50051 0.48192 0
M  V30 998 C 97.0085 1.64263 1.59844 0
M  V30 999 C 98.0215 0.52451 1.54119 0
M  V30 1000 O 99.2105 0.797293 1.59704 0
M  V30 1001 C 96.3105 1.60102 2.98698 0
M  V30 1002 C 95.4835 2.87767 3.29407 0
M  V30 1003 C 94.5425 2.76397 4.47762 0
M  V30 1004 O 93.5685 3.50348 4.48603 0
M  V30 1005 N 94.7705 1.89222 5.48794 0
M  V30 1006 H 97.5355 2.60566 1.48073 0
M  V30 1007 H 95.0965 1.47379 0.670149 0
M  V30 1008 H 97.0885 1.50123 3.75826 0
M  V30 1009 H 95.6585 0.715798 3.04294 0
M  V30 1010 H 94.8785 3.11954 2.40994 0
M  V30 1011 H 96.1665 3.72365 3.4673 0
M  V30 1012 H 95.5645 1.28434 5.50928 0
M  V30 1013 H 94.1215 1.85154 6.24949 0
M  V30 1014 N 97.5546 -0.734337 1.39446 0
M  V30 1015 C 98.9656 -1.31264 1.32766 0
M  V30 1016 C 99.3166 -1.96198 -0.00767497 0
M  V30 1017 O 98.4416 -1.96346 -0.909796 0
M  V30 1018 C 99.0366 -2.38682 2.4045 0
M  V30 1019 C 97.5956 -2.92184 2.37288 0
M  V30 1020 C 96.7426 -1.6576 2.22304 0
M  V30 1021 H 99.6936 -0.531799 1.49525 0
M  V30 1022 H 99.7146 -3.19087 2.07276 0
M  V30 1023 H 99.2266 -1.91392 3.37625 0
M  V30 1024 H 97.3276 -3.43752 1.43754 0
M  V30 1025 H 97.4406 -3.45253 3.3217 0
M  V30 1026 H 95.8046 -1.9012 1.69489 0
M  V30 1027 H 96.5876 -1.20521 3.21449 0
M  V30 1028 N 99.0327 -1.24633 -0.964593 0
M  V30 1029 C 99.9647 -0.999302 -2.06268 0
M  V30 1030 C 100.978 0.0323226 -1.62768 0
M  V30 1031 O 102.167 -0.205079 -1.77318 0
M  V30 1032 C 99.2667 -0.486816 -3.35385 0
M  V30 1033 C 98.4397 -1.5823 -4.07777 0
M  V30 1034 C 97.4987 -1.07191 -5.15166 0
M  V30 1035 O 96.5247 -1.76426 -5.41168 0
M  V30 1036 N 97.7267 0.0920373 -5.80427 0
M  V30 1037 H 100.492 -1.94477 -2.28033 0
M  V30 1038 H 98.0527 -1.15704 -1.13244 0
M  V30 1039 H 100.045 -0.130066 -4.04491 0
M  V30 1040 H 98.6147 0.364459 -3.10468 0
M  V30 1041 H 97.8347 -2.11109 -3.32906 0
M  V30 1042 H 99.1227 -2.31854 -4.52903 0
M  V30 1043 H 98.5207 0.670784 -5.61709 0
M  V30 1044 H 97.0777 0.389905 -6.50633 0
M  V30 1045 N 100.511 1.16574 -1.06058 0
M  V30 1046 C 101.739 1.90952 -0.796552 0
M  V30 1047 C 102.154 1.77302 0.648808 0
M  V30 1048 O 101.511 1.11605 1.44397 0
M  V30 1049 C 101.562 3.41736 -1.17894 0
M  V30 1050 O 101.283 3.54975 -2.56758 0
M  V30 1051 C 102.784 4.33169 -0.942308 0
M  V30 1052 H 100.004 0.605594 -0.288959 0
M  V30 1053 H 102.548 1.47777 -1.41358 0
M  V30 1054 H 100.703 3.82623 -0.606491 0
M  V30 1055 H 101.117 4.4846 -2.72 0
M  V30 1056 H 102.591 5.37439 -1.25952 0
M  V30 1057 H 103.068 4.3903 0.122078 0
M  V30 1058 H 103.674 3.98007 -1.49902 0
M  V30 1059 N 101.989 0.842826 1.3317 0
M  V30 1060 C 102.952 0.284065 2.27433 0
M  V30 1061 C 103.952 -0.54948 1.5112 0
M  V30 1062 O 105.142 -0.362699 1.70382 0
M  V30 1063 C 102.274 -0.599384 3.35589 0
M  V30 1064 H 103.467 1.11589 2.78366 0
M  V30 1065 H 101.02 0.616221 1.4364 0
M  V30 1066 H 101.755 -1.45349 2.89904 0
M  V30 1067 H 101.54 -0.00291266 3.921 0
M  V30 1068 H 103.03 -0.983488 4.05854 0
M  V30 1069 N 103.467 -1.45747 0.599634 0
M  V30 1070 C 104.715 -2.01893 0.0915472 0
M  V30 1071 C 105.036 -1.47155 -1.27946 0
M  V30 1072 O 104.306 -0.66273 -1.84349 0
M  V30 1073 H 102.886 -0.746363 0.0308524 0
M  V30 1074 H 105.548 -1.78645 0.779237 0
M  V30 1075 H 104.644 -3.1208 0.0353086 0
M  V30 1076 N 104.945 -0.338344 -1.53925 0
M  V30 1077 C 106.173 0.261298 -2.05243 0
M  V30 1078 C 106.588 1.44625 -1.21363 0
M  V30 1079 O 105.945 1.80811 -0.247736 0
M  V30 1080 C 105.996 0.681412 -3.5502 0
M  V30 1081 O 105.717 -0.456414 -4.35716 0
M  V30 1082 C 107.218 1.34232 -4.22489 0
M  V30 1083 H 104.438 0.0513685 -0.669031 0
M  V30 1084 H 106.982 -0.488822 -1.98572 0
M  V30 1085 H 105.137 1.38148 -3.61931 0
M  V30 1086 H 105.551 -0.122564 -5.24357 0
M  V30 1087 H 107.025 1.58708 -5.28693 0
M  V30 1088 H 107.502 2.29426 -3.74514 0
M  V30 1089 H 108.108 0.684424 -4.19757 0
M  V30 1090 N 106.423 1.57458 -0.0668435 0
M  V30 1091 C 107.353 2.15468 0.899764 0
M  V30 1092 C 108.334 1.08042 1.31381 0
M  V30 1093 O 109.519 1.36054 1.38574 0
M  V30 1094 C 106.649 2.71232 2.16911 0
M  V30 1095 C 105.603 3.83781 1.89463 0
M  V30 1096 C 104.929 4.26127 3.22986 0
M  V30 1097 C 106.229 5.08238 1.20381 0
M  V30 1098 H 107.923 2.96488 0.416529 0
M  V30 1099 H 105.469 1.4262 0.198908 0
M  V30 1100 H 107.422 3.10458 2.84945 0
M  V30 1101 H 106.146 1.87426 2.67468 0
M  V30 1102 H 104.805 3.45051 1.23836 0
M  V30 1103 H 104.453 3.39249 3.71374 0
M  V30 1104 H 104.153 5.01993 3.05413 0
M  V30 1105 H 105.677 4.67966 3.92225 0
M  V30 1106 H 107.091 5.44811 1.78475 0
M  V30 1107 H 105.488 5.89349 1.13083 0
M  V30 1108 H 106.558 4.84558 0.182153 0
M  V30 1109 N 107.901 -0.206675 1.56239 0
M  V30 1110 C 109.129 -0.945345 1.8404 0
M  V30 1111 C 109.544 -1.77336 0.647885 0
M  V30 1112 O 108.901 -1.78425 -0.383511 0
M  V30 1113 C 108.952 -1.8509 3.10522 0
M  V30 1114 O 108.673 -1.05634 4.25174 0
M  V30 1115 C 110.174 -2.70222 3.51418 0
M  V30 1116 H 107.394 -0.276372 0.61144 0
M  V30 1117 H 109.938 -0.217417 2.03341 0
M  V30 1118 H 108.093 -2.53259 2.93153 0
M  V30 1119 H 108.507 -1.67238 4.97124 0
M  V30 1120 H 109.981 -3.29438 4.42916 0
M  V30 1121 H 110.458 -3.43358 2.73864 0
M  V30 1122 H 111.064 -2.07443 3.71278 0
M  V30 1123 N 109.379 -1.50304 -0.473955 0
M  V30 1124 C 110.309 -1.71886 -1.58042 0
M  V30 1125 C 111.29 -0.567799 -1.60344 0
M  V30 1126 O 112.475 -0.806623 -1.76656 0
M  V30 1127 C 109.605 -1.81036 -2.96384 0
M  V30 1128 C 108.559 -2.962 -3.08949 0
M  V30 1129 C 107.885 -2.9049 -4.48909 0
M  V30 1130 C 109.185 -4.36752 -2.86434 0
M  V30 1131 H 110.879 -2.64527 -1.40234 0
M  V30 1132 H 108.425 -1.27295 -0.673201 0
M  V30 1133 H 110.378 -1.94719 -3.73714 0
M  V30 1134 H 109.102 -0.850147 -3.15341 0
M  V30 1135 H 107.761 -2.82164 -2.3405 0
M  V30 1136 H 107.409 -1.92321 -4.64781 0
M  V30 1137 H 107.109 -3.67802 -4.58253 0
M  V30 1138 H 108.633 -3.06218 -5.28264 0
M  V30 1139 H 110.047 -4.5133 -3.53517 0
M  V30 1140 H 108.444 -5.15493 -3.07225 0
M  V30 1141 H 109.514 -4.49321 -1.82316 0
M  V30 1142 N 110.857 0.726932 -1.39834 0
M  V30 1143 C 111.787 1.85405 -1.41941 0
M  V30 1144 C 112.768 1.67751 -0.281728 0
M  V30 1145 O 113.953 1.8795 -0.488717 0
M  V30 1146 C 111.083 3.23243 -1.2701 0
M  V30 1147 C 110.037 3.55549 -2.38262 0
M  V30 1148 C 109.363 4.9241 -2.08415 0
M  V30 1149 C 110.663 3.577 -3.80589 0
M  V30 1150 H 112.357 1.83899 -2.36266 0
M  V30 1151 H 109.903 0.883349 -1.13723 0
M  V30 1152 H 111.856 4.01775 -1.27103 0
M  V30 1153 H 110.58 3.25296 -0.291564 0
M  V30 1154 H 109.239 2.79351 -2.37399 0
M  V30 1155 H 108.887 4.91052 -1.0898 0
M  V30 1156 H 108.587 5.14992 -2.82943 0
M  V30 1157 H 110.111 5.73289 -2.10171 0
M  V30 1158 H 111.525 4.26293 -3.83337 0
M  V30 1159 H 109.922 3.91804 -4.54543 0
M  V30 1160 H 110.992 2.57328 -4.10987 0
M  V30 1161 N 112.336 1.25143 0.95797 0
M  V30 1162 C 113.747 1.08851 1.51685 0
M  V30 1163 C 114.098 -0.33687 1.93286 0
M  V30 1164 O 113.223 -1.22644 1.7829 0
M  V30 1165 C 113.818 1.96978 2.75654 0
M  V30 1166 C 112.377 1.84881 3.27866 0
M  V30 1167 C 111.524 1.91329 2.0072 0
M  V30 1168 H 114.475 1.38478 0.77522 0
M  V30 1169 H 114.496 1.5078 3.4935 0
M  V30 1170 H 114.008 3.00712 2.45345 0
M  V30 1171 H 112.109 0.840182 3.63004 0
M  V30 1172 H 112.222 2.6951 3.96107 0
M  V30 1173 H 110.586 1.35174 2.15871 0
M  V30 1174 H 111.369 2.96661 1.72764 0
M  V30 1175 N 113.814 -1.1601 1.06675 0
M  V30 1176 C 115.06 -1.86909 0.786945 0
M  V30 1177 C 115.393 -1.81717 -0.685018 0
M  V30 1178 O 114.668 -1.23551 -1.50218 0
M  V30 1179 C 114.951 -3.36313 1.28707 0
M  V30 1180 C 114.804 -3.50175 2.82308 0
M  V30 1181 C 116.123 -4.3084 0.898071 0
M  V30 1182 H 113.242 -0.678677 0.287343 0
M  V30 1183 H 115.884 -1.36336 1.32334 0
M  V30 1184 H 114.034 -3.79513 0.830768 0
M  V30 1185 H 115.706 -3.15886 3.36175 0
M  V30 1186 H 113.949 -2.91959 3.20847 0
M  V30 1187 H 114.62 -4.55116 3.12368 0
M  V30 1188 H 117.096 -3.95561 1.29114 0
M  V30 1189 H 115.972 -5.33876 1.27543 0
M  V30 1190 H 116.233 -4.41662 -0.196651 0
M  V30 1191 N 115.292 -0.849877 -1.32721 0
M  V30 1192 C 116.255 -0.296122 -2.27279 0
M  V30 1193 C 117.255 0.541458 -1.5141 0
M  V30 1194 O 118.445 0.353658 -1.70572 0
M  V30 1195 C 115.577 0.581579 -3.35902 0
M  V30 1196 H 116.77 -1.13064 -2.77771 0
M  V30 1197 H 114.323 -0.62383 -1.43311 0
M  V30 1198 H 115.058 1.43809 -2.9067 0
M  V30 1199 H 114.843 -0.0178814 -3.92096 0
M  V30 1200 H 116.333 0.961951 -4.0637 0
M  V30 1201 N 116.77 1.45427 -0.607355 0
M  V30 1202 C 117.7 2.3329 0.0989352 0
M  V30 1203 C 118.681 1.46816 0.859007 0
M  V30 1204 O 119.866 1.75588 0.829604 0
M  V30 1205 C 116.996 3.29518 1.09705 0
M  V30 1206 C 115.95 4.25626 0.450206 0
M  V30 1207 C 115.276 5.11542 1.55655 0
M  V30 1208 C 116.576 5.18505 -0.628455 0
M  V30 1209 H 118.27 2.92595 -0.634716 0
M  V30 1210 H 115.816 1.40696 -0.306681 0
M  V30 1211 H 117.769 3.89855 1.59971 0
M  V30 1212 H 116.493 2.68372 1.86129 0
M  V30 1213 H 115.152 3.66586 -0.0315886 0
M  V30 1214 H 114.8 4.46765 2.31107 0
M  V30 1215 H 114.5 5.76647 1.12925 0
M  V30 1216 H 116.024 5.74748 2.06148 0
M  V30 1217 H 117.438 5.72916 -0.209877 0
M  V30 1218 H 115.835 5.92085 -0.977489 0
M  V30 1219 H 116.905 4.60948 -1.50514 0
M  V30 1220 N 118.248 0.346503 1.53744 0
M  V30 1221 C 119.664 -0.00530975 1.59599 0
M  V30 1222 C 119.864 -1.48465 1.36236 0
M  V30 1223 O 118.92 -2.24376 1.15808 0
M  V30 1224 C 120.233 0.433516 2.97559 0
M  V30 1225 C 121.781 0.386111 3.10609 0
M  V30 1226 C 122.256 0.800451 4.50951 0
M  V30 1227 N 123.747 0.754753 4.5701 0
M  V30 1228 C 124.482 1.04727 5.63755 0
M  V30 1229 N 123.978 1.4081 6.7834 0
M  V30 1230 N 125.771 0.971316 5.53644 0
M  V30 1231 H 117.922 1.31009 1.67184 0
M  V30 1232 H 120.185 0.534242 0.783128 0
M  V30 1233 H 119.891 1.46509 3.19731 0
M  V30 1234 H 119.765 -0.189753 3.76722 0
M  V30 1235 H 122.152 -0.636295 2.88158 0
M  V30 1236 H 122.233 1.04462 2.33498 0
M  V30 1237 H 121.877 1.82088 4.74137 0
M  V30 1238 H 121.807 0.119386 5.26465 0
M  V30 1239 H 124.298 0.488662 3.74727 0
M  V30 1240 H 124.611 1.61607 7.55714 0
M  V30 1241 H 122.956 1.44657 6.79779 0
M  V30 1242 H 126.147 0.688748 4.63005 0
M  V30 1243 H 126.32 1.20263 6.36742 0
M  V30 1244 N 119.726 -1.57421 0.075193 0
M  V30 1245 C 120.689 -2.11791 -0.876203 0
M  V30 1246 C 121.689 -1.04268 -1.22412 0
M  V30 1247 O 122.879 -1.30242 -1.15684 0
M  V30 1248 C 120.011 -2.62207 -2.17854 0
M  V30 1249 H 121.204 -2.9716 -0.40444 0
M  V30 1250 H 118.757 -1.55333 -0.173557 0
M  V30 1251 H 119.492 -1.803 -2.6956 0
M  V30 1252 H 119.277 -3.40802 -1.93897 0
M  V30 1253 H 120.767 -3.04335 -2.85955 0
M  V30 1254 N 121.204 0.198386 -1.56346 0
M  V30 1255 C 122.615 0.763358 -1.70381 0
M  V30 1256 C 122.966 1.83995 -0.681203 0
M  V30 1257 O 122.091 2.15785 0.16305 0
M  V30 1258 C 122.686 1.39143 -3.08909 0
M  V30 1259 C 121.245 1.90352 -3.2472 0
M  V30 1260 C 120.392 0.772233 -2.6633 0
M  V30 1261 H 123.343 -0.0266377 -1.58678 0
M  V30 1262 H 123.364 2.26076 -3.06055 0
M  V30 1263 H 122.876 0.607638 -3.83314 0
M  V30 1264 H 120.977 2.71461 -2.55225 0
M  V30 1265 H 121.09 2.06757 -4.3219 0
M  V30 1266 H 119.454 1.18566 -2.2542 0
M  V30 1267 H 120.237 0.00073556 -3.433 0
M  V30 1268 N 122.682 1.50554 0.465978 0
M  V30 1269 C 123.928 1.62038 1.21949 0
M  V30 1270 C 124.261 0.322116 1.9151 0
M  V30 1271 O 123.536 -0.676723 1.82348 0
M  V30 1272 C 123.819 2.80421 2.25912 0
M  V30 1273 C 123.672 4.20144 1.60622 0
M  V30 1274 C 124.991 2.94354 3.27176 0
M  V30 1275 H 122.11 0.589752 0.441998 0
M  V30 1276 H 124.752 1.82956 0.51257 0
M  V30 1277 H 122.902 2.62717 2.86203 0
M  V30 1278 H 124.574 4.49449 1.03889 0
M  V30 1279 H 122.817 4.24165 0.909211 0
M  V30 1280 H 123.488 4.98914 2.36196 0
M  V30 1281 H 125.964 3.10578 2.76913 0
M  V30 1282 H 124.84 3.788 3.97242 0
M  V30 1283 H 125.101 2.05186 3.916 0
M  V30 1284 N 124.16 -0.719506 1.40217 0
M  V30 1285 C 125.388 -1.50864 1.41589 0
M  V30 1286 C 125.803 -1.88794 0.0145275 0
M  V30 1287 O 125.16 -1.55174 -0.960594 0
M  V30 1288 C 125.211 -2.78646 2.30302 0
M  V30 1289 O 124.932 -2.42321 3.64983 0
M  V30 1290 C 126.433 -3.72569 2.40224 0
M  V30 1291 H 123.653 -0.465709 0.48307 0
M  V30 1292 H 126.197 -0.88785 1.84221 0
M  V30 1293 H 124.352 -3.37019 1.91042 0
M  V30 1294 H 124.766 -3.24514 4.12057 0
M  V30 1295 H 126.24 -4.5908 3.06512 0
M  V30 1296 H 126.717 -4.15403 1.42608 0
M  V30 1297 H 127.323 -3.20109 2.80019 0
M  V30 1298 N 125.638 -1.25649 -0.95132 0
M  V30 1299 C 126.601 -1.06399 -2.03007 0
M  V30 1300 C 127.601 -0.0156794 -1.60792 0
M  V30 1301 O 128.791 -0.25817 -1.72276 0
M  V30 1302 C 125.923 -0.616184 -3.35285 0
M  V30 1303 H 127.116 -2.02164 -2.21517 0
M  V30 1304 H 124.669 -1.08103 -1.12887 0
M  V30 1305 H 125.404 0.343917 -3.22471 0
M  V30 1306 H 125.189 -1.37301 -3.67275 0
M  V30 1307 H 126.679 -0.503032 -4.14559 0
M  V30 1308 N 127.117 1.15442 -1.07289 0
M  V30 1309 C 128.365 1.85845 -0.794096 0
M  V30 1310 C 128.686 1.82692 0.681809 0
M  V30 1311 O 127.956 1.26741 1.49377 0
M  V30 1312 H 126.536 0.688089 -0.290763 0
M  V30 1313 H 129.198 1.39947 -1.3565 0
M  V30 1314 H 128.294 2.91001 -1.12804 0
M  V30 1315 N 128.595 0.856903 1.32268 0
M  V30 1316 C 129.527 0.260412 2.27716 0
M  V30 1317 C 130.54 -0.569137 1.52528 0
M  V30 1318 O 131.729 -0.39326 1.74114 0
M  V30 1319 C 128.829 -0.650477 3.32599 0
M  V30 1320 C 128.002 0.14372 4.37164 0
M  V30 1321 C 127.061 -0.69328 5.21613 0
M  V30 1322 O 126.087 -0.12599 5.69061 0
M  V30 1323 N 127.289 -2.00761 5.44679 0
M  V30 1324 H 130.054 1.08059 2.79541 0
M  V30 1325 H 127.615 0.717103 1.45152 0
M  V30 1326 H 129.607 -1.21581 3.86005 0
M  V30 1327 H 128.177 -1.37133 2.80915 0
M  V30 1328 H 127.397 0.890486 3.8401 0
M  V30 1329 H 128.685 0.68915 5.04111 0
M  V30 1330 H 128.083 -2.49181 5.07863 0
M  V30 1331 H 126.64 -2.52103 6.01072 0
M  V30 1332 N 130.073 -1.45103 0.615059 0
M  V30 1333 C 131.003 -2.33339 -0.0865619 0
M  V30 1334 C 131.984 -1.4727 -0.851209 0
M  V30 1335 O 133.169 -1.76026 -0.820281 0
M  V30 1336 C 130.299 -3.30095 -1.07956 0
M  V30 1337 C 129.253 -4.25858 -0.427628 0
M  V30 1338 C 128.579 -5.12361 -1.5294 0
M  V30 1339 C 129.879 -5.18165 0.655944 0
M  V30 1340 H 131.573 -2.92254 0.650224 0
M  V30 1341 H 129.119 -1.40532 0.314138 0
M  V30 1342 H 131.072 -3.90698 -1.57901 0
M  V30 1343 H 129.796 -2.69355 -1.84703 0
M  V30 1344 H 128.455 -3.66564 0.0510292 0
M  V30 1345 H 128.103 -4.47984 -2.28734 0
M  V30 1346 H 127.803 -5.77238 -1.09865 0
M  V30 1347 H 129.327 -5.75833 -2.03098 0
M  V30 1348 H 130.741 -5.72796 0.240257 0
M  V30 1349 H 129.138 -5.91559 1.00888 0
M  V30 1350 H 130.208 -4.60144 1.52957 0
M  V30 1351 N 131.551 -0.354651 -1.53558 0
M  V30 1352 C 132.514 0.484566 -2.24019 0
M  V30 1353 C 133.514 1.01861 -1.24422 0
M  V30 1354 O 134.704 0.906097 -1.4878 0
M  V30 1355 C 131.836 1.67615 -2.96847 0
M  V30 1356 H 133.029 -0.131843 -2.9961 0
M  V30 1357 H 130.582 -0.106165 -1.55939 0
M  V30 1358 H 131.317 2.33095 -2.25471 0
M  V30 1359 H 131.102 1.30029 -3.69912 0
M  V30 1360 H 132.592 2.27114 -3.50441 0
M  V30 1361 N 133.029 1.57378 -0.0835403 0
M  V30 1362 C 134.275 1.94217 0.583733 0
M  V30 1363 C 134.608 0.964653 1.68547 0
M  V30 1364 O 133.883 -0.00422258 1.945 0
M  V30 1365 C 134.166 3.41253 1.14972 0
M  V30 1366 C 134.019 4.49768 0.0538277 0
M  V30 1367 C 135.338 3.89352 2.05166 0
M  V30 1368 H 132.457 0.706233 0.210724 0
M  V30 1369 H 135.099 1.89392 -0.1519 0
M  V30 1370 H 133.249 3.45496 1.77665 0
M  V30 1371 H 134.921 4.57641 -0.579851 0
M  V30 1372 H 133.164 4.29432 -0.614068 0
M  V30 1373 H 133.835 5.49817 0.490452 0
M  V30 1374 H 136.311 3.87189 1.52393 0
M  V30 1375 H 135.187 4.92822 2.41698 0
M  V30 1376 H 135.448 3.27973 2.96456 0
M  V30 1377 N 134.507 -0.190092 1.56449 0
M  V30 1378 C 135.417 -1.25591 1.98152 0
M  V30 1379 C 136.433 -1.49519 0.889944 0
M  V30 1380 O 137.609 -1.62036 1.19609 0
M  V30 1381 C 134.674 -2.57916 2.3169 0
M  V30 1382 C 133.735 -2.42015 3.5458 0
M  V30 1383 C 132.968 -3.6803 3.8651 0
M  V30 1384 O 133.191 -4.72413 3.1966 0
M  V30 1385 O 132.125 -3.6326 4.79923 0
M  V30 1386 H 135.951 -0.931988 2.89046 0
M  V30 1387 H 133.536 -0.395488 1.4407 0
M  V30 1388 H 135.418 -3.36008 2.54316 0
M  V30 1389 H 134.093 -2.89925 1.43963 0
M  V30 1390 H 133 -1.62017 3.37196 0
M  V30 1391 H 134.333 -2.14937 4.4279 0
M  V30 1392 N 135.985 -1.50799 -0.457987 0
M  V30 1393 C 136.933 -1.71162 -1.575 0
M  V30 1394 C 137.927 -0.577592 -1.59249 0
M  V30 1395 O 139.133 -0.758443 -1.63241 0
M  V30 1396 H 135.508 -0.540468 -0.522875 0
M  V30 1397 H 137.479 -2.64837 -1.37492 0
M  V30 1398 C 136.228 -1.83496 -2.95338 0
M  V30 1399 H 135.551 -2.70153 -2.94716 0
M  V30 1400 H 136.991 -2.01765 -3.72917 0
M  V30 1401 C 135.45 -0.589694 -3.31699 0
M  V30 1402 O 135.98 0.265163 -4.00824 0
M  V30 1403 N 134.186 -0.439845 -2.87252 0
M  V30 1404 H 133.733 -1.13655 -2.31172 0
M  V30 1405 H 133.691 0.392159 -3.11945 0
M  V30 1406 N 137.463 0.71206 -1.40597 0
M  V30 1407 C 138.711 1.46907 -1.38791 0
M  V30 1408 C 139.032 1.94998 0.00780391 0
M  V30 1409 O 138.302 1.70587 0.963174 0
M  V30 1410 H 136.882 0.545043 -0.51082 0
M  V30 1411 H 139.544 0.843882 -1.75683 0
M  V30 1412 H 138.64 2.34021 -2.06496 0
M  V30 1413 N 138.941 1.26152 0.944643 0
M  V30 1414 C 139.891 1.04081 2.02857 0
M  V30 1415 C 140.875 -0.0256555 1.6088 0
M  V30 1416 O 142.067 0.190884 1.75968 0
M  V30 1417 C 139.196 0.672118 3.36656 0
M  V30 1418 C 138.282 1.77586 3.85128 0
M  V30 1419 N 138.673 3.01272 4.06287 0
M  V30 1420 C 136.971 1.65867 4.1401 0
M  V30 1421 C 137.672 3.72983 4.46384 0
M  V30 1422 N 136.648 3.00653 4.52889 0
M  V30 1423 H 140.45 1.97968 2.17223 0
M  V30 1424 H 137.964 1.16618 1.13022 0
M  V30 1425 H 139.961 0.495166 4.13949 0
M  V30 1426 H 138.621 -0.259307 3.23663 0
M  V30 1427 H 139.632 3.37213 3.93075 0
M  V30 1428 H 136.309 0.796907 4.09824 0
M  V30 1429 H 137.699 4.792 4.70975 0
M  V30 1430 N 140.419 -1.14872 1.07899 0
M  V30 1431 C 141.649 -1.89386 0.825631 0
M  V30 1432 C 142.057 -1.78565 -0.625406 0
M  V30 1433 O 141.4 -1.13918 -1.44113 0
M  V30 1434 C 141.462 -3.40206 1.16191 0
M  V30 1435 C 141.126 -3.74812 2.61467 0
M  V30 1436 C 142.123 -3.75367 3.59716 0
M  V30 1437 C 139.808 -4.0495 2.97189 0
M  V30 1438 C 141.802 -4.05574 4.9172 0
M  V30 1439 C 139.489 -4.34821 4.29388 0
M  V30 1440 C 140.487 -4.35116 5.26463 0
M  V30 1441 O 140.175 -4.64267 6.56286 0
M  V30 1442 H 139.907 -0.606894 0.297751 0
M  V30 1443 H 142.461 -1.46438 1.44031 0
M  V30 1444 H 140.691 -3.8358 0.490214 0
M  V30 1445 H 142.38 -3.96018 0.890193 0
M  V30 1446 H 143.146 -3.52176 3.33462 0
M  V30 1447 H 139.025 -4.03876 2.22273 0
M  V30 1448 H 142.569 -4.05719 5.67484 0
M  V30 1449 H 138.466 -4.5748 4.55392 0
M  V30 1450 H 139.234 -4.82007 6.61522 0
M  V30 1451 N 141.898 -0.863906 -1.31812 0
M  V30 1452 C 143.144 -0.472535 -1.97218 0
M  V30 1453 C 143.477 0.971394 -1.68159 0
M  V30 1454 O 142.752 1.68309 -0.974798 0
M  V30 1455 C 143.035 -0.723054 -3.52766 0
M  V30 1456 C 142.888 -2.21608 -3.91421 0
M  V30 1457 C 144.207 -0.185522 -4.39709 0
M  V30 1458 H 141.326 -0.173158 -0.71637 0
M  V30 1459 H 143.968 -1.08403 -1.56041 0
M  V30 1460 H 142.118 -0.202577 -3.87971 0
M  V30 1461 H 143.79 -2.80334 -3.66347 0
M  V30 1462 H 142.033 -2.691 -3.40246 0
M  V30 1463 H 142.704 -2.34203 -4.99853 0
M  V30 1464 H 145.18 -0.630726 -4.11292 0
M  V30 1465 H 144.056 -0.390306 -5.47511 0
M  V30 1466 H 144.317 0.912229 -4.32586 0
M  V30 1467 N 143.376 1.44774 -0.622745 0
M  V30 1468 C 144.622 2.0242 -0.124083 0
M  V30 1469 C 144.955 1.4881 1.24777 0
M  V30 1470 O 144.23 0.668799 1.8264 0
M  V30 1471 C 144.513 3.59957 -0.101619 0
M  V30 1472 C 144.366 4.23867 -1.50521 0
M  V30 1473 C 145.685 4.36284 0.578272 0
M  V30 1474 H 142.804 0.735528 -0.0465645 0
M  V30 1475 H 145.446 1.72447 -0.797617 0
M  V30 1476 H 143.596 3.85623 0.471934 0
M  V30 1477 H 145.268 4.09336 -2.12701 0
M  V30 1478 H 143.511 3.81684 -2.06154 0
M  V30 1479 H 144.182 5.32843 -1.4416 0
M  V30 1480 H 146.658 4.16001 0.0906057 0
M  V30 1481 H 145.534 5.46004 0.563149 0
M  V30 1482 H 145.795 4.10271 1.64713 0
M  V30 1483 N 144.854 0.36279 1.53368 0
M  V30 1484 C 145.764 -0.492994 2.29362 0
M  V30 1485 C 146.78 -1.09507 1.35219 0
M  V30 1486 O 147.956 -1.10662 1.68273 0
M  V30 1487 C 145.021 -1.61855 3.066 0
M  V30 1488 C 144.082 -1.04429 4.16405 0
M  V30 1489 C 143.315 -2.11621 4.89951 0
M  V30 1490 O 143.538 -3.32684 4.63333 0
M  V30 1491 O 142.472 -1.74835 5.75948 0
M  V30 1492 H 146.298 0.125331 3.03441 0
M  V30 1493 H 143.883 0.127253 1.48857 0
M  V30 1494 H 145.765 -2.27302 3.54841 0
M  V30 1495 H 144.44 -2.22233 2.3536 0
M  V30 1496 H 143.347 -0.353819 3.72423 0
M  V30 1497 H 144.68 -0.485113 4.89804 0
M  V30 1498 N 146.332 -1.57332 0.0918853 0
M  V30 1499 C 147.56 -1.98574 -0.581048 0
M  V30 1500 C 147.975 -0.970903 -1.61923 0
M  V30 1501 O 147.332 0.0399054 -1.82456 0
M  V30 1502 C 147.383 -3.39872 -1.23164 0
M  V30 1503 O 147.104 -4.37469 -0.234989 0
M  V30 1504 C 148.605 -3.96099 -1.99049 0
M  V30 1505 H 145.825 -0.65261 -0.156018 0
M  V30 1506 H 148.369 -2.0379 0.170225 0
M  V30 1507 H 146.524 -3.35679 -1.93386 0
M  V30 1508 H 146.938 -5.19751 -0.70418 0
M  V30 1509 H 148.412 -4.97127 -2.39934 0
M  V30 1510 H 148.889 -3.3374 -2.85507 0
M  V30 1511 H 149.495 -4.03755 -1.3365 0
M  V30 1512 N 147.81 0.181792 -1.56548 0
M  V30 1513 C 148.74 1.22765 -1.98623 0
M  V30 1514 C 149.721 1.46747 -0.860189 0
M  V30 1515 O 150.906 1.58259 -1.12551 0
M  V30 1516 C 148.036 2.56894 -2.33715 0
M  V30 1517 C 146.99 2.475 -3.49182 0
M  V30 1518 C 146.316 3.86023 -3.69986 0
M  V30 1519 C 147.616 1.98866 -4.82959 0
M  V30 1520 H 149.31 0.877942 -2.86239 0
M  V30 1521 H 146.856 0.42088 -1.37712 0
M  V30 1522 H 148.809 3.30253 -2.61746 0
M  V30 1523 H 147.533 2.93632 -1.42997 0
M  V30 1524 H 146.192 1.76596 -3.21262 0
M  V30 1525 H 145.84 4.20136 -2.76576 0
M  V30 1526 H 145.54 3.80609 -4.47672 0
M  V30 1527 H 147.064 4.60984 -4.00407 0
M  V30 1528 H 148.478 2.61992 -5.09934 0
M  V30 1529 H 146.875 2.04424 -5.64208 0
M  V30 1530 H 147.945 0.942465 -4.75653 0
M  V30 1531 N 149.288 1.51039 0.449983 0
M  V30 1532 C 150.251 1.70863 1.5277 0
M  V30 1533 C 151.251 0.578846 1.5002 0
M  V30 1534 O 152.441 0.846213 1.52266 0
M  V30 1535 C 149.573 1.75341 2.9235 0
M  V30 1536 H 150.766 2.67034 1.36502 0
M  V30 1537 H 148.319 1.40838 0.677812 0
M  V30 1538 H 149.054 0.809383 3.14037 0
M  V30 1539 H 148.839 2.57436 2.95752 0
M  V30 1540 H 150.329 1.92559 3.70555 0
M  V30 1541 N 150.766 -0.704594 1.40972 0
M  V30 1542 C 152.182 -1.01406 1.23244 0
M  V30 1543 C 152.382 -2.01169 0.115399 0
M  V30 1544 O 151.438 -2.47021 -0.523147 0
M  V30 1545 C 152.751 -1.54728 2.57836 0
M  V30 1546 C 154.299 -1.66658 2.64942 0
M  V30 1547 C 154.774 -2.23383 3.9983 0
M  V30 1548 N 156.265 -2.30756 4.01629 0
M  V30 1549 C 157 -2.75655 5.02794 0
M  V30 1550 N 156.496 -3.20225 6.14352 0
M  V30 1551 N 158.289 -2.75138 4.90159 0
M  V30 1552 H 150.44 -0.0435285 2.12355 0
M  V30 1553 H 152.703 -0.0818951 0.944456 0
M  V30 1554 H 152.409 -0.888832 3.40283 0
M  V30 1555 H 152.283 -2.53084 2.79693 0
M  V30 1556 H 154.67 -2.31617 1.8286 0
M  V30 1557 H 154.751 -0.668717 2.46904 0
M  V30 1558 H 154.395 -1.59043 4.82357 0
M  V30 1559 H 154.325 -3.23904 4.15203 0
M  V30 1560 H 156.816 -1.99291 3.21079 0
M  V30 1561 H 157.129 -3.53084 6.87424 0
M  V30 1562 H 155.474 -3.18156 6.17901 0
M  V30 1563 H 158.665 -2.39661 4.02095 0
M  V30 1564 H 158.838 -3.09812 5.6914 0
M  V30 1565 N 152.244 -1.26651 -0.937939 0
M  V30 1566 C 153.207 -1.08546 -2.01867 0
M  V30 1567 C 154.207 -0.0327327 -1.60767 0
M  V30 1568 O 155.397 -0.276427 -1.71993 0
M  V30 1569 C 152.529 -0.651711 -3.34613 0
M  V30 1570 H 153.722 -2.04502 -2.1936 0
M  V30 1571 H 151.275 -1.09294 -1.11734 0
M  V30 1572 H 152.01 0.309696 -3.22818 0
M  V30 1573 H 151.795 -1.41189 -3.65798 0
M  V30 1574 H 153.285 -0.546973 -4.14002 0
M  V30 1575 N 153.722 1.14298 -1.08507 0
M  V30 1576 C 154.962 1.87016 -0.824894 0
M  V30 1577 C 155.326 1.81099 0.637735 0
M  V30 1578 O 156.527 2.48963 1.01345 0
M  V30 1579 C 154.798 3.31584 -1.33368 0
M  V30 1580 S 156.357 4.21903 -1.20596 0
M  V30 1581 H 153.175 0.645259 -0.2986 0
M  V30 1582 H 155.777 1.37822 -1.38656 0
M  V30 1583 H 154.481 3.33439 -2.39262 0
M  V30 1584 H 154.012 3.85836 -0.767734 0
M  V30 1585 H 156.027 4.95971 -0.150891 0
M  V30 1586 N 155.201 0.870884 1.31352 0
M  V30 1587 C 156.478 0.402907 1.91405 0
M  V30 1588 C 156.858 -1.11512 1.79244 0
M  V30 1589 O 156.206 -1.94411 1.2007 0
M  V30 1590 C 156.416 0.885301 3.37585 0
M  V30 1591 C 157.764 0.911971 4.14691 0
M  V30 1592 O 158.788 0.831016 3.46371 0
M  V30 1593 O 157.647 1.02927 5.3672 0
M  V30 1594 H 154.741 0.120698 0.818145 0
M  V30 1595 H 157.287 0.958857 1.40014 0
M  V30 1596 H 156.059 1.92889 3.40455 0
M  V30 1597 H 155.682 0.307714 3.96407 0
M  V30 1598 N 156.679 -1.44442 0.630414 0
M  V30 1599 C 157.927 -2.01653 0.134351 0
M  V30 1600 C 158.248 -1.49836 -1.24796 0
M  V30 1601 O 157.518 -0.701684 -1.82902 0
M  V30 1602 H 156.098 -0.74554 0.0466769 0
M  V30 1603 H 158.76 -1.76952 0.816955 0
M  V30 1604 H 157.856 -3.11935 0.101498 0
M  V30 1605 N 158.157 -0.370918 -1.53173 0
M  V30 1606 C 159.397 0.217106 -2.03244 0
M  V30 1607 C 159.761 1.45558 -1.25207 0
M  V30 1608 O 160.962 2.11957 -1.65311 0
M  V30 1609 C 159.233 0.496664 -3.53932 0
M  V30 1610 S 160.792 1.0576 -4.25864 0
M  V30 1611 H 157.61 0.0627827 -0.708223 0
M  V30 1612 H 160.212 -0.515019 -1.88594 0
M  V30 1613 H 158.916 -0.412096 -4.08326 0
M  V30 1614 H 158.447 1.25772 -3.72753 0
M  V30 1615 H 160.462 2.34145 -4.37482 0
M  V30 1616 N 159.635 1.57281 -0.100228 0
M  V30 1617 C 160.565 2.17328 0.853857 0
M  V30 1618 C 161.546 1.10804 1.2906 0
M  V30 1619 O 162.731 1.38963 1.35657 0
M  V30 1620 C 159.861 2.75772 2.11109 0
M  V30 1621 C 158.815 3.87713 1.81279 0
M  V30 1622 C 158.141 4.32882 3.13874 0
M  V30 1623 C 159.441 5.10677 1.09574 0
M  V30 1624 H 161.135 2.97305 0.353545 0
M  V30 1625 H 158.681 1.43009 0.168612 0
M  V30 1626 H 160.634 3.16433 2.78296 0
M  V30 1627 H 159.358 1.93057 2.63432 0
M  V30 1628 H 158.017 3.476 1.16489 0
M  V30 1629 H 157.665 3.47051 3.64095 0
M  V30 1630 H 157.365 5.08358 2.94696 0
M  V30 1631 H 158.889 4.7618 3.82211 0
M  V30 1632 H 160.303 5.48474 1.66879 0
M  V30 1633 H 158.7 5.91615 1.00557 0
M  V30 1634 H 159.77 4.84835 0.0793299 0
M  V30 1635 N 161.113 -0.173488 1.56642 0
M  V30 1636 C 162.061 -1.23417 1.97157 0
M  V30 1637 C 163.055 -1.45946 0.860013 0
M  V30 1638 O 164.261 -1.46551 1.04512 0
M  V30 1639 H 160.636 -0.414818 0.62724 0
M  V30 1640 H 162.607 -0.865582 2.8557 0
M  V30 1641 C 161.356 -2.5665 2.34576 0
M  V30 1642 H 160.679 -2.40137 3.19647 0
M  V30 1643 H 162.119 -3.2956 2.6677 0
M  V30 1644 C 160.578 -3.15245 1.18836 0
M  V30 1645 O 161.108 -3.98883 0.474869 0
M  V30 1646 N 159.314 -2.74303 0.959497 0
M  V30 1647 H 158.861 -2.0639 1.54146 0
M  V30 1648 H 158.819 -3.13844 0.186932 0
M  V30 1649 N 162.591 -1.51276 -0.441967 0
M  V30 1650 C 163.839 -1.63392 -1.18943 0
M  V30 1651 C 164.16 -0.350159 -1.9183 0
M  V30 1652 O 163.43 0.633784 -1.85364 0
M  V30 1653 H 162.01 -0.602164 -0.442049 0
M  V30 1654 H 164.672 -1.88186 -0.507165 0
M  V30 1655 H 163.768 -2.45934 -1.92154 0
M  V30 1656 N 164.069 0.697108 -1.41344 0
M  V30 1657 C 164.979 1.84088 -1.45427 0
M  V30 1658 C 165.995 1.70545 -0.34501 0
M  V30 1659 O 167.171 1.92488 -0.592492 0
M  V30 1660 C 164.236 3.20056 -1.33286 0
M  V30 1661 C 163.297 3.45718 -2.54514 0
M  V30 1662 C 162.53 4.75199 -2.42944 0
M  V30 1663 O 162.753 5.51579 -1.45318 0
M  V30 1664 O 161.687 5.0161 -3.32672 0
M  V30 1665 H 165.513 1.836 -2.41919 0
M  V30 1666 H 163.098 0.849966 -1.22866 0
M  V30 1667 H 164.98 4.01236 -1.28794 0
M  V30 1668 H 163.655 3.2123 -0.39909 0
M  V30 1669 H 162.562 2.64474 -2.64583 0
M  V30 1670 H 163.895 3.49356 -3.46715 0
M  V30 1671 N 165.547 1.27147 0.931209 0
M  V30 1672 C 166.794 1.13278 1.67852 0
M  V30 1673 C 167.122 -0.32204 1.91815 0
M  V30 1674 O 166.377 -1.25224 1.50391 0
M  V30 1675 C 166.676 1.8579 3.05314 0
M  V30 1676 C 166.342 3.35657 3.01073 0
M  V30 1677 C 165.004 3.76536 2.99623 0
M  V30 1678 C 167.356 4.31299 2.92627 0
M  V30 1679 C 164.684 5.11426 2.87506 0
M  V30 1680 C 167.036 5.66242 2.82051 0
M  V30 1681 C 165.7 6.06418 2.7895 0
M  V30 1682 H 164.97 0.414515 0.614214 0
M  V30 1683 H 167.617 1.57712 1.08624 0
M  V30 1684 H 165.922 1.33854 3.68226 0
M  V30 1685 H 167.619 1.72491 3.62005 0
M  V30 1686 H 164.209 3.03146 3.02986 0
M  V30 1687 H 168.393 4.00692 2.92848 0
M  V30 1688 H 163.649 5.41705 2.83489 0
M  V30 1689 H 167.823 6.40026 2.74481 0
M  V30 1690 H 165.45 7.10895 2.69318 0
M  V30 1691 N 167.025 -1.13721 1.09112 0
M  V30 1692 C 167.988 -2.17222 0.731241 0
M  V30 1693 C 168.988 -1.59035 -0.237566 0
M  V30 1694 O 170.178 -1.74192 -0.0161704 0
M  V30 1695 C 167.31 -3.40804 0.0808443 0
M  V30 1696 H 168.503 -2.50573 1.64783 0
M  V30 1697 H 166.056 -1.28493 0.889897 0
M  V30 1698 H 166.791 -3.1304 -0.847127 0
M  V30 1699 H 166.576 -3.84306 0.777896 0
M  V30 1700 H 168.066 -4.1731 -0.155657 0
M  V30 1701 N 168.503 -0.877838 -1.30888 0
M  V30 1702 C 169.466 -0.344265 -2.266 0
M  V30 1703 C 170.466 0.50922 -1.52524 0
M  V30 1704 O 171.656 0.317398 -1.71284 0
M  V30 1705 C 168.788 0.510198 -3.37061 0
M  V30 1706 H 169.981 -1.1893 -2.7531 0
M  V30 1707 H 167.534 -0.654088 -1.41956 0
M  V30 1708 H 168.269 1.37612 -2.93655 0
M  V30 1709 H 168.054 -0.101047 -3.9197 0
M  V30 1710 H 169.544 0.875537 -4.08319 0
M  V30 1711 N 169.982 1.44106 -0.638065 0
M  V30 1712 C 170.912 2.33448 0.0494287 0
M  V30 1713 C 171.893 1.48606 0.827672 0
M  V30 1714 O 173.078 1.77308 0.792173 0
M  V30 1715 C 170.208 3.31771 1.02691 0
M  V30 1716 C 169.162 4.26485 0.359823 0
M  V30 1717 C 168.488 5.14729 1.44769 0
M  V30 1718 C 169.788 5.17056 -0.738296 0
M  V30 1719 H 171.482 2.91183 -0.696636 0
M  V30 1720 H 169.028 1.40014 -0.336456 0
M  V30 1721 H 170.981 3.93161 1.51666 0
M  V30 1722 H 169.705 2.7226 1.80395 0
M  V30 1723 H 168.364 3.66437 -0.10934 0
M  V30 1724 H 168.012 4.51566 2.21578 0
M  V30 1725 H 167.712 5.78913 1.00668 0
M  V30 1726 H 169.236 5.78991 1.93911 0
M  V30 1727 H 170.65 5.72342 -0.331354 0
M  V30 1728 H 169.047 5.89879 -1.10286 0
M  V30 1729 H 170.117 4.57652 -1.60258 0
M  V30 1730 N 171.46 0.379036 1.52974 0
M  V30 1731 C 172.709 -0.207612 2.00629 0
M  V30 1732 C 173.022 -1.48758 1.27006 0
M  V30 1733 O 174.228 -2.15365 1.65318 0
M  V30 1734 C 172.684 -0.42053 3.57435 0
M  V30 1735 C 172.292 0.845587 4.39948 0
M  V30 1736 C 174.036 -0.964102 4.13407 0
M  V30 1737 C 171.943 0.601513 5.88333 0
M  V30 1738 H 170.873 -0.0813591 0.749598 0
M  V30 1739 H 173.524 0.499853 1.76561 0
M  V30 1740 H 171.906 -1.18959 3.7771 0
M  V30 1741 H 173.08 1.61848 4.31442 0
M  V30 1742 H 171.395 1.31336 3.95145 0
M  V30 1743 H 173.992 -1.16225 5.21916 0
M  V30 1744 H 174.335 -1.93019 3.68849 0
M  V30 1745 H 174.868 -0.25487 3.96983 0
M  V30 1746 H 171.607 1.53831 6.37194 0
M  V30 1747 H 171.127 -0.132628 5.99653 0
M  V30 1748 H 172.806 0.232134 6.46583 0
M  V30 1749 N 172.938 -1.57226 0.108567 0
M  V30 1750 C 174.166 -1.99179 -0.559954 0
M  V30 1751 C 174.581 -0.988022 -1.60884 0
M  V30 1752 O 173.938 0.0205512 -1.82488 0
M  V30 1753 C 173.989 -3.41159 -1.19552 0
M  V30 1754 O 173.71 -4.37694 -0.188577 0
M  V30 1755 C 175.211 -3.98188 -1.94837 0
M  V30 1756 H 172.431 -0.654228 -0.149088 0
M  V30 1757 H 174.975 -2.03598 0.19183 0
M  V30 1758 H 173.13 -3.37711 -1.89815 0
M  V30 1759 H 173.544 -5.20469 -0.649014 0
M  V30 1760 H 175.018 -4.99644 -2.34648 0
M  V30 1761 H 175.495 -3.3675 -2.81951 0
M  V30 1762 H 176.101 -4.0515 -1.2936 0
M  V30 1763 N 174.416 0.165178 -1.56732 0
M  V30 1764 C 175.664 0.879068 -1.8198 0
M  V30 1765 C 175.985 1.82514 -0.686561 0
M  V30 1766 O 175.255 1.93694 0.293146 0
M  V30 1767 H 173.835 0.327608 -0.671329 0
M  V30 1768 H 176.497 0.163526 -1.94213 0
M  V30 1769 H 175.593 1.45228 -2.76252 0
M  V30 1770 N 175.894 1.51508 0.433938 0
M  V30 1771 C 177.305 1.56784 1.01369 0
M  V30 1772 C 177.656 0.393349 1.92217 0
M  V30 1773 O 176.781 -0.489441 2.10792 0
M  V30 1774 C 177.376 2.84144 1.8452 0
M  V30 1775 C 175.935 2.9198 2.37539 0
M  V30 1776 C 175.082 2.51482 1.16843 0
M  V30 1777 H 178.033 1.57236 0.215081 0
M  V30 1778 H 178.054 2.68098 2.70007 0
M  V30 1779 H 177.566 3.69607 1.18373 0
M  V30 1780 H 175.667 2.10955 3.0713 0
M  V30 1781 H 175.78 3.95704 2.70103 0
M  V30 1782 H 174.144 2.04758 1.51481 0
M  V30 1783 H 174.927 3.39293 0.523015 0
M  V30 1784 N 177.372 -0.689602 1.41712 0
M  V30 1785 C 178.618 -1.45181 1.41599 0
M  V30 1786 C 178.951 -1.94181 0.0270081 0
M  V30 1787 O 178.226 -1.6993 -0.946265 0
M  V30 1788 C 178.509 -2.65945 2.42787 0
M  V30 1789 C 178.362 -2.22672 3.90816 0
M  V30 1790 C 179.681 -3.68149 2.41151 0
M  V30 1791 H 176.8 -0.526576 0.515642 0
M  V30 1792 H 179.442 -0.784947 1.73028 0
M  V30 1793 H 177.592 -3.2284 2.16116 0
M  V30 1794 H 179.264 -1.71058 4.28412 0
M  V30 1795 H 177.507 -1.54394 4.05395 0
M  V30 1796 H 178.178 -3.0935 4.57172 0
M  V30 1797 H 180.654 -3.2094 2.64834 0
M  V30 1798 H 179.53 -4.50248 3.13955 0
M  V30 1799 H 179.791 -4.18259 1.43221 0
M  V30 1800 N 178.85 -1.27639 -0.924453 0
M  V30 1801 C 179.8 -1.07295 -2.01176 0
M  V30 1802 C 180.784 5.77352e-05 -1.609 0
M  V30 1803 O 181.976 -0.218855 -1.75642 0
M  V30 1804 C 179.105 -0.725592 -3.35544 0
M  V30 1805 C 178.191 -1.83691 -3.82254 0
M  V30 1806 N 178.582 -3.07697 -4.01443 0
M  V30 1807 C 176.88 -1.72433 -4.11319 0
M  V30 1808 C 177.581 -3.80037 -4.40394 0
M  V30 1809 N 176.557 -3.0782 -4.48049 0
M  V30 1810 H 180.359 -2.01399 -2.14046 0
M  V30 1811 H 177.873 -1.18401 -1.11153 0
M  V30 1812 H 179.87 -0.560959 -4.13109 0
M  V30 1813 H 178.53 0.207782 -3.24034 0
M  V30 1814 H 179.541 -3.43424 -3.8766 0
M  V30 1815 H 176.218 -0.862005 -4.08504 0
M  V30 1816 H 177.608 -4.86632 -4.63291 0
M  V30 1817 N 180.328 1.1314 -1.09713 0
M  V30 1818 C 181.275 2.18642 -0.739196 0
M  V30 1819 C 182.245 1.63706 0.280978 0
M  V30 1820 O 183.43 1.90111 0.161946 0
M  V30 1821 C 180.57 3.44685 -0.169102 0
M  V30 1822 C 179.683 4.13711 -1.24367 0
M  V30 1823 C 178.818 5.27379 -0.636019 0
M  V30 1824 C 177.857 5.88259 -1.69169 0
M  V30 1825 N 176.994 6.93352 -1.10485 0
M  V30 1826 H 181.834 2.48607 -1.64312 0
M  V30 1827 H 179.371 1.22066 -0.820875 0
M  V30 1828 H 181.329 4.16815 0.179256 0
M  V30 1829 H 179.959 3.15161 0.698079 0
M  V30 1830 H 179.011 3.39835 -1.70927 0
M  V30 1831 H 180.323 4.55037 -2.04311 0
M  V30 1832 H 179.477 6.06238 -0.236677 0
M  V30 1833 H 178.216 4.8731 0.194928 0
M  V30 1834 H 177.221 5.08092 -2.10055 0
M  V30 1835 H 178.446 6.30399 -2.52536 0
M  V30 1836 H 176.392 6.55335 -0.295234 0
M  V30 1837 H 176.309 7.33236 -1.84121 0
M  V30 1838 H 177.577 7.76057 -0.73181 0
M  V30 1839 N 181.806 0.884767 1.30421 0
M  V30 1840 C 183.054 0.502112 1.95763 0
M  V30 1841 C 183.375 -0.951815 1.70192 0
M  V30 1842 O 182.645 -1.6692 1.0254 0
M  V30 1843 H 181.225 0.182694 0.724315 0
M  V30 1844 H 183.887 1.1278 1.58955 0
M  V30 1845 H 182.983 0.672188 3.04775 0
M  V30 1846 N 183.284 -1.43765 0.645699 0
M  V30 1847 C 184.53 -2.02197 0.156271 0
M  V30 1848 C 184.863 -1.50776 -1.22393 0
M  V30 1849 O 184.138 -0.697771 -1.81553 0
M  V30 1850 C 184.421 -3.59749 0.158872 0
M  V30 1851 C 184.274 -4.21419 1.57245 0
M  V30 1852 C 185.593 -4.37149 -0.50879 0
M  V30 1853 H 182.712 -0.734694 0.0582602 0
M  V30 1854 H 185.354 -1.71157 0.824951 0
M  V30 1855 H 183.504 -3.86325 -0.410525 0
M  V30 1856 H 185.176 -4.059 2.19186 0
M  V30 1857 H 183.419 -3.78356 2.122 0
M  V30 1858 H 184.09 -5.30482 1.52619 0
M  V30 1859 H 186.566 -4.16093 -0.024412 0
M  V30 1860 H 185.442 -5.4683 -0.476213 0
M  V30 1861 H 185.703 -4.12839 -1.58165 0
M  V30 1862 N 184.763 -0.387143 -1.52771 0
M  V30 1863 C 186.012 0.19697 -2.00736 0
M  V30 1864 C 186.325 1.48082 -1.27793 0
M  V30 1865 O 187.531 2.14485 -1.66458 0
M  V30 1866 C 185.987 0.401568 -3.57653 0
M  V30 1867 C 185.595 -0.868907 -4.39493 0
M  V30 1868 C 187.339 0.942164 -4.13912 0
M  V30 1869 C 185.246 -0.632705 -5.88006 0
M  V30 1870 H 184.176 0.0773827 -0.750019 0
M  V30 1871 H 186.827 -0.50921 -1.76293 0
M  V30 1872 H 185.209 1.16954 -3.78335 0
M  V30 1873 H 186.383 -1.64133 -4.30577 0
M  V30 1874 H 184.698 -1.33429 -3.94443 0
M  V30 1875 H 187.295 1.13455 -5.22525 0
M  V30 1876 H 187.638 1.9106 -3.69867 0
M  V30 1877 H 188.171 0.233814 -3.97112 0
M  V30 1878 H 184.91 -1.57208 -6.36369 0
M  V30 1879 H 184.43 0.100825 -5.99715 0
M  V30 1880 H 186.109 -0.26642 -6.46451 0
M  V30 1881 N 186.241 1.57166 -0.116904 0
M  V30 1882 C 187.189 2.16457 0.851418 0
M  V30 1883 C 188.183 1.11323 1.27686 0
M  V30 1884 O 189.389 1.2963 1.24884 0
M  V30 1885 H 185.764 0.69271 0.292672 0
M  V30 1886 H 187.735 2.96605 0.32685 0
M  V30 1887 C 186.484 2.77689 2.09246 0
M  V30 1888 H 185.807 3.58285 1.77402 0
M  V30 1889 H 187.247 3.22716 2.7501 0
M  V30 1890 C 185.706 1.74667 2.88085 0
M  V30 1891 O 186.236 1.19877 3.83396 0
M  V30 1892 N 184.442 1.44656 2.52038 0
M  V30 1893 H 183.989 1.89402 1.74599 0
M  V30 1894 H 183.947 0.759675 3.05084 0
M  V30 1895 N 187.719 -0.156864 1.56817 0
M  V30 1896 C 188.996 -0.899244 1.73704 0
M  V30 1897 C 189.376 -1.99771 0.682254 0
M  V30 1898 O 188.724 -2.26515 -0.300522 0
M  V30 1899 C 188.934 -1.45075 3.17418 0
M  V30 1900 C 190.282 -1.91802 3.7881 0
M  V30 1901 O 191.306 -1.54838 3.20786 0
M  V30 1902 O 190.165 -2.5994 4.80722 0
M  V30 1903 H 187.259 -0.424267 0.709878 0
M  V30 1904 H 189.805 -0.143561 1.69092 0
M  V30 1905 H 188.577 -0.660846 3.85679 0
M  V30 1906 H 188.2 -2.27021 3.26416 0
M  V30 1907 N 189.197 -1.51736 -0.425897 0
M  V30 1908 C 190.16 -1.73271 -1.50032 0
M  V30 1909 C 191.16 -0.602639 -1.4908 0
M  V30 1910 O 192.35 -0.87033 -1.509 0
M  V30 1911 C 189.482 -1.79969 -2.89523 0
M  V30 1912 H 190.675 -2.69172 -1.32237 0
M  V30 1913 H 188.228 -1.41899 -0.65532 0
M  V30 1914 H 188.963 -0.859241 -3.1271 0
M  V30 1915 H 188.748 -2.62109 -2.91619 0
M  V30 1916 H 190.238 -1.9843 -3.67444 0
M  V30 1917 N 190.675 0.682077 -1.42076 0
M  V30 1918 C 191.923 1.4393 -1.41876 0
M  V30 1919 C 192.244 1.94971 -0.0335599 0
M  V30 1920 O 191.514 1.72591 0.926773 0
M  V30 1921 H 190.094 0.534085 -0.522267 0
M  V30 1922 H 192.756 0.806427 -1.77434 0
M  V30 1923 H 191.852 2.29588 -2.11414 0
M  V30 1924 N 192.153 1.28127 0.917671 0
M  V30 1925 C 193.402 1.14432 1.66097 0
M  V30 1926 C 193.715 -0.307247 1.93172 0
M  V30 1927 O 194.921 -0.565259 2.65551 0
M  V30 1928 C 193.377 2.00015 2.99202 0
M  V30 1929 C 192.985 3.49889 2.79789 0
M  V30 1930 C 194.729 1.94996 3.77064 0
M  V30 1931 C 192.636 4.27636 4.08511 0
M  V30 1932 H 191.566 0.424662 0.62304 0
M  V30 1933 H 194.217 1.52628 1.01868 0
M  V30 1934 H 192.599 1.54672 3.64544 0
M  V30 1935 H 193.773 4.03162 2.23152 0
M  V30 1936 H 192.088 3.56392 2.15345 0
M  V30 1937 H 194.685 2.50354 4.72469 0
M  V30 1938 H 195.028 0.925819 4.05875 0
M  V30 1939 H 195.561 2.38287 3.18534 0
M  V30 1940 H 192.3 5.30615 3.84874 0
M  V30 1941 H 191.82 3.79137 4.64774 0
M  V30 1942 H 193.499 4.37346 4.76799 0
M  V30 1943 N 193.631 -1.12557 1.10312 0
M  V30 1944 C 195.042 -1.65574 0.862678 0
M  V30 1945 C 195.393 -1.86566 -0.607256 0
M  V30 1946 O 194.518 -1.59121 -1.46662 0
M  V30 1947 C 195.113 -3.00776 1.55947 0
M  V30 1948 C 193.672 -3.50748 1.36576 0
M  V30 1949 C 192.819 -2.25797 1.60968 0
M  V30 1950 H 195.77 -0.963552 1.26101 0
M  V30 1951 H 195.791 -3.67185 0.997753 0
M  V30 1952 H 195.303 -2.85465 2.62928 0
M  V30 1953 H 193.404 -3.71245 0.317531 0
M  V30 1954 H 193.517 -4.30289 2.10686 0
M  V30 1955 H 191.881 -2.32841 1.03234 0
M  V30 1956 H 192.664 -2.13043 2.69198 0
M  V30 1957 N 195.109 -0.891671 -1.2995 0
M  V30 1958 C 196.356 -0.513501 -1.95881 0
M  V30 1959 C 196.684 0.938655 -1.70351 0
M  V30 1960 O 195.939 1.67936 -1.00478 0
M  V30 1961 C 196.238 -0.742868 -3.49594 0
M  V30 1962 C 195.904 -2.17114 -3.95186 0
M  V30 1963 C 194.566 -2.56169 -4.07346 0
M  V30 1964 C 196.918 -3.10162 -4.18866 0
M  V30 1965 C 194.246 -3.87469 -4.4055 0
M  V30 1966 C 196.598 -4.41001 -4.53542 0
M  V30 1967 C 195.262 -4.79941 -4.63911 0
M  V30 1968 H 194.532 -0.187903 -0.71678 0
M  V30 1969 H 197.179 -1.1288 -1.54694 0
M  V30 1970 H 195.484 -0.044586 -3.91775 0
M  V30 1971 H 197.181 -0.429767 -3.9869 0
M  V30 1972 H 193.771 -1.85801 -3.86233 0
M  V30 1973 H 197.955 -2.81206 -4.08946 0
M  V30 1974 H 193.211 -4.17371 -4.46779 0
M  V30 1975 H 197.385 -5.13133 -4.70815 0
M  V30 1976 H 195.012 -5.81719 -4.89395 0
M  V30 1977 N 196.587 1.43421 -0.653314 0
M  V30 1978 C 197.815 2.06163 -0.174491 0
M  V30 1979 C 198.23 1.48969 1.1599 0
M  V30 1980 O 197.587 0.621042 1.71608 0
M  V30 1981 C 197.638 3.61417 -0.0774865 0
M  V30 1982 O 197.359 4.16485 -1.35912 0
M  V30 1983 C 198.86 4.41235 0.427402 0
M  V30 1984 H 196.08 0.664946 -0.0899353 0
M  V30 1985 H 198.624 1.83924 -0.893988 0
M  V30 1986 H 196.779 3.82841 0.59257 0
M  V30 1987 H 197.193 5.10153 -1.21839 0
M  V30 1988 H 198.667 5.5021 0.44423 0
M  V30 1989 H 199.144 4.14268 1.45873 0
M  V30 1990 H 199.75 4.2478 -0.210167 0
M  V30 1991 N 198.065 0.39524 1.52563 0
M  V30 1992 C 199.313 -0.184678 2.01254 0
M  V30 1993 C 199.634 -1.46822 1.28329 0
M  V30 1994 O 198.904 -1.91666 0.405094 0
M  V30 1995 H 197.484 -0.0712355 0.743596 0
M  V30 1996 H 200.146 0.528293 1.87603 0
M  V30 1997 H 199.242 -0.390681 3.09645 0
M  V30 1998 N 199.544 -1.57102 0.125237 0
M  V30 1999 C 200.494 -2.12202 -0.833936 0
M  V30 2000 C 201.478 -1.04433 -1.22403 0
M  V30 2001 O 202.67 -1.30655 -1.19408 0
M  V30 2002 C 199.799 -2.72994 -2.08157 0
M  V30 2003 C 198.885 -3.87852 -1.71556 0
M  V30 2004 N 199.276 -4.9464 -1.05662 0
M  V30 2005 C 197.574 -3.98153 -2.00973 0
M  V30 2006 C 198.275 -5.74953 -0.883376 0
M  V30 2007 N 197.251 -5.24985 -1.41036 0
M  V30 2008 H 201.053 -2.92141 -0.321035 0
M  V30 2009 H 198.567 -1.62217 -0.0770315 0
M  V30 2010 H 200.564 -3.10816 -2.77847 0
M  V30 2011 H 199.224 -1.9452 -2.59985 0
M  V30 2012 H 200.235 -5.12872 -0.719878 0
M  V30 2013 H 196.912 -3.30728 -2.54804 0
M  V30 2014 H 198.302 -6.70904 -0.365675 0
M  V30 2015 N 201.022 0.148545 -1.56898 0
M  V30 2016 C 202.25 0.876389 -1.87422 0
M  V30 2017 C 202.665 1.74809 -0.713256 0
M  V30 2018 O 202.022 1.79725 0.317025 0
M  V30 2019 C 202.073 1.73438 -3.17178 0
M  V30 2020 O 201.794 0.897809 -4.28802 0
M  V30 2021 C 203.295 2.56993 -3.61205 0
M  V30 2022 H 200.515 0.253489 -0.621277 0
M  V30 2023 H 203.059 0.141798 -2.04008 0
M  V30 2024 H 201.214 2.42205 -3.0235 0
M  V30 2025 H 201.628 1.48672 -5.02988 0
M  V30 2026 H 203.102 3.12773 -4.54838 0
M  V30 2027 H 203.579 3.32958 -2.86419 0
M  V30 2028 H 204.185 1.9352 -3.78722 0
M  V30 2029 N 202.5 1.5196 0.417844 0
M  V30 2030 C 203.41 1.77554 1.53336 0
M  V30 2031 C 204.426 0.660655 1.6097 0
M  V30 2032 O 205.602 0.945099 1.77848 0
M  V30 2033 C 202.667 1.91291 2.89152 0
M  V30 2034 C 201.728 3.15183 2.91475 0
M  V30 2035 C 200.961 3.28256 4.20813 0
M  V30 2036 O 201.184 2.46798 5.14244 0
M  V30 2037 O 200.118 4.21356 4.29817 0
M  V30 2038 H 203.944 2.7222 1.34647 0
M  V30 2039 H 201.529 1.36698 0.602828 0
M  V30 2040 H 203.411 2.02199 3.69721 0
M  V30 2041 H 202.086 0.998129 3.07927 0
M  V30 2042 H 200.993 3.09739 2.09791 0
M  V30 2043 H 202.326 4.06414 2.77648 0
M  V30 2044 N 203.978 -0.674533 1.42435 0
M  V30 2045 C 205.225 -1.43459 1.42919 0
M  V30 2046 C 205.553 -1.94446 0.0457312 0
M  V30 2047 O 204.808 -1.7132 -0.94593 0
M  V30 2048 C 205.107 -2.64767 2.40069 0
M  V30 2049 C 204.773 -2.3232 3.86443 0
M  V30 2050 C 203.435 -2.23182 4.26314 0
M  V30 2051 C 205.787 -2.05977 4.78773 0
M  V30 2052 C 203.115 -1.85827 5.56494 0
M  V30 2053 C 205.467 -1.70125 6.09295 0
M  V30 2054 C 204.131 -1.59498 6.48164 0
M  V30 2055 H 203.401 -0.524952 0.522978 0
M  V30 2056 H 206.048 -0.769097 1.75377 0
M  V30 2057 H 204.353 -3.36349 2.00939 0
M  V30 2058 H 206.05 -3.22949 2.37707 0
M  V30 2059 H 202.64 -2.40334 3.54877 0
M  V30 2060 H 206.824 -2.11969 4.48757 0
M  V30 2061 H 202.08 -1.76168 5.8547 0
M  V30 2062 H 206.254 -1.48767 6.80324 0
M  V30 2063 H 203.881 -1.30322 7.48946 0
M  V30 2064 N 205.456 -1.28612 -0.910864 0
M  V30 2065 C 206.703 -1.15934 -1.66029 0
M  V30 2066 C 207.031 0.291483 -1.92303 0
M  V30 2067 O 206.286 1.22816 -1.52364 0
M  V30 2068 C 206.585 -1.90624 -3.0232 0
M  V30 2069 C 206.251 -3.40405 -2.95695 0
M  V30 2070 C 204.913 -3.81255 -2.93595 0
M  V30 2071 C 207.265 -4.359 -2.85728 0
M  V30 2072 C 204.593 -5.15936 -2.79334 0
M  V30 2073 C 206.945 -5.70657 -2.73007 0
M  V30 2074 C 205.609 -6.10779 -2.69267 0
M  V30 2075 H 204.879 -0.424234 -0.607541 0
M  V30 2076 H 207.526 -1.5942 -1.06101 0
M  V30 2077 H 205.831 -1.39696 -3.6605 0
M  V30 2078 H 207.528 -1.78228 -3.59215 0
M  V30 2079 H 204.118 -3.07927 -2.98125 0
M  V30 2080 H 208.302 -4.053 -2.86436 0
M  V30 2081 H 203.558 -5.46146 -2.74835 0
M  V30 2082 H 207.732 -6.44311 -2.64264 0
M  V30 2083 H 205.359 -7.1509 -2.57974 0
M  V30 2084 N 206.934 1.1197 -1.10907 0
M  V30 2085 C 207.844 2.21433 -0.774896 0
M  V30 2086 C 208.86 1.72478 0.229657 0
M  V30 2087 O 210.036 2.01288 0.0672008 0
M  V30 2088 C 207.101 3.4602 -0.216986 0
M  V30 2089 C 206.162 4.09791 -1.27944 0
M  V30 2090 C 205.395 5.28431 -0.748055 0
M  V30 2091 O 205.618 5.68823 0.423833 0
M  V30 2092 O 204.552 5.82644 -1.51027 0
M  V30 2093 H 208.378 2.5242 -1.68873 0
M  V30 2094 H 205.963 1.20399 -0.884555 0
M  V30 2095 H 207.845 4.21304 0.090059 0
M  V30 2096 H 206.52 3.16698 0.669633 0
M  V30 2097 H 205.427 3.36265 -1.63941 0
M  V30 2098 H 206.76 4.4328 -2.13925 0
M  V30 2099 N 208.412 0.89855 1.29475 0
M  V30 2100 C 209.322 0.379974 2.31502 0
M  V30 2101 C 210.338 -0.524695 1.659 0
M  V30 2102 O 211.514 -0.414551 1.97087 0
M  V30 2103 C 208.579 -0.385138 3.44554 0
M  V30 2104 C 207.64 0.550914 4.2575 0
M  V30 2105 C 206.873 -0.177778 5.33404 0
M  V30 2106 O 207.096 -1.40189 5.52904 0
M  V30 2107 O 206.03 0.479106 5.9999 0
M  V30 2108 H 209.856 1.22639 2.77837 0
M  V30 2109 H 207.441 0.662834 1.33891 0
M  V30 2110 H 209.323 -0.817841 4.13388 0
M  V30 2111 H 207.998 -1.20763 3.0033 0
M  V30 2112 H 206.905 1.03271 3.59564 0
M  V30 2113 H 208.238 1.33979 4.73614 0
M  V30 2114 N 209.89 -1.43072 0.660911 0
M  V30 2115 C 211.306 -1.56169 0.329173 0
M  V30 2116 C 211.506 -1.64317 -1.16629 0
M  V30 2117 O 210.562 -1.60245 -1.95135 0
M  V30 2118 C 211.875 -2.81873 1.04729 0
M  V30 2119 C 213.423 -2.95627 1.02828 0
M  V30 2120 C 213.898 -4.24174 1.72744 0
M  V30 2121 N 215.389 -4.31055 1.69545 0
M  V30 2122 C 216.124 -5.29304 2.20511 0
M  V30 2123 N 215.62 -6.33786 2.79799 0
M  V30 2124 N 217.413 -5.21008 2.10966 0
M  V30 2125 H 209.564 -1.36027 1.63127 0
M  V30 2126 H 211.827 -0.653823 0.686454 0
M  V30 2127 H 211.533 -2.81942 2.10242 0
M  V30 2128 H 211.407 -3.72338 0.603702 0
M  V30 2129 H 213.794 -2.95094 -0.0184742 0
M  V30 2130 H 213.875 -2.06431 1.51063 0
M  V30 2131 H 213.519 -4.25467 2.7738 0
M  V30 2132 H 213.449 -5.1228 1.2197 0
M  V30 2133 H 215.94 -3.56174 1.26288 0
M  V30 2134 H 216.253 -7.05086 3.16344 0
M  V30 2135 H 214.598 -6.34387 2.83863 0
M  V30 2136 H 217.789 -4.38301 1.64347 0
M  V30 2137 H 217.962 -5.97416 2.50993 0
M  V30 2138 N 211.368 -0.403325 -1.52352 0
M  V30 2139 C 212.593 0.176499 -2.06648 0
M  V30 2140 C 213.018 1.38577 -1.27193 0
M  V30 2141 O 212.376 1.7879 -0.300637 0
M  V30 2142 C 212.424 0.511061 -3.5696 0
M  V30 2143 O 211.528 1.60294 -3.79973 0
M  V30 2144 H 210.869 0.0167337 -0.663789 0
M  V30 2145 H 213.399 -0.574848 -1.96359 0
M  V30 2146 H 213.409 0.771362 -4.00642 0
M  V30 2147 H 212.084 -0.37296 -4.14224 0
M  V30 2148 H 210.661 1.33526 -3.48174 0
M  V30 2149 N 212.846 1.57033 -0.133567 0
M  V30 2150 C 213.778 2.13176 0.841944 0
M  V30 2151 C 214.791 1.07794 1.22001 0
M  V30 2152 O 215.98 1.35117 1.16643 0
M  V30 2153 C 213.08 2.62847 2.13926 0
M  V30 2154 C 212.253 3.92486 1.93064 0
M  V30 2155 C 211.312 4.27605 3.0666 0
M  V30 2156 O 210.338 4.96168 2.78937 0
M  V30 2157 N 211.54 3.861 4.33483 0
M  V30 2158 H 214.305 2.97503 0.362192 0
M  V30 2159 H 211.866 1.61821 0.05042 0
M  V30 2160 H 213.858 2.83363 2.88942 0
M  V30 2161 H 212.428 1.83319 2.53205 0
M  V30 2162 H 211.648 3.80732 1.02159 0
M  V30 2163 H 212.936 4.77225 1.76447 0
M  V30 2164 H 212.334 3.30828 4.58878 0
M  V30 2165 H 210.891 4.11694 5.05323 0
M  V30 2166 N 214.325 -0.140222 1.56975 0
M  V30 2167 C 215.288 -1.15689 1.97861 0
M  V30 2168 C 216.288 -1.3549 0.865974 0
M  V30 2169 O 217.478 -1.32367 1.13246 0
M  V30 2170 C 214.61 -2.51582 2.30042 0
M  V30 2171 H 215.803 -0.805971 2.88867 0
M  V30 2172 H 213.356 -0.383801 1.51515 0
M  V30 2173 H 214.091 -2.91632 1.41849 0
M  V30 2174 H 213.876 -2.38569 3.11171 0
M  V30 2175 H 215.366 -3.24792 2.62488 0
M  V30 2176 N 215.803 -1.52179 -0.40978 0
M  V30 2177 C 216.75 -1.75475 -1.49924 0
M  V30 2178 C 217.72 -0.597175 -1.54994 0
M  V30 2179 O 218.905 -0.834655 -1.71575 0
M  V30 2180 C 216.045 -1.9107 -2.87378 0
M  V30 2181 C 215.158 -3.18717 -2.91622 0
M  V30 2182 C 214.293 -3.24747 -4.20372 0
M  V30 2183 C 213.332 -4.46598 -4.18588 0
M  V30 2184 N 212.469 -4.50025 -5.38908 0
M  V30 2185 H 217.309 -2.68458 -1.29361 0
M  V30 2186 H 214.846 -1.33024 -0.627934 0
M  V30 2187 H 216.804 -1.98096 -3.6717 0
M  V30 2188 H 215.434 -1.01469 -3.06437 0
M  V30 2189 H 214.486 -3.20866 -2.04326 0
M  V30 2190 H 215.798 -4.08544 -2.86169 0
M  V30 2191 H 214.952 -3.30841 -5.08556 0
M  V30 2192 H 213.691 -2.32857 -4.28519 0
M  V30 2193 H 212.696 -4.40652 -3.28794 0
M  V30 2194 H 213.921 -5.39783 -4.12081 0
M  V30 2195 H 211.867 -3.61017 -5.47725 0
M  V30 2196 H 211.784 -5.33697 -5.35447 0
M  V30 2197 H 213.052 -4.60347 -6.29048 0
M  V30 2198 N 217.281 0.66697 -1.42791 0
M  V30 2199 C 218.228 1.7803 -1.4688 0
M  V30 2200 C 219.198 1.6299 -0.319919 0
M  V30 2201 O 220.383 1.83432 -0.525118 0
M  V30 2202 C 217.523 3.1611 -1.38451 0
M  V30 2203 C 216.636 3.42381 -2.63437 0
M  V30 2204 C 215.771 4.70232 -2.47094 0
M  V30 2205 C 214.81 4.89564 -3.67415 0
M  V30 2206 N 213.947 6.08661 -3.49966 0
M  V30 2207 H 218.787 1.7387 -2.42019 0
M  V30 2208 H 216.324 0.84868 -1.20149 0
M  V30 2209 H 218.282 3.95914 -1.31561 0
M  V30 2210 H 216.912 3.19374 -0.469033 0
M  V30 2211 H 215.964 2.56774 -2.80662 0
M  V30 2212 H 217.276 3.52557 -3.52853 0
M  V30 2213 H 216.43 5.5814 -2.37834 0
M  V30 2214 H 215.169 4.62353 -1.5518 0
M  V30 2215 H 214.174 4.00096 -3.77099 0
M  V30 2216 H 215.399 4.99282 -4.6032 0
M  V30 2217 H 213.345 6.0194 -2.60776 0
M  V30 2218 H 213.262 6.19733 -4.32975 0
M  V30 2219 H 214.53 6.99226 -3.44532 0
M  V30 2220 N 218.759 1.29093 0.90403 0
M  V30 2221 C 220.005 1.16986 1.65656 0
M  V30 2222 C 220.338 -0.278925 1.92186 0
M  V30 2223 O 219.613 -1.2019 1.5292 0
M  V30 2224 C 219.896 1.97908 3.0084 0
M  V30 2225 C 219.749 3.50903 2.81403 0
M  V30 2226 C 221.068 1.80208 4.01513 0
M  V30 2227 H 218.187 0.426346 0.601164 0
M  V30 2228 H 220.829 1.58518 1.04747 0
M  V30 2229 H 218.979 1.62616 3.52829 0
M  V30 2230 H 220.651 3.96153 2.36348 0
M  V30 2231 H 218.894 3.76045 2.1627 0
M  V30 2232 H 219.565 4.02791 3.77443 0
M  V30 2233 H 222.041 2.11025 3.58619 0
M  V30 2234 H 220.917 2.39184 4.94047 0
M  V30 2235 H 221.178 0.756119 4.35586 0
M  V30 2236 N 220.237 -1.11381 1.11499 0
M  V30 2237 C 221.483 -1.83403 0.865512 0
M  V30 2238 C 221.816 -1.84459 -0.607329 0
M  V30 2239 O 221.091 -1.29811 -1.44842 0
M  V30 2240 C 221.374 -3.30552 1.42855 0
M  V30 2241 C 221.227 -3.37886 2.96906 0
M  V30 2242 C 222.546 -4.26643 1.08 0
M  V30 2243 H 219.665 -0.665879 0.31587 0
M  V30 2244 H 222.307 -1.30601 1.37998 0
M  V30 2245 H 220.457 -3.75648 0.990985 0
M  V30 2246 H 222.129 -3.01343 3.49271 0
M  V30 2247 H 220.372 -2.78088 3.32941 0
M  V30 2248 H 221.043 -4.41458 3.31389 0
M  V30 2249 H 223.519 -3.89729 1.45775 0
M  V30 2250 H 222.395 -5.27986 1.50072 0
M  V30 2251 H 222.656 -4.42099 -0.00915037 0
M  V30 2252 N 221.715 -0.905404 -1.28997 0
M  V30 2253 C 222.648 -0.331959 -2.25773 0
M  V30 2254 C 223.626 0.559099 -1.52685 0
M  V30 2255 O 224.81 0.50463 -1.8162 0
M  V30 2256 C 221.937 0.526276 -3.34586 0
M  V30 2257 C 220.983 -0.298249 -4.25456 0
M  V30 2258 S 221.816 -1.69968 -5.0781 0
M  V30 2259 C 222.972 -0.848519 -6.20122 0
M  V30 2260 H 223.205 -1.15222 -2.74064 0
M  V30 2261 H 220.738 -0.706112 -1.37308 0
M  V30 2262 H 222.696 1.01565 -3.97737 0
M  V30 2263 H 221.357 1.32084 -2.84978 0
M  V30 2264 H 220.55 0.357607 -5.0273 0
M  V30 2265 H 220.152 -0.720968 -3.66985 0
M  V30 2266 H 222.444 -0.0744325 -6.77459 0
M  V30 2267 H 223.387 -1.59353 -6.89937 0
M  V30 2268 H 223.795 -0.400383 -5.63078 0
M  V30 2269 N 223.193 1.4272 -0.668489 0
M  V30 2270 C 224.126 2.28111 0.0637898 0
M  V30 2271 C 225.104 1.40705 0.814912 0
M  V30 2272 O 226.288 1.70146 0.81134 0
M  V30 2273 C 223.415 3.20429 1.0974 0
M  V30 2274 C 222.461 4.24197 0.442579 0
M  V30 2275 S 223.294 5.29563 -0.795173 0
M  V30 2276 C 224.45 6.25449 0.237516 0
M  V30 2277 H 224.683 2.8987 -0.660521 0
M  V30 2278 H 222.216 1.47456 -0.457821 0
M  V30 2279 H 224.174 3.74158 1.68868 0
M  V30 2280 H 222.835 2.57818 1.79411 0
M  V30 2281 H 222.028 4.88954 1.22227 0
M  V30 2282 H 221.63 3.73925 -0.0749554 0
M  V30 2283 H 223.922 6.68524 1.09915 0
M  V30 2284 H 224.865 7.07104 -0.375421 0
M  V30 2285 H 225.273 5.61511 0.580167 0
M  V30 2286 N 224.671 0.411399 1.52136 0
M  V30 2287 C 225.601 -0.404015 2.29978 0
M  V30 2288 C 226.582 -1.04412 1.34284 0
M  V30 2289 O 227.767 -1.0527 1.63192 0
M  V30 2290 C 224.897 -1.5197 3.12286 0
M  V30 2291 C 223.851 -1.00448 4.16046 0
M  V30 2292 C 223.177 -2.21393 4.86712 0
M  V30 2293 C 224.477 -0.0569336 5.22269 0
M  V30 2294 H 226.171 0.245529 2.98392 0
M  V30 2295 H 223.717 0.119525 1.43503 0
M  V30 2296 H 225.67 -2.09715 3.6551 0
M  V30 2297 H 224.394 -2.19716 2.41646 0
M  V30 2298 H 223.053 -0.449421 3.63835 0
M  V30 2299 H 222.701 -2.87699 4.12599 0
M  V30 2300 H 222.401 -1.87571 5.56858 0
M  V30 2301 H 223.925 -2.7974 5.4275 0
M  V30 2302 H 225.339 -0.54325 5.7072 0
M  V30 2303 H 223.736 0.192594 5.99791 0
M  V30 2304 H 224.806 0.887663 4.76706 0
M  V30 2305 N 226.149 -1.5696 0.141893 0
M  V30 2306 C 227.112 -2.15316 -0.785587 0
M  V30 2307 C 228.112 -1.09366 -1.1788 0
M  V30 2308 O 229.302 -1.35031 -1.10056 0
M  V30 2309 C 226.434 -2.71211 -2.06537 0
M  V30 2310 H 227.627 -2.98608 -0.278041 0
M  V30 2311 H 225.18 -1.5593 -0.107519 0
M  V30 2312 H 225.915 -1.91571 -2.6167 0
M  V30 2313 H 225.7 -3.4872 -1.79268 0
M  V30 2314 H 227.19 -3.16189 -2.72789 0
M  V30 2315 N 227.627 0.131896 -1.57047 0
M  V30 2316 C 228.855 0.856461 -1.88341 0
M  V30 2317 C 229.27 1.74042 -0.731757 0
M  V30 2318 O 228.627 1.80051 0.297945 0
M  V30 2319 C 228.678 1.70064 -3.18999 0
M  V30 2320 O 228.399 0.852278 -4.2973 0
M  V30 2321 C 229.9 2.53148 -3.63911 0
M  V30 2322 H 227.12 0.246885 -0.62393 0
M  V30 2323 H 229.664 0.120152 -2.04147 0
M  V30 2324 H 227.819 2.38984 -3.04902 0
M  V30 2325 H 228.233 1.43329 -5.04537 0
M  V30 2326 H 229.707 3.07931 -4.58129 0
M  V30 2327 H 230.184 3.29901 -2.89935 0
M  V30 2328 H 230.79 1.89492 -3.80753 0
M  V30 2329 N 229.106 1.52395 0.401703 0
M  V30 2330 C 230.016 1.7917 1.51444 0
M  V30 2331 C 231.032 0.677691 1.6026 0
M  V30 2332 O 232.208 0.963909 1.76835 0
M  V30 2333 C 229.273 1.94347 2.87107 0
M  V30 2334 C 228.334 3.18257 2.88116 0
M  V30 2335 C 227.567 3.32701 4.17308 0
M  V30 2336 O 227.79 2.52238 5.11598 0
M  V30 2337 O 226.724 4.25891 4.25324 0
M  V30 2338 H 230.55 2.73633 1.31752 0
M  V30 2339 H 228.135 1.3733 0.588296 0
M  V30 2340 H 230.017 2.06109 3.67555 0
M  V30 2341 H 228.692 1.03073 3.06851 0
M  V30 2342 H 227.599 3.11947 2.06494 0
M  V30 2343 H 228.932 4.09336 2.73322 0
M  V30 2344 N 230.584 -0.659388 1.43143 0
M  V30 2345 C 231.494 -1.80167 1.50256 0
M  V30 2346 C 232.51 -1.69571 0.390106 0
M  V30 2347 O 233.686 -1.90849 0.643319 0
M  V30 2348 C 230.751 -3.16409 1.41725 0
M  V30 2349 C 229.812 -3.38848 2.63591 0
M  V30 2350 C 229.045 -4.68591 2.55458 0
M  V30 2351 O 229.268 -5.47532 1.59891 0
M  V30 2352 O 228.202 -4.92614 3.45854 0
M  V30 2353 H 232.028 -1.77121 2.46702 0
M  V30 2354 H 229.613 -0.817092 1.25076 0
M  V30 2355 H 231.495 -3.9768 1.39387 0
M  V30 2356 H 230.17 -3.20059 0.484118 0
M  V30 2357 H 229.077 -2.57366 2.71502 0
M  V30 2358 H 230.41 -3.4004 3.55856 0
M  V30 2359 N 232.062 -1.29571 -0.897171 0
M  V30 2360 C 232.992 -1.17473 -2.01798 0
M  V30 2361 C 233.973 -0.068323 -1.69963 0
M  V30 2362 O 235.158 -0.248239 -1.92607 0
M  V30 2363 C 232.288 -0.853099 -3.36659 0
M  V30 2364 C 231.242 -1.9161 -3.82713 0
M  V30 2365 C 230.568 -1.44773 -5.14728 0
M  V30 2366 C 231.868 -3.32535 -4.02763 0
M  V30 2367 H 233.562 -2.11237 -2.12177 0
M  V30 2368 H 231.108 -1.01699 -1.01948 0
M  V30 2369 H 233.061 -0.755165 -4.14578 0
M  V30 2370 H 231.785 0.120236 -3.26379 0
M  V30 2371 H 230.444 -2.00346 -3.07013 0
M  V30 2372 H 230.092 -0.462995 -5.00865 0
M  V30 2373 H 229.792 -2.15865 -5.46513 0
M  V30 2374 H 231.316 -1.36334 -5.95185 0
M  V30 2375 H 232.73 -3.26626 -4.71156 0
M  V30 2376 H 231.127 -4.01607 -4.45905 0
M  V30 2377 H 232.197 -3.75326 -3.07016 0
M  V30 2378 N 233.54 1.10788 -1.12088 0
M  V30 2379 C 234.956 1.34691 -0.856186 0
M  V30 2380 C 235.156 1.94791 0.515615 0
M  V30 2381 O 234.212 2.18524 1.26505 0
M  V30 2382 C 235.525 2.27208 -1.9697 0
M  V30 2383 C 237.073 2.40755 -2.00016 0
M  V30 2384 C 237.548 3.36598 -3.1059 0
M  V30 2385 N 239.039 3.44164 -3.10008 0
M  V30 2386 C 239.774 4.18284 -3.92206 0
M  V30 2387 N 239.27 4.95322 -4.84384 0
M  V30 2388 N 241.063 4.13865 -3.80357 0
M  V30 2389 H 233.214 0.70144 -2.00483 0
M  V30 2390 H 235.477 0.371405 -0.872217 0
M  V30 2391 H 235.183 1.90251 -2.958 0
M  V30 2392 H 235.057 3.27485 -1.87172 0
M  V30 2393 H 237.444 2.76982 -1.01808 0
M  V30 2394 H 237.525 1.40305 -2.13888 0
M  V30 2395 H 237.169 3.01096 -4.09028 0
M  V30 2396 H 237.099 4.36918 -2.93956 0
M  V30 2397 H 239.59 2.8922 -2.43228 0
M  V30 2398 H 239.903 5.49267 -5.43623 0
M  V30 2399 H 238.248 4.94459 -4.884 0
M  V30 2400 H 241.439 3.52773 -3.07683 0
M  V30 2401 H 241.612 4.71372 -4.44649 0
M  V30 2402 N 235.018 0.912232 1.28515 0
M  V30 2403 C 236.264 0.545405 1.95328 0
M  V30 2404 C 236.597 -0.908313 1.71649 0
M  V30 2405 O 235.872 -1.64575 1.03659 0
M  V30 2406 C 236.155 0.853483 3.4984 0
M  V30 2407 C 236.008 2.35982 3.82926 0
M  V30 2408 C 237.327 0.348589 4.38717 0
M  V30 2409 H 234.446 0.199626 0.709449 0
M  V30 2410 H 237.088 1.1412 1.5191 0
M  V30 2411 H 235.238 0.34643 3.86952 0
M  V30 2412 H 236.91 2.93738 3.55691 0
M  V30 2413 H 235.153 2.81543 3.30024 0
M  V30 2414 H 235.824 2.52593 4.90816 0
M  V30 2415 H 238.3 0.78294 4.08668 0
M  V30 2416 H 237.176 0.593242 5.45685 0
M  V30 2417 H 237.437 -0.751049 4.35674 0
M  V30 2418 N 236.496 -1.42363 0.676048 0
M  V30 2419 C 237.459 -2.29199 0.00766941 0
M  V30 2420 C 238.459 -1.43389 -0.727745 0
M  V30 2421 O 239.649 -1.64764 -0.56556 0
M  V30 2422 C 236.781 -3.2591 -0.999785 0
M  V30 2423 H 237.974 -2.89794 0.771988 0
M  V30 2424 H 235.527 -1.50024 0.438468 0
M  V30 2425 H 236.262 -2.70256 -1.79255 0
M  V30 2426 H 236.047 -3.89202 -0.475829 0
M  V30 2427 H 237.537 -3.91028 -1.46583 0
M  V30 2428 N 237.974 -0.419461 -1.51915 0
M  V30 2429 C 238.904 0.391813 -2.30189 0
M  V30 2430 C 239.885 1.03699 -1.34836 0
M  V30 2431 O 241.07 1.04403 -1.63748 0
M  V30 2432 C 238.2 1.50312 -3.13087 0
M  V30 2433 C 237.154 0.9824 -4.16573 0
M  V30 2434 C 236.48 2.18809 -4.8788 0
M  V30 2435 C 237.78 0.0292356 -5.22292 0
M  V30 2436 H 239.474 -0.26135 -2.98257 0
M  V30 2437 H 237.02 -0.127134 -1.43438 0
M  V30 2438 H 238.973 2.07773 -3.66617 0
M  V30 2439 H 237.697 2.18431 -2.42807 0
M  V30 2440 H 236.356 0.430119 -3.64068 0
M  V30 2441 H 236.004 2.85507 -4.14119 0
M  V30 2442 H 235.704 1.84615 -5.57845 0
M  V30 2443 H 237.228 2.76858 -5.44226 0
M  V30 2444 H 238.642 0.512976 -5.71 0
M  V30 2445 H 237.039 -0.2244 -5.9968 0
M  V30 2446 H 238.109 -0.912931 -4.76228 0
M  V30 2447 N 239.452 1.56882 -0.150215 0
M  V30 2448 C 240.415 2.1573 0.774157 0
M  V30 2449 C 241.415 1.0999 1.17298 0
M  V30 2450 O 242.605 1.35613 1.09338 0
M  V30 2451 C 239.737 2.72302 2.05096 0
M  V30 2452 H 240.93 2.98752 0.262201 0
M  V30 2453 H 238.483 1.55985 0.099248 0
M  V30 2454 H 239.218 1.92956 2.6065 0
M  V30 2455 H 239.003 3.49665 1.77416 0
M  V30 2456 H 240.493 3.17632 2.71109 0
M  V30 2457 N 240.93 -0.123565 1.57115 0
M  V30 2458 C 242.158 -0.846461 1.88793 0
M  V30 2459 C 242.573 -1.73652 0.740976 0
M  V30 2460 O 241.93 -1.80207 -0.288393 0
M  V30 2461 C 241.981 -1.6837 3.19897 0
M  V30 2462 O 241.702 -0.829477 4.30176 0
M  V30 2463 C 243.203 -2.51214 3.65248 0
M  V30 2464 H 240.423 -0.243573 0.625231 0
M  V30 2465 H 242.967 -0.109324 2.04208 0
M  V30 2466 H 241.122 -2.37364 3.06165 0
M  V30 2467 H 241.536 -1.40651 5.0529 0
M  V30 2468 H 243.01 -3.05497 4.59756 0
M  V30 2469 H 243.487 -3.28359 2.9168 0
M  V30 2470 H 244.093 -1.8747 3.81752 0
M  V30 2471 N 242.408 -1.52605 -0.393616 0
M  V30 2472 C 243.636 -1.71294 -1.16043 0
M  V30 2473 C 244.051 -0.429259 -1.83855 0
M  V30 2474 O 243.408 0.595921 -1.72496 0
M  V30 2475 C 243.459 -2.8593 -2.21193 0
M  V30 2476 O 243.18 -4.09329 -1.56146 0
M  V30 2477 C 244.681 -3.16259 -3.10636 0
M  V30 2478 H 241.901 -0.573641 -0.348104 0
M  V30 2479 H 244.445 -1.99234 -0.461092 0
M  V30 2480 H 242.6 -2.60465 -2.86769 0
M  V30 2481 H 243.014 -4.73323 -2.25978 0
M  V30 2482 H 244.488 -3.99946 -3.80456 0
M  V30 2483 H 244.965 -2.3045 -3.73884 0
M  V30 2484 H 245.571 -3.43547 -2.50711 0
M  V30 2485 N 243.887 0.651787 -1.4349 0
M  V30 2486 C 244.837 1.75783 -1.45205 0
M  V30 2487 C 245.821 1.57679 -0.320328 0
M  V30 2488 O 247.013 1.67767 -0.564211 0
M  V30 2489 C 244.142 3.14377 -1.3792 0
M  V30 2490 C 243.228 3.38023 -2.56127 0
M  V30 2491 N 243.619 3.32135 -3.81471 0
M  V30 2492 C 241.917 3.68747 -2.50882 0
M  V30 2493 C 242.618 3.55902 -4.60118 0
M  V30 2494 N 241.594 3.77783 -3.90872 0
M  V30 2495 H 245.396 1.69657 -2.39987 0
M  V30 2496 H 242.91 0.853508 -1.38163 0
M  V30 2497 H 244.907 3.93666 -1.37231 0
M  V30 2498 H 243.567 3.21683 -0.441596 0
M  V30 2499 H 244.578 3.11515 -4.13738 0
M  V30 2500 H 241.255 3.8316 -1.65816 0
M  V30 2501 H 242.645 3.57116 -5.69138 0
M  V30 2502 N 245.365 1.30045 0.890287 0
M  V30 2503 C 246.295 1.18541 2.01172 0
M  V30 2504 C 247.276 0.0773356 1.69924 0
M  V30 2505 O 248.461 0.25845 1.92473 0
M  V30 2506 C 245.591 0.870941 3.36202 0
M  V30 2507 C 244.545 1.93637 3.81692 0
M  V30 2508 C 243.871 1.475 5.13953 0
M  V30 2509 C 245.171 3.34666 4.00994 0
M  V30 2510 H 246.865 2.12359 2.11054 0
M  V30 2511 H 244.411 1.02238 1.01407 0
M  V30 2512 H 246.364 0.777141 4.14172 0
M  V30 2513 H 245.088 -0.102926 3.26438 0
M  V30 2514 H 243.747 2.01972 3.05946 0
M  V30 2515 H 243.395 0.489551 5.00612 0
M  V30 2516 H 243.095 2.1876 5.4536 0
M  V30 2517 H 244.619 1.39489 5.94454 0
M  V30 2518 H 246.033 3.2912 4.69417 0
M  V30 2519 H 244.43 4.03966 4.43769 0
M  V30 2520 H 245.5 3.76949 3.05021 0
M  V30 2521 N 246.843 -1.10192 1.12674 0
M  V30 2522 C 248.254 -1.63707 0.897604 0
M  V30 2523 C 248.605 -1.87812 -0.567546 0
M  V30 2524 O 247.73 -1.62196 -1.43253 0
M  V30 2525 C 248.325 -2.974 1.62292 0
M  V30 2526 C 246.884 -3.47772 1.43986 0
M  V30 2527 C 246.031 -2.22332 1.65722 0
M  V30 2528 H 248.982 -0.936587 1.28116 0
M  V30 2529 H 249.003 -3.64986 1.07541 0
M  V30 2530 H 248.515 -2.79824 2.68924 0
M  V30 2531 H 246.616 -3.70487 0.396206 0
M  V30 2532 H 246.729 -4.25723 2.19765 0
M  V30 2533 H 245.093 -2.30599 1.08149 0
M  V30 2534 H 245.876 -2.07285 2.73657 0
M  V30 2535 N 248.321 -0.919034 -1.28029 0
M  V30 2536 C 249.251 -0.428581 -2.29533 0
M  V30 2537 C 250.232 0.50659 -1.62381 0
M  V30 2538 O 251.417 0.413195 -1.89753 0
M  V30 2539 C 248.547 0.327388 -3.45753 0
M  V30 2540 C 247.501 -0.519137 -4.2484 0
M  V30 2541 C 246.827 0.365486 -5.33449 0
M  V30 2542 C 248.127 -1.77914 -4.91064 0
M  V30 2543 H 249.821 -1.27687 -2.70807 0
M  V30 2544 H 247.367 -0.615428 -1.30186 0
M  V30 2545 H 249.32 0.681378 -4.15855 0
M  V30 2546 H 248.044 1.20963 -3.03374 0
M  V30 2547 H 246.703 -0.855717 -3.56473 0
M  V30 2548 H 246.351 1.24642 -4.87312 0
M  V30 2549 H 246.051 -0.197356 -5.87268 0
M  V30 2550 H 247.575 0.715241 -6.06396 0
M  V30 2551 H 248.989 -1.49374 -5.53498 0
M  V30 2552 H 247.386 -2.2848 -5.54903 0
M  V30 2553 H 248.456 -2.50382 -4.15255 0
M  V30 2554 N 249.799 1.42003 -0.683588 0
M  V30 2555 C 251.215 1.55625 -0.353976 0
M  V30 2556 C 251.415 1.66151 1.14 0
M  V30 2557 O 250.471 1.63329 1.92561 0
M  V30 2558 C 251.784 2.80171 -1.092 0
M  V30 2559 C 253.332 2.93954 -1.07518 0
M  V30 2560 C 253.807 4.21372 -1.79471 0
M  V30 2561 N 255.298 4.28303 -1.76381 0
M  V30 2562 C 256.033 5.25729 -2.28904 0
M  V30 2563 N 255.529 6.29254 -2.89846 0
M  V30 2564 N 257.322 5.17586 -2.19228 0
M  V30 2565 H 249.473 1.33415 -1.6527 0
M  V30 2566 H 251.736 0.64282 -0.696769 0
M  V30 2567 H 251.442 2.78561 -2.14701 0
M  V30 2568 H 251.316 3.7133 -0.662862 0
M  V30 2569 H 253.703 2.95086 -0.028475 0
M  V30 2570 H 253.784 2.04002 -1.54328 0
M  V30 2571 H 253.428 4.21001 -2.84114 0
M  V30 2572 H 253.358 5.10275 -1.30104 0
M  V30 2573 H 255.849 3.54119 -1.31939 0
M  V30 2574 H 256.162 6.99964 -3.27522 0
M  V30 2575 H 254.507 6.29791 -2.93919 0
M  V30 2576 H 257.698 4.35631 -1.71299 0
M  V30 2577 H 257.871 5.93348 -2.60466 0
M  V30 2578 N 251.277 0.427512 1.51691 0
M  V30 2579 C 252.554 -0.201684 1.94557 0
M  V30 2580 C 252.934 -1.60981 1.36559 0
M  V30 2581 O 252.282 -2.21814 0.548702 0
M  V30 2582 C 252.492 -0.189394 3.48486 0
M  V30 2583 C 253.84 -0.39978 4.22714 0
M  V30 2584 O 254.864 -0.267945 3.55191 0
M  V30 2585 O 253.723 -0.661249 5.42485 0
M  V30 2586 H 250.817 -0.135261 0.815864 0
M  V30 2587 H 253.363 0.484782 1.62628 0
M  V30 2588 H 252.135 0.795431 3.8313 0
M  V30 2589 H 251.758 -0.919187 3.86829 0
M  V30 2590 N 252.755 -1.56801 0.158532 0
M  V30 2591 C 254.004 -1.95665 -0.489702 0
M  V30 2592 C 254.317 -1.04654 -1.65248 0
M  V30 2593 O 255.523 -1.33146 -2.3661 0
M  V30 2594 C 253.979 -3.47874 -0.922582 0
M  V30 2595 C 253.587 -4.47489 0.213893 0
M  V30 2596 C 255.331 -3.95583 -1.53996 0
M  V30 2597 C 253.238 -5.90921 -0.237903 0
M  V30 2598 H 252.168 -0.730516 -0.186716 0
M  V30 2599 H 254.819 -1.81861 0.244722 0
M  V30 2600 H 253.201 -3.57051 -1.71261 0
M  V30 2601 H 254.375 -4.50017 0.991036 0
M  V30 2602 H 252.69 -4.09764 0.740407 0
M  V30 2603 H 255.287 -5.0019 -1.8898 0
M  V30 2604 H 255.63 -3.37789 -2.43319 0
M  V30 2605 H 256.163 -3.8937 -0.814611 0
M  V30 2606 H 252.902 -6.52559 0.620236 0
M  V30 2607 H 252.422 -5.91729 -0.980676 0
M  V30 2608 H 254.101 -6.43352 -0.686067 0
M  V30 2609 N 254.233 0.115231 -1.57178 0
M  V30 2610 C 255.196 1.12526 -1.99676 0
M  V30 2611 C 256.196 1.34095 -0.88742 0
M  V30 2612 O 257.386 1.30548 -1.15337 0
M  V30 2613 C 254.518 2.4789 -2.34015 0
M  V30 2614 H 255.711 0.759912 -2.90113 0
M  V30 2615 H 253.264 0.359648 -1.52106 0
M  V30 2616 H 253.999 2.89339 -1.4647 0
M  V30 2617 H 253.784 2.33588 -3.14927 0
M  V30 2618 H 255.274 3.20575 -2.67622 0
M  V30 2619 N 255.711 1.52812 0.385517 0
M  V30 2620 C 256.988 1.5861 1.14465 0
M  V30 2621 C 257.368 0.381402 2.07626 0
M  V30 2622 O 256.716 -0.629999 2.19643 0
M  V30 2623 C 256.926 2.92664 1.90128 0
M  V30 2624 C 258.274 3.46526 2.45367 0
M  V30 2625 O 259.298 2.94562 2.0028 0
M  V30 2626 O 258.157 4.37323 3.27736 0
M  V30 2627 H 255.251 0.639855 0.523941 0
M  V30 2628 H 257.797 1.65149 0.390389 0
M  V30 2629 H 256.569 3.71788 1.22022 0
M  V30 2630 H 256.192 2.89527 2.72507 0
M  V30 2631 N 257.189 -0.644168 1.43834 0
M  V30 2632 C 258.152 -1.73857 1.49353 0
M  V30 2633 C 259.152 -1.56315 0.377112 0
M  V30 2634 O 260.342 -1.62048 0.639226 0
M  V30 2635 C 257.474 -3.12819 1.35488 0
M  V30 2636 H 258.667 -1.70342 2.46827 0
M  V30 2637 H 256.22 -0.856652 1.30733 0
M  V30 2638 H 256.955 -3.2194 0.390569 0
M  V30 2639 H 256.74 -3.26958 2.16428 0
M  V30 2640 H 258.23 -3.92606 1.42302 0
M  V30 2641 N 258.668 -1.30515 -0.883378 0
M  V30 2642 C 259.917 -1.18795 -1.63005 0
M  V30 2643 C 260.23 0.255923 -1.93919 0
M  V30 2644 O 261.436 0.494654 -2.66956 0
M  V30 2645 C 259.892 -2.07878 -2.93794 0
M  V30 2646 C 259.5 -3.57184 -2.70414 0
M  V30 2647 C 261.244 -2.04924 -3.71761 0
M  V30 2648 C 259.151 -4.38317 -3.97029 0
M  V30 2649 H 258.081 -0.441031 -0.611562 0
M  V30 2650 H 260.732 -1.55275 -0.977854 0
M  V30 2651 H 259.114 -1.64283 -3.60315 0
M  V30 2652 H 260.288 -4.08937 -2.12384 0
M  V30 2653 H 258.603 -3.61976 -2.0582 0
M  V30 2654 H 261.2 -2.62792 -4.65665 0
M  V30 2655 H 261.543 -1.0331 -4.03277 0
M  V30 2656 H 262.076 -2.46649 -3.12104 0
M  V30 2657 H 258.815 -5.40632 -3.70671 0
M  V30 2658 H 258.335 -3.91326 -4.54559 0
M  V30 2659 H 260.014 -4.49834 -4.65036 0
M  V30 2660 N 260.146 1.09593 -1.13257 0
M  V30 2661 C 261.374 1.855 -0.916378 0
M  V30 2662 C 261.789 1.81069 0.534738 0
M  V30 2663 O 261.146 1.20562 1.37007 0
M  V30 2664 C 261.197 3.33546 -1.39388 0
M  V30 2665 O 260.918 3.37927 -2.78813 0
M  V30 2666 C 262.419 4.26299 -1.21588 0
M  V30 2667 H 259.639 0.585991 -0.326887 0
M  V30 2668 H 262.183 1.38488 -1.5047 0
M  V30 2669 H 260.338 3.77992 -0.848597 0
M  V30 2670 H 260.752 4.30254 -2.9997 0
M  V30 2671 H 262.226 5.28341 -1.59876 0
M  V30 2672 H 262.703 4.38918 -0.157376 0
M  V30 2673 H 263.309 3.87668 -1.7491 0
M  V30 2674 N 261.624 0.925811 1.2754 0
M  V30 2675 C 263.035 0.610102 1.7645 0
M  V30 2676 C 263.386 -0.874723 1.75622 0
M  V30 2677 O 262.511 -1.68444 1.35851 0
M  V30 2678 C 263.106 1.10073 3.20421 0
M  V30 2679 C 261.665 0.835723 3.67005 0
M  V30 2680 C 260.812 1.26054 2.46993 0
M  V30 2681 H 263.763 1.10579 1.13833 0
M  V30 2682 H 263.784 0.447557 3.77859 0
M  V30 2683 H 263.296 2.18143 3.20991 0
M  V30 2684 H 261.397 -0.231249 3.71882 0
M  V30 2685 H 261.51 1.45193 4.56569 0
M  V30 2686 H 259.874 0.679111 2.45479 0
M  V30 2687 H 260.657 2.34984 2.50275 0
M  V30 2688 N 263.102 -1.41638 0.69111 0
M  V30 2689 C 264.065 -2.29178 0.0319786 0
M  V30 2690 C 265.065 -1.44153 -0.712496 0
M  V30 2691 O 266.255 -1.65354 -0.548053 0
M  V30 2692 C 263.387 -3.26952 -0.965161 0
M  V30 2693 H 264.58 -2.88959 0.802681 0
M  V30 2694 H 262.133 -1.4955 0.454356 0
M  V30 2695 H 262.868 -2.72142 -1.76378 0
M  V30 2696 H 262.653 -3.89685 -0.434522 0
M  V30 2697 H 264.143 -3.92561 -1.42428 0
M  V30 2698 N 264.58 -0.43555 -1.51462 0
M  V30 2699 C 265.51 0.367376 -2.30592 0
M  V30 2700 C 266.491 1.02263 -1.35928 0
M  V30 2701 O 267.676 1.02661 -1.64847 0
M  V30 2702 C 264.806 1.46983 -3.14664 0
M  V30 2703 C 263.76 0.938161 -4.17591 0
M  V30 2704 C 263.086 2.13622 -4.90173 0
M  V30 2705 C 264.386 -0.0261621 -5.22293 0
M  V30 2706 H 266.08 -0.292969 -2.97963 0
M  V30 2707 H 263.626 -0.14234 -1.43295 0
M  V30 2708 H 265.579 2.03873 -3.688 0
M  V30 2709 H 264.303 2.15843 -2.4511 0
M  V30 2710 H 262.962 0.391481 -3.64504 0
M  V30 2711 H 262.61 2.81098 -4.17124 0
M  V30 2712 H 262.31 1.78688 -5.59772 0
M  V30 2713 H 263.834 2.7107 -5.47132 0
M  V30 2714 H 265.248 0.452384 -5.71512 0
M  V30 2715 H 263.645 -0.287992 -5.99409 0
M  V30 2716 H 264.715 -0.963391 -4.75233 0
M  V30 2717 N 266.058 1.56714 -0.166846 0
M  V30 2718 C 266.988 2.20754 0.760913 0
M  V30 2719 C 267.969 1.16178 1.24244 0
M  V30 2720 O 269.154 1.44592 1.29641 0
M  V30 2721 C 266.284 2.84478 1.99223 0
M  V30 2722 C 265.238 3.95053 1.64672 0
M  V30 2723 C 264.564 4.45805 2.95232 0
M  V30 2724 C 265.864 5.14865 0.878155 0
M  V30 2725 H 267.558 2.98537 0.22713 0
M  V30 2726 H 265.104 1.43596 0.107805 0
M  V30 2727 H 267.057 3.27951 2.64624 0
M  V30 2728 H 265.781 2.04056 2.55007 0
M  V30 2729 H 264.44 3.52228 1.01641 0
M  V30 2730 H 264.088 3.62181 3.49047 0
M  V30 2731 H 263.788 5.204 2.7287 0
M  V30 2732 H 265.312 4.91962 3.6167 0
M  V30 2733 H 266.726 5.55059 1.43466 0
M  V30 2734 H 265.123 5.95348 0.753738 0
M  V30 2735 H 266.193 4.84735 -0.126377 0
M  V30 2736 N 267.536 -0.106894 1.57237 0
M  V30 2737 C 268.486 -1.1366 1.9765 0
M  V30 2738 C 269.47 -1.36416 0.853203 0
M  V30 2739 O 270.662 -1.37305 1.11697 0
M  V30 2740 C 267.791 -2.46 2.39455 0
M  V30 2741 C 266.877 -2.26668 3.58445 0
M  V30 2742 N 267.268 -1.77176 4.73754 0
M  V30 2743 C 265.566 -2.57279 3.64312 0
M  V30 2744 C 266.267 -1.71836 5.5574 0
M  V30 2745 N 265.243 -2.16623 4.98573 0
M  V30 2746 H 269.045 -0.74669 2.84256 0
M  V30 2747 H 266.559 -0.314483 1.59326 0
M  V30 2748 H 268.556 -3.2049 2.6663 0
M  V30 2749 H 267.216 -2.85738 1.54219 0
M  V30 2750 H 268.227 -1.46545 4.96734 0
M  V30 2751 H 264.904 -3.00622 2.89711 0
M  V30 2752 H 266.294 -1.34723 6.58255 0
M  V30 2753 N 269.014 -1.53014 -0.377408 0
M  V30 2754 C 269.924 -1.81557 -1.48574 0
M  V30 2755 C 270.94 -0.703102 -1.59162 0
M  V30 2756 O 272.116 -0.99192 -1.75279 0
M  V30 2757 C 269.181 -1.9889 -2.83978 0
M  V30 2758 C 268.242 -3.22801 -2.83016 0
M  V30 2759 C 267.475 -3.39298 -4.11962 0
M  V30 2760 O 267.698 -2.60345 -5.0752 0
M  V30 2761 O 266.632 -4.32604 -4.18494 0
M  V30 2762 H 270.458 -2.75695 -1.27382 0
M  V30 2763 H 268.043 -1.38248 -0.566373 0
M  V30 2764 H 269.925 -2.11931 -3.6423 0
M  V30 2765 H 268.6 -1.07942 -3.05172 0
M  V30 2766 H 267.507 -3.15193 -2.01505 0
M  V30 2767 H 268.84 -4.13632 -2.66775 0
M  V30 2768 N 270.492 0.636531 -1.44174 0
M  V30 2769 C 271.738 1.39826 -1.4689 0
M  V30 2770 C 272.071 1.93947 -0.0990585 0
M  V30 2771 O 271.346 1.73325 0.882544 0
M  V30 2772 C 271.629 2.56751 -2.5249 0
M  V30 2773 C 271.482 2.08014 -3.98811 0
M  V30 2774 C 272.801 3.58946 -2.54649 0
M  V30 2775 H 269.92 0.507075 -0.53483 0
M  V30 2776 H 272.562 0.720188 -1.75822 0
M  V30 2777 H 270.712 3.14597 -2.2795 0
M  V30 2778 H 272.384 1.5504 -4.34466 0
M  V30 2779 H 270.627 1.39242 -4.10846 0
M  V30 2780 H 271.298 2.92169 -4.68339 0
M  V30 2781 H 273.774 3.1089 -2.76563 0
M  V30 2782 H 272.65 4.38286 -3.3045 0
M  V30 2783 H 272.911 4.12655 -1.58646 0
M  V30 2784 N 271.97 1.30982 0.876444 0
M  V30 2785 C 273.219 1.19658 1.62373 0
M  V30 2786 C 273.532 -0.245636 1.94052 0
M  V30 2787 O 274.738 -0.48049 2.67214 0
M  V30 2788 C 273.194 2.09433 2.92687 0
M  V30 2789 C 272.802 3.58613 2.68516 0
M  V30 2790 C 274.546 2.06893 3.70669 0
M  V30 2791 C 272.453 4.40416 3.94699 0
M  V30 2792 H 271.383 0.444268 0.609214 0
M  V30 2793 H 274.034 1.55791 0.969605 0
M  V30 2794 H 272.416 1.66191 3.59439 0
M  V30 2795 H 273.59 4.10058 2.10212 0
M  V30 2796 H 271.905 3.63063 2.03898 0
M  V30 2797 H 274.502 2.65258 4.64265 0
M  V30 2798 H 274.845 1.05448 4.02724 0
M  V30 2799 H 275.378 2.48301 3.10792 0
M  V30 2800 H 272.117 5.42591 3.67798 0
M  V30 2801 H 271.637 3.93731 4.52477 0
M  V30 2802 H 273.316 4.52294 4.62644 0
M  V30 2803 N 273.449 -1.08991 1.13837 0
M  V30 2804 C 274.412 -2.13925 0.822715 0
M  V30 2805 C 275.412 -1.599 -0.1699 0
M  V30 2806 O 276.602 -1.74104 0.0577251 0
M  V30 2807 C 273.734 -3.40155 0.225318 0
M  V30 2808 H 274.927 -2.43358 1.75262 0
M  V30 2809 H 272.48 -1.24603 0.943594 0
M  V30 2810 H 273.215 -3.16352 -0.713594 0
M  V30 2811 H 273 -3.80661 0.940193 0
M  V30 2812 H 274.49 -4.17594 0.0214784 0
M  V30 2813 N 274.927 -0.932562 -1.27047 0
M  V30 2814 C 276.176 -0.571351 -1.93439 0
M  V30 2815 C 276.489 0.892467 -1.74053 0
M  V30 2816 O 277.695 1.36267 -2.34826 0
M  V30 2817 C 276.151 -0.97106 -3.46552 0
M  V30 2818 C 275.759 -2.4559 -3.74686 0
M  V30 2819 C 277.503 -0.681333 -4.18997 0
M  V30 2820 C 275.41 -2.79475 -5.21198 0
M  V30 2821 H 274.34 -0.209966 -0.724176 0
M  V30 2822 H 276.991 -1.13403 -1.44263 0
M  V30 2823 H 275.373 -0.336983 -3.94564 0
M  V30 2824 H 276.547 -3.13829 -3.37414 0
M  V30 2825 H 274.862 -2.71802 -3.15456 0
M  V30 2826 H 277.459 -0.910939 -5.26883 0
M  V30 2827 H 277.802 0.381628 -4.14547 0
M  V30 2828 H 278.335 -1.27473 -3.76823 0
M  V30 2829 H 275.074 -3.847 -5.30741 0
M  V30 2830 H 274.594 -2.1589 -5.596 0
M  V30 2831 H 276.273 -2.67478 -5.89122 0
M  V30 2832 N 276.405 1.4127 -0.698611 0
M  V30 2833 C 277.335 2.33447 -0.049629 0
M  V30 2834 C 278.316 1.51982 0.763898 0
M  V30 2835 O 279.501 1.80509 0.716257 0
M  V30 2836 C 276.631 3.35828 0.885267 0
M  V30 2837 C 275.585 4.27627 0.178613 0
M  V30 2838 C 274.911 5.20406 1.22807 0
M  V30 2839 C 276.211 5.13459 -0.956933 0
M  V30 2840 H 277.905 2.87966 -0.81951 0
M  V30 2841 H 275.451 1.38461 -0.395538 0
M  V30 2842 H 277.404 3.9924 1.34854 0
M  V30 2843 H 276.128 2.79666 1.68685 0
M  V30 2844 H 274.787 3.65643 -0.26466 0
M  V30 2845 H 274.435 4.60558 2.02226 0
M  V30 2846 H 274.135 5.82661 0.760239 0
M  V30 2847 H 275.659 5.86695 1.69179 0
M  V30 2848 H 277.073 5.70421 -0.573805 0
M  V30 2849 H 275.47 5.8467 -1.35205 0
M  V30 2850 H 276.54 4.50443 -1.79524 0
M  V30 2851 N 277.883 0.443576 1.51229 0
M  V30 2852 C 278.833 -0.382787 2.24764 0
M  V30 2853 C 279.817 -0.984836 1.27239 0
M  V30 2854 O 281.009 -0.901943 1.52296 0
M  V30 2855 C 278.138 -1.47989 3.09765 0
M  V30 2856 C 277.224 -0.886931 4.14722 0
M  V30 2857 N 277.615 -0.0237103 5.05794 0
M  V30 2858 C 275.913 -1.15385 4.30816 0
M  V30 2859 C 276.614 0.309971 5.80874 0
M  V30 2860 N 275.59 -0.307989 5.42727 0
M  V30 2861 H 279.392 0.282624 2.92538 0
M  V30 2862 H 276.906 0.256027 1.60369 0
M  V30 2863 H 278.903 -2.08482 3.61027 0
M  V30 2864 H 277.563 -2.14758 2.43535 0
M  V30 2865 H 278.574 0.34318 5.16762 0
M  V30 2866 H 275.251 -1.81857 3.75812 0
M  V30 2867 H 276.641 1.01279 6.64223 0
M  V30 2868 N 279.361 -1.56624 0.175154 0
M  V30 2869 C 280.311 -2.14747 -0.766004 0
M  V30 2870 C 281.295 -1.08275 -1.19018 0
M  V30 2871 O 282.487 -1.34388 -1.15191 0
M  V30 2872 C 279.616 -2.79478 -1.99366 0
M  V30 2873 C 278.702 -3.93114 -1.5913 0
M  V30 2874 N 279.093 -4.97752 -0.89872 0
M  V30 2875 C 277.391 -4.04345 -1.88204 0
M  V30 2876 C 278.092 -5.77473 -0.700012 0
M  V30 2877 N 277.068 -5.29207 -1.24263 0
M  V30 2878 H 280.87 -2.93015 -0.22793 0
M  V30 2879 H 278.384 -1.6238 -0.0253843 0
M  V30 2880 H 280.381 -3.19498 -2.67818 0
M  V30 2881 H 279.041 -2.02692 -2.53665 0
M  V30 2882 H 280.052 -5.14903 -0.556347 0
M  V30 2883 H 276.729 -3.38667 -2.44153 0
M  V30 2884 H 278.119 -6.71728 -0.152047 0
M  V30 2885 N 280.839 0.0985539 -1.57292 0
M  V30 2886 C 282.116 0.834155 -1.76921 0
M  V30 2887 C 282.496 1.97101 -0.755928 0
M  V30 2888 O 281.844 2.27474 0.216245 0
M  V30 2889 C 282.054 1.33194 -3.22584 0
M  V30 2890 C 283.402 1.77611 -3.85668 0
M  V30 2891 O 284.426 1.42825 -3.26312 0
M  V30 2892 O 283.285 2.4192 -4.90038 0
M  V30 2893 H 280.379 0.397628 -0.725135 0
M  V30 2894 H 282.925 0.0807044 -1.69508 0
M  V30 2895 H 281.697 0.517248 -3.87866 0
M  V30 2896 H 281.32 2.1475 -3.34616 0
M  V30 2897 N 282.317 1.53212 0.369288 0
M  V30 2898 C 283.247 1.82365 1.45826 0
M  V30 2899 C 284.228 0.676907 1.56051 0
M  V30 2900 O 285.413 0.926401 1.70679 0
M  V30 2901 C 282.543 2.01023 2.83208 0
M  V30 2902 C 281.497 3.1678 2.8781 0
M  V30 2903 C 280.823 3.20724 4.27832 0
M  V30 2904 C 282.123 4.55447 2.55667 0
M  V30 2905 H 283.817 2.73559 1.21678 0
M  V30 2906 H 281.363 1.3163 0.583911 0
M  V30 2907 H 283.316 2.20001 3.59413 0
M  V30 2908 H 282.04 1.06536 3.08736 0
M  V30 2909 H 280.699 2.97616 2.14056 0
M  V30 2910 H 280.347 2.23882 4.50429 0
M  V30 2911 H 280.047 3.98496 4.31827 0
M  V30 2912 H 281.571 3.41881 5.05915 0
M  V30 2913 H 282.985 4.74611 3.21586 0
M  V30 2914 H 281.382 5.35432 2.70984 0
M  V30 2915 H 282.452 4.60812 1.5093 0
M  V30 2916 N 283.795 -0.628877 1.44509 0
M  V30 2917 C 285.211 -0.947305 1.28446 0
M  V30 2918 C 285.411 -2.00275 0.221872 0
M  V30 2919 O 284.467 -2.49447 -0.391471 0
M  V30 2920 C 285.78 -1.40843 2.65676 0
M  V30 2921 C 287.328 -1.52379 2.73404 0
M  V30 2922 C 287.803 -2.01875 4.11109 0
M  V30 2923 N 289.294 -2.09142 4.13296 0
M  V30 2924 C 290.029 -2.48615 5.16699 0
M  V30 2925 N 289.525 -2.87209 6.30462 0
M  V30 2926 N 291.318 -2.48768 5.04054 0
M  V30 2927 H 283.469 0.0690977 2.12288 0
M  V30 2928 H 285.732 -0.0317164 0.947469 0
M  V30 2929 H 285.438 -0.707206 3.44516 0
M  V30 2930 H 285.312 -2.37902 2.92716 0
M  V30 2931 H 287.699 -2.21598 1.9488 0
M  V30 2932 H 287.78 -0.536898 2.50102 0
M  V30 2933 H 287.424 -1.3325 4.90109 0
M  V30 2934 H 287.354 -3.0144 4.31789 0
M  V30 2935 H 289.845 -1.81991 3.31191 0
M  V30 2936 H 290.158 -3.16149 7.05174 0
M  V30 2937 H 288.503 -2.84955 6.33897 0
M  V30 2938 H 291.694 -2.18009 4.14234 0
M  V30 2939 H 291.867 -2.79207 5.84763 0
M  V30 2940 N 285.273 -1.31445 -0.869486 0
M  V30 2941 C 286.501 -1.24122 -1.65534 0
M  V30 2942 C 286.916 0.193387 -1.87807 0
M  V30 2943 O 286.273 1.12557 -1.43656 0
M  V30 2944 C 286.324 -1.98229 -3.02304 0
M  V30 2945 O 286.045 -3.3609 -2.81026 0
M  V30 2946 C 287.546 -1.97751 -3.96749 0
M  V30 2947 H 284.766 -0.428868 -0.516055 0
M  V30 2948 H 287.31 -1.73328 -1.08525 0
M  V30 2949 H 285.465 -1.52782 -3.56001 0
M  V30 2950 H 285.879 -3.7383 -3.67902 0
M  V30 2951 H 287.353 -2.54114 -4.90031 0
M  V30 2952 H 287.83 -0.960137 -4.28577 0
M  V30 2953 H 288.436 -2.43079 -3.48988 0
M  V30 2954 N 286.751 1.08385 -1.14413 0
M  V30 2955 C 287.698 2.15311 -0.831265 0
M  V30 2956 C 288.668 1.64751 0.211292 0
M  V30 2957 O 289.853 1.90627 0.0811674 0
M  V30 2958 C 286.993 3.43658 -0.315143 0
M  V30 2959 C 286.106 4.08064 -1.41802 0
M  V30 2960 C 285.241 5.24207 -0.859126 0
M  V30 2961 C 284.28 5.80554 -1.93967 0
M  V30 2962 N 283.417 6.88042 -1.39793 0
M  V30 2963 H 288.257 2.41415 -1.74708 0
M  V30 2964 H 285.794 1.18474 -0.871909 0
M  V30 2965 H 287.752 4.172 0.00230884 0
M  V30 2966 H 286.382 3.17839 0.56378 0
M  V30 2967 H 285.434 3.3228 -1.85187 0
M  V30 2968 H 286.746 4.45962 -2.23427 0
M  V30 2969 H 285.9 6.04689 -0.49359 0
M  V30 2970 H 284.639 4.87699 -0.011932 0
M  V30 2971 H 283.644 4.98725 -2.31415 0
M  V30 2972 H 284.869 6.19121 -2.79046 0
M  V30 2973 H 282.815 6.53493 -0.572919 0
M  V30 2974 H 282.732 7.24767 -2.15054 0
M  V30 2975 H 284 7.72255 -1.0603 0
M  V30 2976 N 288.23 0.939286 1.26551 0
M  V30 2977 C 289.477 0.585847 1.9384 0
M  V30 2978 C 289.805 -0.874784 1.73718 0
M  V30 2979 O 289.06 -1.64092 1.06642 0
M  V30 2980 C 289.359 0.872106 3.46596 0
M  V30 2981 C 289.025 2.31632 3.86856 0
M  V30 2982 C 287.687 2.71111 3.97558 0
M  V30 2983 C 290.039 3.25494 4.07066 0
M  V30 2984 C 287.367 4.03553 4.25866 0
M  V30 2985 C 289.719 4.57531 4.36862 0
M  V30 2986 C 288.383 4.96828 4.45778 0
M  V30 2987 H 287.653 0.214377 0.709312 0
M  V30 2988 H 290.3 1.18544 1.50398 0
M  V30 2989 H 288.605 0.18996 3.91339 0
M  V30 2990 H 290.302 0.577442 3.96821 0
M  V30 2991 H 286.892 2.00008 3.79071 0
M  V30 2992 H 291.076 2.9619 3.98227 0
M  V30 2993 H 286.332 4.33665 4.30981 0
M  V30 2994 H 290.506 5.30254 4.51446 0
M  V30 2995 H 288.133 5.99482 4.67468 0
M  V30 2996 N 289.708 -1.40897 0.706093 0
M  V30 2997 C 290.956 -2.00657 0.241054 0
M  V30 2998 C 291.277 -1.56241 -1.16678 0
M  V30 2999 O 290.547 -0.79765 -1.78926 0
M  V30 3000 H 289.127 -0.742018 0.0861308 0
M  V30 3001 H 291.789 -1.72372 0.909604 0
M  V30 3002 H 290.885 -3.10958 0.266705 0
M  V30 3003 N 291.186 -0.45159 -1.50991 0
M  V30 3004 C 292.435 0.111653 -2.01391 0
M  V30 3005 C 292.748 1.42529 -1.33959 0
M  V30 3006 O 293.954 2.07232 -1.75405 0
M  V30 3007 C 292.41 0.249514 -3.59034 0
M  V30 3008 C 292.018 -1.05453 -4.35412 0
M  V30 3009 C 293.762 0.765762 -4.17536 0
M  V30 3010 C 291.669 -0.881529 -5.84793 0
M  V30 3011 H 290.599 0.0455022 -0.752626 0
M  V30 3012 H 293.25 -0.583524 -1.73975 0
M  V30 3013 H 291.632 1.00803 -3.82955 0
M  V30 3014 H 292.806 -1.82248 -4.23229 0
M  V30 3015 H 291.121 -1.50039 -3.88429 0
M  V30 3016 H 293.718 0.911913 -5.26866 0
M  V30 3017 H 294.061 1.75201 -3.77638 0
M  V30 3018 H 294.594 0.0651744 -3.97747 0
M  V30 3019 H 291.333 -1.84057 -6.29129 0
M  V30 3020 H 290.853 -0.153625 -5.99603 0
M  V30 3021 H 292.532 -0.540363 -6.4474 0
M  V30 3022 N 292.664 1.56529 -0.183458 0
M  V30 3023 C 293.627 2.17324 0.728223 0
M  V30 3024 C 294.627 1.12453 1.14939 0
M  V30 3025 O 295.817 1.37902 1.06437 0
M  V30 3026 C 292.949 2.76591 1.99274 0
M  V30 3027 H 294.142 2.99241 0.198772 0
M  V30 3028 H 291.695 1.5616 0.0661391 0
M  V30 3029 H 292.43 1.98441 2.56499 0
M  V30 3030 H 292.215 3.5335 1.69959 0
M  V30 3031 H 293.705 3.23311 2.6431 0
M  V30 3032 N 294.142 -0.090211 1.57342 0
M  V30 3033 C 295.052 -1.12735 2.05738 0
M  V30 3034 C 296.068 -1.43557 0.983231 0
M  V30 3035 O 297.244 -1.54101 1.29672 0
M  V30 3036 C 294.309 -2.42659 2.47624 0
M  V30 3037 C 293.37 -2.18975 3.69254 0
M  V30 3038 C 292.603 -3.42704 4.09133 0
M  V30 3039 O 292.826 -4.51127 3.49057 0
M  V30 3040 O 291.76 -3.32003 5.02053 0
M  V30 3041 H 295.586 -0.746279 2.94388 0
M  V30 3042 H 293.171 -0.303064 1.46294 0
M  V30 3043 H 295.053 -3.19155 2.7517 0
M  V30 3044 H 293.728 -2.80182 1.62109 0
M  V30 3045 H 292.635 -1.40244 3.46818 0
M  V30 3046 H 293.968 -1.86342 4.55563 0
M  V30 3047 N 295.62 -1.53406 -0.361157 0
M  V30 3048 C 297.031 -1.61442 -0.937728 0
M  V30 3049 C 297.382 -0.48461 -1.90121 0
M  V30 3050 O 296.507 0.388312 -2.12888 0
M  V30 3051 C 297.102 -2.92624 -1.70753 0
M  V30 3052 C 295.661 -3.02981 -2.23337 0
M  V30 3053 C 294.808 -2.5677 -1.04712 0
M  V30 3054 H 297.759 -1.58083 -0.139816 0
M  V30 3055 H 297.78 -2.80675 -2.56908 0
M  V30 3056 H 297.292 -3.74834 -1.00604 0
M  V30 3057 H 295.393 -2.25368 -2.96715 0
M  V30 3058 H 295.506 -4.0814 -2.50916 0
M  V30 3059 H 293.87 -2.11752 -1.41539 0
M  V30 3060 H 294.653 -3.41402 -0.360539 0
M  V30 3061 N 297.098 0.621204 -1.44841 0
M  V30 3062 C 298.514 0.94048 -1.28946 0
M  V30 3063 C 298.714 2.00154 -0.23249 0
M  V30 3064 O 297.77 2.49651 0.378237 0
M  V30 3065 C 299.083 1.39433 -2.66419 0
M  V30 3066 C 300.631 1.50927 -2.74208 0
M  V30 3067 C 301.106 1.99692 -4.12174 0
M  V30 3068 N 302.597 2.06947 -4.144 0
M  V30 3069 C 303.332 2.45871 -5.1801 0
M  V30 3070 N 302.828 2.83862 -6.31977 0
M  V30 3071 N 304.621 2.46092 -5.05366 0
M  V30 3072 H 296.772 -0.0803548 -2.12248 0
M  V30 3073 H 299.035 0.0266913 -0.947624 0
M  V30 3074 H 298.741 0.688925 -3.44887 0
M  V30 3075 H 298.615 2.36347 -2.93973 0
M  V30 3076 H 301.002 2.20561 -1.96053 0
M  V30 3077 H 301.083 0.523627 -2.50383 0
M  V30 3078 H 300.727 1.30649 -4.90809 0
M  V30 3079 H 300.657 2.99146 -4.33381 0
M  V30 3080 H 303.148 1.80232 -3.32152 0
M  V30 3081 H 303.461 3.12405 -7.0684 0
M  V30 3082 H 301.806 2.8159 -6.35399 0
M  V30 3083 H 304.997 2.1581 -4.15384 0
M  V30 3084 H 305.17 2.76102 -5.86235 0
M  V30 3085 N 298.576 1.31904 0.862503 0
M  V30 3086 C 299.825 1.21373 1.61094 0
M  V30 3087 C 300.138 -0.22504 1.94301 0
M  V30 3088 O 301.344 -0.452121 2.67709 0
M  V30 3089 C 299.8 2.12525 2.9045 0
M  V30 3090 C 299.408 3.61441 2.64697 0
M  V30 3091 C 301.152 2.10813 3.68454 0
M  V30 3092 C 299.059 4.44578 3.90006 0
M  V30 3093 H 297.989 0.450705 0.604468 0
M  V30 3094 H 300.64 1.56811 0.953027 0
M  V30 3095 H 299.022 1.69994 3.57656 0
M  V30 3096 H 300.196 4.12264 2.05851 0
M  V30 3097 H 298.511 3.65205 2.00036 0
M  V30 3098 H 301.108 2.70167 4.61426 0
M  V30 3099 H 301.451 1.09713 4.01583 0
M  V30 3100 H 301.984 2.51583 3.08141 0
M  V30 3101 H 298.723 5.46461 3.62023 0
M  V30 3102 H 298.243 3.98508 4.48276 0
M  V30 3103 H 299.922 4.57176 4.5782 0
M  V30 3104 N 300.054 -1.07777 1.14986 0
M  V30 3105 C 300.984 -2.16865 0.865557 0
M  V30 3106 C 301.965 -1.69123 -0.182083 0
M  V30 3107 O 303.15 -1.94164 -0.0373815 0
M  V30 3108 C 300.28 -3.45539 0.349313 0
M  V30 3109 C 299.234 -4.06708 1.33313 0
M  V30 3110 C 298.56 -5.30411 0.675918 0
M  V30 3111 C 299.86 -4.47241 2.69764 0
M  V30 3112 H 301.554 -2.40905 1.77778 0
M  V30 3113 H 299.1 -1.15781 0.856203 0
M  V30 3114 H 301.053 -4.21174 0.137983 0
M  V30 3115 H 299.777 -3.21072 -0.598362 0
M  V30 3116 H 298.436 -3.33112 1.53075 0
M  V30 3117 H 298.084 -5.02232 -0.277767 0
M  V30 3118 H 297.784 -5.72293 1.33244 0
M  V30 3119 H 299.308 -6.08755 0.474262 0
M  V30 3120 H 300.722 -5.14025 2.53873 0
M  V30 3121 H 299.119 -5.00062 3.3175 0
M  V30 3122 H 300.189 -3.58818 3.26156 0
M  V30 3123 N 301.532 -0.945985 -1.26051 0
M  V30 3124 C 302.778 -0.597002 -1.93814 0
M  V30 3125 C 303.111 0.862484 -1.73997 0
M  V30 3126 O 302.386 1.61769 -1.07986 0
M  V30 3127 C 302.669 -0.945937 -3.47454 0
M  V30 3128 C 302.522 -2.46052 -3.76535 0
M  V30 3129 C 303.841 -0.464785 -4.37639 0
M  V30 3130 H 300.96 -0.218366 -0.703907 0
M  V30 3131 H 303.602 -1.18107 -1.48831 0
M  V30 3132 H 301.752 -0.448902 -3.85898 0
M  V30 3133 H 303.424 -3.03065 -3.47778 0
M  V30 3134 H 301.667 -2.90194 -3.22444 0
M  V30 3135 H 302.338 -2.65517 -4.83947 0
M  V30 3136 H 304.814 -0.891016 -4.06448 0
M  V30 3137 H 303.69 -0.737712 -5.4392 0
M  V30 3138 H 303.951 0.635274 -4.37512 0
M  V30 3139 N 303.011 1.40521 -0.713556 0
M  V30 3140 C 304.251 2.02783 -0.256584 0
M  V30 3141 C 304.615 1.55352 1.12827 0
M  V30 3142 O 305.816 2.09663 1.68211 0
M  V30 3143 C 304.087 3.5586 -0.331414 0
M  V30 3144 S 305.646 4.38773 0.0488703 0
M  V30 3145 H 302.464 0.703655 -0.101934 0
M  V30 3146 H 305.066 1.71674 -0.935325 0
M  V30 3147 H 303.77 3.87874 -1.34098 0
M  V30 3148 H 303.301 3.91695 0.365873 0
M  V30 3149 H 305.316 4.79633 1.2715 0
M  V30 3150 N 304.489 0.459591 1.5075 0
M  V30 3151 C 305.737 -0.0991532 2.01857 0
M  V30 3152 C 306.058 -1.41247 1.34441 0
M  V30 3153 O 305.328 -1.89775 0.486022 0
M  V30 3154 H 303.908 -0.039633 0.745948 0
M  V30 3155 H 306.57 0.607387 1.85194 0
M  V30 3156 H 305.666 -0.258998 3.11023 0
M  V30 3157 N 305.967 -1.56429 0.191757 0
M  V30 3158 C 306.897 -2.21937 -0.725696 0
M  V30 3159 C 307.878 -1.1814 -1.2238 0
M  V30 3160 O 309.063 -1.46636 -1.27325 0
M  V30 3161 C 306.193 -2.87611 -1.94672 0
M  V30 3162 C 305.147 -3.97623 -1.58366 0
M  V30 3163 C 304.473 -4.50446 -2.88102 0
M  V30 3164 C 305.773 -5.16197 -0.796133 0
M  V30 3165 H 307.467 -2.98861 -0.179606 0
M  V30 3166 H 305.013 -1.43749 -0.0849464 0
M  V30 3167 H 306.966 -3.3212 -2.59373 0
M  V30 3168 H 305.69 -2.08087 -2.51728 0
M  V30 3169 H 304.349 -3.53801 -0.960247 0
M  V30 3170 H 303.997 -3.67688 -3.43241 0
M  V30 3171 H 303.697 -5.24675 -2.64556 0
M  V30 3172 H 305.221 -4.97654 -3.53798 0
M  V30 3173 H 306.635 -5.57271 -1.34618 0
M  V30 3174 H 305.032 -5.96471 -0.658928 0
M  V30 3175 H 306.102 -4.84473 0.203478 0
M  V30 3176 N 307.445 0.0818655 -1.57387 0
M  V30 3177 C 308.393 1.11712 -2.04018 0
M  V30 3178 C 309.387 1.40683 -0.94364 0
M  V30 3179 O 310.593 1.40209 -1.12878 0
M  V30 3180 H 306.968 0.377542 -0.650358 0
M  V30 3181 H 308.939 0.697614 -2.90131 0
M  V30 3182 C 307.688 2.42537 -2.49141 0
M  V30 3183 H 307.011 2.21092 -3.33104 0
M  V30 3184 H 308.451 3.13446 -2.85531 0
M  V30 3185 C 306.91 3.0778 -1.37014 0
M  V30 3186 O 307.44 3.95436 -0.706621 0
M  V30 3187 N 305.646 2.68242 -1.11779 0
M  V30 3188 H 305.193 1.97052 -1.65917 0
M  V30 3189 H 305.151 3.1222 -0.369594 0
M  V30 3190 N 308.923 1.53595 0.353017 0
M  V30 3191 C 310.334 1.61937 0.929153 0
M  V30 3192 C 310.685 0.494686 1.89861 0
M  V30 3193 O 309.81 -0.377017 2.1309 0
M  V30 3194 C 310.405 2.93526 1.69199 0
M  V30 3195 C 308.964 3.04161 2.21727 0
M  V30 3196 C 308.111 2.57322 1.03348 0
M  V30 3197 H 311.062 1.58155 0.131431 0
M  V30 3198 H 311.083 2.82034 2.55416 0
M  V30 3199 H 310.595 3.75362 0.986144 0
M  V30 3200 H 308.696 2.26938 2.95516 0
M  V30 3201 H 308.809 4.09465 2.48748 0
M  V30 3202 H 307.173 2.12499 1.40414 0
M  V30 3203 H 307.956 3.41588 0.342428 0
M  V30 3204 N 310.401 -0.613514 1.45168 0
M  V30 3205 C 311.351 -1.71871 1.49815 0
M  V30 3206 C 312.335 -1.56774 0.362021 0
M  V30 3207 O 313.527 -1.66212 0.608493 0
M  V30 3208 C 310.656 -3.1061 1.46207 0
M  V30 3209 C 309.742 -3.31114 2.64999 0
M  V30 3210 N 310.133 -3.21904 3.90143 0
M  V30 3211 C 308.431 -3.61966 2.6057 0
M  V30 3212 C 309.132 -3.43577 4.69393 0
M  V30 3213 N 308.108 -3.67287 4.00751 0
M  V30 3214 H 311.91 -1.63235 2.444 0
M  V30 3215 H 309.424 -0.816577 1.40377 0
M  V30 3216 H 311.421 -3.8989 1.4762 0
M  V30 3217 H 310.081 -3.20399 0.52673 0
M  V30 3218 H 311.092 -3.00436 4.21852 0
M  V30 3219 H 307.769 -3.78629 1.75916 0
M  V30 3220 H 309.159 -3.41901 5.78406 0
M  V30 3221 N 311.879 -1.3236 -0.855495 0
M  V30 3222 C 312.842 -1.21164 -1.94556 0
M  V30 3223 C 313.842 -0.134908 -1.60233 0
M  V30 3224 O 315.032 -0.385249 -1.69887 0
M  V30 3225 C 312.164 -0.863192 -3.29791 0
M  V30 3226 H 313.357 -2.18038 -2.05911 0
M  V30 3227 H 310.91 -1.16179 -1.04557 0
M  V30 3228 H 311.645 0.103769 -3.24134 0
M  V30 3229 H 311.43 -1.64166 -3.56078 0
M  V30 3230 H 312.92 -0.809156 -4.09686 0
M  V30 3231 N 313.357 1.07166 -1.15556 0
M  V30 3232 C 314.605 1.79443 -0.929764 0
M  V30 3233 C 314.926 1.87246 0.544414 0
M  V30 3234 O 314.196 1.37473 1.39564 0
M  V30 3235 H 312.776 0.664625 -0.341003 0
M  V30 3236 H 315.438 1.29499 -1.45657 0
M  V30 3237 H 314.534 2.81832 -1.34079 0
M  V30 3238 N 314.835 0.952656 1.25548 0
M  V30 3239 C 315.745 0.47782 2.29682 0
M  V30 3240 C 316.761 -0.453859 1.67977 0
M  V30 3241 O 317.937 -0.330587 1.98668 0
M  V30 3242 C 315.002 -0.238655 3.45878 0
M  V30 3243 C 314.063 0.730994 4.23031 0
M  V30 3244 C 313.296 0.0486165 5.33678 0
M  V30 3245 O 313.519 -1.16612 5.58353 0
M  V30 3246 O 312.453 0.733152 5.97418 0
M  V30 3247 H 316.279 1.34312 2.72386 0
M  V30 3248 H 313.864 0.719026 1.30959 0
M  V30 3249 H 315.746 -0.641774 4.16484 0
M  V30 3250 H 314.421 -1.07916 3.05181 0
M  V30 3251 H 313.328 1.18428 3.5486 0
M  V30 3252 H 314.661 1.53946 4.67506 0
M  V30 3253 N 316.313 -1.40141 0.720998 0
M  V30 3254 C 317.561 -2.0039 0.262323 0
M  V30 3255 C 317.882 -1.57469 -1.15015 0
M  V30 3256 O 317.152 -0.816582 -1.78069 0
M  V30 3257 H 315.732 -0.741063 0.093996 0
M  V30 3258 H 318.394 -1.71398 0.927835 0
M  V30 3259 H 317.49 -3.10658 0.299671 0
M  V30 3260 N 317.792 -0.46758 -1.50504 0
M  V30 3261 C 319.04 0.0884469 -2.01906 0
M  V30 3262 C 319.361 1.40532 -1.35188 0
M  V30 3263 O 318.631 1.89515 -0.496079 0
M  V30 3264 H 317.211 0.0356765 -0.746148 0
M  V30 3265 H 319.873 -0.6172 -1.84869 0
M  V30 3266 H 318.969 0.2425 -3.11156 0
M  V30 3267 N 319.27 1.56325 -0.20005 0
M  V30 3268 C 320.22 2.15939 0.731743 0
M  V30 3269 C 321.204 1.10154 1.17281 0
M  V30 3270 O 322.396 1.36203 1.13038 0
M  V30 3271 C 319.525 2.82614 1.94895 0
M  V30 3272 C 318.611 3.95596 1.52855 0
M  V30 3273 N 319.002 4.99118 0.819418 0
M  V30 3274 C 317.3 4.07288 1.81748 0
M  V30 3275 C 318.001 5.78513 0.608053 0
M  V30 3276 N 316.977 5.31117 1.15828 0
M  V30 3277 H 320.779 2.9334 0.181285 0
M  V30 3278 H 318.293 1.624 -0.000452172 0
M  V30 3279 H 320.29 3.23718 2.62702 0
M  V30 3280 H 318.95 2.06702 2.50408 0
M  V30 3281 H 319.961 5.15723 0.47436 0
M  V30 3282 H 316.638 3.42509 2.38734 0
M  V30 3283 H 318.028 6.71885 0.0451619 0
M  V30 3284 N 320.748 -0.0735177 1.57428 0
M  V30 3285 C 321.681 -1.11932 1.98863 0
M  V30 3286 C 322.659 -1.37666 0.865266 0
M  V30 3287 O 323.843 -1.51068 1.12742 0
M  V30 3288 C 320.97 -2.46403 2.32386 0
M  V30 3289 C 320.016 -2.36815 3.54713 0
M  V30 3290 S 320.849 -1.76392 5.05614 0
M  V30 3291 C 322.005 -3.12444 5.42337 0
M  V30 3292 H 322.238 -0.766212 2.87257 0
M  V30 3293 H 319.771 -0.281987 1.51803 0
M  V30 3294 H 321.729 -3.23755 2.52375 0
M  V30 3295 H 320.39 -2.78876 1.44524 0
M  V30 3296 H 319.583 -3.35977 3.7568 0
M  V30 3297 H 319.185 -1.67598 3.34345 0
M  V30 3298 H 321.477 -4.08753 5.40303 0
M  V30 3299 H 322.42 -2.96258 6.43146 0
M  V30 3300 H 322.828 -3.1297 4.69798 0
M  V30 3301 N 322.226 -1.5378 -0.344866 0
M  V30 3302 C 323.474 -1.70625 -1.08311 0
M  V30 3303 C 323.795 -0.471447 -1.89215 0
M  V30 3304 O 323.065 0.514616 -1.8902 0
M  V30 3305 H 321.645 -0.629058 -0.402859 0
M  V30 3306 H 324.307 -1.9103 -0.386459 0
M  V30 3307 H 323.403 -2.57656 -1.76124 0
M  V30 3308 N 323.704 0.605807 -1.45491 0
M  V30 3309 C 324.932 1.39136 -1.5313 0
M  V30 3310 C 325.347 1.88082 -0.164507 0
M  V30 3311 O 324.704 1.62316 0.834247 0
M  V30 3312 C 324.755 2.59463 -2.51716 0
M  V30 3313 O 324.476 2.12551 -3.83084 0
M  V30 3314 C 325.977 3.52301 -2.6907 0
M  V30 3315 H 323.197 0.425849 -0.51855 0
M  V30 3316 H 325.741 0.73865 -1.90694 0
M  V30 3317 H 323.896 3.20772 -2.17219 0
M  V30 3318 H 324.31 2.90744 -4.36541 0
M  V30 3319 H 325.784 4.33271 -3.42024 0
M  V30 3320 H 326.261 4.02757 -1.75167 0
M  V30 3321 H 326.867 2.96845 -3.04571 0
M  V30 3322 N 325.182 1.32811 0.848464 0
M  V30 3323 C 326.092 1.24278 1.98978 0
M  V30 3324 C 327.108 0.155176 1.73307 0
M  V30 3325 O 328.284 0.376999 1.9784 0
M  V30 3326 C 325.349 0.972444 3.32783 0
M  V30 3327 C 324.41 2.14911 3.71634 0
M  V30 3328 C 323.643 1.89157 4.99054 0
M  V30 3329 O 323.866 0.837165 5.64223 0
M  V30 3330 O 322.8 2.75433 5.35183 0
M  V30 3331 H 326.626 2.20238 2.09115 0
M  V30 3332 H 324.211 1.12762 0.980052 0
M  V30 3333 H 326.093 0.838432 4.12975 0
M  V30 3334 H 324.768 0.043051 3.23671 0
M  V30 3335 H 323.675 2.33862 2.91992 0
M  V30 3336 H 325.008 3.06151 3.85399 0
M  V30 3337 N 326.66 -1.06551 1.16123 0
M  V30 3338 C 327.57 -2.17484 0.879662 0
M  V30 3339 C 328.586 -1.73377 -0.147104 0
M  V30 3340 O 329.762 -2.01379 0.0289128 0
M  V30 3341 C 326.827 -3.44591 0.381829 0
M  V30 3342 C 325.888 -4.0322 1.4735 0
M  V30 3343 C 325.121 -5.24261 0.999324 0
M  V30 3344 O 325.344 -5.70198 -0.151957 0
M  V30 3345 O 324.278 -5.74775 1.78653 0
M  V30 3346 H 328.104 -2.44075 1.80724 0
M  V30 3347 H 325.689 -1.16042 0.940992 0
M  V30 3348 H 327.571 -4.21254 0.111053 0
M  V30 3349 H 326.246 -3.19532 -0.51777 0
M  V30 3350 H 325.153 -3.2806 1.79798 0
M  V30 3351 H 326.486 -4.32568 2.34831 0
M  V30 3352 N 328.138 -0.959301 -1.25041 0
M  V30 3353 C 329.387 -0.612254 -1.92183 0
M  V30 3354 C 329.7 0.855347 -1.75907 0
M  V30 3355 O 330.906 1.31256 -2.37664 0
M  V30 3356 C 329.362 -1.04435 -3.44414 0
M  V30 3357 C 328.97 -2.53482 -3.69393 0
M  V30 3358 C 330.714 -0.770055 -4.17457 0
M  V30 3359 C 328.621 -2.90468 -5.15153 0
M  V30 3360 H 327.551 -0.225279 -0.719559 0
M  V30 3361 H 330.202 -1.16438 -1.41825 0
M  V30 3362 H 328.584 -0.4206 -3.9376 0
M  V30 3363 H 329.758 -3.20916 -3.30681 0
M  V30 3364 H 328.073 -2.78432 -3.0962 0
M  V30 3365 H 330.67 -1.02249 -5.24832 0
M  V30 3366 H 331.013 0.293611 -4.15263 0
M  V30 3367 H 331.546 -1.35437 -3.74034 0
M  V30 3368 H 328.285 -3.95871 -5.22462 0
M  V30 3369 H 327.805 -2.27711 -5.54894 0
M  V30 3370 H 329.484 -2.79914 -5.83315 0
M  V30 3371 N 329.616 1.39756 -0.72842 0
M  V30 3372 C 330.893 1.94574 -0.200079 0
M  V30 3373 C 331.273 1.66569 1.29684 0
M  V30 3374 O 330.621 0.990326 2.05924 0
M  V30 3375 C 330.831 3.45004 -0.526608 0
M  V30 3376 C 332.179 4.21965 -0.472318 0
M  V30 3377 O 333.203 3.53173 -0.463413 0
M  V30 3378 O 332.062 5.44552 -0.461075 0
M  V30 3379 H 329.156 0.826289 -0.0342851 0
M  V30 3380 H 331.702 1.49293 -0.806829 0
M  V30 3381 H 330.474 3.58796 -1.56144 0
M  V30 3382 H 330.097 3.97449 0.109449 0
M  V30 3383 N 331.094 0.475555 1.50254 0
M  V30 3384 C 332.322 -0.0754493 2.06762 0
M  V30 3385 C 332.737 -1.33111 1.33891 0
M  V30 3386 O 332.094 -1.77846 0.40952 0
M  V30 3387 C 332.145 -0.359008 3.59713 0
M  V30 3388 O 331.866 0.846851 4.29837 0
M  V30 3389 C 333.367 -0.956484 4.32858 0
M  V30 3390 H 330.587 0.00907525 0.670939 0
M  V30 3391 H 333.131 0.665618 1.93364 0
M  V30 3392 H 331.286 -1.05001 3.72899 0
M  V30 3393 H 331.7 0.594162 5.21124 0
M  V30 3394 H 333.174 -1.10463 5.40834 0
M  V30 3395 H 333.651 -1.94775 3.93649 0
M  V30 3396 H 334.257 -0.303723 4.24214 0
M  V30 3397 N 332.573 -1.56217 0.208337 0
M  V30 3398 C 333.822 -1.97124 -0.427204 0
M  V30 3399 C 334.135 -1.09859 -1.61835 0
M  V30 3400 O 335.341 -1.40606 -2.32255 0
M  V30 3401 C 333.797 -3.50633 -0.811442 0
M  V30 3402 C 333.405 -4.46582 0.35615 0
M  V30 3403 C 335.149 -4.00282 -1.41332 0
M  V30 3404 C 333.056 -5.91379 -0.0497852 0
M  V30 3405 H 331.986 -0.736086 -0.163381 0
M  V30 3406 H 334.637 -1.8099 0.302456 0
M  V30 3407 H 333.019 -3.62319 -1.59815 0
M  V30 3408 H 334.193 -4.46636 1.1337 0
M  V30 3409 H 332.508 -4.07202 0.870396 0
M  V30 3410 H 335.105 -5.0595 -1.72972 0
M  V30 3411 H 335.448 -3.45359 -2.32449 0
M  V30 3412 H 335.981 -3.91764 -0.690323 0
M  V30 3413 H 332.72 -6.50255 0.827529 0
M  V30 3414 H 332.24 -5.94549 -0.791926 0
M  V30 3415 H 333.919 -6.45209 -0.481042 0
M  V30 3416 N 334.051 0.0651679 -1.57465 0
M  V30 3417 C 335.3 0.761916 -1.86756 0
M  V30 3418 C 335.613 1.78406 -0.801925 0
M  V30 3419 O 336.819 2.53084 -0.982885 0
M  V30 3420 C 335.275 1.40603 -3.31299 0
M  V30 3421 C 334.883 0.422115 -4.46007 0
M  V30 3422 C 336.627 2.08476 -3.69781 0
M  V30 3423 C 334.534 1.07252 -5.81593 0
M  V30 3424 H 333.464 0.288308 -0.696702 0
M  V30 3425 H 336.115 0.015344 -1.83494 0
M  V30 3426 H 334.497 2.20109 -3.29193 0
M  V30 3427 H 335.671 -0.343613 -4.59517 0
M  V30 3428 H 333.986 -0.152527 -4.16121 0
M  V30 3429 H 336.583 2.57925 -4.68379 0
M  V30 3430 H 336.926 2.88712 -2.99919 0
M  V30 3431 H 337.459 1.35792 -3.73905 0
M  V30 3432 H 334.198 0.310342 -6.54765 0
M  V30 3433 H 333.718 1.80895 -5.71872 0
M  V30 3434 H 335.397 1.59043 -6.27148 0
M  V30 3435 N 335.529 1.53961 0.336706 0
M  V30 3436 C 336.94 1.62914 0.911925 0
M  V30 3437 C 337.291 0.514795 1.89326 0
M  V30 3438 O 336.416 -0.354395 2.13478 0
M  V30 3439 C 337.011 2.95304 1.66076 0
M  V30 3440 C 335.57 3.06496 2.18489 0
M  V30 3441 C 334.717 2.58403 1.00613 0
M  V30 3442 H 337.668 1.58285 0.114649 0
M  V30 3443 H 337.689 2.84727 2.5241 0
M  V30 3444 H 337.201 3.76387 0.946276 0
M  V30 3445 H 335.302 2.3006 2.93092 0
M  V30 3446 H 335.415 4.1208 2.44391 0
M  V30 3447 H 333.779 2.13977 1.38152 0
M  V30 3448 H 334.562 3.41932 0.306179 0
M  V30 3449 N 337.007 -0.598083 1.45811 0
M  V30 3450 C 338.253 -1.35882 1.50545 0
M  V30 3451 C 338.586 -1.93616 0.150445 0
M  V30 3452 O 337.861 -1.75604 -0.83628 0
M  V30 3453 C 338.144 -2.49966 2.59208 0
M  V30 3454 C 337.997 -1.97367 4.04186 0
M  V30 3455 C 339.316 -3.52068 2.64076 0
M  V30 3456 H 336.435 -0.492717 0.548087 0
M  V30 3457 H 339.077 -0.673319 1.77669 0
M  V30 3458 H 337.227 -3.08443 2.3621 0
M  V30 3459 H 338.899 -1.43466 4.38423 0
M  V30 3460 H 337.142 -1.283 4.14393 0
M  V30 3461 H 337.813 -2.79649 4.75921 0
M  V30 3462 H 340.289 -3.03448 2.84708 0
M  V30 3463 H 339.165 -4.2937 3.41954 0
M  V30 3464 H 339.426 -4.08304 1.69531 0
M  V30 3465 N 338.485 -1.33259 -0.841409 0
M  V30 3466 C 339.415 -1.25926 -1.96634 0
M  V30 3467 C 340.396 -0.140349 -1.6952 0
M  V30 3468 O 341.581 -0.329707 -1.91381 0
M  V30 3469 C 338.711 -0.99512 -3.32738 0
M  V30 3470 C 337.665 -2.0767 -3.74242 0
M  V30 3471 C 336.991 -1.66474 -5.08125 0
M  V30 3472 C 338.291 -3.49318 -3.88297 0
M  V30 3473 H 339.985 -2.20046 -2.03027 0
M  V30 3474 H 337.531 -1.05931 -0.975425 0
M  V30 3475 H 339.484 -0.930323 -4.11002 0
M  V30 3476 H 338.208 -0.0183004 -3.26595 0
M  V30 3477 H 336.867 -2.13187 -2.98239 0
M  V30 3478 H 336.515 -0.675012 -4.9845 0
M  V30 3479 H 336.215 -2.3885 -5.36865 0
M  V30 3480 H 337.739 -1.61455 -5.88867 0
M  V30 3481 H 339.153 -3.46316 -4.56879 0
M  V30 3482 H 337.55 -4.20158 -4.28471 0
M  V30 3483 H 338.62 -3.8801 -2.9082 0
M  V30 3484 N 339.963 1.05934 -1.16686 0
M  V30 3485 C 340.911 2.15603 -0.872817 0
M  V30 3486 C 341.905 1.68647 0.159576 0
M  V30 3487 O 343.111 1.79995 0.0132125 0
M  V30 3488 H 339.486 0.703885 -0.264671 0
M  V30 3489 H 341.457 2.37613 -1.80507 0
M  V30 3490 C 340.206 3.45457 -0.394344 0
M  V30 3491 H 339.529 3.81984 -1.18019 0
M  V30 3492 H 340.969 4.2339 -0.227408 0
M  V30 3493 C 339.428 3.25021 0.88673 0
M  V30 3494 O 339.958 3.50906 1.95519 0
M  V30 3495 N 338.164 2.78437 0.831925 0
M  V30 3496 H 337.711 2.57572 -0.0377619 0
M  V30 3497 H 337.669 2.65144 1.68956 0
M  V30 3498 N 341.441 0.965919 1.2453 0
M  V30 3499 C 342.351 0.502154 2.29163 0
M  V30 3500 C 343.367 -0.436017 1.68448 0
M  V30 3501 O 344.543 -0.309497 1.99008 0
M  V30 3502 C 341.608 -0.201956 3.46111 0
M  V30 3503 C 340.669 0.775821 4.22232 0
M  V30 3504 C 339.902 0.105217 5.33596 0
M  V30 3505 O 340.125 -1.10683 5.59558 0
M  V30 3506 O 339.059 0.796475 5.96607 0
M  V30 3507 H 342.885 1.37194 2.70946 0
M  V30 3508 H 340.47 0.732875 1.30189 0
M  V30 3509 H 342.352 -0.597564 4.17142 0
M  V30 3510 H 341.027 -1.04673 3.06309 0
M  V30 3511 H 339.934 1.22185 3.53584 0
M  V30 3512 H 341.267 1.58896 4.65846 0
M  V30 3513 N 342.919 -1.39368 0.735821 0
M  V30 3514 C 343.849 -2.33234 0.111506 0
M  V30 3515 C 344.83 -1.53954 -0.723334 0
M  V30 3516 O 346.015 -1.82344 -0.668147 0
M  V30 3517 C 343.145 -3.38057 -0.795917 0
M  V30 3518 C 342.099 -4.2795 -0.065172 0
M  V30 3519 C 341.425 -5.23479 -1.08967 0
M  V30 3520 C 342.725 -5.10741 1.09273 0
M  V30 3521 H 344.419 -2.85692 0.895571 0
M  V30 3522 H 341.965 -1.37364 0.432109 0
M  V30 3523 H 343.918 -4.02675 -1.24221 0
M  V30 3524 H 342.642 -2.8404 -1.61211 0
M  V30 3525 H 341.301 -3.64813 0.361511 0
M  V30 3526 H 340.949 -4.65758 -1.89944 0
M  V30 3527 H 340.649 -5.84472 -0.605489 0
M  V30 3528 H 342.173 -5.90974 -1.53565 0
M  V30 3529 H 343.587 -5.68699 0.724841 0
M  V30 3530 H 341.984 -5.8088 1.50659 0
M  V30 3531 H 343.054 -4.45525 1.91404 0
M  V30 3532 N 344.397 -0.483516 -1.5 0
M  V30 3533 C 345.813 -0.138404 -1.58999 0
M  V30 3534 C 346.013 1.35597 -1.4905 0
M  V30 3535 O 345.069 2.13039 -1.35539 0
M  V30 3536 C 346.382 -0.699658 -2.92447 0
M  V30 3537 C 347.93 -0.664195 -3.05872 0
M  V30 3538 C 348.405 -1.20321 -4.41913 0
M  V30 3539 N 349.896 -1.16315 -4.48358 0
M  V30 3540 C 350.631 -1.55058 -5.52037 0
M  V30 3541 N 350.127 -2.01311 -6.62907 0
M  V30 3542 N 351.92 -1.46584 -5.42651 0
M  V30 3543 H 344.071 -1.45529 -1.5471 0
M  V30 3544 H 346.334 -0.60258 -0.731848 0
M  V30 3545 H 346.04 -1.747 -3.05242 0
M  V30 3546 H 345.914 -0.150194 -3.76901 0
M  V30 3547 H 348.301 0.374272 -2.92717 0
M  V30 3548 H 348.382 -1.25061 -2.23144 0
M  V30 3549 H 348.026 -2.24037 -4.55818 0
M  V30 3550 H 347.956 -0.592896 -5.23252 0
M  V30 3551 H 350.447 -0.824058 -3.68806 0
M  V30 3552 H 350.76 -2.2899 -7.38095 0
M  V30 3553 H 349.105 -2.05273 -6.63994 0
M  V30 3554 H 352.296 -1.10281 -4.54924 0
M  V30 3555 H 352.469 -1.77103 -6.23329 0
M  V30 3556 N 345.875 1.56104 -0.216619 0
M  V30 3557 C 346.838 2.18819 0.681962 0
M  V30 3558 C 347.838 1.14866 1.12528 0
M  V30 3559 O 349.028 1.40128 1.03488 0
M  V30 3560 C 346.16 2.80756 1.93362 0
M  V30 3561 H 347.353 2.99595 0.135254 0
M  V30 3562 H 344.906 1.56265 0.0330003 0
M  V30 3563 H 345.641 2.03837 2.52232 0
M  V30 3564 H 345.426 3.56876 1.62426 0
M  V30 3565 H 346.916 3.28844 2.57393 0
M  V30 3566 N 347.353 -0.0568162 1.57498 0
M  V30 3567 C 348.285 -1.09292 2.01464 0
M  V30 3568 C 349.298 -1.34112 0.922913 0
M  V30 3569 O 350.487 -1.32089 1.20062 0
M  V30 3570 C 347.587 -2.44068 2.35125 0
M  V30 3571 C 346.76 -2.38995 3.66333 0
M  V30 3572 C 345.819 -3.55997 3.87495 0
M  V30 3573 O 344.845 -3.36746 4.58901 0
M  V30 3574 N 346.047 -4.76888 3.30996 0
M  V30 3575 H 348.812 -0.718386 2.90963 0
M  V30 3576 H 346.373 -0.245235 1.60032 0
M  V30 3577 H 348.365 -3.21011 2.46443 0
M  V30 3578 H 346.935 -2.73468 1.5144 0
M  V30 3579 H 346.155 -1.47336 3.65631 0
M  V30 3580 H 347.443 -2.3272 4.52458 0
M  V30 3581 H 346.841 -4.95431 2.73065 0
M  V30 3582 H 345.398 -5.51291 3.47738 0
M  V30 3583 N 348.832 -1.54138 -0.328536 0
M  V30 3584 C 350.08 -1.71765 -1.06496 0
M  V30 3585 C 350.401 -0.49149 -1.88704 0
M  V30 3586 O 349.671 0.494539 -1.89555 0
M  V30 3587 H 348.251 -0.633295 -0.396164 0
M  V30 3588 H 350.913 -1.91429 -0.366176 0
M  V30 3589 H 350.009 -2.5951 -1.73381 0
M  V30 3590 N 350.31 0.590341 -1.46126 0
M  V30 3591 C 351.243 1.71434 -1.50617 0
M  V30 3592 C 352.221 1.58543 -0.360948 0
M  V30 3593 O 353.405 1.79865 -0.563985 0
M  V30 3594 C 350.532 3.09422 -1.37753 0
M  V30 3595 C 349.578 3.40854 -2.5636 0
M  V30 3596 S 350.411 3.33773 -4.18755 0
M  V30 3597 C 351.567 4.74312 -4.08386 0
M  V30 3598 H 351.8 1.67364 -2.45717 0
M  V30 3599 H 349.333 0.76845 -1.33919 0
M  V30 3600 H 351.291 3.8903 -1.31018 0
M  V30 3601 H 349.952 3.10989 -0.440949 0
M  V30 3602 H 349.145 4.41368 -2.43332 0
M  V30 3603 H 348.747 2.68798 -2.60046 0
M  V30 3604 H 351.039 5.64522 -3.74595 0
M  V30 3605 H 351.982 4.92397 -5.08872 0
M  V30 3606 H 352.39 4.50803 -3.3976 0
M  V30 3607 N 351.788 1.33704 0.83433 0
M  V30 3608 C 352.735 1.24335 1.94447 0
M  V30 3609 C 353.705 0.120991 1.65659 0
M  V30 3610 O 354.89 0.300035 1.88426 0
M  V30 3611 C 352.03 0.993124 3.30501 0
M  V30 3612 C 351.143 2.20217 3.71657 0
M  V30 3613 C 350.278 1.88572 4.96602 0
M  V30 3614 C 349.317 3.05683 5.30306 0
M  V30 3615 N 348.454 2.73997 6.46429 0
M  V30 3616 H 353.294 2.1928 2.01792 0
M  V30 3617 H 350.831 1.09035 0.987404 0
M  V30 3618 H 352.789 0.828467 4.08892 0
M  V30 3619 H 351.419 0.0803902 3.227 0
M  V30 3620 H 350.471 2.47642 2.88752 0
M  V30 3621 H 351.783 3.07752 3.92543 0
M  V30 3622 H 350.937 1.68776 5.82752 0
M  V30 3623 H 349.676 0.982799 4.77695 0
M  V30 3624 H 348.681 3.26088 4.42659 0
M  V30 3625 H 349.906 3.96737 5.51159 0
M  V30 3626 H 347.852 1.86268 6.28999 0
M  V30 3627 H 347.769 3.55064 6.67432 0
M  V30 3628 H 349.037 2.57679 7.35678 0
M  V30 3629 N 353.266 -1.05314 1.17247 0
M  V30 3630 C 354.196 -2.1498 0.911362 0
M  V30 3631 C 355.177 -1.69471 -0.146169 0
M  V30 3632 O 356.362 -1.942 0.003812 0
M  V30 3633 C 353.492 -3.4472 0.422528 0
M  V30 3634 C 352.446 -4.03789 1.4191 0
M  V30 3635 C 351.772 -5.28858 0.788274 0
M  V30 3636 C 353.072 -4.41418 2.7919 0
M  V30 3637 H 354.766 -2.3708 1.82848 0
M  V30 3638 H 352.312 -1.13938 0.880569 0
M  V30 3639 H 354.265 -4.20787 0.227289 0
M  V30 3640 H 352.989 -3.22269 -0.530123 0
M  V30 3641 H 351.648 -3.2979 1.60106 0
M  V30 3642 H 351.296 -5.02709 -0.171173 0
M  V30 3643 H 350.996 -5.69338 1.45353 0
M  V30 3644 H 352.52 -6.07612 0.603282 0
M  V30 3645 H 353.934 -5.08524 2.64719 0
M  V30 3646 H 352.331 -4.92913 3.42282 0
M  V30 3647 H 353.401 -3.51819 3.33693 0
M  V30 3648 N 354.744 -0.972509 -1.24016 0
M  V30 3649 C 355.692 -0.498562 -2.27194 0
M  V30 3650 C 356.686 0.440372 -1.63576 0
M  V30 3651 O 357.892 0.315133 -1.7722 0
M  V30 3652 H 354.267 -0.142775 -0.738322 0
M  V30 3653 H 356.238 -1.38065 -2.64539 0
M  V30 3654 C 354.987 0.191072 -3.47175 0
M  V30 3655 H 354.31 -0.522318 -3.96373 0
M  V30 3656 H 355.75 0.486445 -4.212 0
M  V30 3657 C 354.209 1.41967 -3.05527 0
M  V30 3658 O 354.739 2.51642 -3.13112 0
M  V30 3659 N 352.945 1.28746 -2.60524 0
M  V30 3660 H 352.492 0.395089 -2.54552 0
M  V30 3661 H 352.45 2.11061 -2.33025 0
M  V30 3662 N 356.222 1.38976 -0.743202 0
M  V30 3663 C 357.47 1.99948 -0.29417 0
M  V30 3664 C 357.791 1.59279 1.12495 0
M  V30 3665 O 357.061 0.844808 1.76748 0
M  V30 3666 H 355.641 0.739473 -0.105774 0
M  V30 3667 H 358.303 1.699 -0.954986 0
M  V30 3668 H 357.399 3.10142 -0.349056 0
M  V30 3669 N 357.7 0.491464 1.49741 0
M  V30 3670 C 359.111 0.0413169 1.86654 0
M  V30 3671 C 359.462 -1.36985 1.40462 0
M  V30 3672 O 358.587 -2.01917 0.778354 0
M  V30 3673 C 359.182 0.0682023 3.38731 0
M  V30 3674 C 357.741 -0.32656 3.74981 0
M  V30 3675 C 356.888 0.444888 2.73708 0
M  V30 3676 H 359.839 0.704733 1.42194 0
M  V30 3677 H 359.86 -0.729322 3.73445 0
M  V30 3678 H 359.372 1.09539 3.72321 0
M  V30 3679 H 357.473 -1.35734 3.46997 0
M  V30 3680 H 357.586 -0.013741 4.79098 0
M  V30 3681 H 355.95 -0.104062 2.54487 0
M  V30 3682 H 356.733 1.47197 3.10142 0
M  V30 3683 N 359.178 -1.55987 0.224894 0
M  V30 3684 C 360.108 -2.23426 -0.678457 0
M  V30 3685 C 361.089 -1.20709 -1.19847 0
M  V30 3686 O 362.274 -1.49304 -1.24186 0
M  V30 3687 C 359.404 -2.91676 -1.88527 0
M  V30 3688 C 358.358 -4.00893 -1.49896 0
M  V30 3689 C 357.684 -4.56455 -2.78483 0
M  V30 3690 C 358.984 -5.17769 -0.686461 0
M  V30 3691 H 360.678 -2.99175 -0.116173 0
M  V30 3692 H 358.224 -1.43897 -0.054436 0
M  V30 3693 H 360.177 -3.37547 -2.5227 0
M  V30 3694 H 358.901 -2.1338 -2.47258 0
M  V30 3695 H 357.56 -3.55758 -0.884985 0
M  V30 3696 H 357.208 -3.74886 -3.35365 0
M  V30 3697 H 356.908 -5.30169 -2.53368 0
M  V30 3698 H 358.432 -5.05047 -3.43162 0
M  V30 3699 H 359.846 -5.60001 -1.22767 0
M  V30 3700 H 358.243 -5.97735 -0.532259 0
M  V30 3701 H 359.313 -4.83932 0.306196 0
M  V30 3702 N 360.656 0.0484629 -1.57525 0
M  V30 3703 C 362.067 0.597486 -1.76881 0
M  V30 3704 C 362.418 1.76664 -0.853475 0
M  V30 3705 O 361.543 2.16357 -0.0433656 0
M  V30 3706 C 362.138 1.09066 -3.20765 0
M  V30 3707 C 360.697 1.58535 -3.41385 0
M  V30 3708 C 359.844 0.514868 -2.72478 0
M  V30 3709 H 362.795 -0.177758 -1.57701 0
M  V30 3710 H 362.816 1.95875 -3.2621 0
M  V30 3711 H 362.328 0.239521 -3.8736 0
M  V30 3712 H 360.429 2.45898 -2.79937 0
M  V30 3713 H 360.542 1.64622 -4.49929 0
M  V30 3714 H 358.906 0.965407 -2.35695 0
M  V30 3715 H 359.689 -0.32648 -3.41744 0
M  V30 3716 N 362.134 1.5431 0.320358 0
M  V30 3717 C 363.097 1.83195 1.3774 0
M  V30 3718 C 364.097 0.703906 1.44575 0
M  V30 3719 O 365.287 0.972214 1.44546 0
M  V30 3720 C 362.419 1.99487 2.76438 0
M  V30 3721 H 363.612 2.77642 1.1338 0
M  V30 3722 H 361.165 1.46076 0.556012 0
M  V30 3723 H 361.9 1.07262 3.06048 0
M  V30 3724 H 361.685 2.81575 2.7287 0
M  V30 3725 H 363.175 2.23271 3.52902 0
M  V30 3726 N 363.613 -0.582584 1.46437 0
M  V30 3727 C 364.89 -1.34276 1.4223 0
M  V30 3728 C 365.27 -2.10835 0.10583 0
M  V30 3729 O 364.618 -2.09485 -0.912596 0
M  V30 3730 C 364.828 -2.26865 2.65204 0
M  V30 3731 C 366.176 -2.88691 3.11356 0
M  V30 3732 O 367.2 -2.37178 2.65753 0
M  V30 3733 O 366.059 -3.82255 3.90568 0
M  V30 3734 H 363.153 -0.603326 0.565621 0
M  V30 3735 H 365.699 -0.603591 1.58603 0
M  V30 3736 H 364.471 -1.69724 3.52576 0
M  V30 3737 H 364.094 -3.08122 2.5129 0
M  V30 3738 N 365.091 -1.34144 -0.827227 0
M  V30 3739 C 366.319 -1.29325 -1.61501 0
M  V30 3740 C 366.734 0.13354 -1.88327 0
M  V30 3741 O 366.091 1.0793 -1.47164 0
M  V30 3742 C 366.142 -2.07746 -2.95844 0
M  V30 3743 O 365.863 -3.4486 -2.70191 0
M  V30 3744 C 367.364 -2.10273 -3.90256 0
M  V30 3745 H 364.584 -0.445069 -0.50215 0
M  V30 3746 H 367.128 -1.76693 -1.02955 0
M  V30 3747 H 365.283 -1.6403 -3.5096 0
M  V30 3748 H 365.697 -3.85345 -3.55822 0
M  V30 3749 H 367.171 -2.69575 -4.81698 0
M  V30 3750 H 367.648 -1.096 -4.25305 0
M  V30 3751 H 368.254 -2.54059 -3.41078 0
M  V30 3752 N 366.569 1.04691 -1.17803 0
M  V30 3753 C 367.499 2.14494 -0.92275 0
M  V30 3754 C 368.48 1.69546 0.137179 0
M  V30 3755 O 369.665 1.94195 -0.0141108 0
M  V30 3756 C 366.795 3.44491 -0.440803 0
M  V30 3757 C 365.749 4.03031 -1.4405 0
M  V30 3758 C 365.075 5.28432 -0.81631 0
M  V30 3759 C 366.375 4.39932 -2.81527 0
M  V30 3760 H 368.069 2.36107 -1.84103 0
M  V30 3761 H 365.615 1.1347 -0.886599 0
M  V30 3762 H 367.568 4.2066 -0.249602 0
M  V30 3763 H 366.292 3.22546 0.513025 0
M  V30 3764 H 364.951 3.28937 -1.61853 0
M  V30 3765 H 364.599 5.02792 0.144511 0
M  V30 3766 H 364.299 5.68559 -1.48371 0
M  V30 3767 H 365.823 6.07284 -0.635496 0
M  V30 3768 H 367.237 5.07113 -2.67412 0
M  V30 3769 H 365.634 4.9109 -3.44892 0
M  V30 3770 H 366.704 3.50045 -3.35554 0
M  V30 3771 N 368.047 0.979072 1.23499 0
M  V30 3772 C 369.294 0.647219 1.91878 0
M  V30 3773 C 369.622 -0.819074 1.76413 0
M  V30 3774 O 368.877 -1.60616 1.11808 0
M  V30 3775 C 369.176 0.981932 3.43646 0
M  V30 3776 C 368.842 2.43822 3.79291 0
M  V30 3777 C 367.504 2.83622 3.88731 0
M  V30 3778 C 369.856 3.3828 3.96505 0
M  V30 3779 C 367.184 4.16897 4.12812 0
M  V30 3780 C 369.536 4.71197 4.22085 0
M  V30 3781 C 368.2 5.10758 4.29747 0
M  V30 3782 H 367.47 0.236834 0.702133 0
M  V30 3783 H 370.117 1.23268 1.46551 0
M  V30 3784 H 368.422 0.314365 3.90537 0
M  V30 3785 H 370.119 0.703395 3.94783 0
M  V30 3786 H 366.709 2.11966 3.72516 0
M  V30 3787 H 370.893 3.0871 3.88603 0
M  V30 3788 H 366.149 4.47157 4.16966 0
M  V30 3789 H 370.323 5.44348 4.34348 0
M  V30 3790 H 367.95 6.1405 4.48159 0
M  V30 3791 N 369.525 -1.3858 0.750561 0
M  V30 3792 C 370.457 -2.29057 0.0810714 0
M  V30 3793 C 371.47 -1.47596 -0.686973 0
M  V30 3794 O 372.659 -1.70495 -0.528563 0
M  V30 3795 C 369.759 -3.26475 -0.909247 0
M  V30 3796 C 368.932 -4.36945 -0.199478 0
M  V30 3797 C 367.991 -5.14572 -1.10011 0
M  V30 3798 O 367.017 -5.66321 -0.57177 0
M  V30 3799 N 368.219 -5.27262 -2.42849 0
M  V30 3800 H 370.984 -2.87153 0.858087 0
M  V30 3801 H 368.545 -1.50328 0.60109 0
M  V30 3802 H 370.537 -3.75285 -1.51471 0
M  V30 3803 H 369.107 -2.69298 -1.58736 0
M  V30 3804 H 368.327 -3.8981 0.586664 0
M  V30 3805 H 369.615 -5.07963 0.291783 0
M  V30 3806 H 369.013 -4.86763 -2.88233 0
M  V30 3807 H 367.57 -5.79456 -2.98453 0
M  V30 3808 N 371.003 -0.499398 -1.49478 0
M  V30 3809 C 372.414 -0.051215 -1.8663 0
M  V30 3810 C 372.765 1.36238 -1.41186 0
M  V30 3811 O 371.89 2.01502 -0.789051 0
M  V30 3812 C 372.485 -0.0861651 -3.3869 0
M  V30 3813 C 371.044 0.30667 -3.75149 0
M  V30 3814 C 370.191 -0.459397 -2.73468 0
M  V30 3815 H 373.142 -0.712264 -1.41818 0
M  V30 3816 H 373.163 0.709507 -3.73826 0
M  V30 3817 H 372.675 -1.11512 -3.71735 0
M  V30 3818 H 370.776 1.33892 -3.47712 0
M  V30 3819 H 370.889 -0.0116669 -4.79099 0
M  V30 3820 H 369.253 0.0905645 -2.54539 0
M  V30 3821 H 370.036 -1.4884 -3.09357 0
M  V30 3822 N 372.481 1.55866 -0.233164 0
M  V30 3823 C 373.428 2.20796 0.67215 0
M  V30 3824 C 374.398 1.16731 1.18166 0
M  V30 3825 O 375.583 1.45129 1.23864 0
M  V30 3826 C 372.723 2.90072 1.86955 0
M  V30 3827 C 371.836 4.08759 1.39786 0
M  V30 3828 C 370.971 4.65787 2.55374 0
M  V30 3829 C 370.01 5.76752 2.04998 0
M  V30 3830 N 369.147 6.28021 3.13901 0
M  V30 3831 H 373.987 2.9779 0.111749 0
M  V30 3832 H 371.524 1.47036 0.0434007 0
M  V30 3833 H 373.482 3.28428 2.57276 0
M  V30 3834 H 372.112 2.15575 2.40265 0
M  V30 3835 H 371.164 3.7581 0.589173 0
M  V30 3836 H 372.476 4.88906 0.98856 0
M  V30 3837 H 371.63 5.06646 3.33758 0
M  V30 3838 H 370.369 3.84828 2.99598 0
M  V30 3839 H 369.374 5.35383 1.25079 0
M  V30 3840 H 370.599 6.59553 1.61759 0
M  V30 3841 H 368.545 5.49971 3.57586 0
M  V30 3842 H 368.462 7.03323 2.7726 0
M  V30 3843 H 369.73 6.73538 3.92386 0
M  V30 3844 N 373.959 -0.0401083 1.57549 0
M  V30 3845 C 375.189 -0.744115 1.92734 0
M  V30 3846 C 375.597 -1.70005 0.830348 0
M  V30 3847 O 374.94 -1.82576 -0.20286 0
M  V30 3848 C 375.002 -1.56516 3.2364 0
M  V30 3849 C 374.666 -0.7752 4.50377 0
M  V30 3850 C 375.663 -0.0803326 5.19838 0
M  V30 3851 C 373.348 -0.733002 4.96923 0
M  V30 3852 C 375.342 0.646154 6.34116 0
M  V30 3853 C 373.029 -0.00276321 6.111 0
M  V30 3854 C 374.027 0.685585 6.7955 0
M  V30 3855 O 373.715 1.40399 7.91545 0
M  V30 3856 H 373.447 -0.214861 0.640945 0
M  V30 3857 H 376.001 -0.00503675 2.05399 0
M  V30 3858 H 374.231 -2.3478 3.07271 0
M  V30 3859 H 375.92 -2.15076 3.44234 0
M  V30 3860 H 376.686 -0.104035 4.84888 0
M  V30 3861 H 372.565 -1.25827 4.43496 0
M  V30 3862 H 376.109 1.18398 6.87479 0
M  V30 3863 H 372.006 0.0229012 6.45496 0
M  V30 3864 H 372.774 1.31653 8.07843 0
M  V30 3865 N 375.437 -1.54477 -0.31217 0
M  V30 3866 C 376.367 -1.87652 -1.38957 0
M  V30 3867 C 377.348 -0.734358 -1.53431 0
M  V30 3868 O 378.533 -0.98911 -1.67123 0
M  V30 3869 C 375.663 -2.11396 -2.75552 0
M  V30 3870 C 374.617 -3.27243 -2.75855 0
M  V30 3871 C 373.943 -3.36382 -4.15633 0
M  V30 3872 C 375.243 -4.64622 -2.38587 0
M  V30 3873 H 376.937 -2.77887 -1.11442 0
M  V30 3874 H 374.483 -1.33707 -0.534655 0
M  V30 3875 H 376.436 -2.33189 -3.51 0
M  V30 3876 H 375.16 -1.17921 -3.04569 0
M  V30 3877 H 373.819 -3.05356 -2.02863 0
M  V30 3878 H 373.467 -2.40445 -4.41809 0
M  V30 3879 H 373.167 -4.14249 -4.1674 0
M  V30 3880 H 374.691 -3.60422 -4.92877 0
M  V30 3881 H 376.105 -4.86219 -3.03749 0
M  V30 3882 H 374.502 -5.45121 -2.50925 0
M  V30 3883 H 375.572 -4.66097 -1.33723 0
M  V30 3884 N 376.915 0.57481 -1.46744 0
M  V30 3885 C 378.192 1.3352 -1.4294 0
M  V30 3886 C 378.572 2.10775 -0.117009 0
M  V30 3887 O 377.92 2.09966 0.901474 0
M  V30 3888 C 378.13 2.25456 -2.66403 0
M  V30 3889 C 379.478 2.87035 -3.12883 0
M  V30 3890 O 380.502 2.35766 -2.67007 0
M  V30 3891 O 379.361 3.80179 -3.92589 0
M  V30 3892 H 376.455 0.600318 -0.568812 0
M  V30 3893 H 379.001 0.595171 -1.58921 0
M  V30 3894 H 377.773 1.67851 -3.53471 0
M  V30 3895 H 377.396 3.06785 -2.52921 0
M  V30 3896 N 378.394 1.34581 0.820102 0
M  V30 3897 C 379.342 1.26401 1.95258 0
M  V30 3898 C 380.336 0.161553 1.68628 0
M  V30 3899 O 381.542 0.326703 1.7701 0
M  V30 3900 H 377.917 0.392749 0.64129 0
M  V30 3901 H 379.888 2.22105 1.99279 0
M  V30 3902 C 378.637 1.03919 3.31807 0
M  V30 3903 H 377.96 1.87984 3.52848 0
M  V30 3904 H 379.4 1.02232 4.11491 0
M  V30 3905 C 377.859 -0.257433 3.35915 0
M  V30 3906 O 378.389 -1.25784 3.81499 0
M  V30 3907 N 376.595 -0.291524 2.89134 0
M  V30 3908 H 376.142 0.523161 2.52232 0
M  V30 3909 H 376.1 -1.15883 2.92264 0
M  V30 3910 N 379.872 -1.04064 1.18357 0
M  V30 3911 C 380.835 -2.10243 0.912707 0
M  V30 3912 C 381.835 -1.60477 -0.101928 0
M  V30 3913 O 383.025 -1.73703 0.131517 0
M  V30 3914 C 380.157 -3.38893 0.369387 0
M  V30 3915 H 381.35 -2.35706 1.85426 0
M  V30 3916 H 378.903 -1.20489 0.995594 0
M  V30 3917 H 379.638 -3.19094 -0.578776 0
M  V30 3918 H 379.423 -3.76331 1.1008 0
M  V30 3919 H 380.913 -4.17128 0.198575 0
M  V30 3920 N 381.35 -0.985608 -1.22978 0
M  V30 3921 C 382.627 -0.573599 -1.87001 0
M  V30 3922 C 383.007 0.949213 -1.88555 0
M  V30 3923 O 382.355 1.82811 -1.37086 0
M  V30 3924 C 382.565 -1.18564 -3.28243 0
M  V30 3925 C 383.913 -1.28163 -4.04796 0
M  V30 3926 O 384.937 -1.13949 -3.37482 0
M  V30 3927 O 383.796 -1.50832 -5.25273 0
M  V30 3928 H 380.89 -0.193868 -0.803955 0
M  V30 3929 H 383.436 -1.08102 -1.30813 0
M  V30 3930 H 382.208 -2.22758 -3.21706 0
M  V30 3931 H 381.831 -0.663363 -3.92027 0
M  V30 3932 N 382.828 1.3818 -0.7579 0
M  V30 3933 C 383.791 2.28764 -0.141286 0
M  V30 3934 C 384.791 1.47388 0.642907 0
M  V30 3935 O 385.981 1.67781 0.468536 0
M  V30 3936 C 383.113 3.31184 0.808069 0
M  V30 3937 H 384.306 2.848 -0.939633 0
M  V30 3938 H 381.859 1.47212 -0.525191 0
M  V30 3939 H 382.594 2.80247 1.63193 0
M  V30 3940 H 382.379 3.91314 0.248104 0
M  V30 3941 H 383.869 3.98909 1.23536 0
M  V30 3942 N 384.306 0.507319 1.49211 0
M  V30 3943 C 385.552 -0.0350047 2.0277 0
M  V30 3944 C 385.885 -1.3606 1.38569 0
M  V30 3945 O 385.16 -1.87321 0.523542 0
M  V30 3946 C 385.443 -0.180916 3.59645 0
M  V30 3947 C 385.296 1.16825 4.34364 0
M  V30 3948 C 386.615 -0.918558 4.30407 0
M  V30 3949 H 383.734 -0.0112473 0.736914 0
M  V30 3950 H 386.376 0.659956 1.7817 0
M  V30 3951 H 384.526 -0.772826 3.80736 0
M  V30 3952 H 386.198 1.79952 4.24753 0
M  V30 3953 H 384.441 1.75594 3.96673 0
M  V30 3954 H 385.112 1.01939 5.42506 0
M  V30 3955 H 387.588 -0.41649 4.1401 0
M  V30 3956 H 386.464 -0.989505 5.39907 0
M  V30 3957 H 386.725 -1.96373 3.96093 0
M  V30 3958 N 385.784 -1.5574 0.241426 0
M  V30 3959 C 386.714 -2.24133 -0.654722 0
M  V30 3960 C 387.695 -1.21974 -1.1856 0
M  V30 3961 O 388.88 -1.50612 -1.22595 0
M  V30 3962 C 386.01 -2.93659 -1.85423 0
M  V30 3963 C 384.964 -4.0246 -1.45636 0
M  V30 3964 C 384.29 -4.59383 -2.73626 0
M  V30 3965 C 385.59 -5.18468 -0.631506 0
M  V30 3966 H 387.284 -2.99281 -0.0844353 0
M  V30 3967 H 384.83 -1.43947 -0.0391707 0
M  V30 3968 H 386.783 -3.40203 -2.48676 0
M  V30 3969 H 385.507 -2.15991 -2.44981 0
M  V30 3970 H 384.166 -3.56676 -0.847202 0
M  V30 3971 H 383.814 -3.78422 -3.3137 0
M  V30 3972 H 383.514 -5.32826 -2.4773 0
M  V30 3973 H 385.038 -5.08658 -3.37786 0
M  V30 3974 H 386.452 -5.61272 -1.1682 0
M  V30 3975 H 384.849 -5.98266 -0.468831 0
M  V30 3976 H 385.919 -4.8358 0.357506 0
M  V30 3977 N 387.262 0.0317525 -1.57568 0
M  V30 3978 C 388.225 1.01783 -2.0536 0
M  V30 3979 C 389.225 1.29203 -0.957253 0
M  V30 3980 O 390.415 1.24251 -1.22095 0
M  V30 3981 C 387.547 2.35137 -2.46827 0
M  V30 3982 H 388.74 0.605062 -2.93733 0
M  V30 3983 H 386.293 0.278514 -1.53799 0
M  V30 3984 H 387.028 2.81168 -1.61602 0
M  V30 3985 H 386.813 2.16566 -3.26866 0
M  V30 3986 H 388.303 3.05938 -2.84239 0
M  V30 3987 N 388.74 1.54641 0.303973 0
M  V30 3988 C 389.673 1.80263 1.3993 0
M  V30 3989 C 390.651 0.653657 1.48883 0
M  V30 3990 O 391.835 0.893284 1.6599 0
M  V30 3991 C 388.962 1.9367 2.77866 0
M  V30 3992 C 388.008 3.16078 2.86351 0
M  V30 3993 S 388.841 4.74219 2.4875 0
M  V30 3994 C 389.997 4.90558 3.88721 0
M  V30 3995 H 390.23 2.72886 1.17986 0
M  V30 3996 H 387.763 1.46014 0.501918 0
M  V30 3997 H 389.721 2.0208 3.57315 0
M  V30 3998 H 388.382 1.01991 2.9708 0
M  V30 3999 H 387.575 3.22252 3.87517 0
M  V30 4000 H 387.177 3.06099 2.14893 0
M  V30 4001 H 389.469 4.74398 4.83687 0
M  V30 4002 H 390.412 5.92651 3.87518 0
M  V30 4003 H 390.82 4.18728 3.78585 0
M  V30 4004 N 390.218 -0.567019 1.47046 0
M  V30 4005 C 391.448 -1.34831 1.56538 0
M  V30 4006 C 391.856 -1.8802 0.21101 0
M  V30 4007 O 391.199 -1.65152 -0.804387 0
M  V30 4008 C 391.261 -2.56139 2.52256 0
M  V30 4009 C 390.925 -2.24307 3.98165 0
M  V30 4010 C 391.922 -1.82192 4.86931 0
M  V30 4011 C 389.607 -2.35968 4.43423 0
M  V30 4012 C 391.601 -1.52153 6.18973 0
M  V30 4013 C 389.288 -2.05542 5.75496 0
M  V30 4014 C 390.286 -1.63701 6.63092 0
M  V30 4015 O 389.974 -1.33657 7.92711 0
M  V30 4016 H 389.706 -0.417683 0.531523 0
M  V30 4017 H 392.26 -0.694726 1.93294 0
M  V30 4018 H 390.49 -3.24356 2.10548 0
M  V30 4019 H 392.179 -3.18214 2.51982 0
M  V30 4020 H 392.945 -1.72684 4.53217 0
M  V30 4021 H 388.824 -2.67495 3.75456 0
M  V30 4022 H 392.368 -1.19421 6.87302 0
M  V30 4023 H 388.265 -2.14679 6.08755 0
M  V30 4024 H 389.033 -1.4737 8.05124 0
M  V30 4025 N 391.696 -1.35014 -0.812953 0
M  V30 4026 C 392.646 -1.23959 -1.91359 0
M  V30 4027 C 393.63 -0.136306 -1.60322 0
M  V30 4028 O 394.822 -0.366925 -1.73155 0
M  V30 4029 C 391.951 -1.00736 -3.28188 0
M  V30 4030 C 391.037 -2.15426 -3.65311 0
M  V30 4031 N 391.428 -3.40612 -3.73921 0
M  V30 4032 C 389.726 -2.06672 -3.95225 0
M  V30 4033 C 390.427 -4.15994 -4.06601 0
M  V30 4034 N 389.403 -3.44685 -4.20349 0
M  V30 4035 H 393.205 -2.18815 -1.96208 0
M  V30 4036 H 390.719 -1.27395 -1.00718 0
M  V30 4037 H 392.716 -0.909052 -4.06868 0
M  V30 4038 H 391.376 -0.067586 -3.2463 0
M  V30 4039 H 392.387 -3.75043 -3.5716 0
M  V30 4040 H 389.064 -1.20511 -3.99729 0
M  V30 4041 H 390.454 -5.24145 -4.20382 0
M  V30 4042 N 393.175 1.03435 -1.18907 0
M  V30 4043 C 394.452 1.73778 -0.89781 0
M  V30 4044 C 394.832 2.02458 0.597832 0
M  V30 4045 O 394.18 1.67482 1.55441 0
M  V30 4046 C 394.39 3.01845 -1.75187 0
M  V30 4047 C 395.738 3.7546 -1.9828 0
M  V30 4048 O 396.762 3.11759 -1.72293 0
M  V30 4049 O 395.621 4.89966 -2.42065 0
M  V30 4050 H 392.715 0.75651 -0.334098 0
M  V30 4051 H 395.261 1.09444 -1.29693 0
M  V30 4052 H 394.033 2.76836 -2.76545 0
M  V30 4053 H 393.656 3.73919 -1.35167 0
M  V30 4054 N 394.653 0.992116 1.22453 0
M  V30 4055 C 395.585 0.500024 2.23679 0
M  V30 4056 C 396.598 -0.404463 1.57696 0
M  V30 4057 O 397.787 -0.206722 1.77299 0
M  V30 4058 C 394.887 -0.294711 3.37616 0
M  V30 4059 C 394.06 0.605723 4.33186 0
M  V30 4060 C 393.119 -0.13717 5.26021 0
M  V30 4061 O 392.145 0.477164 5.67196 0
M  V30 4062 N 393.347 -1.4197 5.62872 0
M  V30 4063 H 396.112 1.37045 2.66531 0
M  V30 4064 H 393.673 0.866741 1.36745 0
M  V30 4065 H 395.665 -0.800329 3.96707 0
M  V30 4066 H 394.235 -1.06623 2.93854 0
M  V30 4067 H 393.455 1.29202 3.72425 0
M  V30 4068 H 394.743 1.21896 4.93983 0
M  V30 4069 H 394.141 -1.94015 5.31389 0
M  V30 4070 H 392.698 -1.87052 6.24383 0
M  V30 4071 N 396.131 -1.37776 0.765217 0
M  V30 4072 C 397.379 -1.99454 0.325943 0
M  V30 4073 C 397.7 -1.61049 -1.09947 0
M  V30 4074 O 396.97 -0.872821 -1.75381 0
M  V30 4075 H 395.55 -0.737697 0.117525 0
M  V30 4076 H 398.212 -1.68359 0.981895 0
M  V30 4077 H 397.308 -3.09547 0.398353 0
M  V30 4078 N 397.609 -0.515225 -1.4894 0
M  V30 4079 C 398.539 0.244628 -2.32215 0
M  V30 4080 C 399.52 0.949136 -1.41157 0
M  V30 4081 O 400.705 0.937783 -1.70057 0
M  V30 4082 C 397.835 1.30096 -3.22013 0
M  V30 4083 C 396.789 0.715486 -4.21977 0
M  V30 4084 C 396.115 1.87339 -5.00808 0
M  V30 4085 C 397.415 -0.302982 -5.2142 0
M  V30 4086 H 399.109 -0.450501 -2.95991 0
M  V30 4087 H 396.655 -0.218098 -1.42339 0
M  V30 4088 H 398.608 1.84037 -3.79089 0
M  V30 4089 H 397.332 2.02547 -2.56207 0
M  V30 4090 H 395.991 0.197715 -3.66066 0
M  V30 4091 H 395.639 2.58592 -4.31438 0
M  V30 4092 H 395.339 1.48764 -5.68457 0
M  V30 4093 H 396.863 2.41686 -5.60732 0
M  V30 4094 H 398.277 0.148802 -5.73107 0
M  V30 4095 H 396.674 -0.60532 -5.97039 0
M  V30 4096 H 397.744 -1.21395 -4.69459 0
M  V30 4097 N 399.087 1.5561 -0.249682 0
M  V30 4098 C 400.498 1.84979 0.252949 0
M  V30 4099 C 400.849 1.17153 1.57384 0
M  V30 4100 O 399.974 0.450884 2.11651 0
M  V30 4101 C 400.569 3.35584 0.465732 0
M  V30 4102 C 399.128 3.65169 0.912624 0
M  V30 4103 C 398.275 2.77299 -0.00859085 0
M  V30 4104 H 401.226 1.51513 -0.47217 0
M  V30 4105 H 401.247 3.57313 1.30795 0
M  V30 4106 H 400.759 3.8492 -0.49579 0
M  V30 4107 H 398.86 3.21312 1.88652 0
M  V30 4108 H 398.973 4.72912 0.767559 0
M  V30 4109 H 397.337 2.49678 0.50327 0
M  V30 4110 H 398.12 3.29442 -0.965537 0
M  V30 4111 N 400.565 -0.0233959 1.57583 0
M  V30 4112 C 401.811 -0.714119 1.89811 0
M  V30 4113 C 402.144 -1.74702 0.848113 0
M  V30 4114 O 401.419 -1.94023 -0.136135 0
M  V30 4115 C 401.702 -1.37853 3.32669 0
M  V30 4116 C 401.555 -0.358764 4.48367 0
M  V30 4117 C 402.874 -2.31101 3.7454 0
M  V30 4118 H 399.993 -0.25814 0.690314 0
M  V30 4119 H 402.635 0.0230927 1.89986 0
M  V30 4120 H 400.785 -2.00689 3.3265 0
M  V30 4121 H 402.457 0.268115 4.6052 0
M  V30 4122 H 400.7 0.321387 4.32608 0
M  V30 4123 H 401.371 -0.862242 5.45224 0
M  V30 4124 H 403.847 -1.78304 3.75961 0
M  V30 4125 H 402.723 -2.74567 4.75294 0
M  V30 4126 H 402.984 -3.18018 3.0711 0
M  V30 4127 N 402.043 -1.548 -0.295768 0
M  V30 4128 C 402.973 -1.89115 -1.36959 0
M  V30 4129 C 403.954 -0.75059 -1.52644 0
M  V30 4130 O 405.139 -1.00678 -1.66065 0
M  V30 4131 C 402.269 -2.14307 -2.73295 0
M  V30 4132 C 401.223 -3.30151 -2.72368 0
M  V30 4133 C 400.549 -3.40772 -4.12042 0
M  V30 4134 C 401.849 -4.67126 -2.33646 0
M  V30 4135 H 403.543 -2.79053 -1.08488 0
M  V30 4136 H 401.089 -1.34266 -0.520443 0
M  V30 4137 H 403.042 -2.36898 -3.48507 0
M  V30 4138 H 401.766 -1.21145 -3.03301 0
M  V30 4139 H 400.425 -3.0749 -1.99613 0
M  V30 4140 H 400.073 -2.45117 -4.39234 0
M  V30 4141 H 399.773 -4.18645 -4.12322 0
M  V30 4142 H 401.297 -3.6563 -4.89027 0
M  V30 4143 H 402.711 -4.89414 -2.98575 0
M  V30 4144 H 401.108 -5.47751 -2.45129 0
M  V30 4145 H 402.178 -4.67489 -1.28772 0
M  V30 4146 N 403.521 0.559213 -1.47345 0
M  V30 4147 C 404.468 1.66645 -1.59682 0
M  V30 4148 C 405.438 1.60168 -0.43994 0
M  V30 4149 O 406.623 1.79031 -0.659736 0
M  V30 4150 C 403.763 3.04969 -1.61518 0
M  V30 4151 C 402.876 3.21897 -2.88108 0
M  V30 4152 C 402.011 4.50608 -2.81294 0
M  V30 4153 C 401.05 4.60961 -4.02717 0
M  V30 4154 N 400.187 5.81024 -3.94151 0
M  V30 4155 H 405.027 1.55439 -2.54249 0
M  V30 4156 H 402.564 0.757219 -1.26113 0
M  V30 4157 H 404.522 3.85064 -1.60566 0
M  V30 4158 H 403.152 3.15015 -0.704645 0
M  V30 4159 H 402.204 2.35248 -2.98936 0
M  V30 4160 H 403.516 3.25412 -3.78032 0
M  V30 4161 H 402.67 5.3896 -2.7858 0
M  V30 4162 H 401.409 4.49568 -1.89049 0
M  V30 4163 H 400.414 3.71021 -4.05738 0
M  V30 4164 H 401.639 4.63761 -4.96087 0
M  V30 4165 H 399.585 5.80938 -3.04708 0
M  V30 4166 H 399.502 5.85909 -4.77752 0
M  V30 4167 H 400.77 6.71744 -3.9545 0
M  V30 4168 N 404.999 1.35443 0.805782 0
M  V30 4169 C 406.229 1.31687 1.59192 0
M  V30 4170 C 406.637 -0.10756 1.88894 0
M  V30 4171 O 405.98 -1.07017 1.49309 0
M  V30 4172 C 406.042 2.05686 2.94845 0
M  V30 4173 C 405.706 3.54868 2.87954 0
M  V30 4174 C 406.703 4.49444 2.61335 0
M  V30 4175 C 404.388 3.97528 3.07046 0
M  V30 4176 C 406.382 5.84655 2.53885 0
M  V30 4177 C 404.069 5.32833 2.99219 0
M  V30 4178 C 405.067 6.26209 2.72674 0
M  V30 4179 O 404.755 7.59032 2.64811 0
M  V30 4180 H 404.487 0.453878 0.50097 0
M  V30 4181 H 407.041 1.78892 1.0093 0
M  V30 4182 H 405.271 1.5312 3.55093 0
M  V30 4183 H 406.96 1.94998 3.55993 0
M  V30 4184 H 407.726 4.17804 2.46303 0
M  V30 4185 H 403.605 3.25233 3.26718 0
M  V30 4186 H 407.149 6.57508 2.33086 0
M  V30 4187 H 403.046 5.64087 3.13809 0
M  V30 4188 H 403.814 7.68967 2.80413 0
M  V30 4189 N 406.477 -1.02803 1.19454 0
M  V30 4190 C 407.409 -2.11181 0.890807 0
M  V30 4191 C 408.422 -1.6238 -0.116829 0
M  V30 4192 O 409.611 -1.78144 0.112694 0
M  V30 4193 C 406.711 -3.37461 0.311942 0
M  V30 4194 C 405.884 -4.15446 1.36834 0
M  V30 4195 C 404.943 -5.20039 0.802864 0
M  V30 4196 O 403.969 -5.49602 1.48077 0
M  V30 4197 N 405.171 -5.79165 -0.393417 0
M  V30 4198 H 407.936 -2.37827 1.82369 0
M  V30 4199 H 405.497 -1.19101 1.09666 0
M  V30 4200 H 407.489 -4.0462 -0.0802225 0
M  V30 4201 H 406.059 -3.08156 -0.52524 0
M  V30 4202 H 405.279 -3.43423 1.93531 0
M  V30 4203 H 406.567 -4.64335 2.08015 0
M  V30 4204 H 405.965 -5.57466 -0.961658 0
M  V30 4205 H 404.522 -6.47729 -0.727351 0
M  V30 4206 N 407.956 -0.998596 -1.21925 0
M  V30 4207 C 409.204 -0.676325 -1.90448 0
M  V30 4208 C 409.525 0.794719 -1.78071 0
M  V30 4209 O 408.795 1.5701 -1.17152 0
M  V30 4210 H 407.375 -0.247165 -0.704925 0
M  V30 4211 H 410.037 -1.26633 -1.48156 0
M  V30 4212 H 409.133 -0.943858 -2.97486 0
M  V30 4213 N 409.434 1.37368 -0.772513 0
M  V30 4214 C 410.681 1.99673 -0.337182 0
M  V30 4215 C 411.009 1.61324 1.0865 0
M  V30 4216 O 410.264 0.851377 1.7621 0
M  V30 4217 C 410.563 3.54817 -0.428876 0
M  V30 4218 C 410.229 4.12936 -1.81092 0
M  V30 4219 C 408.891 4.28523 -2.1891 0
M  V30 4220 C 411.243 4.44801 -2.71664 0
M  V30 4221 C 408.571 4.73277 -3.46735 0
M  V30 4222 C 410.923 4.90981 -3.98899 0
M  V30 4223 C 409.587 5.04773 -4.36761 0
M  V30 4224 H 408.857 0.730656 -0.123384 0
M  V30 4225 H 411.504 1.64124 -0.986686 0
M  V30 4226 H 409.809 3.90618 0.304167 0
M  V30 4227 H 411.506 4.00933 -0.0733334 0
M  V30 4228 H 408.096 4.01233 -1.50699 0
M  V30 4229 H 412.28 4.32344 -2.43706 0
M  V30 4230 H 407.536 4.82142 -3.75964 0
M  V30 4231 H 411.71 5.14603 -4.69208 0
M  V30 4232 H 409.337 5.39211 -5.35868 0
M  V30 4233 N 410.912 0.523116 1.48665 0
M  V30 4234 C 412.16 -0.0134497 2.02096 0
M  V30 4235 C 412.481 -1.35418 1.40311 0
M  V30 4236 O 411.751 -1.87543 0.566074 0
M  V30 4237 H 410.331 -0.00795915 0.746958 0
M  V30 4238 H 412.993 0.685388 1.82451 0
M  V30 4239 H 412.089 -0.126849 3.11842 0
M  V30 4240 N 412.39 -1.55475 0.257931 0
M  V30 4241 C 413.806 -1.59307 -0.0966563 0
M  V30 4242 C 414.006 -1.27514 -1.5602 0
M  V30 4243 O 413.062 -1.02774 -2.30637 0
M  V30 4244 C 414.375 -2.99552 0.262481 0
M  V30 4245 C 415.923 -3.1231 0.207683 0
M  V30 4246 C 416.398 -4.54793 0.541012 0
M  V30 4247 N 417.889 -4.6058 0.491921 0
M  V30 4248 C 418.624 -5.68825 0.722857 0
M  V30 4249 N 418.12 -6.85287 1.0175 0
M  V30 4250 N 419.913 -5.58296 0.652815 0
M  V30 4251 H 412.064 -1.74409 1.21224 0
M  V30 4252 H 414.327 -0.812424 0.48854 0
M  V30 4253 H 414.033 -3.27593 1.27967 0
M  V30 4254 H 413.907 -3.75019 -0.40508 0
M  V30 4255 H 416.294 -2.84044 -0.800195 0
M  V30 4256 H 416.375 -2.39095 0.909255 0
M  V30 4257 H 416.019 -4.83783 1.5465 0
M  V30 4258 H 415.949 -5.26285 -0.18216 0
M  V30 4259 H 418.44 -3.7691 0.273366 0
M  V30 4260 H 418.753 -7.63725 1.18084 0
M  V30 4261 H 417.098 -6.86945 1.05509 0
M  V30 4262 H 420.289 -4.66189 0.422592 0
M  V30 4263 H 420.462 -6.42582 0.836182 0
M  V30 4264 N 413.868 0.0150385 -1.57593 0
M  V30 4265 C 415.116 0.701613 -1.8953 0
M  V30 4266 C 415.437 1.75139 -0.857396 0
M  V30 4267 O 414.707 1.95607 0.107194 0
M  V30 4268 H 413.287 0.26213 -0.699498 0
M  V30 4269 H 415.949 -0.0223304 -1.94887 0
M  V30 4270 H 415.045 1.18236 -2.88837 0
M  V30 4271 N 415.346 1.54954 0.287554 0
M  V30 4272 C 416.592 1.75132 1.02257 0
M  V30 4273 C 416.925 0.542858 1.86458 0
M  V30 4274 O 416.2 -0.459856 1.88986 0
M  V30 4275 C 416.483 3.04812 1.91733 0
M  V30 4276 C 416.336 4.35985 1.10622 0
M  V30 4277 C 417.655 3.30438 2.90687 0
M  V30 4278 H 414.774 0.637194 0.370341 0
M  V30 4279 H 417.416 1.87678 0.296111 0
M  V30 4280 H 415.566 2.94247 2.53675 0
M  V30 4281 H 417.238 4.58487 0.508636 0
M  V30 4282 H 415.481 4.31865 0.409271 0
M  V30 4283 H 416.152 5.23017 1.76513 0
M  V30 4284 H 418.628 3.40701 2.38877 0
M  V30 4285 H 417.504 4.22467 3.50447 0
M  V30 4286 H 417.765 2.49377 3.65053 0
M  V30 4287 N 416.824 -0.551391 1.4764 0
M  V30 4288 C 417.772 -1.67896 1.60978 0
M  V30 4289 C 418.766 -1.62549 0.476877 0
M  V30 4290 O 419.972 -1.67664 0.654878 0
M  V30 4291 H 416.347 -0.555649 0.506713 0
M  V30 4292 H 418.318 -1.53784 2.55721 0
M  V30 4293 C 417.067 -3.06234 1.64669 0
M  V30 4294 H 416.39 -3.11033 2.51194 0
M  V30 4295 H 417.83 -3.84804 1.7805 0
M  V30 4296 C 416.289 -3.34737 0.381115 0
M  V30 4297 O 416.819 -3.98381 -0.515297 0
M  V30 4298 N 415.025 -2.8944 0.259354 0
M  V30 4299 H 414.572 -2.37827 0.98976 0
M  V30 4300 H 414.53 -3.08882 -0.586464 0
M  V30 4301 N 418.302 -1.35869 -0.798587 0
M  V30 4302 C 419.551 -1.28921 -1.5512 0
M  V30 4303 C 419.864 0.13208 -1.95154 0
M  V30 4304 O 421.07 0.323879 -2.69561 0
M  V30 4305 C 419.526 -2.26141 -2.79979 0
M  V30 4306 C 419.134 -3.73658 -2.47151 0
M  V30 4307 C 420.878 -2.28152 -3.57976 0
M  V30 4308 C 418.785 -4.62679 -3.6835 0
M  V30 4309 H 417.715 -0.479031 -0.582276 0
M  V30 4310 H 420.366 -1.61179 -0.877125 0
M  V30 4311 H 418.748 -1.86865 -3.49138 0
M  V30 4312 H 419.922 -4.21616 -1.85947 0
M  V30 4313 H 418.237 -3.74333 -1.82383 0
M  V30 4314 H 420.834 -2.91875 -4.4801 0
M  V30 4315 H 421.177 -1.28748 -3.95891 0
M  V30 4316 H 421.71 -2.65998 -2.95787 0
M  V30 4317 H 418.449 -5.63111 -3.35538 0
M  V30 4318 H 417.969 -4.19442 -4.28752 0
M  V30 4319 H 419.648 -4.78498 -4.35487 0
M  V30 4320 N 419.78 1.02168 -1.19998 0
M  V30 4321 C 421.008 1.79296 -1.03249 0
M  V30 4322 C 421.423 1.84103 0.418502 0
M  V30 4323 O 420.78 1.29031 1.29063 0
M  V30 4324 C 420.831 3.24007 -1.60319 0
M  V30 4325 O 420.552 3.19512 -2.99739 0
M  V30 4326 C 422.053 4.17704 -1.48453 0
M  V30 4327 H 419.273 0.564016 -0.363493 0
M  V30 4328 H 421.817 1.28639 -1.58973 0
M  V30 4329 H 419.972 3.7183 -1.08727 0
M  V30 4330 H 420.386 4.10306 -3.26725 0
M  V30 4331 H 421.86 5.17104 -1.93153 0
M  V30 4332 H 422.337 4.37029 -0.436193 0
M  V30 4333 H 422.943 3.7576 -1.99211 0
M  V30 4334 N 421.258 1.00505 1.21394 0
M  V30 4335 C 422.188 0.585684 2.26035 0
M  V30 4336 C 423.169 -0.393525 1.65485 0
M  V30 4337 O 424.354 -0.281497 1.92149 0
M  V30 4338 C 421.484 -0.0884283 3.47187 0
M  V30 4339 C 420.438 0.810567 4.20254 0
M  V30 4340 C 419.764 0.00286382 5.347 0
M  V30 4341 C 421.064 2.1132 4.77641 0
M  V30 4342 H 422.758 1.46039 2.61368 0
M  V30 4343 H 420.304 0.703648 1.25638 0
M  V30 4344 H 422.257 -0.393286 4.19561 0
M  V30 4345 H 420.981 -0.997766 3.10986 0
M  V30 4346 H 419.64 1.09925 3.49731 0
M  V30 4347 H 419.288 -0.907765 4.94741 0
M  V30 4348 H 418.988 0.601444 5.84514 0
M  V30 4349 H 420.512 -0.295808 6.09883 0
M  V30 4350 H 421.926 1.87148 5.41893 0
M  V30 4351 H 420.323 2.66164 5.37845 0
M  V30 4352 H 421.393 2.78393 3.9702 0
M  V30 4353 N 422.737 -1.36956 0.779787 0
M  V30 4354 C 423.985 -1.99097 0.347079 0
M  V30 4355 C 424.306 -1.62206 -1.08232 0
M  V30 4356 O 423.576 -0.891373 -1.74446 0
M  V30 4357 H 422.156 -0.736409 0.125342 0
M  V30 4358 H 424.818 -1.67308 0.999696 0
M  V30 4359 H 423.914 -3.09107 0.431162 0
M  V30 4360 N 424.215 -0.530993 -1.48385 0
M  V30 4361 C 425.145 0.219985 -2.32461 0
M  V30 4362 C 426.126 0.934111 -1.42156 0
M  V30 4363 O 427.311 0.919694 -1.71042 0
M  V30 4364 C 424.441 1.26674 -3.23375 0
M  V30 4365 C 423.395 0.67069 -4.22712 0
M  V30 4366 C 422.721 1.82017 -5.02766 0
M  V30 4367 C 424.021 -0.358268 -5.2107 0
M  V30 4368 H 425.715 -0.48187 -2.95497 0
M  V30 4369 H 423.261 -0.233182 -1.42099 0
M  V30 4370 H 425.214 1.80006 -3.81019 0
M  V30 4371 H 423.938 1.99818 -2.58341 0
M  V30 4372 H 422.597 0.158878 -3.66256 0
M  V30 4373 H 422.245 2.54002 -4.34157 0
M  V30 4374 H 421.945 1.42727 -5.70003 0
M  V30 4375 H 423.469 2.35725 -5.63264 0
M  V30 4376 H 424.883 0.0880081 -5.73232 0
M  V30 4377 H 423.28 -0.66861 -5.96364 0
M  V30 4378 H 424.35 -1.26367 -4.68145 0
M  V30 4379 N 425.693 1.55336 -0.266172 0
M  V30 4380 C 427.104 1.85236 0.233315 0
M  V30 4381 C 427.455 1.18816 1.56132 0
M  V30 4382 O 426.58 0.473307 2.11161 0
M  V30 4383 C 427.175 3.36059 0.430113 0
M  V30 4384 C 425.734 3.66116 0.873842 0
M  V30 4385 C 424.881 2.77274 -0.0380016 0
M  V30 4386 H 427.832 1.51004 -0.488214 0
M  V30 4387 H 427.853 3.58681 1.26998 0
M  V30 4388 H 427.365 3.84373 -0.536588 0
M  V30 4389 H 425.466 3.23295 1.85233 0
M  V30 4390 H 425.579 4.73699 0.717358 0
M  V30 4391 H 423.943 2.50198 0.476759 0
M  V30 4392 H 424.726 3.284 -1.00042 0
M  V30 4393 N 427.171 -0.0066808 1.57599 0
M  V30 4394 C 428.418 -0.69292 1.90276 0
M  V30 4395 C 428.746 -1.74148 0.866192 0
M  V30 4396 O 428.001 -1.95268 -0.129933 0
M  V30 4397 C 428.3 -1.37939 3.29708 0
M  V30 4398 C 427.966 -0.464679 4.48499 0
M  V30 4399 C 426.628 -0.212809 4.80729 0
M  V30 4400 C 428.98 0.16551 5.20937 0
M  V30 4401 C 426.308 0.677653 5.82773 0
M  V30 4402 C 428.66 1.04381 6.23929 0
M  V30 4403 C 427.324 1.30492 6.54621 0
M  V30 4404 H 426.594 -0.253558 0.696268 0
M  V30 4405 H 429.241 0.0474123 1.91441 0
M  V30 4406 H 427.546 -2.1936 3.24636 0
M  V30 4407 H 429.243 -1.9163 3.52249 0
M  V30 4408 H 425.833 -0.671153 4.23313 0
M  V30 4409 H 430.017 -0.0160756 4.96297 0
M  V30 4410 H 425.273 0.88803 6.04917 0
M  V30 4411 H 429.447 1.53851 6.79193 0
M  V30 4412 H 427.074 1.99662 7.33512 0
M  V30 4413 N 428.649 -1.55105 -0.279332 0
M  V30 4414 C 429.898 -1.74618 -1.00952 0
M  V30 4415 C 430.211 -0.551096 -1.87676 0
M  V30 4416 O 431.417 -0.628507 -2.64125 0
M  V30 4417 C 429.873 -3.09025 -1.84476 0
M  V30 4418 C 429.481 -4.36081 -1.0265 0
M  V30 4419 C 431.225 -3.37891 -2.56963 0
M  V30 4420 C 429.132 -5.6153 -1.85576 0
M  V30 4421 H 428.062 -0.650868 -0.38064 0
M  V30 4422 H 430.713 -1.81569 -0.265475 0
M  V30 4423 H 429.095 -2.96095 -2.62952 0
M  V30 4424 H 430.269 -4.59909 -0.286354 0
M  V30 4425 H 428.584 -4.14312 -0.416464 0
M  V30 4426 H 431.181 -4.28822 -3.19399 0
M  V30 4427 H 431.524 -2.57737 -3.26921 0
M  V30 4428 H 432.057 -3.5189 -1.85522 0
M  V30 4429 H 428.796 -6.44413 -1.2005 0
M  V30 4430 H 428.316 -5.41854 -2.57204 0
M  V30 4431 H 429.995 -5.99594 -2.43096 0
M  V30 4432 N 430.127 0.543554 -1.4793 0
M  V30 4433 C 431.543 0.870806 -1.3375 0
M  V30 4434 C 431.743 1.9864 -0.338261 0
M  V30 4435 O 430.799 2.51305 0.245371 0
M  V30 4436 C 432.112 1.25114 -2.73435 0
M  V30 4437 C 433.66 1.3618 -2.81823 0
M  V30 4438 C 434.135 1.77563 -4.22179 0
M  V30 4439 N 435.626 1.8469 -4.24787 0
M  V30 4440 C 436.361 2.18067 -5.30315 0
M  V30 4441 N 435.857 2.49963 -6.46135 0
M  V30 4442 N 437.65 2.18958 -5.17701 0
M  V30 4443 H 429.801 -0.19275 -2.11524 0
M  V30 4444 H 432.064 -0.0235777 -0.947707 0
M  V30 4445 H 431.77 0.50514 -3.48053 0
M  V30 4446 H 431.644 2.20431 -3.06088 0
M  V30 4447 H 434.031 2.09859 -2.07468 0
M  V30 4448 H 434.112 0.390169 -2.52807 0
M  V30 4449 H 433.756 1.04449 -4.97044 0
M  V30 4450 H 433.686 2.75753 -4.48629 0
M  V30 4451 H 436.177 1.62372 -3.41239 0
M  V30 4452 H 436.49 2.74497 -7.22406 0
M  V30 4453 H 434.835 2.47513 -6.49432 0
M  V30 4454 H 438.026 1.93488 -4.2624 0
M  V30 4455 H 438.199 2.44639 -6.00047 0
M  V30 4456 N 431.605 1.3629 0.791371 0
M  V30 4457 C 432.833 1.33562 1.58016 0
M  V30 4458 C 433.248 -0.0835616 1.88615 0
M  V30 4459 O 432.605 -1.0399 1.49974 0
M  V30 4460 C 432.656 2.15517 2.90232 0
M  V30 4461 O 432.377 3.51902 2.60953 0
M  V30 4462 C 433.878 2.20546 3.84544 0
M  V30 4463 H 431.098 0.458226 0.490173 0
M  V30 4464 H 433.642 1.79361 0.982345 0
M  V30 4465 H 431.797 1.73278 3.46487 0
M  V30 4466 H 432.211 3.94644 3.4548 0
M  V30 4467 H 433.685 2.82252 4.74382 0
M  V30 4468 H 434.162 1.20838 4.2225 0
M  V30 4469 H 434.768 2.63013 3.34222 0
M  V30 4470 N 433.083 -1.0153 1.20538 0
M  V30 4471 C 434.308 -1.79283 1.04271 0
M  V30 4472 C 434.733 -1.8372 -0.403544 0
M  V30 4473 O 434.091 -1.27321 -1.2907 0
M  V30 4474 C 434.139 -3.21535 1.63241 0
M  V30 4475 O 433.243 -4.03099 0.870908 0
M  V30 4476 H 432.584 -0.55293 0.367647 0
M  V30 4477 H 435.114 -1.27696 1.59859 0
M  V30 4478 H 435.124 -3.72243 1.6703 0
M  V30 4479 H 433.799 -3.1762 2.68497 0
M  V30 4480 H 432.376 -3.61693 0.907323 0
M  V30 4481 N 434.561 -1.01147 -1.20859 0
M  V30 4482 C 435.807 -0.698899 -1.90377 0
M  V30 4483 C 436.14 0.76904 -1.78324 0
M  V30 4484 O 435.415 1.55817 -1.16409 0
M  V30 4485 C 435.698 -1.12878 -3.41951 0
M  V30 4486 C 435.551 -2.65665 -3.62963 0
M  V30 4487 C 436.87 -0.696114 -4.3456 0
M  V30 4488 H 433.989 -0.255372 -0.691342 0
M  V30 4489 H 436.631 -1.25831 -1.42361 0
M  V30 4490 H 434.781 -0.652827 -3.82976 0
M  V30 4491 H 436.453 -3.21074 -3.31224 0
M  V30 4492 H 434.696 -3.06878 -3.06608 0
M  V30 4493 H 435.367 -2.90797 -4.69192 0
M  V30 4494 H 437.843 -1.10521 -4.01154 0
M  V30 4495 H 436.719 -1.025 -5.39245 0
M  V30 4496 H 436.98 0.402465 -4.40264 0
M  V30 4497 N 436.039 1.36541 -0.78704 0
M  V30 4498 C 437.316 1.9355 -0.282424 0
M  V30 4499 C 437.696 1.71919 1.22503 0
M  V30 4500 O 437.044 1.07677 2.01539 0
M  V30 4501 C 437.254 3.4246 -0.672462 0
M  V30 4502 C 438.602 4.19582 -0.650863 0
M  V30 4503 O 439.626 3.50889 -0.612789 0
M  V30 4504 O 438.485 5.42106 -0.691623 0
M  V30 4505 H 435.579 0.824091 -0.0693 0
M  V30 4506 H 438.125 1.45736 -0.869423 0
M  V30 4507 H 436.897 3.51851 -1.71221 0
M  V30 4508 H 436.52 3.97556 -0.0592211 0
M  V30 4509 N 437.518 0.538854 1.48102 0
M  V30 4510 C 438.468 -0.23907 2.26743 0
M  V30 4511 C 439.452 -0.901923 1.33245 0
M  V30 4512 O 440.644 -0.803263 1.57723 0
M  V30 4513 C 437.773 -1.2799 3.18549 0
M  V30 4514 C 436.859 -0.621388 4.19523 0
M  V30 4515 N 437.25 0.298004 5.04921 0
M  V30 4516 C 435.548 -0.877533 4.37282 0
M  V30 4517 C 436.249 0.678757 5.77726 0
M  V30 4518 N 435.225 0.0377881 5.43587 0
M  V30 4519 H 439.027 0.468096 2.90148 0
M  V30 4520 H 436.541 0.357497 1.58416 0
M  V30 4521 H 438.538 -1.851 3.73555 0
M  V30 4522 H 437.198 -1.98835 2.567 0
M  V30 4523 H 438.209 0.671126 5.13533 0
M  V30 4524 H 434.886 -1.57588 3.86616 0
M  V30 4525 H 436.276 1.43316 6.56437 0
M  V30 4526 N 438.996 -1.55193 0.274407 0
M  V30 4527 C 440.244 -1.99187 -0.341902 0
M  V30 4528 C 440.565 -1.16422 -1.56431 0
M  V30 4529 O 439.835 -0.253573 -1.94252 0
M  V30 4530 H 438.415 -0.735721 -0.129317 0
M  V30 4531 H 441.077 -1.91168 0.379578 0
M  V30 4532 H 440.173 -3.05629 -0.632253 0
M  V30 4533 N 440.474 -0.00167713 -1.576 0
M  V30 4534 C 441.702 0.693759 -1.94922 0
M  V30 4535 C 442.117 1.67215 -0.876626 0
M  V30 4536 O 441.474 1.81929 0.144279 0
M  V30 4537 C 441.525 1.42416 -3.32265 0
M  V30 4538 O 441.246 0.485014 -4.35407 0
M  V30 4539 C 442.747 2.21395 -3.84056 0
M  V30 4540 H 439.967 0.193118 -0.642609 0
M  V30 4541 H 442.511 -0.0532952 -2.04431 0
M  V30 4542 H 440.666 2.12284 -3.24059 0
M  V30 4543 H 441.08 1.00053 -5.14868 0
M  V30 4544 H 442.554 2.67996 -4.82578 0
M  V30 4545 H 443.031 3.04142 -3.16851 0
M  V30 4546 H 443.637 1.56542 -3.95443 0
M  V30 4547 N 441.952 1.55251 0.271103 0
M  V30 4548 C 442.915 1.87484 1.31842 0
M  V30 4549 C 443.915 0.749545 1.42262 0
M  V30 4550 O 445.105 1.01771 1.4138 0
M  V30 4551 C 442.237 2.0818 2.69951 0
M  V30 4552 H 443.43 2.81108 1.0449 0
M  V30 4553 H 440.983 1.47771 0.509258 0
M  V30 4554 H 441.718 1.16944 3.02481 0
M  V30 4555 H 441.503 2.90114 2.63774 0
M  V30 4556 H 442.993 2.34385 3.4562 0
M  V30 4557 N 443.43 -0.535701 1.48216 0
M  V30 4558 C 444.36 -1.65014 1.65204 0
M  V30 4559 C 445.341 -1.62554 0.501011 0
M  V30 4560 O 446.526 -1.7984 0.732886 0
M  V30 4561 C 443.656 -3.03616 1.68626 0
M  V30 4562 C 442.61 -3.20932 2.83172 0
M  V30 4563 C 441.936 -4.60537 2.71679 0
M  V30 4564 C 443.236 -3.04249 4.24535 0
M  V30 4565 H 444.93 -1.51053 2.58502 0
M  V30 4566 H 442.476 -0.725262 1.24402 0
M  V30 4567 H 444.429 -3.81446 1.79099 0
M  V30 4568 H 443.153 -3.18587 0.719026 0
M  V30 4569 H 441.812 -2.45517 2.72244 0
M  V30 4570 H 441.46 -4.72336 1.72937 0
M  V30 4571 H 441.16 -4.73069 3.48538 0
M  V30 4572 H 442.684 -5.40475 2.84112 0
M  V30 4573 H 444.098 -3.71877 4.36326 0
M  V30 4574 H 442.495 -3.28278 5.02348 0
M  V30 4575 H 443.565 -2.00739 4.41397 0
M  V30 4576 N 444.908 -1.36708 -0.784132 0
M  V30 4577 C 445.818 -1.3363 -1.92822 0
M  V30 4578 C 446.834 -0.237686 -1.72369 0
M  V30 4579 O 448.01 -0.470962 -1.95816 0
M  V30 4580 C 445.075 -1.13011 -3.27764 0
M  V30 4581 C 444.136 -2.32397 -3.60957 0
M  V30 4582 C 443.369 -2.12752 -4.89461 0
M  V30 4583 O 443.592 -1.10541 -5.59586 0
M  V30 4584 O 442.526 -3.00653 -5.21432 0
M  V30 4585 H 446.352 -2.29964 -1.98369 0
M  V30 4586 H 443.937 -1.1731 -0.925136 0
M  V30 4587 H 445.819 -1.03451 -4.08504 0
M  V30 4588 H 444.494 -0.19743 -3.23097 0
M  V30 4589 H 443.401 -2.47527 -2.80502 0
M  V30 4590 H 444.734 -3.2419 -3.70354 0
M  V30 4591 N 446.386 1.0089 -1.21074 0
M  V30 4592 C 447.316 2.1145 -0.990523 0
M  V30 4593 C 448.297 1.69897 0.0831699 0
M  V30 4594 O 449.482 1.94052 -0.0758853 0
M  V30 4595 C 446.612 3.42914 -0.550177 0
M  V30 4596 C 445.566 3.98244 -1.56799 0
M  V30 4597 C 444.892 5.25568 -0.984013 0
M  V30 4598 C 446.192 4.30752 -2.95381 0
M  V30 4599 H 447.886 2.3013 -1.91521 0
M  V30 4600 H 445.432 1.10592 -0.92225 0
M  V30 4601 H 447.385 4.19653 -0.383305 0
M  V30 4602 H 446.109 3.24014 0.41015 0
M  V30 4603 H 444.768 3.23621 -1.72236 0
M  V30 4604 H 444.416 5.02998 -0.0155216 0
M  V30 4605 H 444.116 5.63551 -1.66384 0
M  V30 4606 H 445.64 6.04955 -0.828378 0
M  V30 4607 H 447.054 4.98349 -2.8341 0
M  V30 4608 H 445.451 4.79869 -3.60341 0
M  V30 4609 H 446.521 3.39192 -3.46521 0
M  V30 4610 N 447.864 1.01787 1.20321 0
M  V30 4611 C 448.827 0.593972 2.2137 0
M  V30 4612 C 449.827 -0.336553 1.57239 0
M  V30 4613 O 451.017 -0.125069 1.7375 0
M  V30 4614 C 448.149 -0.132433 3.40643 0
M  V30 4615 H 449.342 1.48791 2.60387 0
M  V30 4616 H 446.895 0.807803 1.33807 0
M  V30 4617 H 447.63 -1.04123 3.0713 0
M  V30 4618 H 447.415 0.53605 3.88418 0
M  V30 4619 H 448.905 -0.416314 4.1552 0
M  V30 4620 N 449.342 -1.36122 0.79427 0
M  V30 4621 C 450.59 -1.98718 0.368177 0
M  V30 4622 C 450.911 -1.63345 -1.06506 0
M  V30 4623 O 450.181 -0.909825 -1.73491 0
M  V30 4624 H 448.761 -0.735038 0.133146 0
M  V30 4625 H 451.423 -1.66239 1.01739 0
M  V30 4626 H 450.519 -3.08633 0.463923 0
M  V30 4627 N 450.82 -0.546701 -1.47814 0
M  V30 4628 C 452.236 -0.205717 -1.58269 0
M  V30 4629 C 452.436 1.29153 -1.54667 0
M  V30 4630 O 451.492 2.07098 -1.44453 0
M  V30 4631 C 452.805 -0.823065 -2.89216 0
M  V30 4632 C 454.353 -0.793328 -3.02779 0
M  V30 4633 C 454.828 -1.38955 -4.36412 0
M  V30 4634 N 456.319 -1.35227 -4.43021 0
M  V30 4635 C 457.054 -1.78333 -5.44963 0
M  V30 4636 N 456.55 -2.29246 -6.53772 0
M  V30 4637 N 458.343 -1.69467 -5.35945 0
M  V30 4638 H 450.494 -1.5196 -1.48398 0
M  V30 4639 H 452.757 -0.633078 -0.705632 0
M  V30 4640 H 452.463 -1.8749 -2.97558 0
M  V30 4641 H 452.337 -0.309915 -3.75925 0
M  V30 4642 H 454.724 0.249784 -2.94041 0
M  V30 4643 H 454.805 -1.34412 -2.17639 0
M  V30 4644 H 454.449 -2.43168 -4.45906 0
M  V30 4645 H 454.379 -0.814291 -5.20266 0
M  V30 4646 H 456.87 -0.979739 -3.64979 0
M  V30 4647 H 457.183 -2.60089 -7.27718 0
M  V30 4648 H 455.528 -2.3325 -6.5469 0
M  V30 4649 H 458.719 -1.29477 -4.49837 0
M  V30 4650 H 458.892 -2.03381 -6.15256 0
M  V30 4651 N 452.299 1.55045 -0.282633 0
M  V30 4652 C 453.547 1.99365 0.331334 0
M  V30 4653 C 453.868 1.1725 1.55812 0
M  V30 4654 O 453.138 0.263871 1.94115 0
M  V30 4655 H 451.718 0.736397 0.125414 0
M  V30 4656 H 454.38 1.90964 -0.389711 0
M  V30 4657 H 453.476 3.0596 0.616036 0
M  V30 4658 N 453.777 0.010035 1.57597 0
M  V30 4659 C 454.724 -0.978122 2.09049 0
M  V30 4660 C 455.694 -1.33509 0.988159 0
M  V30 4661 O 456.879 -1.43172 1.26121 0
M  V30 4662 C 454.019 -2.26158 2.60666 0
M  V30 4663 C 453.132 -1.96275 3.84838 0
M  V30 4664 C 452.267 -3.18776 4.24918 0
M  V30 4665 C 451.306 -2.84625 5.41899 0
M  V30 4666 N 450.443 -3.99693 5.77226 0
M  V30 4667 H 455.283 -0.532431 2.93205 0
M  V30 4668 H 452.82 -0.251234 1.44939 0
M  V30 4669 H 454.778 -3.01202 2.88675 0
M  V30 4670 H 453.408 -2.68378 1.79369 0
M  V30 4671 H 452.46 -1.11555 3.63675 0
M  V30 4672 H 453.772 -1.67111 4.69974 0
M  V30 4673 H 452.926 -4.02157 4.54262 0
M  V30 4674 H 451.665 -3.51087 3.38511 0
M  V30 4675 H 450.67 -1.99653 5.12268 0
M  V30 4676 H 451.895 -2.53551 6.29991 0
M  V30 4677 H 449.841 -4.31882 4.93776 0
M  V30 4678 H 449.758 -3.74087 6.56959 0
M  V30 4679 H 451.026 -4.83834 6.11167 0
M  V30 4680 N 455.255 -1.55392 -0.262866 0
M  V30 4681 C 456.218 -1.88181 -1.30846 0
M  V30 4682 C 457.218 -0.757079 -1.41862 0
M  V30 4683 O 458.408 -1.02519 -1.40838 0
M  V30 4684 C 455.54 -2.09609 -2.68844 0
M  V30 4685 H 456.733 -2.81659 -1.02997 0
M  V30 4686 H 454.286 -1.48039 -0.501414 0
M  V30 4687 H 455.021 -1.18547 -3.01856 0
M  V30 4688 H 454.806 -2.91508 -2.62231 0
M  V30 4689 H 456.296 -2.36215 -3.44372 0
M  V30 4690 N 456.733 0.527833 -1.48498 0
M  V30 4691 C 458.01 1.28905 -1.47115 0
M  V30 4692 C 458.39 2.10297 -0.184007 0
M  V30 4693 O 457.738 2.12728 0.834218 0
M  V30 4694 C 457.948 2.16866 -2.73441 0
M  V30 4695 C 459.296 2.76936 -3.21857 0
M  V30 4696 O 460.32 2.27152 -2.74373 0
M  V30 4697 O 459.179 3.67496 -4.04486 0
M  V30 4698 H 456.273 0.581918 -0.587623 0
M  V30 4699 H 458.819 0.544311 -1.60734 0
M  V30 4700 H 457.591 1.56521 -3.58632 0
M  V30 4701 H 457.214 2.98583 -2.62553 0
M  V30 4702 N 458.211 1.37122 0.776871 0
M  V30 4703 C 459.457 1.32243 1.53752 0
M  V30 4704 C 459.79 -0.0944745 1.9397 0
M  V30 4705 O 459.065 -1.05068 1.6368 0
M  V30 4706 C 459.348 2.25681 2.80607 0
M  V30 4707 C 459.201 3.76127 2.46676 0
M  V30 4708 C 460.52 2.17657 3.82509 0
M  V30 4709 H 457.639 0.481704 0.557791 0
M  V30 4710 H 460.281 1.6778 0.891612 0
M  V30 4711 H 458.431 1.95505 3.35723 0
M  V30 4712 H 460.103 4.16877 1.97513 0
M  V30 4713 H 458.346 3.94946 1.79443 0
M  V30 4714 H 459.017 4.36933 3.37333 0
M  V30 4715 H 461.493 2.44245 3.36873 0
M  V30 4716 H 460.369 2.85185 4.69 0
M  V30 4717 H 460.63 1.16785 4.26396 0
M  V30 4718 N 459.689 -1.00246 1.21608 0
M  V30 4719 C 460.937 -1.73717 1.0328 0
M  V30 4720 C 461.258 -1.90102 -0.434318 0
M  V30 4721 O 460.528 -1.45376 -1.31311 0
M  V30 4722 H 459.108 -0.643613 0.379172 0
M  V30 4723 H 461.77 -1.20787 1.52959 0
M  V30 4724 H 460.866 -2.73535 1.50283 0
M  V30 4725 N 461.167 -1.02423 -1.1978 0
M  V30 4726 C 462.392 -0.7373 -1.93852 0
M  V30 4727 C 462.817 0.696923 -1.74713 0
M  V30 4728 O 462.175 1.48056 -1.04638 0
M  V30 4729 C 462.223 -1.08783 -3.438 0
M  V30 4730 O 461.327 -0.20383 -4.11896 0
M  V30 4731 H 460.668 -0.27284 -0.605355 0
M  V30 4732 H 463.198 -1.36966 -1.51992 0
M  V30 4733 H 463.208 -1.04276 -3.9445 0
M  V30 4734 H 461.883 -2.13274 -3.57053 0
M  V30 4735 H 460.46 -0.307091 -3.71633 0
M  V30 4736 N 462.645 1.35699 -0.801477 0
M  V30 4737 C 463.892 1.98913 -0.379459 0
M  V30 4738 C 464.22 1.63592 1.05204 0
M  V30 4739 O 463.475 0.888563 1.74365 0
M  V30 4740 C 463.774 3.53828 -0.504041 0
M  V30 4741 C 463.44 4.09002 -1.8981 0
M  V30 4742 C 462.102 4.23783 -2.27951 0
M  V30 4743 C 464.454 4.38939 -2.81038 0
M  V30 4744 C 461.782 4.65816 -3.56696 0
M  V30 4745 C 464.134 4.82409 -4.09224 0
M  V30 4746 C 462.798 4.95395 -4.4737 0
M  V30 4747 H 462.068 0.727874 -0.138854 0
M  V30 4748 H 464.715 1.61994 -1.02128 0
M  V30 4749 H 463.02 3.91175 0.221242 0
M  V30 4750 H 464.717 4.00687 -0.158361 0
M  V30 4751 H 461.307 3.97946 -1.59176 0
M  V30 4752 H 465.491 4.27077 -2.52821 0
M  V30 4753 H 460.747 4.74059 -3.86106 0
M  V30 4754 H 464.921 5.04535 -4.80018 0
M  V30 4755 H 462.548 5.27724 -5.47185 0
M  V30 4756 N 464.123 0.554532 1.47522 0
M  V30 4757 C 465.372 0.0273458 2.01681 0
M  V30 4758 C 465.685 -1.32962 1.43459 0
M  V30 4759 O 466.891 -1.94657 1.89265 0
M  V30 4760 C 465.347 -0.00159057 3.599 0
M  V30 4761 C 464.955 1.35197 4.27113 0
M  V30 4762 C 466.699 -0.476311 4.21819 0
M  V30 4763 C 464.606 1.28229 5.77331 0
M  V30 4764 H 463.536 0.00645269 0.753972 0
M  V30 4765 H 466.187 0.701985 1.69542 0
M  V30 4766 H 464.569 -0.741821 3.8899 0
M  V30 4767 H 465.743 2.1097 4.09668 0
M  V30 4768 H 464.058 1.76441 3.77171 0
M  V30 4769 H 466.655 -0.5468 5.31897 0
M  V30 4770 H 466.998 -1.4877 3.8881 0
M  V30 4771 H 467.531 0.20898 3.97251 0
M  V30 4772 H 464.27 2.26959 6.14955 0
M  V30 4773 H 463.79 0.566314 5.97121 0
M  V30 4774 H 465.469 0.983226 6.39485 0
M  V30 4775 N 465.601 -1.54893 0.290851 0
M  V30 4776 C 466.829 -2.04343 -0.324288 0
M  V30 4777 C 467.244 -1.16859 -1.48289 0
M  V30 4778 O 466.601 -0.192018 -1.81487 0
M  V30 4779 C 466.652 -3.52756 -0.79026 0
M  V30 4780 O 466.373 -4.36913 0.322213 0
M  V30 4781 C 467.874 -4.18161 -1.4716 0
M  V30 4782 H 465.094 -0.667135 -0.0719173 0
M  V30 4783 H 467.638 -1.99981 0.427529 0
M  V30 4784 H 465.793 -3.57511 -1.49213 0
M  V30 4785 H 466.207 -5.24486 -0.0387372 0
M  V30 4786 H 467.681 -5.23562 -1.7489 0
M  V30 4787 H 468.158 -3.67282 -2.40834 0
M  V30 4788 H 468.764 -4.17454 -0.813178 0
M  V30 4789 N 467.08 -0.0183926 -1.57589 0
M  V30 4790 C 468.043 0.951986 -2.08494 0
M  V30 4791 C 469.043 1.26092 -0.997874 0
M  V30 4792 O 470.233 1.20304 -1.25987 0
M  V30 4793 C 467.365 2.27165 -2.54182 0
M  V30 4794 H 468.558 0.511307 -2.95509 0
M  V30 4795 H 466.111 0.229444 -1.54607 0
M  V30 4796 H 466.846 2.75884 -1.70465 0
M  V30 4797 H 466.631 2.06057 -3.33591 0
M  V30 4798 H 468.121 2.9674 -2.93828 0
M  V30 4799 N 468.558 1.5553 0.254621 0
M  V30 4800 C 469.488 1.9268 1.31897 0
M  V30 4801 C 470.469 0.790797 1.506 0
M  V30 4802 O 471.654 1.05045 1.63337 0
M  V30 4803 C 468.784 2.21477 2.67517 0
M  V30 4804 C 467.738 3.37256 2.63519 0
M  V30 4805 C 467.064 3.51576 4.02862 0
M  V30 4806 C 468.364 4.73157 2.21179 0
M  V30 4807 H 470.058 2.81832 1.01051 0
M  V30 4808 H 467.604 1.35599 0.484662 0
M  V30 4809 H 469.557 2.46055 3.42104 0
M  V30 4810 H 468.281 1.29144 2.99982 0
M  V30 4811 H 466.94 3.12675 1.9139 0
M  V30 4812 H 466.588 2.56676 4.32581 0
M  V30 4813 H 466.288 4.2943 4.01078 0
M  V30 4814 H 467.812 3.78467 4.79161 0
M  V30 4815 H 469.226 4.97158 2.85494 0
M  V30 4816 H 467.623 5.54058 2.30521 0
M  V30 4817 H 468.693 4.70739 1.16332 0
M  V30 4818 N 470.036 -0.519951 1.48776 0
M  V30 4819 C 470.984 -1.64443 1.64503 0
M  V30 4820 C 471.978 -1.61501 0.511248 0
M  V30 4821 O 473.184 -1.66238 0.690294 0
M  V30 4822 H 469.559 -0.544776 0.518385 0
M  V30 4823 H 471.53 -1.48325 2.58925 0
M  V30 4824 C 470.279 -3.02673 1.71127 0
M  V30 4825 H 469.602 -3.05635 2.57735 0
M  V30 4826 H 471.042 -3.80941 1.86172 0
M  V30 4827 C 469.501 -3.33854 0.452032 0
M  V30 4828 O 470.031 -3.99385 -0.430678 0
M  V30 4829 N 468.237 -2.88825 0.32069 0
M  V30 4830 H 467.784 -2.35674 1.03998 0
M  V30 4831 H 467.742 -3.10056 -0.520814 0
M  V30 4832 N 471.514 -1.37532 -0.769588 0
M  V30 4833 C 472.444 -1.36172 -1.89682 0
M  V30 4834 C 473.425 -0.23001 -1.68538 0
M  V30 4835 O 474.61 -0.43069 -1.89364 0
M  V30 4836 C 471.74 -1.1701 -3.26995 0
M  V30 4837 C 470.694 -2.27216 -3.62708 0
M  V30 4838 C 470.02 -1.93174 -4.98586 0
M  V30 4839 C 471.32 -3.6941 -3.69234 0
M  V30 4840 H 473.014 -2.30499 -1.91078 0
M  V30 4841 H 470.56 -1.10953 -0.917902 0
M  V30 4842 H 472.513 -1.14688 -4.05493 0
M  V30 4843 H 471.237 -0.191395 -3.26039 0
M  V30 4844 H 469.896 -2.28697 -2.86519 0
M  V30 4845 H 469.544 -0.938281 -4.94171 0
M  V30 4846 H 469.244 -2.66973 -5.23449 0
M  V30 4847 H 470.768 -1.92443 -5.79481 0
M  V30 4848 H 472.182 -3.70047 -4.37879 0
M  V30 4849 H 470.579 -4.4228 -4.05597 0
M  V30 4850 H 471.649 -4.0288 -2.69844 0
M  V30 4851 N 472.992 0.995999 -1.22138 0
M  V30 4852 C 473.955 2.06711 -0.990109 0
M  V30 4853 C 474.955 1.60744 0.0422978 0
M  V30 4854 O 476.145 1.73095 -0.195895 0
M  V30 4855 C 473.277 3.37288 -0.49491 0
M  V30 4856 H 474.47 2.28661 -1.94047 0
M  V30 4857 H 472.023 1.16711 -1.03963 0
M  V30 4858 H 472.758 3.21022 0.459948 0
M  V30 4859 H 472.543 3.71986 -1.23971 0
M  V30 4860 H 474.033 4.16103 -0.353253 0
M  V30 4861 N 474.47 1.03057 1.19235 0
M  V30 4862 C 475.719 0.72326 1.88287 0
M  V30 4863 C 476.032 -0.751333 1.80594 0
M  V30 4864 O 477.238 -1.17176 2.44912 0
M  V30 4865 C 475.694 1.24338 3.3774 0
M  V30 4866 C 475.302 2.74587 3.53986 0
M  V30 4867 C 477.046 1.01213 4.12257 0
M  V30 4868 C 474.953 3.20009 4.97341 0
M  V30 4869 H 473.883 0.266848 0.705201 0
M  V30 4870 H 476.534 1.24509 1.34795 0
M  V30 4871 H 474.916 0.649457 3.90638 0
M  V30 4872 H 476.09 3.39649 3.11408 0
M  V30 4873 H 474.405 2.9601 2.9286 0
M  V30 4874 H 477.002 1.32675 5.17978 0
M  V30 4875 H 477.345 -0.051001 4.16269 0
M  V30 4876 H 477.878 1.57014 3.65501 0
M  V30 4877 H 474.617 4.25659 4.98493 0
M  V30 4878 H 474.137 2.59676 5.40674 0
M  V30 4879 H 475.816 3.13447 5.66003 0
M  V30 4880 N 475.948 -1.35272 0.808662 0
M  V30 4881 C 476.895 -2.29764 0.218482 0
M  V30 4882 C 477.865 -1.52911 -0.648652 0
M  V30 4883 O 479.05 -1.81341 -0.593297 0
M  V30 4884 C 476.19 -3.39388 -0.625282 0
M  V30 4885 C 475.303 -4.31202 0.262516 0
M  V30 4886 C 474.438 -5.27919 -0.589451 0
M  V30 4887 C 473.477 -6.11371 0.298617 0
M  V30 4888 N 472.614 -7.0022 -0.513443 0
M  V30 4889 H 477.454 -2.79645 1.02968 0
M  V30 4890 H 474.991 -1.37629 0.519303 0
M  V30 4891 H 476.949 -4.01615 -1.12966 0
M  V30 4892 H 475.579 -2.90777 -1.40173 0
M  V30 4893 H 474.631 -3.69962 0.885013 0
M  V30 4894 H 475.943 -4.89748 0.945971 0
M  V30 4895 H 475.097 -5.95529 -1.15888 0
M  V30 4896 H 473.836 -4.69875 -1.30647 0
M  V30 4897 H 472.841 -5.42707 0.880301 0
M  V30 4898 H 474.066 -6.71494 1.01352 0
M  V30 4899 H 472.012 -6.44662 -1.21439 0
M  V30 4900 H 471.929 -7.55917 0.111922 0
M  V30 4901 H 473.197 -7.72175 -1.06608 0
M  V30 4902 N 477.426 -0.562348 -1.47226 0
M  V30 4903 C 478.359 0.230405 -2.27034 0
M  V30 4904 C 479.337 0.915609 -1.3437 0
M  V30 4905 O 480.521 0.933573 -1.63758 0
M  V30 4906 C 477.648 1.32874 -3.11548 0
M  V30 4907 C 476.694 0.751552 -4.19826 0
M  V30 4908 S 477.527 -0.405848 -5.3396 0
M  V30 4909 C 478.683 0.694186 -6.22038 0
M  V30 4910 H 478.916 -0.446811 -2.93923 0
M  V30 4911 H 476.449 -0.348781 -1.50409 0
M  V30 4912 H 478.407 1.95773 -3.60809 0
M  V30 4913 H 477.068 1.97782 -2.44011 0
M  V30 4914 H 476.261 1.57651 -4.78709 0
M  V30 4915 H 475.863 0.198645 -3.73472 0
M  V30 4916 H 478.155 1.58501 -6.58698 0
M  V30 4917 H 479.098 0.142592 -7.07956 0
M  V30 4918 H 479.506 0.989169 -5.55766 0
M  V30 4919 N 478.904 1.54736 -0.299062 0
M  V30 4920 C 480.153 1.99279 0.311549 0
M  V30 4921 C 480.466 1.19107 1.55154 0
M  V30 4922 O 481.672 1.53908 2.23662 0
M  V30 4923 C 480.128 3.54768 0.605632 0
M  V30 4924 C 479.736 4.43746 -0.615914 0
M  V30 4925 C 481.48 4.07841 1.17754 0
M  V30 4926 C 479.387 5.90663 -0.29509 0
M  V30 4927 H 478.317 0.744359 0.120187 0
M  V30 4928 H 480.968 1.78919 -0.407464 0
M  V30 4929 H 479.35 3.71021 1.38419 0
M  V30 4930 H 480.524 4.39267 -1.39218 0
M  V30 4931 H 478.839 4.01434 -1.10633 0
M  V30 4932 H 481.436 5.15174 1.43179 0
M  V30 4933 H 481.779 3.58324 2.11918 0
M  V30 4934 H 482.312 3.95123 0.460739 0
M  V30 4935 H 479.051 6.44325 -1.20524 0
M  V30 4936 H 478.571 5.98155 0.44394 0
M  V30 4937 H 480.25 6.46916 0.104048 0
M  V30 4938 N 480.382 0.0267497 1.57577 0
M  V30 4939 C 481.628 -0.653371 1.91987 0
M  V30 4940 C 481.961 -1.71915 0.903263 0
M  V30 4941 O 481.236 -1.94358 -0.0743387 0
M  V30 4942 C 481.519 -1.272 3.36886 0
M  V30 4943 C 481.372 -0.215938 4.49281 0
M  V30 4944 C 482.691 -2.19069 3.81703 0
M  V30 4945 H 479.81 -0.236047 0.698177 0
M  V30 4946 H 482.452 0.0835236 1.89816 0
M  V30 4947 H 480.602 -1.90005 3.38866 0
M  V30 4948 H 482.274 0.41449 4.59434 0
M  V30 4949 H 480.517 0.458855 4.31366 0
M  V30 4950 H 481.188 -0.688347 5.47691 0
M  V30 4951 H 483.664 -1.66253 3.81444 0
M  V30 4952 H 482.54 -2.59307 4.83788 0
M  V30 4953 H 482.801 -3.08087 3.17072 0
M  V30 4954 N 481.861 -1.55662 -0.24637 0
M  V30 4955 C 482.809 -1.91186 -1.3248 0
M  V30 4956 C 483.803 -0.790996 -1.49799 0
M  V30 4957 O 485.009 -0.975617 -1.51267 0
M  V30 4958 H 481.384 -0.607207 -0.443626 0
M  V30 4959 H 483.355 -2.81221 -0.997853 0
M  V30 4960 C 482.104 -2.22349 -2.67313 0
M  V30 4961 H 481.427 -3.08097 -2.54786 0
M  V30 4962 H 482.867 -2.51107 -3.41645 0
M  V30 4963 C 481.326 -1.04001 -3.20446 0
M  V30 4964 O 481.856 -0.28828 -4.00664 0
M  V30 4965 N 480.062 -0.830494 -2.7848 0
M  V30 4966 H 479.609 -1.4435 -2.13356 0
M  V30 4967 H 479.567 -0.0403258 -3.14374 0
M  V30 4968 N 483.339 0.512053 -1.4905 0
M  V30 4969 C 484.567 1.29116 -1.61669 0
M  V30 4970 C 484.982 1.86655 -0.283787 0
M  V30 4971 O 484.339 1.67293 0.729331 0
M  V30 4972 C 484.39 2.4293 -2.67707 0
M  V30 4973 O 484.111 1.87758 -3.95826 0
M  V30 4974 C 485.612 3.34476 -2.90931 0
M  V30 4975 H 482.832 0.392009 -0.544583 0
M  V30 4976 H 485.376 0.615881 -1.95006 0
M  V30 4977 H 483.531 3.06308 -2.37179 0
M  V30 4978 H 483.945 2.62393 -4.54148 0
M  V30 4979 H 485.419 4.10642 -3.68886 0
M  V30 4980 H 485.896 3.90801 -2.00427 0
M  V30 4981 H 486.502 2.76874 -3.22832 0
M  V30 4982 N 484.817 1.37938 0.762283 0
M  V30 4983 C 485.749 1.30349 1.88525 0
M  V30 4984 C 486.762 0.217402 1.61342 0
M  V30 4985 O 487.951 0.474291 1.72084 0
M  V30 4986 C 485.051 0.994844 3.23969 0
M  V30 4987 C 484.224 2.18829 3.78725 0
M  V30 4988 C 483.283 1.84844 4.92665 0
M  V30 4989 O 482.309 2.57244 5.07754 0
M  V30 4990 N 483.511 0.798201 5.74986 0
M  V30 4991 H 486.276 2.27114 1.95549 0
M  V30 4992 H 483.837 1.31686 0.941825 0
M  V30 4993 H 485.829 0.748168 3.97724 0
M  V30 4994 H 484.399 0.115446 3.12387 0
M  V30 4995 H 483.619 2.59615 2.96637 0
M  V30 4996 H 484.907 2.98497 4.1204 0
M  V30 4997 H 484.305 0.197611 5.65355 0
M  V30 4998 H 482.862 0.611396 6.48926 0
M  V30 4999 O 486.334 -0.902626 1.33921 0
M  V30 5000 H 487.025 -1.53762 1.178 0
M  V30 END ATOM
M  V30 BEGIN BOND
M  V30 END BOND
M  V30 END CTAB
M  END
$$$$
