drugbank_target|Q57366 Dimethyl sulfoxide/trimethylamine N-oxide reductase (DB02153; DB02379)
 OpenBabel12092119553D

  0  0  0     0  0            999 V3000
M  V30 BEGIN CTAB
M  V30 COUNTS 12340 12498 0 0 0
M  V30 BEGIN ATOM
M  V30 1 H -0.908 1.98254 -0.117106 0
M  V30 2 N 0 1.576 0 0
M  V30 3 C 0.933 2.03868 1.02534 0
M  V30 4 C 1.911 0.928543 1.3348 0
M  V30 5 O 3.095 1.19667 1.45644 0
M  V30 6 C 0.222 2.43627 2.35294 0
M  V30 7 C -0.732 3.65373 2.2001 0
M  V30 8 S 0.101 5.13292 1.52614 0
M  V30 9 C 1.257 5.56322 2.86805 0
M  V30 10 H 1.49 2.90518 0.631377 0
M  V30 11 H -0.977 1.52953 0.210867 0
M  V30 12 H 0.981 2.67203 3.11629 0
M  V30 13 H -0.358 1.57376 2.7183 0
M  V30 14 H -1.165 3.90944 3.18086 0
M  V30 15 H -1.563 3.418 1.51819 0
M  V30 16 H 0.729 5.58782 3.83104 0
M  V30 17 H 1.672 6.56266 2.65933 0
M  V30 18 H 2.08 4.83886 2.90714 0
M  V30 19 N 1.4781 -0.272755 1.55222 0
M  V30 20 C 2.7061 -1.02255 1.79865 0
M  V30 21 C 3.1211 -1.79924 0.572088 0
M  V30 22 O 2.4781 -1.76638 -0.458842 0
M  V30 23 C 2.5291 -1.98094 3.02392 0
M  V30 24 O 2.2501 -1.23572 4.20311 0
M  V30 25 C 3.7511 -2.84884 3.39641 0
M  V30 26 H 0.9711 -0.302057 0.599168 0
M  V30 27 H 3.5151 -0.303465 2.02236 0
M  V30 28 H 1.6701 -2.65465 2.82147 0
M  V30 29 H 2.0841 -1.88172 4.89583 0
M  V30 30 H 3.5581 -3.47927 4.28545 0
M  V30 31 H 4.0351 -3.54665 2.59055 0
M  V30 32 H 4.6411 -2.23003 3.62146 0
M  V30 33 N 2.9562 -1.48159 -0.537278 0
M  V30 34 C 3.9032 -1.62138 -1.64256 0
M  V30 35 C 4.8732 -0.463668 -1.59497 0
M  V30 36 O 6.0582 -0.686241 -1.78032 0
M  V30 37 C 3.1982 -1.66028 -3.02537 0
M  V30 38 C 2.3112 -2.92855 -3.17585 0
M  V30 39 C 1.4462 -2.87952 -4.46382 0
M  V30 40 C 0.4852 -4.09516 -4.54932 0
M  V30 41 N -0.3778 -4.02733 -5.75109 0
M  V30 42 H 4.4622 -2.56529 -1.51647 0
M  V30 43 H 1.9992 -1.27224 -0.738414 0
M  V30 44 H 3.9572 -1.66265 -3.82638 0
M  V30 45 H 2.5872 -0.751331 -3.13934 0
M  V30 46 H 1.6392 -3.02395 -2.30784 0
M  V30 47 H 2.9512 -3.82822 -3.19764 0
M  V30 48 H 2.1052 -2.8655 -5.34765 0
M  V30 49 H 0.8442 -1.95702 -4.46712 0
M  V30 50 H -0.1508 -4.11201 -3.64957 0
M  V30 51 H 1.0742 -5.02917 -4.56346 0
M  V30 52 H -0.9798 -3.13299 -5.76351 0
M  V30 53 H -1.0628 -4.86397 -5.78752 0
M  V30 54 H 0.2052 -4.05379 -6.65799 0
M  V30 55 N 4.4343 0.785586 -1.36625 0
M  V30 56 C 5.3643 1.91259 -1.33949 0
M  V30 57 C 6.3453 1.68795 -0.210325 0
M  V30 58 O 7.5303 1.89854 -0.408561 0
M  V30 59 C 4.6603 3.28339 -1.13186 0
M  V30 60 C 3.6143 3.65335 -2.22967 0
M  V30 61 C 2.9403 5.00806 -1.87342 0
M  V30 62 C 4.2403 3.7352 -3.65075 0
M  V30 63 H 5.9343 1.93755 -2.28253 0
M  V30 64 H 3.4803 0.930788 -1.09874 0
M  V30 65 H 5.4333 4.06804 -1.09948 0
M  V30 66 H 4.1573 3.2624 -0.153332 0
M  V30 67 H 2.8163 2.89169 -2.25337 0
M  V30 68 H 2.4643 4.95233 -0.880545 0
M  V30 69 H 2.1643 5.26529 -2.60846 0
M  V30 70 H 3.6883 5.81687 -1.85667 0
M  V30 71 H 5.1023 4.42168 -3.64911 0
M  V30 72 H 3.4993 4.10731 -4.37516 0
M  V30 73 H 4.5693 2.74527 -3.99703 0
M  V30 74 N 5.9124 1.20967 1.01018 0
M  V30 75 C 7.1374 1.0503 1.78839 0
M  V30 76 C 7.5624 -0.395752 1.8389 0
M  V30 77 O 6.9204 -1.28529 1.27867 0
M  V30 78 C 6.9684 1.64602 3.2084 0
M  V30 79 O 6.0724 0.887988 4.02726 0
M  V30 80 H 5.4134 0.369987 0.551367 0
M  V30 81 H 7.9434 1.60399 1.27018 0
M  V30 82 H 7.9534 1.68607 3.71532 0
M  V30 83 H 6.6284 2.69841 3.16479 0
M  V30 84 H 5.2054 0.922648 3.61305 0
M  V30 85 N 7.3905 -1.2043 1.01659 0
M  V30 86 C 8.6385 -1.89423 0.704522 0
M  V30 87 C 8.9595 -1.79231 -0.768197 0
M  V30 88 O 8.2295 -1.1947 -1.55254 0
M  V30 89 H 6.8095 -0.701178 0.257602 0
M  V30 90 H 9.4715 -1.4626 1.28818 0
M  V30 91 H 8.5675 -2.96052 0.987916 0
M  V30 92 N 8.8686 -0.792821 -1.36206 0
M  V30 93 C 9.8006 -0.151469 -2.28699 0
M  V30 94 C 10.8136 0.641262 -1.49638 0
M  V30 95 O 12.0026 0.475885 -1.72039 0
M  V30 96 C 9.1026 0.808424 -3.29117 0
M  V30 97 C 8.2756 0.0650202 -4.37352 0
M  V30 98 C 7.3346 0.941358 -5.17711 0
M  V30 99 O 6.3606 0.397352 -5.67811 0
M  V30 100 N 7.5626 2.2652 -5.3448 0
M  V30 101 H 10.3276 -0.945982 -2.84379 0
M  V30 102 H 7.8886 -0.647032 -1.48409 0
M  V30 103 H 9.8806 1.3986 -3.79765 0
M  V30 104 H 8.4506 1.5038 -2.74052 0
M  V30 105 H 7.6706 -0.706255 -3.87822 0
M  V30 106 H 8.9586 -0.447847 -5.06825 0
M  V30 107 H 8.3566 2.73128 -4.95396 0
M  V30 108 H 6.9136 2.80493 -5.88359 0
M  V30 109 N 10.3467 1.47872 -0.545128 0
M  V30 110 C 11.2567 2.33633 0.212746 0
M  V30 111 C 12.2727 1.4744 0.923983 0
M  V30 112 O 13.4487 1.80393 0.895572 0
M  V30 113 C 10.5137 3.23884 1.23693 0
M  V30 114 C 9.5747 4.25961 0.534417 0
M  V30 115 C 8.8077 5.11899 1.5098 0
M  V30 116 O 9.0307 5.00077 2.7437 0
M  V30 117 O 7.9647 5.92831 1.0409 0
M  V30 118 H 11.7907 2.99714 -0.490416 0
M  V30 119 H 9.3757 1.46235 -0.305871 0
M  V30 120 H 11.2577 3.79666 1.82843 0
M  V30 121 H 9.9327 2.60446 1.92222 0
M  V30 122 H 8.8397 3.73972 -0.0979679 0
M  V30 123 H 10.1727 4.92079 -0.109213 0
M  V30 124 N 11.8248 0.280983 1.55075 0
M  V30 125 C 12.7548 -0.597469 2.25727 0
M  V30 126 C 13.7358 -1.15417 1.24952 0
M  V30 127 O 14.9208 -1.18722 1.53684 0
M  V30 128 C 12.0508 -1.7789 2.98283 0
M  V30 129 C 11.0048 -1.35347 4.06036 0
M  V30 130 C 10.3308 -2.61846 4.66198 0
M  V30 131 C 11.6308 -0.499354 5.19907 0
M  V30 132 H 13.3248 -0.00824265 2.99399 0
M  V30 133 H 10.8708 -0.0025244 1.44 0
M  V30 134 H 12.8238 -2.39937 3.46422 0
M  V30 135 H 11.5478 -2.39405 2.22155 0
M  V30 136 H 10.2068 -0.756156 3.58717 0
M  V30 137 H 9.8548 -3.21632 3.86732 0
M  V30 138 H 9.5548 -2.3409 5.38958 0
M  V30 139 H 11.0788 -3.24732 5.1709 0
M  V30 140 H 12.4928 -1.02498 5.64063 0
M  V30 141 H 10.8898 -0.316424 5.99265 0
M  V30 142 H 11.9598 0.480459 4.82514 0
M  V30 143 N 13.3029 -1.57598 0.00835791 0
M  V30 144 C 14.2529 -2.05431 -0.989045 0
M  V30 145 C 15.2369 -0.950662 -1.29812 0
M  V30 146 O 16.4289 -1.21438 -1.28771 0
M  V30 147 C 13.5579 -2.56801 -2.27833 0
M  V30 148 C 12.6439 -3.74058 -1.99853 0
M  V30 149 N 13.0349 -4.8544 -1.42062 0
M  V30 150 C 11.3329 -3.82148 -2.29953 0
M  V30 151 C 12.0339 -5.66817 -1.30743 0
M  V30 152 N 11.0099 -5.13077 -1.7959 0
M  V30 153 H 14.8119 -2.88955 -0.536853 0
M  V30 154 H 12.3259 -1.61199 -0.197148 0
M  V30 155 H 14.3229 -2.89349 -3.00137 0
M  V30 156 H 12.9829 -1.74699 -2.73698 0
M  V30 157 H 13.9939 -5.0612 -1.09833 0
M  V30 158 H 10.6709 -3.10916 -2.78635 0
M  V30 159 H 12.0609 -6.66343 -0.862328 0
M  V30 160 N 14.781 0.264519 -1.55364 0
M  V30 161 C 15.744 1.31046 -1.88042 0
M  V30 162 C 16.744 1.41943 -0.755569 0
M  V30 163 O 17.934 1.40947 -1.02369 0
M  V30 164 C 15.066 2.69067 -2.09323 0
M  V30 165 H 16.259 1.03297 -2.81549 0
M  V30 166 H 13.812 0.502989 -1.47986 0
M  V30 167 H 14.547 3.01982 -1.18226 0
M  V30 168 H 14.332 2.62542 -2.91229 0
M  V30 169 H 15.822 3.44623 -2.35848 0
M  V30 170 N 16.2591 1.48442 0.529413 0
M  V30 171 C 17.1691 1.6569 1.66084 0
M  V30 172 C 18.1851 0.539432 1.65427 0
M  V30 173 O 19.3611 0.810572 1.84368 0
M  V30 174 C 16.4261 1.69315 3.02545 0
M  V30 175 C 15.4871 2.92694 3.14052 0
M  V30 176 C 14.7201 2.96137 4.44003 0
M  V30 177 O 14.9431 2.07973 5.31134 0
M  V30 178 O 13.8771 3.88312 4.59888 0
M  V30 179 H 17.7031 2.61483 1.54469 0
M  V30 180 H 15.2881 1.3185 0.702567 0
M  V30 181 H 17.1701 1.74217 3.83701 0
M  V30 182 H 15.8451 0.766966 3.14483 0
M  V30 183 H 14.7521 2.93324 2.32189 0
M  V30 184 H 16.0851 3.84699 3.0703 0
M  V30 185 N 17.7372 -0.778329 1.37039 0
M  V30 186 C 18.6672 -1.90546 1.34962 0
M  V30 187 C 19.6482 -1.68681 0.219274 0
M  V30 188 O 20.8332 -1.89634 0.418624 0
M  V30 189 C 17.9632 -3.27734 1.14925 0
M  V30 190 C 16.9172 -3.64147 2.24902 0
M  V30 191 C 16.2432 -4.99806 1.89996 0
M  V30 192 C 17.5432 -3.71579 3.67051 0
M  V30 193 H 19.2372 -1.92541 2.29277 0
M  V30 194 H 16.7832 -0.924948 1.10366 0
M  V30 195 H 18.7362 -4.06215 1.12104 0
M  V30 196 H 17.4602 -3.26154 0.170631 0
M  V30 197 H 16.1192 -2.8797 2.26868 0
M  V30 198 H 15.7672 -4.94759 0.906796 0
M  V30 199 H 15.4672 -5.25139 2.63634 0
M  V30 200 H 16.9912 -5.80694 1.88749 0
M  V30 201 H 18.4052 -4.40227 3.67251 0
M  V30 202 H 16.8022 -4.08405 4.39688 0
M  V30 203 H 17.8722 -2.72404 4.01154 0
M  V30 204 N 19.2153 -1.21501 -1.00376 0
M  V30 205 C 20.4403 -1.05977 -1.78279 0
M  V30 206 C 20.8653 0.385994 -1.84097 0
M  V30 207 O 20.2233 1.27849 -1.28547 0
M  V30 208 C 20.2713 -1.66302 -3.19963 0
M  V30 209 O 19.3753 -0.909333 -4.0225 0
M  V30 210 H 18.7163 -0.372906 -0.549397 0
M  V30 211 H 21.2463 -1.6107 -1.26165 0
M  V30 212 H 21.2563 -1.70574 -3.70632 0
M  V30 213 H 19.9313 -2.71515 -3.15043 0
M  V30 214 H 18.5083 -0.941795 -3.60811 0
M  V30 215 N 20.6934 1.19889 -1.02296 0
M  V30 216 C 22.1094 1.41462 -0.738954 0
M  V30 217 C 22.3094 1.89721 0.678846 0
M  V30 218 O 21.3654 2.07016 1.4457 0
M  V30 219 C 22.6784 2.43083 -1.77005 0
M  V30 220 C 24.2264 2.5684 -1.78892 0
M  V30 221 C 24.7014 3.61709 -2.80945 0
M  V30 222 N 26.1924 3.69199 -2.79725 0
M  V30 223 C 26.9274 4.50019 -3.55345 0
M  V30 224 N 26.4234 5.34592 -4.40662 0
M  V30 225 N 28.2164 4.44612 -3.43914 0
M  V30 226 H 20.3674 0.868827 -1.93817 0
M  V30 227 H 22.6304 0.44399 -0.837602 0
M  V30 228 H 22.3364 2.14636 -2.78612 0
M  V30 229 H 22.2104 3.4217 -1.58744 0
M  V30 230 H 24.5974 2.84614 -0.779674 0
M  V30 231 H 24.6784 1.57927 -2.01228 0
M  V30 232 H 24.3224 3.34678 -3.82038 0
M  V30 233 H 24.2524 4.60259 -2.5587 0
M  V30 234 H 26.7434 3.08794 -2.17842 0
M  V30 235 H 27.0564 5.93363 -4.95116 0
M  V30 236 H 25.4014 5.34073 -4.44737 0
M  V30 237 H 28.5924 3.7758 -2.76679 0
M  V30 238 H 28.7654 5.0736 -4.031 0
M  V30 239 N 22.1715 0.800033 1.35784 0
M  V30 240 C 23.5875 0.482977 1.52117 0
M  V30 241 C 23.7875 -0.996948 1.75109 0
M  V30 242 O 22.8435 -1.78216 1.78872 0
M  V30 243 C 24.1565 1.32264 2.70049 0
M  V30 244 C 25.7045 1.31742 2.83924 0
M  V30 245 C 26.1795 2.14106 4.04874 0
M  V30 246 N 27.6705 2.11607 4.12039 0
M  V30 247 C 28.4055 2.72099 5.04727 0
M  V30 248 N 27.9015 3.41492 6.02789 0
M  V30 249 N 29.6945 2.61776 4.97423 0
M  V30 250 H 21.8455 1.75856 1.19115 0
M  V30 251 H 24.1085 0.748122 0.582252 0
M  V30 252 H 23.8145 2.37261 2.59616 0
M  V30 253 H 23.6885 0.971303 3.6448 0
M  V30 254 H 26.0755 0.275333 2.93813 0
M  V30 255 H 26.1565 1.70859 1.9037 0
M  V30 256 H 25.8005 3.18351 3.95746 0
M  V30 257 H 25.7305 1.72353 4.97596 0
M  V30 258 H 28.2215 1.61112 3.41835 0
M  V30 259 H 28.5345 3.84953 6.70098 0
M  V30 260 H 26.8795 3.45596 6.02983 0
M  V30 261 H 30.0705 2.07157 4.19766 0
M  V30 262 H 30.2435 3.0921 5.69468 0
M  V30 263 N 23.6496 -1.47581 0.552962 0
M  V30 264 C 24.6126 -2.28439 -0.186605 0
M  V30 265 C 25.6126 -1.36706 -0.84665 0
M  V30 266 O 26.8026 -1.59378 -0.703164 0
M  V30 267 C 23.9346 -3.16264 -1.2724 0
M  V30 268 H 25.1276 -2.95294 0.523609 0
M  V30 269 H 22.6806 -1.532 0.309745 0
M  V30 270 H 23.4156 -2.54091 -2.01514 0
M  V30 271 H 23.2006 -3.83769 -0.803968 0
M  V30 272 H 24.6906 -3.77198 -1.79196 0
M  V30 273 N 25.1277 -0.289203 -1.54924 0
M  V30 274 C 26.3747 0.323519 -1.99899 0
M  V30 275 C 26.7027 1.54797 -1.17762 0
M  V30 276 O 25.9577 1.94237 -0.238835 0
M  V30 277 C 26.2567 0.736119 -3.49737 0
M  V30 278 C 25.9227 -0.385276 -4.49251 0
M  V30 279 C 24.5847 -0.693156 -4.76181 0
M  V30 280 C 26.9367 -1.14021 -5.08575 0
M  V30 281 C 24.2647 -1.7593 -5.59701 0
M  V30 282 C 26.6167 -2.19619 -5.93254 0
M  V30 283 C 25.2807 -2.51026 -6.185 0
M  V30 284 H 24.5507 0.118384 -0.731482 0
M  V30 285 H 27.1977 -0.405847 -1.8715 0
M  V30 286 H 25.5027 1.54539 -3.60035 0
M  V30 287 H 27.1997 1.22118 -3.81953 0
M  V30 288 H 23.7897 -0.135202 -4.28387 0
M  V30 289 H 27.9737 -0.915611 -4.87781 0
M  V30 290 H 23.2297 -2.0075 -5.77503 0
M  V30 291 H 27.4037 -2.78581 -6.38252 0
M  V30 292 H 25.0307 -3.33772 -6.83008 0
M  V30 293 N 26.6058 1.57591 -0.0167156 0
M  V30 294 C 27.5358 2.12496 0.967858 0
M  V30 295 C 28.5168 1.03807 1.34752 0
M  V30 296 O 29.7018 1.31577 1.42833 0
M  V30 297 C 26.8318 2.64194 2.25431 0
M  V30 298 C 25.7858 3.77559 2.01576 0
M  V30 299 C 25.1118 4.15636 3.36379 0
M  V30 300 C 26.4118 5.04151 1.36489 0
M  V30 301 H 28.1058 2.95013 0.510643 0
M  V30 302 H 25.6518 1.41915 0.244181 0
M  V30 303 H 27.6048 3.01236 2.94678 0
M  V30 304 H 26.3288 1.78821 2.73296 0
M  V30 305 H 24.9878 3.40937 1.34751 0
M  V30 306 H 24.6358 3.27263 3.81979 0
M  V30 307 H 24.3358 4.92022 3.21229 0
M  V30 308 H 25.8598 4.5525 4.06915 0
M  V30 309 H 27.2738 5.38857 1.95718 0
M  V30 310 H 25.6708 5.85453 1.31776 0
M  V30 311 H 26.7408 4.83733 0.336219 0
M  V30 312 N 28.0839 -0.256276 1.55502 0
M  V30 313 C 29.3089 -1.00766 1.81276 0
M  V30 314 C 29.7339 -1.78524 0.59252 0
M  V30 315 O 29.0919 -1.75413 -0.45827 0
M  V30 316 C 29.1399 -1.92869 3.04687 0
M  V30 317 O 28.2439 -3.019 2.80945 0
M  V30 318 H 27.5849 -0.287224 0.598664 0
M  V30 319 H 30.1149 -0.280109 2.02674 0
M  V30 320 H 30.1249 -2.34511 3.33869 0
M  V30 321 H 28.7999 -1.35689 3.93143 0
M  V30 322 H 27.3769 -2.64454 2.62904 0
M  V30 323 N 29.562 -1.4872 -0.521534 0
M  V30 324 C 30.792 -1.6061 -1.29954 0
M  V30 325 C 31.2 -0.268728 -1.87282 0
M  V30 326 O 30.543 0.753221 -1.67548 0
M  V30 327 C 30.605 -2.60013 -2.48261 0
M  V30 328 C 30.269 -4.04874 -2.11957 0
M  V30 329 C 31.266 -4.92304 -1.67132 0
M  V30 330 C 28.951 -4.5047 -2.22221 0
M  V30 331 C 30.945 -6.2336 -1.33047 0
M  V30 332 C 28.632 -5.81544 -1.87748 0
M  V30 333 C 29.63 -6.67812 -1.43234 0
M  V30 334 O 29.318 -7.96446 -1.09217 0
M  V30 335 H 29.05 -0.544116 -0.401141 0
M  V30 336 H 31.604 -1.95339 -0.634958 0
M  V30 337 H 29.834 -2.20422 -3.17728 0
M  V30 338 H 31.523 -2.61648 -3.10315 0
M  V30 339 H 32.289 -4.58312 -1.58665 0
M  V30 340 H 28.168 -3.83504 -2.55823 0
M  V30 341 H 31.712 -6.90649 -0.982299 0
M  V30 342 H 27.609 -6.15069 -1.95858 0
M  V30 343 H 28.377 -8.09275 -1.22542 0
M  V30 344 N 31.0401 0.771051 -1.3745 0
M  V30 345 C 32.2681 1.56015 -1.35893 0
M  V30 346 C 32.6831 1.88718 0.0555523 0
M  V30 347 O 32.0401 1.51502 1.01752 0
M  V30 348 C 32.0911 2.87001 -2.19801 0
M  V30 349 O 31.8121 2.557 -3.55738 0
M  V30 350 C 33.3131 3.81228 -2.26231 0
M  V30 351 H 30.5331 0.483317 -0.465453 0
M  V30 352 H 33.0771 0.955611 -1.80799 0
M  V30 353 H 31.2321 3.43877 -1.78402 0
M  V30 354 H 31.6461 3.39584 -3.99729 0
M  V30 355 H 33.1201 4.70139 -2.89263 0
M  V30 356 H 33.5971 4.20409 -1.27093 0
M  V30 357 H 34.2031 3.30281 -2.67945 0
M  V30 358 N 32.5182 1.22032 0.997298 0
M  V30 359 C 33.4812 0.987909 2.06816 0
M  V30 360 C 34.4812 -0.0440084 1.6074 0
M  V30 361 O 35.6712 0.194053 1.73116 0
M  V30 362 C 32.8032 0.49132 3.37341 0
M  V30 363 H 33.9962 1.93803 2.28868 0
M  V30 364 H 31.5492 1.03838 1.16822 0
M  V30 365 H 32.2842 -0.463364 3.20973 0
M  V30 366 H 32.0692 1.23575 3.72118 0
M  V30 367 H 33.5592 0.348824 4.16141 0
M  V30 368 N 33.9963 -1.19345 1.0293 0
M  V30 369 C 34.9593 -2.20793 0.615069 0
M  V30 370 C 35.9593 -1.57553 -0.321533 0
M  V30 371 O 37.1493 -1.73862 -0.108483 0
M  V30 372 C 34.2813 -3.40754 -0.0999222 0
M  V30 373 H 35.4743 -2.58955 1.51269 0
M  V30 374 H 33.0273 -1.3303 0.820534 0
M  V30 375 H 33.7623 -3.0811 -1.01187 0
M  V30 376 H 33.5473 -3.87889 0.57309 0
M  V30 377 H 35.0373 -4.15898 -0.376645 0
M  V30 378 N 35.4744 -0.807222 -1.35358 0
M  V30 379 C 36.7204 -0.388463 -1.99045 0
M  V30 380 C 37.0534 1.04184 -1.63888 0
M  V30 381 O 36.3284 1.72292 -0.902535 0
M  V30 382 C 36.6114 -0.572783 -3.55515 0
M  V30 383 C 36.4644 -2.04807 -4.00468 0
M  V30 384 C 37.7834 0.00114064 -4.401 0
M  V30 385 H 34.9024 -0.142619 -0.723069 0
M  V30 386 H 37.5444 -1.01687 -1.60498 0
M  V30 387 H 35.6944 -0.0378425 -3.88482 0
M  V30 388 H 37.3664 -2.64544 -3.77908 0
M  V30 389 H 35.6094 -2.54427 -3.51353 0
M  V30 390 H 36.2804 -2.12792 -5.09337 0
M  V30 391 H 38.7564 -0.455716 -4.13597 0
M  V30 392 H 37.6324 -0.157737 -5.48673 0
M  V30 393 H 37.8934 1.09488 -4.28328 0
M  V30 394 N 36.9525 1.47285 -0.560781 0
M  V30 395 C 38.2005 2.02064 -0.0379868 0
M  V30 396 C 38.5215 1.43711 1.31803 0
M  V30 397 O 37.7915 0.61362 1.86042 0
M  V30 398 H 36.3715 0.746918 -0.0110531 0
M  V30 399 H 39.0335 1.80648 -0.731598 0
M  V30 400 H 38.1295 3.12064 0.0474463 0
M  V30 401 N 38.4306 0.297415 1.54768 0
M  V30 402 C 39.3936 -0.567375 2.22066 0
M  V30 403 C 40.3936 -1.06409 1.20556 0
M  V30 404 O 41.5836 -0.960691 1.45315 0
M  V30 405 C 38.7156 -1.78517 2.90421 0
M  V30 406 H 39.9086 0.0205534 2.99893 0
M  V30 407 H 37.4616 0.0482163 1.56226 0
M  V30 408 H 38.1966 -2.41303 2.16664 0
M  V30 409 H 37.9816 -1.43669 3.64831 0
M  V30 410 H 39.4716 -2.39964 3.41771 0
M  V30 411 N 39.9087 -1.5758 0.0250728 0
M  V30 412 C 40.8387 -2.13007 -0.956575 0
M  V30 413 C 41.8197 -1.0452 -1.342 0
M  V30 414 O 43.0047 -1.32332 -1.42133 0
M  V30 415 C 40.1347 -2.65386 -2.24026 0
M  V30 416 C 39.0887 -3.78623 -1.99571 0
M  V30 417 C 38.4147 -4.17414 -3.3417 0
M  V30 418 C 39.7147 -5.04867 -1.33814 0
M  V30 419 H 41.4087 -2.9528 -0.494991 0
M  V30 420 H 38.9547 -1.42042 -0.236651 0
M  V30 421 H 40.9077 -3.02794 -2.93076 0
M  V30 422 H 39.6317 -1.80268 -2.72343 0
M  V30 423 H 38.2907 -3.41646 -1.32941 0
M  V30 424 H 37.9387 -3.29284 -3.80238 0
M  V30 425 H 37.6387 -4.93719 -3.18615 0
M  V30 426 H 39.1627 -4.57402 -4.04495 0
M  V30 427 H 40.5767 -5.39888 -1.92857 0
M  V30 428 H 38.9737 -5.86144 -1.28669 0
M  V30 429 H 40.0437 -4.83904 -0.310561 0
M  V30 430 N 41.3868 0.248026 -1.55636 0
M  V30 431 C 42.6348 0.974295 -1.77065 0
M  V30 432 C 42.9558 1.85897 -0.588849 0
M  V30 433 O 42.2258 1.91868 0.395407 0
M  V30 434 H 40.8058 0.362733 -0.653019 0
M  V30 435 H 43.4678 0.266244 -1.93073 0
M  V30 436 H 42.5638 1.59667 -2.68166 0
M  V30 437 N 42.8649 1.48995 0.513639 0
M  V30 438 C 43.7949 1.67636 1.62544 0
M  V30 439 C 44.7759 0.525087 1.61793 0
M  V30 440 O 45.9609 0.759502 1.78732 0
M  V30 441 C 43.0909 1.73114 3.01079 0
M  V30 442 C 42.0449 2.87905 3.16693 0
M  V30 443 C 41.3709 2.78486 4.56453 0
M  V30 444 C 42.6709 4.29005 2.97913 0
M  V30 445 H 44.3649 2.60716 1.47198 0
M  V30 446 H 41.9109 1.25465 0.706714 0
M  V30 447 H 43.8639 1.84742 3.78746 0
M  V30 448 H 42.5879 0.766241 3.17484 0
M  V30 449 H 41.2469 2.75859 2.41448 0
M  V30 450 H 40.8949 1.7993 4.69717 0
M  V30 451 H 40.5949 3.55523 4.67843 0
M  V30 452 H 42.1189 2.92104 5.36197 0
M  V30 453 H 43.5329 4.41798 3.65359 0
M  V30 454 H 41.9299 5.07166 3.20785 0
M  V30 455 H 42.9999 4.44329 1.94165 0
M  V30 456 N 44.343 -0.763751 1.37857 0
M  V30 457 C 45.583 -1.53551 1.34913 0
M  V30 458 C 45.947 -1.91895 -0.0635882 0
M  V30 459 O 47.148 -2.67916 -0.217825 0
M  V30 460 C 45.419 -2.76126 2.26912 0
M  V30 461 S 46.978 -3.66105 2.41893 0
M  V30 462 H 43.796 -0.52559 0.478828 0
M  V30 463 H 46.398 -0.897435 1.73685 0
M  V30 464 H 45.102 -2.4605 3.28463 0
M  V30 465 H 44.633 -3.44887 1.89253 0
M  V30 466 H 46.648 -4.68473 1.63545 0
M  V30 467 N 45.8211 -1.22559 -0.990812 0
M  V30 468 C 47.0691 -1.04933 -1.72724 0
M  V30 469 C 47.3901 0.416158 -1.90508 0
M  V30 470 O 46.6601 1.29918 -1.46622 0
M  V30 471 H 45.2401 -0.385296 -0.639965 0
M  V30 472 H 47.9021 -1.54105 -1.19322 0
M  V30 473 H 46.9981 -1.52886 -2.72089 0
M  V30 474 N 47.2992 1.18797 -1.03562 0
M  V30 475 C 48.5272 1.92599 -0.755869 0
M  V30 476 C 48.9422 1.75886 0.686271 0
M  V30 477 O 48.2992 1.08517 1.46732 0
M  V30 478 C 48.3502 3.44159 -1.10619 0
M  V30 479 O 48.0712 3.60341 -2.4917 0
M  V30 480 C 49.5722 4.3507 -0.850214 0
M  V30 481 H 46.7922 0.611587 -0.276048 0
M  V30 482 H 49.3362 1.50742 -1.38192 0
M  V30 483 H 47.4912 3.83823 -0.525194 0
M  V30 484 H 47.9052 4.54128 -2.62427 0
M  V30 485 H 49.3792 5.39989 -1.14523 0
M  V30 486 H 49.8562 4.38673 0.215176 0
M  V30 487 H 50.4622 4.01097 -1.41426 0
M  V30 488 N 48.7773 0.814389 1.34928 0
M  V30 489 C 50.0023 0.410097 2.03305 0
M  V30 490 C 50.4273 -0.973464 1.60951 0
M  V30 491 O 49.7853 -1.63185 0.789964 0
M  V30 492 C 49.8333 0.51049 3.56968 0
M  V30 493 O 48.9373 -0.473035 4.09678 0
M  V30 494 H 48.2783 0.170088 0.641846 0
M  V30 495 H 50.8083 1.10244 1.72358 0
M  V30 496 H 50.8183 0.383135 4.06197 0
M  V30 497 H 49.4933 1.51963 3.87144 0
M  V30 498 H 48.0703 -0.305272 3.71648 0
M  V30 499 N 50.2554 -1.46986 0.568584 0
M  V30 500 C 51.1854 -2.32946 -0.160753 0
M  V30 501 C 52.1664 -1.44487 -0.897631 0
M  V30 502 O 53.3514 -1.73327 -0.875867 0
M  V30 503 C 50.4814 -3.26494 -1.18403 0
M  V30 504 C 49.4354 -4.24282 -0.562895 0
M  V30 505 C 48.7614 -5.07236 -1.69163 0
M  V30 506 C 50.0614 -5.19989 0.490761 0
M  V30 507 H 51.7554 -2.94175 0.556916 0
M  V30 508 H 49.3014 -1.4146 0.26927 0
M  V30 509 H 51.2544 -3.85477 -1.70251 0
M  V30 510 H 49.9784 -2.63343 -1.93179 0
M  V30 511 H 48.6374 -3.66541 -0.0656164 0
M  V30 512 H 48.2854 -4.4048 -2.42871 0
M  V30 513 H 47.9854 -5.7345 -1.28174 0
M  V30 514 H 49.5094 -5.6908 -2.21314 0
M  V30 515 H 50.9234 -5.73271 0.0579047 0
M  V30 516 H 49.3204 -5.94469 0.820165 0
M  V30 517 H 50.3904 -4.64777 1.3824 0
M  V30 518 N 51.7335 -0.305618 -1.54608 0
M  V30 519 C 52.6635 0.561482 -2.26649 0
M  V30 520 C 53.6445 1.13415 -1.26772 0
M  V30 521 O 54.8295 1.16262 -1.55553 0
M  V30 522 C 51.9595 1.73122 -3.01075 0
M  V30 523 C 50.9135 1.2887 -4.08138 0
M  V30 524 C 50.2395 2.54396 -4.70305 0
M  V30 525 C 51.5395 0.416578 -5.20636 0
M  V30 526 H 53.2335 -0.0393902 -2.99374 0
M  V30 527 H 50.7795 -0.020385 -1.43986 0
M  V30 528 H 52.7325 2.34396 -3.50195 0
M  V30 529 H 51.4565 2.3584 -2.25936 0
M  V30 530 H 50.1155 0.698991 -3.59875 0
M  V30 531 H 49.7635 3.15439 -3.918 0
M  V30 532 H 49.4635 2.25486 -5.42614 0
M  V30 533 H 50.9875 3.16464 -5.2219 0
M  V30 534 H 52.4015 0.935116 -5.65622 0
M  V30 535 H 50.7985 0.221046 -5.99693 0
M  V30 536 H 51.8685 -0.557162 -4.81688 0
M  V30 537 N 53.2116 1.57565 -0.0334293 0
M  V30 538 C 54.1746 2.09393 0.932048 0
M  V30 539 C 55.1746 1.00986 1.25134 0
M  V30 540 O 56.3646 1.27129 1.19096 0
M  V30 541 C 53.4966 2.56338 2.2473 0
M  V30 542 H 54.6896 2.95984 0.483085 0
M  V30 543 H 52.2426 1.54819 0.21468 0
M  V30 544 H 52.9776 1.7309 2.74245 0
M  V30 545 H 52.7626 3.35542 2.02865 0
M  V30 546 H 54.2526 2.96646 2.93923 0
M  V30 547 N 54.6897 -0.239769 1.55765 0
M  V30 548 C 55.6217 -1.32001 1.87372 0
M  V30 549 C 56.6347 -1.43944 0.760522 0
M  V30 550 O 57.8237 -1.45167 1.0387 0
M  V30 551 C 54.9237 -2.69779 2.05115 0
M  V30 552 C 54.0967 -2.80014 3.36022 0
M  V30 553 C 53.1557 -3.98684 3.4342 0
M  V30 554 O 52.1817 -3.87877 4.16582 0
M  V30 555 N 53.3837 -5.12176 2.73232 0
M  V30 556 H 56.1487 -1.0522 2.80622 0
M  V30 557 H 53.7097 -0.429857 1.56089 0
M  V30 558 H 55.7017 -3.47517 2.07399 0
M  V30 559 H 54.2717 -2.89237 1.18577 0
M  V30 560 H 53.4917 -1.88896 3.45994 0
M  V30 561 H 54.7797 -2.83808 4.22292 0
M  V30 562 H 54.1777 -5.2385 2.13536 0
M  V30 563 H 52.7347 -5.88022 2.81199 0
M  V30 564 N 56.1678 -1.49265 -0.50573 0
M  V30 565 C 57.4158 -1.582 -1.25766 0
M  V30 566 C 57.7368 -0.268482 -1.93143 0
M  V30 567 O 57.0068 0.711833 -1.8251 0
M  V30 568 H 55.5868 -0.582873 -0.467191 0
M  V30 569 H 58.2488 -1.85865 -0.586525 0
M  V30 570 H 57.3448 -2.37563 -2.02412 0
M  V30 571 N 57.6459 0.756429 -1.3826 0
M  V30 572 C 58.6089 1.85176 -1.35065 0
M  V30 573 C 59.6089 1.58818 -0.251703 0
M  V30 574 O 60.7989 1.66615 -0.508433 0
M  V30 575 C 57.9309 3.22596 -1.10201 0
M  V30 576 H 59.1239 1.89417 -2.3251 0
M  V30 577 H 56.6769 0.95783 -1.23512 0
M  V30 578 H 57.4119 3.24025 -0.133504 0
M  V30 579 H 57.1969 3.43122 -1.89762 0
M  V30 580 H 58.6869 4.02673 -1.10654 0
M  V30 581 N 59.124 1.23083 0.984299 0
M  V30 582 C 60.54 0.992637 1.24975 0
M  V30 583 C 60.74 -0.308618 1.99123 0
M  V30 584 O 59.796 -1.02905 2.30579 0
M  V30 585 C 61.109 2.19698 2.05312 0
M  V30 586 C 62.657 2.24147 2.18465 0
M  V30 587 C 63.132 3.44157 3.02192 0
M  V30 588 N 64.623 3.44372 3.09777 0
M  V30 589 C 65.358 4.33886 3.74874 0
M  V30 590 N 64.854 5.3363 4.41827 0
M  V30 591 N 66.647 4.21639 3.71721 0
M  V30 592 H 58.798 2.06731 0.487453 0
M  V30 593 H 61.061 0.906339 0.277944 0
M  V30 594 H 60.767 3.1411 1.58201 0
M  V30 595 H 60.641 2.20465 3.06064 0
M  V30 596 H 63.028 1.30277 2.64786 0
M  V30 597 H 63.109 2.27415 1.17115 0
M  V30 598 H 62.753 4.38332 2.56568 0
M  V30 599 H 62.683 3.3813 4.03702 0
M  V30 600 H 65.174 2.72201 2.62135 0
M  V30 601 H 65.487 5.98196 4.89266 0
M  V30 602 H 63.832 5.37534 4.40548 0
M  V30 603 H 67.023 3.42962 3.18582 0
M  V30 604 H 67.196 4.91604 4.22173 0
M  V30 605 N 60.6021 -1.18246 1.0419 0
M  V30 606 C 61.5651 -2.20128 0.638452 0
M  V30 607 C 62.5651 -1.57885 -0.304805 0
M  V30 608 O 63.7551 -1.73967 -0.0900369 0
M  V30 609 C 60.8871 -3.4084 -0.0637751 0
M  V30 610 H 62.0801 -2.57336 1.54007 0
M  V30 611 H 59.6331 -1.32152 0.834598 0
M  V30 612 H 60.3681 -3.09166 -0.979136 0
M  V30 613 H 60.1531 -3.8726 0.614198 0
M  V30 614 H 61.6431 -4.16274 -0.332512 0
M  V30 615 N 62.0802 -0.821533 -1.34494 0
M  V30 616 C 62.9902 -0.244355 -2.33324 0
M  V30 617 C 64.0062 0.620527 -1.62559 0
M  V30 618 O 65.1822 0.528754 -1.94335 0
M  V30 619 C 62.2472 0.585368 -3.41723 0
M  V30 620 C 61.3082 -0.301752 -4.28238 0
M  V30 621 C 60.5412 0.488466 -5.3146 0
M  V30 622 O 60.7642 1.72186 -5.4379 0
M  V30 623 O 59.6982 -0.12848 -6.01763 0
M  V30 624 H 63.5242 -1.06231 -2.84515 0
M  V30 625 H 61.1092 -0.583645 -1.37528 0
M  V30 626 H 62.9912 1.05747 -4.07916 0
M  V30 627 H 61.6662 1.38068 -2.92778 0
M  V30 628 H 60.5732 -0.821315 -3.64973 0
M  V30 629 H 61.9062 -1.06138 -4.8062 0
M  V30 630 N 63.5583 1.46682 -0.576371 0
M  V30 631 C 64.8063 2.02013 -0.0594163 0
M  V30 632 C 65.1273 1.45101 1.30271 0
M  V30 633 O 64.3973 0.633317 1.8538 0
M  V30 634 H 62.9773 0.746759 -0.0189745 0
M  V30 635 H 65.6393 1.79862 -0.750717 0
M  V30 636 H 64.7353 3.12097 0.014345 0
M  V30 637 N 65.0364 0.313813 1.54444 0
M  V30 638 C 65.9664 -0.549454 2.26943 0
M  V30 639 C 66.9474 -1.12741 1.27372 0
M  V30 640 O 68.1324 -1.15436 1.56167 0
M  V30 641 C 65.2624 -1.71523 3.01989 0
M  V30 642 C 64.2164 -1.26703 4.08816 0
M  V30 643 C 63.5424 -2.51898 4.71647 0
M  V30 644 C 64.8424 -0.388962 5.2085 0
M  V30 645 H 66.5364 0.0552661 2.99349 0
M  V30 646 H 64.0824 0.0280207 1.43973 0
M  V30 647 H 66.0354 -2.32535 3.51433 0
M  V30 648 H 64.7594 -2.34639 2.27183 0
M  V30 649 H 63.4184 -0.679896 3.6024 0
M  V30 650 H 63.0664 -3.13356 3.93468 0
M  V30 651 H 62.7664 -2.22605 5.43802 0
M  V30 652 H 64.2904 -3.1369 5.23861 0
M  V30 653 H 65.7044 -0.905107 5.6611 0
M  V30 654 H 64.1014 -0.18924 5.99802 0
M  V30 655 H 65.1714 0.582699 4.81386 0
M  V30 656 N 66.5145 -1.57545 0.0417849 0
M  V30 657 C 67.4775 -2.09885 -0.92093 0
M  V30 658 C 68.4775 -1.01648 -1.24596 0
M  V30 659 O 69.6675 -1.27759 -1.1842 0
M  V30 660 C 66.7995 -2.57527 -2.23367 0
M  V30 661 H 67.9925 -2.96236 -0.467382 0
M  V30 662 H 65.5455 -1.5493 -0.206467 0
M  V30 663 H 66.2805 -1.74542 -2.73323 0
M  V30 664 H 66.0655 -3.36613 -2.01083 0
M  V30 665 H 67.5555 -2.98201 -2.92346 0
M  V30 666 N 67.9926 0.231505 -1.5589 0
M  V30 667 C 68.9406 1.30649 -1.92441 0
M  V30 668 C 69.9346 1.49037 -0.805254 0
M  V30 669 O 71.1406 1.50329 -0.990007 0
M  V30 670 H 67.5156 0.437812 -0.611412 0
M  V30 671 H 69.4866 0.970973 -2.82161 0
M  V30 672 C 68.2356 2.65179 -2.24889 0
M  V30 673 H 67.5586 2.51835 -3.10514 0
M  V30 674 H 68.9986 3.39234 -2.54355 0
M  V30 675 C 67.4576 3.19439 -1.07054 0
M  V30 676 O 67.9876 4.00371 -0.326499 0
M  V30 677 N 66.1936 2.77675 -0.85703 0
M  V30 678 H 65.7406 2.11969 -1.46379 0
M  V30 679 H 65.6986 3.14321 -0.0703223 0
M  V30 680 N 69.4707 1.49531 0.497807 0
M  V30 681 C 70.7187 1.58865 1.24926 0
M  V30 682 C 71.0397 0.278721 1.92998 0
M  V30 683 O 70.3097 -0.702144 1.82885 0
M  V30 684 H 68.8897 0.585343 0.464094 0
M  V30 685 H 71.5517 1.86174 0.57666 0
M  V30 686 H 70.6477 2.38633 2.01149 0
M  V30 687 N 70.9488 -0.749086 1.3866 0
M  V30 688 C 71.8588 -1.89358 1.38494 0
M  V30 689 C 72.8748 -1.71708 0.281476 0
M  V30 690 O 74.0508 -1.94554 0.520643 0
M  V30 691 C 71.1158 -3.24782 1.21316 0
M  V30 692 C 70.1768 -3.54926 2.41508 0
M  V30 693 C 69.4098 -4.83888 2.2514 0
M  V30 694 O 69.6328 -5.56592 1.24746 0
M  V30 695 O 68.5668 -5.13612 3.13826 0
M  V30 696 H 72.3928 -1.92452 2.34938 0
M  V30 697 H 69.9778 -0.894981 1.19626 0
M  V30 698 H 71.8598 -4.05739 1.13814 0
M  V30 699 H 70.5348 -3.2249 0.279592 0
M  V30 700 H 69.4418 -2.74112 2.54585 0
M  V30 701 H 70.7748 -3.61983 3.3351 0
M  V30 702 N 72.4269 -1.23603 -0.977757 0
M  V30 703 C 73.6729 -1.07129 -1.72195 0
M  V30 704 C 74.0059 0.390501 -1.90233 0
M  V30 705 O 73.2809 1.28902 -1.45653 0
M  V30 706 C 73.5639 -1.80031 -3.11867 0
M  V30 707 C 73.4169 -3.33899 -3.01383 0
M  V30 708 C 74.7359 -1.56492 -4.11337 0
M  V30 709 H 71.8549 -0.390571 -0.624999 0
M  V30 710 H 74.4969 -1.52142 -1.13811 0
M  V30 711 H 72.6469 -1.41768 -3.6171 0
M  V30 712 H 74.3189 -3.81699 -2.59043 0
M  V30 713 H 72.5619 -3.62796 -2.37827 0
M  V30 714 H 73.2329 -3.801 -4.00285 0
M  V30 715 H 75.7089 -1.89757 -3.70313 0
M  V30 716 H 74.5849 -2.09973 -5.07151 0
M  V30 717 H 74.8459 -0.500874 -4.39254 0
M  V30 718 N 73.905 1.17692 -1.04816 0
M  V30 719 C 74.838 2.20436 -0.590173 0
M  V30 720 C 75.816 1.58115 0.379244 0
M  V30 721 O 77 1.86228 0.291762 0
M  V30 722 C 74.127 3.38424 0.136817 0
M  V30 723 C 73.173 4.19176 -0.787023 0
M  V30 724 S 74.006 4.84815 -2.27409 0
M  V30 725 C 75.162 6.06195 -1.55817 0
M  V30 726 H 75.395 2.58944 -1.46067 0
M  V30 727 H 72.928 1.28246 -0.859784 0
M  V30 728 H 74.886 4.06798 0.550076 0
M  V30 729 H 73.547 2.98312 0.983299 0
M  V30 730 H 72.74 5.03499 -0.224681 0
M  V30 731 H 72.342 3.56219 -1.13947 0
M  V30 732 H 74.634 6.72078 -0.855387 0
M  V30 733 H 75.577 6.6695 -2.37873 0
M  V30 734 H 75.985 5.54701 -1.04722 0
M  V30 735 N 75.3831 0.828654 1.34056 0
M  V30 736 C 76.6081 0.431637 2.02859 0
M  V30 737 C 77.0331 -0.956339 1.61975 0
M  V30 738 O 76.3911 -1.62338 0.807228 0
M  V30 739 C 76.4391 0.548323 3.56407 0
M  V30 740 O 75.5431 -0.429556 4.10157 0
M  V30 741 H 74.8841 0.176886 0.640006 0
M  V30 742 H 77.4141 1.12066 1.71179 0
M  V30 743 H 77.4241 0.426196 4.05768 0
M  V30 744 H 76.0991 1.5606 3.8551 0
M  V30 745 H 74.6761 -0.265836 3.71951 0
M  V30 746 N 76.8612 -1.46375 0.584142 0
M  V30 747 C 78.1092 -2.01978 0.0701287 0
M  V30 748 C 78.4302 -1.4579 -1.295 0
M  V30 749 O 77.7002 -0.64314 -1.85042 0
M  V30 750 H 76.2802 -0.746648 0.0229345 0
M  V30 751 H 78.9422 -1.79461 0.760245 0
M  V30 752 H 78.0382 -3.121 0.0022064 0
M  V30 753 N 78.3393 -0.321999 -1.54275 0
M  V30 754 C 79.5793 0.281657 -2.0245 0
M  V30 755 C 79.9433 1.49468 -1.20513 0
M  V30 756 O 81.1443 2.17109 -1.58484 0
M  V30 757 C 79.4153 0.609014 -3.52173 0
M  V30 758 S 80.9743 1.19255 -4.22284 0
M  V30 759 H 77.7923 0.0852825 -0.705867 0
M  V30 760 H 80.3943 -0.454758 -1.90137 0
M  V30 761 H 79.0983 -0.281982 -4.0943 0
M  V30 762 H 78.6293 1.37567 -3.68563 0
M  V30 763 H 80.6443 2.47944 -4.29812 0
M  V30 764 N 79.8174 1.5752 -0.0501392 0
M  V30 765 C 80.7674 2.07981 0.934231 0
M  V30 766 C 81.7514 0.984745 1.27246 0
M  V30 767 O 82.9434 1.24809 1.25506 0
M  V30 768 C 80.0724 2.62751 2.20945 0
M  V30 769 C 79.1584 3.79225 1.89865 0
M  V30 770 N 79.5494 4.89036 1.29142 0
M  V30 771 C 77.8474 3.88111 2.19741 0
M  V30 772 C 78.5484 5.70084 1.15669 0
M  V30 773 N 77.5244 5.17659 1.65923 0
M  V30 774 H 81.3264 2.90277 0.460053 0
M  V30 775 H 78.8404 1.61665 0.15434 0
M  V30 776 H 80.8374 2.97205 2.9236 0
M  V30 777 H 79.4974 1.81894 2.6897 0
M  V30 778 H 80.5084 5.08854 0.963756 0
M  V30 779 H 77.1854 3.18194 2.70293 0
M  V30 780 H 78.5754 6.68395 0.685356 0
M  V30 781 N 81.2955 -0.223234 1.56011 0
M  V30 782 C 82.5415 -0.944891 1.8012 0
M  V30 783 C 82.8965 -1.82039 0.622862 0
M  V30 784 O 82.1895 -1.8773 -0.383143 0
M  V30 785 C 82.3835 -1.81948 3.0762 0
M  V30 786 C 82.2125 -1.03014 4.37742 0
M  V30 787 C 80.9825 -0.72574 5.00061 0
M  V30 788 C 83.1805 -0.396256 5.12771 0
M  V30 789 N 81.1625 0.0851816 6.13841 0
M  V30 790 C 82.5335 0.278137 6.19376 0
M  V30 791 C 84.5885 -0.309117 4.9694 0
M  V30 792 C 83.2915 1.03133 7.11868 0
M  V30 793 C 85.3175 0.430607 5.8983 0
M  V30 794 C 84.6795 1.09355 6.9586 0
M  V30 795 H 80.7785 -0.326081 0.710771 0
M  V30 796 H 83.3625 -0.215914 1.93499 0
M  V30 797 H 81.5335 -2.52029 2.95527 0
M  V30 798 H 83.2655 -2.47848 3.19927 0
M  V30 799 H 80.0205 -1.04335 4.61964 0
M  V30 800 H 80.4445 0.479428 6.753 0
M  V30 801 H 85.0865 -0.807313 4.15021 0
M  V30 802 H 82.8045 1.54105 7.9327 0
M  V30 803 H 86.3905 0.499012 5.79656 0
M  V30 804 H 85.2705 1.65679 7.66499 0
M  V30 805 N 82.7736 -1.49793 -0.48987 0
M  V30 806 C 84.0216 -1.59525 -1.24081 0
M  V30 807 C 84.3426 -0.288953 -1.92847 0
M  V30 808 O 83.6126 0.692436 -1.83254 0
M  V30 809 H 82.1926 -0.587796 -0.460983 0
M  V30 810 H 84.8546 -1.86477 -0.566778 0
M  V30 811 H 83.9506 -2.39696 -1.99881 0
M  V30 812 N 84.2517 0.741722 -1.39055 0
M  V30 813 C 85.4977 1.50336 -1.36113 0
M  V30 814 C 85.8307 1.94148 0.0450796 0
M  V30 815 O 85.1057 1.66301 1.00868 0
M  V30 816 C 85.3887 2.74773 -2.32749 0
M  V30 817 C 85.2417 2.37023 -3.82283 0
M  V30 818 C 86.5607 3.76846 -2.27322 0
M  V30 819 H 83.6797 0.545351 -0.495743 0
M  V30 820 H 86.3217 0.848624 -1.69995 0
M  V30 821 H 84.4717 3.30639 -2.03986 0
M  V30 822 H 86.1437 1.8684 -4.21768 0
M  V30 823 H 84.3867 1.69334 -3.99385 0
M  V30 824 H 85.0577 3.26104 -4.45376 0
M  V30 825 H 87.5337 3.30548 -2.5274 0
M  V30 826 H 86.4097 4.6159 -2.97028 0
M  V30 827 H 86.6707 4.23286 -1.27599 0
M  V30 828 N 85.7298 1.2412 0.971189 0
M  V30 829 C 86.9768 1.07881 1.71371 0
M  V30 830 C 87.3048 -0.382901 1.90694 0
M  V30 831 O 86.5598 -1.29945 1.46331 0
M  V30 832 C 86.8588 1.75983 3.11071 0
M  V30 833 C 86.5248 3.25909 3.11599 0
M  V30 834 C 85.1868 3.66813 3.11451 0
M  V30 835 C 87.5388 4.21771 3.062 0
M  V30 836 C 84.8668 5.02021 3.03631 0
M  V30 837 C 87.2188 5.56982 2.99923 0
M  V30 838 C 85.8828 5.97237 2.98102 0
M  V30 839 H 85.1528 0.394764 0.62709 0
M  V30 840 H 87.7998 1.54176 1.13587 0
M  V30 841 H 86.1048 1.22072 3.72298 0
M  V30 842 H 87.8018 1.60887 3.6731 0
M  V30 843 H 84.3918 2.93353 3.12477 0
M  V30 844 H 88.5758 3.91172 3.05447 0
M  V30 845 H 83.8318 5.32411 3.0058 0
M  V30 846 H 88.0058 6.30969 2.94704 0
M  V30 847 H 85.6328 7.01967 2.91798 0
M  V30 848 N 87.2079 -1.17134 1.05439 0
M  V30 849 C 88.1549 -2.21235 0.657539 0
M  V30 850 C 89.1249 -1.62551 -0.341543 0
M  V30 851 O 90.3099 -1.89379 -0.232393 0
M  V30 852 C 87.4499 -3.45076 0.0410575 0
M  V30 853 C 86.5629 -4.18042 1.08927 0
M  V30 854 C 85.6979 -5.29376 0.439848 0
M  V30 855 C 84.7369 -5.94132 1.4722 0
M  V30 856 N 83.8739 -6.96975 0.846756 0
M  V30 857 H 88.7139 -2.54534 1.54972 0
M  V30 858 H 86.2509 -1.25028 0.775006 0
M  V30 859 H 88.2089 -4.15862 -0.33383 0
M  V30 860 H 86.8389 -3.12353 -0.814568 0
M  V30 861 H 85.8909 -3.45945 1.58196 0
M  V30 862 H 87.2029 -4.62306 1.87282 0
M  V30 863 H 86.3569 -6.06699 0.0115125 0
M  V30 864 H 85.0959 -4.86251 -0.375656 0
M  V30 865 H 84.1009 -5.15538 1.91052 0
M  V30 866 H 85.3259 -6.39337 2.28965 0
M  V30 867 H 83.2719 -6.5598 0.0518075 0
M  V30 868 H 83.1889 -7.39565 1.5678 0
M  V30 869 H 84.4569 -7.78239 0.443277 0
M  V30 870 N 88.686 -0.835752 -1.33615 0
M  V30 871 C 89.649 -0.272 -2.2758 0
M  V30 872 C 90.649 0.557487 -1.50827 0
M  V30 873 O 91.839 0.37173 -1.70188 0
M  V30 874 C 88.971 0.617173 -3.35267 0
M  V30 875 H 90.164 -1.10111 -2.78954 0
M  V30 876 H 87.717 -0.608594 -1.43965 0
M  V30 877 H 88.452 1.46884 -2.89129 0
M  V30 878 H 88.237 0.0237066 -3.92093 0
M  V30 879 H 89.727 1.005 -4.05326 0
M  V30 880 N 90.1641 1.46063 -0.591896 0
M  V30 881 C 91.5801 1.57561 -0.254288 0
M  V30 882 C 91.7801 1.58565 1.24336 0
M  V30 883 O 90.8361 1.50753 2.02558 0
M  V30 884 C 92.1491 2.86549 -0.911611 0
M  V30 885 C 93.6971 3.00197 -0.886059 0
M  V30 886 C 94.1721 4.31933 -1.5231 0
M  V30 887 N 95.6631 4.38654 -1.48786 0
M  V30 888 C 96.3981 5.39222 -1.95006 0
M  V30 889 N 95.8941 6.46414 -2.49241 0
M  V30 890 N 97.6871 5.3048 -1.85868 0
M  V30 891 H 89.8381 1.43655 -1.56451 0
M  V30 892 H 92.1011 0.68583 -0.654478 0
M  V30 893 H 91.8071 2.91651 -1.96551 0
M  V30 894 H 91.6811 3.74794 -0.425368 0
M  V30 895 H 94.0681 2.9467 0.159246 0
M  V30 896 H 94.1491 2.13403 -1.41041 0
M  V30 897 H 93.7931 4.38217 -2.56765 0
M  V30 898 H 93.7231 5.17516 -0.973891 0
M  V30 899 H 96.2141 3.61793 -1.09151 0
M  V30 900 H 96.5271 7.19376 -2.82344 0
M  V30 901 H 94.8721 6.47208 -2.53272 0
M  V30 902 H 98.0631 4.45643 -1.43248 0
M  V30 903 H 98.2361 6.08711 -2.22204 0
M  V30 904 N 91.6422 0.330177 1.54103 0
M  V30 905 C 92.8882 -0.270806 2.00984 0
M  V30 906 C 93.2212 -1.51265 1.21789 0
M  V30 907 O 92.4962 -1.92142 0.301927 0
M  V30 908 C 92.7792 -0.598339 3.55094 0
M  V30 909 C 92.6322 0.654674 4.4501 0
M  V30 910 C 93.9512 -1.41334 4.16789 0
M  V30 911 H 91.0702 -0.0969531 0.730595 0
M  V30 912 H 93.7122 0.448066 1.84641 0
M  V30 913 H 91.8622 -1.21078 3.69151 0
M  V30 914 H 93.5342 1.29285 4.42813 0
M  V30 915 H 91.7772 1.28224 4.14416 0
M  V30 916 H 92.4482 0.380944 5.50684 0
M  V30 917 H 94.9242 -0.895597 4.06347 0
M  V30 918 H 93.8002 -1.61127 5.24718 0
M  V30 919 H 94.0612 -2.41146 3.70541 0
M  V30 920 N 93.1203 -1.57491 0.0584922 0
M  V30 921 C 94.0303 -2.15448 -0.928414 0
M  V30 922 C 95.0463 -1.11416 -1.3365 0
M  V30 923 O 96.2223 -1.4362 -1.41193 0
M  V30 924 C 93.2873 -2.69393 -2.18239 0
M  V30 925 C 92.3483 -3.88249 -1.83196 0
M  V30 926 C 91.5813 -4.39613 -3.02616 0
M  V30 927 O 91.8043 -3.90023 -4.16219 0
M  V30 928 O 90.7383 -5.31111 -2.83204 0
M  V30 929 H 94.5643 -3.00112 -0.465483 0
M  V30 930 H 92.1493 -1.48499 -0.163826 0
M  V30 931 H 94.0313 -3.04026 -2.91798 0
M  V30 932 H 92.7063 -1.87796 -2.63656 0
M  V30 933 H 91.6133 -3.58492 -1.06931 0
M  V30 934 H 92.9463 -4.71098 -1.42573 0
M  V30 935 N 94.5984 0.214957 -1.56127 0
M  V30 936 C 95.5464 1.28601 -1.93816 0
M  V30 937 C 96.5404 1.48175 -0.821016 0
M  V30 938 O 97.7464 1.49271 -1.0059 0
M  V30 939 H 94.1214 0.431302 -0.616022 0
M  V30 940 H 96.0924 0.940991 -2.83175 0
M  V30 941 C 94.8414 2.62779 -2.27689 0
M  V30 942 H 94.1644 2.48527 -3.13168 0
M  V30 943 H 95.6044 3.36517 -2.57939 0
M  V30 944 C 94.0634 3.18285 -1.10436 0
M  V30 945 O 94.5934 4.00002 -0.368945 0
M  V30 946 N 92.7994 2.7675 -0.886433 0
M  V30 947 H 92.3464 2.10404 -1.48619 0
M  V30 948 H 92.3044 3.14229 -0.103656 0
M  V30 949 N 96.0765 1.50051 0.48192 0
M  V30 950 C 97.3245 1.60181 1.23234 0
M  V30 951 C 97.6455 0.299176 1.92691 0
M  V30 952 O 96.9155 -0.682708 1.83619 0
M  V30 953 H 95.4955 0.590232 0.457859 0
M  V30 954 H 98.1575 1.86775 0.556881 0
M  V30 955 H 97.2535 2.40753 1.98607 0
M  V30 956 N 97.5546 -0.734337 1.39446 0
M  V30 957 C 98.9706 -1.03997 1.21065 0
M  V30 958 C 99.1706 -2.01369 0.0727019 0
M  V30 959 O 98.2266 -2.45856 -0.575426 0
M  V30 960 C 99.5396 -1.60163 2.54496 0
M  V30 961 C 101.088 -1.7224 2.61347 0
M  V30 962 C 101.563 -2.31814 3.95002 0
M  V30 963 N 103.054 -2.39223 3.96644 0
M  V30 964 C 103.789 -2.86258 4.96834 0
M  V30 965 N 103.285 -3.33184 6.07421 0
M  V30 966 N 105.078 -2.85473 4.84213 0
M  V30 967 H 97.2286 -0.0885624 2.12215 0
M  V30 968 H 99.4916 -0.10191 0.942506 0
M  V30 969 H 99.1976 -0.960811 3.38321 0
M  V30 970 H 99.0716 -2.5896 2.74262 0
M  V30 971 H 101.459 -2.35443 1.77906 0
M  V30 972 H 101.54 -0.720939 2.4543 0
M  V30 973 H 101.184 -1.69238 4.78875 0
M  V30 974 H 101.114 -3.32638 4.08239 0
M  V30 975 H 103.605 -2.06057 3.16779 0
M  V30 976 H 103.918 -3.67586 6.7978 0
M  V30 977 H 102.263 -3.31191 6.11013 0
M  V30 978 H 105.454 -2.48136 3.96921 0
M  V30 979 H 105.627 -3.21814 5.62441 0
M  V30 980 N 99.0327 -1.24633 -0.964593 0
M  V30 981 C 99.9957 -1.0424 -2.04124 0
M  V30 982 C 100.996 0.00137563 -1.608 0
M  V30 983 O 102.186 -0.239883 -1.7254 0
M  V30 984 C 99.3177 -0.580588 -3.3592 0
M  V30 985 H 100.511 -1.99803 -2.23649 0
M  V30 986 H 98.0637 -1.06899 -1.14027 0
M  V30 987 H 98.7987 0.3781 -3.22088 0
M  V30 988 H 98.5837 -1.33398 -3.6871 0
M  V30 989 H 100.074 -0.459034 -4.15069 0
M  V30 990 N 100.511 1.16574 -1.06058 0
M  V30 991 C 101.757 1.87324 -0.777022 0
M  V30 992 C 102.09 1.81351 0.694645 0
M  V30 993 O 101.365 1.22753 1.50871 0
M  V30 994 C 101.648 3.36991 -1.26922 0
M  V30 995 C 101.501 3.51667 -2.80447 0
M  V30 996 C 102.82 4.3131 -0.87521 0
M  V30 997 H 99.9388 0.680191 -0.28374 0
M  V30 998 H 102.581 1.37036 -1.3161 0
M  V30 999 H 100.731 3.79949 -0.81063 0
M  V30 1000 H 102.403 3.17664 -3.34495 0
M  V30 1001 H 100.646 2.93656 -3.19294 0
M  V30 1002 H 101.317 4.56766 -3.0995 0
M  V30 1003 H 103.793 3.9624 -1.27014 0
M  V30 1004 H 102.669 5.34545 -1.2471 0
M  V30 1005 H 102.93 4.41552 0.220071 0
M  V30 1006 N 101.989 0.842826 1.3317 0
M  V30 1007 C 102.952 0.284065 2.27433 0
M  V30 1008 C 103.952 -0.54948 1.5112 0
M  V30 1009 O 105.142 -0.362699 1.70382 0
M  V30 1010 C 102.274 -0.599384 3.35589 0
M  V30 1011 H 103.467 1.11589 2.78366 0
M  V30 1012 H 101.02 0.616221 1.4364 0
M  V30 1013 H 101.755 -1.45349 2.89904 0
M  V30 1014 H 101.54 -0.00291266 3.921 0
M  V30 1015 H 103.03 -0.983488 4.05854 0
M  V30 1016 N 103.467 -1.45747 0.599634 0
M  V30 1017 C 104.714 -2.02292 0.0917284 0
M  V30 1018 C 105.042 -1.46906 -1.27472 0
M  V30 1019 O 104.297 -0.630652 -1.8526 0
M  V30 1020 C 104.596 -3.57399 -0.00602758 0
M  V30 1021 C 104.262 -4.31902 1.29503 0
M  V30 1022 C 102.924 -4.51974 1.65144 0
M  V30 1023 C 105.276 -4.74551 2.15525 0
M  V30 1024 C 102.604 -5.11949 2.86574 0
M  V30 1025 C 104.956 -5.35868 3.36196 0
M  V30 1026 C 103.62 -5.54165 3.72099 0
M  V30 1027 H 102.89 -0.740239 0.0335658 0
M  V30 1028 H 105.537 -1.7491 0.779661 0
M  V30 1029 H 103.842 -3.84014 -0.777183 0
M  V30 1030 H 105.539 -3.98846 -0.415038 0
M  V30 1031 H 102.129 -4.16588 1.00761 0
M  V30 1032 H 106.313 -4.58784 1.8929 0
M  V30 1033 H 101.569 -5.24305 3.14507 0
M  V30 1034 H 105.743 -5.6787 4.03109 0
M  V30 1035 H 103.37 -6.00406 4.6628 0
M  V30 1036 N 104.945 -0.338344 -1.53925 0
M  V30 1037 C 105.855 0.529421 -2.28548 0
M  V30 1038 C 106.871 1.11645 -1.3346 0
M  V30 1039 O 108.047 1.13325 -1.66492 0
M  V30 1040 C 105.112 1.66713 -3.03987 0
M  V30 1041 C 104.173 1.11041 -4.14691 0
M  V30 1042 C 103.406 2.19389 -4.86522 0
M  V30 1043 O 103.629 3.40013 -4.57982 0
M  V30 1044 O 102.563 1.83976 -5.73094 0
M  V30 1045 H 106.389 -0.0770399 -3.03602 0
M  V30 1046 H 103.974 -0.103555 -1.49041 0
M  V30 1047 H 105.856 2.32918 -3.5118 0
M  V30 1048 H 104.531 2.25949 -2.31794 0
M  V30 1049 H 103.438 0.413024 -3.71813 0
M  V30 1050 H 104.771 0.562975 -4.8897 0
M  V30 1051 N 106.423 1.57458 -0.0668435 0
M  V30 1052 C 107.834 1.80776 0.466558 0
M  V30 1053 C 108.185 0.980361 1.69951 0
M  V30 1054 O 107.31 0.201441 2.1546 0
M  V30 1055 C 107.905 3.27881 0.85321 0
M  V30 1056 C 106.464 3.52062 1.3315 0
M  V30 1057 C 105.611 2.75513 0.314264 0
M  V30 1058 H 108.562 1.5598 -0.292588 0
M  V30 1059 H 108.583 3.39659 1.715 0
M  V30 1060 H 108.095 3.88075 -0.0443439 0
M  V30 1061 H 106.196 2.97167 2.24772 0
M  V30 1062 H 106.309 4.60762 1.31285 0
M  V30 1063 H 104.673 2.42123 0.790492 0
M  V30 1064 H 105.456 3.38442 -0.575477 0
M  V30 1065 N 107.901 -0.206675 1.56239 0
M  V30 1066 C 109.147 -0.925733 1.81113 0
M  V30 1067 C 109.502 -1.81368 0.642135 0
M  V30 1068 O 108.795 -1.88126 -0.363211 0
M  V30 1069 C 108.989 -1.78675 3.09532 0
M  V30 1070 C 108.818 -0.98365 4.3881 0
M  V30 1071 C 107.588 -0.672661 5.00803 0
M  V30 1072 C 109.786 -0.341847 5.13163 0
M  V30 1073 N 107.768 0.150283 6.13716 0
M  V30 1074 C 109.139 0.343815 6.19046 0
M  V30 1075 C 111.194 -0.256392 4.97239 0
M  V30 1076 C 109.897 1.10678 7.10734 0
M  V30 1077 C 111.923 0.493142 5.8934 0
M  V30 1078 C 111.285 1.16729 6.94661 0
M  V30 1079 H 107.384 -0.318524 0.714189 0
M  V30 1080 H 109.968 -0.195378 1.93717 0
M  V30 1081 H 108.139 -2.4888 2.98183 0
M  V30 1082 H 109.871 -2.44441 3.22538 0
M  V30 1083 H 106.626 -0.994294 4.63045 0
M  V30 1084 H 107.05 0.551026 6.74754 0
M  V30 1085 H 111.692 -0.763249 4.15854 0
M  V30 1086 H 109.41 1.6251 7.91591 0
M  V30 1087 H 112.996 0.560465 5.79094 0
M  V30 1088 H 111.876 1.738 7.64698 0
M  V30 1089 N 109.379 -1.50304 -0.473955 0
M  V30 1090 C 110.656 -1.51667 -1.23518 0
M  V30 1091 C 111.036 -0.259701 -2.09496 0
M  V30 1092 O 110.384 0.756986 -2.15597 0
M  V30 1093 C 110.594 -2.81082 -2.06868 0
M  V30 1094 C 111.942 -3.31631 -2.65153 0
M  V30 1095 O 112.966 -2.82384 -2.17113 0
M  V30 1096 O 111.825 -4.17471 -3.52675 0
M  V30 1097 H 108.919 -0.60822 -0.560355 0
M  V30 1098 H 111.465 -1.62592 -0.486011 0
M  V30 1099 H 110.237 -3.64041 -1.4349 0
M  V30 1100 H 109.86 -2.73146 -2.88924 0
M  V30 1101 N 110.857 0.726932 -1.39834 0
M  V30 1102 C 111.804 1.841 -1.39197 0
M  V30 1103 C 112.774 1.642 -0.250502 0
M  V30 1104 O 113.959 1.85494 -0.446846 0
M  V30 1105 C 111.099 3.21697 -1.24919 0
M  V30 1106 C 110.212 3.53247 -2.48678 0
M  V30 1107 C 109.347 4.80289 -2.26928 0
M  V30 1108 C 108.386 5.04707 -3.4632 0
M  V30 1109 N 107.523 6.22956 -3.23836 0
M  V30 1110 H 112.363 1.83979 -2.34427 0
M  V30 1111 H 109.9 0.898876 -1.16442 0
M  V30 1112 H 111.858 4.01137 -1.1465 0
M  V30 1113 H 110.488 3.21076 -0.333153 0
M  V30 1114 H 109.54 2.68447 -2.69519 0
M  V30 1115 H 110.852 3.67205 -3.37582 0
M  V30 1116 H 110.006 5.67725 -2.13947 0
M  V30 1117 H 108.745 4.68519 -1.35431 0
M  V30 1118 H 107.75 4.1573 -3.5979 0
M  V30 1119 H 108.975 5.18357 -4.38729 0
M  V30 1120 H 106.921 6.12459 -2.35011 0
M  V30 1121 H 106.838 6.37539 -4.063 0
M  V30 1122 H 108.106 7.1321 -3.14566 0
M  V30 1123 N 112.336 1.25143 0.95797 0
M  V30 1124 C 113.613 1.00472 1.67823 0
M  V30 1125 C 113.993 -0.470056 2.058 0
M  V30 1126 O 113.341 -1.44663 1.76875 0
M  V30 1127 C 113.551 1.9372 2.90299 0
M  V30 1128 C 114.899 2.21371 3.62326 0
M  V30 1129 O 115.923 1.91451 3.00375 0
M  V30 1130 O 114.782 2.72231 4.7387 0
M  V30 1131 H 111.876 0.380752 0.734137 0
M  V30 1132 H 114.422 1.36283 1.01119 0
M  V30 1133 H 113.194 2.93316 2.59001 0
M  V30 1134 H 112.817 1.58286 3.64735 0
M  V30 1135 N 113.814 -1.1601 1.06675 0
M  V30 1136 C 115.225 -1.68235 0.809565 0
M  V30 1137 C 115.576 -1.8454 -0.666303 0
M  V30 1138 O 114.701 -1.54374 -1.5165 0
M  V30 1139 C 115.296 -3.05585 1.46299 0
M  V30 1140 C 113.855 -3.54915 1.25349 0
M  V30 1141 C 113.002 -2.30804 1.53703 0
M  V30 1142 H 115.953 -1.00318 1.22971 0
M  V30 1143 H 115.974 -3.70174 0.880431 0
M  V30 1144 H 115.486 -2.93686 2.53713 0
M  V30 1145 H 113.587 -3.72067 0.199261 0
M  V30 1146 H 113.7 -4.36774 1.9689 0
M  V30 1147 H 112.064 -2.36007 0.957739 0
M  V30 1148 H 112.847 -2.21499 2.62284 0
M  V30 1149 N 115.292 -0.849877 -1.32721 0
M  V30 1150 C 116.255 -0.296122 -2.27279 0
M  V30 1151 C 117.255 0.541458 -1.5141 0
M  V30 1152 O 118.445 0.353658 -1.70572 0
M  V30 1153 C 115.577 0.581579 -3.35902 0
M  V30 1154 H 116.77 -1.13064 -2.77771 0
M  V30 1155 H 114.323 -0.62383 -1.43311 0
M  V30 1156 H 115.058 1.43809 -2.9067 0
M  V30 1157 H 114.843 -0.0178814 -3.92096 0
M  V30 1158 H 116.333 0.961951 -4.0637 0
M  V30 1159 N 116.77 1.45427 -0.607355 0
M  V30 1160 C 118.181 1.85756 -0.187535 0
M  V30 1161 C 118.532 1.5077 1.25551 0
M  V30 1162 O 117.657 0.93427 1.95193 0
M  V30 1163 C 118.252 3.37154 -0.333572 0
M  V30 1164 C 116.811 3.76387 0.0315542 0
M  V30 1165 C 115.958 2.69377 -0.658117 0
M  V30 1166 H 118.909 1.36231 -0.81405 0
M  V30 1167 H 118.93 3.78014 0.43428 0
M  V30 1168 H 118.442 3.62586 -1.38393 0
M  V30 1169 H 116.543 3.56571 1.0811 0
M  V30 1170 H 116.656 4.77731 -0.361935 0
M  V30 1171 H 115.02 2.5452 -0.0957873 0
M  V30 1172 H 115.803 2.97646 -1.7106 0
M  V30 1173 N 118.248 0.346503 1.53744 0
M  V30 1174 C 119.473 -0.253074 2.0585 0
M  V30 1175 C 119.898 -1.43202 1.21962 0
M  V30 1176 O 119.256 -1.79783 0.234073 0
M  V30 1177 C 119.304 -0.643193 3.54817 0
M  V30 1178 O 118.408 -1.74286 3.73762 0
M  V30 1179 H 117.749 -0.0413583 0.662711 0
M  V30 1180 H 120.279 0.501574 1.98357 0
M  V30 1181 H 120.289 -0.919526 3.97503 0
M  V30 1182 H 118.964 0.218966 4.15323 0
M  V30 1183 H 117.541 -1.46356 3.42979 0
M  V30 1184 N 119.726 -1.57421 0.075193 0
M  V30 1185 C 120.676 -2.09441 -0.901025 0
M  V30 1186 C 121.66 -1.00486 -1.25663 0
M  V30 1187 O 122.852 -1.2679 -1.23504 0
M  V30 1188 C 119.981 -2.66233 -2.16737 0
M  V30 1189 C 119.067 -3.82198 -1.83808 0
M  V30 1190 N 119.458 -4.91028 -1.21345 0
M  V30 1191 C 117.756 -3.91558 -2.13538 0
M  V30 1192 C 118.457 -5.71852 -1.06585 0
M  V30 1193 N 117.433 -5.20233 -1.57667 0
M  V30 1194 H 121.235 -2.90972 -0.413815 0
M  V30 1195 H 118.749 -1.6189 -0.128601 0
M  V30 1196 H 120.746 -3.01819 -2.87595 0
M  V30 1197 H 119.406 -1.8615 -2.66042 0
M  V30 1198 H 120.417 -5.10323 -0.88268 0
M  V30 1199 H 117.094 -3.22454 -2.65197 0
M  V30 1200 H 118.484 -6.69401 -0.578933 0
M  V30 1201 N 121.204 0.198386 -1.56346 0
M  V30 1202 C 122.136 1.26987 -1.90806 0
M  V30 1203 C 123.149 1.41877 -0.798419 0
M  V30 1204 O 124.338 1.42362 -1.07682 0
M  V30 1205 C 121.438 2.64246 -2.12196 0
M  V30 1206 C 120.611 2.71007 -3.43328 0
M  V30 1207 C 119.67 3.89439 -3.5387 0
M  V30 1208 O 118.696 3.76695 -4.26719 0
M  V30 1209 N 119.898 5.04752 -2.86715 0
M  V30 1210 H 122.663 0.977433 -2.83313 0
M  V30 1211 H 120.224 0.388322 -1.57174 0
M  V30 1212 H 122.216 3.41896 -2.1654 0
M  V30 1213 H 120.786 2.85992 -1.26204 0
M  V30 1214 H 120.006 1.79657 -3.50881 0
M  V30 1215 H 121.294 2.72512 -4.29668 0
M  V30 1216 H 120.692 5.18004 -2.2735 0
M  V30 1217 H 119.249 5.8036 -2.96691 0
M  V30 1218 N 122.682 1.50554 0.465978 0
M  V30 1219 C 123.612 1.72722 1.57128 0
M  V30 1220 C 124.593 0.576294 1.6004 0
M  V30 1221 O 125.778 0.81598 1.76225 0
M  V30 1222 C 122.908 1.82605 2.95419 0
M  V30 1223 C 121.862 2.97835 3.07373 0
M  V30 1224 C 121.188 2.92867 4.47363 0
M  V30 1225 C 122.488 4.38265 2.84114 0
M  V30 1226 H 124.182 2.65267 1.38829 0
M  V30 1227 H 121.728 1.2765 0.666441 0
M  V30 1228 H 123.681 1.96698 3.72677 0
M  V30 1229 H 122.405 0.866858 3.14886 0
M  V30 1230 H 121.064 2.83401 2.3255 0
M  V30 1231 H 120.712 1.94783 4.63755 0
M  V30 1232 H 120.412 3.70227 4.56296 0
M  V30 1233 H 121.936 3.09015 5.26633 0
M  V30 1234 H 123.35 4.53198 3.51118 0
M  V30 1235 H 121.747 5.17115 3.04487 0
M  V30 1236 H 122.817 4.50281 1.7993 0
M  V30 1237 N 124.16 -0.719506 1.40217 0
M  V30 1238 C 125.571 -1.29848 1.34151 0
M  V30 1239 C 125.922 -1.96196 0.0131349 0
M  V30 1240 O 125.047 -1.973 -0.88892 0
M  V30 1241 C 125.642 -2.36118 2.42968 0
M  V30 1242 C 124.201 -2.8965 2.40374 0
M  V30 1243 C 123.348 -1.63393 2.24049 0
M  V30 1244 H 126.299 -0.51591 1.5008 0
M  V30 1245 H 126.32 -3.16871 2.10649 0
M  V30 1246 H 125.832 -1.878 3.39636 0
M  V30 1247 H 123.933 -3.42208 1.47392 0
M  V30 1248 H 124.046 -3.4171 3.35814 0
M  V30 1249 H 122.41 -1.88312 1.71495 0
M  V30 1250 H 123.193 -1.17104 3.2271 0
M  V30 1251 N 125.638 -1.25649 -0.95132 0
M  V30 1252 C 126.886 -1.10375 -1.69298 0
M  V30 1253 C 127.207 0.355339 -1.91735 0
M  V30 1254 O 126.477 1.25188 -1.50681 0
M  V30 1255 H 125.057 -0.405461 -0.627384 0
M  V30 1256 H 127.719 -1.57823 -1.14358 0
M  V30 1257 H 126.815 -1.61465 -2.67087 0
M  V30 1258 N 127.117 1.15442 -1.07289 0
M  V30 1259 C 128.363 1.86489 -0.796846 0
M  V30 1260 C 128.696 1.82078 0.675371 0
M  V30 1261 O 127.971 1.24346 1.4956 0
M  V30 1262 C 128.254 3.35626 -1.30489 0
M  V30 1263 C 128.107 3.48673 -2.84161 0
M  V30 1264 C 129.426 4.30357 -0.920907 0
M  V30 1265 H 126.545 0.677144 -0.290939 0
M  V30 1266 H 129.187 1.35633 -1.33056 0
M  V30 1267 H 127.337 3.79068 -0.850883 0
M  V30 1268 H 129.009 3.14099 -3.37846 0
M  V30 1269 H 127.252 2.90253 -3.22391 0
M  V30 1270 H 127.923 4.53453 -3.14777 0
M  V30 1271 H 130.399 3.94871 -1.3121 0
M  V30 1272 H 129.275 5.33193 -1.30372 0
M  V30 1273 H 129.536 4.4176 0.173226 0
M  V30 1274 N 128.595 0.856903 1.32268 0
M  V30 1275 C 129.525 0.31858 2.31316 0
M  V30 1276 C 130.506 -0.583487 1.59779 0
M  V30 1277 O 131.691 -0.503259 1.87566 0
M  V30 1278 C 128.821 -0.491979 3.43798 0
M  V30 1279 C 127.775 0.315849 4.26833 0
M  V30 1280 C 127.101 -0.619586 5.31098 0
M  V30 1281 C 128.401 1.54282 4.98993 0
M  V30 1282 H 130.095 1.14621 2.76591 0
M  V30 1283 H 127.641 0.552613 1.32974 0
M  V30 1284 H 129.594 -0.879012 4.1213 0
M  V30 1285 H 128.318 -1.35299 2.97257 0
M  V30 1286 H 126.977 0.684664 3.6015 0
M  V30 1287 H 126.625 -1.47751 4.8081 0
M  V30 1288 H 126.325 -0.0830621 5.87541 0
M  V30 1289 H 127.849 -1.00375 6.02293 0
M  V30 1290 H 129.263 1.22796 5.59995 0
M  V30 1291 H 127.66 2.01745 5.65172 0
M  V30 1292 H 128.73 2.30285 4.26728 0
M  V30 1293 N 130.073 -1.45103 0.615059 0
M  V30 1294 C 131.35 -1.95549 0.0448276 0
M  V30 1295 C 131.73 -1.55737 -1.4251 0
M  V30 1296 O 131.078 -0.823556 -2.13143 0
M  V30 1297 C 131.288 -3.48098 0.250785 0
M  V30 1298 C 132.636 -4.24384 0.135509 0
M  V30 1299 O 133.66 -3.55738 0.181299 0
M  V30 1300 O 132.519 -5.46493 0.0268878 0
M  V30 1301 H 129.613 -0.8264 -0.0314845 0
M  V30 1302 H 132.159 -1.55232 0.685642 0
M  V30 1303 H 130.931 -3.7007 1.27139 0
M  V30 1304 H 130.554 -3.95323 -0.424937 0
M  V30 1305 N 131.551 -0.354651 -1.53558 0
M  V30 1306 C 132.776 0.242153 -2.05981 0
M  V30 1307 C 133.201 1.42553 -1.2272 0
M  V30 1308 O 132.559 1.79656 -0.243604 0
M  V30 1309 C 132.607 0.624367 -3.55154 0
M  V30 1310 O 131.711 1.72301 -3.74681 0
M  V30 1311 H 131.052 0.0378432 -0.662921 0
M  V30 1312 H 133.582 -0.512087 -1.98088 0
M  V30 1313 H 133.592 0.898433 -3.97985 0
M  V30 1314 H 132.267 -0.240989 -4.15201 0
M  V30 1315 H 130.844 1.44535 -3.4375 0
M  V30 1316 N 133.029 1.57378 -0.0835403 0
M  V30 1317 C 134.278 1.93106 0.582498 0
M  V30 1318 C 134.591 0.96651 1.70053 0
M  V30 1319 O 135.797 1.21705 2.42693 0
M  V30 1320 C 134.253 3.43076 1.08751 0
M  V30 1321 C 133.861 4.48 -0.000146404 0
M  V30 1322 C 135.605 3.87785 1.72694 0
M  V30 1323 C 133.512 5.89113 0.519568 0
M  V30 1324 H 132.442 0.720775 0.221358 0
M  V30 1325 H 135.093 1.82821 -0.157675 0
M  V30 1326 H 133.475 3.48474 1.88101 0
M  V30 1327 H 134.649 4.54233 -0.775199 0
M  V30 1328 H 132.964 4.1283 -0.54406 0
M  V30 1329 H 135.561 4.90604 2.1263 0
M  V30 1330 H 135.904 3.25796 2.59158 0
M  V30 1331 H 136.437 3.8504 0.999457 0
M  V30 1332 H 133.176 6.54775 -0.308186 0
M  V30 1333 H 132.696 5.86376 1.26188 0
M  V30 1334 H 134.375 6.39346 0.992237 0
M  V30 1335 N 134.507 -0.190092 1.56449 0
M  V30 1336 C 135.737 -0.92443 1.84764 0
M  V30 1337 C 136.145 -1.77146 0.664529 0
M  V30 1338 O 135.488 -1.79812 -0.375957 0
M  V30 1339 C 135.55 -1.86651 3.07248 0
M  V30 1340 C 135.214 -1.20094 4.40938 0
M  V30 1341 C 136.211 -0.575445 5.16706 0
M  V30 1342 C 133.896 -1.2033 4.87674 0
M  V30 1343 C 135.89 0.0388111 6.37388 0
M  V30 1344 C 133.577 -0.585214 6.08291 0
M  V30 1345 C 134.575 0.0347578 6.82991 0
M  V30 1346 O 134.263 0.643147 8.01323 0
M  V30 1347 H 133.995 -0.274974 0.617548 0
M  V30 1348 H 136.549 -0.200788 2.04416 0
M  V30 1349 H 134.779 -2.62998 2.83494 0
M  V30 1350 H 136.468 -2.46907 3.22167 0
M  V30 1351 H 137.234 -0.565728 4.81689 0
M  V30 1352 H 133.113 -1.67526 4.29484 0
M  V30 1353 H 136.657 0.523329 6.95634 0
M  V30 1354 H 132.554 -0.592451 6.42775 0
M  V30 1355 H 133.322 0.540545 8.16713 0
M  V30 1356 N 135.985 -1.50799 -0.457987 0
M  V30 1357 C 137.21 -1.66496 -1.23668 0
M  V30 1358 C 137.635 -0.353288 -1.84752 0
M  V30 1359 O 136.993 0.684346 -1.67888 0
M  V30 1360 C 137.041 -2.76763 -2.3116 0
M  V30 1361 O 136.145 -2.38928 -3.36136 0
M  V30 1362 H 135.486 -0.555828 -0.363252 0
M  V30 1363 H 138.016 -1.9725 -0.543474 0
M  V30 1364 H 138.026 -3.00232 -2.76269 0
M  V30 1365 H 136.701 -3.71954 -1.86073 0
M  V30 1366 H 135.278 -2.25953 -2.96647 0
M  V30 1367 N 137.463 0.71206 -1.40597 0
M  V30 1368 C 138.874 1.29135 -1.34837 0
M  V30 1369 C 139.225 1.96186 -0.0235395 0
M  V30 1370 O 138.35 1.97768 0.878444 0
M  V30 1371 C 138.945 2.34827 -2.44217 0
M  V30 1372 C 137.504 2.88371 -2.41907 0
M  V30 1373 C 136.651 1.62202 -2.24913 0
M  V30 1374 H 139.602 0.507944 -1.50352 0
M  V30 1375 H 139.623 3.15749 -2.12327 0
M  V30 1376 H 139.135 1.85996 -3.40627 0
M  V30 1377 H 137.236 3.41422 -1.49204 0
M  V30 1378 H 137.349 3.39925 -3.37621 0
M  V30 1379 H 135.713 1.874 -1.72492 0
M  V30 1380 H 136.496 1.15391 -3.23326 0
M  V30 1381 N 138.941 1.26152 0.944643 0
M  V30 1382 C 140.169 1.14259 1.72489 0
M  V30 1383 C 140.584 -0.302555 1.8636 0
M  V30 1384 O 139.941 -1.20741 1.36849 0
M  V30 1385 C 139.992 1.80266 3.13347 0
M  V30 1386 O 139.713 3.19133 3.00143 0
M  V30 1387 C 141.214 1.74283 4.07603 0
M  V30 1388 H 138.434 0.398051 0.540181 0
M  V30 1389 H 140.978 1.66706 1.18446 0
M  V30 1390 H 139.133 1.31766 3.64303 0
M  V30 1391 H 139.547 3.51744 3.89071 0
M  V30 1392 H 141.021 2.25111 5.04013 0
M  V30 1393 H 141.498 0.708631 4.33446 0
M  V30 1394 H 142.104 2.22319 3.62567 0
M  V30 1395 N 140.419 -1.14872 1.07899 0
M  V30 1396 C 141.835 -1.37776 0.805606 0
M  V30 1397 C 142.035 -1.92743 -0.587555 0
M  V30 1398 O 141.091 -2.13678 -1.34528 0
M  V30 1399 C 142.404 -2.34361 1.88402 0
M  V30 1400 C 143.952 -2.48012 1.90942 0
M  V30 1401 C 144.427 -3.47893 2.97883 0
M  V30 1402 N 145.918 -3.55433 2.97021 0
M  V30 1403 C 146.653 -4.32553 3.76412 0
M  V30 1404 N 146.149 -5.12959 4.65666 0
M  V30 1405 N 147.942 -4.27697 3.64735 0
M  V30 1406 H 140.093 -0.775365 1.97742 0
M  V30 1407 H 142.356 -0.403521 0.857831 0
M  V30 1408 H 142.062 -2.01098 2.88535 0
M  V30 1409 H 141.936 -3.34206 1.74889 0
M  V30 1410 H 144.323 -2.8057 0.914579 0
M  V30 1411 H 144.404 -1.48147 2.08534 0
M  V30 1412 H 144.048 -3.16069 3.97571 0
M  V30 1413 H 143.978 -4.47527 2.77538 0
M  V30 1414 H 146.469 -2.98048 2.32326 0
M  V30 1415 H 146.782 -5.69065 5.22862 0
M  V30 1416 H 145.127 -5.12245 4.69712 0
M  V30 1417 H 148.318 -3.63949 2.94378 0
M  V30 1418 H 148.491 -4.8755 4.26848 0
M  V30 1419 N 141.898 -0.863906 -1.31812 0
M  V30 1420 C 143.147 -0.46801 -1.96195 0
M  V30 1421 C 143.46 0.983474 -1.69077 0
M  V30 1422 O 144.666 1.48523 -2.27273 0
M  V30 1423 C 143.122 -0.785995 -3.51212 0
M  V30 1424 C 142.73 -2.25383 -3.87178 0
M  V30 1425 C 144.474 -0.458274 -4.22019 0
M  V30 1426 C 142.381 -2.51455 -5.3528 0
M  V30 1427 H 141.311 -0.171283 -0.734287 0
M  V30 1428 H 143.962 -1.05597 -1.50072 0
M  V30 1429 H 142.344 -0.127359 -3.95795 0
M  V30 1430 H 143.518 -2.95502 -3.53575 0
M  V30 1431 H 141.833 -2.54698 -3.2942 0
M  V30 1432 H 144.43 -0.630369 -5.30971 0
M  V30 1433 H 144.773 0.600834 -4.11941 0
M  V30 1434 H 145.306 -1.07319 -3.8305 0
M  V30 1435 H 142.045 -3.56025 -5.50387 0
M  V30 1436 H 141.565 -1.85923 -5.70257 0
M  V30 1437 H 143.244 -2.35874 -6.02472 0
M  V30 1438 N 143.376 1.44774 -0.622745 0
M  V30 1439 C 144.323 2.30635 0.0871679 0
M  V30 1440 C 145.293 1.42994 0.845097 0
M  V30 1441 O 146.478 1.71907 0.827812 0
M  V30 1442 C 143.618 3.28144 1.06844 0
M  V30 1443 C 142.731 4.30888 0.309809 0
M  V30 1444 C 141.866 5.15494 1.28215 0
M  V30 1445 C 140.905 6.09953 0.512198 0
M  V30 1446 N 140.042 6.87287 1.43458 0
M  V30 1447 H 144.882 2.90803 -0.650974 0
M  V30 1448 H 142.419 1.43286 -0.33281 0
M  V30 1449 H 144.377 3.83157 1.65066 0
M  V30 1450 H 143.007 2.69695 1.77382 0
M  V30 1451 H 142.059 3.78414 -0.388181 0
M  V30 1452 H 143.371 4.97955 -0.290254 0
M  V30 1453 H 142.525 5.74983 1.93596 0
M  V30 1454 H 141.264 4.48481 1.91614 0
M  V30 1455 H 140.269 5.49581 -0.155151 0
M  V30 1456 H 141.494 6.78999 -0.116958 0
M  V30 1457 H 139.44 6.2295 2.05594 0
M  V30 1458 H 139.357 7.50763 0.888335 0
M  V30 1459 H 140.625 7.51306 2.07749 0
M  V30 1460 N 144.854 0.36279 1.53368 0
M  V30 1461 C 146.084 -0.228281 2.05335 0
M  V30 1462 C 146.492 -1.43226 1.23625 0
M  V30 1463 O 145.835 -1.81717 0.269206 0
M  V30 1464 C 145.897 -0.688549 3.52845 0
M  V30 1465 C 145.561 0.398362 4.5526 0
M  V30 1466 C 146.558 1.24732 5.04716 0
M  V30 1467 C 144.243 0.557805 4.99193 0
M  V30 1468 C 146.237 2.2411 5.96702 0
M  V30 1469 C 143.924 1.55495 5.90986 0
M  V30 1470 C 144.922 2.39503 6.39631 0
M  V30 1471 O 144.61 3.37517 7.29615 0
M  V30 1472 H 144.342 -0.044395 0.674541 0
M  V30 1473 H 146.896 0.518668 1.98744 0
M  V30 1474 H 145.126 -1.48706 3.56964 0
M  V30 1475 H 146.815 -1.20231 3.87685 0
M  V30 1476 H 147.581 1.13532 4.71525 0
M  V30 1477 H 143.46 -0.0862959 4.60919 0
M  V30 1478 H 147.004 2.89718 6.34594 0
M  V30 1479 H 142.901 1.66744 6.23592 0
M  V30 1480 H 143.669 3.33213 7.47604 0
M  V30 1481 N 146.332 -1.57332 0.0918853 0
M  V30 1482 C 147.743 -1.81496 -0.437739 0
M  V30 1483 C 148.094 -1.00727 -1.6837 0
M  V30 1484 O 147.219 -0.235694 -2.15113 0
M  V30 1485 C 147.814 -3.29197 -0.800939 0
M  V30 1486 C 146.373 -3.54136 -1.27532 0
M  V30 1487 C 145.52 -2.75979 -0.270392 0
M  V30 1488 H 148.471 -1.55494 0.317366 0
M  V30 1489 H 148.492 -3.42344 -1.66074 0
M  V30 1490 H 148.004 -3.87955 0.106078 0
M  V30 1491 H 146.105 -3.00705 -2.20016 0
M  V30 1492 H 146.218 -4.62792 -1.23938 0
M  V30 1493 H 144.582 -2.43349 -0.751872 0
M  V30 1494 H 145.365 -3.37484 0.629248 0
M  V30 1495 N 147.81 0.181792 -1.56548 0
M  V30 1496 C 148.743 1.25366 -1.90679 0
M  V30 1497 C 149.721 1.43299 -0.768376 0
M  V30 1498 O 150.905 1.58475 -1.02068 0
M  V30 1499 C 148.032 2.61826 -2.1486 0
M  V30 1500 C 147.078 2.60688 -3.37556 0
M  V30 1501 S 147.911 2.10804 -4.92262 0
M  V30 1502 C 149.067 3.49062 -5.19525 0
M  V30 1503 H 149.3 0.962277 -2.81296 0
M  V30 1504 H 146.833 0.385892 -1.495 0
M  V30 1505 H 148.791 3.40371 -2.29473 0
M  V30 1506 H 147.452 2.88169 -1.24969 0
M  V30 1507 H 146.645 3.61058 -3.51643 0
M  V30 1508 H 146.247 1.90232 -3.22006 0
M  V30 1509 H 148.539 4.45003 -5.10861 0
M  V30 1510 H 149.482 3.39859 -6.2121 0
M  V30 1511 H 149.89 3.4459 -4.47122 0
M  V30 1512 N 149.288 1.51039 0.449983 0
M  V30 1513 C 150.534 1.63322 1.20223 0
M  V30 1514 C 150.867 0.34241 1.91158 0
M  V30 1515 O 150.142 -0.657344 1.83055 0
M  V30 1516 C 150.425 2.82801 2.22925 0
M  V30 1517 C 150.278 4.21823 1.56157 0
M  V30 1518 C 151.597 2.97807 3.24035 0
M  V30 1519 H 148.716 0.594407 0.435718 0
M  V30 1520 H 151.358 1.83489 0.493136 0
M  V30 1521 H 149.508 2.65738 2.834 0
M  V30 1522 H 151.18 4.50526 0.991162 0
M  V30 1523 H 149.423 4.25105 0.864172 0
M  V30 1524 H 150.094 5.01391 2.30891 0
M  V30 1525 H 152.57 3.13497 2.73603 0
M  V30 1526 H 151.446 3.82992 3.93202 0
M  V30 1527 H 151.707 2.09328 3.89402 0
M  V30 1528 N 150.766 -0.704594 1.40972 0
M  V30 1529 C 152.182 -1.01406 1.23244 0
M  V30 1530 C 152.382 -2.01169 0.115399 0
M  V30 1531 O 151.438 -2.47021 -0.523147 0
M  V30 1532 C 152.751 -1.54728 2.57836 0
M  V30 1533 C 154.299 -1.66658 2.64942 0
M  V30 1534 C 154.774 -2.23383 3.9983 0
M  V30 1535 N 156.265 -2.30756 4.01629 0
M  V30 1536 C 157 -2.75655 5.02794 0
M  V30 1537 N 156.496 -3.20225 6.14352 0
M  V30 1538 N 158.289 -2.75138 4.90159 0
M  V30 1539 H 150.44 -0.0435285 2.12355 0
M  V30 1540 H 152.703 -0.0818951 0.944456 0
M  V30 1541 H 152.409 -0.888832 3.40283 0
M  V30 1542 H 152.283 -2.53084 2.79693 0
M  V30 1543 H 154.67 -2.31617 1.8286 0
M  V30 1544 H 154.751 -0.668717 2.46904 0
M  V30 1545 H 154.395 -1.59043 4.82357 0
M  V30 1546 H 154.325 -3.23904 4.15203 0
M  V30 1547 H 156.816 -1.99291 3.21079 0
M  V30 1548 H 157.129 -3.53084 6.87424 0
M  V30 1549 H 155.474 -3.18156 6.17901 0
M  V30 1550 H 158.665 -2.39661 4.02095 0
M  V30 1551 H 158.838 -3.09812 5.6914 0
M  V30 1552 N 152.244 -1.26651 -0.937939 0
M  V30 1553 C 153.66 -1.03834 -1.21205 0
M  V30 1554 C 153.86 0.234502 -2.00131 0
M  V30 1555 O 152.916 0.942767 -2.3424 0
M  V30 1556 C 154.229 -2.27167 -1.97017 0
M  V30 1557 C 155.777 -2.32101 -2.09996 0
M  V30 1558 C 156.252 -3.55136 -2.8921 0
M  V30 1559 N 157.743 -3.55632 -2.96783 0
M  V30 1560 C 158.478 -4.475 -3.58512 0
M  V30 1561 N 157.974 -5.4966 -4.21717 0
M  V30 1562 N 159.767 -4.35145 -3.55816 0
M  V30 1563 H 151.918 -2.08398 -0.410391 0
M  V30 1564 H 154.181 -0.916031 -0.244114 0
M  V30 1565 H 153.887 -3.19765 -1.46434 0
M  V30 1566 H 153.761 -2.31672 -2.97671 0
M  V30 1567 H 156.148 -1.40015 -2.59769 0
M  V30 1568 H 156.229 -2.31605 -1.08594 0
M  V30 1569 H 155.873 -4.47553 -2.40123 0
M  V30 1570 H 155.803 -3.5288 -3.90875 0
M  V30 1571 H 158.294 -2.81743 -2.51852 0
M  V30 1572 H 158.607 -6.15943 -4.66727 0
M  V30 1573 H 156.952 -5.53514 -4.20294 0
M  V30 1574 H 160.143 -3.5455 -3.05634 0
M  V30 1575 H 160.316 -5.06934 -4.03636 0
M  V30 1576 N 153.722 1.14298 -1.08507 0
M  V30 1577 C 154.632 2.23027 -0.727753 0
M  V30 1578 C 155.648 1.71952 0.26619 0
M  V30 1579 O 156.824 2.011 0.109882 0
M  V30 1580 C 153.889 3.46403 -0.143541 0
M  V30 1581 C 152.95 4.12413 -1.19223 0
M  V30 1582 C 152.183 5.29899 -0.635798 0
M  V30 1583 O 152.406 5.67796 0.544393 0
M  V30 1584 O 151.34 5.85717 -1.38634 0
M  V30 1585 H 155.166 2.55945 -1.63481 0
M  V30 1586 H 152.751 1.22248 -0.858817 0
M  V30 1587 H 154.633 4.21018 0.179404 0
M  V30 1588 H 153.308 3.15206 0.736659 0
M  V30 1589 H 152.215 3.39667 -1.56772 0
M  V30 1590 H 153.548 4.47718 -2.04474 0
M  V30 1591 N 155.201 0.870884 1.31352 0
M  V30 1592 C 156.448 0.482273 1.96673 0
M  V30 1593 C 156.776 -0.965638 1.68836 0
M  V30 1594 O 156.031 -1.69514 0.977937 0
M  V30 1595 C 156.33 0.687157 3.50732 0
M  V30 1596 C 155.996 2.108 3.9859 0
M  V30 1597 C 154.658 2.49656 4.1137 0
M  V30 1598 C 157.01 3.03459 4.23748 0
M  V30 1599 C 154.338 3.80412 4.46659 0
M  V30 1600 C 156.69 4.3373 4.60501 0
M  V30 1601 C 155.354 4.725 4.71487 0
M  V30 1602 H 154.624 0.176476 0.719679 0
M  V30 1603 H 157.271 1.10405 1.56471 0
M  V30 1604 H 155.576 -0.0177476 3.91796 0
M  V30 1605 H 157.273 0.366284 3.99324 0
M  V30 1606 H 153.863 1.79633 3.8914 0
M  V30 1607 H 158.047 2.74665 4.13368 0
M  V30 1608 H 153.303 4.1021 4.53362 0
M  V30 1609 H 157.477 5.05578 4.78919 0
M  V30 1610 H 155.104 5.73859 4.98588 0
M  V30 1611 N 156.679 -1.44442 0.630414 0
M  V30 1612 C 157.609 -2.33418 -0.0618083 0
M  V30 1613 C 158.59 -1.48165 -0.835541 0
M  V30 1614 O 159.775 -1.76886 -0.801564 0
M  V30 1615 C 156.905 -3.31222 -1.04449 0
M  V30 1616 C 155.859 -4.26288 -0.382436 0
M  V30 1617 C 155.185 -5.13954 -1.47497 0
M  V30 1618 C 156.485 -5.1744 0.710865 0
M  V30 1619 H 158.179 -2.91548 0.681184 0
M  V30 1620 H 155.725 -1.40191 0.329026 0
M  V30 1621 H 157.678 -3.92351 -1.53748 0
M  V30 1622 H 156.402 -2.71299 -1.81836 0
M  V30 1623 H 155.061 -3.6649 0.0899054 0
M  V30 1624 H 154.709 -4.50385 -2.2397 0
M  V30 1625 H 154.409 -5.7837 -1.03737 0
M  V30 1626 H 155.933 -5.77955 -1.96979 0
M  V30 1627 H 157.347 -5.72509 0.300996 0
M  V30 1628 H 155.744 -5.90455 1.07156 0
M  V30 1629 H 156.814 -4.58496 1.57829 0
M  V30 1630 N 158.157 -0.370918 -1.53173 0
M  V30 1631 C 159.067 0.480823 -2.2962 0
M  V30 1632 C 160.083 1.08789 -1.35798 0
M  V30 1633 O 161.259 1.09768 -1.68858 0
M  V30 1634 C 158.324 1.60227 -3.07454 0
M  V30 1635 C 157.385 1.0222 -4.16953 0
M  V30 1636 C 156.618 2.0902 -4.91066 0
M  V30 1637 O 156.841 3.30222 -4.65091 0
M  V30 1638 O 155.775 1.71778 -5.76867 0
M  V30 1639 H 159.601 -0.141421 -3.03371 0
M  V30 1640 H 157.186 -0.135146 -1.48787 0
M  V30 1641 H 159.068 2.25417 -3.56041 0
M  V30 1642 H 157.743 2.20982 -2.36535 0
M  V30 1643 H 156.65 0.334064 -3.72605 0
M  V30 1644 H 157.983 0.459131 -4.90054 0
M  V30 1645 N 159.635 1.57281 -0.100228 0
M  V30 1646 C 160.582 2.14305 0.856858 0
M  V30 1647 C 161.552 1.06296 1.27634 0
M  V30 1648 O 162.737 1.34109 1.35718 0
M  V30 1649 C 159.877 2.73184 2.10866 0
M  V30 1650 C 158.99 3.95442 1.73925 0
M  V30 1651 C 158.125 4.42468 2.93931 0
M  V30 1652 C 157.164 5.57303 2.5314 0
M  V30 1653 N 156.301 5.99158 3.65997 0
M  V30 1654 H 161.141 2.95772 0.363726 0
M  V30 1655 H 158.678 1.46139 0.167858 0
M  V30 1656 H 160.636 3.05442 2.84185 0
M  V30 1657 H 159.266 1.94437 2.57671 0
M  V30 1658 H 158.318 3.69464 0.905554 0
M  V30 1659 H 159.63 4.78769 1.39935 0
M  V30 1660 H 158.784 4.76537 3.75496 0
M  V30 1661 H 157.523 3.58052 3.31134 0
M  V30 1662 H 156.528 5.22857 1.70003 0
M  V30 1663 H 157.753 6.43471 2.17075 0
M  V30 1664 H 155.699 5.17687 4.02909 0
M  V30 1665 H 155.616 6.77295 3.35869 0
M  V30 1666 H 156.884 6.3786 4.48057 0
M  V30 1667 N 161.113 -0.173488 1.56642 0
M  V30 1668 C 162.361 -0.888706 1.81512 0
M  V30 1669 C 162.682 -1.82875 0.676872 0
M  V30 1670 O 161.952 -1.93536 -0.303414 0
M  V30 1671 H 160.532 -0.331164 0.669582 0
M  V30 1672 H 163.194 -0.173823 1.94123 0
M  V30 1673 H 162.29 -1.46691 2.75478 0
M  V30 1674 N 162.591 -1.51276 -0.441967 0
M  V30 1675 C 163.837 -1.63958 -1.19355 0
M  V30 1676 C 164.17 -0.352543 -1.90973 0
M  V30 1677 O 163.445 0.647627 -1.83401 0
M  V30 1678 C 163.728 -2.83979 -2.21422 0
M  V30 1679 C 163.581 -4.22646 -1.53918 0
M  V30 1680 C 164.9 -2.99521 -3.22451 0
M  V30 1681 H 162.019 -0.596709 -0.432559 0
M  V30 1682 H 164.661 -1.83748 -0.483398 0
M  V30 1683 H 162.811 -2.67237 -2.81987 0
M  V30 1684 H 164.483 -4.51045 -0.967256 0
M  V30 1685 H 162.726 -4.25558 -0.841615 0
M  V30 1686 H 163.397 -5.02609 -2.28229 0
M  V30 1687 H 165.873 -3.14944 -2.71937 0
M  V30 1688 H 164.749 -3.85072 -3.91166 0
M  V30 1689 H 165.01 -2.11391 -3.88287 0
M  V30 1690 N 164.069 0.697108 -1.41344 0
M  V30 1691 C 165.017 1.83237 -1.43272 0
M  V30 1692 C 166.011 1.66522 -0.310947 0
M  V30 1693 O 167.217 1.73402 -0.482899 0
M  V30 1694 H 163.592 0.603802 -0.448249 0
M  V30 1695 H 165.563 1.78727 -2.38954 0
M  V30 1696 C 164.312 3.21245 -1.33029 0
M  V30 1697 H 163.635 3.34723 -2.18633 0
M  V30 1698 H 165.075 4.00763 -1.38439 0
M  V30 1699 C 163.534 3.36873 -0.0424635 0
M  V30 1700 O 164.064 3.91177 0.913421 0
M  V30 1701 N 162.27 2.90581 0.0331145 0
M  V30 1702 H 161.817 2.46577 -0.745506 0
M  V30 1703 H 161.775 3.01416 0.894199 0
M  V30 1704 N 165.547 1.27147 0.931209 0
M  V30 1705 C 166.51 1.09615 2.01289 0
M  V30 1706 C 167.51 0.0412581 1.60747 0
M  V30 1707 O 168.7 0.285545 1.71844 0
M  V30 1708 C 165.832 0.669447 3.34262 0
M  V30 1709 H 167.025 2.05662 2.18273 0
M  V30 1710 H 164.578 1.09885 1.11153 0
M  V30 1711 H 165.313 -0.292572 3.22978 0
M  V30 1712 H 165.098 1.43127 3.65044 0
M  V30 1713 H 166.588 0.568921 4.13706 0
M  V30 1714 N 167.025 -1.13721 1.09112 0
M  V30 1715 C 168.302 -1.81155 0.737706 0
M  V30 1716 C 168.682 -1.96253 -0.777683 0
M  V30 1717 O 168.03 -1.52807 -1.69889 0
M  V30 1718 C 168.24 -3.16392 1.47299 0
M  V30 1719 C 169.588 -3.91787 1.63671 0
M  V30 1720 O 170.612 -3.26005 1.43524 0
M  V30 1721 O 169.471 -5.0977 1.96969 0
M  V30 1722 H 166.565 -0.783518 0.26463 0
M  V30 1723 H 169.111 -1.20676 1.19312 0
M  V30 1724 H 167.883 -3.0061 2.50498 0
M  V30 1725 H 167.506 -3.8457 1.00953 0
M  V30 1726 N 168.503 -0.877838 -1.30888 0
M  V30 1727 C 169.919 -0.570844 -1.49042 0
M  V30 1728 C 170.119 0.893159 -1.80624 0
M  V30 1729 O 169.175 1.67485 -1.88958 0
M  V30 1730 C 170.488 -1.47784 -2.61878 0
M  V30 1731 C 172.036 -1.48071 -2.75761 0
M  V30 1732 C 172.511 -2.37347 -3.91702 0
M  V30 1733 N 174.002 -2.35271 -3.99001 0
M  V30 1734 C 174.737 -3.01063 -4.88004 0
M  V30 1735 N 174.233 -3.76055 -5.81854 0
M  V30 1736 N 176.026 -2.90332 -4.81315 0
M  V30 1737 H 168.177 -1.82502 -1.0866 0
M  V30 1738 H 170.44 -0.780797 -0.537644 0
M  V30 1739 H 170.146 -2.51993 -2.45341 0
M  V30 1740 H 170.02 -1.18215 -3.58197 0
M  V30 1741 H 172.407 -0.446166 -2.91708 0
M  V30 1742 H 172.488 -1.81668 -1.80085 0
M  V30 1743 H 172.132 -3.40883 -3.76512 0
M  V30 1744 H 172.062 -2.01071 -4.86701 0
M  V30 1745 H 174.553 -1.80768 -3.3186 0
M  V30 1746 H 174.866 -4.23366 -6.46514 0
M  V30 1747 H 173.211 -3.80163 -5.81808 0
M  V30 1748 H 176.402 -2.31278 -4.06974 0
M  V30 1749 H 176.575 -3.41885 -5.50471 0
M  V30 1750 N 169.982 1.44106 -0.638065 0
M  V30 1751 C 171.207 2.0685 -0.150916 0
M  V30 1752 C 171.632 1.47417 1.16833 0
M  V30 1753 O 170.99 0.578264 1.71831 0
M  V30 1754 C 171.038 3.60555 -0.05708 0
M  V30 1755 O 170.142 4.00465 0.984972 0
M  V30 1756 H 169.483 0.658151 -0.0879399 0
M  V30 1757 H 172.013 1.84865 -0.876707 0
M  V30 1758 H 172.023 4.07789 0.131232 0
M  V30 1759 H 170.698 4.03193 -1.02021 0
M  V30 1760 H 169.275 3.64849 0.770672 0
M  V30 1761 N 171.46 0.379036 1.52974 0
M  V30 1762 C 172.688 -0.20679 2.05864 0
M  V30 1763 C 173.103 -1.41356 1.25155 0
M  V30 1764 O 172.46 -1.8009 0.295588 0
M  V30 1765 C 172.511 -0.587045 3.56702 0
M  V30 1766 O 172.232 0.571776 4.34353 0
M  V30 1767 C 173.733 -1.22983 4.25899 0
M  V30 1768 H 170.953 -0.0336123 0.670158 0
M  V30 1769 H 173.497 0.541298 1.97206 0
M  V30 1770 H 171.652 -1.28504 3.65466 0
M  V30 1771 H 172.066 0.261544 5.23847 0
M  V30 1772 H 173.54 -1.44635 5.32715 0
M  V30 1773 H 174.017 -2.19416 3.80465 0
M  V30 1774 H 174.623 -0.572892 4.21424 0
M  V30 1775 N 172.938 -1.57226 0.108567 0
M  V30 1776 C 174.354 -1.5766 -0.248058 0
M  V30 1777 C 174.554 -1.12063 -1.67464 0
M  V30 1778 O 173.61 -0.803236 -2.39383 0
M  V30 1779 C 174.923 -3.0069 -0.0242287 0
M  V30 1780 C 176.471 -3.12868 -0.0909372 0
M  V30 1781 C 176.946 -4.57879 0.105067 0
M  V30 1782 N 178.437 -4.63172 0.0506846 0
M  V30 1783 C 179.172 -5.73126 0.177396 0
M  V30 1784 N 178.668 -6.91866 0.359696 0
M  V30 1785 N 180.461 -5.61977 0.117709 0
M  V30 1786 H 172.612 -1.85169 1.04049 0
M  V30 1787 H 174.875 -0.85529 0.40888 0
M  V30 1788 H 174.581 -3.38299 0.961604 0
M  V30 1789 H 174.455 -3.6945 -0.76068 0
M  V30 1790 H 176.842 -2.75124 -1.06729 0
M  V30 1791 H 176.923 -2.46672 0.677225 0
M  V30 1792 H 176.567 -4.96321 1.07834 0
M  V30 1793 H 176.497 -5.22153 -0.682954 0
M  V30 1794 H 178.988 -3.778 -0.0871266 0
M  V30 1795 H 179.301 -7.71503 0.447529 0
M  V30 1796 H 177.646 -6.93874 0.395536 0
M  V30 1797 H 180.837 -4.68094 -0.0236741 0
M  V30 1798 H 181.01 -6.47627 0.219905 0
M  V30 1799 N 174.416 0.165178 -1.56732 0
M  V30 1800 C 175.664 0.879068 -1.8198 0
M  V30 1801 C 175.985 1.82514 -0.686561 0
M  V30 1802 O 175.255 1.93694 0.293146 0
M  V30 1803 H 173.835 0.327608 -0.671329 0
M  V30 1804 H 176.497 0.163526 -1.94213 0
M  V30 1805 H 175.593 1.45228 -2.76252 0
M  V30 1806 N 175.894 1.51508 0.433938 0
M  V30 1807 C 176.842 1.73646 1.54757 0
M  V30 1808 C 177.836 0.602854 1.5831 0
M  V30 1809 O 179.042 0.784318 1.62014 0
M  V30 1810 H 175.417 0.548718 0.51421 0
M  V30 1811 H 177.388 2.66991 1.33261 0
M  V30 1812 C 176.137 1.88172 2.92381 0
M  V30 1813 H 175.46 2.74808 2.90381 0
M  V30 1814 H 176.9 2.07672 3.6966 0
M  V30 1815 C 175.359 0.64239 3.30719 0
M  V30 1816 O 175.889 -0.201362 4.01195 0
M  V30 1817 N 174.095 0.485489 2.86516 0
M  V30 1818 H 173.642 1.17318 2.29334 0
M  V30 1819 H 173.6 -0.342482 3.12529 0
M  V30 1820 N 177.372 -0.689602 1.41712 0
M  V30 1821 C 178.62 -1.4468 1.4111 0
M  V30 1822 C 178.941 -1.94986 0.0232196 0
M  V30 1823 O 178.211 -1.72097 -0.935913 0
M  V30 1824 H 176.791 -0.536847 0.519427 0
M  V30 1825 H 179.453 -0.815825 1.77004 0
M  V30 1826 H 178.549 -2.30706 2.10193 0
M  V30 1827 N 178.85 -1.27639 -0.924453 0
M  V30 1828 C 180.127 -1.04887 -1.651 0
M  V30 1829 C 180.507 0.415327 -2.06974 0
M  V30 1830 O 179.855 1.39923 -1.80648 0
M  V30 1831 C 180.065 -2.01348 -2.85061 0
M  V30 1832 C 181.413 -2.30899 -3.56329 0
M  V30 1833 O 182.437 -1.99348 -2.95193 0
M  V30 1834 O 181.296 -2.84699 -4.66485 0
M  V30 1835 H 178.39 -0.400083 -0.723784 0
M  V30 1836 H 180.936 -1.38916 -0.974703 0
M  V30 1837 H 179.708 -3.0008 -2.51133 0
M  V30 1838 H 179.331 -1.679 -3.6041 0
M  V30 1839 N 180.328 1.1314 -1.09713 0
M  V30 1840 C 181.575 1.84484 -0.834987 0
M  V30 1841 C 181.903 1.83689 0.639418 0
M  V30 1842 O 181.158 1.2724 1.4869 0
M  V30 1843 C 181.457 3.32167 -1.3191 0
M  V30 1844 C 181.123 3.53139 -2.80363 0
M  V30 1845 C 179.785 3.58571 -3.20905 0
M  V30 1846 C 182.137 3.60866 -3.76065 0
M  V30 1847 C 179.465 3.69267 -4.55916 0
M  V30 1848 C 181.817 3.73089 -5.10869 0
M  V30 1849 C 180.481 3.76775 -5.50996 0
M  V30 1850 H 179.751 0.675073 -0.305544 0
M  V30 1851 H 182.398 1.33554 -1.37243 0
M  V30 1852 H 180.703 3.85469 -0.701517 0
M  V30 1853 H 182.4 3.85821 -1.09284 0
M  V30 1854 H 178.99 3.49569 -2.47991 0
M  V30 1855 H 183.174 3.55946 -3.45855 0
M  V30 1856 H 178.43 3.70388 -4.86438 0
M  V30 1857 H 182.604 3.78011 -5.84877 0
M  V30 1858 H 180.231 3.84815 -6.55608 0
M  V30 1859 N 181.806 0.884767 1.30421 0
M  V30 1860 C 183.052 0.503851 1.96441 0
M  V30 1861 C 183.385 -0.944518 1.69684 0
M  V30 1862 O 182.66 -1.66737 1.00145 0
M  V30 1863 C 182.943 0.779085 3.51571 0
M  V30 1864 C 182.796 2.27807 3.87846 0
M  V30 1865 C 184.115 0.255452 4.39358 0
M  V30 1866 H 181.234 0.184533 0.713524 0
M  V30 1867 H 183.876 1.10872 1.54297 0
M  V30 1868 H 182.026 0.264274 3.876 0
M  V30 1869 H 183.698 2.86127 3.61841 0
M  V30 1870 H 181.941 2.74479 3.35922 0
M  V30 1871 H 182.612 2.42125 4.96064 0
M  V30 1872 H 185.088 0.696079 4.10236 0
M  V30 1873 H 183.964 0.477361 5.4682 0
M  V30 1874 H 184.225 -0.843293 4.33983 0
M  V30 1875 N 183.284 -1.43765 0.645699 0
M  V30 1876 C 184.7 -1.56509 0.312591 0
M  V30 1877 C 184.9 -1.6307 -1.18365 0
M  V30 1878 O 183.956 -1.58167 -1.96824 0
M  V30 1879 C 185.269 -2.82968 1.01733 0
M  V30 1880 C 186.817 -2.96701 0.996865 0
M  V30 1881 C 187.292 -4.25982 1.68236 0
M  V30 1882 N 188.783 -4.32829 1.64964 0
M  V30 1883 C 189.518 -5.31613 2.14885 0
M  V30 1884 N 189.014 -6.36718 2.73061 0
M  V30 1885 N 190.807 -5.23217 2.05428 0
M  V30 1886 H 182.958 -1.3775 1.61675 0
M  V30 1887 H 185.221 -0.661067 0.679481 0
M  V30 1888 H 184.927 -2.84156 2.0724 0
M  V30 1889 H 184.801 -3.72957 0.564177 0
M  V30 1890 H 187.188 -2.95058 -0.0497719 0
M  V30 1891 H 187.269 -2.08022 1.48865 0
M  V30 1892 H 186.913 -4.28386 2.72852 0
M  V30 1893 H 186.843 -5.13545 1.16529 0
M  V30 1894 H 189.334 -3.57493 1.22503 0
M  V30 1895 H 189.647 -7.08401 3.08848 0
M  V30 1896 H 187.992 -6.37362 2.77118 0
M  V30 1897 H 191.183 -4.40019 1.59689 0
M  V30 1898 H 191.356 -6.00045 2.44643 0
M  V30 1899 N 184.763 -0.387143 -1.52771 0
M  V30 1900 C 186.009 0.196025 -2.0185 0
M  V30 1901 C 186.342 1.46641 -1.27319 0
M  V30 1902 O 185.617 1.90889 -0.373032 0
M  V30 1903 C 185.9 0.466136 -3.5707 0
M  V30 1904 C 185.753 -0.819385 -4.42274 0
M  V30 1905 C 187.072 1.25768 -4.21747 0
M  V30 1906 H 184.191 0.0697708 -0.73369 0
M  V30 1907 H 186.833 -0.516286 -1.82851 0
M  V30 1908 H 184.983 1.07293 -3.7339 0
M  V30 1909 H 186.655 -1.4563 -4.37709 0
M  V30 1910 H 184.898 -1.43517 -4.09372 0
M  V30 1911 H 185.569 -0.585065 -5.48891 0
M  V30 1912 H 188.045 0.744167 -4.09391 0
M  V30 1913 H 186.921 1.41541 -5.30337 0
M  V30 1914 H 187.182 2.27228 -3.79236 0
M  V30 1915 N 186.241 1.57166 -0.116904 0
M  V30 1916 C 187.469 1.99473 0.549383 0
M  V30 1917 C 187.884 0.996541 1.60357 0
M  V30 1918 O 187.241 -0.0108731 1.82497 0
M  V30 1919 C 187.292 3.41788 1.17741 0
M  V30 1920 O 187.013 4.37788 0.165362 0
M  V30 1921 C 188.514 3.99216 1.92722 0
M  V30 1922 H 185.734 0.655009 0.145616 0
M  V30 1923 H 188.278 2.03494 -0.202625 0
M  V30 1924 H 186.433 3.38713 1.88021 0
M  V30 1925 H 186.847 5.20806 0.621403 0
M  V30 1926 H 188.321 5.00882 2.31995 0
M  V30 1927 H 188.798 3.3824 2.80161 0
M  V30 1928 H 189.404 4.0583 1.27209 0
M  V30 1929 N 187.719 -0.156864 1.56817 0
M  V30 1930 C 188.965 -0.867645 1.83966 0
M  V30 1931 C 189.32 -1.79233 0.699511 0
M  V30 1932 O 188.613 -1.89186 -0.303176 0
M  V30 1933 C 188.807 -1.68737 3.1506 0
M  V30 1934 C 188.636 -0.843548 4.41718 0
M  V30 1935 C 187.406 -0.512994 5.02689 0
M  V30 1936 C 189.604 -0.178416 5.1399 0
M  V30 1937 N 187.586 0.345456 6.12927 0
M  V30 1938 C 188.957 0.540586 6.17639 0
M  V30 1939 C 191.012 -0.0980696 4.97803 0
M  V30 1940 C 189.715 1.33233 7.06853 0
M  V30 1941 C 191.741 0.680387 5.87473 0
M  V30 1942 C 191.103 1.3877 6.90596 0
M  V30 1943 H 187.202 -0.295642 0.723961 0
M  V30 1944 H 189.786 -0.13365 1.94241 0
M  V30 1945 H 187.957 -2.39268 3.0595 0
M  V30 1946 H 189.689 -2.34056 3.30151 0
M  V30 1947 H 186.444 -0.846476 4.65974 0
M  V30 1948 H 186.868 0.765415 6.72659 0
M  V30 1949 H 191.51 -0.630562 4.18071 0
M  V30 1950 H 189.228 1.87612 7.8602 0
M  V30 1951 H 192.814 0.744415 5.77018 0
M  V30 1952 H 191.694 1.9804 7.58782 0
M  V30 1953 N 189.197 -1.51736 -0.425897 0
M  V30 1954 C 190.474 -1.55519 -1.1863 0
M  V30 1955 C 190.854 -0.326219 -2.08564 0
M  V30 1956 O 190.202 0.688012 -2.17896 0
M  V30 1957 C 190.412 -2.87521 -1.9782 0
M  V30 1958 C 191.76 -3.39899 -2.54468 0
M  V30 1959 O 192.784 -2.89148 -2.08019 0
M  V30 1960 O 191.643 -4.2848 -3.39215 0
M  V30 1961 H 188.737 -0.625739 -0.540721 0
M  V30 1962 H 191.283 -1.64055 -0.434038 0
M  V30 1963 H 190.055 -3.68422 -1.31836 0
M  V30 1964 H 189.678 -2.822 -2.80088 0
M  V30 1965 N 190.675 0.682077 -1.42076 0
M  V30 1966 C 191.585 1.82535 -1.47371 0
M  V30 1967 C 192.601 1.7017 -0.363079 0
M  V30 1968 O 193.777 1.91848 -0.612875 0
M  V30 1969 C 190.842 3.18624 -1.36674 0
M  V30 1970 C 189.903 3.42999 -2.58167 0
M  V30 1971 C 189.136 4.72595 -2.4797 0
M  V30 1972 O 189.359 5.50006 -1.5116 0
M  V30 1973 O 188.293 4.98054 -3.37974 0
M  V30 1974 H 192.119 1.81023 -2.43853 0
M  V30 1975 H 189.704 0.836887 -1.2376 0
M  V30 1976 H 191.586 3.99847 -1.33043 0
M  V30 1977 H 190.261 3.20789 -0.433138 0
M  V30 1978 H 189.168 2.61653 -2.67373 0
M  V30 1979 H 190.501 3.45659 -3.50401 0
M  V30 1980 N 192.153 1.28127 0.917671 0
M  V30 1981 C 193.116 1.11744 2.00115 0
M  V30 1982 C 194.116 0.0583052 1.60694 0
M  V30 1983 O 195.306 0.303755 1.71531 0
M  V30 1984 C 192.438 0.704862 3.33533 0
M  V30 1985 H 193.631 2.07966 2.16079 0
M  V30 1986 H 191.184 1.11058 1.09981 0
M  V30 1987 H 191.919 -0.258299 3.2327 0
M  V30 1988 H 191.704 1.4699 3.63505 0
M  V30 1989 H 193.194 0.612768 4.1308 0
M  V30 1990 N 193.631 -1.12557 1.10312 0
M  V30 1991 C 194.561 -2.20341 0.772798 0
M  V30 1992 C 195.542 -1.68198 -0.25365 0
M  V30 1993 O 196.727 -1.93831 -0.119699 0
M  V30 1994 C 193.857 -3.46709 0.202443 0
M  V30 1995 C 192.811 -4.11996 1.15943 0
M  V30 1996 C 192.137 -5.328 0.450345 0
M  V30 1997 C 193.437 -4.5828 2.50552 0
M  V30 1998 H 195.131 -2.48229 1.674 0
M  V30 1999 H 192.677 -1.19308 0.806326 0
M  V30 2000 H 194.63 -4.2138 -0.0407752 0
M  V30 2001 H 193.354 -3.18245 -0.734001 0
M  V30 2002 H 192.013 -3.39305 1.38808 0
M  V30 2003 H 191.661 -5.00602 -0.490531 0
M  V30 2004 H 191.361 -5.7743 1.08851 0
M  V30 2005 H 192.885 -6.10219 0.215642 0
M  V30 2006 H 194.299 -5.2433 2.31843 0
M  V30 2007 H 192.696 -5.13683 3.10242 0
M  V30 2008 H 193.766 -3.72329 3.10643 0
M  V30 2009 N 195.109 -0.891671 -1.2995 0
M  V30 2010 C 196.386 -0.433307 -1.9074 0
M  V30 2011 C 196.766 1.08646 -1.80995 0
M  V30 2012 O 196.114 1.92476 -1.23147 0
M  V30 2013 C 196.324 -0.938895 -3.36134 0
M  V30 2014 C 197.672 -0.977829 -4.13187 0
M  V30 2015 O 198.696 -0.886015 -3.45005 0
M  V30 2016 O 197.555 -1.11453 -5.35015 0
M  V30 2017 H 194.649 -0.133699 -0.816121 0
M  V30 2018 H 197.195 -0.981011 -1.38471 0
M  V30 2019 H 195.967 -1.98281 -3.37343 0
M  V30 2020 H 195.59 -0.37074 -3.95868 0
M  V30 2021 N 196.587 1.43421 -0.653314 0
M  V30 2022 C 197.517 2.33487 0.0246656 0
M  V30 2023 C 198.498 1.49475 0.811863 0
M  V30 2024 O 199.683 1.78139 0.773322 0
M  V30 2025 C 196.813 3.32841 0.99166 0
M  V30 2026 C 195.767 4.26842 0.314568 0
M  V30 2027 C 195.093 5.16236 1.39302 0
M  V30 2028 C 196.393 5.16243 -0.793095 0
M  V30 2029 H 198.087 2.90427 -0.727481 0
M  V30 2030 H 195.633 1.39649 -0.351287 0
M  V30 2031 H 197.586 3.94747 1.47487 0
M  V30 2032 H 196.31 2.74158 1.77497 0
M  V30 2033 H 194.969 3.663 -0.148199 0
M  V30 2034 H 194.617 4.53891 2.16776 0
M  V30 2035 H 194.317 5.79948 0.945223 0
M  V30 2036 H 195.841 5.81015 1.87759 0
M  V30 2037 H 197.255 5.71958 -0.392039 0
M  V30 2038 H 195.652 5.88676 -1.16536 0
M  V30 2039 H 196.722 4.55927 -1.65103 0
M  V30 2040 N 198.065 0.39524 1.52563 0
M  V30 2041 C 199.311 -0.185318 2.01952 0
M  V30 2042 C 199.644 -1.45964 1.28095 0
M  V30 2043 O 198.919 -1.90689 0.38315 0
M  V30 2044 C 199.202 -0.447193 3.57312 0
M  V30 2045 C 199.055 0.842828 4.41833 0
M  V30 2046 C 200.374 -1.23529 4.22408 0
M  V30 2047 H 197.493 -0.0658788 0.73405 0
M  V30 2048 H 200.135 0.525975 1.82575 0
M  V30 2049 H 198.285 -1.05312 3.73954 0
M  V30 2050 H 199.957 1.4795 4.36931 0
M  V30 2051 H 198.2 1.45686 4.08605 0
M  V30 2052 H 198.871 0.614165 5.48573 0
M  V30 2053 H 201.347 -0.722445 4.0978 0
M  V30 2054 H 200.223 -1.38727 5.3108 0
M  V30 2055 H 200.484 -2.25213 3.80436 0
M  V30 2056 N 199.544 -1.57102 0.125237 0
M  V30 2057 C 200.507 -2.14471 -0.80838 0
M  V30 2058 C 201.507 -1.0811 -1.19033 0
M  V30 2059 O 202.697 -1.33856 -1.11482 0
M  V30 2060 C 199.829 -2.69005 -2.09402 0
M  V30 2061 H 201.022 -2.98297 -0.309696 0
M  V30 2062 H 198.575 -1.55807 -0.124051 0
M  V30 2063 H 199.31 -1.88785 -2.63687 0
M  V30 2064 H 199.095 -3.46799 -1.82957 0
M  V30 2065 H 200.585 -3.13278 -2.76128 0
M  V30 2066 N 201.022 0.148545 -1.56898 0
M  V30 2067 C 202.438 0.501131 -1.51528 0
M  V30 2068 C 202.638 1.83458 -0.833399 0
M  V30 2069 O 201.694 2.49259 -0.40328 0
M  V30 2070 C 203.007 0.512864 -2.96294 0
M  V30 2071 C 204.555 0.598487 -3.07225 0
M  V30 2072 C 205.03 0.640897 -4.53494 0
M  V30 2073 N 206.521 0.703163 -4.57832 0
M  V30 2074 C 207.256 0.756935 -5.68382 0
M  V30 2075 N 206.752 0.770147 -6.88506 0
M  V30 2076 N 208.545 0.797698 -5.56411 0
M  V30 2077 H 200.696 -0.725532 -1.99624 0
M  V30 2078 H 202.959 -0.264358 -0.910395 0
M  V30 2079 H 202.665 -0.398691 -3.49433 0
M  V30 2080 H 202.539 1.35133 -3.52163 0
M  V30 2081 H 204.926 1.50046 -2.54106 0
M  V30 2082 H 205.007 -0.267093 -2.54402 0
M  V30 2083 H 204.651 -0.256915 -5.0725 0
M  V30 2084 H 204.581 1.52295 -5.04097 0
M  V30 2085 H 207.072 0.700314 -3.71354 0
M  V30 2086 H 207.385 0.812983 -7.68512 0
M  V30 2087 H 205.73 0.738049 -6.9107 0
M  V30 2088 H 208.921 0.784535 -4.61479 0
M  V30 2089 H 209.094 0.83614 -6.42583 0
M  V30 2090 N 202.5 1.5196 0.417844 0
M  V30 2091 C 203.41 1.77554 1.53336 0
M  V30 2092 C 204.426 0.660655 1.6097 0
M  V30 2093 O 205.602 0.945099 1.77848 0
M  V30 2094 C 202.667 1.91291 2.89152 0
M  V30 2095 C 201.728 3.15183 2.91475 0
M  V30 2096 C 200.961 3.28256 4.20813 0
M  V30 2097 O 201.184 2.46798 5.14244 0
M  V30 2098 O 200.118 4.21356 4.29817 0
M  V30 2099 H 203.944 2.7222 1.34647 0
M  V30 2100 H 201.529 1.36698 0.602828 0
M  V30 2101 H 203.411 2.02199 3.69721 0
M  V30 2102 H 202.086 0.998129 3.07927 0
M  V30 2103 H 200.993 3.09739 2.09791 0
M  V30 2104 H 202.326 4.06414 2.77648 0
M  V30 2105 N 203.978 -0.674533 1.42435 0
M  V30 2106 C 204.908 -1.80009 1.48724 0
M  V30 2107 C 205.889 -1.6659 0.343793 0
M  V30 2108 O 207.074 -1.86007 0.558137 0
M  V30 2109 C 204.204 -3.18306 1.38919 0
M  V30 2110 C 203.158 -3.46461 2.51294 0
M  V30 2111 C 202.484 -4.84335 2.26547 0
M  V30 2112 C 203.784 -3.43328 3.93603 0
M  V30 2113 H 205.478 -1.75004 2.42928 0
M  V30 2114 H 203.024 -0.840533 1.16923 0
M  V30 2115 H 204.977 -3.9678 1.41927 0
M  V30 2116 H 203.701 -3.2399 0.412094 0
M  V30 2117 H 202.36 -2.70348 2.47604 0
M  V30 2118 H 202.008 -4.86669 1.2713 0
M  V30 2119 H 201.708 -5.04136 3.01861 0
M  V30 2120 H 203.232 -5.65094 2.31304 0
M  V30 2121 H 204.646 -4.11772 3.98894 0
M  V30 2122 H 203.043 -3.74664 4.68771 0
M  V30 2123 H 204.113 -2.41897 4.20255 0
M  V30 2124 N 205.456 -1.28612 -0.910864 0
M  V30 2125 C 206.403 -1.12786 -2.01365 0
M  V30 2126 C 207.373 -0.024201 -1.66082 0
M  V30 2127 O 208.558 -0.189667 -1.89855 0
M  V30 2128 C 205.698 -0.798743 -3.35729 0
M  V30 2129 C 204.811 -1.98173 -3.83864 0
M  V30 2130 C 203.946 -1.59298 -5.06752 0
M  V30 2131 C 202.985 -2.74245 -5.47226 0
M  V30 2132 N 202.122 -2.35842 -6.61304 0
M  V30 2133 H 206.962 -2.07142 -2.14234 0
M  V30 2134 H 204.499 -1.03093 -1.0493 0
M  V30 2135 H 206.457 -0.588662 -4.13026 0
M  V30 2136 H 205.087 0.10789 -3.2262 0
M  V30 2137 H 204.139 -2.30386 -3.02699 0
M  V30 2138 H 205.451 -2.84343 -4.09818 0
M  V30 2139 H 204.605 -1.34513 -5.916 0
M  V30 2140 H 203.344 -0.702618 -4.82612 0
M  V30 2141 H 202.349 -2.99725 -4.60918 0
M  V30 2142 H 203.574 -3.63928 -5.73353 0
M  V30 2143 H 201.52 -1.49279 -6.38789 0
M  V30 2144 H 201.437 -3.15546 -6.86998 0
M  V30 2145 H 202.705 -2.14348 -7.4945 0
M  V30 2146 N 206.934 1.1197 -1.10907 0
M  V30 2147 C 208.35 1.35591 -0.841852 0
M  V30 2148 C 208.55 1.94233 0.536246 0
M  V30 2149 O 207.606 2.1717 1.28816 0
M  V30 2150 C 208.919 2.29284 -1.94549 0
M  V30 2151 C 210.467 2.42862 -1.97451 0
M  V30 2152 C 210.942 3.39873 -3.07002 0
M  V30 2153 N 212.433 3.47433 -3.06341 0
M  V30 2154 C 213.168 4.22421 -3.87748 0
M  V30 2155 N 212.664 5.00432 -4.79103 0
M  V30 2156 N 214.457 4.17876 -3.75946 0
M  V30 2157 H 206.608 0.722664 -1.99728 0
M  V30 2158 H 208.871 0.380635 -0.868229 0
M  V30 2159 H 208.577 1.93378 -2.93765 0
M  V30 2160 H 208.451 3.29452 -1.83688 0
M  V30 2161 H 210.838 2.78046 -0.988645 0
M  V30 2162 H 210.919 1.42566 -2.12388 0
M  V30 2163 H 210.563 3.05417 -4.05811 0
M  V30 2164 H 210.493 4.40011 -2.89306 0
M  V30 2165 H 212.984 2.91784 -2.40147 0
M  V30 2166 H 213.297 5.55002 -5.37766 0
M  V30 2167 H 211.642 4.99612 -4.83128 0
M  V30 2168 H 214.833 3.56016 -3.03924 0
M  V30 2169 H 215.006 4.76061 -4.39624 0
M  V30 2170 N 208.412 0.89855 1.29475 0
M  V30 2171 C 209.658 0.524658 1.95896 0
M  V30 2172 C 209.991 -0.926468 1.70676 0
M  V30 2173 O 209.266 -1.65665 1.01908 0
M  V30 2174 C 209.549 0.81633 3.50725 0
M  V30 2175 C 209.402 2.31907 3.85408 0
M  V30 2176 C 210.721 0.302038 4.39062 0
M  V30 2177 H 207.84 0.19209 0.711527 0
M  V30 2178 H 210.482 1.12502 1.53112 0
M  V30 2179 H 208.632 0.305369 3.87298 0
M  V30 2180 H 210.304 2.89949 3.58786 0
M  V30 2181 H 208.547 2.78027 3.32992 0
M  V30 2182 H 209.218 2.47373 4.93468 0
M  V30 2183 H 211.694 0.739551 4.09475 0
M  V30 2184 H 210.57 0.535331 5.46283 0
M  V30 2185 H 210.831 -0.797216 4.34853 0
M  V30 2186 N 209.89 -1.43072 0.660911 0
M  V30 2187 C 210.822 -2.29108 -0.0647641 0
M  V30 2188 C 211.835 -1.42928 -0.779448 0
M  V30 2189 O 213.024 -1.66788 -0.635921 0
M  V30 2190 C 210.124 -3.20032 -1.11503 0
M  V30 2191 C 209.297 -4.34792 -0.476955 0
M  V30 2192 C 208.356 -5.06534 -1.42513 0
M  V30 2193 O 207.382 -5.61538 -0.930771 0
M  V30 2194 N 208.584 -5.1075 -2.75889 0
M  V30 2195 H 211.349 -2.92029 0.673731 0
M  V30 2196 H 208.91 -1.53846 0.50427 0
M  V30 2197 H 210.902 -3.64892 -1.75032 0
M  V30 2198 H 209.472 -2.58658 -1.75541 0
M  V30 2199 H 208.692 -3.92752 0.337572 0
M  V30 2200 H 209.98 -5.0879 -0.0318525 0
M  V30 2201 H 209.378 -4.67447 -3.18606 0
M  V30 2202 H 207.935 -5.59302 -3.347 0
M  V30 2203 N 211.368 -0.403325 -1.52352 0
M  V30 2204 C 212.278 0.432009 -2.30588 0
M  V30 2205 C 213.294 1.05884 -1.38075 0
M  V30 2206 O 214.47 1.06161 -1.71148 0
M  V30 2207 C 211.535 1.53669 -3.10784 0
M  V30 2208 C 210.596 0.933525 -4.19027 0
M  V30 2209 C 209.829 1.98557 -4.9539 0
M  V30 2210 O 210.052 3.20283 -4.71991 0
M  V30 2211 O 208.986 1.59504 -5.80381 0
M  V30 2212 H 212.812 -0.205739 -3.03002 0
M  V30 2213 H 210.397 -0.166675 -1.48467 0
M  V30 2214 H 212.279 2.17814 -3.60742 0
M  V30 2215 H 210.954 2.15915 -2.41169 0
M  V30 2216 H 209.861 0.254954 -3.7323 0
M  V30 2217 H 211.194 0.35508 -4.90918 0
M  V30 2218 N 212.846 1.57033 -0.133567 0
M  V30 2219 C 214.071 2.00475 0.531477 0
M  V30 2220 C 214.496 1.01291 1.58499 0
M  V30 2221 O 213.854 -0.0133279 1.81295 0
M  V30 2222 C 213.902 3.42729 1.12113 0
M  V30 2223 O 213.006 3.46498 2.23636 0
M  V30 2224 H 212.347 0.650876 0.131362 0
M  V30 2225 H 214.877 2.03344 -0.22634 0
M  V30 2226 H 214.887 3.81246 1.4531 0
M  V30 2227 H 213.562 4.14428 0.349557 0
M  V30 2228 H 212.139 3.19811 1.91769 0
M  V30 2229 N 214.325 -0.140222 1.56975 0
M  V30 2230 C 215.555 -0.865181 1.87612 0
M  V30 2231 C 215.963 -1.74942 0.72055 0
M  V30 2232 O 215.306 -1.80917 -0.318561 0
M  V30 2233 C 215.368 -1.76782 3.13031 0
M  V30 2234 C 215.032 -1.06005 4.44536 0
M  V30 2235 C 216.029 -0.410768 5.18275 0
M  V30 2236 C 213.714 -1.04754 4.91255 0
M  V30 2237 C 215.708 0.241572 6.36942 0
M  V30 2238 C 213.395 -0.391394 6.09845 0
M  V30 2239 C 214.393 0.252029 6.82535 0
M  V30 2240 O 214.081 0.897757 7.98871 0
M  V30 2241 H 213.813 -0.255188 0.625983 0
M  V30 2242 H 216.367 -0.135653 2.04952 0
M  V30 2243 H 214.597 -2.53846 2.91718 0
M  V30 2244 H 216.286 -2.36533 3.29859 0
M  V30 2245 H 217.052 -0.412195 4.83245 0
M  V30 2246 H 212.931 -1.53777 4.34596 0
M  V30 2247 H 216.475 0.744375 6.93617 0
M  V30 2248 H 212.372 -0.387656 6.44335 0
M  V30 2249 H 213.14 0.800102 8.1458 0
M  V30 2250 N 215.803 -1.52179 -0.40978 0
M  V30 2251 C 217.051 -1.65878 -1.15451 0
M  V30 2252 C 217.372 -0.390771 -1.91044 0
M  V30 2253 O 216.642 0.594323 -1.86667 0
M  V30 2254 H 215.222 -0.611405 -0.429177 0
M  V30 2255 H 217.884 -1.89219 -0.467134 0
M  V30 2256 H 216.98 -2.49954 -1.86894 0
M  V30 2257 N 217.281 0.66697 -1.42791 0
M  V30 2258 C 218.692 1.2478 -1.38877 0
M  V30 2259 C 219.043 1.96012 -0.0859426 0
M  V30 2260 O 218.168 2.00463 0.815081 0
M  V30 2261 C 218.763 2.26938 -2.51564 0
M  V30 2262 C 217.322 2.80529 -2.50959 0
M  V30 2263 C 216.469 1.54965 -2.29959 0
M  V30 2264 H 219.42 0.459853 -1.51892 0
M  V30 2265 H 219.441 3.08834 -2.22265 0
M  V30 2266 H 218.953 1.75065 -3.46372 0
M  V30 2267 H 217.054 3.36502 -1.59991 0
M  V30 2268 H 217.167 3.29012 -3.48265 0
M  V30 2269 H 215.531 1.81817 -1.78366 0
M  V30 2270 H 216.314 1.05047 -3.26833 0
M  V30 2271 N 218.759 1.29093 0.90403 0
M  V30 2272 C 219.987 1.19689 1.68766 0
M  V30 2273 C 220.402 -0.243113 1.87228 0
M  V30 2274 O 219.759 -1.16326 1.40621 0
M  V30 2275 C 219.81 1.90144 3.07453 0
M  V30 2276 O 219.531 3.2852 2.89838 0
M  V30 2277 C 221.032 1.87162 4.01852 0
M  V30 2278 H 218.252 0.415035 0.527244 0
M  V30 2279 H 220.796 1.7039 1.13082 0
M  V30 2280 H 218.951 1.43289 3.59926 0
M  V30 2281 H 219.365 3.63944 3.77684 0
M  V30 2282 H 220.839 2.41032 4.96596 0
M  V30 2283 H 221.316 0.84617 4.30972 0
M  V30 2284 H 221.922 2.33741 3.5531 0
M  V30 2285 N 220.237 -1.11381 1.11499 0
M  V30 2286 C 221.485 -1.8277 0.862524 0
M  V30 2287 C 221.806 -1.85097 -0.613534 0
M  V30 2288 O 221.076 -1.32198 -1.4457 0
M  V30 2289 H 219.656 -0.676823 0.316101 0
M  V30 2290 H 222.318 -1.34816 1.4075 0
M  V30 2291 H 221.414 -2.86614 1.23527 0
M  V30 2292 N 221.715 -0.905404 -1.28997 0
M  V30 2293 C 222.943 -0.549846 -1.9946 0
M  V30 2294 C 223.358 0.866834 -1.67724 0
M  V30 2295 O 222.715 1.57298 -0.925404 0
M  V30 2296 C 222.766 -0.739387 -3.53858 0
M  V30 2297 O 222.487 -2.10031 -3.84472 0
M  V30 2298 C 223.988 -0.389541 -4.41585 0
M  V30 2299 H 221.208 -0.210429 -0.637151 0
M  V30 2300 H 223.752 -1.21632 -1.64396 0
M  V30 2301 H 221.907 -0.120023 -3.87214 0
M  V30 2302 H 222.321 -2.13385 -4.79132 0
M  V30 2303 H 223.795 -0.572972 -5.49018 0
M  V30 2304 H 224.272 0.673756 -4.34001 0
M  V30 2305 H 224.878 -0.986089 -4.1371 0
M  V30 2306 N 223.193 1.4272 -0.668489 0
M  V30 2307 C 224.44 2.01624 -0.18814 0
M  V30 2308 C 224.768 1.5282 1.20317 0
M  V30 2309 O 224.023 0.718323 1.8204 0
M  V30 2310 C 224.322 3.57021 -0.164499 0
M  V30 2311 C 223.988 4.25232 -1.49962 0
M  V30 2312 C 222.65 4.4358 -1.8652 0
M  V30 2313 C 225.002 4.63727 -2.37921 0
M  V30 2314 C 222.33 4.97694 -3.10674 0
M  V30 2315 C 224.682 5.19218 -3.6138 0
M  V30 2316 C 223.346 5.3578 -3.98115 0
M  V30 2317 H 222.616 0.737795 -0.0688454 0
M  V30 2318 H 225.263 1.70991 -0.862225 0
M  V30 2319 H 223.568 3.87285 0.593079 0
M  V30 2320 H 225.265 4.00372 0.224271 0
M  V30 2321 H 221.855 4.11306 -1.20522 0
M  V30 2322 H 226.039 4.4923 -2.10964 0
M  V30 2323 H 221.295 5.08702 -3.39164 0
M  V30 2324 H 225.469 5.4799 -4.29743 0
M  V30 2325 H 223.096 5.77475 -4.94395 0
M  V30 2326 N 224.671 0.411399 1.52136 0
M  V30 2327 C 225.919 -0.163322 2.01439 0
M  V30 2328 C 226.24 -1.45453 1.29879 0
M  V30 2329 O 225.51 -1.91225 0.4254 0
M  V30 2330 H 224.09 -0.0633447 0.744309 0
M  V30 2331 H 226.752 0.548161 1.87033 0
M  V30 2332 H 225.848 -0.357817 3.10042 0
M  V30 2333 N 226.149 -1.5696 0.141893 0
M  V30 2334 C 227.397 -1.95573 -0.509484 0
M  V30 2335 C 227.718 -1.02746 -1.65736 0
M  V30 2336 O 226.988 -0.0880311 -1.95702 0
M  V30 2337 H 225.568 -0.722115 -0.191205 0
M  V30 2338 H 228.23 -1.93697 0.216196 0
M  V30 2339 H 227.326 -2.99171 -0.889 0
M  V30 2340 N 227.627 0.131896 -1.57047 0
M  V30 2341 C 228.852 0.860418 -1.8871 0
M  V30 2342 C 229.277 1.73251 -0.73251 0
M  V30 2343 O 228.635 1.785 0.317429 0
M  V30 2344 C 228.683 1.68047 -3.19049 0
M  V30 2345 O 227.787 2.7862 -3.04047 0
M  V30 2346 H 227.128 0.238743 -0.619595 0
M  V30 2347 H 229.658 0.118169 -2.04258 0
M  V30 2348 H 229.668 2.07238 -3.51449 0
M  V30 2349 H 228.343 1.04018 -4.02682 0
M  V30 2350 H 226.92 2.42726 -2.83088 0
M  V30 2351 N 229.106 1.52395 0.401703 0
M  V30 2352 C 230.336 1.70429 1.1678 0
M  V30 2353 C 230.744 0.416702 1.84554 0
M  V30 2354 O 230.087 -0.617697 1.73003 0
M  V30 2355 C 230.149 2.78919 2.26814 0
M  V30 2356 C 229.813 4.20437 1.79113 0
M  V30 2357 C 230.81 5.04028 1.27482 0
M  V30 2358 C 228.495 4.66704 1.85722 0
M  V30 2359 C 230.489 6.31961 0.830913 0
M  V30 2360 C 228.176 5.94625 1.40942 0
M  V30 2361 C 229.174 6.77082 0.897128 0
M  V30 2362 O 228.862 8.02607 0.455822 0
M  V30 2363 H 228.594 0.574272 0.356634 0
M  V30 2364 H 231.148 1.99767 0.477724 0
M  V30 2365 H 229.378 2.44973 2.99207 0
M  V30 2366 H 231.067 2.8548 2.88541 0
M  V30 2367 H 231.833 4.69471 1.21744 0
M  V30 2368 H 227.712 4.0262 2.24539 0
M  V30 2369 H 231.256 6.96271 0.430368 0
M  V30 2370 H 227.153 6.28688 1.46362 0
M  V30 2371 H 227.921 8.16453 0.578457 0
M  V30 2372 N 230.584 -0.659388 1.43143 0
M  V30 2373 C 231.832 -1.41654 1.44147 0
M  V30 2374 C 232.153 -1.94893 0.0645739 0
M  V30 2375 O 231.423 -1.74044 -0.899198 0
M  V30 2376 H 230.003 -0.525708 0.530697 0
M  V30 2377 H 232.665 -0.778097 1.78694 0
M  V30 2378 H 231.761 -2.26195 2.1504 0
M  V30 2379 N 232.062 -1.29571 -0.897171 0
M  V30 2380 C 233.308 -1.18873 -1.65048 0
M  V30 2381 C 233.663 0.256707 -1.9068 0
M  V30 2382 O 232.956 1.18202 -1.50794 0
M  V30 2383 C 233.15 -1.9382 -3.00281 0
M  V30 2384 C 232.979 -3.45503 -2.8785 0
M  V30 2385 C 231.749 -4.14856 -2.88483 0
M  V30 2386 C 233.947 -4.40956 -2.64693 0
M  V30 2387 N 231.929 -5.52886 -2.66815 0
M  V30 2388 C 233.3 -5.66464 -2.5203 0
M  V30 2389 C 235.355 -4.3069 -2.49821 0
M  V30 2390 C 234.058 -6.82871 -2.26008 0
M  V30 2391 C 236.084 -5.46852 -2.25182 0
M  V30 2392 C 235.446 -6.71333 -2.13286 0
M  V30 2393 H 231.545 -0.489998 -0.609447 0
M  V30 2394 H 234.129 -1.63431 -1.05822 0
M  V30 2395 H 232.3 -1.51671 -3.57562 0
M  V30 2396 H 234.032 -1.75366 -3.64731 0
M  V30 2397 H 230.787 -3.66579 -2.99861 0
M  V30 2398 H 231.211 -6.25487 -2.59027 0
M  V30 2399 H 235.853 -3.35141 -2.5776 0
M  V30 2400 H 233.571 -7.78473 -2.16806 0
M  V30 2401 H 237.157 -5.40809 -2.14515 0
M  V30 2402 H 236.037 -7.59701 -1.94485 0
M  V30 2403 N 233.54 1.10788 -1.12088 0
M  V30 2404 C 234.487 2.17025 -0.785407 0
M  V30 2405 C 235.457 1.64265 0.246191 0
M  V30 2406 O 236.642 1.90412 0.121584 0
M  V30 2407 C 233.782 3.44249 -0.242177 0
M  V30 2408 C 232.895 4.1098 -1.33115 0
M  V30 2409 C 232.03 5.25911 -0.747741 0
M  V30 2410 C 231.069 5.84538 -1.81609 0
M  V30 2411 N 230.206 6.90853 -1.25167 0
M  V30 2412 H 235.046 2.45066 -1.69548 0
M  V30 2413 H 232.583 1.20297 -0.846582 0
M  V30 2414 H 234.541 4.17101 0.0908026 0
M  V30 2415 H 233.171 3.16571 0.631072 0
M  V30 2416 H 232.223 3.36133 -1.78097 0
M  V30 2417 H 233.535 4.50601 -2.13917 0
M  V30 2418 H 232.689 6.056 -0.365216 0
M  V30 2419 H 231.428 4.87614 0.0915188 0
M  V30 2420 H 230.433 5.03522 -2.20785 0
M  V30 2421 H 231.658 6.249 -2.6585 0
M  V30 2422 H 229.604 6.54562 -0.434174 0
M  V30 2423 H 229.521 7.29166 -1.99633 0
M  V30 2424 H 230.789 7.7433 -0.896259 0
M  V30 2425 N 235.018 0.912232 1.28515 0
M  V30 2426 C 236.243 0.559774 1.99703 0
M  V30 2427 C 236.668 -0.851393 1.67729 0
M  V30 2428 O 236.026 -1.56875 0.908834 0
M  V30 2429 C 236.074 0.773874 3.52198 0
M  V30 2430 O 235.178 -0.167842 4.12058 0
M  V30 2431 H 234.519 0.21723 0.627461 0
M  V30 2432 H 237.049 1.22725 1.63706 0
M  V30 2433 H 237.059 0.683386 4.02236 0
M  V30 2434 H 235.734 1.80261 3.74805 0
M  V30 2435 H 234.311 -0.0287509 3.72889 0
M  V30 2436 N 236.496 -1.42363 0.676048 0
M  V30 2437 C 237.907 -1.84649 0.275948 0
M  V30 2438 C 238.258 -1.56588 -1.18214 0
M  V30 2439 O 237.383 -1.02634 -1.90513 0
M  V30 2440 C 237.978 -3.35178 0.494053 0
M  V30 2441 C 236.537 -3.76109 0.148061 0
M  V30 2442 C 235.684 -2.65931 0.785891 0
M  V30 2443 H 238.635 -1.32192 0.878121 0
M  V30 2444 H 238.656 -3.79655 -0.25343 0
M  V30 2445 H 238.168 -3.55571 1.55535 0
M  V30 2446 H 236.269 -3.61323 -0.909742 0
M  V30 2447 H 236.382 -4.7546 0.589454 0
M  V30 2448 H 234.746 -2.53773 0.217113 0
M  V30 2449 H 235.529 -2.89146 1.85067 0
M  V30 2450 N 237.974 -0.419461 -1.51915 0
M  V30 2451 C 239.222 0.152637 -2.01523 0
M  V30 2452 C 239.543 1.44762 -1.30649 0
M  V30 2453 O 238.813 1.90997 -0.435535 0
M  V30 2454 H 237.393 0.0593966 -0.744635 0
M  V30 2455 H 240.055 -0.558073 -1.86739 0
M  V30 2456 H 239.151 0.341369 -3.10227 0
M  V30 2457 N 239.452 1.56882 -0.150215 0
M  V30 2458 C 240.868 1.58263 0.20617 0
M  V30 2459 C 241.068 1.16464 1.64434 0
M  V30 2460 O 240.124 0.866422 2.3717 0
M  V30 2461 C 241.437 3.00649 -0.0555025 0
M  V30 2462 C 242.985 3.12999 0.00795388 0
M  V30 2463 C 243.46 4.5744 -0.226429 0
M  V30 2464 N 244.951 4.62875 -0.173469 0
M  V30 2465 C 245.686 5.72454 -0.329288 0
M  V30 2466 N 245.182 6.90669 -0.543005 0
M  V30 2467 N 246.975 5.61467 -0.266666 0
M  V30 2468 H 239.126 1.82345 -1.08922 0
M  V30 2469 H 241.389 0.844149 -0.431413 0
M  V30 2470 H 241.095 3.3563 -1.05096 0
M  V30 2471 H 240.969 3.71337 0.66246 0
M  V30 2472 H 243.356 2.77857 0.993966 0
M  V30 2473 H 243.437 2.4479 -0.742388 0
M  V30 2474 H 243.081 4.93287 -1.20956 0
M  V30 2475 H 243.011 5.2378 0.544274 0
M  V30 2476 H 245.502 3.77898 -0.0130709 0
M  V30 2477 H 245.815 7.70045 -0.651922 0
M  V30 2478 H 244.16 6.92581 -0.579366 0
M  V30 2479 H 247.351 4.67992 -0.100441 0
M  V30 2480 H 247.524 6.46816 -0.391535 0
M  V30 2481 N 240.93 -0.123565 1.57115 0
M  V30 2482 C 241.86 -1.15309 2.03042 0
M  V30 2483 C 242.841 -1.43454 0.914061 0
M  V30 2484 O 244.026 -1.53973 1.18347 0
M  V30 2485 C 241.156 -2.48043 2.43089 0
M  V30 2486 C 240.11 -2.3437 3.58127 0
M  V30 2487 C 239.436 -3.72026 3.84059 0
M  V30 2488 C 240.736 -1.80804 4.90007 0
M  V30 2489 H 242.43 -0.771102 2.893 0
M  V30 2490 H 239.976 -0.369479 1.39179 0
M  V30 2491 H 241.929 -3.20311 2.73823 0
M  V30 2492 H 240.653 -2.88122 1.53796 0
M  V30 2493 H 239.312 -1.64551 3.27595 0
M  V30 2494 H 238.96 -4.09582 2.91979 0
M  V30 2495 H 238.66 -3.63732 4.6149 0
M  V30 2496 H 240.184 -4.45806 4.1724 0
M  V30 2497 H 241.598 -2.42886 5.19307 0
M  V30 2498 H 239.995 -1.83343 5.71407 0
M  V30 2499 H 241.065 -0.76528 4.78823 0
M  V30 2500 N 242.408 -1.52605 -0.393616 0
M  V30 2501 C 243.358 -1.73436 -1.48 0
M  V30 2502 C 244.342 -0.588386 -1.49756 0
M  V30 2503 O 245.534 -0.846047 -1.5547 0
M  V30 2504 C 242.663 -1.90247 -2.85764 0
M  V30 2505 C 241.749 -3.10763 -2.88595 0
M  V30 2506 N 242.14 -4.33196 -2.61103 0
M  V30 2507 C 240.438 -3.10914 -3.19763 0
M  V30 2508 C 241.139 -5.1477 -2.70899 0
M  V30 2509 N 240.115 -4.50356 -3.04435 0
M  V30 2510 H 243.917 -2.65727 -1.25563 0
M  V30 2511 H 241.431 -1.5085 -0.601513 0
M  V30 2512 H 243.428 -2.03291 -3.63976 0
M  V30 2513 H 242.088 -0.991663 -3.09186 0
M  V30 2514 H 243.099 -4.61408 -2.35209 0
M  V30 2515 H 239.776 -2.29626 -3.4868 0
M  V30 2516 H 241.166 -6.22355 -2.53227 0
M  V30 2517 N 243.887 0.651787 -1.4349 0
M  V30 2518 C 244.835 1.78586 -1.49029 0
M  V30 2519 C 245.829 1.65448 -0.363767 0
M  V30 2520 O 247.035 1.71777 -0.537821 0
M  V30 2521 H 243.41 0.589236 -0.467231 0
M  V30 2522 H 245.381 1.71035 -2.44519 0
M  V30 2523 C 244.13 3.16851 -1.43181 0
M  V30 2524 H 243.453 3.27598 -2.29171 0
M  V30 2525 H 244.893 3.96156 -1.51118 0
M  V30 2526 C 243.352 3.36568 -0.149616 0
M  V30 2527 O 243.882 3.93885 0.788509 0
M  V30 2528 N 242.088 2.90539 -0.0593484 0
M  V30 2529 H 241.635 2.4408 -0.823575 0
M  V30 2530 H 241.593 3.04108 0.797853 0
M  V30 2531 N 245.365 1.30045 0.890287 0
M  V30 2532 C 246.605 1.19839 1.65584 0
M  V30 2533 C 246.969 -0.244175 1.90441 0
M  V30 2534 O 248.17 -0.469378 2.6467 0
M  V30 2535 C 246.441 1.99876 2.96284 0
M  V30 2536 S 248 2.06309 3.87275 0
M  V30 2537 H 244.818 0.427157 0.568382 0
M  V30 2538 H 247.42 1.64453 1.05715 0
M  V30 2539 H 246.124 3.03809 2.75913 0
M  V30 2540 H 245.655 1.55903 3.61189 0
M  V30 2541 H 247.67 1.18661 4.81803 0
M  V30 2542 N 246.843 -1.10192 1.12674 0
M  V30 2543 C 247.775 -2.16418 0.754701 0
M  V30 2544 C 248.788 -1.61309 -0.21986 0
M  V30 2545 O 249.977 -1.785 -0.000826841 0
M  V30 2546 C 247.077 -3.38762 0.096698 0
M  V30 2547 C 246.25 -4.23307 1.10136 0
M  V30 2548 C 245.309 -5.24092 0.470513 0
M  V30 2549 O 244.335 -5.57906 1.12824 0
M  V30 2550 N 245.537 -5.75491 -0.760948 0
M  V30 2551 H 248.302 -2.48943 1.66875 0
M  V30 2552 H 245.863 -1.25834 1.01869 0
M  V30 2553 H 247.855 -4.03291 -0.337384 0
M  V30 2554 H 246.425 -3.04192 -0.720153 0
M  V30 2555 H 245.645 -3.55036 1.71299 0
M  V30 2556 H 246.933 -4.76624 1.78064 0
M  V30 2557 H 246.331 -5.50222 -1.31424 0
M  V30 2558 H 244.888 -6.41792 -1.13781 0
M  V30 2559 N 248.321 -0.919034 -1.28029 0
M  V30 2560 C 249.567 -0.555757 -1.95036 0
M  V30 2561 C 249.9 0.899198 -1.72128 0
M  V30 2562 O 249.175 1.64023 -1.04531 0
M  V30 2563 C 249.458 -0.872024 -3.49382 0
M  V30 2564 C 249.311 -2.3801 -3.81669 0
M  V30 2565 C 250.63 -0.37185 -4.38526 0
M  V30 2566 H 247.749 -0.203386 -0.708381 0
M  V30 2567 H 250.391 -1.14924 -1.51303 0
M  V30 2568 H 248.541 -0.366946 -3.86763 0
M  V30 2569 H 250.213 -2.9562 -3.54128 0
M  V30 2570 H 248.456 -2.83289 -3.28526 0
M  V30 2571 H 249.127 -2.55192 -4.8947 0
M  V30 2572 H 251.603 -0.804602 -4.08247 0
M  V30 2573 H 250.479 -0.622173 -5.45362 0
M  V30 2574 H 250.74 0.727934 -4.36066 0
M  V30 2575 N 249.799 1.42003 -0.683588 0
M  V30 2576 C 250.729 2.33487 -0.024866 0
M  V30 2577 C 251.71 1.51163 0.779975 0
M  V30 2578 O 252.895 1.79739 0.735362 0
M  V30 2579 C 250.025 3.3487 0.920836 0
M  V30 2580 C 248.979 4.27414 0.223958 0
M  V30 2581 C 248.305 5.19074 1.2832 0
M  V30 2582 C 249.605 5.14445 -0.90242 0
M  V30 2583 H 251.299 2.88819 -0.788921 0
M  V30 2584 H 248.845 1.38873 -0.38083 0
M  V30 2585 H 250.798 3.97787 1.39081 0
M  V30 2586 H 249.522 2.77861 1.71642 0
M  V30 2587 H 248.181 3.65904 -0.225864 0
M  V30 2588 H 247.829 4.58387 2.071 0
M  V30 2589 H 247.529 5.81822 0.821995 0
M  V30 2590 H 249.053 5.84867 1.75392 0
M  V30 2591 H 250.467 5.70998 -0.513272 0
M  V30 2592 H 248.864 5.86072 -1.28997 0
M  V30 2593 H 249.934 4.52322 -1.74737 0
M  V30 2594 N 251.277 0.427512 1.51691 0
M  V30 2595 C 252.21 -0.433876 2.24037 0
M  V30 2596 C 253.188 -1.03287 1.25581 0
M  V30 2597 O 254.372 -1.07722 1.54688 0
M  V30 2598 C 251.499 -1.60385 2.98319 0
M  V30 2599 C 250.545 -1.12648 4.11355 0
M  V30 2600 S 251.378 -0.076543 5.35445 0
M  V30 2601 C 252.534 -1.25141 6.13262 0
M  V30 2602 H 252.767 0.180367 2.96752 0
M  V30 2603 H 250.3 0.211946 1.52938 0
M  V30 2604 H 252.258 -2.27462 3.41718 0
M  V30 2605 H 250.919 -2.18948 2.25213 0
M  V30 2606 H 250.112 -2.0011 4.62571 0
M  V30 2607 H 249.714 -0.534088 3.70167 0
M  V30 2608 H 252.006 -2.17162 6.41753 0
M  V30 2609 H 252.949 -0.779411 7.03797 0
M  V30 2610 H 253.357 -1.48553 5.44603 0
M  V30 2611 N 252.755 -1.56801 0.158532 0
M  V30 2612 C 254.171 -1.5837 -0.197774 0
M  V30 2613 C 254.371 -1.17334 -1.63814 0
M  V30 2614 O 253.427 -0.878988 -2.36707 0
M  V30 2615 C 254.74 -3.00615 0.0714459 0
M  V30 2616 C 256.288 -3.12999 0.00864533 0
M  V30 2617 C 256.763 -4.57313 0.250685 0
M  V30 2618 N 258.254 -4.62777 0.198014 0
M  V30 2619 C 258.989 -5.72271 0.359642 0
M  V30 2620 N 258.485 -6.90371 0.579625 0
M  V30 2621 N 260.278 -5.61318 0.296438 0
M  V30 2622 H 252.429 -1.81765 1.09887 0
M  V30 2623 H 254.692 -0.841849 0.435884 0
M  V30 2624 H 254.398 -3.35068 1.06874 0
M  V30 2625 H 254.272 -3.71683 -0.642757 0
M  V30 2626 H 256.659 -2.7838 -0.979217 0
M  V30 2627 H 256.74 -2.44393 0.755359 0
M  V30 2628 H 256.384 -4.92639 1.2357 0
M  V30 2629 H 256.314 -5.24061 -0.516489 0
M  V30 2630 H 258.805 -3.77885 0.0331115 0
M  V30 2631 H 259.118 -7.69689 0.69275 0
M  V30 2632 H 257.463 -6.92264 0.616087 0
M  V30 2633 H 260.654 -4.67932 0.125258 0
M  V30 2634 H 260.827 -6.46599 0.425831 0
M  V30 2635 N 254.233 0.115231 -1.57178 0
M  V30 2636 C 255.649 0.468877 -1.52557 0
M  V30 2637 C 255.849 1.81649 -0.872125 0
M  V30 2638 O 254.905 2.48347 -0.45606 0
M  V30 2639 C 256.218 0.4499 -2.97315 0
M  V30 2640 C 257.766 0.533185 -3.08425 0
M  V30 2641 C 258.241 0.54456 -4.54751 0
M  V30 2642 N 259.732 0.605892 -4.5922 0
M  V30 2643 C 260.467 0.636203 -5.6986 0
M  V30 2644 N 259.963 0.623931 -6.89985 0
M  V30 2645 N 261.756 0.679496 -5.57978 0
M  V30 2646 H 253.907 -0.767712 -1.9804 0
M  V30 2647 H 256.17 -0.283609 -0.904583 0
M  V30 2648 H 255.876 -0.472721 -3.48509 0
M  V30 2649 H 255.75 1.27632 -3.5495 0
M  V30 2650 H 258.137 1.44623 -2.57232 0
M  V30 2651 H 258.218 -0.320995 -2.53778 0
M  V30 2652 H 257.862 -0.364452 -5.06591 0
M  V30 2653 H 257.792 1.41568 -5.07214 0
M  V30 2654 H 260.283 0.621386 -3.72756 0
M  V30 2655 H 260.596 0.649787 -7.70063 0
M  V30 2656 H 258.941 0.591296 -6.9248 0
M  V30 2657 H 262.132 0.686472 -4.63039 0
M  V30 2658 H 262.305 0.69965 -6.44212 0
M  V30 2659 N 255.711 1.52812 0.385517 0
M  V30 2660 C 256.674 1.77188 1.45386 0
M  V30 2661 C 257.674 0.641953 1.4743 0
M  V30 2662 O 258.864 0.910033 1.4854 0
M  V30 2663 C 255.996 1.87582 2.8465 0
M  V30 2664 H 257.189 2.72583 1.25054 0
M  V30 2665 H 254.742 1.43586 0.617467 0
M  V30 2666 H 255.477 0.941849 3.10322 0
M  V30 2667 H 255.262 2.69748 2.84567 0
M  V30 2668 H 256.752 2.08102 3.62054 0
M  V30 2669 N 257.189 -0.644168 1.43834 0
M  V30 2670 C 258.119 -1.76814 1.52509 0
M  V30 2671 C 259.1 -1.65823 0.379052 0
M  V30 2672 O 260.285 -1.84781 0.597466 0
M  V30 2673 C 257.415 -3.15288 1.4564 0
M  V30 2674 C 256.369 -3.41053 2.58586 0
M  V30 2675 C 255.695 -4.79421 2.36769 0
M  V30 2676 C 256.995 -3.34902 4.00797 0
M  V30 2677 H 258.689 -1.69812 2.46586 0
M  V30 2678 H 256.235 -0.815542 1.1868 0
M  V30 2679 H 258.188 -3.93681 1.50311 0
M  V30 2680 H 256.912 -3.23043 0.480725 0
M  V30 2681 H 255.571 -2.65035 2.53282 0
M  V30 2682 H 255.219 -4.83863 1.37424 0
M  V30 2683 H 254.919 -4.9762 3.12487 0
M  V30 2684 H 256.443 -5.6006 2.43238 0
M  V30 2685 H 257.857 -4.03218 4.07539 0
M  V30 2686 H 256.254 -3.64637 4.76613 0
M  V30 2687 H 257.324 -2.32928 4.25291 0
M  V30 2688 N 258.668 -1.30515 -0.883378 0
M  V30 2689 C 259.616 -1.16941 -2.01066 0
M  V30 2690 C 260.61 -0.0809148 -1.69207 0
M  V30 2691 O 261.816 -0.241877 -1.78367 0
M  V30 2692 H 258.191 -0.361705 -0.659298 0
M  V30 2693 H 260.162 -2.12344 -2.09649 0
M  V30 2694 C 258.911 -0.879694 -3.36388 0
M  V30 2695 H 258.234 -1.70936 -3.61415 0
M  V30 2696 H 259.674 -0.82483 -4.159 0
M  V30 2697 C 258.133 0.417409 -3.34304 0
M  V30 2698 O 258.663 1.43843 -3.75063 0
M  V30 2699 N 256.869 0.429141 -2.87414 0
M  V30 2700 H 256.416 -0.402222 -2.5444 0
M  V30 2701 H 256.374 1.29696 -2.86403 0
M  V30 2702 N 260.146 1.09593 -1.13257 0
M  V30 2703 C 261.076 2.18214 -0.830946 0
M  V30 2704 C 262.057 1.68812 0.208966 0
M  V30 2705 O 263.242 1.9408 0.0682666 0
M  V30 2706 C 260.372 3.46051 -0.294296 0
M  V30 2707 C 259.326 4.08778 -1.26826 0
M  V30 2708 C 258.652 5.31419 -0.591449 0
M  V30 2709 C 259.952 4.51476 -2.62615 0
M  V30 2710 H 261.646 2.43703 -1.73923 0
M  V30 2711 H 259.192 1.17128 -0.837675 0
M  V30 2712 H 261.145 4.2134 -0.0709606 0
M  V30 2713 H 259.869 3.20079 0.649366 0
M  V30 2714 H 258.528 3.35505 -1.47756 0
M  V30 2715 H 258.176 5.01727 0.357633 0
M  V30 2716 H 257.876 5.74341 -1.24123 0
M  V30 2717 H 259.4 6.09433 -0.377355 0
M  V30 2718 H 260.814 5.17999 -2.45663 0
M  V30 2719 H 259.211 5.05277 -3.23752 0
M  V30 2720 H 260.281 3.63962 -3.20406 0
M  V30 2721 N 261.624 0.925811 1.2754 0
M  V30 2722 C 262.587 0.428129 2.25166 0
M  V30 2723 C 263.587 -0.452261 1.54309 0
M  V30 2724 O 264.777 -0.253608 1.72344 0
M  V30 2725 C 261.909 -0.384749 3.38722 0
M  V30 2726 H 263.102 1.29066 2.70706 0
M  V30 2727 H 260.655 0.706323 1.3943 0
M  V30 2728 H 261.39 -1.26618 2.98561 0
M  V30 2729 H 261.175 0.246454 3.91325 0
M  V30 2730 H 262.665 -0.723389 4.11287 0
M  V30 2731 N 263.102 -1.41638 0.69111 0
M  V30 2732 C 264.35 -2.00902 0.219758 0
M  V30 2733 C 264.671 -1.54994 -1.18329 0
M  V30 2734 O 263.941 -0.778628 -1.79762 0
M  V30 2735 H 262.521 -0.74289 0.0782558 0
M  V30 2736 H 265.183 -1.73327 0.891271 0
M  V30 2737 H 264.279 -3.11224 0.233708 0
M  V30 2738 N 264.58 -0.43555 -1.51462 0
M  V30 2739 C 265.828 0.131254 -2.01673 0
M  V30 2740 C 266.149 1.43368 -1.32177 0
M  V30 2741 O 265.419 1.90524 -0.455769 0
M  V30 2742 H 263.999 0.0514954 -0.745223 0
M  V30 2743 H 266.661 -0.577847 -1.86137 0
M  V30 2744 H 265.757 0.308446 -3.10572 0
M  V30 2745 N 266.058 1.56714 -0.166846 0
M  V30 2746 C 267.305 1.96747 0.479252 0
M  V30 2747 C 267.633 1.05263 1.63554 0
M  V30 2748 O 266.888 0.0858098 1.95512 0
M  V30 2749 C 267.187 3.42889 1.00806 0
M  V30 2750 C 266.853 4.50889 -0.0318574 0
M  V30 2751 C 265.515 4.8015 -0.317675 0
M  V30 2752 C 267.867 5.15949 -0.737956 0
M  V30 2753 C 265.195 5.71772 -1.31506 0
M  V30 2754 C 267.547 6.08647 -1.72429 0
M  V30 2755 C 266.211 6.36277 -2.0176 0
M  V30 2756 H 265.481 0.719949 0.175371 0
M  V30 2757 H 268.128 1.89756 -0.257864 0
M  V30 2758 H 266.433 3.4681 1.82291 0
M  V30 2759 H 268.13 3.71203 1.51689 0
M  V30 2760 H 264.72 4.28128 0.201088 0
M  V30 2761 H 268.904 4.93458 -0.530351 0
M  V30 2762 H 264.16 5.91465 -1.54853 0
M  V30 2763 H 268.334 6.58129 -2.27682 0
M  V30 2764 H 265.961 7.07075 -2.79194 0
M  V30 2765 N 267.536 -0.106894 1.57237 0
M  V30 2766 C 268.782 -0.81373 1.85759 0
M  V30 2767 C 269.115 -1.78952 0.754315 0
M  V30 2768 O 268.39 -1.93029 -0.23879 0
M  V30 2769 C 268.673 -1.55293 3.24894 0
M  V30 2770 C 268.526 -0.595929 4.45835 0
M  V30 2771 C 269.845 -2.5063 3.61763 0
M  V30 2772 H 266.964 -0.294369 0.67566 0
M  V30 2773 H 269.606 -0.0776472 1.89841 0
M  V30 2774 H 267.756 -2.1804 3.21544 0
M  V30 2775 H 269.428 0.0236262 4.61294 0
M  V30 2776 H 267.671 0.0916191 4.33703 0
M  V30 2777 H 268.342 -1.15004 5.39887 0
M  V30 2778 H 270.818 -1.97982 3.65981 0
M  V30 2779 H 269.694 -2.99376 4.60071 0
M  V30 2780 H 269.955 -3.3385 2.89821 0
M  V30 2781 N 269.014 -1.53014 -0.377408 0
M  V30 2782 C 269.962 -1.7927 -1.48206 0
M  V30 2783 C 270.956 -0.661195 -1.55963 0
M  V30 2784 O 272.162 -0.843908 -1.58991 0
M  V30 2785 H 268.537 -0.567425 -0.493491 0
M  V30 2786 H 270.508 -2.71753 -1.2326 0
M  V30 2787 C 269.257 -1.98894 -2.85196 0
M  V30 2788 H 268.58 -2.85395 -2.79981 0
M  V30 2789 H 270.02 -2.21249 -3.61698 0
M  V30 2790 C 268.479 -0.764691 -3.28107 0
M  V30 2791 O 269.009 0.0523226 -4.01666 0
M  V30 2792 N 267.215 -0.591493 -2.84517 0
M  V30 2793 H 266.762 -1.25749 -2.24822 0
M  V30 2794 H 266.72 0.226253 -3.13585 0
M  V30 2795 N 270.492 0.636531 -1.44174 0
M  V30 2796 C 271.717 1.42847 -1.50364 0
M  V30 2797 C 272.142 1.87665 -0.127867 0
M  V30 2798 O 271.5 1.58408 0.88185 0
M  V30 2799 C 271.548 2.62854 -2.4686 0
M  V30 2800 O 270.652 3.62501 -1.9664 0
M  V30 2801 H 269.993 0.427642 -0.507955 0
M  V30 2802 H 272.523 0.777422 -1.89255 0
M  V30 2803 H 272.533 3.10465 -2.64718 0
M  V30 2804 H 271.208 2.29578 -3.46795 0
M  V30 2805 H 269.785 3.21735 -1.88523 0
M  V30 2806 N 271.97 1.30982 0.876444 0
M  V30 2807 C 273.195 1.23373 1.66715 0
M  V30 2808 C 273.62 -0.19885 1.87046 0
M  V30 2809 O 272.978 -1.1427 1.40756 0
M  V30 2810 C 273.026 1.97644 3.01611 0
M  V30 2811 O 272.13 1.30935 3.91062 0
M  V30 2812 H 271.471 0.426279 0.509099 0
M  V30 2813 H 274.001 1.72944 1.09323 0
M  V30 2814 H 274.011 2.06992 3.51594 0
M  V30 2815 H 272.686 3.01829 2.86133 0
M  V30 2816 H 271.263 1.29996 3.49507 0
M  V30 2817 N 273.449 -1.08991 1.13837 0
M  V30 2818 C 274.697 -1.80899 0.901098 0
M  V30 2819 C 275.018 -1.86356 -0.574134 0
M  V30 2820 O 274.288 -1.35235 -1.41733 0
M  V30 2821 H 272.868 -0.669966 0.330386 0
M  V30 2822 H 275.53 -1.318 1.43578 0
M  V30 2823 H 274.626 -2.83929 1.29578 0
M  V30 2824 N 274.927 -0.932562 -1.27047 0
M  V30 2825 C 276.204 -0.49377 -1.89265 0
M  V30 2826 C 276.584 1.02833 -1.8436 0
M  V30 2827 O 275.932 1.88461 -1.29209 0
M  V30 2828 C 276.142 -1.04536 -3.32976 0
M  V30 2829 C 277.49 -1.10879 -4.09867 0
M  V30 2830 O 278.514 -0.995327 -3.42011 0
M  V30 2831 O 277.373 -1.28417 -5.31198 0
M  V30 2832 H 274.467 -0.159596 -0.811454 0
M  V30 2833 H 277.013 -1.02457 -1.3528 0
M  V30 2834 H 275.785 -2.08913 -3.30864 0
M  V30 2835 H 275.408 -0.496494 -3.94488 0
M  V30 2836 N 276.405 1.4127 -0.698611 0
M  V30 2837 C 277.635 2.05205 -0.239644 0
M  V30 2838 C 278.043 1.52684 1.11733 0
M  V30 2839 O 277.386 0.671222 1.70998 0
M  V30 2840 C 277.448 3.59289 -0.123126 0
M  V30 2841 C 277.112 4.34619 -1.41263 0
M  V30 2842 C 278.109 4.63701 -2.35111 0
M  V30 2843 C 275.794 4.73837 -1.66684 0
M  V30 2844 C 277.788 5.30966 -3.52639 0
M  V30 2845 C 275.475 5.40837 -2.84498 0
M  V30 2846 C 276.473 5.69329 -3.77298 0
M  V30 2847 O 276.161 6.34949 -4.93047 0
M  V30 2848 H 275.893 0.66723 -0.108537 0
M  V30 2849 H 278.447 1.81974 -0.952602 0
M  V30 2850 H 276.677 3.81272 0.645628 0
M  V30 2851 H 278.366 4.04797 0.299056 0
M  V30 2852 H 279.132 4.33882 -2.16729 0
M  V30 2853 H 275.011 4.51039 -0.953135 0
M  V30 2854 H 278.555 5.53121 -4.25091 0
M  V30 2855 H 274.452 5.70075 -3.02795 0
M  V30 2856 H 275.22 6.53445 -4.92902 0
M  V30 2857 N 277.883 0.443576 1.51229 0
M  V30 2858 C 279.108 -0.121648 2.07043 0
M  V30 2859 C 279.533 -1.35156 1.30823 0
M  V30 2860 O 278.891 -1.7793 0.347934 0
M  V30 2861 C 278.939 -0.41624 3.5819 0
M  V30 2862 O 278.043 -1.50163 3.8409 0
M  V30 2863 H 277.384 0.000871367 0.663999 0
M  V30 2864 H 279.914 0.626706 1.94765 0
M  V30 2865 H 279.924 -0.664867 4.02546 0
M  V30 2866 H 278.599 0.482653 4.1309 0
M  V30 2867 H 277.176 -1.24248 3.51592 0
M  V30 2868 N 279.361 -1.56624 0.175154 0
M  V30 2869 C 280.589 -2.01374 -0.474971 0
M  V30 2870 C 281.004 -1.05537 -1.56548 0
M  V30 2871 O 280.361 -0.0568668 -1.82411 0
M  V30 2872 C 280.412 -3.45923 -1.04975 0
M  V30 2873 O 280.133 -4.381 -0.00276605 0
M  V30 2874 C 281.634 -4.06093 -1.77773 0
M  V30 2875 H 278.854 -0.659962 -0.121206 0
M  V30 2876 H 281.398 -2.02601 0.27801 0
M  V30 2877 H 279.553 -3.45458 -1.75321 0
M  V30 2878 H 279.967 -5.22753 -0.427681 0
M  V30 2879 H 281.441 -5.09147 -2.13245 0
M  V30 2880 H 281.918 -3.48405 -2.67414 0
M  V30 2881 H 282.524 -4.10272 -1.12059 0
M  V30 2882 N 280.839 0.0985539 -1.57292 0
M  V30 2883 C 281.802 1.10402 -2.00858 0
M  V30 2884 C 282.802 1.33146 -0.901593 0
M  V30 2885 O 283.992 1.29318 -1.16716 0
M  V30 2886 C 281.124 2.45394 -2.36632 0
M  V30 2887 H 282.317 0.729099 -2.90902 0
M  V30 2888 H 279.87 0.343495 -1.52479 0
M  V30 2889 H 280.605 2.87769 -1.49531 0
M  V30 2890 H 280.39 2.30235 -3.17387 0
M  V30 2891 H 281.88 3.17718 -2.71007 0
M  V30 2892 N 282.317 1.53212 0.369288 0
M  V30 2893 C 283.28 1.7872 1.43498 0
M  V30 2894 C 284.28 0.657554 1.46741 0
M  V30 2895 O 285.47 0.925736 1.47566 0
M  V30 2896 C 282.602 1.90591 2.82645 0
M  V30 2897 H 283.795 2.73894 1.22156 0
M  V30 2898 H 281.348 1.44233 0.602203 0
M  V30 2899 H 282.083 0.974709 3.09306 0
M  V30 2900 H 281.868 2.72751 2.8169 0
M  V30 2901 H 283.358 2.11931 3.59826 0
M  V30 2902 N 283.795 -0.628877 1.44509 0
M  V30 2903 C 284.758 -1.72263 1.51188 0
M  V30 2904 C 285.758 -1.55907 0.39367 0
M  V30 2905 O 286.948 -1.61361 0.656377 0
M  V30 2906 C 284.08 -3.11365 1.38798 0
M  V30 2907 H 285.273 -1.67714 2.4862 0
M  V30 2908 H 282.826 -0.842737 1.31634 0
M  V30 2909 H 283.561 -3.21507 0.424693 0
M  V30 2910 H 283.346 -3.24644 2.19884 0
M  V30 2911 H 284.836 -3.91075 1.46458 0
M  V30 2912 N 285.273 -1.31445 -0.869486 0
M  V30 2913 C 286.205 -1.14955 -1.98287 0
M  V30 2914 C 287.218 -0.0885037 -1.62559 0
M  V30 2915 O 288.407 -0.336044 -1.75308 0
M  V30 2916 C 285.507 -0.734255 -3.3085 0
M  V30 2917 C 284.68 -1.88042 -3.94917 0
M  V30 2918 C 283.739 -1.4511 -5.05796 0
M  V30 2919 O 282.765 -2.16082 -5.2659 0
M  V30 2920 N 283.967 -0.338763 -5.79511 0
M  V30 2921 H 286.732 -2.10856 -2.12979 0
M  V30 2922 H 284.293 -1.23786 -1.04349 0
M  V30 2923 H 286.285 -0.42975 -4.02412 0
M  V30 2924 H 284.855 0.133158 -3.12316 0
M  V30 2925 H 284.075 -2.35222 -3.1633 0
M  V30 2926 H 285.363 -2.6481 -4.34457 0
M  V30 2927 H 284.761 0.252274 -5.65137 0
M  V30 2928 H 283.318 -0.0937925 -6.51733 0
M  V30 2929 N 286.751 1.08385 -1.14413 0
M  V30 2930 C 288 1.80153 -0.907076 0
M  V30 2931 C 288.313 1.87176 0.567851 0
M  V30 2932 O 289.519 2.55359 0.922172 0
M  V30 2933 C 287.975 3.23687 -1.57336 0
M  V30 2934 C 287.583 3.24897 -3.08457 0
M  V30 2935 C 289.327 4.00136 -1.41744 0
M  V30 2936 C 287.234 4.6302 -3.67921 0
M  V30 2937 H 286.164 0.675139 -0.335714 0
M  V30 2938 H 288.815 1.21733 -1.37307 0
M  V30 2939 H 287.197 3.82234 -1.03505 0
M  V30 2940 H 288.371 2.76055 -3.68958 0
M  V30 2941 H 286.686 2.61943 -3.2369 0
M  V30 2942 H 289.283 5.02201 -1.83572 0
M  V30 2943 H 289.626 4.14709 -0.363576 0
M  V30 2944 H 290.159 3.48058 -1.92614 0
M  V30 2945 H 286.898 4.5365 -4.73161 0
M  V30 2946 H 286.418 5.12143 -3.12201 0
M  V30 2947 H 288.097 5.31994 -3.68227 0
M  V30 2948 N 288.23 0.939286 1.26551 0
M  V30 2949 C 289.479 0.581601 1.93133 0
M  V30 2950 C 289.792 -0.883224 1.74524 0
M  V30 2951 O 290.998 -1.3502 2.35546 0
M  V30 2952 C 289.454 0.989425 3.46032 0
M  V30 2953 C 289.062 2.47573 3.73379 0
M  V30 2954 C 290.806 0.703544 4.18629 0
M  V30 2955 C 288.713 2.82235 5.19709 0
M  V30 2956 H 287.643 0.213803 0.723052 0
M  V30 2957 H 290.294 1.14167 1.4366 0
M  V30 2958 H 288.676 0.357902 3.94379 0
M  V30 2959 H 289.85 3.15614 3.35744 0
M  V30 2960 H 288.165 2.73471 3.1401 0
M  V30 2961 H 290.762 0.938869 5.26393 0
M  V30 2962 H 291.105 -0.359639 4.14744 0
M  V30 2963 H 291.638 1.2947 3.76141 0
M  V30 2964 H 288.377 3.87509 5.28694 0
M  V30 2965 H 287.897 2.18854 5.58447 0
M  V30 2966 H 289.576 2.70599 5.87695 0
M  V30 2967 N 289.708 -1.40897 0.706093 0
M  V30 2968 C 290.641 -2.282 -0.00328781 0
M  V30 2969 C 291.619 -1.42816 -0.77732 0
M  V30 2970 O 292.803 -1.72237 -0.765944 0
M  V30 2971 C 289.93 -3.23226 -1.01205 0
M  V30 2972 C 288.976 -4.25222 -0.329955 0
M  V30 2973 S 289.809 -5.27269 0.935298 0
M  V30 2974 C 290.965 -6.25859 -0.0716061 0
M  V30 2975 H 291.198 -2.88016 0.737143 0
M  V30 2976 H 288.731 -1.46191 0.496756 0
M  V30 2977 H 290.689 -3.78503 -1.58888 0
M  V30 2978 H 289.35 -2.62485 -1.72513 0
M  V30 2979 H 288.543 -4.92023 -1.09221 0
M  V30 2980 H 288.145 -3.73595 0.174069 0
M  V30 2981 H 290.437 -6.71204 -0.921521 0
M  V30 2982 H 291.38 -7.0586 0.562765 0
M  V30 2983 H 291.788 -5.62852 -0.431088 0
M  V30 2984 N 291.186 -0.45159 -1.50991 0
M  V30 2985 C 292.597 0.00818571 -1.86698 0
M  V30 2986 C 292.948 1.40661 -1.3678 0
M  V30 2987 O 292.073 2.0391 -0.724546 0
M  V30 2988 C 292.668 0.0216303 -3.38793 0
M  V30 2989 C 291.227 0.425865 -3.73983 0
M  V30 2990 C 290.374 -0.372163 -2.74791 0
M  V30 2991 H 293.325 -0.666785 -1.44013 0
M  V30 2992 H 293.346 0.828078 -3.7138 0
M  V30 2993 H 292.858 -0.996288 -3.75094 0
M  V30 2994 H 290.959 1.44886 -3.43277 0
M  V30 2995 H 291.072 0.140761 -4.78893 0
M  V30 2996 H 289.436 0.171498 -2.54122 0
M  V30 2997 H 290.219 -1.38922 -3.13935 0
M  V30 2998 N 292.664 1.56529 -0.183458 0
M  V30 2999 C 293.614 2.1515 0.754605 0
M  V30 3000 C 294.598 1.08904 1.18443 0
M  V30 3001 O 295.79 1.34997 1.14476 0
M  V30 3002 C 292.919 2.80531 1.97881 0
M  V30 3003 C 292.005 3.93952 1.57043 0
M  V30 3004 N 292.396 4.98221 0.87231 0
M  V30 3005 C 290.694 4.05338 1.86057 0
M  V30 3006 C 291.395 5.77836 0.669377 0
M  V30 3007 N 290.371 5.29858 1.21454 0
M  V30 3008 H 294.173 2.93132 0.212387 0
M  V30 3009 H 291.687 1.62391 0.0167725 0
M  V30 3010 H 293.684 3.20914 2.6612 0
M  V30 3011 H 292.344 2.04035 2.52586 0
M  V30 3012 H 293.355 5.15191 0.529033 0
M  V30 3013 H 290.032 3.39957 2.42354 0
M  V30 3014 H 291.422 6.71799 0.116422 0
M  V30 3015 N 294.142 -0.090211 1.57342 0
M  V30 3016 C 295.388 -0.793982 1.86611 0
M  V30 3017 C 295.721 -1.78142 0.773252 0
M  V30 3018 O 294.996 -1.93271 -0.218304 0
M  V30 3019 C 295.279 -1.51839 3.26523 0
M  V30 3020 C 295.132 -0.548609 4.46442 0
M  V30 3021 C 296.451 -2.46779 3.64401 0
M  V30 3022 H 293.57 -0.287186 0.678744 0
M  V30 3023 H 296.212 -0.0575076 1.89913 0
M  V30 3024 H 294.362 -2.14617 3.23839 0
M  V30 3025 H 296.034 0.0725513 4.61243 0
M  V30 3026 H 294.277 0.137614 4.33582 0
M  V30 3027 H 294.948 -1.09271 5.41076 0
M  V30 3028 H 297.424 -1.94089 3.68061 0
M  V30 3029 H 296.3 -2.94479 4.63221 0
M  V30 3030 H 296.561 -3.30758 2.93346 0
M  V30 3031 N 295.62 -1.53406 -0.361157 0
M  V30 3032 C 296.553 -1.74946 -1.46524 0
M  V30 3033 C 297.531 -0.59795 -1.51206 0
M  V30 3034 O 298.715 -0.831062 -1.69191 0
M  V30 3035 C 295.842 -1.83224 -2.84863 0
M  V30 3036 C 294.888 -3.05233 -2.97885 0
M  V30 3037 S 295.721 -4.6466 -2.66179 0
M  V30 3038 C 296.877 -4.75793 -4.06659 0
M  V30 3039 H 297.11 -2.68319 -1.28033 0
M  V30 3040 H 294.643 -1.44051 -0.555764 0
M  V30 3041 H 296.601 -1.88679 -3.64569 0
M  V30 3042 H 295.262 -0.908948 -3.00661 0
M  V30 3043 H 294.455 -3.07648 -3.9921 0
M  V30 3044 H 294.057 -2.97913 -2.26106 0
M  V30 3045 H 296.349 -4.5612 -5.0096 0
M  V30 3046 H 297.292 -5.7786 -4.09247 0
M  V30 3047 H 297.7 -4.04389 -3.93865 0
M  V30 3048 N 297.098 0.621204 -1.44841 0
M  V30 3049 C 298.346 1.37783 -1.47852 0
M  V30 3050 C 298.667 1.94653 -0.116224 0
M  V30 3051 O 297.937 1.76367 0.852737 0
M  V30 3052 H 296.517 0.511453 -0.544449 0
M  V30 3053 H 299.179 0.730446 -1.80694 0
M  V30 3054 H 298.275 2.20414 -2.20961 0
M  V30 3055 N 298.576 1.31904 0.862503 0
M  V30 3056 C 299.804 1.24998 1.64873 0
M  V30 3057 C 300.219 -0.183425 1.87907 0
M  V30 3058 O 299.576 -1.11794 1.44251 0
M  V30 3059 C 299.627 1.99829 3.01248 0
M  V30 3060 O 299.348 3.37575 2.79239 0
M  V30 3061 C 300.849 1.99852 3.95694 0
M  V30 3062 H 298.069 0.431599 0.513773 0
M  V30 3063 H 300.613 1.73901 1.07604 0
M  V30 3064 H 298.768 1.54668 3.55185 0
M  V30 3065 H 299.182 3.75776 3.65914 0
M  V30 3066 H 300.656 2.56709 4.88676 0
M  V30 3067 H 301.133 0.982852 4.28062 0
M  V30 3068 H 301.739 2.44926 3.47694 0
M  V30 3069 N 300.054 -1.07777 1.14986 0
M  V30 3070 C 300.984 -2.16865 0.865557 0
M  V30 3071 C 301.965 -1.69123 -0.182083 0
M  V30 3072 O 303.15 -1.94164 -0.0373815 0
M  V30 3073 C 300.28 -3.45539 0.349313 0
M  V30 3074 C 299.234 -4.06708 1.33313 0
M  V30 3075 C 298.56 -5.30411 0.675918 0
M  V30 3076 C 299.86 -4.47241 2.69764 0
M  V30 3077 H 301.554 -2.40905 1.77778 0
M  V30 3078 H 299.1 -1.15781 0.856203 0
M  V30 3079 H 301.053 -4.21174 0.137983 0
M  V30 3080 H 299.777 -3.21072 -0.598362 0
M  V30 3081 H 298.436 -3.33112 1.53075 0
M  V30 3082 H 298.084 -5.02232 -0.277767 0
M  V30 3083 H 297.784 -5.72293 1.33244 0
M  V30 3084 H 299.308 -6.08755 0.474262 0
M  V30 3085 H 300.722 -5.14025 2.53873 0
M  V30 3086 H 299.119 -5.00062 3.3175 0
M  V30 3087 H 300.189 -3.58818 3.26156 0
M  V30 3088 N 301.532 -0.945985 -1.26051 0
M  V30 3089 C 302.442 -0.465633 -2.29933 0
M  V30 3090 C 303.458 0.462761 -1.67733 0
M  V30 3091 O 304.634 0.341118 -1.9849 0
M  V30 3092 C 301.699 0.256994 -3.45746 0
M  V30 3093 C 300.76 -0.708549 -4.23412 0
M  V30 3094 C 299.993 -0.0203135 -5.33696 0
M  V30 3095 O 300.216 1.19571 -5.57726 0
M  V30 3096 O 299.15 -0.701459 -5.97799 0
M  V30 3097 H 302.976 -1.32866 -2.73094 0
M  V30 3098 H 300.561 -0.712071 -1.31339 0
M  V30 3099 H 302.443 0.663852 -4.16138 0
M  V30 3100 H 301.118 1.09533 -3.04605 0
M  V30 3101 H 300.025 -1.16545 -3.55483 0
M  V30 3102 H 301.358 -1.51465 -4.68315 0
M  V30 3103 N 303.011 1.40521 -0.713556 0
M  V30 3104 C 304.257 2.01221 -0.252564 0
M  V30 3105 C 304.59 1.56444 1.1506 0
M  V30 3106 O 303.865 0.783597 1.78017 0
M  V30 3107 C 304.148 3.58582 -0.330332 0
M  V30 3108 C 304.001 4.13437 -1.77173 0
M  V30 3109 C 305.32 4.39079 0.299641 0
M  V30 3110 H 302.439 0.731077 -0.0932471 0
M  V30 3111 H 305.081 1.67026 -0.905673 0
M  V30 3112 H 303.231 3.87844 0.225737 0
M  V30 3113 H 304.903 3.9498 -2.38303 0
M  V30 3114 H 303.146 3.67801 -2.3001 0
M  V30 3115 H 303.817 5.22597 -1.77755 0
M  V30 3116 H 306.293 4.15735 -0.174139 0
M  V30 3117 H 305.169 5.4848 0.214771 0
M  V30 3118 H 305.43 4.19915 1.38288 0
M  V30 3119 N 304.489 0.459591 1.5075 0
M  V30 3120 C 305.719 -0.0972338 2.06371 0
M  V30 3121 C 306.127 -1.35074 1.32483 0
M  V30 3122 O 305.47 -1.79637 0.384226 0
M  V30 3123 C 305.532 -0.462759 3.56509 0
M  V30 3124 C 305.196 0.687084 4.51805 0
M  V30 3125 C 306.193 1.56578 4.95761 0
M  V30 3126 C 303.878 0.874144 4.94635 0
M  V30 3127 C 305.872 2.61604 5.81242 0
M  V30 3128 C 303.559 1.92765 5.79901 0
M  V30 3129 C 304.557 2.79697 6.23104 0
M  V30 3130 O 304.245 3.83235 7.06673 0
M  V30 3131 H 303.977 -0.00140687 0.675999 0
M  V30 3132 H 306.531 0.644011 1.95043 0
M  V30 3133 H 304.761 -1.25703 3.65699 0
M  V30 3134 H 306.45 -0.953323 3.94546 0
M  V30 3135 H 307.216 1.4329 4.6335 0
M  V30 3136 H 303.095 0.207006 4.60535 0
M  V30 3137 H 306.639 3.29489 6.14884 0
M  V30 3138 H 302.536 2.06064 6.11725 0
M  V30 3139 H 303.304 3.80084 7.24899 0
M  V30 3140 N 305.967 -1.56429 0.191757 0
M  V30 3141 C 306.877 -2.22541 -0.742481 0
M  V30 3142 C 307.893 -1.22342 -1.23727 0
M  V30 3143 O 309.069 -1.55069 -1.28513 0
M  V30 3144 C 306.134 -2.8692 -1.94623 0
M  V30 3145 C 305.195 -4.02378 -1.49633 0
M  V30 3146 C 304.428 -4.63678 -2.6427 0
M  V30 3147 O 304.651 -4.23895 -3.81666 0
M  V30 3148 O 303.585 -5.53202 -2.37174 0
M  V30 3149 H 307.411 -3.02977 -0.209462 0
M  V30 3150 H 304.996 -1.49353 -0.0373832 0
M  V30 3151 H 306.878 -3.27663 -2.64982 0
M  V30 3152 H 305.553 -2.09466 -2.46791 0
M  V30 3153 H 304.46 -3.66265 -0.761636 0
M  V30 3154 H 305.793 -4.81487 -1.02134 0
M  V30 3155 N 307.445 0.0818655 -1.57387 0
M  V30 3156 C 308.377 1.12484 -1.997 0
M  V30 3157 C 309.39 1.35564 -0.90146 0
M  V30 3158 O 310.579 1.33982 -1.17945 0
M  V30 3159 C 307.679 2.47778 -2.31213 0
M  V30 3160 C 306.852 2.44793 -3.62485 0
M  V30 3161 C 305.911 3.62117 -3.81782 0
M  V30 3162 O 304.937 3.44005 -4.53486 0
M  V30 3163 N 306.139 4.82094 -3.23367 0
M  V30 3164 H 308.904 0.764585 -2.89783 0
M  V30 3165 H 306.465 0.270664 -1.59621 0
M  V30 3166 H 308.457 3.24891 -2.41304 0
M  V30 3167 H 307.027 2.75843 -1.4707 0
M  V30 3168 H 306.247 1.53134 -3.6324 0
M  V30 3169 H 307.535 2.39889 -4.48699 0
M  V30 3170 H 306.933 4.99713 -2.65148 0
M  V30 3171 H 305.49 5.56753 -3.38923 0
M  V30 3172 N 308.923 1.53595 0.353017 0
M  V30 3173 C 309.855 1.77219 1.45348 0
M  V30 3174 C 310.868 0.65324 1.49119 0
M  V30 3175 O 312.057 0.929775 1.52373 0
M  V30 3176 C 309.157 1.84841 2.84055 0
M  V30 3177 C 308.33 3.14649 3.03833 0
M  V30 3178 C 307.389 3.13351 4.22727 0
M  V30 3179 O 306.415 3.87107 4.17297 0
M  V30 3180 N 307.617 2.35052 5.30783 0
M  V30 3181 H 310.382 2.72178 1.25457 0
M  V30 3182 H 307.943 1.52528 0.542833 0
M  V30 3183 H 309.935 1.81435 3.61751 0
M  V30 3184 H 308.505 0.971114 2.97133 0
M  V30 3185 H 307.725 3.31256 2.13689 0
M  V30 3186 H 309.013 4.00411 3.13925 0
M  V30 3187 H 308.411 1.74663 5.38061 0
M  V30 3188 H 306.968 2.37453 6.07009 0
M  V30 3189 N 310.401 -0.613514 1.45168 0
M  V30 3190 C 311.629 -1.39946 1.5239 0
M  V30 3191 C 312.044 -1.88167 0.154531 0
M  V30 3192 O 311.401 -1.61872 -0.842843 0
M  V30 3193 C 311.452 -2.60795 2.50337 0
M  V30 3194 O 311.173 -2.1458 3.81952 0
M  V30 3195 C 312.674 -3.53723 2.67198 0
M  V30 3196 H 309.894 -0.428593 0.516284 0
M  V30 3197 H 312.438 -0.748753 1.903 0
M  V30 3198 H 310.593 -3.21919 2.15515 0
M  V30 3199 H 311.007 -2.93055 4.34993 0
M  V30 3200 H 312.481 -4.35079 3.39721 0
M  V30 3201 H 312.958 -4.0368 1.73029 0
M  V30 3202 H 313.564 -2.98456 3.02992 0
M  V30 3203 N 311.879 -1.3236 -0.855495 0
M  V30 3204 C 312.842 -1.21164 -1.94556 0
M  V30 3205 C 313.842 -0.134908 -1.60233 0
M  V30 3206 O 315.032 -0.385249 -1.69887 0
M  V30 3207 C 312.164 -0.863192 -3.29791 0
M  V30 3208 H 313.357 -2.18038 -2.05911 0
M  V30 3209 H 310.91 -1.16179 -1.04557 0
M  V30 3210 H 311.645 0.103769 -3.24134 0
M  V30 3211 H 311.43 -1.64166 -3.56078 0
M  V30 3212 H 312.92 -0.809156 -4.09686 0
M  V30 3213 N 313.357 1.07166 -1.15556 0
M  V30 3214 C 314.603 1.80222 -0.942961 0
M  V30 3215 C 314.958 1.85121 0.524209 0
M  V30 3216 O 314.251 1.32531 1.38369 0
M  V30 3217 C 314.445 3.24707 -1.49332 0
M  V30 3218 C 314.274 3.33887 -3.01247 0
M  V30 3219 C 313.044 3.44337 -3.69811 0
M  V30 3220 C 315.242 3.24484 -3.99017 0
M  V30 3221 N 313.224 3.42439 -5.09518 0
M  V30 3222 C 314.595 3.29726 -5.25053 0
M  V30 3223 C 316.65 3.08307 -3.90962 0
M  V30 3224 C 315.353 3.20455 -6.43973 0
M  V30 3225 C 317.379 3.00371 -5.09442 0
M  V30 3226 C 316.741 3.06227 -6.34354 0
M  V30 3227 H 312.84 0.672709 -0.398731 0
M  V30 3228 H 315.424 1.27905 -1.46794 0
M  V30 3229 H 313.595 3.7544 -0.994946 0
M  V30 3230 H 315.327 3.85894 -1.21935 0
M  V30 3231 H 312.082 3.48762 -3.20409 0
M  V30 3232 H 312.506 3.45013 -5.8249 0
M  V30 3233 H 317.148 3.02633 -2.95251 0
M  V30 3234 H 314.866 3.24888 -7.39914 0
M  V30 3235 H 318.452 2.88955 -5.04971 0
M  V30 3236 H 317.332 3.00132 -7.24493 0
M  V30 3237 N 314.835 0.952656 1.25548 0
M  V30 3238 C 316.246 0.647392 1.75116 0
M  V30 3239 C 316.597 -0.837274 1.77438 0
M  V30 3240 O 315.722 -1.65525 1.39393 0
M  V30 3241 C 316.317 1.16845 3.18014 0
M  V30 3242 C 314.876 0.913382 3.6515 0
M  V30 3243 C 314.023 1.31265 2.44264 0
M  V30 3244 H 316.974 1.12968 1.11462 0
M  V30 3245 H 316.995 0.527606 3.76824 0
M  V30 3246 H 316.507 2.24902 3.16292 0
M  V30 3247 H 314.608 -0.152316 3.72289 0
M  V30 3248 H 314.721 1.54845 4.53387 0
M  V30 3249 H 313.085 0.731028 2.43984 0
M  V30 3250 H 313.868 2.40239 2.45234 0
M  V30 3251 N 316.313 -1.40141 0.720998 0
M  V30 3252 C 317.559 -2.01084 0.263231 0
M  V30 3253 C 317.892 -1.57052 -1.14229 0
M  V30 3254 O 317.167 -0.793027 -1.77599 0
M  V30 3255 C 317.45 -3.58401 0.349344 0
M  V30 3256 C 317.303 -4.12491 1.79363 0
M  V30 3257 C 318.622 -4.39231 -0.276351 0
M  V30 3258 H 315.741 -0.730572 0.0971228 0
M  V30 3259 H 318.383 -1.66543 0.914518 0
M  V30 3260 H 316.533 -3.87958 -0.205165 0
M  V30 3261 H 318.205 -3.93711 2.40394 0
M  V30 3262 H 316.448 -3.66576 2.31958 0
M  V30 3263 H 317.119 -5.21646 1.80524 0
M  V30 3264 H 319.595 -4.15637 0.196184 0
M  V30 3265 H 318.471 -5.48586 -0.185681 0
M  V30 3266 H 318.732 -4.20643 -1.36059 0
M  V30 3267 N 317.792 -0.46758 -1.50504 0
M  V30 3268 C 319.038 0.0887532 -2.02606 0
M  V30 3269 C 319.371 1.39686 -1.34913 0
M  V30 3270 O 318.646 1.88644 -0.473694 0
M  V30 3271 C 318.929 0.276206 -3.59039 0
M  V30 3272 C 318.782 -1.05267 -4.37309 0
M  V30 3273 C 320.101 1.03235 -4.27821 0
M  V30 3274 H 317.22 0.0307814 -0.736357 0
M  V30 3275 H 319.862 -0.612485 -1.79857 0
M  V30 3276 H 318.012 0.8735 -3.78553 0
M  V30 3277 H 319.684 -1.68628 -4.29374 0
M  V30 3278 H 317.927 -1.65015 -4.01189 0
M  V30 3279 H 318.598 -0.875197 -5.45018 0
M  V30 3280 H 321.074 0.526111 -4.12761 0
M  V30 3281 H 319.95 1.1323 -5.37094 0
M  V30 3282 H 320.211 2.06806 -3.90748 0
M  V30 3283 N 319.27 1.56325 -0.20005 0
M  V30 3284 C 320.516 1.98012 0.438059 0
M  V30 3285 C 320.849 1.08702 1.60927 0
M  V30 3286 O 320.124 0.140064 1.93995 0
M  V30 3287 C 320.407 3.48841 0.893419 0
M  V30 3288 C 320.26 4.48928 -0.279947 0
M  V30 3289 C 321.579 4.03498 1.75719 0
M  V30 3290 H 318.698 0.719918 0.157757 0
M  V30 3291 H 321.34 1.87743 -0.291968 0
M  V30 3292 H 319.49 3.57723 1.51547 0
M  V30 3293 H 321.162 4.52079 -0.91772 0
M  V30 3294 H 319.405 4.23694 -0.930919 0
M  V30 3295 H 320.076 5.5194 0.0812601 0
M  V30 3296 H 322.552 3.97427 1.23253 0
M  V30 3297 H 321.428 5.09393 2.04476 0
M  V30 3298 H 321.689 3.4906 2.71311 0
M  V30 3299 N 320.748 -0.0735177 1.57428 0
M  V30 3300 C 321.658 -1.10547 2.06922 0
M  V30 3301 C 322.674 -1.42506 0.998402 0
M  V30 3302 O 323.85 -1.52717 1.31299 0
M  V30 3303 C 320.915 -2.40019 2.50184 0
M  V30 3304 C 319.976 -2.15046 3.71556 0
M  V30 3305 C 319.209 -3.38345 4.12745 0
M  V30 3306 O 319.432 -4.47399 3.53822 0
M  V30 3307 O 318.366 -3.2666 5.05546 0
M  V30 3308 H 322.192 -0.715013 2.95163 0
M  V30 3309 H 319.777 -0.287531 1.46607 0
M  V30 3310 H 321.659 -3.16218 2.78539 0
M  V30 3311 H 320.334 -2.78447 1.65072 0
M  V30 3312 H 319.241 -1.36558 3.48285 0
M  V30 3313 H 320.574 -1.81499 4.57514 0
M  V30 3314 N 322.226 -1.5378 -0.344866 0
M  V30 3315 C 323.174 -1.82373 -1.4437 0
M  V30 3316 C 324.168 -0.694128 -1.54526 0
M  V30 3317 O 325.374 -0.877442 -1.57165 0
M  V30 3318 H 321.749 -0.577765 -0.481344 0
M  V30 3319 H 323.72 -2.74306 -1.17468 0
M  V30 3320 C 322.469 -2.04898 -2.80913 0
M  V30 3321 H 321.792 -2.9127 -2.73865 0
M  V30 3322 H 323.232 -2.28871 -3.56923 0
M  V30 3323 C 321.691 -0.834116 -3.26411 0
M  V30 3324 O 322.221 -0.0328885 -4.01687 0
M  V30 3325 N 320.427 -0.65171 -2.83198 0
M  V30 3326 H 319.974 -1.30489 -2.22104 0
M  V30 3327 H 319.932 0.159686 -3.13994 0
M  V30 3328 N 323.704 0.605807 -1.45491 0
M  V30 3329 C 324.932 1.39136 -1.5313 0
M  V30 3330 C 325.347 1.88082 -0.164507 0
M  V30 3331 O 324.704 1.62316 0.834247 0
M  V30 3332 C 324.755 2.59463 -2.51716 0
M  V30 3333 O 324.476 2.12551 -3.83084 0
M  V30 3334 C 325.977 3.52301 -2.6907 0
M  V30 3335 H 323.197 0.425849 -0.51855 0
M  V30 3336 H 325.741 0.73865 -1.90694 0
M  V30 3337 H 323.896 3.20772 -2.17219 0
M  V30 3338 H 324.31 2.90744 -4.36541 0
M  V30 3339 H 325.784 4.33271 -3.42024 0
M  V30 3340 H 326.261 4.02757 -1.75167 0
M  V30 3341 H 326.867 2.96845 -3.04571 0
M  V30 3342 N 325.182 1.32811 0.848464 0
M  V30 3343 C 326.459 1.14334 1.58704 0
M  V30 3344 C 326.839 -0.293948 2.09043 0
M  V30 3345 O 326.187 -1.29153 1.88499 0
M  V30 3346 C 326.397 2.17626 2.72837 0
M  V30 3347 C 327.745 2.51282 3.42261 0
M  V30 3348 O 328.769 2.16219 2.83068 0
M  V30 3349 O 327.628 3.11413 4.49093 0
M  V30 3350 H 324.722 0.441601 0.699226 0
M  V30 3351 H 327.268 1.44362 0.892053 0
M  V30 3352 H 326.04 3.14211 2.3321 0
M  V30 3353 H 325.663 1.88628 3.50008 0
M  V30 3354 N 326.66 -1.06551 1.16123 0
M  V30 3355 C 327.59 -2.15935 0.88851 0
M  V30 3356 C 328.571 -1.69306 -0.164135 0
M  V30 3357 O 329.756 -1.94193 -0.0167857 0
M  V30 3358 C 326.886 -3.45149 0.385942 0
M  V30 3359 C 325.84 -4.05271 1.3762 0
M  V30 3360 C 325.166 -5.29664 0.732137 0
M  V30 3361 C 326.466 -4.44355 2.74493 0
M  V30 3362 H 328.16 -2.39006 1.80323 0
M  V30 3363 H 325.706 -1.14866 0.868435 0
M  V30 3364 H 327.659 -4.21004 0.182647 0
M  V30 3365 H 326.383 -3.21689 -0.564274 0
M  V30 3366 H 325.042 -3.3147 1.56599 0
M  V30 3367 H 324.69 -5.02499 -0.224483 0
M  V30 3368 H 324.39 -5.70848 1.39307 0
M  V30 3369 H 325.914 -6.08218 0.538802 0
M  V30 3370 H 327.328 -5.11303 2.59311 0
M  V30 3371 H 325.725 -4.96515 3.37035 0
M  V30 3372 H 326.795 -3.55339 3.29943 0
M  V30 3373 N 328.138 -0.959301 -1.25041 0
M  V30 3374 C 329.071 -0.427418 -2.24161 0
M  V30 3375 C 330.049 0.493837 -1.54919 0
M  V30 3376 O 331.233 0.427144 -1.83597 0
M  V30 3377 C 328.36 0.383893 -3.36517 0
M  V30 3378 C 327.406 -0.478431 -4.23808 0
M  V30 3379 S 328.239 -1.91353 -5.00144 0
M  V30 3380 C 329.395 -1.11077 -6.15965 0
M  V30 3381 H 329.628 -1.26743 -2.6893 0
M  V30 3382 H 327.161 -0.763714 -1.34189 0
M  V30 3383 H 329.119 0.846039 -4.01687 0
M  V30 3384 H 327.78 1.19878 -2.90324 0
M  V30 3385 H 326.973 0.14406 -5.03794 0
M  V30 3386 H 326.575 -0.87597 -3.63597 0
M  V30 3387 H 328.867 -0.361699 -6.76534 0
M  V30 3388 H 329.81 -1.88472 -6.82557 0
M  V30 3389 H 330.218 -0.638843 -5.60873 0
M  V30 3390 N 329.616 1.39756 -0.72842 0
M  V30 3391 C 330.862 2.00942 -0.273892 0
M  V30 3392 C 331.195 1.57656 1.13394 0
M  V30 3393 O 330.47 0.802434 1.77176 0
M  V30 3394 C 330.753 3.58211 -0.368346 0
M  V30 3395 C 330.606 4.11534 -1.81548 0
M  V30 3396 C 331.925 4.39372 0.253054 0
M  V30 3397 H 329.044 0.730047 -0.100996 0
M  V30 3398 H 331.686 1.66056 -0.923337 0
M  V30 3399 H 329.836 3.88061 0.184588 0
M  V30 3400 H 331.508 3.92431 -2.42478 0
M  V30 3401 H 329.751 3.65341 -2.33898 0
M  V30 3402 H 330.422 5.20682 -1.83288 0
M  V30 3403 H 332.898 4.15527 -0.218224 0
M  V30 3404 H 331.774 5.48677 0.156585 0
M  V30 3405 H 332.035 4.21358 1.33826 0
M  V30 3406 N 331.094 0.475555 1.50254 0
M  V30 3407 C 332.341 -0.0778919 2.0235 0
M  V30 3408 C 332.669 -1.39319 1.35722 0
M  V30 3409 O 331.924 -1.89888 0.473395 0
M  V30 3410 C 332.223 -0.305114 3.56095 0
M  V30 3411 C 331.889 0.92903 4.41225 0
M  V30 3412 C 330.551 1.26739 4.6421 0
M  V30 3413 C 332.903 1.75054 4.90923 0
M  V30 3414 C 330.231 2.42724 5.34137 0
M  V30 3415 C 332.583 2.9017 5.62125 0
M  V30 3416 C 331.247 3.24416 5.83362 0
M  V30 3417 H 330.517 -0.0285027 0.740452 0
M  V30 3418 H 333.164 0.630543 1.80821 0
M  V30 3419 H 331.469 -1.09584 3.76163 0
M  V30 3420 H 333.166 -0.747377 3.93974 0
M  V30 3421 H 329.756 0.655428 4.23559 0
M  V30 3422 H 333.94 1.50231 4.73016 0
M  V30 3423 H 329.196 2.69525 5.48786 0
M  V30 3424 H 333.37 3.54169 5.99614 0
M  V30 3425 H 330.997 4.14396 6.37323 0
M  V30 3426 N 332.573 -1.56217 0.208337 0
M  V30 3427 C 333.819 -1.98998 -0.42086 0
M  V30 3428 C 334.174 -1.09331 -1.58317 0
M  V30 3429 O 333.467 -0.140466 -1.91084 0
M  V30 3430 C 333.661 -3.45441 -0.916797 0
M  V30 3431 C 333.49 -4.49273 0.195925 0
M  V30 3432 C 332.26 -5.00998 0.657956 0
M  V30 3433 C 334.458 -5.04294 1.00956 0
M  V30 3434 N 332.44 -5.88514 1.74712 0
M  V30 3435 C 333.811 -5.88607 1.94785 0
M  V30 3436 C 335.866 -4.86692 1.05049 0
M  V30 3437 C 334.569 -6.572 2.9237 0
M  V30 3438 C 336.595 -5.56034 2.01446 0
M  V30 3439 C 335.957 -6.40105 2.94016 0
M  V30 3440 H 332.056 -0.772574 -0.121048 0
M  V30 3441 H 334.64 -1.92101 0.317075 0
M  V30 3442 H 332.811 -3.52812 -1.62413 0
M  V30 3443 H 334.543 -3.75164 -1.51771 0
M  V30 3444 H 331.298 -4.72945 0.248912 0
M  V30 3445 H 331.722 -6.36975 2.2933 0
M  V30 3446 H 336.364 -4.21359 0.348759 0
M  V30 3447 H 334.082 -7.21723 3.63512 0
M  V30 3448 H 337.668 -5.44385 2.0527 0
M  V30 3449 H 336.548 -6.92816 3.6739 0
M  V30 3450 N 334.051 0.0651679 -1.57465 0
M  V30 3451 C 335.014 1.06117 -2.03155 0
M  V30 3452 C 336.014 1.31204 -0.929632 0
M  V30 3453 O 337.204 1.26813 -1.19432 0
M  V30 3454 C 334.336 2.4032 -2.41783 0
M  V30 3455 H 335.529 0.667231 -2.92383 0
M  V30 3456 H 333.082 0.311075 -1.53173 0
M  V30 3457 H 333.817 2.84532 -1.55601 0
M  V30 3458 H 333.602 2.23451 -3.22199 0
M  V30 3459 H 335.092 3.11898 -2.77685 0
M  V30 3460 N 335.529 1.53961 0.336706 0
M  V30 3461 C 336.492 1.81724 1.39675 0
M  V30 3462 C 337.492 0.688532 1.45313 0
M  V30 3463 O 338.682 0.956829 1.45569 0
M  V30 3464 C 335.814 1.96543 2.78538 0
M  V30 3465 H 337.007 2.76424 1.16318 0
M  V30 3466 H 334.56 1.45478 0.571474 0
M  V30 3467 H 335.295 1.0401 3.07168 0
M  V30 3468 H 335.08 2.78665 2.75841 0
M  V30 3469 H 336.57 2.19516 3.5525 0
M  V30 3470 N 337.007 -0.598083 1.45811 0
M  V30 3471 C 338.284 -1.35777 1.40797 0
M  V30 3472 C 338.664 -2.10935 0.083462 0
M  V30 3473 O 338.012 -2.08505 -0.934763 0
M  V30 3474 C 338.222 -2.29666 2.62783 0
M  V30 3475 C 339.57 -2.91977 3.08277 0
M  V30 3476 O 340.594 -2.39984 2.63223 0
M  V30 3477 O 339.453 -3.86376 3.86491 0
M  V30 3478 H 336.547 -0.609291 0.55919 0
M  V30 3479 H 339.093 -0.620379 1.57954 0
M  V30 3480 H 337.865 -1.73454 3.50756 0
M  V30 3481 H 337.488 -3.1077 2.48008 0
M  V30 3482 N 338.485 -1.33259 -0.841409 0
M  V30 3483 C 339.896 -1.22066 -1.41269 0
M  V30 3484 C 340.247 0.161479 -1.95534 0
M  V30 3485 O 339.372 1.06094 -1.88608 0
M  V30 3486 C 339.967 -2.20996 -2.568 0
M  V30 3487 C 338.526 -2.13649 -3.09888 0
M  V30 3488 C 337.673 -2.08623 -1.82679 0
M  V30 3489 H 340.624 -1.44895 -0.647395 0
M  V30 3490 H 340.645 -1.81621 -3.34356 0
M  V30 3491 H 340.157 -3.2158 -2.17274 0
M  V30 3492 H 338.258 -1.16359 -3.53965 0
M  V30 3493 H 338.371 -3.04079 -3.70234 0
M  V30 3494 H 336.735 -1.54061 -2.02824 0
M  V30 3495 H 337.518 -3.1101 -1.45353 0
M  V30 3496 N 339.963 1.05934 -1.16686 0
M  V30 3497 C 340.896 2.1295 -0.820225 0
M  V30 3498 C 341.874 1.61242 0.209722 0
M  V30 3499 O 343.058 1.88271 0.0929688 0
M  V30 3500 C 340.185 3.3797 -0.22223 0
M  V30 3501 C 339.231 4.08488 -1.22637 0
M  V30 3502 S 340.064 4.58015 -2.77457 0
M  V30 3503 C 341.22 5.86292 -2.19117 0
M  V30 3504 H 341.453 2.42025 -1.72659 0
M  V30 3505 H 338.986 1.18423 -0.990722 0
M  V30 3506 H 340.944 4.10335 0.116322 0
M  V30 3507 H 339.605 3.07045 0.66196 0
M  V30 3508 H 338.798 4.98291 -0.756455 0
M  V30 3509 H 338.4 3.42154 -1.51019 0
M  V30 3510 H 340.692 6.59246 -1.56209 0
M  V30 3511 H 341.635 6.38019 -3.07144 0
M  V30 3512 H 342.043 5.40497 -1.62858 0
M  V30 3513 N 341.441 0.965919 1.2453 0
M  V30 3514 C 342.388 0.49402 2.25451 0
M  V30 3515 C 343.358 -0.45948 1.59618 0
M  V30 3516 O 344.543 -0.370238 1.87173 0
M  V30 3517 C 341.683 -0.211359 3.44452 0
M  V30 3518 C 340.796 0.7807 4.24887 0
M  V30 3519 C 339.931 0.0516105 5.31175 0
M  V30 3520 C 338.97 1.03385 6.03306 0
M  V30 3521 N 338.107 0.334887 7.01301 0
M  V30 3522 H 342.947 1.35946 2.65184 0
M  V30 3523 H 340.484 0.681515 1.3036 0
M  V30 3524 H 342.442 -0.637 4.12308 0
M  V30 3525 H 341.072 -1.04077 3.05562 0
M  V30 3526 H 340.124 1.32479 3.56586 0
M  V30 3527 H 341.436 1.52978 4.74762 0
M  V30 3528 H 340.59 -0.432114 6.05159 0
M  V30 3529 H 339.329 -0.730179 4.82203 0
M  V30 3530 H 338.334 1.52847 5.28127 0
M  V30 3531 H 339.559 1.81606 6.54367 0
M  V30 3532 H 337.505 -0.427959 6.54603 0
M  V30 3533 H 337.422 1.02287 7.49048 0
M  V30 3534 H 338.69 -0.126928 7.79397 0
M  V30 3535 N 342.919 -1.39368 0.735821 0
M  V30 3536 C 344.147 -2.04795 0.294393 0
M  V30 3537 C 344.562 -1.55478 -1.07107 0
M  V30 3538 O 343.919 -0.720038 -1.67695 0
M  V30 3539 C 343.97 -3.6035 0.288071 0
M  V30 3540 O 343.691 -4.07852 1.59963 0
M  V30 3541 C 345.192 -4.42976 -0.169422 0
M  V30 3542 H 342.412 -0.658571 0.128551 0
M  V30 3543 H 344.956 -1.78399 0.999701 0
M  V30 3544 H 343.111 -3.85645 -0.368355 0
M  V30 3545 H 343.525 -5.02181 1.51375 0
M  V30 3546 H 344.999 -5.51864 -0.122687 0
M  V30 3547 H 345.476 -4.22068 -1.21472 0
M  V30 3548 H 346.082 -4.22832 0.457469 0
M  V30 3549 N 344.397 -0.483516 -1.5 0
M  V30 3550 C 345.345 0.318061 -2.30415 0
M  V30 3551 C 346.339 0.978988 -1.38247 0
M  V30 3552 O 347.545 0.908673 -1.55381 0
M  V30 3553 H 343.92 0.121419 -0.742133 0
M  V30 3554 H 345.891 -0.380403 -2.95965 0
M  V30 3555 C 344.64 1.38013 -3.19136 0
M  V30 3556 H 343.963 0.880952 -3.89973 0
M  V30 3557 H 345.403 1.91332 -3.78375 0
M  V30 3558 C 343.862 2.38884 -2.37563 0
M  V30 3559 O 344.392 3.44412 -2.06744 0
M  V30 3560 N 342.598 2.10912 -1.99911 0
M  V30 3561 H 342.145 1.25118 -2.25174 0
M  V30 3562 H 342.103 2.78635 -1.45636 0
M  V30 3563 N 345.875 1.56104 -0.216619 0
M  V30 3564 C 346.785 2.23694 0.706982 0
M  V30 3565 C 347.801 1.24295 1.21765 0
M  V30 3566 O 348.977 1.57094 1.2603 0
M  V30 3567 C 346.042 2.8998 1.90033 0
M  V30 3568 C 345.103 4.04708 1.43213 0
M  V30 3569 C 344.336 4.67824 2.56859 0
M  V30 3570 O 344.559 4.29913 3.74874 0
M  V30 3571 O 343.493 5.56905 2.28343 0
M  V30 3572 H 347.319 3.03272 0.161235 0
M  V30 3573 H 344.904 1.49394 0.0136177 0
M  V30 3574 H 346.786 3.31837 2.59735 0
M  V30 3575 H 345.461 2.13365 2.43428 0
M  V30 3576 H 344.368 3.6743 0.70327 0
M  V30 3577 H 345.701 4.83051 0.944615 0
M  V30 3578 N 347.353 -0.0568162 1.57498 0
M  V30 3579 C 348.602 -0.752001 1.87157 0
M  V30 3580 C 348.915 -1.77978 0.811375 0
M  V30 3581 O 350.121 -2.52559 0.996293 0
M  V30 3582 C 348.577 -1.38844 3.3204 0
M  V30 3583 C 348.185 -0.398456 4.46225 0
M  V30 3584 C 349.929 -2.06512 3.70882 0
M  V30 3585 C 347.836 -1.04166 5.82154 0
M  V30 3586 H 346.766 -0.28461 0.698222 0
M  V30 3587 H 349.417 -0.00561272 1.83499 0
M  V30 3588 H 347.799 -2.1836 3.30356 0
M  V30 3589 H 348.973 0.367977 4.59328 0
M  V30 3590 H 347.288 0.174592 4.16034 0
M  V30 3591 H 349.885 -2.55437 4.6974 0
M  V30 3592 H 350.228 -2.87117 3.01445 0
M  V30 3593 H 350.761 -1.33808 3.7462 0
M  V30 3594 H 347.5 -0.275614 6.5492 0
M  V30 3595 H 347.02 -1.7786 5.72823 0
M  V30 3596 H 348.699 -1.55715 6.27982 0
M  V30 3597 N 348.832 -1.54138 -0.328536 0
M  V30 3598 C 350.08 -1.71765 -1.06496 0
M  V30 3599 C 350.401 -0.49149 -1.88704 0
M  V30 3600 O 349.671 0.494539 -1.89555 0
M  V30 3601 H 348.251 -0.633295 -0.396164 0
M  V30 3602 H 350.913 -1.91429 -0.366176 0
M  V30 3603 H 350.009 -2.5951 -1.73381 0
M  V30 3604 N 350.31 0.590341 -1.46126 0
M  V30 3605 C 351.556 1.34874 -1.52252 0
M  V30 3606 C 351.911 1.91658 -0.168807 0
M  V30 3607 O 351.204 1.73093 0.821556 0
M  V30 3608 C 351.398 2.5032 -2.55097 0
M  V30 3609 C 351.227 2.04843 -4.00337 0
M  V30 3610 C 349.997 1.90213 -4.68132 0
M  V30 3611 C 352.195 1.61267 -4.88362 0
M  V30 3612 N 350.177 1.38727 -5.9802 0
M  V30 3613 C 351.548 1.21319 -6.08015 0
M  V30 3614 C 353.603 1.49015 -4.75078 0
M  V30 3615 C 352.306 0.7034 -7.15852 0
M  V30 3616 C 354.332 0.994401 -5.8298 0
M  V30 3617 C 353.694 0.604659 -7.018 0
M  V30 3618 H 349.793 0.486803 -0.612002 0
M  V30 3619 H 352.377 0.673007 -1.82698 0
M  V30 3620 H 350.548 3.15466 -2.26574 0
M  V30 3621 H 352.28 3.1725 -2.51266 0
M  V30 3622 H 349.035 2.11927 -4.23537 0
M  V30 3623 H 349.459 1.15168 -6.67132 0
M  V30 3624 H 354.101 1.77768 -3.83612 0
M  V30 3625 H 351.819 0.403446 -8.07092 0
M  V30 3626 H 355.405 0.903621 -5.7474 0
M  V30 3627 H 354.285 0.226963 -7.83871 0
M  V30 3628 N 351.788 1.33704 0.83433 0
M  V30 3629 C 353.034 1.25603 1.59222 0
M  V30 3630 C 353.367 -0.176659 1.93395 0
M  V30 3631 O 352.642 -1.11915 1.59076 0
M  V30 3632 C 352.925 2.13576 2.89926 0
M  V30 3633 C 352.778 3.65326 2.62406 0
M  V30 3634 C 354.097 2.01238 3.91397 0
M  V30 3635 H 351.216 0.457613 0.577719 0
M  V30 3636 H 353.858 1.63848 0.961972 0
M  V30 3637 H 352.008 1.8109 3.43713 0
M  V30 3638 H 353.68 4.08124 2.15017 0
M  V30 3639 H 351.923 3.8698 1.96033 0
M  V30 3640 H 352.594 4.22232 3.55562 0
M  V30 3641 H 355.07 2.29738 3.46929 0
M  V30 3642 H 353.946 2.65036 4.80673 0
M  V30 3643 H 354.207 0.985951 4.30966 0
M  V30 3644 N 353.266 -1.05314 1.17247 0
M  V30 3645 C 354.515 -1.77685 0.954521 0
M  V30 3646 C 354.828 -1.88616 -0.518025 0
M  V30 3647 O 356.034 -2.57714 -0.854144 0
M  V30 3648 C 354.49 -3.19402 1.65863 0
M  V30 3649 C 354.098 -3.16605 3.16963 0
M  V30 3650 C 355.842 -3.96237 1.52303 0
M  V30 3651 C 353.749 -4.53103 3.80068 0
M  V30 3652 H 352.679 -0.666 0.353496 0
M  V30 3653 H 355.33 -1.1805 1.40486 0
M  V30 3654 H 353.712 -3.79355 1.13602 0
M  V30 3655 H 354.886 -2.66176 3.76148 0
M  V30 3656 H 353.201 -2.53268 3.30521 0
M  V30 3657 H 355.798 -4.97157 1.96822 0
M  V30 3658 H 356.141 -4.136 0.473401 0
M  V30 3659 H 356.674 -3.42829 2.01775 0
M  V30 3660 H 353.413 -4.40946 4.85023 0
M  V30 3661 H 352.933 -5.03686 3.2567 0
M  V30 3662 H 354.612 -5.22045 3.82202 0
M  V30 3663 N 354.744 -0.972509 -1.24016 0
M  V30 3664 C 356.155 -0.67517 -1.74064 0
M  V30 3665 C 356.506 0.808939 -1.78747 0
M  V30 3666 O 355.631 1.63286 -1.42009 0
M  V30 3667 C 356.226 -1.21889 -3.16115 0
M  V30 3668 C 354.785 -0.971358 -3.6365 0
M  V30 3669 C 353.932 -1.35134 -2.42145 0
M  V30 3670 H 356.883 -1.14727 -1.09651 0
M  V30 3671 H 356.904 -0.587489 -3.75937 0
M  V30 3672 H 356.416 -2.29906 -3.12674 0
M  V30 3673 H 354.517 0.0930686 -3.72484 0
M  V30 3674 H 354.63 -1.62039 -4.50866 0
M  V30 3675 H 352.994 -0.769751 -2.4279 0
M  V30 3676 H 353.777 -2.4411 -2.41381 0
M  V30 3677 N 356.222 1.38976 -0.743202 0
M  V30 3678 C 357.499 1.94351 -0.220705 0
M  V30 3679 C 357.879 1.67935 1.2791 0
M  V30 3680 O 357.227 1.01211 2.04862 0
M  V30 3681 C 357.437 3.44426 -0.563171 0
M  V30 3682 C 358.785 4.2144 -0.517046 0
M  V30 3683 O 359.809 3.52661 -0.500846 0
M  V30 3684 O 358.668 5.44032 -0.518806 0
M  V30 3685 H 355.762 0.825879 -0.043047 0
M  V30 3686 H 358.308 1.48429 -0.822618 0
M  V30 3687 H 357.08 3.5712 -1.59941 0
M  V30 3688 H 356.703 3.97543 0.0672883 0
M  V30 3689 N 357.7 0.491464 1.49741 0
M  V30 3690 C 358.65 -0.311086 2.25868 0
M  V30 3691 C 359.634 -0.943857 1.30308 0
M  V30 3692 O 360.826 -0.853035 1.55088 0
M  V30 3693 C 357.955 -1.38059 3.14316 0
M  V30 3694 C 357.041 -0.754541 4.17334 0
M  V30 3695 N 357.432 0.137216 5.05614 0
M  V30 3696 C 355.73 -1.01621 4.34269 0
M  V30 3697 C 356.431 0.494614 5.79593 0
M  V30 3698 N 355.407 -0.135169 5.43432 0
M  V30 3699 H 359.209 0.37555 2.91491 0
M  V30 3700 H 356.723 0.306917 1.59473 0
M  V30 3701 H 358.72 -1.96891 3.67477 0
M  V30 3702 H 357.38 -2.06901 2.50244 0
M  V30 3703 H 358.391 0.50741 5.15408 0
M  V30 3704 H 355.068 -1.69808 3.81407 0
M  V30 3705 H 356.458 1.2236 6.60665 0
M  V30 3706 N 359.178 -1.55987 0.224894 0
M  V30 3707 C 360.426 -1.97998 -0.405099 0
M  V30 3708 C 360.747 -1.11387 -1.60056 0
M  V30 3709 O 360.017 -0.191645 -1.9496 0
M  V30 3710 H 358.597 -0.731235 -0.152658 0
M  V30 3711 H 361.259 -1.92279 0.318567 0
M  V30 3712 H 360.355 -3.03463 -0.729167 0
M  V30 3713 N 360.656 0.0484629 -1.57525 0
M  V30 3714 C 361.619 1.03956 -2.04269 0
M  V30 3715 C 362.619 1.30211 -0.943496 0
M  V30 3716 O 363.809 1.25539 -1.20771 0
M  V30 3717 C 360.941 2.37742 -2.44319 0
M  V30 3718 H 362.134 0.636182 -2.93075 0
M  V30 3719 H 359.687 0.294811 -1.53494 0
M  V30 3720 H 360.422 2.82866 -1.5861 0
M  V30 3721 H 360.207 2.20021 -3.24551 0
M  V30 3722 H 361.697 3.08936 -2.80978 0
M  V30 3723 N 362.134 1.5431 0.320358 0
M  V30 3724 C 363.364 1.7638 1.07582 0
M  V30 3725 C 363.772 0.513944 1.82086 0
M  V30 3726 O 363.115 -0.525123 1.76035 0
M  V30 3727 C 363.177 2.9055 2.1171 0
M  V30 3728 C 362.841 4.2934 1.56575 0
M  V30 3729 C 363.838 5.10077 1.00586 0
M  V30 3730 C 361.523 4.75893 1.60722 0
M  V30 3731 C 363.517 6.35477 0.494756 0
M  V30 3732 C 361.204 6.0126 1.09224 0
M  V30 3733 C 362.202 6.80886 0.53696 0
M  V30 3734 O 361.89 8.03894 0.0297371 0
M  V30 3735 H 361.622 0.592369 0.325692 0
M  V30 3736 H 364.176 2.02019 0.37116 0
M  V30 3737 H 362.406 2.60489 2.85801 0
M  V30 3738 H 364.095 3.00373 2.73003 0
M  V30 3739 H 364.861 4.75265 0.966869 0
M  V30 3740 H 360.74 4.13957 2.02882 0
M  V30 3741 H 364.284 6.97574 0.0606842 0
M  V30 3742 H 360.181 6.35562 1.12831 0
M  V30 3743 H 360.949 8.18372 0.14486 0
M  V30 3744 N 363.613 -0.582584 1.46437 0
M  V30 3745 C 364.576 -1.67366 1.56592 0
M  V30 3746 C 365.576 -1.54575 0.443072 0
M  V30 3747 O 366.766 -1.59191 0.707381 0
M  V30 3748 C 363.898 -3.06791 1.48634 0
M  V30 3749 H 365.091 -1.5972 2.5383 0
M  V30 3750 H 362.644 -0.800432 1.34249 0
M  V30 3751 H 363.379 -3.19993 0.526763 0
M  V30 3752 H 363.164 -3.17484 2.30101 0
M  V30 3753 H 364.654 -3.86218 1.58826 0
M  V30 3754 N 365.091 -1.34144 -0.827227 0
M  V30 3755 C 366.339 -1.26009 -1.58007 0
M  V30 3756 C 366.66 0.170971 -1.94249 0
M  V30 3757 O 365.93 1.10256 -1.61927 0
M  V30 3758 H 364.51 -0.463414 -0.585881 0
M  V30 3759 H 367.172 -1.68005 -0.987951 0
M  V30 3760 H 366.268 -1.86187 -2.50481 0
M  V30 3761 N 366.569 1.04691 -1.17803 0
M  V30 3762 C 367.502 2.12068 -0.842765 0
M  V30 3763 C 368.48 1.61455 0.192608 0
M  V30 3764 O 369.664 1.88359 0.072995 0
M  V30 3765 C 366.791 3.37715 -0.258063 0
M  V30 3766 C 365.837 4.07164 -1.26962 0
M  V30 3767 S 366.67 4.55047 -2.82299 0
M  V30 3768 C 367.826 5.83935 -2.25323 0
M  V30 3769 H 368.059 2.4018 -1.75217 0
M  V30 3770 H 365.592 1.17366 -1.00323 0
M  V30 3771 H 367.55 4.10435 0.0727935 0
M  V30 3772 H 366.211 3.0773 0.629357 0
M  V30 3773 H 365.404 4.9746 -0.809263 0
M  V30 3774 H 365.006 3.40533 -1.54639 0
M  V30 3775 H 367.298 6.57552 -1.63192 0
M  V30 3776 H 368.241 6.34725 -3.13894 0
M  V30 3777 H 368.649 5.3874 -1.68582 0
M  V30 3778 N 368.047 0.979072 1.23499 0
M  V30 3779 C 368.994 0.517904 2.24914 0
M  V30 3780 C 369.964 -0.442525 1.60097 0
M  V30 3781 O 371.149 -0.350365 1.87556 0
M  V30 3782 C 368.289 -0.174813 3.44657 0
M  V30 3783 C 367.402 0.825721 4.24035 0
M  V30 3784 C 366.537 0.107946 5.3109 0
M  V30 3785 C 365.576 1.09778 6.02175 0
M  V30 3786 N 364.713 0.40925 7.00906 0
M  V30 3787 H 369.553 1.38751 2.63727 0
M  V30 3788 H 367.09 0.695303 1.2963 0
M  V30 3789 H 369.048 -0.593233 4.12961 0
M  V30 3790 H 367.678 -1.0083 3.06648 0
M  V30 3791 H 366.73 1.36253 3.55161 0
M  V30 3792 H 368.042 1.58005 4.73113 0
M  V30 3793 H 367.196 -0.367904 6.05583 0
M  V30 3794 H 365.935 -0.678994 4.8295 0
M  V30 3795 H 364.94 1.5844 5.26476 0
M  V30 3796 H 366.165 1.88536 6.52404 0
M  V30 3797 H 364.111 -0.358506 6.5502 0
M  V30 3798 H 364.028 1.10226 7.47921 0
M  V30 3799 H 365.296 -0.0442557 7.79487 0
M  V30 3800 N 369.525 -1.3858 0.750561 0
M  V30 3801 C 370.488 -2.28836 0.129152 0
M  V30 3802 C 371.488 -1.47045 -0.650714 0
M  V30 3803 O 372.678 -1.6753 -0.477428 0
M  V30 3804 C 369.81 -3.30751 -0.825622 0
M  V30 3805 H 371.003 -2.85294 0.924516 0
M  V30 3806 H 368.556 -1.47489 0.517376 0
M  V30 3807 H 369.291 -2.79378 -1.64677 0
M  V30 3808 H 369.076 -3.91177 -0.268852 0
M  V30 3809 H 370.566 -3.98249 -1.2565 0
M  V30 3810 N 371.003 -0.499398 -1.49478 0
M  V30 3811 C 371.933 0.269244 -2.31943 0
M  V30 3812 C 372.914 0.964054 -1.40143 0
M  V30 3813 O 374.099 0.955767 -1.69052 0
M  V30 3814 C 371.229 1.33504 -3.20615 0
M  V30 3815 C 370.183 0.760202 -4.21195 0
M  V30 3816 C 369.509 1.9264 -4.98792 0
M  V30 3817 C 370.809 -0.247661 -5.21712 0
M  V30 3818 H 372.503 -0.419082 -2.96452 0
M  V30 3819 H 370.049 -0.202988 -1.42562 0
M  V30 3820 H 372.002 1.88048 -3.77115 0
M  V30 3821 H 370.726 2.05253 -2.54045 0
M  V30 3822 H 369.385 0.23653 -3.65836 0
M  V30 3823 H 369.033 2.63154 -4.28671 0
M  V30 3824 H 368.733 1.54785 -5.66847 0
M  V30 3825 H 370.257 2.4762 -5.58137 0
M  V30 3826 H 371.671 0.209579 -5.72917 0
M  V30 3827 H 370.068 -0.541962 -5.97648 0
M  V30 3828 H 371.138 -1.16409 -4.7072 0
M  V30 3829 N 372.481 1.55866 -0.233164 0
M  V30 3830 C 373.428 2.20796 0.67215 0
M  V30 3831 C 374.398 1.16731 1.18166 0
M  V30 3832 O 375.583 1.45129 1.23864 0
M  V30 3833 C 372.723 2.90072 1.86955 0
M  V30 3834 C 371.836 4.08759 1.39786 0
M  V30 3835 C 370.971 4.65787 2.55374 0
M  V30 3836 C 370.01 5.76752 2.04998 0
M  V30 3837 N 369.147 6.28021 3.13901 0
M  V30 3838 H 373.987 2.9779 0.111749 0
M  V30 3839 H 371.524 1.47036 0.0434007 0
M  V30 3840 H 373.482 3.28428 2.57276 0
M  V30 3841 H 372.112 2.15575 2.40265 0
M  V30 3842 H 371.164 3.7581 0.589173 0
M  V30 3843 H 372.476 4.88906 0.98856 0
M  V30 3844 H 371.63 5.06646 3.33758 0
M  V30 3845 H 370.369 3.84828 2.99598 0
M  V30 3846 H 369.374 5.35383 1.25079 0
M  V30 3847 H 370.599 6.59553 1.61759 0
M  V30 3848 H 368.545 5.49971 3.57586 0
M  V30 3849 H 368.462 7.03323 2.7726 0
M  V30 3850 H 369.73 6.73538 3.92386 0
M  V30 3851 N 373.959 -0.0401083 1.57549 0
M  V30 3852 C 374.869 -1.06133 2.0922 0
M  V30 3853 C 375.885 -1.40356 1.0284 0
M  V30 3854 O 377.061 -1.49897 1.34509 0
M  V30 3855 C 374.126 -2.34658 2.55218 0
M  V30 3856 C 373.187 -2.07117 3.76033 0
M  V30 3857 C 372.42 -3.29514 4.19829 0
M  V30 3858 O 372.643 -4.39794 3.63232 0
M  V30 3859 O 371.577 -3.15863 5.12362 0
M  V30 3860 H 375.403 -0.652244 2.96613 0
M  V30 3861 H 372.988 -0.256368 1.47184 0
M  V30 3862 H 374.87 -3.10239 2.85184 0
M  V30 3863 H 373.545 -2.74883 1.70941 0
M  V30 3864 H 372.452 -1.29139 3.51104 0
M  V30 3865 H 373.785 -1.71754 4.61261 0
M  V30 3866 N 375.437 -1.54477 -0.31217 0
M  V30 3867 C 376.384 -1.84655 -1.38461 0
M  V30 3868 C 377.354 -0.694536 -1.50882 0
M  V30 3869 O 378.539 -0.942081 -1.6592 0
M  V30 3870 C 375.679 -2.0896 -2.74645 0
M  V30 3871 C 374.792 -3.36618 -2.70763 0
M  V30 3872 C 373.927 -3.50824 -3.98868 0
M  V30 3873 C 372.966 -4.72315 -3.89339 0
M  V30 3874 N 372.103 -4.83387 -5.09197 0
M  V30 3875 H 376.943 -2.76142 -1.12026 0
M  V30 3876 H 374.48 -1.36748 -0.542065 0
M  V30 3877 H 376.438 -2.21045 -3.53829 0
M  V30 3878 H 375.068 -1.20752 -2.99364 0
M  V30 3879 H 374.12 -3.33211 -1.83506 0
M  V30 3880 H 375.432 -4.25917 -2.59608 0
M  V30 3881 H 374.586 -3.62513 -4.86486 0
M  V30 3882 H 373.325 -2.59638 -4.12843 0
M  V30 3883 H 372.33 -4.6067 -3.00105 0
M  V30 3884 H 373.555 -5.64897 -3.76919 0
M  V30 3885 H 371.501 -3.9512 -5.23657 0
M  V30 3886 H 371.418 -5.66669 -5.00422 0
M  V30 3887 H 372.686 -4.9942 -5.98498 0
M  V30 3888 N 376.915 0.57481 -1.46744 0
M  V30 3889 C 378.163 1.33009 -1.52161 0
M  V30 3890 C 378.484 1.94185 -0.178092 0
M  V30 3891 O 377.754 1.7899 0.796196 0
M  V30 3892 H 376.334 0.493873 -0.560445 0
M  V30 3893 H 378.996 0.672589 -1.82927 0
M  V30 3894 H 378.092 2.13273 -2.27862 0
M  V30 3895 N 378.394 1.34581 0.820102 0
M  V30 3896 C 379.622 1.3018 1.60813 0
M  V30 3897 C 380.037 -0.123551 1.88395 0
M  V30 3898 O 379.394 -1.07148 1.47735 0
M  V30 3899 C 379.445 2.09312 2.94739 0
M  V30 3900 O 379.166 3.46288 2.68358 0
M  V30 3901 C 380.667 2.1234 3.89136 0
M  V30 3902 H 377.887 0.447726 0.499782 0
M  V30 3903 H 380.431 1.77237 1.02017 0
M  V30 3904 H 378.586 1.65889 3.50085 0
M  V30 3905 H 379 3.87227 3.53774 0
M  V30 3906 H 380.474 2.72126 4.80262 0
M  V30 3907 H 380.951 1.11854 4.24718 0
M  V30 3908 H 381.557 2.55864 3.39726 0
M  V30 3909 N 379.872 -1.04064 1.18357 0
M  V30 3910 C 381.288 -1.2947 0.933258 0
M  V30 3911 C 381.488 -1.97466 -0.401169 0
M  V30 3912 O 380.544 -2.25528 -1.13549 0
M  V30 3913 C 381.857 -2.15337 2.09882 0
M  V30 3914 C 383.405 -2.28683 2.13712 0
M  V30 3915 C 383.88 -3.17917 3.29686 0
M  V30 3916 N 385.371 -3.25504 3.29547 0
M  V30 3917 C 386.106 -3.94706 4.15926 0
M  V30 3918 N 385.602 -4.66239 5.12439 0
M  V30 3919 N 387.395 -3.90986 4.0384 0
M  V30 3920 H 379.546 -0.583359 2.04232 0
M  V30 3921 H 381.809 -0.319921 0.892387 0
M  V30 3922 H 381.515 -1.72682 3.06389 0
M  V30 3923 H 381.389 -3.16015 2.05947 0
M  V30 3924 H 383.776 -2.70575 1.17784 0
M  V30 3925 H 383.857 -1.27596 2.21705 0
M  V30 3926 H 383.501 -2.76736 4.25887 0
M  V30 3927 H 383.431 -4.19036 3.1893 0
M  V30 3928 H 385.922 -2.74547 2.59677 0
M  V30 3929 H 386.235 -5.16638 5.74722 0
M  V30 3930 H 384.58 -4.65143 5.16398 0
M  V30 3931 H 387.771 -3.34234 3.27727 0
M  V30 3932 H 387.944 -4.44646 4.71375 0
M  V30 3933 N 381.35 -0.985608 -1.22978 0
M  V30 3934 C 382.596 -0.65836 -1.91816 0
M  V30 3935 C 382.929 0.806692 -1.76653 0
M  V30 3936 O 382.204 1.58252 -1.13078 0
M  V30 3937 C 382.487 -1.056 -3.44268 0
M  V30 3938 C 382.34 -2.57906 -3.68516 0
M  V30 3939 C 383.659 -0.603781 -4.35939 0
M  V30 3940 H 380.778 -0.24065 -0.696604 0
M  V30 3941 H 383.42 -1.22783 -1.44998 0
M  V30 3942 H 381.57 -0.571445 -3.84274 0
M  V30 3943 H 383.242 -3.13976 -3.3796 0
M  V30 3944 H 381.485 -3.00305 -3.13048 0
M  V30 3945 H 382.156 -2.80779 -4.75255 0
M  V30 3946 H 384.632 -1.01987 -4.03408 0
M  V30 3947 H 383.508 -0.910383 -5.41298 0
M  V30 3948 H 383.769 0.495761 -4.39312 0
M  V30 3949 N 382.828 1.3818 -0.7579 0
M  V30 3950 C 384.077 1.99261 -0.312744 0
M  V30 3951 C 384.39 1.60846 1.11301 0
M  V30 3952 O 385.596 2.14929 1.65885 0
M  V30 3953 C 384.052 3.56294 -0.50821 0
M  V30 3954 C 383.66 4.03657 -1.94333 0
M  V30 3955 C 385.404 4.24313 -0.125982 0
M  V30 3956 C 383.311 5.53347 -2.08712 0
M  V30 3957 H 382.241 0.745456 -0.113185 0
M  V30 3958 H 384.892 1.57889 -0.935056 0
M  V30 3959 H 383.274 3.95575 0.183353 0
M  V30 3960 H 384.448 3.75655 -2.66871 0
M  V30 3961 H 382.763 3.48376 -2.28086 0
M  V30 3962 H 385.36 5.34279 -0.212125 0
M  V30 3963 H 385.703 4.05962 0.921964 0
M  V30 3964 H 386.236 3.90285 -0.769563 0
M  V30 3965 H 382.975 5.76607 -3.11777 0
M  V30 3966 H 382.495 5.83078 -1.4064 0
M  V30 3967 H 384.174 6.19111 -1.87912 0
M  V30 3968 N 384.306 0.507319 1.49211 0
M  V30 3969 C 385.546 -0.0332372 2.04373 0
M  V30 3970 C 385.91 -1.33694 1.37804 0
M  V30 3971 O 387.111 -1.96213 1.83722 0
M  V30 3972 C 385.382 -0.17599 3.56966 0
M  V30 3973 S 386.941 -0.669882 4.33657 0
M  V30 3974 H 383.759 0.00123603 0.710999 0
M  V30 3975 H 386.361 0.682725 1.83191 0
M  V30 3976 H 385.065 0.778053 4.02957 0
M  V30 3977 H 384.596 -0.917005 3.82563 0
M  V30 3978 H 386.611 -1.93806 4.56786 0
M  V30 3979 N 385.784 -1.5574 0.241426 0
M  V30 3980 C 387.033 -1.97986 -0.385295 0
M  V30 3981 C 387.346 -1.13267 -1.59468 0
M  V30 3982 O 388.552 -1.45501 -2.2922 0
M  V30 3983 C 387.008 -3.52275 -0.736884 0
M  V30 3984 C 386.616 -4.45726 0.450796 0
M  V30 3985 C 388.36 -4.03189 -1.3281 0
M  V30 3986 C 386.267 -5.91352 0.0756662 0
M  V30 3987 H 385.197 -0.739386 -0.147731 0
M  V30 3988 H 387.848 -1.80308 0.340779 0
M  V30 3989 H 386.23 -3.65628 -1.52094 0
M  V30 3990 H 387.404 -4.44131 1.22819 0
M  V30 3991 H 385.719 -4.05264 0.956573 0
M  V30 3992 H 388.316 -5.09505 -1.62201 0
M  V30 3993 H 388.659 -3.50212 -2.25071 0
M  V30 3994 H 389.192 -3.93141 -0.607069 0
M  V30 3995 H 385.931 -6.48354 0.965272 0
M  V30 3996 H 385.451 -5.96095 -0.665635 0
M  V30 3997 H 387.13 -6.46084 -0.344075 0
M  V30 3998 N 387.262 0.0317525 -1.57568 0
M  V30 3999 C 388.21 1.05165 -2.07468 0
M  V30 4000 C 389.204 1.3761 -0.98792 0
M  V30 4001 O 390.41 1.36546 -1.17282 0
M  V30 4002 H 386.785 0.35666 -0.66204 0
M  V30 4003 H 388.756 0.604958 -2.92203 0
M  V30 4004 C 387.505 2.34488 -2.56731 0
M  V30 4005 H 386.828 2.10383 -3.39969 0
M  V30 4006 H 388.268 3.04203 -2.95358 0
M  V30 4007 C 386.727 3.03266 -1.46736 0
M  V30 4008 O 387.257 3.92988 -0.832069 0
M  V30 4009 N 385.463 2.6455 -1.20256 0
M  V30 4010 H 385.01 1.91674 -1.72102 0
M  V30 4011 H 384.968 3.10886 -0.468737 0
M  V30 4012 N 388.74 1.54641 0.303973 0
M  V30 4013 C 390.151 1.64811 0.877163 0
M  V30 4014 C 390.502 0.554838 1.88191 0
M  V30 4015 O 389.627 -0.309033 2.14182 0
M  V30 4016 C 390.222 2.9876 1.59775 0
M  V30 4017 C 388.781 3.11061 2.11938 0
M  V30 4018 C 387.928 2.60479 0.951097 0
M  V30 4019 H 390.879 1.58493 0.0810486 0
M  V30 4020 H 390.9 2.90017 2.46314 0
M  V30 4021 H 390.412 3.7831 0.866226 0
M  V30 4022 H 388.513 2.36225 2.88146 0
M  V30 4023 H 388.626 4.17171 2.35595 0
M  V30 4024 H 386.99 2.16859 1.33583 0
M  V30 4025 H 387.773 3.42504 0.233581 0
M  V30 4026 N 390.218 -0.567019 1.47046 0
M  V30 4027 C 391.464 -1.32658 1.53394 0
M  V30 4028 C 391.797 -1.93254 0.19148 0
M  V30 4029 O 391.072 -1.77338 -0.798844 0
M  V30 4030 C 391.355 -2.44412 2.64452 0
M  V30 4031 C 391.208 -1.88749 4.08282 0
M  V30 4032 C 392.527 -3.46387 2.71485 0
M  V30 4033 H 389.646 -0.48098 0.558415 0
M  V30 4034 H 392.288 -0.635481 1.79058 0
M  V30 4035 H 390.438 -3.03363 2.427 0
M  V30 4036 H 392.11 -1.34134 4.41368 0
M  V30 4037 H 390.353 -1.19481 4.17021 0
M  V30 4038 H 391.024 -2.69491 4.81745 0
M  V30 4039 H 393.5 -2.9734 2.91081 0
M  V30 4040 H 392.376 -4.2202 3.50985 0
M  V30 4041 H 392.637 -4.04616 1.78153 0
M  V30 4042 N 391.696 -1.35014 -0.812953 0
M  V30 4043 C 393.112 -1.14914 -1.10757 0
M  V30 4044 C 393.312 0.0426818 -2.01455 0
M  V30 4045 O 392.368 0.715212 -2.42159 0
M  V30 4046 C 393.681 -2.44911 -1.74468 0
M  V30 4047 C 395.229 -2.5106 -1.86917 0
M  V30 4048 C 395.704 -3.81085 -2.54044 0
M  V30 4049 N 397.195 -3.82301 -2.61535 0
M  V30 4050 C 397.93 -4.79634 -3.14227 0
M  V30 4051 N 397.426 -5.87353 -3.67407 0
M  V30 4052 N 399.219 -4.67078 -3.12721 0
M  V30 4053 H 391.37 -2.1136 -0.20989 0
M  V30 4054 H 393.633 -0.935128 -0.155692 0
M  V30 4055 H 393.339 -3.32267 -1.15289 0
M  V30 4056 H 393.213 -2.58989 -2.74234 0
M  V30 4057 H 395.6 -1.64137 -2.45241 0
M  V30 4058 H 395.681 -2.40901 -0.860242 0
M  V30 4059 H 395.325 -4.68402 -1.96372 0
M  V30 4060 H 395.255 -3.88529 -3.55461 0
M  V30 4061 H 397.746 -3.04465 -2.23851 0
M  V30 4062 H 398.059 -6.57624 -4.05894 0
M  V30 4063 H 396.404 -5.91054 -3.65623 0
M  V30 4064 H 399.595 -3.82067 -2.70449 0
M  V30 4065 H 399.768 -5.43098 -3.53481 0
M  V30 4066 N 393.175 1.03435 -1.18907 0
M  V30 4067 C 394.403 1.80381 -1.01342 0
M  V30 4068 C 394.818 1.83649 0.438005 0
M  V30 4069 O 394.175 1.27655 1.30424 0
M  V30 4070 C 394.226 3.25689 -1.56873 0
M  V30 4071 O 393.947 3.22673 -2.96334 0
M  V30 4072 C 395.448 4.19255 -1.44014 0
M  V30 4073 H 392.668 0.56784 -0.35749 0
M  V30 4074 H 395.212 1.30317 -1.576 0
M  V30 4075 H 393.367 3.72962 -1.04777 0
M  V30 4076 H 393.781 4.13748 -3.22355 0
M  V30 4077 H 395.255 5.19123 -1.87657 0
M  V30 4078 H 395.732 4.37467 -0.389815 0
M  V30 4079 H 396.338 3.77851 -1.95214 0
M  V30 4080 N 394.653 0.992116 1.22453 0
M  V30 4081 C 395.563 0.55065 2.28046 0
M  V30 4082 C 396.579 -0.400189 1.69335 0
M  V30 4083 O 397.755 -0.267215 1.99619 0
M  V30 4084 C 394.82 -0.128496 3.46462 0
M  V30 4085 C 393.881 0.865208 4.20491 0
M  V30 4086 C 393.114 0.218377 5.33253 0
M  V30 4087 O 393.337 -0.987894 5.6178 0
M  V30 4088 O 392.271 0.922845 5.94783 0
M  V30 4089 H 396.097 1.4291 2.67975 0
M  V30 4090 H 393.682 0.760326 1.28606 0
M  V30 4091 H 395.564 -0.508947 4.18315 0
M  V30 4092 H 394.239 -0.981526 3.0846 0
M  V30 4093 H 393.146 1.29658 3.50913 0
M  V30 4094 H 394.479 1.68741 4.62371 0
M  V30 4095 N 396.131 -1.37776 0.765217 0
M  V30 4096 C 397.359 -2.04124 0.337767 0
M  V30 4097 C 397.774 -1.57715 -1.03785 0
M  V30 4098 O 397.131 -0.755447 -1.6613 0
M  V30 4099 C 397.182 -3.59658 0.364442 0
M  V30 4100 O 396.903 -4.04367 1.68579 0
M  V30 4101 C 398.404 -4.43236 -0.0754221 0
M  V30 4102 H 395.624 -0.655696 0.142491 0
M  V30 4103 H 398.168 -1.76238 1.03732 0
M  V30 4104 H 396.323 -3.86339 -0.286471 0
M  V30 4105 H 396.737 -4.98857 1.61993 0
M  V30 4106 H 398.211 -5.52 -0.00560067 0
M  V30 4107 H 398.688 -4.2455 -1.12491 0
M  V30 4108 H 399.294 -4.21767 0.547055 0
M  V30 4109 N 397.609 -0.515225 -1.4894 0
M  V30 4110 C 398.572 0.244681 -2.2789 0
M  V30 4111 C 399.572 0.881166 -1.34507 0
M  V30 4112 O 400.762 0.743497 -1.57537 0
M  V30 4113 C 397.894 1.35247 -3.12923 0
M  V30 4114 H 399.087 -0.448289 -2.96531 0
M  V30 4115 H 396.64 -0.270656 -1.53939 0
M  V30 4116 H 397.375 2.07916 -2.48881 0
M  V30 4117 H 397.16 0.901374 -3.81599 0
M  V30 4118 H 398.65 1.88737 -3.72516 0
M  V30 4119 N 399.087 1.5561 -0.249682 0
M  V30 4120 C 400.364 1.90932 0.424761 0
M  V30 4121 C 400.744 1.17078 1.75658 0
M  V30 4122 O 400.092 0.289176 2.26663 0
M  V30 4123 C 400.302 3.43975 0.590109 0
M  V30 4124 C 401.65 4.15281 0.884714 0
M  V30 4125 O 402.674 3.49729 0.67587 0
M  V30 4126 O 401.533 5.31236 1.28259 0
M  V30 4127 H 398.627 0.794815 0.228468 0
M  V30 4128 H 401.173 1.67135 -0.293954 0
M  V30 4129 H 399.945 3.89748 -0.34818 0
M  V30 4130 H 399.568 3.73644 1.35926 0
M  V30 4131 N 400.565 -0.0233959 1.57583 0
M  V30 4132 C 401.795 -0.723631 1.93513 0
M  V30 4133 C 402.203 -1.69115 0.848333 0
M  V30 4134 O 401.546 -1.82781 -0.183484 0
M  V30 4135 C 401.608 -1.53075 3.25282 0
M  V30 4136 C 401.272 -0.727388 4.51174 0
M  V30 4137 C 402.269 -0.0251924 5.19894 0
M  V30 4138 C 399.954 -0.680256 4.97672 0
M  V30 4139 C 401.948 0.713374 6.33395 0
M  V30 4140 C 399.635 0.0620523 6.11068 0
M  V30 4141 C 400.633 0.757622 6.78785 0
M  V30 4142 O 400.321 1.48787 7.90011 0
M  V30 4143 H 400.053 -0.208051 0.643188 0
M  V30 4144 H 402.607 0.0167489 2.05393 0
M  V30 4145 H 400.837 -2.31508 3.09744 0
M  V30 4146 H 402.526 -2.11413 3.46496 0
M  V30 4147 H 403.292 -0.0526003 4.84971 0
M  V30 4148 H 399.171 -1.21116 4.44805 0
M  V30 4149 H 402.715 1.25683 6.86185 0
M  V30 4150 H 398.612 0.0913634 6.45435 0
M  V30 4151 H 399.38 1.40213 8.06401 0
M  V30 4152 N 402.043 -1.548 -0.295768 0
M  V30 4153 C 403.29 -1.74329 -1.03032 0
M  V30 4154 C 403.618 -0.531915 -1.87085 0
M  V30 4155 O 402.873 0.486052 -1.89568 0
M  V30 4156 C 403.172 -2.98797 -1.961 0
M  V30 4157 C 402.838 -4.32356 -1.2798 0
M  V30 4158 C 401.5 -4.68661 -1.09135 0
M  V30 4159 C 403.852 -5.15128 -0.793243 0
M  V30 4160 C 401.18 -5.85312 -0.403269 0
M  V30 4161 C 403.532 -6.32488 -0.118854 0
M  V30 4162 C 402.196 -6.6745 0.0815043 0
M  V30 4163 H 401.466 -0.637916 -0.37702 0
M  V30 4164 H 404.113 -1.8906 -0.304696 0
M  V30 4165 H 402.418 -2.78869 -2.75207 0
M  V30 4166 H 404.115 -3.11102 -2.53015 0
M  V30 4167 H 400.705 -4.03808 -1.43655 0
M  V30 4168 H 404.889 -4.87575 -0.92653 0
M  V30 4169 H 400.145 -6.1094 -0.237098 0
M  V30 4170 H 404.319 -6.95892 0.266035 0
M  V30 4171 H 401.946 -7.57695 0.616685 0
M  V30 4172 N 403.521 0.559213 -1.47345 0
M  V30 4173 C 404.769 1.31388 -1.53563 0
M  V30 4174 C 405.09 1.93985 -0.198678 0
M  V30 4175 O 404.36 1.79825 0.777167 0
M  V30 4176 H 402.94 0.487901 -0.565652 0
M  V30 4177 H 405.602 0.65315 -1.8363 0
M  V30 4178 H 404.698 2.10844 -2.30111 0
M  V30 4179 N 404.999 1.35443 0.805782 0
M  V30 4180 C 405.962 1.28301 1.89925 0
M  V30 4181 C 406.962 0.194285 1.59622 0
M  V30 4182 O 408.152 0.448036 1.6834 0
M  V30 4183 C 405.284 0.984997 3.2636 0
M  V30 4184 H 406.477 2.2553 1.97677 0
M  V30 4185 H 404.03 1.19979 1.00173 0
M  V30 4186 H 404.765 0.016603 3.24296 0
M  V30 4187 H 404.55 1.77269 3.4974 0
M  V30 4188 H 406.04 0.960651 4.064 0
M  V30 4189 N 406.477 -1.02803 1.19454 0
M  V30 4190 C 407.754 -1.73299 0.907013 0
M  V30 4191 C 408.134 -2.02772 -0.587086 0
M  V30 4192 O 407.482 -1.68304 -1.54551 0
M  V30 4193 C 407.692 -3.00912 1.76785 0
M  V30 4194 C 409.04 -3.74403 2.00268 0
M  V30 4195 O 410.064 -3.10841 1.73943 0
M  V30 4196 O 408.923 -4.88675 2.4466 0
M  V30 4197 H 406.017 -0.754727 0.338106 0
M  V30 4198 H 408.563 -1.08754 1.30271 0
M  V30 4199 H 407.335 -2.75366 2.7801 0
M  V30 4200 H 406.958 -3.73197 1.37149 0
M  V30 4201 N 407.956 -0.998596 -1.21925 0
M  V30 4202 C 409.202 -0.678667 -1.91107 0
M  V30 4203 C 409.535 0.78791 -1.77498 0
M  V30 4204 O 408.81 1.57043 -1.1475 0
M  V30 4205 C 409.093 -1.09245 -3.43129 0
M  V30 4206 C 408.946 -2.61801 -3.6576 0
M  V30 4207 C 410.265 -0.649984 -4.35274 0
M  V30 4208 H 407.384 -0.248025 -0.694012 0
M  V30 4209 H 410.026 -1.24314 -1.43688 0
M  V30 4210 H 408.176 -0.612171 -3.83647 0
M  V30 4211 H 409.848 -3.17543 -3.34611 0
M  V30 4212 H 408.091 -3.03609 -3.09845 0
M  V30 4213 H 408.762 -2.85804 -4.7225 0
M  V30 4214 H 411.238 -1.0626 -4.02303 0
M  V30 4215 H 410.114 -0.967743 -5.40302 0
M  V30 4216 H 410.375 0.449139 -4.39813 0
M  V30 4217 N 409.434 1.37368 -0.772513 0
M  V30 4218 C 410.68 1.99969 -0.337681 0
M  V30 4219 C 411.013 1.61184 1.08321 0
M  V30 4220 O 410.288 0.858395 1.74533 0
M  V30 4221 C 410.571 3.56858 -0.482121 0
M  V30 4222 C 410.424 4.0555 -1.94549 0
M  V30 4223 C 411.743 4.39955 0.113143 0
M  V30 4224 H 408.862 0.726464 -0.124171 0
M  V30 4225 H 411.504 1.63034 -0.975699 0
M  V30 4226 H 409.654 3.88452 0.0610361 0
M  V30 4227 H 411.326 3.84518 -2.54841 0
M  V30 4228 H 409.569 3.57715 -2.45403 0
M  V30 4229 H 410.24 5.14587 -1.9976 0
M  V30 4230 H 412.716 4.14623 -0.35031 0
M  V30 4231 H 411.592 5.48897 -0.0180514 0
M  V30 4232 H 411.853 4.25403 1.20354 0
M  V30 4233 N 410.912 0.523116 1.48665 0
M  V30 4234 C 412.137 -0.0117284 2.07397 0
M  V30 4235 C 412.562 -1.28031 1.37803 0
M  V30 4236 O 411.92 -1.75836 0.441762 0
M  V30 4237 C 411.968 -0.225786 3.59892 0
M  V30 4238 O 411.072 -1.29592 3.91509 0
M  V30 4239 H 410.413 0.0360673 0.66302 0
M  V30 4240 H 412.943 0.729066 1.9117 0
M  V30 4241 H 412.953 -0.450552 4.05505 0
M  V30 4242 H 411.628 0.700944 4.09951 0
M  V30 4243 H 410.205 -1.05436 3.57684 0
M  V30 4244 N 412.39 -1.55475 0.257931 0
M  V30 4245 C 413.801 -1.8511 -0.243135 0
M  V30 4246 C 414.152 -1.17986 -1.5676 0
M  V30 4247 O 413.277 -0.462102 -2.11409 0
M  V30 4248 C 413.872 -3.35826 -0.447929 0
M  V30 4249 C 412.431 -3.65647 -0.893245 0
M  V30 4250 C 411.578 -2.7729 0.0232965 0
M  V30 4251 H 414.529 -1.51261 0.480199 0
M  V30 4252 H 414.55 -3.58002 -1.28898 0
M  V30 4253 H 414.062 -3.84652 0.516196 0
M  V30 4254 H 412.163 -3.22308 -1.86945 0
M  V30 4255 H 412.276 -4.73312 -0.742469 0
M  V30 4256 H 410.64 -2.49942 -0.490021 0
M  V30 4257 H 411.423 -3.28926 0.982994 0
M  V30 4258 N 413.868 0.0150385 -1.57593 0
M  V30 4259 C 415.284 0.370907 -1.5523 0
M  V30 4260 C 415.484 1.75735 -0.985882 0
M  V30 4261 O 414.54 2.44944 -0.613077 0
M  V30 4262 C 415.853 0.259908 -2.99575 0
M  V30 4263 C 417.401 0.335959 -3.11192 0
M  V30 4264 C 417.876 0.254253 -4.57294 0
M  V30 4265 N 419.367 0.312618 -4.62144 0
M  V30 4266 C 420.102 0.272505 -5.72752 0
M  V30 4267 N 419.598 0.183864 -6.92556 0
M  V30 4268 N 421.391 0.323267 -5.6117 0
M  V30 4269 H 413.542 -0.892104 -1.92757 0
M  V30 4270 H 415.805 -0.340563 -0.884715 0
M  V30 4271 H 415.511 -0.693403 -3.44797 0
M  V30 4272 H 415.385 1.048 -3.62349 0
M  V30 4273 H 417.772 1.27971 -2.65909 0
M  V30 4274 H 417.853 -0.481739 -2.51223 0
M  V30 4275 H 417.497 -0.685887 -5.03247 0
M  V30 4276 H 417.427 1.09024 -5.15191 0
M  V30 4277 H 419.918 0.38307 -3.75953 0
M  V30 4278 H 420.231 0.15874 -7.72637 0
M  V30 4279 H 418.576 0.149708 -6.94839 0
M  V30 4280 H 421.767 0.390607 -4.66467 0
M  V30 4281 H 421.94 0.288539 -6.47357 0
M  V30 4282 N 415.346 1.54954 0.287554 0
M  V30 4283 C 416.757 1.65732 0.859634 0
M  V30 4284 C 417.108 0.574767 1.87592 0
M  V30 4285 O 416.233 -0.286299 2.14498 0
M  V30 4286 C 416.828 3.00438 1.56597 0
M  V30 4287 C 415.387 3.13292 2.08627 0
M  V30 4288 C 414.534 2.61473 0.923416 0
M  V30 4289 H 417.485 1.5857 0.0642338 0
M  V30 4290 H 417.506 2.92613 2.43224 0
M  V30 4291 H 417.018 3.79207 0.826053 0
M  V30 4292 H 415.119 2.39268 2.85625 0
M  V30 4293 H 415.232 4.19647 2.31157 0
M  V30 4294 H 413.596 2.18264 1.31275 0
M  V30 4295 H 414.379 3.42733 0.197241 0
M  V30 4296 N 416.824 -0.551391 1.4764 0
M  V30 4297 C 417.756 -1.67333 1.56628 0
M  V30 4298 C 418.769 -1.56398 0.452045 0
M  V30 4299 O 419.958 -1.6325 0.721926 0
M  V30 4300 C 417.058 -3.05841 1.45994 0
M  V30 4301 C 416.231 -3.42472 2.72088 0
M  V30 4302 C 415.29 -4.60168 2.55209 0
M  V30 4303 O 414.316 -4.64458 3.2904 0
M  V30 4304 N 415.518 -5.57024 1.63416 0
M  V30 4305 H 418.283 -1.60066 2.53375 0
M  V30 4306 H 415.844 -0.738169 1.44093 0
M  V30 4307 H 417.836 -3.8242 1.32428 0
M  V30 4308 H 416.406 -3.07302 0.573071 0
M  V30 4309 H 415.626 -2.55284 3.00373 0
M  V30 4310 H 416.914 -3.63723 3.55785 0
M  V30 4311 H 416.312 -5.56319 1.02594 0
M  V30 4312 H 414.869 -6.32906 1.558 0
M  V30 4313 N 418.302 -1.35869 -0.798587 0
M  V30 4314 C 419.53 -1.32722 -1.58722 0
M  V30 4315 C 419.945 0.0935631 -1.88568 0
M  V30 4316 O 419.302 1.04784 -1.49421 0
M  V30 4317 C 419.353 -2.13974 -2.91371 0
M  V30 4318 O 419.074 -3.50514 -2.62815 0
M  V30 4319 C 420.575 -2.18504 -3.85708 0
M  V30 4320 H 417.795 -0.45562 -0.492596 0
M  V30 4321 H 420.339 -1.78837 -0.991843 0
M  V30 4322 H 418.494 -1.71438 -3.47402 0
M  V30 4323 H 418.908 -3.92806 -3.47568 0
M  V30 4324 H 420.382 -2.79732 -4.75872 0
M  V30 4325 H 420.859 -1.18597 -4.22885 0
M  V30 4326 H 421.465 -2.61236 -3.35612 0
M  V30 4327 N 419.78 1.02168 -1.19998 0
M  V30 4328 C 421.057 1.72816 -0.916191 0
M  V30 4329 C 421.437 2.03081 0.576325 0
M  V30 4330 O 420.785 1.69122 1.53656 0
M  V30 4331 C 420.995 2.9997 -1.78378 0
M  V30 4332 C 422.343 3.73336 -2.02251 0
M  V30 4333 O 423.367 3.09914 -1.75589 0
M  V30 4334 O 422.226 4.87371 -2.47249 0
M  V30 4335 H 419.32 0.752924 -0.342103 0
M  V30 4336 H 421.866 1.08062 -1.30846 0
M  V30 4337 H 420.638 2.73888 -2.79466 0
M  V30 4338 H 420.261 3.72464 -1.39126 0
M  V30 4339 N 421.258 1.00505 1.21394 0
M  V30 4340 C 422.504 0.688793 1.90745 0
M  V30 4341 C 422.837 -0.778486 1.77914 0
M  V30 4342 O 422.112 -1.56433 1.15581 0
M  V30 4343 C 422.395 1.11063 3.42545 0
M  V30 4344 C 422.248 2.63737 3.64367 0
M  V30 4345 C 423.567 0.673059 4.34923 0
M  V30 4346 H 420.686 0.251702 0.692687 0
M  V30 4347 H 423.328 1.25074 1.43026 0
M  V30 4348 H 421.478 0.632508 3.83317 0
M  V30 4349 H 423.15 3.19313 3.32922 0
M  V30 4350 H 421.393 3.05248 3.08231 0
M  V30 4351 H 422.064 2.88305 4.70727 0
M  V30 4352 H 424.54 1.08392 4.01734 0
M  V30 4353 H 423.416 0.996383 5.39781 0
M  V30 4354 H 423.677 -0.425808 4.40045 0
M  V30 4355 N 422.737 -1.36956 0.779787 0
M  V30 4356 C 423.7 -2.2851 0.177662 0
M  V30 4357 C 424.7 -1.48393 -0.619377 0
M  V30 4358 O 425.89 -1.68505 -0.441785 0
M  V30 4359 C 423.022 -3.32428 -0.755279 0
M  V30 4360 H 424.215 -2.83269 0.984823 0
M  V30 4361 H 421.768 -1.46358 0.548544 0
M  V30 4362 H 422.503 -2.82808 -1.58714 0
M  V30 4363 H 422.288 -3.91659 -0.185817 0
M  V30 4364 H 423.778 -4.00824 -1.17174 0
M  V30 4365 N 424.215 -0.530993 -1.48385 0
M  V30 4366 C 425.145 0.219985 -2.32461 0
M  V30 4367 C 426.126 0.934111 -1.42156 0
M  V30 4368 O 427.311 0.919694 -1.71042 0
M  V30 4369 C 424.441 1.26674 -3.23375 0
M  V30 4370 C 423.395 0.67069 -4.22712 0
M  V30 4371 C 422.721 1.82017 -5.02766 0
M  V30 4372 C 424.021 -0.358268 -5.2107 0
M  V30 4373 H 425.715 -0.48187 -2.95497 0
M  V30 4374 H 423.261 -0.233182 -1.42099 0
M  V30 4375 H 425.214 1.80006 -3.81019 0
M  V30 4376 H 423.938 1.99818 -2.58341 0
M  V30 4377 H 422.597 0.158878 -3.66256 0
M  V30 4378 H 422.245 2.54002 -4.34157 0
M  V30 4379 H 421.945 1.42727 -5.70003 0
M  V30 4380 H 423.469 2.35725 -5.63264 0
M  V30 4381 H 424.883 0.0880081 -5.73232 0
M  V30 4382 H 423.28 -0.66861 -5.96364 0
M  V30 4383 H 424.35 -1.26367 -4.68145 0
M  V30 4384 N 425.693 1.55336 -0.266172 0
M  V30 4385 C 426.626 2.18256 0.666296 0
M  V30 4386 C 427.604 1.14064 1.1588 0
M  V30 4387 O 428.788 1.42546 1.23341 0
M  V30 4388 C 425.915 2.79867 1.90768 0
M  V30 4389 C 424.961 3.97283 1.55141 0
M  V30 4390 S 425.794 5.31694 0.637313 0
M  V30 4391 C 426.95 5.96769 1.88727 0
M  V30 4392 H 427.183 2.97008 0.131647 0
M  V30 4393 H 424.716 1.54317 -0.0504869 0
M  V30 4394 H 426.674 3.15996 2.62025 0
M  V30 4395 H 425.335 2.01025 2.41346 0
M  V30 4396 H 424.528 4.3905 2.4749 0
M  V30 4397 H 424.13 3.6253 0.919113 0
M  V30 4398 H 426.422 6.15458 2.83227 0
M  V30 4399 H 427.365 6.91752 1.51276 0
M  V30 4400 H 427.773 5.26034 2.04814 0
M  V30 4401 N 427.171 -0.0066808 1.57599 0
M  V30 4402 C 428.101 -0.999296 2.11036 0
M  V30 4403 C 429.082 -1.36278 1.01795 0
M  V30 4404 O 430.267 -1.4477 1.29442 0
M  V30 4405 C 427.397 -2.29328 2.60818 0
M  V30 4406 C 426.351 -2.07159 3.74525 0
M  V30 4407 C 425.677 -3.42512 4.10596 0
M  V30 4408 C 426.977 -1.43959 5.02069 0
M  V30 4409 H 428.671 -0.554382 2.94223 0
M  V30 4410 H 426.217 -0.265221 1.41536 0
M  V30 4411 H 428.17 -2.99117 2.96828 0
M  V30 4412 H 426.894 -2.7592 1.74745 0
M  V30 4413 H 425.553 -1.39797 3.38899 0
M  V30 4414 H 425.201 -3.86795 3.21556 0
M  V30 4415 H 424.901 -3.28498 4.87199 0
M  V30 4416 H 426.425 -4.13628 4.4916 0
M  V30 4417 H 427.839 -2.03696 5.35893 0
M  V30 4418 H 426.236 -1.40452 5.83432 0
M  V30 4419 H 427.306 -0.407992 4.83181 0
M  V30 4420 N 428.649 -1.55105 -0.279332 0
M  V30 4421 C 429.897 -1.75066 -1.00977 0
M  V30 4422 C 430.218 -0.551276 -1.87045 0
M  V30 4423 O 429.488 0.433984 -1.91032 0
M  V30 4424 H 428.068 -0.645578 -0.375816 0
M  V30 4425 H 430.73 -1.92497 -0.305089 0
M  V30 4426 H 429.826 -2.64894 -1.65038 0
M  V30 4427 N 430.127 0.543554 -1.4793 0
M  V30 4428 C 431.06 1.66556 -1.55995 0
M  V30 4429 C 432.038 1.57315 -0.411205 0
M  V30 4430 O 433.222 1.7798 -0.620922 0
M  V30 4431 C 430.349 3.04883 -1.47527 0
M  V30 4432 C 429.395 3.32526 -2.67074 0
M  V30 4433 S 430.228 3.20282 -4.29162 0
M  V30 4434 C 431.384 4.61079 -4.23269 0
M  V30 4435 H 431.617 1.59462 -2.50917 0
M  V30 4436 H 429.15 0.725456 -1.36296 0
M  V30 4437 H 431.108 3.84665 -1.43328 0
M  V30 4438 H 429.769 3.09429 -0.539665 0
M  V30 4439 H 428.962 4.33403 -2.5725 0
M  V30 4440 H 428.564 2.60389 -2.68466 0
M  V30 4441 H 430.856 5.52318 -3.92365 0
M  V30 4442 H 431.799 4.75959 -5.24279 0
M  V30 4443 H 432.207 4.39766 -3.5393 0
M  V30 4444 N 431.605 1.3629 0.791371 0
M  V30 4445 C 432.568 1.30309 1.88553 0
M  V30 4446 C 433.568 0.211204 1.59407 0
M  V30 4447 O 434.758 0.465865 1.67855 0
M  V30 4448 C 431.89 1.01956 3.25297 0
M  V30 4449 H 433.083 2.27614 1.95273 0
M  V30 4450 H 430.636 1.21035 0.988953 0
M  V30 4451 H 431.371 0.050998 3.2426 0
M  V30 4452 H 431.156 1.80968 3.4784 0
M  V30 4453 H 432.646 1.0037 4.05359 0
M  V30 4454 N 433.083 -1.0153 1.20538 0
M  V30 4455 C 434.033 -2.08482 0.922991 0
M  V30 4456 C 435.017 -1.60469 -0.117702 0
M  V30 4457 O 436.209 -1.76772 0.0898465 0
M  V30 4458 C 433.338 -3.39952 0.478312 0
M  V30 4459 C 432.424 -3.94662 1.5525 0
M  V30 4460 N 432.815 -4.22866 2.77521 0
M  V30 4461 C 431.113 -4.22825 1.41897 0
M  V30 4462 C 431.814 -4.67002 3.4682 0
M  V30 4463 N 430.79 -4.69356 2.74237 0
M  V30 4464 H 434.592 -2.28199 1.85209 0
M  V30 4465 H 432.106 -1.19512 1.09957 0
M  V30 4466 H 434.103 -4.16105 0.257408 0
M  V30 4467 H 432.763 -3.21648 -0.444148 0
M  V30 4468 H 433.774 -4.11732 3.1416 0
M  V30 4469 H 430.451 -4.13714 0.561015 0
M  V30 4470 H 431.841 -4.97632 4.51455 0
M  V30 4471 N 434.561 -1.01147 -1.20859 0
M  V30 4472 C 435.789 -0.716911 -1.94082 0
M  V30 4473 C 436.204 0.721568 -1.74467 0
M  V30 4474 O 435.561 1.48889 -1.05539 0
M  V30 4475 C 435.612 -1.03662 -3.46318 0
M  V30 4476 O 435.333 -2.4186 -3.65288 0
M  V30 4477 C 436.834 -0.762386 -4.36695 0
M  V30 4478 H 434.054 -0.26367 -0.617024 0
M  V30 4479 H 436.598 -1.35127 -1.53496 0
M  V30 4480 H 434.753 -0.447757 -3.84804 0
M  V30 4481 H 435.167 -2.53224 -4.59323 0
M  V30 4482 H 436.641 -1.03621 -5.42187 0
M  V30 4483 H 437.118 0.303514 -4.3815 0
M  V30 4484 H 437.724 -1.33316 -4.03865 0
M  V30 4485 N 436.039 1.36541 -0.78704 0
M  V30 4486 C 436.969 2.32659 -0.197992 0
M  V30 4487 C 437.95 1.56533 0.665697 0
M  V30 4488 O 439.135 1.84698 0.60001 0
M  V30 4489 C 436.265 3.40778 0.669901 0
M  V30 4490 C 435.219 4.27897 -0.0937039 0
M  V30 4491 C 434.545 5.27163 0.894629 0
M  V30 4492 C 435.845 5.06334 -1.28154 0
M  V30 4493 H 437.539 2.82171 -1.00099 0
M  V30 4494 H 435.085 1.35665 -0.482793 0
M  V30 4495 H 437.038 4.07008 1.09191 0
M  V30 4496 H 435.762 2.89827 1.50558 0
M  V30 4497 H 434.421 3.6322 -0.49666 0
M  V30 4498 H 434.069 4.72486 1.72527 0
M  V30 4499 H 433.769 5.86317 0.388149 0
M  V30 4500 H 435.293 5.96266 1.31525 0
M  V30 4501 H 436.707 5.65617 -0.93541 0
M  V30 4502 H 435.104 5.74888 -1.72115 0
M  V30 4503 H 436.174 4.38114 -2.07807 0
M  V30 4504 N 437.518 0.538854 1.48102 0
M  V30 4505 C 438.748 0.0122958 2.06596 0
M  V30 4506 C 439.156 -1.27861 1.39457 0
M  V30 4507 O 438.499 -1.77348 0.478907 0
M  V30 4508 C 438.561 -0.273131 3.58461 0
M  V30 4509 C 438.225 0.92561 4.47528 0
M  V30 4510 C 439.222 1.82637 4.86765 0
M  V30 4511 C 436.907 1.13511 4.89306 0
M  V30 4512 C 438.901 2.92047 5.66558 0
M  V30 4513 C 436.588 2.23233 5.68868 0
M  V30 4514 C 437.586 3.12333 6.07402 0
M  V30 4515 O 437.274 4.20155 6.85365 0
M  V30 4516 H 437.006 0.0344283 0.675123 0
M  V30 4517 H 439.56 0.746494 1.91355 0
M  V30 4518 H 437.79 -1.06141 3.71848 0
M  V30 4519 H 439.479 -0.742842 3.99045 0
M  V30 4520 H 440.245 1.67649 4.55103 0
M  V30 4521 H 436.124 0.450835 4.5879 0
M  V30 4522 H 439.668 3.6162 5.96554 0
M  V30 4523 H 435.565 2.38201 5.99942 0
M  V30 4524 H 436.333 4.17975 7.03732 0
M  V30 4525 N 438.996 -1.55193 0.274407 0
M  V30 4526 C 440.221 -2.04446 -0.348824 0
M  V30 4527 C 440.646 -1.15149 -1.48735 0
M  V30 4528 O 440.004 -0.149952 -1.80679 0
M  V30 4529 C 440.052 -3.51431 -0.808009 0
M  V30 4530 O 439.156 -3.65225 -1.91531 0
M  V30 4531 H 438.497 -0.66006 -0.0722276 0
M  V30 4532 H 441.027 -2.00481 0.408498 0
M  V30 4533 H 441.037 -3.92781 -1.10395 0
M  V30 4534 H 439.712 -4.15892 0.0249865 0
M  V30 4535 H 438.289 -3.35778 -1.62196 0
M  V30 4536 N 440.474 -0.00167713 -1.576 0
M  V30 4537 C 441.384 1.00548 -2.1196 0
M  V30 4538 C 442.4 1.3758 -1.06526 0
M  V30 4539 O 443.576 1.46278 -1.38436 0
M  V30 4540 C 440.641 2.27809 -2.6135 0
M  V30 4541 C 439.702 1.97074 -3.81393 0
M  V30 4542 C 438.935 3.18267 -4.28417 0
M  V30 4543 O 439.158 4.30009 -3.74765 0
M  V30 4544 O 438.092 3.02167 -5.20556 0
M  V30 4545 H 441.918 0.573373 -2.98238 0
M  V30 4546 H 439.503 0.217255 -1.47812 0
M  V30 4547 H 441.385 3.02568 -2.93309 0
M  V30 4548 H 440.06 2.70254 -1.78169 0
M  V30 4549 H 438.967 1.19785 -3.54404 0
M  V30 4550 H 440.3 1.59464 -4.65652 0
M  V30 4551 N 441.952 1.55251 0.271103 0
M  V30 4552 C 443.229 1.66664 1.02384 0
M  V30 4553 C 443.609 0.534363 2.04225 0
M  V30 4554 O 442.957 -0.465337 2.23712 0
M  V30 4555 C 443.167 3.05961 1.67895 0
M  V30 4556 C 444.515 3.63772 2.18986 0
M  V30 4557 O 445.539 3.08606 1.77878 0
M  V30 4558 O 444.398 4.60429 2.94393 0
M  V30 4559 H 441.492 0.676957 0.475035 0
M  V30 4560 H 444.038 1.67589 0.26681 0
M  V30 4561 H 442.81 3.79815 0.941071 0
M  V30 4562 H 442.433 3.08943 2.5028 0
M  V30 4563 N 443.43 -0.535701 1.48216 0
M  V30 4564 C 444.36 -1.65014 1.65204 0
M  V30 4565 C 445.341 -1.62554 0.501011 0
M  V30 4566 O 446.526 -1.7984 0.732886 0
M  V30 4567 C 443.656 -3.03616 1.68626 0
M  V30 4568 C 442.61 -3.20932 2.83172 0
M  V30 4569 C 441.936 -4.60537 2.71679 0
M  V30 4570 C 443.236 -3.04249 4.24535 0
M  V30 4571 H 444.93 -1.51053 2.58502 0
M  V30 4572 H 442.476 -0.725262 1.24402 0
M  V30 4573 H 444.429 -3.81446 1.79099 0
M  V30 4574 H 443.153 -3.18587 0.719026 0
M  V30 4575 H 441.812 -2.45517 2.72244 0
M  V30 4576 H 441.46 -4.72336 1.72937 0
M  V30 4577 H 441.16 -4.73069 3.48538 0
M  V30 4578 H 442.684 -5.40475 2.84112 0
M  V30 4579 H 444.098 -3.71877 4.36326 0
M  V30 4580 H 442.495 -3.28278 5.02348 0
M  V30 4581 H 443.565 -2.00739 4.41397 0
M  V30 4582 N 444.908 -1.36708 -0.784132 0
M  V30 4583 C 445.858 -1.2799 -1.88686 0
M  V30 4584 C 446.842 -0.170282 -1.59996 0
M  V30 4585 O 448.034 -0.403571 -1.72338 0
M  V30 4586 C 445.163 -1.07674 -3.25977 0
M  V30 4587 C 444.249 -2.23127 -3.60659 0
M  V30 4588 N 444.64 -3.48467 -3.66612 0
M  V30 4589 C 442.938 -2.15009 -3.90752 0
M  V30 4590 C 443.639 -4.24525 -3.97685 0
M  V30 4591 N 442.615 -3.53524 -4.12943 0
M  V30 4592 H 446.417 -2.22927 -1.91522 0
M  V30 4593 H 443.931 -1.29503 -0.979933 0
M  V30 4594 H 445.928 -0.995151 -4.04849 0
M  V30 4595 H 444.588 -0.13643 -3.24413 0
M  V30 4596 H 445.599 -3.82534 -3.49125 0
M  V30 4597 H 442.276 -1.28963 -3.97083 0
M  V30 4598 H 443.666 -5.32944 -4.0917 0
M  V30 4599 N 446.386 1.0089 -1.21074 0
M  V30 4600 C 447.663 1.71834 -0.934469 0
M  V30 4601 C 448.043 2.0368 0.554753 0
M  V30 4602 O 447.391 1.70742 1.51854 0
M  V30 4603 C 447.601 2.98061 -1.8155 0
M  V30 4604 C 448.949 3.7117 -2.06199 0
M  V30 4605 O 449.973 3.08034 -1.78867 0
M  V30 4606 O 448.832 4.84721 -2.52404 0
M  V30 4607 H 445.926 0.749253 -0.35007 0
M  V30 4608 H 448.472 1.06668 -1.31985 0
M  V30 4609 H 447.244 2.70908 -2.82355 0
M  V30 4610 H 446.867 3.70968 -1.43068 0
M  V30 4611 N 447.864 1.01787 1.20321 0
M  V30 4612 C 448.811 0.589197 2.23153 0
M  V30 4613 C 449.781 -0.391367 1.61423 0
M  V30 4614 O 450.966 -0.290518 1.88575 0
M  V30 4615 C 448.106 -0.0650747 3.45039 0
M  V30 4616 C 447.219 0.960207 4.21194 0
M  V30 4617 C 446.354 0.276854 5.30478 0
M  V30 4618 C 445.393 1.2888 5.98378 0
M  V30 4619 N 444.53 0.632031 6.99249 0
M  V30 4620 H 449.37 1.47071 2.59179 0
M  V30 4621 H 446.907 0.736192 1.27352 0
M  V30 4622 H 448.865 -0.461552 4.14639 0
M  V30 4623 H 447.495 -0.910233 3.09701 0
M  V30 4624 H 446.547 1.47484 3.50646 0
M  V30 4625 H 447.859 1.72977 4.67847 0
M  V30 4626 H 447.013 -0.175056 6.06447 0
M  V30 4627 H 445.752 -0.525004 4.84866 0
M  V30 4628 H 444.757 1.75109 5.21169 0
M  V30 4629 H 445.982 2.09196 6.46076 0
M  V30 4630 H 443.928 -0.149935 6.55829 0
M  V30 4631 H 443.845 1.33964 7.44036 0
M  V30 4632 H 445.113 0.203755 7.79234 0
M  V30 4633 N 449.342 -1.36122 0.79427 0
M  V30 4634 C 450.619 -1.93398 0.292685 0
M  V30 4635 C 450.999 -1.72567 -1.21589 0
M  V30 4636 O 450.347 -1.08745 -2.00965 0
M  V30 4637 C 450.557 -3.42099 0.690614 0
M  V30 4638 C 451.905 -4.19231 0.673105 0
M  V30 4639 O 452.929 -3.50559 0.631389 0
M  V30 4640 O 451.788 -5.41732 0.720362 0
M  V30 4641 H 448.882 -0.823712 0.0736693 0
M  V30 4642 H 451.428 -1.45273 0.87714 0
M  V30 4643 H 450.2 -3.50938 1.73085 0
M  V30 4644 H 449.823 -3.97519 0.0803036 0
M  V30 4645 N 450.82 -0.546701 -1.47814 0
M  V30 4646 C 452.067 -0.0187407 -2.02491 0
M  V30 4647 C 452.395 1.32685 -1.42215 0
M  V30 4648 O 451.65 1.87413 -0.563454 0
M  V30 4649 C 451.949 0.134869 -3.57145 0
M  V30 4650 C 451.615 -1.13849 -4.3629 0
M  V30 4651 C 450.277 -1.48743 -4.57634 0
M  V30 4652 C 452.629 -1.98277 -4.82012 0
M  V30 4653 C 449.957 -2.67932 -5.21948 0
M  V30 4654 C 452.309 -3.16659 -5.4764 0
M  V30 4655 C 450.973 -3.51879 -5.67219 0
M  V30 4656 H 450.243 -0.0068577 -0.740968 0
M  V30 4657 H 452.89 -0.716097 -1.77607 0
M  V30 4658 H 451.195 0.915118 -3.80963 0
M  V30 4659 H 452.892 0.558556 -3.97091 0
M  V30 4660 H 449.482 -0.856767 -4.19949 0
M  V30 4661 H 453.666 -1.72628 -4.6531 0
M  V30 4662 H 448.922 -2.95401 -5.35302 0
M  V30 4663 H 453.096 -3.82374 -5.82033 0
M  V30 4664 H 450.723 -4.44331 -6.16825 0
M  V30 4665 N 452.299 1.55045 -0.282633 0
M  V30 4666 C 453.229 2.2579 0.595066 0
M  V30 4667 C 454.21 1.25074 1.15284 0
M  V30 4668 O 455.395 1.5381 1.18559 0
M  V30 4669 C 452.525 2.98472 1.77572 0
M  V30 4670 C 451.479 4.0618 1.34914 0
M  V30 4671 C 450.805 4.66477 2.6135 0
M  V30 4672 C 452.105 5.1996 0.493821 0
M  V30 4673 H 453.799 2.994 0.00505653 0
M  V30 4674 H 451.345 1.44 0.000992001 0
M  V30 4675 H 453.298 3.46677 2.39568 0
M  V30 4676 H 452.022 2.2241 2.39168 0
M  V30 4677 H 450.681 3.58797 0.752338 0
M  V30 4678 H 450.329 3.87074 3.2122 0
M  V30 4679 H 450.029 5.39207 2.33516 0
M  V30 4680 H 451.553 5.17435 3.24181 0
M  V30 4681 H 452.967 5.64172 1.01898 0
M  V30 4682 H 451.364 5.99299 0.310047 0
M  V30 4683 H 452.434 4.82462 -0.485593 0
M  V30 4684 N 453.777 0.010035 1.57597 0
M  V30 4685 C 454.687 -0.994226 2.12491 0
M  V30 4686 C 455.703 -1.37013 1.07254 0
M  V30 4687 O 456.879 -1.45542 1.3921 0
M  V30 4688 C 453.944 -2.2642 2.62555 0
M  V30 4689 C 453.005 -1.95049 3.82432 0
M  V30 4690 C 452.238 -3.15991 4.30099 0
M  V30 4691 O 452.461 -4.28015 3.7704 0
M  V30 4692 O 451.395 -2.99403 5.22151 0
M  V30 4693 H 455.221 -0.557549 2.98538 0
M  V30 4694 H 452.806 -0.209413 1.47925 0
M  V30 4695 H 454.688 -3.01009 2.9491 0
M  V30 4696 H 453.363 -2.69306 1.796 0
M  V30 4697 H 452.27 -1.17904 3.55034 0
M  V30 4698 H 453.603 -1.56992 4.66491 0
M  V30 4699 N 455.255 -1.55392 -0.262866 0
M  V30 4700 C 456.203 -1.8977 -1.345 0
M  V30 4701 C 457.197 -0.775063 -1.50629 0
M  V30 4702 O 458.403 -0.959519 -1.52293 0
M  V30 4703 H 454.778 -0.602467 -0.450041 0
M  V30 4704 H 456.749 -2.80147 -1.02762 0
M  V30 4705 C 455.498 -2.19501 -2.69657 0
M  V30 4706 H 454.821 -3.05378 -2.5804 0
M  V30 4707 H 456.261 -2.47469 -3.44289 0
M  V30 4708 C 454.72 -1.00597 -3.21531 0
M  V30 4709 O 455.25 -0.245768 -4.00947 0
M  V30 4710 N 453.456 -0.800911 -2.79345 0
M  V30 4711 H 453.003 -1.42079 -2.14875 0
M  V30 4712 H 452.961 -0.00697996 -3.14399 0
M  V30 4713 N 456.733 0.527833 -1.48498 0
M  V30 4714 C 457.973 1.29401 -1.58224 0
M  V30 4715 C 458.337 1.90348 -0.251327 0
M  V30 4716 O 459.538 2.67868 -0.223588 0
M  V30 4717 C 457.809 2.35266 -2.69044 0
M  V30 4718 S 459.368 3.2158 -2.98549 0
M  V30 4719 H 456.186 0.440138 -0.558391 0
M  V30 4720 H 458.788 0.601079 -1.8603 0
M  V30 4721 H 457.492 1.88975 -3.64303 0
M  V30 4722 H 457.023 3.09263 -2.43146 0
M  V30 4723 H 459.038 4.35391 -2.38011 0
M  V30 4724 N 458.211 1.37122 0.776871 0
M  V30 4725 C 459.439 1.3523 1.5659 0
M  V30 4726 C 459.854 -0.0635518 1.88693 0
M  V30 4727 O 459.211 -1.02394 1.51069 0
M  V30 4728 C 459.262 2.18583 2.8793 0
M  V30 4729 O 458.983 3.5465 2.57206 0
M  V30 4730 C 460.484 2.24612 3.82183 0
M  V30 4731 H 457.704 0.4634 0.485285 0
M  V30 4732 H 460.248 1.80392 0.963266 0
M  V30 4733 H 458.403 1.76943 3.4463 0
M  V30 4734 H 458.817 3.98286 3.41275 0
M  V30 4735 H 460.291 2.87267 4.71361 0
M  V30 4736 H 460.768 1.25309 4.20944 0
M  V30 4737 H 461.374 2.66543 3.31414 0
M  V30 4738 N 459.689 -1.00246 1.21608 0
M  V30 4739 C 460.917 -1.77631 1.06089 0
M  V30 4740 C 461.332 -1.84746 -0.38916 0
M  V30 4741 O 460.689 -1.31068 -1.26994 0
M  V30 4742 C 460.74 -3.21415 1.65453 0
M  V30 4743 O 460.461 -3.14703 3.04785 0
M  V30 4744 C 461.962 -4.15289 1.55079 0
M  V30 4745 H 459.182 -0.558162 0.37242 0
M  V30 4746 H 461.726 -1.26093 1.60999 0
M  V30 4747 H 459.881 -3.70053 1.14629 0
M  V30 4748 H 460.295 -4.05056 3.33212 0
M  V30 4749 H 461.769 -5.13965 2.01355 0
M  V30 4750 H 462.246 -4.36279 0.505665 0
M  V30 4751 H 462.852 -3.72543 2.05163 0
M  V30 4752 N 461.167 -1.02423 -1.1978 0
M  V30 4753 C 462.415 -0.716569 -1.8897 0
M  V30 4754 C 462.736 0.756769 -1.79716 0
M  V30 4755 O 462.006 1.5449 -1.20456 0
M  V30 4756 H 460.586 -0.262062 -0.699523 0
M  V30 4757 H 463.248 -1.29747 -1.45436 0
M  V30 4758 H 462.344 -1.00675 -2.95417 0
M  V30 4759 N 462.645 1.35699 -0.801477 0
M  V30 4760 C 463.892 1.98913 -0.379459 0
M  V30 4761 C 464.22 1.63592 1.05204 0
M  V30 4762 O 463.475 0.888563 1.74365 0
M  V30 4763 C 463.774 3.53828 -0.504041 0
M  V30 4764 C 463.44 4.09002 -1.8981 0
M  V30 4765 C 462.102 4.23783 -2.27951 0
M  V30 4766 C 464.454 4.38939 -2.81038 0
M  V30 4767 C 461.782 4.65816 -3.56696 0
M  V30 4768 C 464.134 4.82409 -4.09224 0
M  V30 4769 C 462.798 4.95395 -4.4737 0
M  V30 4770 H 462.068 0.727874 -0.138854 0
M  V30 4771 H 464.715 1.61994 -1.02128 0
M  V30 4772 H 463.02 3.91175 0.221242 0
M  V30 4773 H 464.717 4.00687 -0.158361 0
M  V30 4774 H 461.307 3.97946 -1.59176 0
M  V30 4775 H 465.491 4.27077 -2.52821 0
M  V30 4776 H 460.747 4.74059 -3.86106 0
M  V30 4777 H 464.921 5.04535 -4.80018 0
M  V30 4778 H 462.548 5.27724 -5.47185 0
M  V30 4779 N 464.123 0.554532 1.47522 0
M  V30 4780 C 465.4 -0.0360704 1.95567 0
M  V30 4781 C 465.78 -1.48828 1.49711 0
M  V30 4782 O 465.128 -2.16366 0.734717 0
M  V30 4783 C 465.338 0.106631 3.48837 0
M  V30 4784 C 466.686 -0.0400899 4.24581 0
M  V30 4785 O 467.71 0.0340453 3.56184 0
M  V30 4786 O 466.569 -0.199111 5.46137 0
M  V30 4787 H 463.663 -0.0656294 0.824392 0
M  V30 4788 H 466.209 0.620867 1.57935 0
M  V30 4789 H 464.981 1.11727 3.7501 0
M  V30 4790 H 464.604 -0.58804 3.93227 0
M  V30 4791 N 465.601 -1.54893 0.290851 0
M  V30 4792 C 466.531 -2.26103 -0.583084 0
M  V30 4793 C 467.512 -1.25684 -1.14619 0
M  V30 4794 O 468.697 -1.54436 -1.17741 0
M  V30 4795 C 465.827 -2.99409 -1.75987 0
M  V30 4796 C 464.781 -4.0689 -1.32758 0
M  V30 4797 C 464.107 -4.67856 -2.58872 0
M  V30 4798 C 465.407 -5.20215 -0.46624 0
M  V30 4799 H 467.101 -2.99398 0.0108214 0
M  V30 4800 H 464.647 -1.43998 0.00664468 0
M  V30 4801 H 466.6 -3.47943 -2.37727 0
M  V30 4802 H 465.324 -2.23675 -2.37985 0
M  V30 4803 H 463.983 -3.59191 -0.733299 0
M  V30 4804 H 463.631 -3.88772 -3.19163 0
M  V30 4805 H 463.331 -5.40438 -2.30653 0
M  V30 4806 H 464.855 -5.19147 -3.21433 0
M  V30 4807 H 466.269 -5.64704 -0.989047 0
M  V30 4808 H 464.666 -5.99455 -0.27826 0
M  V30 4809 H 465.736 -4.82198 0.511173 0
M  V30 4810 N 467.08 -0.0183926 -1.57589 0
M  V30 4811 C 468.327 0.662562 -1.91354 0
M  V30 4812 C 468.655 1.72747 -0.893788 0
M  V30 4813 O 467.91 1.9545 0.0988509 0
M  V30 4814 C 468.209 1.32676 -3.31861 0
M  V30 4815 C 467.875 0.393267 -4.49182 0
M  V30 4816 C 466.537 0.136302 -4.81007 0
M  V30 4817 C 468.889 -0.248366 -5.20608 0
M  V30 4818 C 466.217 -0.770282 -5.81621 0
M  V30 4819 C 468.569 -1.14294 -6.22189 0
M  V30 4820 C 467.233 -1.4089 -6.52462 0
M  V30 4821 H 466.503 0.242448 -0.700214 0
M  V30 4822 H 469.15 -0.0778629 -1.91342 0
M  V30 4823 H 467.455 2.14168 -3.28084 0
M  V30 4824 H 469.152 1.86001 -3.55253 0
M  V30 4825 H 465.742 0.603723 -4.24327 0
M  V30 4826 H 469.926 -0.062883 -4.9626 0
M  V30 4827 H 465.182 -0.984154 -6.03427 0
M  V30 4828 H 469.356 -1.64637 -6.76659 0
M  V30 4829 H 466.983 -2.11306 -7.30242 0
M  V30 4830 N 468.558 1.5553 0.254621 0
M  V30 4831 C 469.521 1.88872 1.29846 0
M  V30 4832 C 470.521 0.764591 1.41459 0
M  V30 4833 O 471.711 1.03265 1.40293 0
M  V30 4834 C 468.843 2.11032 2.67728 0
M  V30 4835 H 470.036 2.82201 1.01502 0
M  V30 4836 H 467.589 1.48303 0.493556 0
M  V30 4837 H 468.324 1.20146 3.01223 0
M  V30 4838 H 468.109 2.92895 2.60682 0
M  V30 4839 H 469.599 2.38038 3.43115 0
M  V30 4840 N 470.036 -0.519951 1.48776 0
M  V30 4841 C 470.999 -1.60574 1.6355 0
M  V30 4842 C 471.999 -1.52557 0.508234 0
M  V30 4843 O 473.189 -1.56047 0.774262 0
M  V30 4844 C 470.321 -3.00211 1.61512 0
M  V30 4845 H 471.514 -1.4881 2.60376 0
M  V30 4846 H 469.067 -0.742772 1.37523 0
M  V30 4847 H 469.802 -3.17471 0.662009 0
M  V30 4848 H 469.587 -3.07439 2.43359 0
M  V30 4849 H 471.077 -3.79134 1.75064 0
M  V30 4850 N 471.514 -1.37532 -0.769588 0
M  V30 4851 C 472.744 -1.35861 -1.55645 0
M  V30 4852 C 473.152 0.0574398 -1.89113 0
M  V30 4853 O 472.495 1.03021 -1.52093 0
M  V30 4854 C 472.557 -2.13431 -2.89288 0
M  V30 4855 C 472.221 -3.62378 -2.78444 0
M  V30 4856 C 473.218 -4.56215 -2.49326 0
M  V30 4857 C 470.903 -4.05529 -2.96398 0
M  V30 4858 C 472.897 -5.91181 -2.38294 0
M  V30 4859 C 470.584 -5.40579 -2.84987 0
M  V30 4860 C 471.582 -6.33218 -2.55975 0
M  V30 4861 O 471.27 -7.65787 -2.44594 0
M  V30 4862 H 471.002 -0.467001 -0.48876 0
M  V30 4863 H 473.556 -1.81505 -0.961515 0
M  V30 4864 H 471.786 -1.62481 -3.50909 0
M  V30 4865 H 473.475 -2.04368 -3.50697 0
M  V30 4866 H 474.241 -4.24187 -2.35139 0
M  V30 4867 H 470.12 -3.33781 -3.1798 0
M  V30 4868 H 473.664 -6.63457 -2.15571 0
M  V30 4869 H 469.561 -5.72209 -2.98743 0
M  V30 4870 H 470.329 -7.76132 -2.59927 0
M  V30 4871 N 472.992 0.995999 -1.22138 0
M  V30 4872 C 473.922 2.10387 -1.01289 0
M  V30 4873 C 474.903 1.69975 0.0651454 0
M  V30 4874 O 476.088 1.9396 -0.0964628 0
M  V30 4875 C 473.218 3.42312 -0.586517 0
M  V30 4876 C 472.172 3.96558 -1.61014 0
M  V30 4877 C 471.498 5.24494 -1.0397 0
M  V30 4878 C 472.798 4.27595 -2.99933 0
M  V30 4879 H 474.492 2.28086 -1.93951 0
M  V30 4880 H 472.038 1.09607 -0.933928 0
M  V30 4881 H 473.991 4.19223 -0.427793 0
M  V30 4882 H 472.715 3.24431 0.375761 0
M  V30 4883 H 471.374 3.21776 -1.75658 0
M  V30 4884 H 471.022 5.02953 -0.0688703 0
M  V30 4885 H 470.722 5.61755 -1.72352 0
M  V30 4886 H 472.246 6.04042 -0.892494 0
M  V30 4887 H 473.66 4.95315 -2.8868 0
M  V30 4888 H 472.057 4.76021 -3.6541 0
M  V30 4889 H 473.127 3.35498 -3.50099 0
M  V30 4890 N 474.47 1.03057 1.19235 0
M  V30 4891 C 475.698 0.747697 1.92917 0
M  V30 4892 C 476.113 -0.69372 1.75593 0
M  V30 4893 O 475.47 -1.47191 1.07894 0
M  V30 4894 C 475.521 1.09159 3.44625 0
M  V30 4895 O 475.242 2.47641 3.61394 0
M  V30 4896 C 476.743 0.831763 4.35427 0
M  V30 4897 H 473.963 0.273453 0.612751 0
M  V30 4898 H 476.507 1.37552 1.51327 0
M  V30 4899 H 474.662 0.508919 3.84043 0
M  V30 4900 H 475.076 2.60499 4.55237 0
M  V30 4901 H 476.55 1.12233 5.4047 0
M  V30 4902 H 477.027 -0.233769 4.38577 0
M  V30 4903 H 477.633 1.39725 4.01693 0
M  V30 4904 N 475.948 -1.35272 0.808662 0
M  V30 4905 C 477.196 -1.98316 0.389233 0
M  V30 4906 C 477.517 -1.64465 -1.04767 0
M  V30 4907 O 476.787 -0.928175 -1.72516 0
M  V30 4908 H 475.367 -0.733585 0.140935 0
M  V30 4909 H 478.029 -1.6515 1.03496 0
M  V30 4910 H 477.125 -3.08123 0.496631 0
M  V30 4911 N 477.426 -0.562348 -1.47226 0
M  V30 4912 C 478.336 0.185466 -2.33866 0
M  V30 4913 C 479.352 0.906713 -1.48508 0
M  V30 4914 O 480.528 0.874458 -1.81425 0
M  V30 4915 C 477.593 1.19904 -3.25306 0
M  V30 4916 C 476.654 0.484669 -4.26555 0
M  V30 4917 C 475.887 1.44996 -5.13626 0
M  V30 4918 O 476.11 2.68515 -5.03245 0
M  V30 4919 O 475.044 0.971642 -5.94006 0
M  V30 4920 H 478.87 -0.525361 -2.99121 0
M  V30 4921 H 476.455 -0.322916 -1.45868 0
M  V30 4922 H 478.337 1.78399 -3.81774 0
M  V30 4923 H 477.012 1.8917 -2.62672 0
M  V30 4924 H 475.919 -0.141605 -3.73832 0
M  V30 4925 H 477.252 -0.166634 -4.91918 0
M  V30 4926 N 478.904 1.54736 -0.299062 0
M  V30 4927 C 480.129 2.04975 0.316254 0
M  V30 4928 C 480.554 1.17501 1.46885 0
M  V30 4929 O 479.912 0.178678 1.80417 0
M  V30 4930 C 479.96 3.52672 0.751997 0
M  V30 4931 O 479.064 3.68226 1.85697 0
M  V30 4932 H 478.405 0.661126 0.0617175 0
M  V30 4933 H 480.935 1.99805 -0.440341 0
M  V30 4934 H 480.945 3.94488 1.04133 0
M  V30 4935 H 479.62 4.158 -0.0911482 0
M  V30 4936 H 478.197 3.38316 1.56834 0
M  V30 4937 N 480.382 0.0267497 1.57577 0
M  V30 4938 C 481.659 -0.690926 1.82991 0
M  V30 4939 C 482.039 -1.90471 0.910164 0
M  V30 4940 O 481.387 -2.28474 -0.0347985 0
M  V30 4941 C 481.597 -1.07139 3.32148 0
M  V30 4942 C 482.945 -1.46402 3.98562 0
M  V30 4943 O 483.969 -1.16443 3.36629 0
M  V30 4944 O 482.828 -2.02214 5.07712 0
M  V30 4945 H 479.922 -0.338747 0.75444 0
M  V30 4946 H 482.468 0.0542506 1.69613 0
M  V30 4947 H 481.24 -0.207394 3.9075 0
M  V30 4948 H 480.863 -1.87481 3.50623 0
M  V30 4949 N 481.861 -1.55662 -0.24637 0
M  V30 4950 C 483.109 -1.77168 -0.972411 0
M  V30 4951 C 483.43 -0.590827 -1.85834 0
M  V30 4952 O 482.7 0.393365 -1.9191 0
M  V30 4953 H 481.28 -0.653405 -0.362038 0
M  V30 4954 H 483.942 -1.93101 -0.264189 0
M  V30 4955 H 483.038 -2.68335 -1.59382 0
M  V30 4956 N 483.339 0.512053 -1.4905 0
M  V30 4957 C 484.567 1.29116 -1.61669 0
M  V30 4958 C 484.982 1.86655 -0.283787 0
M  V30 4959 O 484.339 1.67293 0.729331 0
M  V30 4960 C 484.39 2.4293 -2.67707 0
M  V30 4961 O 484.111 1.87758 -3.95826 0
M  V30 4962 C 485.612 3.34476 -2.90931 0
M  V30 4963 H 482.832 0.392009 -0.544583 0
M  V30 4964 H 485.376 0.615881 -1.95006 0
M  V30 4965 H 483.531 3.06308 -2.37179 0
M  V30 4966 H 483.945 2.62393 -4.54148 0
M  V30 4967 H 485.419 4.10642 -3.68886 0
M  V30 4968 H 485.896 3.90801 -2.00427 0
M  V30 4969 H 486.502 2.76874 -3.22832 0
M  V30 4970 N 484.817 1.37938 0.762283 0
M  V30 4971 C 486.228 1.30094 1.33912 0
M  V30 4972 C 486.579 -0.0472026 1.96143 0
M  V30 4973 O 485.704 -0.94917 1.94473 0
M  V30 4974 C 486.299 2.35592 2.43478 0
M  V30 4975 C 484.858 2.31353 2.96905 0
M  V30 4976 C 484.005 2.18919 1.70205 0
M  V30 4977 H 486.956 1.48423 0.561816 0
M  V30 4978 H 486.977 2.00806 3.23199 0
M  V30 4979 H 486.489 3.33701 1.98155 0
M  V30 4980 H 484.59 1.36799 3.46579 0
M  V30 4981 H 484.703 3.25147 3.51875 0
M  V30 4982 H 483.067 1.65624 1.93496 0
M  V30 4983 H 483.85 3.18956 1.26973 0
M  V30 4984 N 486.295 -0.989507 1.22664 0
M  V30 4985 C 487.242 -2.08024 0.999733 0
M  V30 4986 C 488.212 -1.65909 -0.0797047 0
M  V30 4987 O 489.397 -1.90669 0.0705715 0
M  V30 4988 C 486.537 -3.40067 0.587234 0
M  V30 4989 C 485.65 -3.95505 1.73781 0
M  V30 4990 C 484.785 -5.15722 1.27297 0
M  V30 4991 C 483.824 -5.63305 2.39488 0
M  V30 4992 N 482.961 -6.74758 1.94026 0
M  V30 4993 H 487.801 -2.26768 1.9334 0
M  V30 4994 H 485.338 -1.11171 0.963297 0
M  V30 4995 H 487.296 -4.15899 0.329227 0
M  V30 4996 H 485.926 -3.21314 -0.309426 0
M  V30 4997 H 484.978 -3.16513 2.11006 0
M  V30 4998 H 486.29 -4.26797 2.58158 0
M  V30 4999 H 485.444 -5.98854 0.972546 0
M  V30 5000 H 484.183 -4.86061 0.399445 0
M  V30 5001 H 483.188 -4.78759 2.70315 0
M  V30 5002 H 484.413 -5.94988 3.27362 0
M  V30 5003 H 482.359 -6.46874 1.09041 0
M  V30 5004 H 482.276 -7.05386 2.71968 0
M  V30 5005 H 483.544 -7.61387 1.67062 0
M  V30 5006 N 487.773 -1.03688 -1.18687 0
M  V30 5007 C 489.001 -0.757918 -1.92518 0
M  V30 5008 C 489.416 0.684398 -1.75959 0
M  V30 5009 O 488.773 1.46617 -1.08673 0
M  V30 5010 C 488.824 -1.10985 -3.44042 0
M  V30 5011 O 488.545 -2.49554 -3.60076 0
M  V30 5012 C 490.046 -0.854844 -4.3498 0
M  V30 5013 H 487.266 -0.276699 -0.611293 0
M  V30 5014 H 489.81 -1.38352 -1.50595 0
M  V30 5015 H 487.965 -0.529279 -3.83767 0
M  V30 5016 H 488.379 -2.6291 -4.53849 0
M  V30 5017 H 489.853 -1.15098 -5.39867 0
M  V30 5018 H 490.33 0.210507 -4.38695 0
M  V30 5019 H 490.936 -1.41853 -4.00946 0
M  V30 5020 N 489.251 1.34841 -0.815825 0
M  V30 5021 C 490.214 2.27959 -0.238185 0
M  V30 5022 C 491.214 1.49983 0.579816 0
M  V30 5023 O 492.404 1.69617 0.396953 0
M  V30 5024 C 489.536 3.34314 0.666876 0
M  V30 5025 H 490.729 2.80558 -1.05958 0
M  V30 5026 H 488.282 1.44852 -0.587156 0
M  V30 5027 H 489.017 2.86916 1.5116 0
M  V30 5028 H 488.802 3.92014 0.0819106 0
M  V30 5029 H 490.292 4.0379 1.06506 0
M  V30 5030 N 490.729 0.570148 1.46925 0
M  V30 5031 C 491.639 -0.173061 2.33961 0
M  V30 5032 C 492.655 -0.898825 1.48987 0
M  V30 5033 O 493.831 -0.864825 1.81887 0
M  V30 5034 C 490.896 -1.18177 3.25937 0
M  V30 5035 C 489.957 -0.462041 4.26806 0
M  V30 5036 C 489.19 -1.4227 5.14388 0
M  V30 5037 O 489.413 -2.65842 5.04662 0
M  V30 5038 O 488.347 -0.940127 5.94513 0
M  V30 5039 H 492.173 0.541216 2.98839 0
M  V30 5040 H 489.758 0.330647 1.45695 0
M  V30 5041 H 491.64 -1.76372 3.82715 0
M  V30 5042 H 490.315 -1.87774 2.63671 0
M  V30 5043 H 489.222 0.161429 3.73752 0
M  V30 5044 H 490.555 0.192719 4.91823 0
M  V30 5045 N 492.207 -1.54576 0.307264 0
M  V30 5046 C 493.453 -2.01272 -0.293453 0
M  V30 5047 C 493.808 -1.19178 -1.51044 0
M  V30 5048 O 493.101 -0.261704 -1.89804 0
M  V30 5049 C 493.295 -3.50572 -0.695253 0
M  V30 5050 C 493.124 -4.47118 0.481249 0
M  V30 5051 C 491.894 -4.958 0.97524 0
M  V30 5052 C 494.092 -4.96853 1.32823 0
M  V30 5053 N 492.074 -5.76212 2.11785 0
M  V30 5054 C 493.445 -5.75028 2.31824 0
M  V30 5055 C 495.5 -4.79026 1.35788 0
M  V30 5056 C 494.203 -6.37276 3.33574 0
M  V30 5057 C 496.229 -5.42097 2.364 0
M  V30 5058 C 495.591 -6.2011 3.34129 0
M  V30 5059 H 491.69 -0.778709 -0.0716705 0
M  V30 5060 H 494.274 -1.89695 0.438602 0
M  V30 5061 H 492.445 -3.62427 -1.39647 0
M  V30 5062 H 494.177 -3.84056 -1.27604 0
M  V30 5063 H 490.932 -4.70405 0.549184 0
M  V30 5064 H 491.356 -6.21101 2.69375 0
M  V30 5065 H 495.998 -4.18288 0.616021 0
M  V30 5066 H 493.716 -6.97144 4.08676 0
M  V30 5067 H 497.302 -5.30229 2.39475 0
M  V30 5068 H 496.182 -6.68049 4.10707 0
M  V30 5069 N 493.685 -0.035106 -1.57561 0
M  V30 5070 C 494.648 0.929819 -2.09492 0
M  V30 5071 C 495.648 1.25026 -1.01119 0
M  V30 5072 O 496.838 1.18961 -1.27255 0
M  V30 5073 C 493.97 2.24457 -2.56577 0
M  V30 5074 H 495.163 0.479935 -2.96035 0
M  V30 5075 H 492.716 0.213033 -1.54841 0
M  V30 5076 H 493.451 2.74061 -1.73382 0
M  V30 5077 H 493.236 2.02508 -3.35757 0
M  V30 5078 H 494.726 2.93607 -2.96959 0
M  V30 5079 N 495.163 1.55791 0.238111 0
M  V30 5080 C 496.126 1.90239 1.27835 0
M  V30 5081 C 497.126 0.779552 1.4064 0
M  V30 5082 O 498.316 1.04747 1.3919 0
M  V30 5083 C 495.448 2.13859 2.65475 0
M  V30 5084 H 496.641 2.83262 0.985034 0
M  V30 5085 H 494.194 1.48818 0.477799 0
M  V30 5086 H 494.929 1.23334 2.99932 0
M  V30 5087 H 494.714 2.95643 2.57561 0
M  V30 5088 H 496.204 2.41664 3.40571 0
M  V30 5089 N 496.642 -0.504142 1.49319 0
M  V30 5090 C 497.552 -1.63248 1.68486 0
M  V30 5091 C 498.568 -1.64488 0.567432 0
M  V30 5092 O 499.744 -1.82966 0.841749 0
M  V30 5093 C 496.809 -2.99627 1.74426 0
M  V30 5094 C 495.87 -3.09039 2.97982 0
M  V30 5095 C 495.103 -4.38913 3.0363 0
M  V30 5096 O 495.326 -5.27528 2.16958 0
M  V30 5097 O 494.26 -4.53231 3.96062 0
M  V30 5098 H 498.086 -1.50008 2.64067 0
M  V30 5099 H 495.671 -0.680086 1.33023 0
M  V30 5100 H 497.553 -3.80689 1.80705 0
M  V30 5101 H 496.228 -3.13136 0.820233 0
M  V30 5102 H 495.135 -2.27177 2.97223 0
M  V30 5103 H 496.468 -3.00456 3.89855 0
M  V30 5104 N 498.12 -1.38341 -0.754957 0
M  V30 5105 C 499.369 -1.33791 -1.5094 0
M  V30 5106 C 499.682 0.0699267 -1.95475 0
M  V30 5107 O 500.888 0.237956 -2.70455 0
M  V30 5108 C 499.344 -2.34934 -2.72643 0
M  V30 5109 C 498.952 -3.81332 -2.35138 0
M  V30 5110 C 500.696 -2.39425 -3.50536 0
M  V30 5111 C 498.603 -4.74164 -3.53444 0
M  V30 5112 H 497.533 -0.497314 -0.566741 0
M  V30 5113 H 500.184 -1.63888 -0.825403 0
M  V30 5114 H 498.566 -1.97878 -3.43017 0
M  V30 5115 H 499.74 -4.27319 -1.7244 0
M  V30 5116 H 498.055 -3.79946 -1.70382 0
M  V30 5117 H 500.652 -3.0598 -4.38498 0
M  V30 5118 H 500.995 -1.41278 -3.91594 0
M  V30 5119 H 501.528 -2.75274 -2.87174 0
M  V30 5120 H 498.267 -5.73501 -3.17453 0
M  V30 5121 H 497.787 -4.3287 -4.15191 0
M  V30 5122 H 499.466 -4.92111 -4.20043 0
M  V30 5123 N 499.598 0.982988 -1.23187 0
M  V30 5124 C 500.838 1.73903 -1.07412 0
M  V30 5125 C 501.202 1.88146 0.382764 0
M  V30 5126 O 502.403 2.6053 0.661638 0
M  V30 5127 C 500.674 3.10105 -1.77678 0
M  V30 5128 S 502.233 4.01323 -1.77441 0
M  V30 5129 H 499.051 0.598093 -0.384456 0
M  V30 5130 H 501.653 1.17456 -1.56283 0
M  V30 5131 H 500.357 2.97388 -2.82822 0
M  V30 5132 H 499.888 3.71622 -1.29077 0
M  V30 5133 H 501.903 4.89189 -0.831162 0
M  V30 5134 N 501.076 1.04316 1.18135 0
M  V30 5135 C 502.324 0.746542 1.87806 0
M  V30 5136 C 502.645 -0.728082 1.80898 0
M  V30 5137 O 501.915 -1.52554 1.22899 0
M  V30 5138 H 500.495 0.273157 0.695265 0
M  V30 5139 H 503.157 1.32044 1.43354 0
M  V30 5140 H 502.253 1.05362 2.93778 0
M  V30 5141 N 502.554 -1.34406 0.822964 0
M  V30 5142 C 503.484 -2.32052 0.259608 0
M  V30 5143 C 504.465 -1.58243 -0.623961 0
M  V30 5144 O 505.65 -1.86224 -0.55083 0
M  V30 5145 C 502.78 -3.42434 -0.579314 0
M  V30 5146 C 501.734 -4.27499 0.20712 0
M  V30 5147 C 501.06 -5.29349 -0.754547 0
M  V30 5148 C 502.36 -5.02758 1.41533 0
M  V30 5149 H 504.054 -2.79418 1.07545 0
M  V30 5150 H 501.6 -1.34338 0.518593 0
M  V30 5151 H 503.553 -4.0976 -0.983612 0
M  V30 5152 H 502.277 -2.93717 -1.4282 0
M  V30 5153 H 500.936 -3.61776 0.592787 0
M  V30 5154 H 500.584 -4.76895 -1.59939 0
M  V30 5155 H 500.284 -5.8714 -0.232561 0
M  V30 5156 H 501.808 -5.99544 -1.1567 0
M  V30 5157 H 503.222 -5.62938 1.08504 0
M  V30 5158 H 501.619 -5.70123 1.87296 0
M  V30 5159 H 502.689 -4.32451 2.1935 0
M  V30 5160 N 504.032 -0.577932 -1.46621 0
M  V30 5161 C 505.443 -0.150071 -1.86096 0
M  V30 5162 C 505.794 1.28563 -1.48209 0
M  V30 5163 O 504.919 1.97036 -0.894754 0
M  V30 5164 C 505.514 -0.265576 -3.37758 0
M  V30 5165 C 504.073 0.10738 -3.76247 0
M  V30 5166 C 503.22 -0.603711 -2.70649 0
M  V30 5167 H 506.171 -0.786438 -1.37844 0
M  V30 5168 H 506.192 0.510352 -3.77062 0
M  V30 5169 H 505.704 -1.3106 -3.65301 0
M  V30 5170 H 503.805 1.15272 -3.54321 0
M  V30 5171 H 503.918 -0.26561 -4.78363 0
M  V30 5172 H 502.282 -0.0444884 -2.54661 0
M  V30 5173 H 503.065 -1.65029 -3.01032 0
M  V30 5174 N 505.51 1.54411 -0.315457 0
M  V30 5175 C 506.473 2.22713 0.54142 0
M  V30 5176 C 507.473 1.2179 1.04995 0
M  V30 5177 O 508.663 1.46426 0.943667 0
M  V30 5178 C 505.795 2.92485 1.75116 0
M  V30 5179 H 506.988 2.99849 -0.0555508 0
M  V30 5180 H 504.541 1.56159 -0.0664453 0
M  V30 5181 H 505.276 2.19466 2.38758 0
M  V30 5182 H 505.061 3.66483 1.39401 0
M  V30 5183 H 506.551 3.44548 2.35959 0
M  V30 5184 N 506.988 0.0434614 1.5754 0
M  V30 5185 C 507.898 -0.94893 2.14552 0
M  V30 5186 C 508.914 -1.34707 1.10136 0
M  V30 5187 O 510.09 -1.42557 1.42266 0
M  V30 5188 C 507.155 -2.208 2.67298 0
M  V30 5189 C 506.216 -1.86893 3.86484 0
M  V30 5190 C 505.449 -3.06797 4.36705 0
M  V30 5191 O 505.672 -4.19921 3.86034 0
M  V30 5192 O 504.606 -2.8826 5.28384 0
M  V30 5193 H 508.432 -0.494099 2.99654 0
M  V30 5194 H 506.017 -0.177989 1.48336 0
M  V30 5195 H 507.899 -2.94686 3.01228 0
M  V30 5196 H 506.574 -2.65436 1.85272 0
M  V30 5197 H 505.481 -1.10347 3.57455 0
M  V30 5198 H 506.814 -1.47062 4.69716 0
M  V30 5199 N 508.466 -1.55915 -0.229846 0
M  V30 5200 C 509.398 -1.88209 -1.30805 0
M  V30 5201 C 510.411 -0.769672 -1.43457 0
M  V30 5202 O 511.6 -1.04792 -1.44502 0
M  V30 5203 C 508.7 -2.06829 -2.68468 0
M  V30 5204 C 507.873 -3.37798 -2.77869 0
M  V30 5205 C 506.932 -3.45952 -3.96489 0
M  V30 5206 O 505.958 -4.19043 -3.85216 0
M  V30 5207 N 507.16 -2.76488 -5.10426 0
M  V30 5208 H 509.925 -2.81286 -1.03431 0
M  V30 5209 H 507.486 -1.5636 -0.41991 0
M  V30 5210 H 509.478 -2.09608 -3.46189 0
M  V30 5211 H 508.048 -1.20416 -2.88477 0
M  V30 5212 H 507.268 -3.4719 -1.86689 0
M  V30 5213 H 508.556 -4.24091 -2.81113 0
M  V30 5214 H 507.954 -2.16868 -5.2248 0
M  V30 5215 H 506.511 -2.84938 -5.8622 0
M  V30 5216 N 509.944 0.496216 -1.49584 0
M  V30 5217 C 511.193 1.24668 -1.58558 0
M  V30 5218 C 511.506 1.9359 -0.279703 0
M  V30 5219 O 512.712 2.70365 -0.248048 0
M  V30 5220 C 511.168 2.26388 -2.79779 0
M  V30 5221 C 510.776 1.63384 -4.17145 0
M  V30 5222 C 512.52 3.02233 -2.98086 0
M  V30 5223 C 510.427 2.63243 -5.29582 0
M  V30 5224 H 509.357 0.468995 -0.590389 0
M  V30 5225 H 512.008 0.519985 -1.75978 0
M  V30 5226 H 510.39 3.02241 -2.55863 0
M  V30 5227 H 511.564 0.93491 -4.51216 0
M  V30 5228 H 509.879 0.999121 -4.04236 0
M  V30 5229 H 512.476 3.76919 -3.79257 0
M  V30 5230 H 512.819 3.60132 -2.08831 0
M  V30 5231 H 513.352 2.33495 -3.22063 0
M  V30 5232 H 510.091 2.10119 -6.20911 0
M  V30 5233 H 509.611 3.31363 -4.99959 0
M  V30 5234 H 511.29 3.25575 -5.59115 0
M  V30 5235 N 511.423 1.38739 0.74761 0
M  V30 5236 C 512.839 1.20067 1.05148 0
M  V30 5237 C 513.039 0.0534835 2.01429 0
M  V30 5238 O 512.095 -0.59886 2.45296 0
M  V30 5239 C 513.408 2.52957 1.62584 0
M  V30 5240 C 514.956 2.59692 1.74726 0
M  V30 5241 C 515.431 3.92772 2.35573 0
M  V30 5242 N 516.922 3.94343 2.42997 0
M  V30 5243 C 517.657 4.9408 2.90985 0
M  V30 5244 N 517.153 6.04214 3.38965 0
M  V30 5245 N 518.946 4.81466 2.9008 0
M  V30 5246 H 511.097 2.12121 0.108808 0
M  V30 5247 H 513.36 0.941491 0.110899 0
M  V30 5248 H 513.066 3.37389 0.993051 0
M  V30 5249 H 512.94 2.71779 2.61565 0
M  V30 5250 H 515.327 1.75651 2.3713 0
M  V30 5251 H 515.408 2.44731 0.744326 0
M  V30 5252 H 515.052 4.77238 1.738 0
M  V30 5253 H 514.982 4.05046 3.36519 0
M  V30 5254 H 517.473 3.14799 2.0907 0
M  V30 5255 H 517.786 6.76241 3.74056 0
M  V30 5256 H 516.131 6.07825 3.37007 0
M  V30 5257 H 519.322 3.94535 2.51912 0
M  V30 5258 H 519.495 5.59344 3.27166 0
M  V30 5259 N 512.901 -0.976442 1.23707 0
M  V30 5260 C 513.811 -2.10359 1.03856 0
M  V30 5261 C 514.827 -1.73991 -0.0180919 0
M  V30 5262 O 516.003 -2.0061 0.178211 0
M  V30 5263 C 513.068 -3.40809 0.636387 0
M  V30 5264 C 512.129 -3.91179 1.76854 0
M  V30 5265 C 511.362 -5.15404 1.38546 0
M  V30 5266 O 511.585 -5.69754 0.27142 0
M  V30 5267 O 510.519 -5.5994 2.20797 0
M  V30 5268 H 514.345 -2.29997 1.98331 0
M  V30 5269 H 511.93 -1.08742 1.02448 0
M  V30 5270 H 513.812 -4.19269 0.423223 0
M  V30 5271 H 512.487 -3.22493 -0.279322 0
M  V30 5272 H 511.394 -3.13819 2.03638 0
M  V30 5273 H 512.727 -4.13958 2.6627 0
M  V30 5274 N 514.379 -1.04941 -1.1758 0
M  V30 5275 C 515.309 -0.669172 -2.23706 0
M  V30 5276 C 516.29 0.331835 -1.66832 0
M  V30 5277 O 517.475 0.209988 -1.93061 0
M  V30 5278 C 514.605 -0.0404889 -3.47276 0
M  V30 5279 C 513.559 -0.965983 -4.16957 0
M  V30 5280 C 512.885 -0.201312 -5.34321 0
M  V30 5281 C 514.185 -2.28902 -4.69469 0
M  V30 5282 H 515.879 -1.55639 -2.55767 0
M  V30 5283 H 513.425 -0.749793 -1.22939 0
M  V30 5284 H 515.378 0.237298 -4.20731 0
M  V30 5285 H 514.102 0.881658 -3.14475 0
M  V30 5286 H 512.761 -1.22829 -3.45411 0
M  V30 5287 H 512.409 0.723519 -4.97769 0
M  V30 5288 H 512.109 -0.817968 -5.81879 0
M  V30 5289 H 513.633 0.0692499 -6.10561 0
M  V30 5290 H 515.047 -2.07132 -5.34574 0
M  V30 5291 H 513.444 -2.85942 -5.27596 0
M  V30 5292 H 514.514 -2.92937 -3.86414 0
M  V30 5293 N 515.857 1.33968 -0.830081 0
M  V30 5294 C 516.82 2.27694 -0.26235 0
M  V30 5295 C 517.82 1.50589 0.563876 0
M  V30 5296 O 519.01 1.70028 0.378941 0
M  V30 5297 C 516.142 3.35002 0.63138 0
M  V30 5298 H 517.335 2.79419 -1.08928 0
M  V30 5299 H 514.888 1.44221 -0.602486 0
M  V30 5300 H 515.623 2.88504 1.48109 0
M  V30 5301 H 515.408 3.92079 0.0403276 0
M  V30 5302 H 516.898 4.04897 1.02217 0
M  V30 5303 N 517.335 0.585699 1.46312 0
M  V30 5304 C 518.751 0.247607 1.57668 0
M  V30 5305 C 518.951 -1.25007 1.58037 0
M  V30 5306 O 518.007 -2.03196 1.49893 0
M  V30 5307 C 519.32 0.899456 2.86933 0
M  V30 5308 C 520.868 0.873326 3.00569 0
M  V30 5309 C 521.343 1.50477 4.32574 0
M  V30 5310 N 522.834 1.46925 4.3928 0
M  V30 5311 C 523.569 1.92719 5.40044 0
M  V30 5312 N 523.065 2.46499 6.47464 0
M  V30 5313 N 524.858 1.83617 5.31264 0
M  V30 5314 H 517.009 1.55841 1.44317 0
M  V30 5315 H 519.272 0.651564 0.688599 0
M  V30 5316 H 518.978 1.95313 2.92482 0
M  V30 5317 H 518.852 0.409476 3.74971 0
M  V30 5318 H 521.239 -0.171736 2.946 0
M  V30 5319 H 521.32 1.40136 2.13999 0
M  V30 5320 H 520.964 2.54905 4.39302 0
M  V30 5321 H 520.894 0.951944 5.17924 0
M  V30 5322 H 523.385 1.07616 3.62253 0
M  V30 5323 H 523.698 2.79291 7.20567 0
M  V30 5324 H 522.043 2.50526 6.48276 0
M  V30 5325 H 525.234 1.41358 4.46246 0
M  V30 5326 H 525.407 2.19622 6.09648 0
M  V30 5327 N 518.813 -1.54241 0.323641 0
M  V30 5328 C 520.038 -2.05452 -0.283605 0
M  V30 5329 C 520.463 -1.19823 -1.44997 0
M  V30 5330 O 519.821 -0.207358 -1.8011 0
M  V30 5331 C 519.869 -3.53823 -0.695795 0
M  V30 5332 O 518.973 -3.71134 -1.79815 0
M  V30 5333 H 518.314 -0.662024 -0.0511917 0
M  V30 5334 H 520.844 -1.99079 0.472073 0
M  V30 5335 H 520.854 -3.96094 -0.978434 0
M  V30 5336 H 519.529 -4.15602 0.157287 0
M  V30 5337 H 518.106 -3.40768 -1.51431 0
M  V30 5338 N 520.291 -0.0518155 -1.57515 0
M  V30 5339 C 521.538 0.621823 -1.92716 0
M  V30 5340 C 521.866 1.70813 -0.930229 0
M  V30 5341 O 521.121 1.95616 0.0573708 0
M  V30 5342 C 521.42 1.25607 -3.34601 0
M  V30 5343 C 521.086 0.297901 -4.49915 0
M  V30 5344 C 519.748 0.034243 -4.81188 0
M  V30 5345 C 522.1 -0.358738 -5.19964 0
M  V30 5346 C 519.428 -0.893479 -5.79857 0
M  V30 5347 C 521.78 -1.27466 -6.19625 0
M  V30 5348 C 520.444 -1.54698 -6.49326 0
M  V30 5349 H 519.714 0.227541 -0.705199 0
M  V30 5350 H 522.361 -0.118432 -1.91133 0
M  V30 5351 H 520.666 2.07161 -3.32553 0
M  V30 5352 H 522.363 1.78424 -3.59118 0
M  V30 5353 H 518.953 0.513581 -4.25512 0
M  V30 5354 H 523.137 -0.168133 -4.96015 0
M  V30 5355 H 518.393 -1.11193 -6.01204 0
M  V30 5356 H 522.567 -1.78953 -6.73015 0
M  V30 5357 H 520.194 -2.26748 -7.25596 0
M  V30 5358 N 521.769 1.56035 0.221574 0
M  V30 5359 C 523.015 1.79312 0.947372 0
M  V30 5360 C 523.348 0.621453 1.83988 0
M  V30 5361 O 522.623 -0.379287 1.90766 0
M  V30 5362 C 522.906 3.1267 1.78633 0
M  V30 5363 C 522.759 4.40284 0.920312 0
M  V30 5364 C 524.078 3.4247 2.7641 0
M  V30 5365 H 521.197 0.652328 0.342982 0
M  V30 5366 H 523.839 1.88765 0.216244 0
M  V30 5367 H 521.989 3.04741 2.40967 0
M  V30 5368 H 523.661 4.60232 0.313718 0
M  V30 5369 H 521.904 4.33212 0.225734 0
M  V30 5370 H 522.575 5.30033 1.54171 0
M  V30 5371 H 525.051 3.50526 2.24211 0
M  V30 5372 H 523.927 4.3695 3.32213 0
M  V30 5373 H 524.188 2.64635 3.54148 0
M  V30 5374 N 523.247 -0.488276 1.49845 0
M  V30 5375 C 524.21 -1.57069 1.66919 0
M  V30 5376 C 525.21 -1.51445 0.540479 0
M  V30 5377 O 526.4 -1.5437 0.807188 0
M  V30 5378 C 523.532 -2.96718 1.67844 0
M  V30 5379 H 524.725 -1.43254 2.63474 0
M  V30 5380 H 522.278 -0.713435 1.39068 0
M  V30 5381 H 523.013 -3.15996 0.7292 0
M  V30 5382 H 522.798 -3.02208 2.49826 0
M  V30 5383 H 524.288 -3.75335 1.83066 0
M  V30 5384 N 524.725 -1.39134 -0.740242 0
M  V30 5385 C 525.973 -1.35803 -1.49673 0
M  V30 5386 C 526.294 0.0470897 -1.94943 0
M  V30 5387 O 525.564 0.997347 -1.68611 0
M  V30 5388 H 524.144 -0.499736 -0.555224 0
M  V30 5389 H 526.806 -1.73947 -0.879107 0
M  V30 5390 H 525.902 -2.0174 -2.38133 0
M  V30 5391 N 526.204 0.969867 -1.24223 0
M  V30 5392 C 527.62 1.23809 -1.00716 0
M  V30 5393 C 527.82 1.99469 0.285358 0
M  V30 5394 O 526.876 2.31764 1.00207 0
M  V30 5395 C 528.189 2.02734 -2.2208 0
M  V30 5396 C 529.737 2.15834 -2.26681 0
M  V30 5397 C 530.212 2.98154 -3.47661 0
M  V30 5398 N 531.703 3.05737 -3.47964 0
M  V30 5399 C 532.438 3.69785 -4.38231 0
M  V30 5400 N 531.934 4.35569 -5.3875 0
M  V30 5401 N 533.727 3.66775 -4.25949 0
M  V30 5402 H 525.878 0.463294 -2.07286 0
M  V30 5403 H 528.141 0.267348 -0.909521 0
M  V30 5404 H 527.847 1.54524 -3.15935 0
M  V30 5405 H 527.721 3.0347 -2.24021 0
M  V30 5406 H 530.108 2.63248 -1.33359 0
M  V30 5407 H 530.189 1.14453 -2.28767 0
M  V30 5408 H 529.833 2.51435 -4.41297 0
M  V30 5409 H 529.763 3.99729 -3.42818 0
M  V30 5410 H 532.254 2.58941 -2.75242 0
M  V30 5411 H 532.567 4.82251 -6.03866 0
M  V30 5412 H 530.912 4.34244 -5.42639 0
M  V30 5413 H 534.103 3.14558 -3.46657 0
M  V30 5414 H 534.276 4.16407 -4.96497 0
M  V30 5415 N 527.682 1.05563 1.17022 0
M  V30 5416 C 528.91 0.78845 1.91288 0
M  V30 5417 C 529.325 -0.656318 1.77025 0
M  V30 5418 O 528.682 -1.44869 1.10992 0
M  V30 5419 C 528.733 1.16444 3.42232 0
M  V30 5420 O 528.454 2.5525 3.5606 0
M  V30 5421 C 529.955 0.923937 4.33565 0
M  V30 5422 H 527.175 0.286389 0.606813 0
M  V30 5423 H 529.719 1.4073 1.48375 0
M  V30 5424 H 527.874 0.590266 3.82877 0
M  V30 5425 H 528.288 2.70097 4.49609 0
M  V30 5426 H 529.762 1.23672 5.37968 0
M  V30 5427 H 530.239 -0.140688 4.38975 0
M  V30 5428 H 530.845 1.48214 3.98639 0
M  V30 5429 N 529.16 -1.33526 0.837174 0
M  V30 5430 C 530.093 -2.27192 0.214233 0
M  V30 5431 C 531.071 -1.49575 -0.637657 0
M  V30 5432 O 532.255 -1.78753 -0.598291 0
M  V30 5433 C 529.382 -3.31401 -0.699367 0
M  V30 5434 C 528.428 -4.26431 0.0768429 0
M  V30 5435 S 529.261 -5.15954 1.4336 0
M  V30 5436 C 530.417 -6.23692 0.525251 0
M  V30 5437 H 530.65 -2.79679 1.00831 0
M  V30 5438 H 528.183 -1.4079 0.633834 0
M  V30 5439 H 530.141 -3.91924 -1.22088 0
M  V30 5440 H 528.802 -2.77732 -1.46709 0
M  V30 5441 H 527.995 -5.00193 -0.618268 0
M  V30 5442 H 527.597 -3.70235 0.529364 0
M  V30 5443 H 529.889 -6.76931 -0.277575 0
M  V30 5444 H 530.832 -6.97283 1.23299 0
M  V30 5445 H 531.24 -5.64398 0.107351 0
M  V30 5446 N 530.638 -0.59345 -1.46 0
M  V30 5447 C 531.568 0.121192 -2.33185 0
M  V30 5448 C 532.549 0.872977 -1.4599 0
M  V30 5449 O 533.734 0.846321 -1.74789 0
M  V30 5450 C 530.864 1.12844 -3.28456 0
M  V30 5451 C 529.818 0.4908 -4.25177 0
M  V30 5452 C 529.144 1.60529 -5.10034 0
M  V30 5453 C 530.444 -0.578949 -5.19081 0
M  V30 5454 H 532.138 -0.606767 -2.93187 0
M  V30 5455 H 529.684 -0.293242 -1.40983 0
M  V30 5456 H 531.637 1.63684 -3.88311 0
M  V30 5457 H 530.361 1.88681 -2.66584 0
M  V30 5458 H 529.02 0.00339328 -3.666 0
M  V30 5459 H 528.668 2.35359 -4.44539 0
M  V30 5460 H 528.368 1.18422 -5.75543 0
M  V30 5461 H 529.892 2.11623 -5.72755 0
M  V30 5462 H 531.306 -0.155199 -5.7309 0
M  V30 5463 H 529.703 -0.920947 -5.92991 0
M  V30 5464 H 530.773 -1.46109 -4.62364 0
M  V30 5465 N 532.116 1.54067 -0.331816 0
M  V30 5466 C 533.079 2.23275 0.517768 0
M  V30 5467 C 534.079 1.22897 1.03697 0
M  V30 5468 O 535.269 1.47419 0.928084 0
M  V30 5469 C 532.401 2.94326 1.72004 0
M  V30 5470 H 533.594 2.99773 -0.0873507 0
M  V30 5471 H 531.147 1.56079 -0.0830042 0
M  V30 5472 H 531.882 2.21986 2.36417 0
M  V30 5473 H 531.667 3.67941 1.35507 0
M  V30 5474 H 533.157 3.47031 2.32291 0
M  V30 5475 N 533.594 0.0601682 1.57485 0
M  V30 5476 C 534.557 -0.896373 2.10945 0
M  V30 5477 C 535.557 -1.23402 1.03095 0
M  V30 5478 O 536.747 -1.16921 1.29132 0
M  V30 5479 C 533.879 -2.20346 2.60116 0
M  V30 5480 H 535.072 -0.432778 2.96761 0
M  V30 5481 H 532.625 -0.188372 1.55161 0
M  V30 5482 H 533.36 -2.71268 1.7772 0
M  V30 5483 H 533.145 -1.9714 3.38937 0
M  V30 5484 H 534.635 -2.88846 3.01592 0
M  V30 5485 N 535.072 -1.5615 -0.213296 0
M  V30 5486 C 536.32 -1.79191 -0.934612 0
M  V30 5487 C 536.641 -0.630112 -1.84539 0
M  V30 5488 O 535.911 0.35257 -1.92701 0
M  V30 5489 H 534.491 -0.660937 -0.348097 0
M  V30 5490 H 537.153 -1.93618 -0.22317 0
M  V30 5491 H 536.249 -2.71656 -1.53654 0
M  V30 5492 N 536.55 0.480323 -1.50102 0
M  V30 5493 C 537.796 1.23208 -1.61837 0
M  V30 5494 C 538.151 1.89878 -0.310509 0
M  V30 5495 O 537.444 1.7871 0.690897 0
M  V30 5496 C 537.638 2.30708 -2.72963 0
M  V30 5497 C 537.467 1.74583 -4.14428 0
M  V30 5498 C 536.237 1.54964 -4.80951 0
M  V30 5499 C 538.435 1.24597 -4.98979 0
M  V30 5500 N 536.417 0.939855 -6.06663 0
M  V30 5501 C 537.788 0.758834 -6.15339 0
M  V30 5502 C 539.843 1.13365 -4.84822 0
M  V30 5503 C 538.546 0.17046 -7.19098 0
M  V30 5504 C 540.572 0.559221 -5.8875 0
M  V30 5505 C 539.934 0.082415 -7.04352 0
M  V30 5506 H 536.033 0.440065 -0.646426 0
M  V30 5507 H 538.617 0.535632 -1.87187 0
M  V30 5508 H 536.788 2.9779 -2.4935 0
M  V30 5509 H 538.52 2.97738 -2.74106 0
M  V30 5510 H 535.275 1.79926 -4.38091 0
M  V30 5511 H 535.699 0.653641 -6.73837 0
M  V30 5512 H 540.341 1.48823 -3.95742 0
M  V30 5513 H 538.059 -0.196347 -8.07861 0
M  V30 5514 H 541.645 0.474804 -5.79859 0
M  V30 5515 H 540.525 -0.355119 -7.83396 0
M  V30 5516 N 538.028 1.39524 0.732853 0
M  V30 5517 C 539.253 1.40329 1.52717 0
M  V30 5518 C 539.678 0.000286574 1.881 0
M  V30 5519 O 539.036 -0.987262 1.52062 0
M  V30 5520 C 539.084 2.28464 2.78992 0
M  V30 5521 O 538.188 1.716 3.75003 0
M  V30 5522 H 537.529 0.47778 0.461109 0
M  V30 5523 H 540.059 1.83546 0.903996 0
M  V30 5524 H 540.069 2.43051 3.27705 0
M  V30 5525 H 538.744 3.30425 2.52572 0
M  V30 5526 H 537.321 1.66267 3.33781 0
M  V30 5527 N 539.506 -0.963266 1.24736 0
M  V30 5528 C 540.755 -1.70115 1.08369 0
M  V30 5529 C 541.068 -1.91939 -0.376688 0
M  V30 5530 O 542.274 -2.6334 -0.660624 0
M  V30 5531 C 540.73 -3.06218 1.89099 0
M  V30 5532 C 540.338 -2.92221 3.39574 0
M  V30 5533 C 542.082 -3.83848 1.81275 0
M  V30 5534 C 539.989 -4.23662 4.12631 0
M  V30 5535 H 538.919 -0.637944 0.401924 0
M  V30 5536 H 541.57 -1.07304 1.48856 0
M  V30 5537 H 539.952 -3.69884 1.41429 0
M  V30 5538 H 541.126 -2.37541 3.94856 0
M  V30 5539 H 539.441 -2.28054 3.48397 0
M  V30 5540 H 542.038 -4.81188 2.33158 0
M  V30 5541 H 542.381 -4.08949 0.778895 0
M  V30 5542 H 542.914 -3.26918 2.26649 0
M  V30 5543 H 539.653 -4.03753 5.16395 0
M  V30 5544 H 539.173 -4.78141 3.62135 0
M  V30 5545 H 540.852 -4.92256 4.19873 0
M  V30 5546 N 540.985 -1.06182 -1.16461 0
M  V30 5547 C 541.917 -0.629584 -2.20383 0
M  V30 5548 C 542.93 0.311834 -1.59786 0
M  V30 5549 O 544.119 0.103 -1.78203 0
M  V30 5550 C 541.219 0.0973695 -3.3876 0
M  V30 5551 C 540.392 -0.857252 -4.28917 0
M  V30 5552 C 539.451 -0.169749 -5.25926 0
M  V30 5553 O 538.477 -0.807044 -5.6345 0
M  V30 5554 N 539.679 1.08911 -5.70192 0
M  V30 5555 H 542.444 -1.52352 -2.58087 0
M  V30 5556 H 540.005 -0.944993 -1.31459 0
M  V30 5557 H 541.997 0.567676 -4.00699 0
M  V30 5558 H 540.567 0.893093 -2.99571 0
M  V30 5559 H 539.787 -1.50696 -3.64259 0
M  V30 5560 H 541.075 -1.50489 -4.86035 0
M  V30 5561 H 540.473 1.62703 -5.41797 0
M  V30 5562 H 539.03 1.50331 -6.34227 0
M  V30 5563 N 542.463 1.3308 -0.844243 0
M  V30 5564 C 543.879 1.50447 -0.532729 0
M  V30 5565 C 544.079 1.78292 0.938837 0
M  V30 5566 O 543.135 1.84635 1.72239 0
M  V30 5567 C 544.448 2.65555 -1.41072 0
M  V30 5568 C 545.996 2.7944 -1.41005 0
M  V30 5569 C 546.471 3.97616 -2.27301 0
M  V30 5570 N 547.962 4.0486 -2.2504 0
M  V30 5571 C 548.697 4.95508 -2.88547 0
M  V30 5572 N 548.193 5.91236 -3.61126 0
M  V30 5573 N 549.986 4.88548 -2.77989 0
M  V30 5574 H 542.137 1.13269 -1.79677 0
M  V30 5575 H 544.4 0.55734 -0.766861 0
M  V30 5576 H 544.106 2.51675 -2.45668 0
M  V30 5577 H 543.98 3.61089 -1.09061 0
M  V30 5578 H 546.367 2.92749 -0.371784 0
M  V30 5579 H 546.448 1.8465 -1.77026 0
M  V30 5580 H 546.092 3.85066 -3.3119 0
M  V30 5581 H 546.022 4.91661 -1.88619 0
M  V30 5582 H 548.513 3.36353 -1.72264 0
M  V30 5583 H 548.826 6.57079 -4.06776 0
M  V30 5584 H 547.171 5.91295 -3.65234 0
M  V30 5585 H 550.362 4.12729 -2.20846 0
M  V30 5586 H 550.535 5.58994 -3.27765 0
M  V30 5587 N 543.941 0.601185 1.45683 0
M  V30 5588 C 544.874 -0.17013 2.27565 0
M  V30 5589 C 545.852 -0.879661 1.36751 0
M  V30 5590 O 547.036 -0.889827 1.66176 0
M  V30 5591 C 544.163 -1.24568 3.14961 0
M  V30 5592 C 543.209 -0.639978 4.21671 0
M  V30 5593 S 544.042 0.547275 5.32696 0
M  V30 5594 C 545.198 -0.529019 6.2366 0
M  V30 5595 H 545.431 0.524583 2.92635 0
M  V30 5596 H 542.964 0.388537 1.49431 0
M  V30 5597 H 544.922 -1.86138 3.65873 0
M  V30 5598 H 543.583 -1.91243 2.49169 0
M  V30 5599 H 542.776 -1.44903 4.8272 0
M  V30 5600 H 542.378 -0.0995558 3.73867 0
M  V30 5601 H 544.67 -1.40981 6.62669 0
M  V30 5602 H 545.613 0.0451599 7.08086 0
M  V30 5603 H 546.021 -0.84147 5.58193 0
M  V30 5604 N 545.419 -1.53889 0.339982 0
M  V30 5605 C 546.369 -2.2165 -0.534354 0
M  V30 5606 C 547.353 -1.20266 -1.06887 0
M  V30 5607 O 548.545 -1.45827 -1.00316 0
M  V30 5608 C 545.674 -2.99014 -1.68659 0
M  V30 5609 C 544.76 -4.07751 -1.16618 0
M  V30 5610 N 545.151 -5.04469 -0.366717 0
M  V30 5611 C 543.449 -4.21998 -1.4434 0
M  V30 5612 C 544.15 -5.81638 -0.0847275 0
M  V30 5613 N 543.126 -5.39388 -0.675391 0
M  V30 5614 H 546.928 -2.93781 0.0835562 0
M  V30 5615 H 544.442 -1.61736 0.146665 0
M  V30 5616 H 546.439 -3.46056 -2.32489 0
M  V30 5617 H 545.099 -2.28408 -2.30781 0
M  V30 5618 H 546.11 -5.17899 -0.00811038 0
M  V30 5619 H 542.787 -3.62612 -2.06928 0
M  V30 5620 H 544.177 -6.69563 0.559943 0
M  V30 5621 N 546.897 -0.0685191 -1.57451 0
M  V30 5622 C 547.847 0.909895 -2.09057 0
M  V30 5623 C 548.831 1.26088 -0.999528 0
M  V30 5624 O 550.023 1.24041 -1.26265 0
M  V30 5625 C 547.152 2.17863 -2.65312 0
M  V30 5626 C 546.238 1.85427 -3.81415 0
M  V30 5627 N 546.629 1.23426 -4.9051 0
M  V30 5628 C 544.927 2.15196 -3.90649 0
M  V30 5629 C 545.628 1.09008 -5.71395 0
M  V30 5630 N 544.604 1.59871 -5.1956 0
M  V30 5631 H 548.406 0.426145 -2.90794 0
M  V30 5632 H 545.92 0.135462 -1.61834 0
M  V30 5633 H 547.917 2.88872 -3.00597 0
M  V30 5634 H 546.577 2.66829 -1.85021 0
M  V30 5635 H 547.588 0.904305 -5.09944 0
M  V30 5636 H 544.265 2.66562 -3.21327 0
M  V30 5637 H 545.655 0.607305 -6.6915 0
M  V30 5638 N 548.375 1.56261 0.205012 0
M  V30 5639 C 549.623 1.79684 0.925096 0
M  V30 5640 C 549.944 0.63989 1.84202 0
M  V30 5641 O 549.214 -0.342345 1.92885 0
M  V30 5642 H 547.794 0.662774 0.344587 0
M  V30 5643 H 550.456 1.93734 0.212899 0
M  V30 5644 H 549.552 2.72467 1.52211 0
M  V30 5645 N 549.853 -0.472356 1.50355 0
M  V30 5646 C 550.763 -1.59637 1.7191 0
M  V30 5647 C 551.779 -1.63247 0.602195 0
M  V30 5648 O 552.955 -1.81139 0.880369 0
M  V30 5649 C 550.02 -2.9586 1.80742 0
M  V30 5650 C 549.081 -3.02649 3.04471 0
M  V30 5651 C 548.314 -4.32374 3.12872 0
M  V30 5652 O 548.537 -5.22807 2.28099 0
M  V30 5653 O 547.471 -4.44728 4.05587 0
M  V30 5654 H 551.297 -1.44373 2.67189 0
M  V30 5655 H 548.882 -0.651717 1.34436 0
M  V30 5656 H 550.764 -3.7677 1.88739 0
M  V30 5657 H 549.439 -3.11325 0.88647 0
M  V30 5658 H 548.346 -2.20821 3.01975 0
M  V30 5659 H 549.679 -2.92119 3.9614 0
M  V30 5660 N 551.331 -1.39911 -0.725443 0
M  V30 5661 C 552.263 -1.35301 -1.85003 0
M  V30 5662 C 553.276 -0.260102 -1.60709 0
M  V30 5663 O 554.465 -0.519749 -1.70766 0
M  V30 5664 C 551.565 -1.08039 -3.21218 0
M  V30 5665 C 550.738 -2.28793 -3.7279 0
M  V30 5666 C 549.797 -1.97841 -4.87591 0
M  V30 5667 O 548.823 -2.70616 -5.00755 0
M  V30 5668 N 550.025 -0.950367 -5.72668 0
M  V30 5669 H 552.79 -2.32218 -1.89459 0
M  V30 5670 H 550.351 -1.34137 -0.90658 0
M  V30 5671 H 552.343 -0.853354 -3.95601 0
M  V30 5672 H 550.913 -0.198229 -3.11971 0
M  V30 5673 H 550.133 -2.67388 -2.8965 0
M  V30 5674 H 551.421 -3.09317 -4.03981 0
M  V30 5675 H 550.819 -0.347436 -5.64632 0
M  V30 5676 H 549.376 -0.783232 -6.47077 0
M  V30 5677 N 552.809 0.956637 -1.25245 0
M  V30 5678 C 553.772 2.03457 -1.05537 0
M  V30 5679 C 554.772 1.60798 -0.00886317 0
M  V30 5680 O 555.962 1.72384 -0.250865 0
M  V30 5681 C 553.094 3.35543 -0.601965 0
M  V30 5682 H 554.287 2.22372 -2.01223 0
M  V30 5683 H 551.84 1.13344 -1.07623 0
M  V30 5684 H 552.575 3.22323 0.357584 0
M  V30 5685 H 552.36 3.67854 -1.35743 0
M  V30 5686 H 553.85 4.14769 -0.485454 0
M  V30 5687 N 554.287 1.06798 1.15896 0
M  V30 5688 C 555.237 0.653213 2.18443 0
M  V30 5689 C 556.221 -0.318763 1.57711 0
M  V30 5690 O 557.413 -0.133388 1.76497 0
M  V30 5691 C 554.542 0.0465785 3.43268 0
M  V30 5692 C 553.628 1.04336 4.11066 0
M  V30 5693 N 554.019 2.22084 4.54436 0
M  V30 5694 C 552.317 0.875433 4.37324 0
M  V30 5695 C 553.018 2.85276 5.06944 0
M  V30 5696 N 551.994 2.12973 5.00143 0
M  V30 5697 H 555.796 1.55011 2.49698 0
M  V30 5698 H 553.31 0.940384 1.32403 0
M  V30 5699 H 555.307 -0.26843 4.16035 0
M  V30 5700 H 553.967 -0.845504 3.13499 0
M  V30 5701 H 554.978 2.59833 4.48004 0
M  V30 5702 H 551.655 0.0357721 4.17485 0
M  V30 5703 H 553.045 3.85223 5.50503 0
M  V30 5704 N 555.766 -1.3263 0.851289 0
M  V30 5705 C 557.012 -1.98061 0.462963 0
M  V30 5706 C 557.367 -1.66162 -0.969948 0
M  V30 5707 O 556.66 -0.937723 -1.67085 0
M  V30 5708 C 556.854 -3.51713 0.635015 0
M  V30 5709 C 556.683 -3.98544 2.0831 0
M  V30 5710 C 555.453 -4.25787 2.72091 0
M  V30 5711 C 557.651 -4.13858 3.0533 0
M  V30 5712 N 555.633 -4.58842 4.07845 0
M  V30 5713 C 557.004 -4.50412 4.26063 0
M  V30 5714 C 559.059 -3.96182 3.0157 0
M  V30 5715 C 557.762 -4.71136 5.43529 0
M  V30 5716 C 559.788 -4.18088 4.18278 0
M  V30 5717 C 559.15 -4.54956 5.37768 0
M  V30 5718 H 555.249 -0.750976 0.218082 0
M  V30 5719 H 557.833 -1.60514 1.10197 0
M  V30 5720 H 556.004 -3.88391 0.0257298 0
M  V30 5721 H 557.736 -4.04118 0.216915 0
M  V30 5722 H 554.491 -4.17734 2.23149 0
M  V30 5723 H 554.915 -4.7956 4.77862 0
M  V30 5724 H 559.557 -3.66783 2.1031 0
M  V30 5725 H 557.275 -4.9939 6.35323 0
M  V30 5726 H 560.861 -4.05918 4.168 0
M  V30 5727 H 559.741 -4.71567 6.26573 0
M  V30 5728 N 557.244 -0.608902 -1.45362 0
M  V30 5729 C 558.177 0.158059 -2.27652 0
M  V30 5730 C 559.155 0.872397 -1.37215 0
M  V30 5731 O 560.339 0.881002 -1.66645 0
M  V30 5732 C 557.466 1.22896 -3.15617 0
M  V30 5733 C 556.512 0.617607 -4.22005 0
M  V30 5734 S 557.345 -0.575518 -5.32398 0
M  V30 5735 C 558.501 0.495938 -6.23932 0
M  V30 5736 H 558.734 -0.540095 -2.92353 0
M  V30 5737 H 556.267 -0.396456 -1.49223 0
M  V30 5738 H 558.225 1.84195 -3.66855 0
M  V30 5739 H 556.886 1.89919 -2.50179 0
M  V30 5740 H 556.079 1.42341 -4.83482 0
M  V30 5741 H 555.681 0.0797273 -3.73915 0
M  V30 5742 H 557.973 1.37465 -6.63408 0
M  V30 5743 H 558.916 -0.0827108 -7.08052 0
M  V30 5744 H 559.324 0.811856 -5.58631 0
M  V30 5745 N 558.722 1.53707 -0.348139 0
M  V30 5746 C 559.652 2.28111 0.498766 0
M  V30 5747 C 560.633 1.29851 1.09876 0
M  V30 5748 O 561.818 1.587 1.11928 0
M  V30 5749 C 558.948 3.05735 1.64753 0
M  V30 5750 C 557.902 4.11537 1.17565 0
M  V30 5751 C 557.228 4.77142 2.4133 0
M  V30 5752 C 558.528 5.21587 0.272844 0
M  V30 5753 H 560.222 2.99152 -0.121934 0
M  V30 5754 H 557.768 1.43875 -0.0600842 0
M  V30 5755 H 559.721 3.56526 2.24649 0
M  V30 5756 H 558.445 2.32354 2.2952 0
M  V30 5757 H 557.104 3.61665 0.599483 0
M  V30 5758 H 556.752 4.0035 3.04514 0
M  V30 5759 H 556.452 5.48626 2.10436 0
M  V30 5760 H 557.976 5.30719 3.01943 0
M  V30 5761 H 559.39 5.67986 0.778779 0
M  V30 5762 H 557.787 6.00074 0.0555849 0
M  V30 5763 H 558.857 4.79969 -0.689785 0
M  V30 5764 N 560.2 0.0768682 1.57412 0
M  V30 5765 C 561.446 -0.591961 1.93968 0
M  V30 5766 C 561.779 -1.68954 0.9575 0
M  V30 5767 O 561.054 -1.94496 -0.0124675 0
M  V30 5768 C 561.337 -1.16418 3.40762 0
M  V30 5769 C 561.19 -0.0728933 4.49741 0
M  V30 5770 C 562.509 -2.06814 3.88479 0
M  V30 5771 H 559.628 -0.213716 0.705333 0
M  V30 5772 H 562.27 0.14387 1.89455 0
M  V30 5773 H 560.42 -1.79128 3.4474 0
M  V30 5774 H 562.092 0.560446 4.57883 0
M  V30 5775 H 560.335 0.595859 4.29688 0
M  V30 5776 H 561.006 -0.513755 5.49604 0
M  V30 5777 H 563.482 -1.54033 3.8654 0
M  V30 5778 H 562.358 -2.43785 4.91793 0
M  V30 5779 H 562.619 -2.97844 3.26713 0
M  V30 5780 N 561.678 -1.56367 -0.196722 0
M  V30 5781 C 562.906 -1.84639 -0.933608 0
M  V30 5782 C 563.321 -0.659164 -1.76919 0
M  V30 5783 O 562.678 0.372142 -1.78665 0
M  V30 5784 C 562.729 -3.11694 -1.83109 0
M  V30 5785 O 562.45 -4.25838 -1.02924 0
M  V30 5786 C 563.951 -3.53132 -2.67979 0
M  V30 5787 H 561.171 -0.613188 -0.272473 0
M  V30 5788 H 563.715 -2.03475 -0.204465 0
M  V30 5789 H 561.87 -2.94759 -2.51387 0
M  V30 5790 H 562.284 -4.98178 -1.64069 0
M  V30 5791 H 563.758 -4.45005 -3.26611 0
M  V30 5792 H 564.235 -2.76045 -3.41608 0
M  V30 5793 H 564.841 -3.72592 -2.05074 0
M  V30 5794 N 563.156 0.464375 -1.50603 0
M  V30 5795 C 564.086 1.56944 -1.72889 0
M  V30 5796 C 565.067 1.59979 -0.577997 0
M  V30 5797 O 566.252 1.76138 -0.817855 0
M  V30 5798 C 563.382 2.95225 -1.8292 0
M  V30 5799 C 562.336 3.07056 -2.98162 0
M  V30 5800 C 561.662 4.47051 -2.93343 0
M  V30 5801 C 562.962 2.83648 -4.38567 0
M  V30 5802 H 564.656 1.38547 -2.65415 0
M  V30 5803 H 562.202 0.665082 -1.27721 0
M  V30 5804 H 564.155 3.72467 -1.97095 0
M  V30 5805 H 562.879 3.14793 -0.870209 0
M  V30 5806 H 561.538 2.32248 -2.83648 0
M  V30 5807 H 561.186 4.63547 -1.95276 0
M  V30 5808 H 560.886 4.55902 -3.70712 0
M  V30 5809 H 562.41 5.26304 -3.09575 0
M  V30 5810 H 563.824 3.50636 -4.53572 0
M  V30 5811 H 562.221 3.03937 -5.17438 0
M  V30 5812 H 563.291 1.79451 -4.50472 0
M  V30 5813 N 564.634 1.40294 0.718013 0
M  V30 5814 C 565.597 1.4012 1.81381 0
M  V30 5815 C 566.597 0.295405 1.58063 0
M  V30 5816 O 567.787 0.554187 1.6515 0
M  V30 5817 C 564.919 1.19056 3.19435 0
M  V30 5818 H 566.112 2.37645 1.82933 0
M  V30 5819 H 563.665 1.26107 0.923405 0
M  V30 5820 H 564.4 0.222809 3.23534 0
M  V30 5821 H 564.185 1.99152 3.37758 0
M  V30 5822 H 565.675 1.21716 3.99468 0
M  V30 5823 N 566.112 -0.949982 1.2575 0
M  V30 5824 C 567.337 -1.73503 1.13628 0
M  V30 5825 C 567.762 -1.85601 -0.30559 0
M  V30 5826 O 567.12 -1.33984 -1.22139 0
M  V30 5827 C 567.168 -3.1243 1.80055 0
M  V30 5828 O 566.272 -3.97916 1.08336 0
M  V30 5829 H 565.613 -0.532665 0.396439 0
M  V30 5830 H 568.143 -1.19043 1.66403 0
M  V30 5831 H 568.153 -3.62866 1.86527 0
M  V30 5832 H 566.828 -3.02941 2.84956 0
M  V30 5833 H 565.405 -3.56375 1.09777 0
M  V30 5834 N 567.59 -1.07411 -1.15328 0
M  V30 5835 C 568.523 -0.63913 -2.19067 0
M  V30 5836 C 569.501 0.343929 -1.58921 0
M  V30 5837 O 570.685 0.250207 -1.86832 0
M  V30 5838 C 567.812 0.0613977 -3.38644 0
M  V30 5839 C 566.858 -0.880201 -4.17318 0
M  V30 5840 S 567.691 -2.38152 -4.79629 0
M  V30 5841 C 568.847 -1.69281 -6.02573 0
M  V30 5842 H 569.08 -1.51799 -2.55626 0
M  V30 5843 H 566.613 -0.888138 -1.26299 0
M  V30 5844 H 568.571 0.459323 -4.07922 0
M  V30 5845 H 567.232 0.916605 -3.00428 0
M  V30 5846 H 566.425 -0.336781 -5.02874 0
M  V30 5847 H 566.027 -1.21854 -3.53592 0
M  V30 5848 H 568.319 -1.00488 -6.70006 0
M  V30 5849 H 569.262 -2.52671 -6.61485 0
M  V30 5850 H 569.67 -1.17053 -5.52231 0
M  V30 5851 N 569.068 1.32177 -0.85831 0
M  V30 5852 C 570.317 1.96392 -0.459689 0
M  V30 5853 C 570.63 1.68659 0.990632 0
M  V30 5854 O 571.836 2.26641 1.49485 0
M  V30 5855 C 570.292 3.51542 -0.7711 0
M  V30 5856 C 569.9 3.8813 -2.2374 0
M  V30 5857 C 571.644 4.2221 -0.44038 0
M  V30 5858 C 569.551 5.36341 -2.49183 0
M  V30 5859 H 568.481 0.735007 -0.168169 0
M  V30 5860 H 571.132 1.50518 -1.0496 0
M  V30 5861 H 569.514 3.95846 -0.11058 0
M  V30 5862 H 570.688 3.54824 -2.94001 0
M  V30 5863 H 569.003 3.30497 -2.533 0
M  V30 5864 H 571.6 5.31234 -0.607855 0
M  V30 5865 H 571.943 4.11683 0.618291 0
M  V30 5866 H 572.476 3.83502 -1.05695 0
M  V30 5867 H 569.215 5.51892 -3.53689 0
M  V30 5868 H 568.735 5.7104 -1.83504 0
M  V30 5869 H 570.414 6.03466 -2.33318 0
M  V30 5870 N 570.547 0.616602 1.45037 0
M  V30 5871 C 571.795 0.115103 2.01772 0
M  V30 5872 C 572.116 -1.2622 1.48639 0
M  V30 5873 O 571.386 -1.83563 0.684199 0
M  V30 5874 H 569.966 0.0395607 0.745952 0
M  V30 5875 H 572.628 0.800032 1.77723 0
M  V30 5876 H 571.724 0.0717274 3.12018 0
M  V30 5877 N 572.025 -1.5352 0.356285 0
M  V30 5878 C 572.957 -2.23009 -0.529127 0
M  V30 5879 C 573.97 -1.241 -1.05371 0
M  V30 5880 O 575.159 -1.50379 -0.961679 0
M  V30 5881 C 572.259 -2.90685 -1.74229 0
M  V30 5882 C 571.432 -4.16019 -1.35081 0
M  V30 5883 C 570.491 -4.66989 -2.42502 0
M  V30 5884 O 569.517 -5.30895 -2.05279 0
M  V30 5885 N 570.719 -4.44006 -3.7395 0
M  V30 5886 H 573.484 -2.99627 0.0660501 0
M  V30 5887 H 571.045 -1.60885 0.181014 0
M  V30 5888 H 573.037 -3.21695 -2.4555 0
M  V30 5889 H 571.607 -2.17575 -2.24454 0
M  V30 5890 H 570.827 -3.91414 -0.467833 0
M  V30 5891 H 572.115 -4.9752 -1.06542 0
M  V30 5892 H 571.513 -3.92924 -4.06973 0
M  V30 5893 H 570.07 -4.7959 -4.41403 0
M  V30 5894 N 573.503 -0.0852151 -1.57369 0
M  V30 5895 C 574.752 0.580443 -1.93168 0
M  V30 5896 C 575.065 1.6995 -0.968319 0
M  V30 5897 O 576.271 2.42564 -1.21963 0
M  V30 5898 C 574.727 1.08386 -3.43192 0
M  V30 5899 C 574.335 -0.00491388 -4.48 0
M  V30 5900 C 576.079 1.72281 -3.87968 0
M  V30 5901 C 573.986 0.513299 -5.89168 0
M  V30 5902 H 572.916 0.22059 -0.72101 0
M  V30 5903 H 575.567 -0.159621 -1.82804 0
M  V30 5904 H 573.949 1.8773 -3.48674 0
M  V30 5905 H 575.123 -0.780032 -4.5415 0
M  V30 5906 H 573.438 -0.548453 -4.12772 0
M  V30 5907 H 576.035 2.12108 -4.9083 0
M  V30 5908 H 576.378 2.58811 -3.26071 0
M  V30 5909 H 576.911 0.995359 -3.85146 0
M  V30 5910 H 573.65 -0.315153 -6.54742 0
M  V30 5911 H 573.17 1.25564 -5.8651 0
M  V30 5912 H 574.849 0.985433 -6.39451 0
M  V30 5913 N 574.981 1.5647 0.188427 0
M  V30 5914 C 576.229 1.80655 0.905986 0
M  V30 5915 C 576.55 0.659391 1.83513 0
M  V30 5916 O 575.82 -0.321868 1.93238 0
M  V30 5917 H 574.4 0.666391 0.337538 0
M  V30 5918 H 577.062 1.93949 0.192339 0
M  V30 5919 H 576.158 2.74066 1.49313 0
M  V30 5920 N 576.459 -0.456382 1.50847 0
M  V30 5921 C 577.389 -1.56025 1.73719 0
M  V30 5922 C 578.37 -1.5967 0.586473 0
M  V30 5923 O 579.555 -1.75702 0.827185 0
M  V30 5924 C 576.685 -2.94251 1.84483 0
M  V30 5925 C 575.639 -3.05471 2.99786 0
M  V30 5926 C 574.965 -4.45489 2.95709 0
M  V30 5927 C 576.265 -2.81318 4.40065 0
M  V30 5928 H 577.959 -1.37138 2.66146 0
M  V30 5929 H 575.505 -0.658299 1.28072 0
M  V30 5930 H 577.458 -3.71417 1.99067 0
M  V30 5931 H 576.182 -3.14328 0.886891 0
M  V30 5932 H 574.841 -2.30741 2.84876 0
M  V30 5933 H 574.489 -4.62505 1.97732 0
M  V30 5934 H 574.189 -4.53929 3.73125 0
M  V30 5935 H 575.713 -5.24655 3.12362 0
M  V30 5936 H 577.127 -3.48226 4.55425 0
M  V30 5937 H 575.524 -3.01188 5.19043 0
M  V30 5938 H 576.594 -1.7706 4.51418 0
M  V30 5939 N 577.937 -1.40673 -0.710563 0
M  V30 5940 C 579.348 -1.34975 -1.28991 0
M  V30 5941 C 579.699 -0.0256272 -1.96183 0
M  V30 5942 O 578.824 0.876339 -1.97862 0
M  V30 5943 C 579.419 -2.44467 -2.34567 0
M  V30 5944 C 577.978 -2.42213 -2.88114 0
M  V30 5945 C 577.125 -2.25085 -1.61963 0
M  V30 5946 H 580.076 -1.50406 -0.506343 0
M  V30 5947 H 580.097 -2.12663 -3.15523 0
M  V30 5948 H 579.609 -3.40825 -1.85634 0
M  V30 5949 H 577.71 -1.49568 -3.41263 0
M  V30 5950 H 577.823 -3.37983 -3.39565 0
M  V30 5951 H 576.187 -1.72691 -1.87216 0
M  V30 5952 H 576.97 -3.23449 -1.15047 0
M  V30 5953 N 579.415 0.9433 -1.26252 0
M  V30 5954 C 580.663 1.68592 -1.11451 0
M  V30 5955 C 580.984 1.91957 0.343123 0
M  V30 5956 O 580.254 1.51475 1.24226 0
M  V30 5957 H 578.834 0.624789 -0.409448 0
M  V30 5958 H 581.496 1.13351 -1.58548 0
M  V30 5959 H 580.592 2.66054 -1.63162 0
M  V30 5960 N 580.893 1.08022 1.14757 0
M  V30 5961 C 582.141 0.805913 1.85336 0
M  V30 5962 C 582.462 -0.670162 1.83122 0
M  V30 5963 O 581.732 -1.48567 1.2769 0
M  V30 5964 H 580.312 0.295138 0.686223 0
M  V30 5965 H 582.974 1.36538 1.3908 0
M  V30 5966 H 582.07 1.14655 2.90277 0
M  V30 5967 N 582.371 -1.3172 0.865308 0
M  V30 5968 C 583.619 -1.96487 0.472995 0
M  V30 5969 C 583.94 -1.68761 -0.976975 0
M  V30 5970 O 583.21 -1.00051 -1.68424 0
M  V30 5971 H 581.79 -0.726947 0.171922 0
M  V30 5972 H 584.452 -1.60612 1.10407 0
M  V30 5973 H 583.548 -3.0574 0.62687 0
M  V30 5974 N 583.85 -0.624285 -1.44708 0
M  V30 5975 C 585.096 -0.126051 -2.02107 0
M  V30 5976 C 585.425 1.2496 -1.49048 0
M  V30 5977 O 584.68 1.84163 -0.662005 0
M  V30 5978 C 584.979 -0.0546353 -3.57358 0
M  V30 5979 C 584.644 -1.36815 -4.29642 0
M  V30 5980 C 583.307 -1.72792 -4.49106 0
M  V30 5981 C 585.659 -2.23549 -4.70824 0
M  V30 5982 C 582.986 -2.95222 -5.07012 0
M  V30 5983 C 585.339 -3.45243 -5.30085 0
M  V30 5984 C 584.003 -3.81452 -5.47769 0
M  V30 5985 H 583.273 -0.0461252 -0.739563 0
M  V30 5986 H 585.92 -0.809236 -1.73562 0
M  V30 5987 H 584.225 0.711891 -3.85278 0
M  V30 5988 H 585.922 0.347282 -3.99493 0
M  V30 5989 H 582.512 -1.07817 -4.14817 0
M  V30 5990 H 586.696 -1.9705 -4.55505 0
M  V30 5991 H 581.952 -3.23361 -5.18891 0
M  V30 5992 H 586.125 -4.12689 -5.60946 0
M  V30 5993 H 583.753 -4.76403 -5.92405 0
M  V30 5994 N 585.328 1.53329 -0.364422 0
M  V30 5995 C 586.576 2.00842 0.225189 0
M  V30 5996 C 586.897 1.25345 1.49378 0
M  V30 5997 O 586.167 0.366396 1.92443 0
M  V30 5998 H 584.747 0.742009 0.0862027 0
M  V30 5999 H 587.409 1.8863 -0.490389 0
M  V30 6000 H 586.505 3.08795 0.452987 0
M  V30 6001 N 586.806 0.0935595 1.57322 0
M  V30 6002 C 587.736 -0.863062 2.16964 0
M  V30 6003 C 588.717 -1.29528 1.10256 0
M  V30 6004 O 589.902 -1.36245 1.38387 0
M  V30 6005 C 587.032 -2.12276 2.74875 0
M  V30 6006 C 585.986 -1.82921 3.86942 0
M  V30 6007 C 585.312 -3.15707 4.31548 0
M  V30 6008 C 586.612 -1.11737 5.10208 0
M  V30 6009 H 588.306 -0.366145 2.97153 0
M  V30 6010 H 585.852 -0.174673 1.42937 0
M  V30 6011 H 587.805 -2.79634 3.1525 0
M  V30 6012 H 586.529 -2.64248 1.91938 0
M  V30 6013 H 585.188 -1.17961 3.47103 0
M  V30 6014 H 584.836 -3.65563 3.45504 0
M  V30 6015 H 584.536 -2.96849 5.07104 0
M  V30 6016 H 586.06 -3.84226 4.74555 0
M  V30 6017 H 587.474 -1.69203 5.47762 0
M  V30 6018 H 585.871 -1.03064 5.91183 0
M  V30 6019 H 586.941 -0.0998818 4.84797 0
M  V30 6020 N 588.284 -1.56567 -0.180126 0
M  V30 6021 C 589.509 -1.85975 -0.918041 0
M  V30 6022 C 589.934 -0.678888 -1.75422 0
M  V30 6023 O 589.292 0.372168 -1.77439 0
M  V30 6024 C 589.34 -3.13731 -1.77779 0
M  V30 6025 O 588.444 -2.95335 -2.87838 0
M  V30 6026 H 587.785 -0.61196 -0.257683 0
M  V30 6027 H 590.315 -2.03798 -0.180923 0
M  V30 6028 H 590.325 -3.4491 -2.17948 0
M  V30 6029 H 589 -3.99293 -1.16352 0
M  V30 6030 H 587.577 -2.7549 -2.51316 0
M  V30 6031 N 589.762 0.448376 -1.51087 0
M  V30 6032 C 590.992 1.21965 -1.66757 0
M  V30 6033 C 591.4 1.85748 -0.359753 0
M  V30 6034 O 590.743 1.71022 0.670604 0
M  V30 6035 C 590.805 2.35284 -2.71812 0
M  V30 6036 C 590.469 1.91957 -4.1473 0
M  V30 6037 C 591.466 1.42921 -4.9987 0
M  V30 6038 C 589.151 1.99985 -4.60772 0
M  V30 6039 C 591.145 1.02485 -6.29107 0
M  V30 6040 C 588.832 1.5916 -5.90009 0
M  V30 6041 C 589.83 1.10491 -6.74004 0
M  V30 6042 O 589.518 0.702413 -8.00825 0
M  V30 6043 H 589.25 0.374125 -0.563034 0
M  V30 6044 H 591.804 0.538927 -1.98204 0
M  V30 6045 H 590.034 3.06599 -2.35657 0
M  V30 6046 H 591.723 2.97184 -2.76472 0
M  V30 6047 H 592.489 1.36123 -4.65506 0
M  V30 6048 H 588.368 2.36814 -3.95525 0
M  V30 6049 H 591.912 0.644271 -6.94619 0
M  V30 6050 H 587.809 1.65626 -6.2389 0
M  V30 6051 H 588.577 0.829248 -8.14288 0
M  V30 6052 N 591.24 1.41047 0.703093 0
M  V30 6053 C 592.19 1.38774 1.80903 0
M  V30 6054 C 593.174 0.263275 1.58731 0
M  V30 6055 O 594.366 0.503362 1.69692 0
M  V30 6056 C 591.495 1.26497 3.19145 0
M  V30 6057 C 590.581 2.43775 3.47037 0
M  V30 6058 N 590.972 3.69249 3.45672 0
M  V30 6059 C 589.27 2.37425 3.77552 0
M  V30 6060 C 589.971 4.46989 3.72258 0
M  V30 6061 N 588.947 3.76998 3.91629 0
M  V30 6062 H 592.749 2.33714 1.78199 0
M  V30 6063 H 590.263 1.34996 0.902762 0
M  V30 6064 H 592.26 1.2295 3.98358 0
M  V30 6065 H 590.92 0.32534 3.23066 0
M  V30 6066 H 591.931 4.02239 3.26228 0
M  V30 6067 H 588.608 1.51895 3.88888 0
M  V30 6068 H 589.998 5.55894 3.77402 0
M  V30 6069 N 592.718 -0.936591 1.26751 0
M  V30 6070 C 593.948 -1.71509 1.15188 0
M  V30 6071 C 594.356 -1.86885 -0.295037 0
M  V30 6072 O 593.699 -1.37915 -1.21347 0
M  V30 6073 C 593.761 -3.13853 1.75318 0
M  V30 6074 C 593.425 -3.21845 3.24445 0
M  V30 6075 C 594.422 -3.04771 4.21201 0
M  V30 6076 C 592.107 -3.45088 3.64992 0
M  V30 6077 C 594.101 -3.10816 5.56482 0
M  V30 6078 C 591.788 -3.50767 5.00405 0
M  V30 6079 C 592.786 -3.33648 5.9596 0
M  V30 6080 O 592.474 -3.39045 7.28906 0
M  V30 6081 H 592.206 -0.543658 0.401761 0
M  V30 6082 H 594.76 -1.18234 1.67958 0
M  V30 6083 H 592.99 -3.6857 1.17016 0
M  V30 6084 H 594.679 -3.73634 1.58596 0
M  V30 6085 H 595.445 -2.86665 3.91214 0
M  V30 6086 H 591.324 -3.57467 2.91098 0
M  V30 6087 H 594.868 -2.97372 6.31043 0
M  V30 6088 H 590.765 -3.68396 5.30052 0
M  V30 6089 H 591.533 -3.55558 7.37238 0
M  V30 6090 N 594.196 -1.08629 -1.14182 0
M  V30 6091 C 595.421 -0.83902 -1.89671 0
M  V30 6092 C 595.846 0.603332 -1.78161 0
M  V30 6093 O 595.204 1.42301 -1.12339 0
M  V30 6094 C 595.252 -1.26854 -3.37551 0
M  V30 6095 O 594.356 -0.42188 -4.10236 0
M  V30 6096 H 593.697 -0.304545 -0.590041 0
M  V30 6097 H 596.227 -1.4483 -1.44518 0
M  V30 6098 H 596.237 -1.25038 -3.88368 0
M  V30 6099 H 594.912 -2.31901 -3.45246 0
M  V30 6100 H 593.489 -0.503654 -3.69483 0
M  V30 6101 N 595.674 1.31259 -0.872281 0
M  V30 6102 C 596.622 2.30404 -0.318897 0
M  V30 6103 C 597.616 1.5962 0.567267 0
M  V30 6104 O 598.822 1.74204 0.453111 0
M  V30 6105 H 595.197 0.747243 -0.0844474 0
M  V30 6106 H 597.168 2.74549 -1.16899 0
M  V30 6107 C 595.917 3.44608 0.462683 0
M  V30 6108 H 595.24 3.99248 -0.209936 0
M  V30 6109 H 596.68 4.1609 0.815187 0
M  V30 6110 C 595.139 2.93456 1.65485 0
M  V30 6111 O 595.669 2.92418 2.75417 0
M  V30 6112 N 593.875 2.49628 1.48776 0
M  V30 6113 H 593.422 2.50671 0.593452 0
M  V30 6114 H 593.38 2.15759 2.28682 0
M  V30 6115 N 597.152 0.631951 1.44375 0
M  V30 6116 C 598.4 0.136497 2.01639 0
M  V30 6117 C 598.721 -1.24637 1.49969 0
M  V30 6118 O 597.991 -1.82827 0.70363 0
M  V30 6119 H 596.571 0.0474703 0.74549 0
M  V30 6120 H 599.233 0.818837 1.76865 0
M  V30 6121 H 598.329 0.104817 3.11924 0
M  V30 6122 N 598.631 -1.53133 0.372548 0
M  V30 6123 C 599.879 -2.00958 -0.214534 0
M  V30 6124 C 600.2 -1.26135 -1.48711 0
M  V30 6125 O 599.47 -0.376597 -1.92246 0
M  V30 6126 H 598.05 -0.742456 -0.0822664 0
M  V30 6127 H 600.712 -1.88367 0.500385 0
M  V30 6128 H 599.808 -3.09031 -0.436605 0
M  V30 6129 N 600.109 -0.101901 -1.5727 0
M  V30 6130 C 601.334 0.571759 -1.99363 0
M  V30 6131 C 601.759 1.60507 -0.980768 0
M  V30 6132 O 601.117 1.81231 0.0498517 0
M  V30 6133 C 601.165 1.18996 -3.404 0
M  V30 6134 O 600.269 2.30572 -3.41922 0
M  V30 6135 H 599.61 0.144449 -0.648098 0
M  V30 6136 H 602.14 -0.185325 -2.03759 0
M  V30 6137 H 602.15 1.52962 -3.78241 0
M  V30 6138 H 600.825 0.432984 -4.1364 0
M  V30 6139 H 599.402 1.98173 -3.15883 0
M  V30 6140 N 601.587 1.56661 0.17182 0
M  V30 6141 C 602.998 1.71652 0.734329 0
M  V30 6142 C 603.349 0.712335 1.82812 0
M  V30 6143 O 602.474 -0.126401 2.16031 0
M  V30 6144 C 603.069 3.11226 1.3388 0
M  V30 6145 C 601.628 3.27904 1.84813 0
M  V30 6146 C 600.775 2.67603 0.726917 0
M  V30 6147 H 603.726 1.5861 -0.0535665 0
M  V30 6148 H 603.747 3.09849 2.20849 0
M  V30 6149 H 603.259 3.8429 0.54249 0
M  V30 6150 H 601.36 2.59796 2.6709 0
M  V30 6151 H 601.473 4.35637 1.99392 0
M  V30 6152 H 599.837 2.274 1.14723 0
M  V30 6153 H 600.62 3.43252 -0.0575334 0
M  V30 6154 N 603.065 -0.440357 1.51323 0
M  V30 6155 C 604.293 -1.21255 1.67645 0
M  V30 6156 C 604.708 -1.85088 0.37252 0
M  V30 6157 O 604.065 -1.70582 -0.648683 0
M  V30 6158 C 604.116 -2.29881 2.78993 0
M  V30 6159 O 603.837 -1.68659 4.04334 0
M  V30 6160 C 605.338 -3.20214 3.06558 0
M  V30 6161 H 602.558 -0.36558 0.562666 0
M  V30 6162 H 605.102 -0.52214 1.97722 0
M  V30 6163 H 603.257 -2.94643 2.51524 0
M  V30 6164 H 603.671 -2.40426 4.6615 0
M  V30 6165 H 605.145 -3.92575 3.88058 0
M  V30 6166 H 605.622 -3.80794 2.18844 0
M  V30 6167 H 606.228 -2.61156 3.35675 0
M  V30 6168 N 604.543 -1.41418 -0.695603 0
M  V30 6169 C 605.768 -1.44329 -1.48942 0
M  V30 6170 C 606.193 -0.0501579 -1.88033 0
M  V30 6171 O 605.551 0.946598 -1.54626 0
M  V30 6172 C 605.599 -2.3578 -2.72837 0
M  V30 6173 O 604.703 -1.81482 -3.70322 0
M  V30 6174 H 604.044 -0.489838 -0.44828 0
M  V30 6175 H 606.574 -1.85878 -0.855014 0
M  V30 6176 H 606.584 -2.51654 -3.21145 0
M  V30 6177 H 605.259 -3.37005 -2.43722 0
M  V30 6178 H 603.836 -1.75058 -3.29255 0
M  V30 6179 N 606.021 0.929856 -1.27246 0
M  V30 6180 C 607.298 1.65544 -1.04186 0
M  V30 6181 C 607.678 2.06796 0.424097 0
M  V30 6182 O 607.026 1.80053 1.40688 0
M  V30 6183 C 607.236 2.85912 -2.00138 0
M  V30 6184 C 608.584 3.57305 -2.29387 0
M  V30 6185 O 609.608 2.96036 -1.98094 0
M  V30 6186 O 608.467 4.67688 -2.82719 0
M  V30 6187 H 605.561 0.725473 -0.397011 0
M  V30 6188 H 608.107 0.980583 -1.38501 0
M  V30 6189 H 606.879 2.52403 -2.99013 0
M  V30 6190 H 606.502 3.61118 -1.66371 0
M  V30 6191 N 607.499 1.09233 1.13605 0
M  V30 6192 C 608.747 0.825525 1.84471 0
M  V30 6193 C 609.068 -0.650702 1.83823 0
M  V30 6194 O 608.338 -1.47204 1.29259 0
M  V30 6195 H 606.918 0.3024 0.683054 0
M  V30 6196 H 609.58 1.38006 1.37624 0
M  V30 6197 H 608.676 1.17727 2.89045 0
M  V30 6198 N 608.977 -1.30795 0.87923 0
M  V30 6199 C 610.388 -1.78535 0.546093 0
M  V30 6200 C 610.739 -1.72354 -0.937467 0
M  V30 6201 O 609.864 -1.2969 -1.73233 0
M  V30 6202 C 610.459 -3.24181 0.9845 0
M  V30 6203 C 609.018 -3.69779 0.702871 0
M  V30 6204 C 608.165 -2.51377 1.17068 0
M  V30 6205 H 611.116 -1.17746 1.06403 0
M  V30 6206 H 611.137 -3.79227 0.311045 0
M  V30 6207 H 610.649 -3.28647 2.06429 0
M  V30 6208 H 608.75 -3.70806 -0.365166 0
M  V30 6209 H 608.863 -4.61507 1.28639 0
M  V30 6210 H 607.227 -2.47768 0.590172 0
M  V30 6211 H 608.01 -2.58584 2.25808 0
M  V30 6212 N 610.455 -0.639598 -1.44038 0
M  V30 6213 C 611.418 0.0506628 -2.29144 0
M  V30 6214 C 612.418 0.764001 -1.41491 0
M  V30 6215 O 613.608 0.607309 -1.63271 0
M  V30 6216 C 610.74 1.0824 -3.2326 0
M  V30 6217 H 611.933 -0.697987 -2.91664 0
M  V30 6218 H 609.486 -0.400146 -1.51091 0
M  V30 6219 H 610.221 1.86075 -2.65606 0
M  V30 6220 H 610.006 0.574725 -3.87865 0
M  V30 6221 H 611.496 1.56487 -3.87171 0
M  V30 6222 N 611.933 1.52934 -0.380664 0
M  V30 6223 C 612.863 2.29118 0.450268 0
M  V30 6224 C 613.844 1.32153 1.07096 0
M  V30 6225 O 615.029 1.61038 1.08537 0
M  V30 6226 C 612.159 3.09161 1.58231 0
M  V30 6227 C 611.113 4.13938 1.0881 0
M  V30 6228 C 610.439 4.82153 2.31155 0
M  V30 6229 C 611.739 5.22048 0.162146 0
M  V30 6230 H 613.433 2.98826 -0.185361 0
M  V30 6231 H 610.979 1.43715 -0.0905886 0
M  V30 6232 H 612.932 3.61211 2.17036 0
M  V30 6233 H 611.656 2.3717 2.2454 0
M  V30 6234 H 610.315 3.62855 0.522633 0
M  V30 6235 H 609.963 4.06719 2.95953 0
M  V30 6236 H 609.663 5.52966 1.98752 0
M  V30 6237 H 611.187 5.37004 2.90618 0
M  V30 6238 H 612.601 5.6951 0.658126 0
M  V30 6239 H 610.998 6.00057 -0.0717122 0
M  V30 6240 H 612.068 4.78398 -0.791438 0
M  V30 6241 N 613.412 0.11024 1.57214 0
M  V30 6242 C 614.66 -0.548783 1.94506 0
M  V30 6243 C 614.981 -1.67772 0.99386 0
M  V30 6244 O 614.251 -1.9584 0.0485841 0
M  V30 6245 H 612.831 -0.205715 0.718116 0
M  V30 6246 H 615.493 0.177127 1.94093 0
M  V30 6247 H 614.589 -0.949096 2.97319 0
M  V30 6248 N 614.89 -1.56749 -0.16351 0
M  V30 6249 C 616.138 -1.82074 -0.87713 0
M  V30 6250 C 616.459 -0.688503 -1.82441 0
M  V30 6251 O 615.729 0.291085 -1.93725 0
M  V30 6252 H 614.309 -0.671677 -0.326893 0
M  V30 6253 H 616.971 -1.9423 -0.161459 0
M  V30 6254 H 616.067 -2.76407 -1.44934 0
M  V30 6255 N 616.368 0.432326 -1.51554 0
M  V30 6256 C 617.617 1.17831 -1.63703 0
M  V30 6257 C 617.93 1.92229 -0.36156 0
M  V30 6258 O 619.136 2.69069 -0.362495 0
M  V30 6259 C 617.592 2.14318 -2.89129 0
M  V30 6260 C 617.2 1.45544 -4.23699 0
M  V30 6261 C 618.944 2.89319 -3.10636 0
M  V30 6262 C 616.851 2.40545 -5.4027 0
M  V30 6263 H 615.781 0.443533 -0.60975 0
M  V30 6264 H 618.432 0.444878 -1.78026 0
M  V30 6265 H 616.814 2.91117 -2.68452 0
M  V30 6266 H 617.988 0.742693 -4.54775 0
M  V30 6267 H 616.303 0.826772 -4.0811 0
M  V30 6268 H 618.9 3.60495 -3.94902 0
M  V30 6269 H 619.243 3.50951 -2.23918 0
M  V30 6270 H 619.776 2.19625 -3.31677 0
M  V30 6271 H 616.515 1.83594 -6.29264 0
M  V30 6272 H 616.035 3.09859 -5.13563 0
M  V30 6273 H 617.714 3.01569 -5.72421 0
M  V30 6274 N 617.846 1.41785 0.688094 0
M  V30 6275 C 619.071 1.45117 1.48175 0
M  V30 6276 C 619.496 0.060129 1.88004 0
M  V30 6277 O 618.854 -0.938385 1.55126 0
M  V30 6278 C 618.902 2.37224 2.71583 0
M  V30 6279 O 618.006 1.83443 3.69354 0
M  V30 6280 H 617.347 0.492208 0.445676 0
M  V30 6281 H 619.877 1.86329 0.845145 0
M  V30 6282 H 619.887 2.53353 3.19806 0
M  V30 6283 H 618.562 3.38293 2.41931 0
M  V30 6284 H 617.139 1.76802 3.28322 0
M  V30 6285 N 619.324 -0.923095 1.27737 0
M  V30 6286 C 620.601 -1.64989 1.05062 0
M  V30 6287 C 620.981 -2.07018 -0.413124 0
M  V30 6288 O 620.329 -1.80797 -1.39731 0
M  V30 6289 C 620.539 -2.84847 2.01652 0
M  V30 6290 C 621.887 -3.56083 2.31279 0
M  V30 6291 O 622.911 -2.94981 1.99662 0
M  V30 6292 O 621.77 -4.66182 2.85196 0
M  V30 6293 H 618.864 -0.723357 0.400853 0
M  V30 6294 H 621.41 -0.973224 1.3902 0
M  V30 6295 H 620.182 -2.50814 3.00347 0
M  V30 6296 H 619.805 -3.60231 1.68284 0
M  V30 6297 N 620.802 -1.09834 -1.13024 0
M  V30 6298 C 622.05 -0.835297 -1.8403 0
M  V30 6299 C 622.371 0.640944 -1.84165 0
M  V30 6300 O 621.641 1.46517 -1.30037 0
M  V30 6301 H 620.221 -0.306018 -0.681441 0
M  V30 6302 H 622.883 -1.38734 -1.36891 0
M  V30 6303 H 621.979 -1.19258 -2.88416 0
M  V30 6304 N 622.28 1.30327 -0.886154 0
M  V30 6305 C 623.528 1.9571 -0.504195 0
M  V30 6306 C 623.849 1.70294 0.950003 0
M  V30 6307 O 623.119 1.02718 1.66811 0
M  V30 6308 H 621.699 0.72412 -0.183465 0
M  V30 6309 H 624.361 1.58835 -1.12949 0
M  V30 6310 H 623.457 3.04704 -0.675431 0
M  V30 6311 N 623.758 0.647228 1.43697 0
M  V30 6312 C 624.705 -0.0480092 2.3075 0
M  V30 6313 C 625.675 -0.820705 1.44408 0
M  V30 6314 O 626.86 -0.798515 1.73287 0
M  V30 6315 C 624 -1.01259 3.2991 0
M  V30 6316 C 623.113 -0.236629 4.31351 0
M  V30 6317 C 622.248 -1.19447 5.17596 0
M  V30 6318 C 621.287 -0.408595 6.10735 0
M  V30 6319 N 620.424 -1.31772 6.89623 0
M  V30 6320 H 625.264 0.700238 2.89656 0
M  V30 6321 H 622.801 0.357082 1.427 0
M  V30 6322 H 624.759 -1.58538 3.85903 0
M  V30 6323 H 623.389 -1.72778 2.72667 0
M  V30 6324 H 622.441 0.452353 3.77701 0
M  V30 6325 H 623.753 0.374731 4.9739 0
M  V30 6326 H 622.907 -1.83809 5.78186 0
M  V30 6327 H 621.646 -1.83975 4.51669 0
M  V30 6328 H 620.651 0.24841 5.49239 0
M  V30 6329 H 621.876 0.232188 6.78703 0
M  V30 6330 H 619.822 -1.94991 6.2635 0
M  V30 6331 H 619.739 -0.760779 7.52162 0
M  V30 6332 H 621.007 -1.94967 7.54724 0
M  V30 6333 N 625.236 -1.5273 0.388769 0
M  V30 6334 C 626.199 -2.25043 -0.434544 0
M  V30 6335 C 627.199 -1.26661 -0.990644 0
M  V30 6336 O 628.389 -1.50762 -0.872731 0
M  V30 6337 C 625.521 -3.00507 -1.60961 0
M  V30 6338 H 626.714 -2.99242 0.198549 0
M  V30 6339 H 624.267 -1.55664 0.140875 0
M  V30 6340 H 625.002 -2.30607 -2.28015 0
M  V30 6341 H 624.787 -3.72716 -1.21757 0
M  V30 6342 H 626.277 -3.55413 -2.19251 0
M  V30 6343 N 626.714 -0.118576 -1.57153 0
M  V30 6344 C 627.96 0.540326 -1.95469 0
M  V30 6345 C 628.293 1.66356 -1.00196 0
M  V30 6346 O 627.568 1.94461 -0.039104 0
M  V30 6347 C 627.851 1.07342 -3.43729 0
M  V30 6348 C 627.704 -0.0463732 -4.49776 0
M  V30 6349 C 629.023 1.96442 -3.93826 0
M  V30 6350 H 626.142 0.19494 -0.710751 0
M  V30 6351 H 628.784 -0.19405 -1.89006 0
M  V30 6352 H 626.934 1.69925 -3.49368 0
M  V30 6353 H 628.606 -0.681648 -4.56236 0
M  V30 6354 H 626.849 -0.709574 -4.27957 0
M  V30 6355 H 627.52 0.367856 -5.50773 0
M  V30 6356 H 629.996 1.43731 -3.90488 0
M  V30 6357 H 628.872 2.3066 -4.98084 0
M  V30 6358 H 629.133 2.89077 -3.34495 0
M  V30 6359 N 628.193 1.56834 0.155195 0
M  V30 6360 C 629.103 2.009 1.21146 0
M  V30 6361 C 630.119 0.923029 1.475 0
M  V30 6362 O 631.295 1.23189 1.59331 0
M  V30 6363 C 628.36 2.37378 2.52691 0
M  V30 6364 C 627.421 3.59883 2.34057 0
M  V30 6365 C 626.654 3.94612 3.59329 0
M  V30 6366 O 626.877 3.30104 4.65175 0
M  V30 6367 O 625.811 4.87895 3.52479 0
M  V30 6368 H 629.637 2.9105 0.867371 0
M  V30 6369 H 627.222 1.44916 0.363298 0
M  V30 6370 H 629.104 2.61737 3.3026 0
M  V30 6371 H 627.779 1.50385 2.86646 0
M  V30 6372 H 626.686 3.40722 1.54465 0
M  V30 6373 H 628.019 4.47468 2.0502 0
M  V30 6374 N 629.671 -0.424282 1.51781 0
M  V30 6375 C 630.919 -1.17028 1.64769 0
M  V30 6376 C 631.24 -1.91409 0.372523 0
M  V30 6377 O 630.51 -1.86091 -0.612108 0
M  V30 6378 H 629.09 -0.434992 0.607282 0
M  V30 6379 H 631.752 -0.485169 1.88765 0
M  V30 6380 H 630.848 -1.8927 2.4816 0
M  V30 6381 N 631.149 -1.42148 -0.680565 0
M  V30 6382 C 632.112 -1.4488 -1.77602 0
M  V30 6383 C 633.112 -0.337209 -1.57224 0
M  V30 6384 O 634.302 -0.597778 -1.63622 0
M  V30 6385 C 631.434 -1.27483 -3.16166 0
M  V30 6386 H 632.627 -2.42412 -1.76568 0
M  V30 6387 H 630.18 -1.28511 -0.889645 0
M  V30 6388 H 630.915 -0.30851 -3.22829 0
M  V30 6389 H 630.7 -2.08037 -3.3236 0
M  V30 6390 H 632.19 -1.32265 -3.96101 0
M  V30 6391 N 632.627 0.916307 -1.28225 0
M  V30 6392 C 633.59 1.99996 -1.11957 0
M  V30 6393 C 634.59 1.60688 -0.0600152 0
M  V30 6394 O 635.78 1.71499 -0.30558 0
M  V30 6395 C 632.912 3.33458 -0.708411 0
M  V30 6396 H 634.105 2.15858 -2.08196 0
M  V30 6397 H 631.658 1.09863 -1.11175 0
M  V30 6398 H 632.393 3.23297 0.254859 0
M  V30 6399 H 632.178 3.63349 -1.47377 0
M  V30 6400 H 633.668 4.13014 -0.617164 0
M  V30 6401 N 634.105 1.10431 1.1244 0
M  V30 6402 C 635.351 0.857864 1.84424 0
M  V30 6403 C 635.706 -0.609995 1.82474 0
M  V30 6404 O 634.999 -1.44401 1.25932 0
M  V30 6405 C 635.193 1.34022 3.3132 0
M  V30 6406 C 635.022 2.85344 3.47576 0
M  V30 6407 C 633.792 3.53345 3.61213 0
M  V30 6408 C 635.99 3.83446 3.42744 0
M  V30 6409 N 633.972 4.92989 3.65834 0
M  V30 6410 C 635.343 5.09101 3.5386 0
M  V30 6411 C 637.398 3.76154 3.26209 0
M  V30 6412 C 636.101 6.28323 3.50146 0
M  V30 6413 C 638.127 4.94876 3.23809 0
M  V30 6414 C 637.489 6.19378 3.35485 0
M  V30 6415 H 633.588 0.366917 0.690577 0
M  V30 6416 H 636.172 1.40668 1.34613 0
M  V30 6417 H 634.343 0.818727 3.79673 0
M  V30 6418 H 636.075 1.03801 3.91162 0
M  V30 6419 H 632.83 3.03791 3.63329 0
M  V30 6420 H 633.254 5.65762 3.71809 0
M  V30 6421 H 637.896 2.80813 3.16076 0
M  V30 6422 H 635.614 7.23953 3.5905 0
M  V30 6423 H 639.2 4.90942 3.12197 0
M  V30 6424 H 638.08 7.09704 3.33602 0
M  V30 6425 N 635.583 -1.29855 0.893053 0
M  V30 6426 C 636.513 -2.3035 0.382249 0
M  V30 6427 C 637.494 -1.61328 -0.539203 0
M  V30 6428 O 638.679 -1.88882 -0.451342 0
M  V30 6429 C 635.809 -3.45024 -0.396983 0
M  V30 6430 C 634.763 -4.258 0.433437 0
M  V30 6431 C 634.089 -5.32605 -0.472889 0
M  V30 6432 C 635.389 -4.94549 1.67984 0
M  V30 6433 H 637.083 -2.73325 1.22205 0
M  V30 6434 H 634.629 -1.314 0.589073 0
M  V30 6435 H 636.582 -4.14398 -0.765024 0
M  V30 6436 H 635.306 -3.00875 -1.2705 0
M  V30 6437 H 633.965 -3.58125 0.783723 0
M  V30 6438 H 633.613 -4.84702 -1.34435 0
M  V30 6439 H 633.313 -5.87547 0.0789958 0
M  V30 6440 H 634.837 -6.04832 -0.837269 0
M  V30 6441 H 636.251 -5.56395 1.38192 0
M  V30 6442 H 634.648 -5.59393 2.17254 0
M  V30 6443 H 635.718 -4.20215 2.41965 0
M  V30 6444 N 637.061 -0.65484 -1.43351 0
M  V30 6445 C 638.286 -0.175046 -2.0666 0
M  V30 6446 C 638.711 1.15104 -1.4877 0
M  V30 6447 O 638.069 1.71144 -0.598279 0
M  V30 6448 C 638.117 -0.0991544 -3.60464 0
M  V30 6449 O 637.221 0.938169 -4.01587 0
M  V30 6450 H 636.562 -0.0956148 -0.65708 0
M  V30 6451 H 639.092 -0.898222 -1.83829 0
M  V30 6452 H 639.102 0.083632 -4.07914 0
M  V30 6453 H 637.777 -1.06719 -4.01975 0
M  V30 6454 H 636.354 0.72804 -3.65724 0
M  V30 6455 N 638.539 1.52521 -0.396863 0
M  V30 6456 C 639.449 2.30403 0.44178 0
M  V30 6457 C 640.465 1.37625 1.06468 0
M  V30 6458 O 641.641 1.70697 1.06886 0
M  V30 6459 C 638.706 3.1013 1.54986 0
M  V30 6460 C 637.767 4.18628 0.951279 0
M  V30 6461 C 637 4.94543 2.00655 0
M  V30 6462 O 637.223 4.70629 3.22281 0
M  V30 6463 O 636.157 5.797 1.61962 0
M  V30 6464 H 639.983 3.03087 -0.192892 0
M  V30 6465 H 637.568 1.48537 -0.16038 0
M  V30 6466 H 639.45 3.59816 2.19341 0
M  V30 6467 H 638.125 2.40251 2.16935 0
M  V30 6468 H 637.032 3.73119 0.270773 0
M  V30 6469 H 638.365 4.90763 0.375887 0
M  V30 6470 N 640.017 0.126909 1.57088 0
M  V30 6471 C 641.242 -0.53997 2.00248 0
M  V30 6472 C 641.667 -1.58927 1.00618 0
M  V30 6473 O 641.025 -1.81288 -0.0210131 0
M  V30 6474 C 641.073 -1.13565 3.4225 0
M  V30 6475 O 640.177 -2.25103 3.45547 0
M  V30 6476 H 639.518 -0.13412 0.650314 0
M  V30 6477 H 642.048 0.217718 2.03438 0
M  V30 6478 H 642.058 -1.46925 3.80627 0
M  V30 6479 H 640.733 -0.367122 4.14277 0
M  V30 6480 H 639.31 -1.93123 3.18995 0
M  V30 6481 N 641.495 -1.56914 -0.146875 0
M  V30 6482 C 642.743 -1.82994 -0.85777 0
M  V30 6483 C 643.064 -0.707814 -1.817 0
M  V30 6484 O 642.334 0.270521 -1.94023 0
M  V30 6485 H 640.914 -0.675106 -0.319751 0
M  V30 6486 H 643.576 -1.9439 -0.140849 0
M  V30 6487 H 642.672 -2.77928 -1.41994 0
M  V30 6488 N 642.974 0.416227 -1.52004 0
M  V30 6489 C 643.937 1.48926 -1.74223 0
M  V30 6490 C 644.937 1.48693 -0.612119 0
M  V30 6491 O 646.127 1.50343 -0.879921 0
M  V30 6492 C 643.259 2.88372 -1.81809 0
M  V30 6493 H 644.452 1.3052 -2.70008 0
M  V30 6494 H 642.005 0.646271 -1.42313 0
M  V30 6495 H 642.74 3.12157 -0.879135 0
M  V30 6496 H 642.525 2.89944 -2.6396 0
M  V30 6497 H 644.015 3.66173 -2.00766 0
M  V30 6498 N 644.452 1.42507 0.673017 0
M  V30 6499 C 645.68 1.46473 1.46128 0
M  V30 6500 C 646.095 0.0765912 1.88645 0
M  V30 6501 O 645.452 -0.909057 1.58248 0
M  V30 6502 C 645.503 2.39339 2.70923 0
M  V30 6503 O 645.224 3.72752 2.3019 0
M  V30 6504 C 646.725 2.52343 3.64469 0
M  V30 6505 H 643.945 0.49812 0.449575 0
M  V30 6506 H 646.489 1.87041 0.826802 0
M  V30 6507 H 644.644 2.02019 3.30556 0
M  V30 6508 H 645.058 4.22503 3.10791 0
M  V30 6509 H 646.532 3.2144 4.48754 0
M  V30 6510 H 647.009 1.56189 4.1049 0
M  V30 6511 H 647.615 2.90392 3.10729 0
M  V30 6512 N 645.93 -0.909495 1.28709 0
M  V30 6513 C 647.155 -1.69801 1.1909 0
M  V30 6514 C 647.58 -1.86479 -0.246388 0
M  V30 6515 O 646.938 -1.37802 -1.17815 0
M  V30 6516 C 646.986 -3.06543 1.89904 0
M  V30 6517 O 646.09 -3.94268 1.2094 0
M  V30 6518 H 645.431 -0.519783 0.413185 0
M  V30 6519 H 647.961 -1.13689 1.70106 0
M  V30 6520 H 647.971 -3.56748 1.97977 0
M  V30 6521 H 646.646 -2.93722 2.94449 0
M  V30 6522 H 645.223 -3.52702 1.2106 0
M  V30 6523 N 647.408 -1.11026 -1.11852 0
M  V30 6524 C 648.657 -0.851249 -1.82857 0
M  V30 6525 C 648.97 0.62514 -1.85341 0
M  V30 6526 O 650.176 1.00026 -2.52403 0
M  V30 6527 C 648.632 -1.47309 -3.28372 0
M  V30 6528 C 648.24 -2.9832 -3.34229 0
M  V30 6529 C 649.984 -1.29373 -4.04306 0
M  V30 6530 C 647.891 -3.53509 -4.74115 0
M  V30 6531 H 646.821 -0.314794 -0.685143 0
M  V30 6532 H 649.472 -1.33499 -1.25898 0
M  V30 6533 H 647.854 -0.917017 -3.85236 0
M  V30 6534 H 649.028 -3.60295 -2.87271 0
M  V30 6535 H 647.343 -3.15482 -2.71772 0
M  V30 6536 H 649.94 -1.68042 -5.07608 0
M  V30 6537 H 650.283 -0.235879 -4.15631 0
M  V30 6538 H 650.816 -1.8182 -3.53817 0
M  V30 6539 H 647.555 -4.58987 -4.67986 0
M  V30 6540 H 647.075 -2.96305 -5.21501 0
M  V30 6541 H 648.754 -3.51693 -5.43066 0
M  V30 6542 N 648.886 1.2938 -0.899927 0
M  V30 6543 C 650.297 1.77644 -0.574427 0
M  V30 6544 C 650.648 1.73824 0.909928 0
M  V30 6545 O 649.773 1.32429 1.71147 0
M  V30 6546 C 650.368 3.22573 -1.03595 0
M  V30 6547 C 648.927 3.68614 -0.76161 0
M  V30 6548 C 648.074 2.49483 -1.21052 0
M  V30 6549 H 651.025 1.16038 -1.08263 0
M  V30 6550 H 651.046 3.78684 -0.371337 0
M  V30 6551 H 650.558 3.25321 -2.11631 0
M  V30 6552 H 648.659 3.7134 0.306127 0
M  V30 6553 H 648.772 4.59402 -1.35965 0
M  V30 6554 H 647.136 2.46798 -0.629515 0
M  V30 6555 H 647.919 2.54959 -2.29893 0
M  V30 6556 N 650.364 0.662433 1.43002 0
M  V30 6557 C 651.604 0.183312 2.03576 0
M  V30 6558 C 651.968 -1.18354 1.51183 0
M  V30 6559 O 653.169 -1.7566 2.03462 0
M  V30 6560 C 651.44 0.202908 3.56824 0
M  V30 6561 S 652.999 -0.20702 4.38311 0
M  V30 6562 H 649.817 0.0765001 0.706872 0
M  V30 6563 H 652.419 0.872827 1.74934 0
M  V30 6564 H 651.123 1.20028 3.92456 0
M  V30 6565 H 650.654 -0.506845 3.90121 0
M  V30 6566 H 652.669 -1.44358 4.74737 0
M  V30 6567 N 651.842 -1.52309 0.404946 0
M  V30 6568 C 652.805 -2.25491 -0.410651 0
M  V30 6569 C 653.805 -1.27704 -0.977154 0
M  V30 6570 O 654.995 -1.51679 -0.856691 0
M  V30 6571 C 652.127 -3.02197 -1.57765 0
M  V30 6572 H 653.32 -2.99015 0.230277 0
M  V30 6573 H 650.873 -1.55506 0.157377 0
M  V30 6574 H 651.608 -2.33013 -2.25556 0
M  V30 6575 H 651.393 -3.73987 -1.17797 0
M  V30 6576 H 652.883 -3.57719 -2.15469 0
M  V30 6577 N 653.32 -0.135238 -1.57019 0
M  V30 6578 C 654.736 0.221262 -1.58059 0
M  V30 6579 C 654.936 1.65538 -1.14889 0
M  V30 6580 O 653.992 2.37985 -0.843751 0
M  V30 6581 C 655.305 -0.0268114 -3.00688 0
M  V30 6582 C 656.853 0.0378206 -3.12977 0
M  V30 6583 C 657.328 -0.182769 -4.57635 0
M  V30 6584 N 658.819 -0.129292 -4.6302 0
M  V30 6585 C 659.554 -0.274648 -5.72742 0
M  V30 6586 N 659.05 -0.477075 -6.91155 0
M  V30 6587 N 660.843 -0.213077 -5.61696 0
M  V30 6588 H 652.994 -1.07177 -1.83376 0
M  V30 6589 H 655.257 -0.423338 -0.848227 0
M  V30 6590 H 654.963 -1.01889 -3.36618 0
M  V30 6591 H 654.837 0.697863 -3.70688 0
M  V30 6592 H 657.224 1.02043 -2.76896 0
M  V30 6593 H 657.305 -0.718996 -2.45487 0
M  V30 6594 H 656.949 -1.16243 -4.94419 0
M  V30 6595 H 656.879 0.59423 -5.23237 0
M  V30 6596 H 659.37 0.0229896 -3.77893 0
M  V30 6597 H 659.683 -0.578413 -7.70632 0
M  V30 6598 H 658.028 -0.513252 -6.93102 0
M  V30 6599 H 661.219 -0.0557796 -4.68067 0
M  V30 6600 H 661.392 -0.329796 -6.4716 0
M  V30 6601 N 654.798 1.5699 0.138552 0
M  V30 6602 C 656.044 1.84081 0.85099 0
M  V30 6603 C 656.377 0.718107 1.80435 0
M  V30 6604 O 655.652 -0.277633 1.92508 0
M  V30 6605 C 655.935 3.21699 1.61808 0
M  V30 6606 C 655.788 4.44544 0.685633 0
M  V30 6607 C 657.107 3.5664 2.57868 0
M  V30 6608 H 654.226 0.669592 0.307922 0
M  V30 6609 H 656.868 1.89646 0.11588 0
M  V30 6610 H 655.018 3.17086 2.24474 0
M  V30 6611 H 656.69 4.61248 0.0693179 0
M  V30 6612 H 654.933 4.338 -0.00421993 0
M  V30 6613 H 655.604 5.3746 1.25858 0
M  V30 6614 H 658.08 3.61918 2.05316 0
M  V30 6615 H 656.956 4.53946 3.08584 0
M  V30 6616 H 657.217 2.83036 3.39622 0
M  V30 6617 N 656.276 -0.40816 1.52223 0
M  V30 6618 C 657.522 -1.15673 1.66576 0
M  V30 6619 C 657.855 -1.90141 0.394996 0
M  V30 6620 O 657.13 -1.84798 -0.606613 0
M  V30 6621 C 657.413 -2.15042 2.88841 0
M  V30 6622 C 657.266 -1.44465 4.25969 0
M  V30 6623 C 658.585 -3.15699 3.0663 0
M  V30 6624 H 655.704 -0.41916 0.606196 0
M  V30 6625 H 658.346 -0.442348 1.84779 0
M  V30 6626 H 656.496 -2.75964 2.73452 0
M  V30 6627 H 658.168 -0.866544 4.53088 0
M  V30 6628 H 656.411 -0.746612 4.27327 0
M  V30 6629 H 657.082 -2.16976 5.07568 0
M  V30 6630 H 659.558 -2.64854 3.20923 0
M  V30 6631 H 658.434 -3.82491 3.9369 0
M  V30 6632 H 658.695 -3.83481 2.19987 0
M  V30 6633 N 657.755 -1.42862 -0.66545 0
M  V30 6634 C 659.032 -1.3431 -1.42197 0
M  V30 6635 C 659.412 0.0150265 -2.11095 0
M  V30 6636 O 658.76 1.03101 -2.03918 0
M  V30 6637 C 658.97 -2.51783 -2.41674 0
M  V30 6638 C 660.318 -2.94321 -3.0604 0
M  V30 6639 O 661.342 -2.51741 -2.52001 0
M  V30 6640 O 660.201 -3.68047 -4.03985 0
M  V30 6641 H 657.295 -0.530159 -0.634713 0
M  V30 6642 H 659.841 -1.54888 -0.693386 0
M  V30 6643 H 658.613 -3.42282 -1.89627 0
M  V30 6644 H 658.236 -2.33241 -3.22001 0
M  V30 6645 N 659.233 0.902656 -1.29189 0
M  V30 6646 C 660.166 2.00816 -1.0839 0
M  V30 6647 C 661.144 1.626 0.00335266 0
M  V30 6648 O 662.328 1.87928 -0.146765 0
M  V30 6649 C 659.455 3.32415 -0.649435 0
M  V30 6650 C 658.501 3.89617 -1.73496 0
M  V30 6651 S 659.334 4.19091 -3.33351 0
M  V30 6652 C 660.49 5.53736 -2.91766 0
M  V30 6653 H 660.723 2.18151 -2.01984 0
M  V30 6654 H 658.256 1.0489 -1.13303 0
M  V30 6655 H 660.214 4.08492 -0.405479 0
M  V30 6656 H 658.875 3.12964 0.266857 0
M  V30 6657 H 658.068 4.84658 -1.38284 0
M  V30 6658 H 657.67 3.20217 -1.93229 0
M  V30 6659 H 659.962 6.34085 -2.38627 0
M  V30 6660 H 660.905 5.93871 -3.85647 0
M  V30 6661 H 661.313 5.15453 -2.30149 0
M  V30 6662 N 660.711 1.11618 1.11262 0
M  V30 6663 C 661.641 0.79846 2.19424 0
M  V30 6664 C 662.622 -0.234003 1.68483 0
M  V30 6665 O 663.807 -0.0970704 1.93957 0
M  V30 6666 C 660.937 0.242892 3.4645 0
M  V30 6667 C 659.891 1.20744 4.10615 0
M  V30 6668 C 659.217 0.512494 5.32238 0
M  V30 6669 C 660.517 2.55884 4.55325 0
M  V30 6670 H 662.211 1.70286 2.46258 0
M  V30 6671 H 659.757 0.820195 1.18359 0
M  V30 6672 H 661.71 0.00840447 4.21399 0
M  V30 6673 H 660.434 -0.696811 3.1908 0
M  V30 6674 H 659.093 1.42759 3.37662 0
M  V30 6675 H 658.741 -0.432075 5.01141 0
M  V30 6676 H 658.441 1.15583 5.7612 0
M  V30 6677 H 659.965 0.286842 6.09926 0
M  V30 6678 H 661.379 2.37946 5.21588 0
M  V30 6679 H 659.776 3.16216 5.10027 0
M  V30 6680 H 660.846 3.14968 3.68678 0
M  V30 6681 N 662.189 -1.289 0.906776 0
M  V30 6682 C 663.119 -2.29932 0.406659 0
M  V30 6683 C 664.1 -1.6189 -0.522061 0
M  V30 6684 O 665.285 -1.8935 -0.431283 0
M  V30 6685 C 662.415 -3.45425 -0.360366 0
M  V30 6686 C 661.369 -4.25316 0.478574 0
M  V30 6687 C 660.695 -5.33076 -0.416373 0
M  V30 6688 C 661.995 -4.92739 1.7322 0
M  V30 6689 H 663.689 -2.72013 1.25097 0
M  V30 6690 H 661.235 -1.30768 0.602977 0
M  V30 6691 H 663.188 -4.15186 -0.721029 0
M  V30 6692 H 661.912 -3.02206 -1.23852 0
M  V30 6693 H 660.571 -3.57273 0.821662 0
M  V30 6694 H 660.219 -4.86101 -1.29287 0
M  V30 6695 H 659.919 -5.8743 0.141309 0
M  V30 6696 H 661.443 -6.05686 -0.773072 0
M  V30 6697 H 662.857 -5.54898 1.44086 0
M  V30 6698 H 661.254 -5.57057 2.23175 0
M  V30 6699 H 662.324 -4.17625 2.46408 0
M  V30 6700 N 663.667 -0.670007 -1.42649 0
M  V30 6701 C 664.615 0.0230106 -2.32589 0
M  V30 6702 C 665.609 0.795585 -1.49555 0
M  V30 6703 O 666.815 0.70409 -1.65658 0
M  V30 6704 H 663.19 0.0262342 -0.751542 0
M  V30 6705 H 665.161 -0.753009 -2.88743 0
M  V30 6706 C 663.91 0.963872 -3.34073 0
M  V30 6707 H 663.233 0.378813 -3.98001 0
M  V30 6708 H 664.673 1.41755 -3.99602 0
M  V30 6709 C 663.132 2.06797 -2.65964 0
M  V30 6710 O 663.662 3.15383 -2.48789 0
M  V30 6711 N 661.868 1.83831 -2.25066 0
M  V30 6712 H 661.415 0.955235 -2.39234 0
M  V30 6713 H 661.373 2.57895 -1.79827 0
M  V30 6714 N 665.145 1.52092 -0.413018 0
M  V30 6715 C 666.556 1.86617 0.0556967 0
M  V30 6716 C 666.907 1.33156 1.44097 0
M  V30 6717 O 666.032 0.672417 2.05688 0
M  V30 6718 C 666.627 3.38628 0.107844 0
M  V30 6719 C 665.186 3.72778 0.520904 0
M  V30 6720 C 664.333 2.75649 -0.302109 0
M  V30 6721 H 667.284 1.45663 -0.629919 0
M  V30 6722 H 667.305 3.69152 0.922324 0
M  V30 6723 H 666.817 3.77508 -0.900506 0
M  V30 6724 H 664.918 3.39478 1.53575 0
M  V30 6725 H 665.031 4.7838 0.262591 0
M  V30 6726 H 663.395 2.53603 0.236115 0
M  V30 6727 H 664.178 3.17369 -1.30888 0
M  V30 6728 N 666.623 0.143563 1.56945 0
M  V30 6729 C 667.871 -0.507402 1.95627 0
M  V30 6730 C 668.192 -1.65626 1.02922 0
M  V30 6731 O 667.462 -1.95693 0.0901136 0
M  V30 6732 H 666.042 -0.190436 0.722318 0
M  V30 6733 H 668.704 0.218257 1.93674 0
M  V30 6734 H 667.8 -0.885816 2.99265 0
M  V30 6735 N 668.101 -1.57061 -0.130224 0
M  V30 6736 C 669.349 -1.83893 -0.838313 0
M  V30 6737 C 669.67 -0.727046 -1.80939 0
M  V30 6738 O 668.94 0.249927 -1.94299 0
M  V30 6739 H 667.52 -0.67846 -0.312573 0
M  V30 6740 H 670.182 -1.94529 -0.120224 0
M  V30 6741 H 669.278 -2.79419 -1.39038 0
M  V30 6742 N 669.579 0.400081 -1.52437 0
M  V30 6743 C 670.489 1.51253 -1.79331 0
M  V30 6744 C 671.505 1.60188 -0.679396 0
M  V30 6745 O 672.681 1.76733 -0.965791 0
M  V30 6746 C 669.746 2.869 -1.94652 0
M  V30 6747 C 668.807 2.87777 -3.18564 0
M  V30 6748 C 668.04 4.16954 -3.33145 0
M  V30 6749 O 668.263 5.11329 -2.52783 0
M  V30 6750 O 667.197 4.2487 -4.26343 0
M  V30 6751 H 671.023 1.31461 -2.73773 0
M  V30 6752 H 668.608 0.586834 -1.37392 0
M  V30 6753 H 670.49 3.67336 -2.065 0
M  V30 6754 H 669.165 3.06741 -1.034 0
M  V30 6755 H 668.072 2.06162 -3.12167 0
M  V30 6756 H 669.405 2.72886 -4.09627 0
M  V30 6757 N 671.057 1.43213 0.657864 0
M  V30 6758 C 672.304 1.44584 1.41781 0
M  V30 6759 C 672.632 0.0684208 1.9438 0
M  V30 6760 O 671.887 -0.925872 1.72413 0
M  V30 6761 C 672.186 2.43143 2.61947 0
M  V30 6762 C 671.852 3.89128 2.27794 0
M  V30 6763 C 670.514 4.28889 2.18191 0
M  V30 6764 C 672.866 4.81144 2.00375 0
M  V30 6765 C 670.194 5.58625 1.79319 0
M  V30 6766 C 672.546 6.11239 1.63003 0
M  V30 6767 C 671.21 6.49981 1.51922 0
M  V30 6768 H 670.48 0.529069 0.518813 0
M  V30 6769 H 673.127 1.76263 0.748577 0
M  V30 6770 H 671.432 2.04851 3.33981 0
M  V30 6771 H 673.129 2.4146 3.20153 0
M  V30 6772 H 669.719 3.57657 2.36176 0
M  V30 6773 H 673.903 4.512 2.06718 0
M  V30 6774 H 669.159 5.87486 1.69323 0
M  V30 6775 H 673.333 6.82014 1.40817 0
M  V30 6776 H 670.96 7.50416 1.21572 0
M  V30 6777 N 672.536 -0.895792 1.29666 0
M  V30 6778 C 673.468 -2.00563 1.10937 0
M  V30 6779 C 674.481 -1.62705 0.055734 0
M  V30 6780 O 675.67 -1.7595 0.300656 0
M  V30 6781 C 672.77 -3.32262 0.667448 0
M  V30 6782 C 671.943 -3.98625 1.80047 0
M  V30 6783 C 671.002 -5.08617 1.3489 0
M  V30 6784 O 670.028 -5.30837 2.05429 0
M  V30 6785 N 671.23 -5.80076 0.221937 0
M  V30 6786 H 673.995 -2.17184 2.06522 0
M  V30 6787 H 671.556 -1.06822 1.21658 0
M  V30 6788 H 673.548 -4.03196 0.348586 0
M  V30 6789 H 672.118 -3.11985 -0.196055 0
M  V30 6790 H 671.338 -3.21005 2.28801 0
M  V30 6791 H 672.626 -4.39704 2.56003 0
M  V30 6792 H 672.024 -5.64514 -0.366084 0
M  V30 6793 H 670.581 -6.51789 -0.0375346 0
M  V30 6794 N 674.014 -1.12206 -1.10668 0
M  V30 6795 C 675.261 -0.875875 -1.82578 0
M  V30 6796 C 675.589 0.598342 -1.85068 0
M  V30 6797 O 674.844 1.45818 -1.3052 0
M  V30 6798 C 675.143 -1.39276 -3.29146 0
M  V30 6799 C 674.809 -2.8816 -3.46806 0
M  V30 6800 C 673.471 -3.28813 -3.51334 0
M  V30 6801 C 675.823 -3.8401 -3.52399 0
M  V30 6802 C 673.151 -4.64028 -3.59019 0
M  V30 6803 C 675.503 -5.19053 -3.61617 0
M  V30 6804 C 674.167 -5.59252 -3.64408 0
M  V30 6805 H 673.437 -0.320505 -0.6681 0
M  V30 6806 H 676.084 -1.40184 -1.30464 0
M  V30 6807 H 674.389 -0.787207 -3.8381 0
M  V30 6808 H 676.086 -1.17851 -3.83291 0
M  V30 6809 H 672.676 -2.55716 -3.43958 0
M  V30 6810 H 676.86 -3.53698 -3.48154 0
M  V30 6811 H 672.116 -4.94568 -3.59461 0
M  V30 6812 H 676.29 -5.93152 -3.64889 0
M  V30 6813 H 673.917 -6.64017 -3.70116 0
M  V30 6814 N 675.492 1.28418 -0.913599 0
M  V30 6815 C 676.44 2.29272 -0.392037 0
M  V30 6816 C 677.434 1.61344 0.516198 0
M  V30 6817 O 678.64 1.75557 0.39746 0
M  V30 6818 H 675.015 0.744178 -0.108178 0
M  V30 6819 H 676.986 2.70691 -1.25574 0
M  V30 6820 C 675.735 3.45905 0.352815 0
M  V30 6821 H 675.058 3.98378 -0.336848 0
M  V30 6822 H 676.498 4.18473 0.682398 0
M  V30 6823 C 674.957 2.98572 1.56065 0
M  V30 6824 O 675.487 3.01033 2.65974 0
M  V30 6825 N 673.693 2.54235 1.40759 0
M  V30 6826 H 673.24 2.52432 0.513403 0
M  V30 6827 H 673.198 2.22925 2.21702 0
M  V30 6828 N 676.97 0.677563 1.42291 0
M  V30 6829 C 678.218 0.200578 2.01102 0
M  V30 6830 C 678.539 -1.19803 1.53858 0
M  V30 6831 O 677.809 -1.80496 0.761439 0
M  V30 6832 H 676.389 0.0711634 0.743603 0
M  V30 6833 H 679.051 0.874691 1.7417 0
M  V30 6834 H 678.147 0.204 3.11433 0
M  V30 6835 N 678.448 -1.51871 0.421078 0
M  V30 6836 C 679.411 -2.25914 -0.386712 0
M  V30 6837 C 680.411 -1.28733 -0.963555 0
M  V30 6838 O 681.601 -1.52579 -0.840556 0
M  V30 6839 C 678.733 -3.03853 -1.54551 0
M  V30 6840 H 679.926 -2.98754 0.261978 0
M  V30 6841 H 677.479 -1.5533 0.173862 0
M  V30 6842 H 678.214 -2.35392 -2.23072 0
M  V30 6843 H 677.999 -3.75215 -1.13824 0
M  V30 6844 H 679.489 -3.59984 -2.11663 0
M  V30 6845 N 679.926 -0.151884 -1.56866 0
M  V30 6846 C 681.154 0.504813 -2.00647 0
M  V30 6847 C 681.569 1.58098 -1.03201 0
M  V30 6848 O 680.926 1.82476 -0.0297814 0
M  V30 6849 C 680.977 1.10099 -3.44326 0
M  V30 6850 O 680.698 0.0678021 -4.38048 0
M  V30 6851 C 682.199 1.83782 -4.03409 0
M  V30 6852 H 679.419 0.130989 -0.65809 0
M  V30 6853 H 681.963 -0.247903 -2.02992 0
M  V30 6854 H 680.118 1.8043 -3.42817 0
M  V30 6855 H 680.532 0.505237 -5.22061 0
M  V30 6856 H 682.006 2.2078 -5.05925 0
M  V30 6857 H 682.483 2.72557 -3.44397 0
M  V30 6858 H 683.089 1.18138 -4.08563 0
M  V30 6859 N 681.404 1.57128 0.121893 0
M  V30 6860 C 682.367 1.99197 1.13372 0
M  V30 6861 C 683.367 0.881728 1.3447 0
M  V30 6862 O 684.557 1.14783 1.31036 0
M  V30 6863 C 681.689 2.32963 2.4888 0
M  V30 6864 H 682.882 2.89788 0.772204 0
M  V30 6865 H 680.435 1.51952 0.366093 0
M  V30 6866 H 681.17 1.45243 2.89957 0
M  V30 6867 H 680.955 3.13934 2.34921 0
M  V30 6868 H 682.445 2.66261 3.21706 0
M  V30 6869 N 682.882 -0.391992 1.52647 0
M  V30 6870 C 684.11 -1.1586 1.71418 0
M  V30 6871 C 684.525 -1.8381 0.431216 0
M  V30 6872 O 683.882 -1.7256 -0.594085 0
M  V30 6873 C 683.933 -2.20888 2.86165 0
M  V30 6874 O 683.654 -1.5571 4.09495 0
M  V30 6875 C 685.155 -3.103 3.1659 0
M  V30 6876 H 682.375 -0.347494 0.574011 0
M  V30 6877 H 684.919 -0.458972 1.99283 0
M  V30 6878 H 683.074 -2.86492 2.6077 0
M  V30 6879 H 683.488 -2.25474 4.73563 0
M  V30 6880 H 684.962 -3.8003 4.00351 0
M  V30 6881 H 685.439 -3.73639 2.30848 0
M  V30 6882 H 686.045 -2.50345 3.43813 0
M  V30 6883 N 684.36 -1.4356 -0.65026 0
M  V30 6884 C 685.59 -1.48563 -1.4357 0
M  V30 6885 C 685.998 -0.103041 -1.88919 0
M  V30 6886 O 685.341 0.897602 -1.60277 0
M  V30 6887 C 685.403 -2.37181 -2.70158 0
M  V30 6888 C 685.067 -3.84673 -2.4673 0
M  V30 6889 C 686.064 -4.75704 -2.09765 0
M  V30 6890 C 683.749 -4.29189 -2.60963 0
M  V30 6891 C 685.743 -6.09249 -1.87334 0
M  V30 6892 C 683.43 -5.62787 -2.38147 0
M  V30 6893 C 684.428 -6.52634 -2.01389 0
M  V30 6894 O 684.116 -7.83761 -1.78813 0
M  V30 6895 H 683.848 -0.506743 -0.447423 0
M  V30 6896 H 686.402 -1.89001 -0.80423 0
M  V30 6897 H 684.632 -1.91636 -3.35876 0
M  V30 6898 H 686.321 -2.33354 -3.32116 0
M  V30 6899 H 687.087 -4.42589 -1.98343 0
M  V30 6900 H 682.966 -3.59529 -2.88548 0
M  V30 6901 H 686.51 -6.7934 -1.58567 0
M  V30 6902 H 682.407 -5.95469 -2.49173 0
M  V30 6903 H 683.175 -7.95368 -1.93214 0
M  V30 6904 N 685.838 0.888903 -1.30139 0
M  V30 6905 C 687.249 1.45578 -1.16893 0
M  V30 6906 C 687.6 1.94825 0.231866 0
M  V30 6907 O 686.725 1.84661 1.12824 0
M  V30 6908 C 687.32 2.646 -2.11595 0
M  V30 6909 C 685.879 3.17389 -2.02339 0
M  V30 6910 C 685.026 1.90081 -2.01902 0
M  V30 6911 H 687.977 0.69921 -1.42467 0
M  V30 6912 H 687.998 3.40687 -1.69449 0
M  V30 6913 H 687.51 2.28726 -3.13538 0
M  V30 6914 H 685.611 3.5793 -1.03523 0
M  V30 6915 H 685.724 3.80955 -2.90534 0
M  V30 6916 H 684.088 2.08246 -1.46648 0
M  V30 6917 H 684.871 1.5647 -3.05568 0
M  V30 6918 N 687.317 1.12792 1.10072 0
M  V30 6919 C 688.594 0.796867 1.78632 0
M  V30 6920 C 688.974 -0.712739 1.98704 0
M  V30 6921 O 688.322 -1.64773 1.5831 0
M  V30 6922 C 688.532 1.57622 3.11378 0
M  V30 6923 C 689.88 1.76463 3.86194 0
M  V30 6924 O 690.904 1.54165 3.2111 0
M  V30 6925 O 689.763 2.13623 5.03018 0
M  V30 6926 H 686.857 0.290248 0.774394 0
M  V30 6927 H 689.403 1.23215 1.16688 0
M  V30 6928 H 688.175 2.60246 2.92212 0
M  V30 6929 H 687.798 1.13543 3.81043 0
M  V30 6930 N 688.795 -1.27931 0.920396 0
M  V30 6931 C 690.041 -1.94977 0.557832 0
M  V30 6932 C 690.374 -1.72224 -0.897365 0
M  V30 6933 O 689.649 -1.04705 -1.63912 0
M  V30 6934 C 689.932 -3.49289 0.875741 0
M  V30 6935 C 689.785 -3.81416 2.38416 0
M  V30 6936 C 691.104 -4.38486 0.376517 0
M  V30 6937 H 688.223 -0.708164 0.20414 0
M  V30 6938 H 690.865 -1.5118 1.15085 0
M  V30 6939 H 689.015 -3.86724 0.371062 0
M  V30 6940 H 690.687 -3.53813 2.95997 0
M  V30 6941 H 688.93 -3.28225 2.83639 0
M  V30 6942 H 689.601 -4.89198 2.55713 0
M  V30 6943 H 692.077 -4.08161 0.808945 0
M  V30 6944 H 690.953 -5.45296 0.627976 0
M  V30 6945 H 691.214 -4.36143 -0.723293 0
M  V30 6946 N 690.273 -0.685099 -1.4193 0
M  V30 6947 C 691.22 -0.0131869 -2.30796 0
M  V30 6948 C 692.19 0.782129 -1.46533 0
M  V30 6949 O 693.375 0.75229 -1.75343 0
M  V30 6950 C 690.515 0.924768 -3.32479 0
M  V30 6951 C 689.628 0.122181 -4.31827 0
M  V30 6952 C 688.763 1.05682 -5.20581 0
M  V30 6953 C 687.802 0.246526 -6.11603 0
M  V30 6954 N 686.939 1.13442 -6.92875 0
M  V30 6955 H 691.779 -0.776789 -2.87698 0
M  V30 6956 H 689.316 -0.394791 -1.41703 0
M  V30 6957 H 691.274 1.48251 -3.89971 0
M  V30 6958 H 689.904 1.65488 -2.77152 0
M  V30 6959 H 688.956 -0.552335 -3.76369 0
M  V30 6960 H 690.268 -0.506473 -4.96222 0
M  V30 6961 H 689.422 1.68415 -5.82856 0
M  V30 6962 H 688.161 1.71935 -4.56388 0
M  V30 6963 H 687.166 -0.393944 -5.48387 0
M  V30 6964 H 688.391 -0.412053 -6.77849 0
M  V30 6965 H 686.337 1.78316 -6.313 0
M  V30 6966 H 686.254 0.561089 -7.53915 0
M  V30 6967 H 687.522 1.74889 -7.59628 0
M  V30 6968 N 691.751 1.51645 -0.429126 0
M  V30 6969 C 692.681 2.30434 0.377148 0
M  V30 6970 C 693.662 1.35493 1.02838 0
M  V30 6971 O 694.847 1.6441 1.03359 0
M  V30 6972 C 691.977 3.14038 1.48315 0
M  V30 6973 C 690.931 4.1719 0.955855 0
M  V30 6974 C 690.257 4.89263 2.15698 0
M  V30 6975 C 691.557 5.223 -0.00402136 0
M  V30 6976 H 693.251 2.98085 -0.280336 0
M  V30 6977 H 690.797 1.43354 -0.136265 0
M  V30 6978 H 692.75 3.67933 2.05435 0
M  V30 6979 H 691.474 2.44193 2.16881 0
M  V30 6980 H 690.133 3.64335 0.406929 0
M  V30 6981 H 689.781 4.15929 2.82864 0
M  V30 6982 H 689.481 5.59009 1.81059 0
M  V30 6983 H 691.005 5.45978 2.73387 0
M  V30 6984 H 692.419 5.71315 0.476607 0
M  V30 6985 H 690.816 5.99525 -0.26258 0
M  V30 6986 H 691.886 4.75638 -0.943236 0
M  V30 6987 N 693.229 0.160201 1.56784 0
M  V30 6988 C 694.192 -0.760405 2.16219 0
M  V30 6989 C 695.192 -1.16595 1.10735 0
M  V30 6990 O 696.382 -1.08472 1.36306 0
M  V30 6991 C 693.514 -2.03358 2.73603 0
M  V30 6992 H 694.707 -0.243173 2.98912 0
M  V30 6993 H 692.26 -0.0893139 1.56045 0
M  V30 6994 H 692.995 -2.59416 1.94612 0
M  V30 6995 H 692.78 -1.75186 3.50788 0
M  V30 6996 H 694.27 -2.69081 3.19351 0
M  V30 6997 N 694.707 -1.5719 -0.113559 0
M  V30 6998 C 695.937 -1.89053 -0.833212 0
M  V30 6999 C 696.345 -0.750139 -1.73694 0
M  V30 7000 O 695.688 0.287808 -1.81431 0
M  V30 7001 C 695.75 -3.15986 -1.71443 0
M  V30 7002 C 695.414 -4.46271 -0.984449 0
M  V30 7003 C 696.411 -5.18897 -0.322741 0
M  V30 7004 C 694.096 -4.92963 -0.964011 0
M  V30 7005 C 696.09 -6.3644 0.349646 0
M  V30 7006 C 693.777 -6.10422 -0.287828 0
M  V30 7007 C 694.775 -6.82009 0.36784 0
M  V30 7008 O 694.463 -7.97233 1.03322 0
M  V30 7009 H 694.195 -0.630225 -0.244526 0
M  V30 7010 H 696.749 -2.05152 -0.100847 0
M  V30 7011 H 694.979 -2.95984 -2.48858 0
M  V30 7012 H 696.668 -3.33826 -2.309 0
M  V30 7013 H 697.434 -4.83875 -0.330114 0
M  V30 7014 H 693.313 -4.37143 -1.46379 0
M  V30 7015 H 696.857 -6.92254 0.861996 0
M  V30 7016 H 692.754 -6.449 -0.278237 0
M  V30 7017 H 693.522 -8.13105 0.938247 0
M  V30 7018 N 696.185 0.383891 -1.52853 0
M  V30 7019 C 697.431 1.12667 -1.69345 0
M  V30 7020 C 697.786 1.87519 -0.430635 0
M  V30 7021 O 697.079 1.82742 0.575846 0
M  V30 7022 C 697.273 2.12881 -2.87082 0
M  V30 7023 C 697.102 1.47873 -4.24692 0
M  V30 7024 C 695.872 1.24064 -4.89833 0
M  V30 7025 C 698.07 0.926118 -5.05893 0
M  V30 7026 N 696.052 0.552138 -6.11412 0
M  V30 7027 C 697.423 0.365966 -6.18919 0
M  V30 7028 C 699.478 0.823023 -4.91051 0
M  V30 7029 C 698.181 -0.287204 -7.18726 0
M  V30 7030 C 700.207 0.183666 -5.91115 0
M  V30 7031 C 699.569 -0.365693 -7.0345 0
M  V30 7032 H 695.668 0.398064 -0.673104 0
M  V30 7033 H 698.252 0.415504 -1.90215 0
M  V30 7034 H 696.423 2.81329 -2.67784 0
M  V30 7035 H 698.155 2.79703 -2.92486 0
M  V30 7036 H 694.91 1.51701 -4.48647 0
M  V30 7037 H 695.334 0.223783 -6.7663 0
M  V30 7038 H 699.976 1.23354 -4.04405 0
M  V30 7039 H 697.694 -0.709719 -8.04977 0
M  V30 7040 H 701.28 0.105074 -5.81705 0
M  V30 7041 H 700.16 -0.85261 -7.79551 0
M  V30 7042 N 697.663 1.43903 0.642637 0
M  V30 7043 C 698.626 1.49538 1.73698 0
M  V30 7044 C 699.626 0.378776 1.56275 0
M  V30 7045 O 700.816 0.64095 1.6198 0
M  V30 7046 C 697.948 1.35821 3.12675 0
M  V30 7047 H 699.141 2.47008 1.70079 0
M  V30 7048 H 696.694 1.30824 0.85526 0
M  V30 7049 H 697.429 0.393994 3.21898 0
M  V30 7050 H 697.214 2.16776 3.26727 0
M  V30 7051 H 698.704 1.4272 3.92455 0
M  V30 7052 N 699.141 -0.881989 1.30609 0
M  V30 7053 C 700.389 -1.63082 1.19368 0
M  V30 7054 C 700.71 -1.93376 -0.251147 0
M  V30 7055 O 699.98 -1.5723 -1.16857 0
M  V30 7056 H 698.56 -0.604542 0.438791 0
M  V30 7057 H 701.222 -1.05658 1.63776 0
M  V30 7058 H 700.318 -2.57966 1.7567 0
M  V30 7059 N 700.619 -1.13374 -1.09472 0
M  V30 7060 C 701.867 -0.893422 -1.8128 0
M  V30 7061 C 702.188 0.582029 -1.86111 0
M  V30 7062 O 701.458 1.42305 -1.34633 0
M  V30 7063 H 700.038 -0.327543 -0.67136 0
M  V30 7064 H 702.7 -1.43018 -1.32408 0
M  V30 7065 H 701.796 -1.28374 -2.84476 0
M  V30 7066 N 702.098 1.27442 -0.927168 0
M  V30 7067 C 703.046 2.28844 -0.416333 0
M  V30 7068 C 704.04 1.61882 0.499057 0
M  V30 7069 O 705.246 1.75969 0.378817 0
M  V30 7070 H 701.621 0.742989 -0.116065 0
M  V30 7071 H 703.592 2.69344 -1.28438 0
M  V30 7072 C 702.341 3.4626 0.316107 0
M  V30 7073 H 701.664 3.97999 -0.379082 0
M  V30 7074 H 703.104 4.19173 0.637975 0
M  V30 7075 C 701.563 3.00211 1.5289 0
M  V30 7076 O 702.093 3.03837 2.62766 0
M  V30 7077 N 700.299 2.55713 1.38054 0
M  V30 7078 H 699.846 2.52962 0.4866 0
M  V30 7079 H 699.804 2.25264 2.19325 0
M  V30 7080 N 703.576 0.692616 1.41565 0
M  V30 7081 C 704.987 0.297478 1.84315 0
M  V30 7082 C 705.338 -1.16379 1.57957 0
M  V30 7083 O 704.463 -1.89303 1.0485 0
M  V30 7084 C 705.058 0.533136 3.34579 0
M  V30 7085 C 703.617 0.191944 3.7591 0
M  V30 7086 C 702.764 0.816873 2.64995 0
M  V30 7087 H 705.715 0.893488 1.31158 0
M  V30 7088 H 705.736 -0.209105 3.79925 0
M  V30 7089 H 705.248 1.59674 3.53731 0
M  V30 7090 H 703.349 -0.867512 3.6236 0
M  V30 7091 H 703.462 0.644902 4.7474 0
M  V30 7092 H 701.826 0.246715 2.53502 0
M  V30 7093 H 702.609 1.88429 2.86966 0
M  V30 7094 N 705.054 -1.51416 0.437162 0
M  V30 7095 C 706.301 -2.02086 -0.129364 0
M  V30 7096 C 706.629 -1.32133 -1.42728 0
M  V30 7097 O 705.884 -0.424916 -1.91031 0
M  V30 7098 C 706.183 -3.55203 -0.39564 0
M  V30 7099 C 705.849 -4.43447 0.81644 0
M  V30 7100 C 704.511 -4.67285 1.14884 0
M  V30 7101 C 706.863 -4.95219 1.62503 0
M  V30 7102 C 704.191 -5.40141 2.29052 0
M  V30 7103 C 706.543 -5.69327 2.7577 0
M  V30 7104 C 705.207 -5.91429 3.09464 0
M  V30 7105 H 704.477 -0.739486 -0.0473375 0
M  V30 7106 H 707.124 -1.82368 0.584321 0
M  V30 7107 H 705.429 -3.73252 -1.19121 0
M  V30 7108 H 707.126 -3.91944 -0.847399 0
M  V30 7109 H 703.716 -4.2509 0.547422 0
M  V30 7110 H 707.9 -4.76686 1.38144 0
M  V30 7111 H 703.156 -5.55468 2.55471 0
M  V30 7112 H 707.33 -6.08433 3.38795 0
M  V30 7113 H 704.957 -6.47662 3.98042 0
M  V30 7114 N 706.532 -0.168513 -1.56696 0
M  V30 7115 C 707.495 0.748928 -2.16619 0
M  V30 7116 C 708.495 1.16007 -1.11351 0
M  V30 7117 O 709.685 1.07748 -1.3688 0
M  V30 7118 C 706.817 2.01904 -2.74677 0
M  V30 7119 H 708.01 0.227317 -2.99037 0
M  V30 7120 H 705.563 0.0810372 -1.5609 0
M  V30 7121 H 706.298 2.58381 -1.95985 0
M  V30 7122 H 706.083 1.73323 -3.51712 0
M  V30 7123 H 707.573 2.67383 -3.20774 0
M  V30 7124 N 708.01 1.57248 0.105221 0
M  V30 7125 C 708.96 1.9777 1.1345 0
M  V30 7126 C 709.944 0.854654 1.36325 0
M  V30 7127 O 711.136 1.11844 1.37186 0
M  V30 7128 C 708.265 2.39717 2.45745 0
M  V30 7129 C 707.351 3.58686 2.26286 0
M  V30 7130 N 707.742 4.73942 1.76671 0
M  V30 7131 C 706.04 3.64586 2.56891 0
M  V30 7132 C 706.741 5.55923 1.71245 0
M  V30 7133 N 705.717 4.98803 2.16093 0
M  V30 7134 H 709.519 2.84336 0.743664 0
M  V30 7135 H 707.033 1.59359 0.312787 0
M  V30 7136 H 709.03 2.66971 3.20206 0
M  V30 7137 H 707.69 1.54523 2.85574 0
M  V30 7138 H 708.701 4.9689 1.46016 0
M  V30 7139 H 705.378 2.90031 3.00314 0
M  V30 7140 H 706.768 6.58398 1.34022 0
M  V30 7141 N 709.488 -0.375779 1.53054 0
M  V30 7142 C 710.438 -1.45965 1.75152 0
M  V30 7143 C 711.422 -1.49059 0.605823 0
M  V30 7144 O 712.614 -1.54472 0.864133 0
M  V30 7145 C 709.743 -2.83524 1.93569 0
M  V30 7146 C 708.829 -2.84949 3.1411 0
M  V30 7147 N 709.22 -2.56029 4.36214 0
M  V30 7148 C 707.518 -3.16113 3.14625 0
M  V30 7149 C 708.219 -2.64873 5.17897 0
M  V30 7150 N 707.195 -2.99159 4.53878 0
M  V30 7151 H 710.997 -1.22454 2.67175 0
M  V30 7152 H 708.511 -0.583867 1.51541 0
M  V30 7153 H 710.508 -3.61578 2.07525 0
M  V30 7154 H 709.168 -3.08008 1.02768 0
M  V30 7155 H 710.179 -2.29808 4.64121 0
M  V30 7156 H 706.856 -3.45977 2.3368 0
M  V30 7157 H 708.246 -2.45947 6.25268 0
M  V30 7158 N 710.966 -1.44241 -0.634997 0
M  V30 7159 C 711.898 -1.46793 -1.76024 0
M  V30 7160 C 712.911 -0.361781 -1.58729 0
M  V30 7161 O 714.1 -0.627297 -1.67114 0
M  V30 7162 C 711.2 -1.28248 -3.13697 0
M  V30 7163 C 710.373 -2.52038 -3.57485 0
M  V30 7164 C 709.432 -2.2845 -4.74022 0
M  V30 7165 O 708.458 -3.01915 -4.82531 0
M  V30 7166 N 709.66 -1.31264 -5.65464 0
M  V30 7167 H 712.425 -2.43797 -1.74307 0
M  V30 7168 H 709.986 -1.39631 -0.819438 0
M  V30 7169 H 711.978 -1.10321 -3.89373 0
M  V30 7170 H 710.548 -0.39623 -3.10079 0
M  V30 7171 H 709.768 -2.85268 -2.72059 0
M  V30 7172 H 711.056 -3.34382 -3.83492 0
M  V30 7173 H 710.454 -0.705817 -5.6128 0
M  V30 7174 H 709.011 -1.19316 -6.40786 0
M  V30 7175 N 712.444 0.87505 -1.31075 0
M  V30 7176 C 713.721 1.60976 -1.11113 0
M  V30 7177 C 714.101 2.08409 0.336006 0
M  V30 7178 O 713.449 1.85858 1.32924 0
M  V30 7179 C 713.659 2.77166 -2.12085 0
M  V30 7180 C 715.007 3.47254 -2.44335 0
M  V30 7181 O 716.031 2.87367 -2.10472 0
M  V30 7182 O 714.89 4.55276 -3.02301 0
M  V30 7183 H 711.984 0.707982 -0.427424 0
M  V30 7184 H 714.53 0.920957 -1.42536 0
M  V30 7185 H 713.302 2.39494 -3.09449 0
M  V30 7186 H 712.925 3.53737 -1.81538 0
M  V30 7187 N 713.922 1.13953 1.08869 0
M  V30 7188 C 715.338 0.878924 1.33218 0
M  V30 7189 C 715.538 -0.482478 1.95638 0
M  V30 7190 O 714.594 -1.22778 2.2064 0
M  V30 7191 C 715.907 2.00798 2.23832 0
M  V30 7192 C 717.455 2.04073 2.37325 0
M  V30 7193 C 717.93 3.16258 3.31278 0
M  V30 7194 N 719.421 3.15805 3.38853 0
M  V30 7195 C 720.156 3.99249 4.11567 0
M  V30 7196 N 719.652 4.92721 4.87029 0
M  V30 7197 N 721.445 3.87327 4.0735 0
M  V30 7198 H 713.596 2.01645 0.66731 0
M  V30 7199 H 715.859 0.878395 0.356547 0
M  V30 7200 H 715.565 2.98986 1.85203 0
M  V30 7201 H 715.439 1.92704 3.24261 0
M  V30 7202 H 717.826 1.06495 2.75214 0
M  V30 7203 H 717.907 2.16239 1.36654 0
M  V30 7204 H 717.551 4.14079 2.9411 0
M  V30 7205 H 717.481 3.0133 4.31866 0
M  V30 7206 H 719.972 2.48102 2.8505 0
M  V30 7207 H 720.285 5.52867 5.39961 0
M  V30 7208 H 718.63 4.96723 4.86098 0
M  V30 7209 H 721.821 3.13627 3.475 0
M  V30 7210 H 721.994 4.52585 4.63757 0
M  V30 7211 N 715.4 -1.26948 0.933913 0
M  V30 7212 C 716.348 -2.2862 0.428463 0
M  V30 7213 C 717.342 -1.62144 -0.490464 0
M  V30 7214 O 718.548 -1.76167 -0.36948 0
M  V30 7215 H 714.923 -0.742363 0.120003 0
M  V30 7216 H 716.894 -2.68659 1.29865 0
M  V30 7217 C 715.643 -3.46423 -0.29774 0
M  V30 7218 H 714.966 -3.97792 0.400183 0
M  V30 7219 H 716.406 -4.19505 -0.615736 0
M  V30 7220 C 714.865 -3.01017 -1.51295 0
M  V30 7221 O 715.395 -3.05226 -2.61151 0
M  V30 7222 N 713.601 -2.56442 -1.36696 0
M  V30 7223 H 713.148 -2.53217 -0.473178 0
M  V30 7224 H 713.106 -2.26424 -2.18127 0
M  V30 7225 N 716.879 -0.700114 -1.41195 0
M  V30 7226 C 718.295 -0.372114 -1.55201 0
M  V30 7227 C 718.495 1.12053 -1.6747 0
M  V30 7228 O 717.551 1.90642 -1.65566 0
M  V30 7229 C 718.864 -1.12462 -2.78878 0
M  V30 7230 C 720.412 -1.10941 -2.92679 0
M  V30 7231 C 720.887 -1.84376 -4.19249 0
M  V30 7232 N 722.378 -1.81368 -4.26216 0
M  V30 7233 C 723.113 -2.35024 -5.23021 0
M  V30 7234 N 722.609 -2.9717 -6.25829 0
M  V30 7235 N 724.402 -2.25254 -5.14992 0
M  V30 7236 H 716.553 -1.66816 -1.31477 0
M  V30 7237 H 718.816 -0.704223 -0.634644 0
M  V30 7238 H 718.522 -2.17937 -2.76037 0
M  V30 7239 H 718.396 -0.706152 -3.70531 0
M  V30 7240 H 720.783 -0.062911 -2.95033 0
M  V30 7241 H 720.864 -1.56698 -2.02187 0
M  V30 7242 H 720.508 -2.89008 -4.17656 0
M  V30 7243 H 720.438 -1.3605 -5.08722 0
M  V30 7244 H 722.929 -1.36062 -3.52556 0
M  V30 7245 H 723.242 -3.35668 -6.96094 0
M  V30 7246 H 721.587 -3.01249 -6.26318 0
M  V30 7247 H 724.778 -1.76372 -4.33602 0
M  V30 7248 H 724.951 -2.67373 -5.90268 0
M  V30 7249 N 718.357 1.51182 -0.445186 0
M  V30 7250 C 719.29 2.24528 0.4077 0
M  V30 7251 C 720.268 1.26778 1.01814 0
M  V30 7252 O 721.452 1.55934 1.05909 0
M  V30 7253 C 718.579 3.00171 1.56892 0
M  V30 7254 C 717.625 4.12641 1.0784 0
M  V30 7255 S 718.458 5.35498 0.014049 0
M  V30 7256 C 719.614 6.14681 1.17975 0
M  V30 7257 H 719.847 2.96522 -0.214987 0
M  V30 7258 H 717.38 1.52681 -0.229781 0
M  V30 7259 H 719.338 3.44349 2.23459 0
M  V30 7260 H 717.999 2.27752 2.16304 0
M  V30 7261 H 717.192 4.64875 1.94698 0
M  V30 7262 H 716.794 3.70765 0.490852 0
M  V30 7263 H 719.086 6.44244 2.09658 0
M  V30 7264 H 720.029 7.04659 0.697222 0
M  V30 7265 H 720.437 5.46299 1.42187 0
M  V30 7266 N 719.835 0.176821 1.56605 0
M  V30 7267 C 720.765 -0.746841 2.21234 0
M  V30 7268 C 721.746 -1.23502 1.16967 0
M  V30 7269 O 722.931 -1.28718 1.45414 0
M  V30 7270 C 720.061 -1.97407 2.8574 0
M  V30 7271 C 719.015 -1.62153 3.96094 0
M  V30 7272 C 718.341 -2.92387 4.47676 0
M  V30 7273 C 719.641 -0.845353 5.15413 0
M  V30 7274 H 721.335 -0.208116 2.98676 0
M  V30 7275 H 718.881 -0.0986594 1.43662 0
M  V30 7276 H 720.834 -2.62531 3.2963 0
M  V30 7277 H 719.558 -2.53703 2.05676 0
M  V30 7278 H 718.217 -0.993964 3.52868 0
M  V30 7279 H 717.865 -3.46734 3.64396 0
M  V30 7280 H 717.565 -2.69551 5.22127 0
M  V30 7281 H 719.089 -3.5853 4.94255 0
M  V30 7282 H 720.503 -1.39929 5.55961 0
M  V30 7283 H 718.9 -0.715814 5.95815 0
M  V30 7284 H 719.97 0.157239 4.84645 0
M  V30 7285 N 721.313 -1.57302 -0.09688 0
M  V30 7286 C 722.26 -2.01933 -1.11766 0
M  V30 7287 C 723.23 -0.895329 -1.39904 0
M  V30 7288 O 724.415 -1.16119 -1.51397 0
M  V30 7289 C 721.555 -2.44726 -2.43317 0
M  V30 7290 C 720.668 -3.70639 -2.21925 0
M  V30 7291 C 719.803 -4.02318 -3.46862 0
M  V30 7292 C 718.842 -5.21346 -3.20725 0
M  V30 7293 N 717.979 -5.48787 -4.37924 0
M  V30 7294 H 722.819 -2.88919 -0.730075 0
M  V30 7295 H 720.356 -1.42901 -0.348962 0
M  V30 7296 H 722.314 -2.6758 -3.20088 0
M  V30 7297 H 720.944 -1.60753 -2.79926 0
M  V30 7298 H 719.996 -3.55271 -1.35965 0
M  V30 7299 H 721.308 -4.57557 -1.98603 0
M  V30 7300 H 720.462 -4.25939 -4.32042 0
M  V30 7301 H 719.201 -3.13918 -3.73238 0
M  V30 7302 H 718.206 -4.97547 -2.33938 0
M  V30 7303 H 719.431 -6.11343 -2.95697 0
M  V30 7304 H 717.377 -4.63346 -4.64378 0
M  V30 7305 H 717.294 -6.30073 -4.17785 0
M  V30 7306 H 718.562 -5.76943 -5.24173 0
M  V30 7307 N 722.791 0.367657 -1.53252 0
M  V30 7308 C 723.754 1.43308 -1.78873 0
M  V30 7309 C 724.754 1.46671 -0.659115 0
M  V30 7310 O 725.944 1.47468 -0.927306 0
M  V30 7311 C 723.076 2.82442 -1.90892 0
M  V30 7312 H 724.269 1.21864 -2.74024 0
M  V30 7313 H 721.822 0.600668 -1.44297 0
M  V30 7314 H 722.557 3.09202 -0.978 0
M  V30 7315 H 722.342 2.81399 -2.73051 0
M  V30 7316 H 723.832 3.59601 -2.12314 0
M  V30 7317 N 724.269 1.44576 0.627338 0
M  V30 7318 C 725.515 1.4877 1.38705 0
M  V30 7319 C 725.87 0.119976 1.92026 0
M  V30 7320 O 725.163 -0.865341 1.70946 0
M  V30 7321 C 725.357 2.48644 2.56731 0
M  V30 7322 C 725.186 3.94994 2.14965 0
M  V30 7323 C 723.956 4.63139 2.02065 0
M  V30 7324 C 726.154 4.841 1.73643 0
M  V30 7325 N 724.136 5.94296 1.53902 0
M  V30 7326 C 725.507 6.0473 1.36753 0
M  V30 7327 C 727.562 4.71131 1.61058 0
M  V30 7328 C 726.265 7.13831 0.885353 0
M  V30 7329 C 728.291 5.8026 1.14244 0
M  V30 7330 C 727.653 7.00034 0.783067 0
M  V30 7331 H 723.752 0.599415 0.50222 0
M  V30 7332 H 726.336 1.80926 0.719285 0
M  V30 7333 H 724.507 2.18472 3.2113 0
M  V30 7334 H 726.239 2.4311 3.23542 0
M  V30 7335 H 722.994 4.18007 2.22637 0
M  V30 7336 H 723.418 6.63985 1.32108 0
M  V30 7337 H 728.06 3.78964 1.87473 0
M  V30 7338 H 725.778 8.05804 0.608716 0
M  V30 7339 H 729.364 5.72254 1.0496 0
M  V30 7340 H 728.244 7.8304 0.426381 0
M  V30 7341 N 725.747 -0.868086 1.31537 0
M  V30 7342 C 726.657 -2.00801 1.21311 0
M  V30 7343 C 727.673 -1.73518 0.129431 0
M  V30 7344 O 728.849 -1.98378 0.347588 0
M  V30 7345 C 725.914 -3.3419 0.922935 0
M  V30 7346 C 724.975 -3.74783 2.0937 0
M  V30 7347 C 724.208 -5.01807 1.81728 0
M  V30 7348 O 724.431 -5.65404 0.753313 0
M  V30 7349 O 723.365 -5.39213 2.67457 0
M  V30 7350 H 727.191 -2.12361 2.17109 0
M  V30 7351 H 724.776 -0.996684 1.11295 0
M  V30 7352 H 726.658 -4.14174 0.777033 0
M  V30 7353 H 725.333 -3.237 -0.00500301 0
M  V30 7354 H 724.24 -2.95432 2.29501 0
M  V30 7355 H 725.573 -3.89902 3.00396 0
M  V30 7356 N 727.225 -1.14528 -1.08264 0
M  V30 7357 C 728.172 -0.833556 -2.15222 0
M  V30 7358 C 729.142 0.209539 -1.64773 0
M  V30 7359 O 730.327 0.0791388 -1.90636 0
M  V30 7360 C 727.467 -0.318799 -3.43624 0
M  V30 7361 C 726.58 -1.42237 -4.07913 0
M  V30 7362 C 725.715 -0.864704 -5.24115 0
M  V30 7363 C 724.754 -1.94585 -5.80347 0
M  V30 7364 N 723.891 -1.40525 -6.87893 0
M  V30 7365 H 728.731 -1.74965 -2.41228 0
M  V30 7366 H 726.268 -0.873169 -1.18381 0
M  V30 7367 H 728.226 -0.00213088 -4.172 0
M  V30 7368 H 726.856 0.560397 -3.17898 0
M  V30 7369 H 725.908 -1.8554 -3.32083 0
M  V30 7370 H 727.22 -2.23901 -4.45724 0
M  V30 7371 H 726.374 -0.500025 -6.04636 0
M  V30 7372 H 725.113 -0.0171219 -4.87697 0
M  V30 7373 H 724.118 -2.31946 -4.98479 0
M  V30 7374 H 725.343 -2.79704 -6.18823 0
M  V30 7375 H 723.289 -0.579873 -6.53432 0
M  V30 7376 H 723.206 -2.15825 -7.24538 0
M  V30 7377 H 724.474 -1.06852 -7.72142 0
M  V30 7378 N 728.703 1.26451 -0.940633 0
M  V30 7379 C 729.633 2.28773 -0.467479 0
M  V30 7380 C 730.614 1.63218 0.478955 0
M  V30 7381 O 731.799 1.90427 0.380929 0
M  V30 7382 C 728.929 3.46259 0.268656 0
M  V30 7383 C 727.883 4.23898 -0.591171 0
M  V30 7384 C 727.209 5.33993 0.274891 0
M  V30 7385 C 728.509 4.87974 -1.86223 0
M  V30 7386 H 730.203 2.68601 -1.32265 0
M  V30 7387 H 727.749 1.29123 -0.637436 0
M  V30 7388 H 729.702 4.16951 0.610696 0
M  V30 7389 H 728.426 3.05383 1.15796 0
M  V30 7390 H 727.085 3.54969 -0.916098 0
M  V30 7391 H 726.733 4.89358 1.16353 0
M  V30 7392 H 726.433 5.86849 -0.297006 0
M  V30 7393 H 727.957 6.07523 0.612213 0
M  V30 7394 H 729.371 5.50883 -1.58747 0
M  V30 7395 H 727.768 5.50945 -2.37866 0
M  V30 7396 H 728.838 4.10945 -2.57394 0
M  V30 7397 N 730.181 0.707592 1.40822 0
M  V30 7398 C 731.091 0.0507246 2.34545 0
M  V30 7399 C 732.107 -0.752727 1.56876 0
M  V30 7400 O 733.283 -0.687524 1.89302 0
M  V30 7401 C 730.348 -0.865731 3.35717 0
M  V30 7402 C 729.409 -0.0531313 4.29267 0
M  V30 7403 C 728.642 -0.925939 5.25606 0
M  V30 7404 O 728.865 -2.16531 5.27703 0
M  V30 7405 O 727.799 -0.369194 6.00767 0
M  V30 7406 H 731.625 0.823587 2.9232 0
M  V30 7407 H 729.21 0.46801 1.4188 0
M  V30 7408 H 731.092 -1.39091 3.97783 0
M  V30 7409 H 729.767 -1.61788 2.80368 0
M  V30 7410 H 728.674 0.516931 3.70511 0
M  V30 7411 H 730.007 0.660617 4.87747 0
M  V30 7412 N 731.66 -1.50943 0.453197 0
M  V30 7413 C 732.888 -2.06628 -0.106135 0
M  V30 7414 C 733.303 -1.31901 -1.35084 0
M  V30 7415 O 732.66 -0.383074 -1.78434 0
M  V30 7416 C 732.711 -3.5914 -0.412368 0
M  V30 7417 O 732.432 -4.31047 0.782948 0
M  V30 7418 C 733.933 -4.31391 -1.02064 0
M  V30 7419 H 731.153 -0.670999 -0.000885896 0
M  V30 7420 H 733.697 -1.94331 0.63684 0
M  V30 7421 H 731.852 -3.71299 -1.10526 0
M  V30 7422 H 732.266 -5.21948 0.516736 0
M  V30 7423 H 733.74 -5.39135 -1.1848 0
M  V30 7424 H 734.217 -3.90714 -2.00598 0
M  V30 7425 H 734.823 -4.23716 -0.366664 0
M  V30 7426 N 733.138 -0.185124 -1.56509 0
M  V30 7427 C 734.385 0.456258 -1.97293 0
M  V30 7428 C 734.713 1.62314 -1.07165 0
M  V30 7429 O 733.968 1.95398 -0.108621 0
M  V30 7430 C 734.267 0.967977 -3.44042 0
M  V30 7431 C 733.933 -0.084476 -4.50821 0
M  V30 7432 C 732.595 -0.373689 -4.79747 0
M  V30 7433 C 734.947 -0.79812 -5.15053 0
M  V30 7434 C 732.275 -1.3817 -5.70198 0
M  V30 7435 C 734.627 -1.79521 -6.06593 0
M  V30 7436 C 733.291 -2.09172 -6.3388 0
M  V30 7437 H 732.561 0.166957 -0.721946 0
M  V30 7438 H 735.208 -0.279992 -1.89442 0
M  V30 7439 H 733.513 1.78231 -3.48914 0
M  V30 7440 H 735.21 1.47347 -3.72948 0
M  V30 7441 H 731.8 0.15111 -4.28334 0
M  V30 7442 H 735.984 -0.587903 -4.92806 0
M  V30 7443 H 731.24 -1.61745 -5.89617 0
M  V30 7444 H 735.414 -2.35347 -6.55427 0
M  V30 7445 H 733.041 -2.87427 -7.03768 0
M  V30 7446 N 734.616 1.57351 0.0885366 0
M  V30 7447 C 735.865 1.85604 0.789556 0
M  V30 7448 C 736.178 0.775352 1.79576 0
M  V30 7449 O 737.384 0.945206 2.54515 0
M  V30 7450 C 735.84 3.29175 1.45506 0
M  V30 7451 C 735.448 4.45331 0.488278 0
M  V30 7452 C 737.192 3.66646 2.13942 0
M  V30 7453 C 735.099 5.79937 1.15874 0
M  V30 7454 H 734.029 0.692346 0.298619 0
M  V30 7455 H 736.68 1.83451 0.0425821 0
M  V30 7456 H 735.062 3.25889 2.24972 0
M  V30 7457 H 736.236 4.59977 -0.275359 0
M  V30 7458 H 734.551 4.16301 -0.0907363 0
M  V30 7459 H 737.148 4.64498 2.6485 0
M  V30 7460 H 737.491 2.956 2.93132 0
M  V30 7461 H 738.024 3.71848 1.41328 0
M  V30 7462 H 734.763 6.54232 0.407508 0
M  V30 7463 H 734.283 5.69123 1.89364 0
M  V30 7464 H 735.962 6.24718 1.68336 0
M  V30 7465 N 736.094 -0.359525 1.53444 0
M  V30 7466 C 737.34 -1.10315 1.70172 0
M  V30 7467 C 737.673 -1.88788 0.455287 0
M  V30 7468 O 736.948 -1.86635 -0.547514 0
M  V30 7469 C 737.231 -2.05744 2.95536 0
M  V30 7470 C 737.084 -1.3084 4.3035 0
M  V30 7471 C 738.403 -3.05784 3.16518 0
M  V30 7472 H 735.522 -0.399662 0.619225 0
M  V30 7473 H 738.164 -0.383338 1.86093 0
M  V30 7474 H 736.314 -2.67125 2.82093 0
M  V30 7475 H 737.986 -0.721959 4.55615 0
M  V30 7476 H 736.229 -0.610283 4.29486 0
M  V30 7477 H 736.9 -2.00718 5.14214 0
M  V30 7478 H 739.376 -2.5451 3.29187 0
M  V30 7479 H 738.252 -3.69772 4.05659 0
M  V30 7480 H 738.513 -3.76289 2.32076 0
M  V30 7481 N 737.572 -1.44907 -0.619662 0
M  V30 7482 C 738.504 -1.48652 -1.74457 0
M  V30 7483 C 739.517 -0.378596 -1.58337 0
M  V30 7484 O 740.706 -0.644987 -1.6644 0
M  V30 7485 C 737.806 -1.31568 -3.12319 0
M  V30 7486 C 736.979 -2.55816 -3.54792 0
M  V30 7487 C 736.038 -2.33465 -4.71573 0
M  V30 7488 O 735.064 -3.07015 -4.79302 0
M  V30 7489 N 736.266 -1.37254 -5.6404 0
M  V30 7490 H 739.031 -2.45632 -1.71712 0
M  V30 7491 H 736.592 -1.40492 -0.804582 0
M  V30 7492 H 738.584 -1.14445 -3.88181 0
M  V30 7493 H 737.154 -0.429095 -3.09641 0
M  V30 7494 H 736.374 -2.88137 -2.69018 0
M  V30 7495 H 737.662 -3.38431 -3.79924 0
M  V30 7496 H 737.06 -0.765309 -5.60499 0
M  V30 7497 H 735.617 -1.26106 -6.39485 0
M  V30 7498 N 739.05 0.861098 -1.31996 0
M  V30 7499 C 740.327 1.59788 -1.12814 0
M  V30 7500 C 740.707 2.08753 0.313882 0
M  V30 7501 O 740.055 1.87258 1.30946 0
M  V30 7502 C 740.265 2.74901 -2.15012 0
M  V30 7503 C 741.613 3.44643 -2.48004 0
M  V30 7504 O 742.637 2.85119 -2.13508 0
M  V30 7505 O 741.496 4.52044 -3.07113 0
M  V30 7506 H 738.59 0.703408 -0.434909 0
M  V30 7507 H 741.136 0.905788 -1.43505 0
M  V30 7508 H 739.908 2.36198 -3.11971 0
M  V30 7509 H 739.531 3.51792 -1.85279 0
M  V30 7510 N 740.528 1.15101 1.07655 0
M  V30 7511 C 741.775 0.923974 1.80191 0
M  V30 7512 C 742.103 -0.549065 1.86589 0
M  V30 7513 O 741.358 -1.42307 1.3434 0
M  V30 7514 C 741.657 1.47954 3.25337 0
M  V30 7515 C 741.323 2.97253 3.39044 0
M  V30 7516 C 739.985 3.38012 3.42493 0
M  V30 7517 C 742.337 3.93219 3.42094 0
M  V30 7518 C 739.665 4.73384 3.4659 0
M  V30 7519 C 742.017 5.28458 3.47728 0
M  V30 7520 C 740.681 5.68717 3.49453 0
M  V30 7521 H 739.951 0.338106 0.659367 0
M  V30 7522 H 742.598 1.43594 1.26701 0
M  V30 7523 H 740.903 0.888691 3.81588 0
M  V30 7524 H 742.6 1.27972 3.80032 0
M  V30 7525 H 739.19 2.64746 3.37057 0
M  V30 7526 H 743.374 3.62805 3.38654 0
M  V30 7527 H 738.63 5.03925 3.46222 0
M  V30 7528 H 742.804 6.02618 3.49034 0
M  V30 7529 H 740.431 6.73596 3.5238 0
M  V30 7530 N 742.006 -1.2595 0.947325 0
M  V30 7531 C 742.938 -2.25336 0.41906 0
M  V30 7532 C 743.951 -1.56135 -0.461051 0
M  V30 7533 O 745.14 -1.76438 -0.270505 0
M  V30 7534 C 742.24 -3.36334 -0.416233 0
M  V30 7535 C 741.413 -4.35088 0.449162 0
M  V30 7536 C 740.472 -5.25185 -0.326716 0
M  V30 7537 O 739.498 -5.68548 0.272374 0
M  V30 7538 N 740.7 -5.57388 -1.6217 0
M  V30 7539 H 743.465 -2.71298 1.27348 0
M  V30 7540 H 741.026 -1.39781 0.81688 0
M  V30 7541 H 743.018 -3.93564 -0.942826 0
M  V30 7542 H 741.588 -2.89819 -1.17148 0
M  V30 7543 H 740.808 -3.76841 1.15692 0
M  V30 7544 H 742.096 -4.98056 1.04008 0
M  V30 7545 H 741.494 -5.2405 -2.13046 0
M  V30 7546 H 740.051 -6.17234 -2.0944 0
M  V30 7547 N 743.484 -0.715051 -1.40445 0
M  V30 7548 C 744.73 -0.263528 -2.01686 0
M  V30 7549 C 745.085 1.13052 -1.55683 0
M  V30 7550 O 744.378 1.75588 -0.766762 0
M  V30 7551 C 744.572 -0.281791 -3.56287 0
M  V30 7552 C 744.401 -1.67607 -4.17298 0
M  V30 7553 C 743.171 -2.2836 -4.50755 0
M  V30 7554 C 745.369 -2.62621 -4.42193 0
M  V30 7555 N 743.351 -3.6015 -4.97157 0
M  V30 7556 C 744.722 -3.79116 -4.90582 0
M  V30 7557 C 746.777 -2.60639 -4.24231 0
M  V30 7558 C 745.48 -4.93937 -5.22895 0
M  V30 7559 C 747.506 -3.74587 -4.57644 0
M  V30 7560 C 746.868 -4.89815 -5.06222 0
M  V30 7561 H 742.967 -0.142252 -0.768953 0
M  V30 7562 H 745.551 -0.936732 -1.70685 0
M  V30 7563 H 743.722 0.360975 -3.86719 0
M  V30 7564 H 745.454 0.186393 -4.04271 0
M  V30 7565 H 742.209 -1.80463 -4.3787 0
M  V30 7566 H 742.633 -4.27757 -5.24741 0
M  V30 7567 H 747.275 -1.72759 -3.85894 0
M  V30 7568 H 744.993 -5.82462 -5.60146 0
M  V30 7569 H 748.579 -3.74328 -4.45387 0
M  V30 7570 H 747.459 -5.76525 -5.3159 0
M  V30 7571 N 744.962 1.50701 -0.461195 0
M  V30 7572 C 746.19 2.06681 0.0951756 0
M  V30 7573 C 746.605 1.32615 1.34382 0
M  V30 7574 O 745.962 0.392531 1.78229 0
M  V30 7575 C 746.013 3.59354 0.393316 0
M  V30 7576 O 745.734 4.30626 -0.805797 0
M  V30 7577 C 747.235 4.31926 0.997744 0
M  V30 7578 H 744.455 0.670995 -0.00267259 0
M  V30 7579 H 746.999 1.93991 -0.647137 0
M  V30 7580 H 745.154 3.7188 1.08555 0
M  V30 7581 H 745.568 5.21667 -0.544409 0
M  V30 7582 H 747.042 5.39756 1.15619 0
M  V30 7583 H 747.519 3.91772 1.98523 0
M  V30 7584 H 748.125 4.23905 0.344188 0
M  V30 7585 N 746.441 0.193421 1.56409 0
M  V30 7586 C 747.404 -0.714371 2.17783 0
M  V30 7587 C 748.404 -1.1422 1.13183 0
M  V30 7588 O 749.594 -1.05557 1.38576 0
M  V30 7589 C 746.726 -1.97509 2.77855 0
M  V30 7590 H 747.919 -0.179714 2.99361 0
M  V30 7591 H 745.472 -0.0561944 1.56199 0
M  V30 7592 H 746.207 -2.5523 2.0007 0
M  V30 7593 H 745.992 -1.67706 3.54425 0
M  V30 7594 H 747.482 -2.62246 3.24987 0
M  V30 7595 N 747.919 -1.57396 -0.0801906 0
M  V30 7596 C 749.147 -1.91055 -0.794075 0
M  V30 7597 C 749.562 -0.788583 -1.71542 0
M  V30 7598 O 748.919 0.238587 -1.80934 0
M  V30 7599 C 748.97 -3.24418 -1.59484 0
M  V30 7600 O 748.691 -4.323 -0.710532 0
M  V30 7601 C 750.192 -3.72037 -2.41046 0
M  V30 7602 H 747.412 -0.63171 -0.226238 0
M  V30 7603 H 749.956 -2.04431 -0.0529685 0
M  V30 7604 H 748.111 -3.12595 -2.2883 0
M  V30 7605 H 748.525 -5.08976 -1.26663 0
M  V30 7606 H 749.999 -4.68006 -2.92702 0
M  V30 7607 H 750.476 -3.00624 -3.2019 0
M  V30 7608 H 751.082 -3.86777 -1.76871 0
M  V30 7609 N 749.397 0.351382 -1.53633 0
M  V30 7610 C 750.36 1.41403 -1.80383 0
M  V30 7611 C 751.36 1.45963 -0.674635 0
M  V30 7612 O 752.55 1.46476 -0.942895 0
M  V30 7613 C 749.682 2.80401 -1.93876 0
M  V30 7614 H 750.875 1.18951 -2.75301 0
M  V30 7615 H 748.428 0.58533 -1.44926 0
M  V30 7616 H 749.163 3.08147 -1.01074 0
M  V30 7617 H 748.948 2.78488 -2.7602 0
M  V30 7618 H 750.438 3.57329 -2.16116 0
M  V30 7619 N 750.875 1.45233 0.611969 0
M  V30 7620 C 752.291 1.29542 0.932251 0
M  V30 7621 C 752.491 0.24523 2.00002 0
M  V30 7622 O 751.547 -0.362333 2.49887 0
M  V30 7623 C 752.86 2.67301 1.37733 0
M  V30 7624 C 754.408 2.75163 1.49178 0
M  V30 7625 C 754.883 4.13437 1.97064 0
M  V30 7626 N 756.374 4.15709 2.04304 0
M  V30 7627 C 757.109 5.19566 2.42568 0
M  V30 7628 N 756.605 6.33771 2.79832 0
M  V30 7629 N 758.398 5.06923 2.42869 0
M  V30 7630 H 750.549 2.12192 -0.0938679 0
M  V30 7631 H 752.812 0.947775 0.0206569 0
M  V30 7632 H 752.518 3.45318 0.666951 0
M  V30 7633 H 752.392 2.95472 2.3447 0
M  V30 7634 H 754.779 1.97453 2.19309 0
M  V30 7635 H 754.86 2.50712 0.507674 0
M  V30 7636 H 754.504 4.91631 1.27521 0
M  V30 7637 H 754.434 4.35277 2.9638 0
M  V30 7638 H 756.925 3.33293 1.78113 0
M  V30 7639 H 757.238 7.08815 3.07898 0
M  V30 7640 H 755.583 6.37179 2.77538 0
M  V30 7641 H 758.774 4.1675 2.1316 0
M  V30 7642 H 758.947 5.87981 2.72364 0
M  V30 7643 N 752.353 -0.854086 1.3245 0
M  V30 7644 C 753.303 -1.9508 1.18016 0
M  V30 7645 C 754.287 -1.60665 0.0869417 0
M  V30 7646 O 755.479 -1.74201 0.313505 0
M  V30 7647 C 752.608 -3.3113 0.905961 0
M  V30 7648 C 751.694 -3.71763 2.04091 0
M  V30 7649 N 752.085 -3.84218 3.28953 0
M  V30 7650 C 750.383 -4.01393 1.94421 0
M  V30 7651 C 751.084 -4.192 4.03294 0
M  V30 7652 N 750.06 -4.30749 3.31596 0
M  V30 7653 H 753.862 -2.02843 2.12678 0
M  V30 7654 H 751.376 -1.04588 1.24238 0
M  V30 7655 H 753.373 -4.09471 0.783508 0
M  V30 7656 H 752.033 -3.24684 -0.0322715 0
M  V30 7657 H 753.044 -3.68524 3.63883 0
M  V30 7658 H 749.721 -4.03246 1.08162 0
M  V30 7659 H 751.111 -4.36301 5.1097 0
M  V30 7660 N 753.831 -1.1567 -1.07043 0
M  V30 7661 C 754.794 -0.858906 -2.12498 0
M  V30 7662 C 755.794 0.142735 -1.60165 0
M  V30 7663 O 756.984 -0.0872678 -1.73981 0
M  V30 7664 C 754.116 -0.283021 -3.39723 0
M  V30 7665 H 755.309 -1.79368 -2.40348 0
M  V30 7666 H 752.862 -0.964608 -1.22984 0
M  V30 7667 H 753.597 0.659796 -3.17517 0
M  V30 7668 H 753.382 -1.00467 -3.7901 0
M  V30 7669 H 754.872 -0.0923543 -4.17498 0
M  V30 7670 N 755.309 1.25446 -0.953992 0
M  V30 7671 C 756.586 1.884 -0.525823 0
M  V30 7672 C 756.966 1.86079 0.996891 0
M  V30 7673 O 756.314 1.32389 1.8624 0
M  V30 7674 C 756.524 3.31154 -1.10172 0
M  V30 7675 C 757.872 4.07926 -1.17819 0
M  V30 7676 O 758.896 3.40273 -1.05323 0
M  V30 7677 O 757.755 5.28942 -1.37415 0
M  V30 7678 H 754.849 0.808629 -0.173345 0
M  V30 7679 H 757.395 1.33522 -1.04738 0
M  V30 7680 H 756.167 3.27271 -2.14499 0
M  V30 7681 H 755.79 3.93588 -0.56338 0
M  V30 7682 N 756.787 0.722489 1.40064 0
M  V30 7683 C 758.036 0.261932 1.99992 0
M  V30 7684 C 758.349 -1.15358 1.57961 0
M  V30 7685 O 759.555 -1.71301 2.10637 0
M  V30 7686 C 758.011 0.41737 3.57472 0
M  V30 7687 C 757.619 1.83997 4.08472 0
M  V30 7688 C 759.363 0.0179561 4.24496 0
M  V30 7689 C 757.27 1.94563 5.5848 0
M  V30 7690 H 756.2 0.0941768 0.748095 0
M  V30 7691 H 758.851 0.894572 1.60218 0
M  V30 7692 H 757.233 -0.283965 3.94981 0
M  V30 7693 H 758.407 2.57224 3.82325 0
M  V30 7694 H 756.722 2.19147 3.54067 0
M  V30 7695 H 759.319 0.076085 5.34646 0
M  V30 7696 H 759.662 -1.02498 4.03485 0
M  V30 7697 H 760.195 0.669988 3.92117 0
M  V30 7698 H 756.934 2.97001 5.84355 0
M  V30 7699 H 756.454 1.25756 5.86469 0
M  V30 7700 H 758.133 1.72095 6.23692 0
M  V30 7701 N 758.265 -1.50454 0.469181 0
M  V30 7702 C 759.511 -2.02615 -0.0865971 0
M  V30 7703 C 759.844 -1.35062 -1.39542 0
M  V30 7704 O 759.119 -0.475701 -1.88593 0
M  V30 7705 C 759.402 -3.59068 -0.272385 0
M  V30 7706 C 759.255 -4.37196 1.05733 0
M  V30 7707 C 760.574 -4.2793 -1.0278 0
M  V30 7708 H 757.693 -0.736389 -0.0299977 0
M  V30 7709 H 760.335 -1.79792 0.614399 0
M  V30 7710 H 758.485 -3.78646 -0.869471 0
M  V30 7711 H 760.157 -4.29195 1.69084 0
M  V30 7712 H 758.4 -4.01013 1.65442 0
M  V30 7713 H 759.071 -5.44924 0.880997 0
M  V30 7714 H 761.547 -4.12816 -0.521718 0
M  V30 7715 H 760.423 -5.37214 -1.12659 0
M  V30 7716 H 760.684 -3.90968 -2.0639 0
M  V30 7717 N 759.743 -0.201713 -1.56304 0
M  V30 7718 C 760.673 0.71155 -2.22394 0
M  V30 7719 C 761.654 1.21625 -1.18917 0
M  V30 7720 O 762.839 1.26388 -1.47444 0
M  V30 7721 C 759.969 1.92837 -2.88845 0
M  V30 7722 C 758.923 1.55831 -3.98623 0
M  V30 7723 C 758.249 2.85228 -4.52271 0
M  V30 7724 C 759.549 0.763249 -5.16693 0
M  V30 7725 H 761.243 0.160573 -2.98969 0
M  V30 7726 H 758.789 0.0757916 -1.438 0
M  V30 7727 H 760.742 2.57253 -3.33764 0
M  V30 7728 H 759.466 2.50398 -2.09686 0
M  V30 7729 H 758.125 0.9377 -3.54405 0
M  V30 7730 H 757.773 3.40893 -3.69866 0
M  V30 7731 H 757.473 2.6121 -5.26349 0
M  V30 7732 H 758.997 3.50622 -4.99897 0
M  V30 7733 H 760.411 1.31066 -5.58117 0
M  V30 7734 H 758.808 0.620935 -5.96879 0
M  V30 7735 H 759.878 -0.234322 -4.84334 0
M  V30 7736 N 761.222 1.57436 0.0718424 0
M  V30 7737 C 762.633 1.75975 0.623678 0
M  V30 7738 C 762.984 0.827155 1.77912 0
M  V30 7739 O 762.109 0.0112425 2.16397 0
M  V30 7740 C 762.704 3.1911 1.13816 0
M  V30 7741 C 761.263 3.38994 1.63586 0
M  V30 7742 C 760.41 2.71684 0.555261 0
M  V30 7743 H 763.361 1.57948 -0.154328 0
M  V30 7744 H 763.382 3.23267 2.00696 0
M  V30 7745 H 762.894 3.86962 0.296998 0
M  V30 7746 H 760.995 2.76256 2.50027 0
M  V30 7747 H 761.108 4.47436 1.71283 0
M  V30 7748 H 759.472 2.34236 1.00029 0
M  V30 7749 H 760.255 3.42191 -0.275712 0
M  V30 7750 N 762.7 -0.34323 1.53817 0
M  V30 7751 C 763.663 -1.40444 1.8113 0
M  V30 7752 C 764.663 -1.45604 0.682366 0
M  V30 7753 O 765.853 -1.45974 0.950649 0
M  V30 7754 C 762.985 -2.79369 1.95361 0
M  V30 7755 H 764.178 -1.17489 2.75928 0
M  V30 7756 H 761.731 -0.577636 1.45234 0
M  V30 7757 H 762.466 -3.07607 1.02707 0
M  V30 7758 H 762.251 -2.7702 2.77493 0
M  V30 7759 H 763.741 -3.56178 2.18008 0
M  V30 7760 N 764.178 -1.45556 -0.604258 0
M  V30 7761 C 765.406 -1.53278 -1.38973 0
M  V30 7762 C 765.821 -0.166509 -1.88064 0
M  V30 7763 O 765.178 0.832519 -1.62405 0
M  V30 7764 C 765.229 -2.51992 -2.59195 0
M  V30 7765 O 764.95 -3.8331 -2.12143 0
M  V30 7766 C 766.451 -2.69445 -3.52015 0
M  V30 7767 H 763.671 -0.519003 -0.425297 0
M  V30 7768 H 766.215 -1.90773 -0.736621 0
M  V30 7769 H 764.37 -2.17561 -3.2054 0
M  V30 7770 H 764.784 -4.3685 -2.90279 0
M  V30 7771 H 766.258 -3.42485 -4.32907 0
M  V30 7772 H 766.735 -1.75596 -4.0257 0
M  V30 7773 H 767.341 -3.04886 -2.9652 0
M  V30 7774 N 765.656 0.84705 -1.32902 0
M  V30 7775 C 766.884 1.63403 -1.26913 0
M  V30 7776 C 767.299 1.88108 0.161483 0
M  V30 7777 O 766.656 1.45546 1.10103 0
M  V30 7778 C 766.707 2.98896 -2.03331 0
M  V30 7779 O 766.428 2.75281 -3.40811 0
M  V30 7780 C 767.929 3.93335 -2.04457 0
M  V30 7781 H 765.149 0.508701 -0.437566 0
M  V30 7782 H 767.693 1.05567 -1.75145 0
M  V30 7783 H 765.848 3.53356 -1.58802 0
M  V30 7784 H 766.262 3.61504 -3.8002 0
M  V30 7785 H 767.736 4.85647 -2.62394 0
M  V30 7786 H 768.213 4.26885 -1.03274 0
M  V30 7787 H 768.819 3.44812 -2.48967 0
M  V30 7788 N 767.134 1.16236 1.06428 0
M  V30 7789 C 768.359 0.967688 1.83441 0
M  V30 7790 C 768.784 -0.479167 1.81894 0
M  V30 7791 O 768.142 -1.34224 1.21875 0
M  V30 7792 C 768.19 1.49806 3.2801 0
M  V30 7793 O 767.294 0.703481 4.06356 0
M  V30 7794 H 766.635 0.344468 0.56766 0
M  V30 7795 H 769.165 1.54442 1.34197 0
M  V30 7796 H 769.175 1.51495 3.78831 0
M  V30 7797 H 767.85 2.55133 3.2845 0
M  V30 7798 H 766.427 0.756986 3.65136 0
M  V30 7799 N 768.612 -1.24939 0.960631 0
M  V30 7800 C 769.842 -1.96595 0.635123 0
M  V30 7801 C 770.25 -1.71538 -0.798206 0
M  V30 7802 O 769.593 -0.991727 -1.5463 0
M  V30 7803 C 769.655 -3.49994 0.821248 0
M  V30 7804 C 769.319 -3.98738 2.23287 0
M  V30 7805 C 770.316 -4.08965 3.21004 0
M  V30 7806 C 768.001 -4.32247 2.55867 0
M  V30 7807 C 769.995 -4.52025 4.49391 0
M  V30 7808 C 767.682 -4.74991 3.84482 0
M  V30 7809 C 768.68 -4.84844 4.81056 0
M  V30 7810 O 768.368 -5.26638 6.07378 0
M  V30 7811 H 768.1 -0.633265 0.23654 0
M  V30 7812 H 770.654 -1.5991 1.28911 0
M  V30 7813 H 768.884 -3.86543 0.110105 0
M  V30 7814 H 770.573 -4.02859 0.495892 0
M  V30 7815 H 771.339 -3.83302 2.97161 0
M  V30 7816 H 767.218 -4.23801 1.81421 0
M  V30 7817 H 770.762 -4.5963 5.24773 0
M  V30 7818 H 766.659 -5.00101 4.08129 0
M  V30 7819 H 767.427 -5.44807 6.10842 0
M  V30 7820 N 770.09 -0.729906 -1.39679 0
M  V30 7821 C 771 -0.0880322 -2.34435 0
M  V30 7822 C 772.016 0.727674 -1.58053 0
M  V30 7823 O 773.192 0.657321 -1.90371 0
M  V30 7824 C 770.257 0.812211 -3.37052 0
M  V30 7825 C 769.318 -0.0151681 -4.29297 0
M  V30 7826 C 768.551 0.842202 -5.27013 0
M  V30 7827 O 768.774 2.08108 -5.31081 0
M  V30 7828 O 767.708 0.27357 -6.01278 0
M  V30 7829 H 771.534 -0.869989 -2.90972 0
M  V30 7830 H 769.119 -0.490522 -1.41118 0
M  V30 7831 H 771.001 1.32745 -3.99946 0
M  V30 7832 H 769.676 1.57307 -2.82907 0
M  V30 7833 H 768.583 -0.575811 -3.69642 0
M  V30 7834 H 769.916 -0.738129 -4.86634 0
M  V30 7835 N 771.568 1.50203 -0.477153 0
M  V30 7836 C 772.984 1.59056 -0.131663 0
M  V30 7837 C 773.184 1.48473 1.36227 0
M  V30 7838 O 772.24 1.34635 2.13611 0
M  V30 7839 C 773.553 2.92741 -0.687254 0
M  V30 7840 C 775.101 3.0615 -0.651223 0
M  V30 7841 C 775.576 4.42419 -1.18446 0
M  V30 7842 N 777.067 4.48847 -1.14413 0
M  V30 7843 C 777.802 5.52689 -1.52717 0
M  V30 7844 N 777.298 6.63754 -1.98499 0
M  V30 7845 N 779.091 5.43267 -1.44282 0
M  V30 7846 H 771.242 1.55325 -1.44872 0
M  V30 7847 H 773.505 0.734395 -0.599473 0
M  V30 7848 H 773.211 3.0598 -1.73405 0
M  V30 7849 H 773.085 3.76961 -0.134215 0
M  V30 7850 H 775.472 2.92556 0.386677 0
M  V30 7851 H 775.553 2.23673 -1.24114 0
M  V30 7852 H 775.197 4.56763 -2.22103 0
M  V30 7853 H 775.127 5.23498 -0.570709 0
M  V30 7854 H 777.618 3.69152 -0.808416 0
M  V30 7855 H 777.931 7.39059 -2.25859 0
M  V30 7856 H 776.276 6.64858 -2.02456 0
M  V30 7857 H 779.467 4.55387 -1.08352 0
M  V30 7858 H 779.64 6.24074 -1.74459 0
M  V30 7859 N 773.046 0.209999 1.56195 0
M  V30 7860 C 773.994 -0.721416 2.2113 0
M  V30 7861 C 774.988 -1.20852 1.18706 0
M  V30 7862 O 776.194 -1.16968 1.36815 0
M  V30 7863 H 772.569 -0.251033 0.708863 0
M  V30 7864 H 774.54 -0.150193 2.98022 0
M  V30 7865 C 773.289 -1.92392 2.89621 0
M  V30 7866 H 772.612 -1.5582 3.68185 0
M  V30 7867 H 774.052 -2.55367 3.38473 0
M  V30 7868 C 772.511 -2.77208 1.91461 0
M  V30 7869 O 773.041 -3.75603 1.42426 0
M  V30 7870 N 771.247 -2.43006 1.59363 0
M  V30 7871 H 770.794 -1.63047 1.99433 0
M  V30 7872 H 770.752 -3.00036 0.939449 0
M  V30 7873 N 774.524 -1.57472 -0.0634922 0
M  V30 7874 C 775.801 -1.78736 -0.794538 0
M  V30 7875 C 776.181 -0.799645 -1.95369 0
M  V30 7876 O 775.529 0.165521 -2.279 0
M  V30 7877 C 775.739 -3.25471 -1.25975 0
M  V30 7878 C 777.087 -3.89528 -1.68976 0
M  V30 7879 O 778.111 -3.29412 -1.35521 0
M  V30 7880 O 776.97 -4.95305 -2.30944 0
M  V30 7881 H 774.064 -0.733813 -0.381376 0
M  V30 7882 H 776.61 -1.69646 -0.0429258 0
M  V30 7883 H 775.382 -3.88922 -0.430721 0
M  V30 7884 H 775.005 -3.39317 -2.07243 0
M  V30 7885 N 776.003 0.335068 -1.53997 0
M  V30 7886 C 777.252 1.07182 -1.70865 0
M  V30 7887 C 777.565 1.89541 -0.483078 0
M  V30 7888 O 778.771 2.66219 -0.532879 0
M  V30 7889 C 777.227 1.95497 -3.02174 0
M  V30 7890 C 776.835 1.18304 -4.32097 0
M  V30 7891 C 778.579 2.68978 -3.28407 0
M  V30 7892 C 776.486 2.05699 -5.54474 0
M  V30 7893 H 775.416 0.403857 -0.636722 0
M  V30 7894 H 778.067 0.33076 -1.80494 0
M  V30 7895 H 776.449 2.73456 -2.86423 0
M  V30 7896 H 777.623 0.451969 -4.58578 0
M  V30 7897 H 775.938 0.565556 -4.12541 0
M  V30 7898 H 778.535 3.34651 -4.17029 0
M  V30 7899 H 778.878 3.36 -2.45784 0
M  V30 7900 H 779.411 1.98087 -3.44973 0
M  V30 7901 H 776.15 1.43204 -6.39666 0
M  V30 7902 H 775.67 2.76572 -5.32229 0
M  V30 7903 H 777.349 2.64554 -5.90441 0
M  V30 7904 N 777.481 1.45874 0.596531 0
M  V30 7905 C 778.391 1.57947 1.73464 0
M  V30 7906 C 779.407 0.463461 1.67714 0
M  V30 7907 O 780.583 0.725685 1.87872 0
M  V30 7908 C 777.648 1.55348 3.09948 0
M  V30 7909 C 776.709 2.78074 3.27068 0
M  V30 7910 C 775.942 2.75589 4.57041 0
M  V30 7911 O 776.165 1.83545 5.40063 0
M  V30 7912 O 775.099 3.66945 4.77111 0
M  V30 7913 H 778.925 2.54169 1.66228 0
M  V30 7914 H 776.51 1.2851 0.76194 0
M  V30 7915 H 778.392 1.56545 3.91244 0
M  V30 7916 H 777.067 0.622811 3.17652 0
M  V30 7917 H 775.974 2.82435 2.45319 0
M  V30 7918 H 777.307 3.70303 3.24248 0
M  V30 7919 N 778.959 -0.83999 1.33349 0
M  V30 7920 C 780.184 -1.63249 1.27924 0
M  V30 7921 C 780.609 -1.87523 -0.147193 0
M  V30 7922 O 779.967 -1.43853 -1.10345 0
M  V30 7923 C 780.015 -2.96046 2.05886 0
M  V30 7924 O 779.119 -3.87303 1.4167 0
M  V30 7925 H 778.46 -0.49715 0.440157 0
M  V30 7926 H 780.99 -1.04512 1.75893 0
M  V30 7927 H 781 -3.45752 2.16609 0
M  V30 7928 H 779.675 -2.77701 3.09605 0
M  V30 7929 H 778.252 -3.45789 1.39585 0
M  V30 7930 N 780.437 -1.16799 -1.0581 0
M  V30 7931 C 781.683 -0.953935 -1.78963 0
M  V30 7932 C 782.016 0.516638 -1.87202 0
M  V30 7933 O 781.291 1.38338 -1.36721 0
M  V30 7934 C 781.574 -1.58808 -3.23191 0
M  V30 7935 C 781.427 -3.13032 -3.23003 0
M  V30 7936 C 782.746 -1.2868 -4.20867 0
M  V30 7937 H 779.865 -0.347972 -0.64968 0
M  V30 7938 H 782.507 -1.44204 -1.23715 0
M  V30 7939 H 780.657 -1.17303 -3.70368 0
M  V30 7940 H 782.329 -3.63553 -2.83949 0
M  V30 7941 H 780.572 -3.46108 -2.61518 0
M  V30 7942 H 781.243 -3.52527 -4.24769 0
M  V30 7943 H 783.719 -1.6461 -3.82155 0
M  V30 7944 H 782.595 -1.75645 -5.20038 0
M  V30 7945 H 782.856 -0.206491 -4.41618 0
M  V30 7946 N 781.915 1.24427 -0.967243 0
M  V30 7947 C 783.163 1.92107 -0.627638 0
M  V30 7948 C 783.484 1.75991 0.83978 0
M  V30 7949 O 782.754 1.13118 1.59941 0
M  V30 7950 H 781.334 0.710986 -0.229145 0
M  V30 7951 H 783.996 1.51331 -1.22821 0
M  V30 7952 H 783.092 2.99791 -0.867844 0
M  V30 7953 N 783.393 0.737304 1.3929 0
M  V30 7954 C 784.67 0.212464 1.94443 0
M  V30 7955 C 785.05 -1.28621 1.67391 0
M  V30 7956 O 784.398 -2.0529 1.00342 0
M  V30 7957 C 784.608 0.548565 3.44662 0
M  V30 7958 C 785.956 0.499177 4.21656 0
M  V30 7959 O 786.98 0.485892 3.5287 0
M  V30 7960 O 785.839 0.495739 5.44247 0
M  V30 7961 H 782.933 0.0395457 0.826054 0
M  V30 7962 H 785.479 0.816319 1.48776 0
M  V30 7963 H 784.251 1.58426 3.57795 0
M  V30 7964 H 783.874 -0.0841399 3.97511 0
M  V30 7965 N 784.871 -1.49948 0.485112 0
M  V30 7966 C 786.101 -2.06506 -0.0621921 0
M  V30 7967 C 786.509 -1.34756 -1.32806 0
M  V30 7968 O 785.852 -0.41466 -1.78959 0
M  V30 7969 C 785.914 -3.57243 -0.402182 0
M  V30 7970 C 785.578 -4.50574 0.763671 0
M  V30 7971 C 786.575 -4.93032 1.6497 0
M  V30 7972 C 784.26 -4.9308 0.957973 0
M  V30 7973 C 786.254 -5.76718 2.71432 0
M  V30 7974 C 783.941 -5.76546 2.0258 0
M  V30 7975 C 784.939 -6.18267 2.90232 0
M  V30 7976 O 784.627 -7.00066 3.95174 0
M  V30 7977 H 784.359 -0.675925 0.0100672 0
M  V30 7978 H 786.913 -1.93922 0.677023 0
M  V30 7979 H 785.143 -3.6778 -1.19478 0
M  V30 7980 H 786.832 -3.96107 -0.886219 0
M  V30 7981 H 787.598 -4.60851 1.51134 0
M  V30 7982 H 783.477 -4.60117 0.285144 0
M  V30 7983 H 787.021 -6.09203 3.39878 0
M  V30 7984 H 782.918 -6.0814 2.16417 0
M  V30 7985 H 783.686 -7.18343 3.92333 0
M  V30 7986 N 786.349 -0.21828 -1.56081 0
M  V30 7987 C 787.574 0.422302 -2.03055 0
M  V30 7988 C 787.999 1.5279 -1.09713 0
M  V30 7989 O 787.357 1.81102 -0.0847187 0
M  V30 7990 C 787.405 0.934177 -3.48289 0
M  V30 7991 O 786.509 2.04574 -3.58083 0
M  V30 7992 H 785.85 0.0959764 -0.657027 0
M  V30 7993 H 788.38 -0.335958 -2.01823 0
M  V30 7994 H 788.39 1.24484 -3.88546 0
M  V30 7995 H 787.065 0.124963 -4.15712 0
M  V30 7996 H 785.642 1.74196 -3.29712 0
M  V30 7997 N 787.827 1.57504 0.0551401 0
M  V30 7998 C 788.775 2.05884 1.08233 0
M  V30 7999 C 789.769 0.967383 1.39061 0
M  V30 8000 O 790.975 1.15242 1.38273 0
M  V30 8001 H 787.35 0.656673 0.366449 0
M  V30 8002 H 789.321 2.91273 0.648269 0
M  V30 8003 C 788.07 2.53221 2.38273 0
M  V30 8004 H 787.393 3.36809 2.15406 0
M  V30 8005 H 788.833 2.9081 3.08554 0
M  V30 8006 C 787.292 1.42218 3.05411 0
M  V30 8007 O 787.822 0.773638 3.9418 0
M  V30 8008 N 786.028 1.16316 2.66306 0
M  V30 8009 H 785.575 1.69237 1.94207 0
M  V30 8010 H 785.533 0.422534 3.11548 0
M  V30 8011 N 789.305 -0.326896 1.54172 0
M  V30 8012 C 790.721 -0.671034 1.44808 0
M  V30 8013 C 790.921 -1.91781 0.618258 0
M  V30 8014 O 789.977 -2.52235 0.115751 0
M  V30 8015 C 791.29 -0.848147 2.88491 0
M  V30 8016 C 792.838 -0.945702 2.98371 0
M  V30 8017 C 793.313 -1.15501 4.43197 0
M  V30 8018 N 794.804 -1.22183 4.46795 0
M  V30 8019 C 795.539 -1.4016 5.56006 0
M  V30 8020 N 795.035 -1.55202 6.75192 0
M  V30 8021 N 796.828 -1.42841 5.43648 0
M  V30 8022 H 788.979 0.49262 2.06608 0
M  V30 8023 H 791.242 0.158574 0.934643 0
M  V30 8024 H 790.948 -0.00329969 3.517 0
M  V30 8025 H 790.822 -1.74497 3.34411 0
M  V30 8026 H 793.209 -1.78106 2.35292 0
M  V30 8027 H 793.29 -0.0254215 2.55787 0
M  V30 8028 H 792.934 -0.324521 5.06862 0
M  V30 8029 H 792.864 -2.08911 4.83388 0
M  V30 8030 H 795.355 -1.12016 3.60917 0
M  V30 8031 H 795.668 -1.68601 7.54184 0
M  V30 8032 H 794.013 -1.52306 6.78106 0
M  V30 8033 H 797.204 -1.30683 4.49488 0
M  V30 8034 H 797.377 -1.56509 6.28816 0
M  V30 8035 N 790.784 -1.46188 -0.588786 0
M  V30 8036 C 791.747 -1.55882 -1.68029 0
M  V30 8037 C 792.747 -0.436515 -1.54762 0
M  V30 8038 O 793.937 -0.700626 -1.59489 0
M  V30 8039 C 791.069 -1.47332 -3.07418 0
M  V30 8040 H 792.262 -2.5315 -1.60795 0
M  V30 8041 H 789.815 -1.33908 -0.806116 0
M  V30 8042 H 790.55 -0.513193 -3.20214 0
M  V30 8043 H 790.335 -2.28753 -3.18456 0
M  V30 8044 H 791.825 -1.57187 -3.86887 0
M  V30 8045 N 792.262 0.832906 -1.33792 0
M  V30 8046 C 793.511 1.58351 -1.24932 0
M  V30 8047 C 793.824 1.94754 0.181703 0
M  V30 8048 O 795.03 2.6865 0.392375 0
M  V30 8049 C 793.486 2.85643 -2.18943 0
M  V30 8050 C 793.094 2.56581 -3.67247 0
M  V30 8051 C 794.838 3.63667 -2.18968 0
M  V30 8052 C 792.745 3.80006 -4.53155 0
M  V30 8053 H 791.675 0.594278 -0.464058 0
M  V30 8054 H 794.326 0.91786 -1.58895 0
M  V30 8055 H 792.708 3.53781 -1.77919 0
M  V30 8056 H 793.882 1.96617 -4.16747 0
M  V30 8057 H 792.197 1.91851 -3.6957 0
M  V30 8058 H 794.794 4.55293 -2.80379 0
M  V30 8059 H 795.137 3.99039 -1.18631 0
M  V30 8060 H 795.67 3.0246 -2.58384 0
M  V30 8061 H 792.409 3.4976 -5.5439 0
M  V30 8062 H 791.929 4.39288 -4.08395 0
M  V30 8063 H 793.608 4.47523 -4.6726 0
M  V30 8064 N 793.74 1.17359 1.05189 0
M  V30 8065 C 794.67 0.91365 2.14883 0
M  V30 8066 C 795.651 -0.144365 1.69486 0
M  V30 8067 O 796.836 0.00587861 1.94199 0
M  V30 8068 C 793.966 0.426196 3.44675 0
M  V30 8069 C 792.92 1.4234 4.03638 0
M  V30 8070 C 792.246 0.793902 5.28773 0
M  V30 8071 C 793.546 2.7966 4.41121 0
M  V30 8072 H 795.24 1.831 2.36885 0
M  V30 8073 H 792.786 0.881781 1.13845 0
M  V30 8074 H 794.739 0.231767 4.20762 0
M  V30 8075 H 793.463 -0.526693 3.22325 0
M  V30 8076 H 792.122 1.60457 3.2962 0
M  V30 8077 H 791.77 -0.165824 5.02727 0
M  V30 8078 H 791.47 1.45959 5.69183 0
M  V30 8079 H 792.994 0.609747 6.07548 0
M  V30 8080 H 794.408 2.6526 5.08242 0
M  V30 8081 H 792.805 3.42807 4.92548 0
M  V30 8082 H 793.875 3.34068 3.51464 0
M  V30 8083 N 795.218 -1.23913 0.973828 0
M  V30 8084 C 796.181 -2.23367 0.51378 0
M  V30 8085 C 797.181 -1.55923 -0.39302 0
M  V30 8086 O 798.371 -1.73187 -0.187626 0
M  V30 8087 C 795.503 -3.39944 -0.255152 0
M  V30 8088 H 796.696 -2.65581 1.39307 0
M  V30 8089 H 794.249 -1.36632 0.759039 0
M  V30 8090 H 794.984 -3.03177 -1.15127 0
M  V30 8091 H 794.769 -3.90098 0.395673 0
M  V30 8092 H 796.259 -4.13749 -0.565842 0
M  V30 8093 N 796.696 -0.74468 -1.38897 0
M  V30 8094 C 797.629 -0.0596441 -2.28122 0
M  V30 8095 C 798.607 0.73764 -1.44906 0
M  V30 8096 O 799.791 0.718155 -1.74284 0
M  V30 8097 C 796.918 0.922533 -3.25894 0
M  V30 8098 C 795.964 0.212566 -4.2597 0
M  V30 8099 S 796.797 -1.08035 -5.24489 0
M  V30 8100 C 797.953 -0.101014 -6.25818 0
M  V30 8101 H 798.186 -0.816289 -2.85874 0
M  V30 8102 H 795.719 -0.536882 -1.44765 0
M  V30 8103 H 797.677 1.4839 -3.82741 0
M  V30 8104 H 796.338 1.65209 -2.67142 0
M  V30 8105 H 795.531 0.956106 -4.94848 0
M  V30 8106 H 795.133 -0.277029 -3.72973 0
M  V30 8107 H 797.425 0.736072 -6.7349 0
M  V30 8108 H 798.368 -0.757206 -7.0404 0
M  V30 8109 H 798.776 0.275706 -5.63826 0
M  V30 8110 N 798.174 1.49689 -0.493057 0
M  V30 8111 C 799.121 2.28976 0.28959 0
M  V30 8112 C 800.091 1.35011 0.967536 0
M  V30 8113 O 801.276 1.63964 0.975736 0
M  V30 8114 C 798.416 3.1748 1.35279 0
M  V30 8115 C 797.529 4.26496 0.687418 0
M  V30 8116 C 796.664 5.02226 1.73038 0
M  V30 8117 C 795.703 6.03089 1.04645 0
M  V30 8118 N 794.84 6.72014 2.03325 0
M  V30 8119 H 799.68 2.954 -0.392798 0
M  V30 8120 H 797.217 1.45657 -0.205554 0
M  V30 8121 H 799.175 3.67162 1.98111 0
M  V30 8122 H 797.805 2.53057 2.00405 0
M  V30 8123 H 796.857 3.80362 -0.0540001 0
M  V30 8124 H 798.169 4.98578 0.14864 0
M  V30 8125 H 797.323 5.55737 2.43395 0
M  V30 8126 H 796.062 4.29899 2.303 0
M  V30 8127 H 795.067 5.48817 0.328606 0
M  V30 8128 H 796.292 6.77398 0.480428 0
M  V30 8129 H 794.238 6.02464 2.59564 0
M  V30 8130 H 794.155 7.40046 1.54492 0
M  V30 8131 H 795.423 7.30133 2.72995 0
M  V30 8132 N 799.652 0.226554 1.55963 0
M  V30 8133 C 800.599 -0.681504 2.20509 0
M  V30 8134 C 801.569 -1.1866 1.16229 0
M  V30 8135 O 802.754 -1.24478 1.44602 0
M  V30 8136 C 799.894 -1.88183 2.89277 0
M  V30 8137 C 799.007 -1.41517 4.08163 0
M  V30 8138 C 798.142 -2.57346 4.647 0
M  V30 8139 C 797.181 -2.07441 5.75877 0
M  V30 8140 N 796.318 -3.16561 6.26685 0
M  V30 8141 H 801.158 -0.124372 2.9774 0
M  V30 8142 H 798.695 -0.0496333 1.47016 0
M  V30 8143 H 800.653 -2.58666 3.27335 0
M  V30 8144 H 799.283 -2.41177 2.14555 0
M  V30 8145 H 798.335 -0.605099 3.75557 0
M  V30 8146 H 799.647 -1.00928 4.88482 0
M  V30 8147 H 798.801 -3.35903 5.05227 0
M  V30 8148 H 797.54 -3.01227 3.83554 0
M  V30 8149 H 796.545 -1.27347 5.34848 0
M  V30 8150 H 797.77 -1.64554 6.58862 0
M  V30 8151 H 795.716 -3.59914 5.48451 0
M  V30 8152 H 795.633 -2.80239 7.02141 0
M  V30 8153 H 796.901 -3.95238 6.71868 0
M  V30 8154 N 801.13 -1.57531 -0.0467866 0
M  V30 8155 C 802.376 -1.8873 -0.742218 0
M  V30 8156 C 802.709 -0.822084 -1.75941 0
M  V30 8157 O 801.984 0.164922 -1.938 0
M  V30 8158 C 802.267 -3.30586 -1.42776 0
M  V30 8159 C 802.12 -4.47785 -0.425285 0
M  V30 8160 C 803.439 -3.71068 -2.36636 0
M  V30 8161 H 800.558 -0.686406 -0.268359 0
M  V30 8162 H 803.2 -1.89999 -0.00511341 0
M  V30 8163 H 801.35 -3.29634 -2.05605 0
M  V30 8164 H 803.022 -4.60867 0.199721 0
M  V30 8165 H 801.265 -4.33037 0.25713 0
M  V30 8166 H 801.936 -5.43884 -0.943086 0
M  V30 8167 H 804.412 -3.73273 -1.83866 0
M  V30 8168 H 803.288 -4.71165 -2.81593 0
M  V30 8169 H 803.549 -3.02355 -3.22542 0
M  V30 8170 N 802.608 0.318715 -1.54344 0
M  V30 8171 C 803.854 1.05765 -1.73037 0
M  V30 8172 C 804.187 1.87514 -0.505181 0
M  V30 8173 O 803.462 1.88021 0.497838 0
M  V30 8174 C 803.745 1.97836 -3.00887 0
M  V30 8175 C 803.598 1.19384 -4.33668 0
M  V30 8176 C 804.917 2.97285 -3.24514 0
M  V30 8177 H 802.036 0.383104 -0.629603 0
M  V30 8178 H 804.678 0.333864 -1.87044 0
M  V30 8179 H 802.828 2.59552 -2.89076 0
M  V30 8180 H 804.5 0.600906 -4.57369 0
M  V30 8181 H 802.743 0.496198 -4.30953 0
M  V30 8182 H 803.414 1.87014 -5.19355 0
M  V30 8183 H 805.89 2.45693 -3.35819 0
M  V30 8184 H 804.766 3.58887 -4.15321 0
M  V30 8185 H 805.027 3.70003 -2.41971 0
M  V30 8186 N 804.086 1.46499 0.581025 0
M  V30 8187 C 805.363 1.42372 1.34125 0
M  V30 8188 C 805.743 0.108073 2.10823 0
M  V30 8189 O 805.091 -0.910366 2.09582 0
M  V30 8190 C 805.301 2.65445 2.26583 0
M  V30 8191 C 806.649 3.11664 2.88359 0
M  V30 8192 O 807.673 2.66006 2.36896 0
M  V30 8193 O 806.532 3.90974 3.81839 0
M  V30 8194 H 803.626 0.566262 0.602724 0
M  V30 8195 H 806.172 1.58667 0.601903 0
M  V30 8196 H 804.944 3.52756 1.69348 0
M  V30 8197 H 804.567 2.51618 3.07854 0
M  V30 8198 N 805.565 -0.825799 1.34232 0
M  V30 8199 C 806.976 -1.39835 1.23706 0
M  V30 8200 C 807.327 -1.95709 -0.138649 0
M  V30 8201 O 806.452 -1.89833 -1.03886 0
M  V30 8202 C 807.047 -2.54203 2.23978 0
M  V30 8203 C 805.606 -3.07374 2.17251 0
M  V30 8204 C 804.753 -1.80232 2.10741 0
M  V30 8205 H 807.704 -0.630442 1.4564 0
M  V30 8206 H 807.725 -3.32214 1.8551 0
M  V30 8207 H 807.237 -2.13506 3.24094 0
M  V30 8208 H 805.338 -3.52583 1.20483 0
M  V30 8209 H 805.451 -3.6666 3.08379 0
M  V30 8210 H 803.815 -2.01012 1.56417 0
M  V30 8211 H 804.598 -1.41713 3.12686 0
M  V30 8212 N 807.043 -1.17915 -1.04565 0
M  V30 8213 C 807.973 -0.925033 -2.14395 0
M  V30 8214 C 808.954 0.135375 -1.6956 0
M  V30 8215 O 810.139 -0.0161774 -1.94193 0
M  V30 8216 C 807.269 -0.444469 -3.44444 0
M  V30 8217 C 806.223 -1.44478 -4.02877 0
M  V30 8218 C 805.549 -0.821933 -5.28345 0
M  V30 8219 C 806.849 -2.81995 -4.39632 0
M  V30 8220 H 808.543 -1.84354 -2.35911 0
M  V30 8221 H 806.089 -0.887806 -1.13375 0
M  V30 8222 H 808.042 -0.254078 -4.20633 0
M  V30 8223 H 806.766 0.509592 -3.226 0
M  V30 8224 H 805.425 -1.62203 -3.28764 0
M  V30 8225 H 805.073 0.139161 -5.02807 0
M  V30 8226 H 804.773 -1.48976 -5.68401 0
M  V30 8227 H 806.297 -0.641959 -6.07216 0
M  V30 8228 H 807.711 -2.67952 -5.06828 0
M  V30 8229 H 806.108 -3.45414 -4.90723 0
M  V30 8230 H 807.178 -3.35927 -3.49687 0
M  V30 8231 N 808.521 1.23394 -0.980386 0
M  V30 8232 C 809.751 1.9556 -0.666319 0
M  V30 8233 C 810.159 1.72786 0.770815 0
M  V30 8234 O 809.502 1.0162 1.53033 0
M  V30 8235 C 809.564 3.48643 -0.876825 0
M  V30 8236 C 809.228 3.95135 -2.29602 0
M  V30 8237 C 810.225 4.03806 -3.2747 0
M  V30 8238 C 807.91 4.28122 -2.62711 0
M  V30 8239 C 809.904 4.44818 -4.56526 0
M  V30 8240 C 807.591 4.68814 -3.9199 0
M  V30 8241 C 808.589 4.77129 -4.88709 0
M  V30 8242 O 808.277 5.16908 -6.15679 0
M  V30 8243 H 808.009 0.629422 -0.246585 0
M  V30 8244 H 810.563 1.57839 -1.31438 0
M  V30 8245 H 808.793 3.86319 -0.171587 0
M  V30 8246 H 810.482 4.0202 -0.55992 0
M  V30 8247 H 811.248 3.78526 -3.03222 0
M  V30 8248 H 807.127 4.20861 -1.8814 0
M  V30 8249 H 810.671 4.51223 -5.32018 0
M  V30 8250 H 806.568 4.93545 -4.16033 0
M  V30 8251 H 807.336 5.3502 -6.19432 0
M  V30 8252 N 809.999 0.752036 1.385 0
M  V30 8253 C 810.909 0.125318 2.34265 0
M  V30 8254 C 811.925 -0.702437 1.59191 0
M  V30 8255 O 813.101 -0.626951 1.91393 0
M  V30 8256 C 810.166 -0.758486 3.38301 0
M  V30 8257 C 809.227 0.0834636 4.29219 0
M  V30 8258 C 808.46 -0.758252 5.28286 0
M  V30 8259 O 808.683 -1.99632 5.34325 0
M  V30 8260 O 807.617 -0.177878 6.01637 0
M  V30 8261 H 811.443 0.91617 2.89551 0
M  V30 8262 H 809.028 0.512911 1.4032 0
M  V30 8263 H 810.91 -1.26365 4.02007 0
M  V30 8264 H 809.585 -1.52786 2.85374 0
M  V30 8265 H 808.492 0.634545 3.68679 0
M  V30 8266 H 809.825 0.815455 4.85398 0
M  V30 8267 N 811.477 -1.49425 0.500989 0
M  V30 8268 C 812.44 -2.27646 -0.266416 0
M  V30 8269 C 813.44 -1.3366 -0.893961 0
M  V30 8270 O 814.63 -1.5682 -0.758495 0
M  V30 8271 C 811.762 -3.11618 -1.38227 0
M  V30 8272 H 812.955 -2.96945 0.419973 0
M  V30 8273 H 810.508 -1.5419 0.255954 0
M  V30 8274 H 811.243 -2.46885 -2.10281 0
M  V30 8275 H 811.028 -3.80721 -0.937746 0
M  V30 8276 H 812.518 -3.70698 -1.92283 0
M  V30 8277 N 812.955 -0.234822 -1.55841 0
M  V30 8278 C 814.371 0.120295 -1.59146 0
M  V30 8279 C 814.571 1.57896 -1.25184 0
M  V30 8280 O 813.627 2.32138 -0.993393 0
M  V30 8281 C 814.94 -0.217984 -2.99909 0
M  V30 8282 C 816.488 -0.161298 -3.12584 0
M  V30 8283 C 816.963 -0.473438 -4.55546 0
M  V30 8284 N 818.454 -0.423494 -4.6126 0
M  V30 8285 C 819.189 -0.638334 -5.69836 0
M  V30 8286 N 818.685 -0.915659 -6.86722 0
M  V30 8287 N 820.478 -0.569864 -5.59204 0
M  V30 8288 H 812.629 -1.18622 -1.76189 0
M  V30 8289 H 814.892 -0.476426 -0.819587 0
M  V30 8290 H 814.598 -1.2309 -3.29457 0
M  V30 8291 H 814.472 0.460707 -3.74376 0
M  V30 8292 H 816.859 0.842274 -2.82825 0
M  V30 8293 H 816.94 -0.873661 -2.40418 0
M  V30 8294 H 816.584 -1.47451 -4.86025 0
M  V30 8295 H 816.514 0.260268 -5.25956 0
M  V30 8296 H 819.005 -0.217383 -3.77274 0
M  V30 8297 H 819.318 -1.06734 -7.65394 0
M  V30 8298 H 817.663 -0.953 -6.88435 0
M  V30 8299 H 820.854 -0.35334 -4.66765 0
M  V30 8300 H 821.027 -0.740698 -6.43753 0
M  V30 8301 N 814.433 1.57553 0.0384317 0
M  V30 8302 C 815.658 1.93485 0.746872 0
M  V30 8303 C 816.083 0.834069 1.68597 0
M  V30 8304 O 815.441 -0.210902 1.80069 0
M  V30 8305 C 815.489 3.28463 1.4881 0
M  V30 8306 O 814.593 3.20051 2.60079 0
M  V30 8307 H 813.934 0.632675 0.201539 0
M  V30 8308 H 816.464 2.046 -0.00329815 0
M  V30 8309 H 816.474 3.63132 1.86009 0
M  V30 8310 H 815.149 4.08147 0.799297 0
M  V30 8311 H 813.726 2.96998 2.25492 0
M  V30 8312 N 815.911 -0.310526 1.54511 0
M  V30 8313 C 817.188 -1.06593 1.64004 0
M  V30 8314 C 817.568 -2.05519 0.482216 0
M  V30 8315 O 816.916 -2.22455 -0.52212 0
M  V30 8316 C 817.126 -1.75627 3.01589 0
M  V30 8317 C 818.474 -2.28173 3.58081 0
M  V30 8318 O 819.498 -1.85674 3.03979 0
M  V30 8319 O 818.357 -3.06015 4.52788 0
M  V30 8320 H 815.451 -0.492109 0.664649 0
M  V30 8321 H 817.997 -0.309374 1.66856 0
M  V30 8322 H 816.769 -1.03743 3.77297 0
M  V30 8323 H 816.392 -2.58061 3.02473 0
M  V30 8324 N 817.389 -1.46805 -0.573248 0
M  V30 8325 C 818.619 -1.55965 -1.35494 0
M  V30 8326 C 819.027 -0.203038 -1.88107 0
M  V30 8327 O 818.37 0.81138 -1.6481 0
M  V30 8328 C 818.432 -2.51168 -2.57206 0
M  V30 8329 C 818.096 -3.97211 -2.25993 0
M  V30 8330 C 819.093 -4.86155 -1.84254 0
M  V30 8331 C 816.778 -4.42419 -2.37846 0
M  V30 8332 C 818.772 -6.18323 -1.54776 0
M  V30 8333 C 816.459 -5.74619 -2.0798 0
M  V30 8334 C 817.457 -6.62392 -1.66511 0
M  V30 8335 O 817.145 -7.92137 -1.37016 0
M  V30 8336 H 816.877 -0.529748 -0.419932 0
M  V30 8337 H 819.431 -1.92998 -0.702914 0
M  V30 8338 H 817.661 -2.09171 -3.25245 0
M  V30 8339 H 819.35 -2.50631 -3.19279 0
M  V30 8340 H 820.116 -4.52481 -1.74603 0
M  V30 8341 H 815.995 -3.74319 -2.69085 0
M  V30 8342 H 819.539 -6.8679 -1.22334 0
M  V30 8343 H 815.436 -6.0784 -2.17258 0
M  V30 8344 H 816.204 -8.04492 -1.50782 0
M  V30 8345 N 818.867 0.818669 -1.34668 0
M  V30 8346 C 820.144 1.56118 -1.17841 0
M  V30 8347 C 820.524 2.09646 0.24731 0
M  V30 8348 O 819.872 1.91329 1.24922 0
M  V30 8349 C 820.082 2.67922 -2.23649 0
M  V30 8350 C 821.43 3.36579 -2.58843 0
M  V30 8351 O 822.454 2.78182 -2.22471 0
M  V30 8352 O 821.313 4.42045 -3.21339 0
M  V30 8353 H 818.407 0.689216 -0.457067 0
M  V30 8354 H 820.953 0.859674 -1.46314 0
M  V30 8355 H 819.725 2.26153 -3.19328 0
M  V30 8356 H 819.348 3.45719 -1.96377 0
M  V30 8357 N 820.346 1.18468 1.03938 0
M  V30 8358 C 821.595 0.975193 1.76558 0
M  V30 8359 C 821.908 -0.495978 1.89207 0
M  V30 8360 O 823.114 -0.824009 2.58694 0
M  V30 8361 C 821.57 1.69579 3.17444 0
M  V30 8362 C 821.178 3.20636 3.12884 0
M  V30 8363 C 822.922 1.56917 3.94433 0
M  V30 8364 C 820.829 3.8533 4.48636 0
M  V30 8365 H 819.759 0.361244 0.66183 0
M  V30 8366 H 822.41 1.41854 1.16403 0
M  V30 8367 H 820.792 1.18022 3.78004 0
M  V30 8368 H 821.966 3.79228 2.61768 0
M  V30 8369 H 820.281 3.33454 2.49394 0
M  V30 8370 H 822.878 2.02611 4.94826 0
M  V30 8371 H 823.221 0.521638 4.13019 0
M  V30 8372 H 823.754 2.05762 3.40451 0
M  V30 8373 H 820.493 4.90136 4.35255 0
M  V30 8374 H 820.013 3.31526 4.99851 0
M  V30 8375 H 821.692 3.88269 5.17549 0
M  V30 8376 N 821.824 -1.22873 0.986916 0
M  V30 8377 C 823.071 -1.91462 0.659424 0
M  V30 8378 C 823.399 -1.76931 -0.807825 0
M  V30 8379 O 822.654 -1.12829 -1.59901 0
M  V30 8380 C 822.953 -3.43014 1.00379 0
M  V30 8381 C 822.619 -3.77731 2.46232 0
M  V30 8382 C 821.281 -3.86918 2.86091 0
M  V30 8383 C 823.633 -3.94343 3.40798 0
M  V30 8384 C 820.961 -4.10149 4.19518 0
M  V30 8385 C 823.313 -4.19076 4.73875 0
M  V30 8386 C 821.977 -4.26486 5.13484 0
M  V30 8387 H 821.247 -0.700611 0.2413 0
M  V30 8388 H 823.894 -1.45763 1.24199 0
M  V30 8389 H 822.199 -3.90329 0.339226 0
M  V30 8390 H 823.896 -3.94327 0.728518 0
M  V30 8391 H 820.486 -3.71159 2.14334 0
M  V30 8392 H 824.67 -3.86629 3.11178 0
M  V30 8393 H 819.926 -4.1411 4.49803 0
M  V30 8394 H 824.1 -4.30873 5.47102 0
M  V30 8395 H 821.727 -4.4424 6.16891 0
M  V30 8396 N 823.302 -0.75937 -1.38099 0
M  V30 8397 C 824.265 -0.14372 -2.28749 0
M  V30 8398 C 825.265 0.641338 -1.47457 0
M  V30 8399 O 826.455 0.466751 -1.67831 0
M  V30 8400 C 823.587 0.804545 -3.3127 0
M  V30 8401 H 824.78 -0.942663 -2.847 0
M  V30 8402 H 822.333 -0.526757 -1.47156 0
M  V30 8403 H 823.068 1.62895 -2.80421 0
M  V30 8404 H 822.853 0.243939 -3.9134 0
M  V30 8405 H 824.343 1.23111 -3.99041 0
M  V30 8406 N 824.78 1.49157 -0.508906 0
M  V30 8407 C 825.743 2.27784 0.25434 0
M  V30 8408 C 826.743 1.34132 0.88686 0
M  V30 8409 O 827.933 1.5722 0.750168 0
M  V30 8410 C 825.065 3.12347 1.36573 0
M  V30 8411 H 826.258 2.96718 -0.435714 0
M  V30 8412 H 823.811 1.54052 -0.264128 0
M  V30 8413 H 824.546 2.47997 2.08969 0
M  V30 8414 H 824.331 3.81213 0.917543 0
M  V30 8415 H 825.821 3.71712 1.90315 0
M  V30 8416 N 826.258 0.243083 1.55714 0
M  V30 8417 C 827.188 -0.652336 2.24203 0
M  V30 8418 C 828.169 -1.1843 1.221 0
M  V30 8419 O 829.354 -1.22435 1.50743 0
M  V30 8420 C 826.484 -1.85111 2.93856 0
M  V30 8421 C 825.438 -1.45208 4.02615 0
M  V30 8422 C 824.764 -2.73137 4.59674 0
M  V30 8423 C 826.064 -0.625988 5.18535 0
M  V30 8424 H 827.758 -0.0812504 2.9929 0
M  V30 8425 H 825.304 -0.0376388 1.43951 0
M  V30 8426 H 827.257 -2.48314 3.40468 0
M  V30 8427 H 825.981 -2.44751 2.16251 0
M  V30 8428 H 824.64 -0.843406 3.56766 0
M  V30 8429 H 824.288 -3.30967 3.78774 0
M  V30 8430 H 823.988 -2.47163 5.33089 0
M  V30 8431 H 825.512 -3.37245 5.09017 0
M  V30 8432 H 826.926 -1.16223 5.61396 0
M  V30 8433 H 825.323 -0.462465 5.98315 0
M  V30 8434 H 826.393 0.362652 4.83542 0
M  V30 8435 N 827.736 -1.57571 -0.0300757 0
M  V30 8436 C 828.699 -2.05468 -1.01565 0
M  V30 8437 C 829.699 -0.958628 -1.29101 0
M  V30 8438 O 830.889 -1.22228 -1.24121 0
M  V30 8439 C 828.021 -2.47077 -2.34874 0
M  V30 8440 H 829.214 -2.93797 -0.601936 0
M  V30 8441 H 826.767 -1.53828 -0.276878 0
M  V30 8442 H 827.502 -1.61901 -2.80996 0
M  V30 8443 H 827.287 -3.27097 -2.16218 0
M  V30 8444 H 828.777 -2.84564 -3.05635 0
M  V30 8445 N 829.214 0.302327 -1.54673 0
M  V30 8446 C 830.124 1.39542 -1.88587 0
M  V30 8447 C 831.14 1.55543 -0.779895 0
M  V30 8448 O 832.316 1.70233 -1.07623 0
M  V30 8449 C 829.381 2.7394 -2.12504 0
M  V30 8450 C 828.442 2.66935 -3.3622 0
M  V30 8451 C 827.675 3.94923 -3.58987 0
M  V30 8452 O 827.898 4.94218 -2.84789 0
M  V30 8453 O 826.832 3.96896 -4.52501 0
M  V30 8454 H 830.658 1.13784 -2.81579 0
M  V30 8455 H 828.243 0.49827 -1.40846 0
M  V30 8456 H 830.125 3.5346 -2.29443 0
M  V30 8457 H 828.8 2.99544 -1.22698 0
M  V30 8458 H 827.707 1.85892 -3.24646 0
M  V30 8459 H 829.04 2.46283 -4.26152 0
M  V30 8460 N 830.692 1.47107 0.565454 0
M  V30 8461 C 832.108 1.32443 0.890566 0
M  V30 8462 C 832.308 0.308735 1.99121 0
M  V30 8463 O 831.364 -0.28265 2.50913 0
M  V30 8464 C 832.677 2.71548 1.2916 0
M  V30 8465 C 834.225 2.7977 1.40349 0
M  V30 8466 C 834.7 4.19497 1.83811 0
M  V30 8467 N 836.191 4.21998 1.90975 0
M  V30 8468 C 836.926 5.2702 2.25916 0
M  V30 8469 N 836.422 6.42353 2.59527 0
M  V30 8470 N 838.215 5.14393 2.26619 0
M  V30 8471 H 830.366 2.11786 -0.161328 0
M  V30 8472 H 832.629 0.947952 -0.00950631 0
M  V30 8473 H 832.335 3.47265 0.556753 0
M  V30 8474 H 832.209 3.02782 2.24951 0
M  V30 8475 H 834.596 2.0433 2.12916 0
M  V30 8476 H 834.677 2.522 0.427655 0
M  V30 8477 H 834.321 4.95439 1.11816 0
M  V30 8478 H 834.251 4.44486 2.82382 0
M  V30 8479 H 836.742 3.38791 1.6742 0
M  V30 8480 H 837.055 7.18252 2.85191 0
M  V30 8481 H 835.4 6.45687 2.57126 0
M  V30 8482 H 838.591 4.2332 1.99794 0
M  V30 8483 H 838.764 5.96349 2.5352 0
M  V30 8484 N 832.17 -0.811516 1.35101 0
M  V30 8485 C 833.1 -1.9378 1.30275 0
M  V30 8486 C 834.081 -1.69165 0.178075 0
M  V30 8487 O 835.266 -1.90599 0.372256 0
M  V30 8488 C 832.396 -3.30439 1.06899 0
M  V30 8489 C 831.35 -3.69523 2.15955 0
M  V30 8490 C 830.676 -5.0429 1.77751 0
M  V30 8491 C 831.976 -3.80419 3.57881 0
M  V30 8492 H 833.67 -1.98075 2.24514 0
M  V30 8493 H 831.216 -0.951586 1.08078 0
M  V30 8494 H 833.169 -4.08828 1.02164 0
M  V30 8495 H 831.893 -3.26473 0.0910462 0
M  V30 8496 H 830.552 -2.93416 2.19778 0
M  V30 8497 H 830.2 -4.96823 0.785876 0
M  V30 8498 H 829.9 -5.31411 2.5075 0
M  V30 8499 H 831.424 -5.85125 1.74533 0
M  V30 8500 H 832.838 -4.49051 3.56407 0
M  V30 8501 H 831.235 -4.19005 4.29598 0
M  V30 8502 H 832.305 -2.82105 3.94391 0
M  V30 8503 N 833.648 -1.19017 -1.03309 0
M  V30 8504 C 834.896 -0.988258 -1.76289 0
M  V30 8505 C 835.217 0.482557 -1.88935 0
M  V30 8506 O 834.487 1.34969 -1.41987 0
M  V30 8507 H 833.067 -0.36267 -0.653054 0
M  V30 8508 H 835.729 -1.49836 -1.2464 0
M  V30 8509 H 834.825 -1.43273 -2.77271 0
M  V30 8510 N 835.127 1.22348 -0.993418 0
M  V30 8511 C 836.074 2.24294 -0.544118 0
M  V30 8512 C 837.044 1.60602 0.42381 0
M  V30 8513 O 838.229 1.87952 0.328453 0
M  V30 8514 C 835.369 3.44837 0.134578 0
M  V30 8515 C 834.482 4.23043 -0.875151 0
M  V30 8516 C 833.617 5.30928 -0.169919 0
M  V30 8517 C 832.656 6.00853 -1.16798 0
M  V30 8518 N 831.793 7.00381 -0.491021 0
M  V30 8519 H 836.633 2.6209 -1.4182 0
M  V30 8520 H 834.17 1.2881 -0.710384 0
M  V30 8521 H 836.128 4.13625 0.544998 0
M  V30 8522 H 834.758 3.07804 0.972446 0
M  V30 8523 H 833.81 3.53546 -1.40389 0
M  V30 8524 H 835.122 4.71237 -1.63516 0
M  V30 8525 H 834.276 6.05972 0.297205 0
M  V30 8526 H 833.015 4.8371 0.622586 0
M  V30 8527 H 832.02 5.24591 -1.64573 0
M  V30 8528 H 833.245 6.50159 -1.96137 0
M  V30 8529 H 831.191 6.55393 0.282037 0
M  V30 8530 H 831.108 7.46584 -1.18947 0
M  V30 8531 H 832.376 7.79486 -0.0467169 0
M  V30 8532 N 836.605 0.766683 1.37694 0
M  V30 8533 C 837.853 0.328065 1.9942 0
M  V30 8534 C 838.174 -1.09775 1.61166 0
M  V30 8535 O 837.444 -1.75288 0.874686 0
M  V30 8536 H 836.024 0.11831 0.737572 0
M  V30 8537 H 838.686 0.983686 1.68255 0
M  V30 8538 H 837.782 0.401647 3.09505 0
M  V30 8539 N 838.083 -1.48885 0.516809 0
M  V30 8540 C 839.046 -2.27916 -0.242256 0
M  V30 8541 C 840.046 -1.34601 -0.879735 0
M  V30 8542 O 841.236 -1.57616 -0.74182 0
M  V30 8543 C 838.368 -3.13067 -1.34914 0
M  V30 8544 H 839.561 -2.96483 0.451444 0
M  V30 8545 H 837.114 -1.5391 0.272294 0
M  V30 8546 H 837.849 -2.49102 -2.07651 0
M  V30 8547 H 837.634 -3.81695 -0.897313 0
M  V30 8548 H 839.124 -3.72716 -1.88341 0
M  V30 8549 N 839.561 -0.251338 -1.55583 0
M  V30 8550 C 840.471 0.656978 -2.25213 0
M  V30 8551 C 841.487 1.18966 -1.26977 0
M  V30 8552 O 842.663 1.22499 -1.59862 0
M  V30 8553 C 839.728 1.83527 -2.94141 0
M  V30 8554 C 838.789 1.34162 -4.07798 0
M  V30 8555 C 838.022 2.46375 -4.73429 0
M  V30 8556 O 838.245 3.65205 -4.38157 0
M  V30 8557 O 837.179 2.15881 -5.61853 0
M  V30 8558 H 841.005 0.0936395 -3.03556 0
M  V30 8559 H 838.59 -0.0196638 -1.49387 0
M  V30 8560 H 840.472 2.52279 -3.3754 0
M  V30 8561 H 839.147 2.38614 -2.18735 0
M  V30 8562 H 838.054 0.621249 -3.68906 0
M  V30 8563 H 839.387 0.836779 -4.85035 0
M  V30 8564 N 841.039 1.57585 0.0217189 0
M  V30 8565 C 842.286 1.89606 0.711045 0
M  V30 8566 C 842.614 0.849535 1.74966 0
M  V30 8567 O 841.869 -0.14856 1.95135 0
M  V30 8568 C 842.168 3.28377 1.41079 0
M  V30 8569 C 841.834 4.48035 0.507454 0
M  V30 8570 C 840.496 4.80504 0.258672 0
M  V30 8571 C 842.848 5.21071 -0.115793 0
M  V30 8572 C 840.176 5.83393 -0.622013 0
M  V30 8573 C 842.528 6.24897 -0.984224 0
M  V30 8574 C 841.192 6.55836 -1.2424 0
M  V30 8575 H 840.462 0.693817 0.26019 0
M  V30 8576 H 843.109 1.91478 -0.0291424 0
M  V30 8577 H 841.414 3.22528 2.22448 0
M  V30 8578 H 843.111 3.50404 1.94982 0
M  V30 8579 H 839.701 4.22653 0.711516 0
M  V30 8580 H 843.885 4.96259 0.0634327 0
M  V30 8581 H 839.141 6.05736 -0.830267 0
M  V30 8582 H 843.315 6.8063 -1.47363 0
M  V30 8583 H 840.942 7.35383 -1.92653 0
M  V30 8584 N 842.517 -0.29412 1.54831 0
M  V30 8585 C 843.745 -1.04724 1.78439 0
M  V30 8586 C 844.16 -1.80695 0.547239 0
M  V30 8587 O 843.517 -1.75989 -0.483141 0
M  V30 8588 C 843.568 -2.02242 2.99634 0
M  V30 8589 O 843.289 -1.29352 4.18568 0
M  V30 8590 C 844.79 -2.89537 3.35683 0
M  V30 8591 H 842.01 -0.310285 0.594949 0
M  V30 8592 H 844.554 -0.331306 2.01798 0
M  V30 8593 H 842.709 -2.69328 2.78462 0
M  V30 8594 H 843.123 -1.94901 4.86943 0
M  V30 8595 H 844.597 -3.538 4.23709 0
M  V30 8596 H 845.074 -3.58201 2.54143 0
M  V30 8597 H 845.68 -2.27973 3.59038 0
M  V30 8598 N 843.995 -1.47404 -0.557645 0
M  V30 8599 C 844.905 -1.62491 -1.69216 0
M  V30 8600 C 845.921 -0.507764 -1.66426 0
M  V30 8601 O 847.097 -0.775241 -1.85882 0
M  V30 8602 C 844.162 -1.63511 -3.05721 0
M  V30 8603 C 843.223 -2.86648 -3.1958 0
M  V30 8604 C 842.456 -2.87609 -4.49574 0
M  V30 8605 O 842.679 -1.97799 -5.35006 0
M  V30 8606 O 841.613 -3.79465 -4.67215 0
M  V30 8607 H 845.439 -2.58487 -1.59431 0
M  V30 8608 H 843.024 -1.30485 -0.7276 0
M  V30 8609 H 844.906 -1.66863 -3.86956 0
M  V30 8610 H 843.581 -0.706812 -3.15889 0
M  V30 8611 H 842.488 -2.8884 -2.37744 0
M  V30 8612 H 843.821 -3.7877 -3.14316 0
M  V30 8613 N 845.473 0.80434 -1.35529 0
M  V30 8614 C 846.721 1.55845 -1.28673 0
M  V30 8615 C 847.042 1.94511 0.137976 0
M  V30 8616 O 846.312 1.63775 1.07492 0
M  V30 8617 H 844.892 0.577931 -0.473291 0
M  V30 8618 H 847.554 0.959293 -1.69657 0
M  V30 8619 H 846.65 2.47285 -1.90411 0
M  V30 8620 N 846.951 1.19563 1.02676 0
M  V30 8621 C 848.367 0.948304 1.28372 0
M  V30 8622 C 848.567 -0.378096 1.97921 0
M  V30 8623 O 847.623 -1.1091 2.26838 0
M  V30 8624 C 848.936 2.12381 2.12873 0
M  V30 8625 C 850.484 2.16366 2.26174 0
M  V30 8626 C 850.959 3.33374 3.14048 0
M  V30 8627 N 852.45 3.33323 3.21636 0
M  V30 8628 C 853.185 4.20504 3.89825 0
M  V30 8629 N 852.681 5.17845 4.60227 0
M  V30 8630 N 854.474 4.08375 3.86246 0
M  V30 8631 H 846.625 2.04899 0.559485 0
M  V30 8632 H 848.888 0.89606 0.309484 0
M  V30 8633 H 848.594 3.08383 1.69094 0
M  V30 8634 H 848.468 2.09621 3.1359 0
M  V30 8635 H 850.855 1.20933 2.69182 0
M  V30 8636 H 850.936 2.23179 1.25 0
M  V30 8637 H 850.58 4.29087 2.71747 0
M  V30 8638 H 850.51 3.23798 4.15286 0
M  V30 8639 H 853.001 2.62863 2.71498 0
M  V30 8640 H 853.314 5.80712 5.09896 0
M  V30 8641 H 851.659 5.21791 4.59085 0
M  V30 8642 H 854.85 3.31606 3.30386 0
M  V30 8643 H 855.023 4.76532 4.39114 0
M  V30 8644 N 848.429 -1.21819 0.999893 0
M  V30 8645 C 849.706 -1.86318 0.595384 0
M  V30 8646 C 850.086 -1.8965 -0.927143 0
M  V30 8647 O 849.434 -1.3921 -1.81199 0
M  V30 8648 C 849.644 -3.26837 1.22387 0
M  V30 8649 C 850.992 -4.03272 1.32878 0
M  V30 8650 O 852.016 -3.36129 1.1788 0
M  V30 8651 O 850.875 -5.23477 1.56952 0
M  V30 8652 H 847.969 -0.801638 0.203238 0
M  V30 8653 H 850.515 -1.29542 1.09622 0
M  V30 8654 H 849.287 -3.19084 2.26497 0
M  V30 8655 H 848.91 -3.91226 0.709069 0
M  V30 8656 N 849.908 -0.773975 -1.37286 0
M  V30 8657 C 850.818 -0.162571 -2.34036 0
M  V30 8658 C 851.834 0.677022 -1.60289 0
M  V30 8659 O 853.01 0.596423 -1.92366 0
M  V30 8660 C 850.075 0.70457 -3.39465 0
M  V30 8661 C 849.136 -0.151738 -4.29032 0
M  V30 8662 C 848.369 0.674111 -5.29426 0
M  V30 8663 O 848.592 1.91107 -5.37433 0
M  V30 8664 O 847.526 0.0821398 -6.01844 0
M  V30 8665 H 851.352 -0.962119 -2.88057 0
M  V30 8666 H 848.937 -0.53517 -1.39486 0
M  V30 8667 H 850.819 1.19954 -4.03967 0
M  V30 8668 H 849.494 1.48227 -2.87768 0
M  V30 8669 H 848.401 -0.693118 -3.67623 0
M  V30 8670 H 849.734 -0.892575 -4.84039 0
M  V30 8671 N 851.386 1.48609 -0.524698 0
M  V30 8672 C 852.319 2.26374 0.288109 0
M  V30 8673 C 853.297 1.31997 0.949509 0
M  V30 8674 O 854.481 1.61329 0.974946 0
M  V30 8675 C 851.608 3.08065 1.4076 0
M  V30 8676 C 850.654 4.17777 0.858152 0
M  V30 8677 S 851.487 5.3482 -0.269827 0
M  V30 8678 C 852.643 6.2007 0.852266 0
M  V30 8679 H 852.876 2.94965 -0.371865 0
M  V30 8680 H 850.409 1.51248 -0.31039 0
M  V30 8681 H 852.367 3.5571 2.04892 0
M  V30 8682 H 851.028 2.38898 2.03928 0
M  V30 8683 H 850.221 4.74542 1.69783 0
M  V30 8684 H 849.823 3.72846 0.293627 0
M  V30 8685 H 852.115 6.54451 1.75213 0
M  V30 8686 H 853.058 7.07364 0.322717 0
M  V30 8687 H 853.466 5.53068 1.13029 0
M  V30 8688 N 852.864 0.259585 1.55447 0
M  V30 8689 C 854.112 -0.360893 1.98852 0
M  V30 8690 C 854.433 -1.57535 1.14924 0
M  V30 8691 O 853.703 -1.94485 0.235025 0
M  V30 8692 H 852.283 -0.136332 0.734454 0
M  V30 8693 H 854.945 0.361319 1.91522 0
M  V30 8694 H 854.041 -0.661388 3.05012 0
M  V30 8695 N 854.342 -1.57594 -0.0133615 0
M  V30 8696 C 855.588 -1.91105 -0.696457 0
M  V30 8697 C 855.943 -0.859872 -1.72116 0
M  V30 8698 O 855.236 0.129579 -1.91161 0
M  V30 8699 C 855.43 -3.29121 -1.39336 0
M  V30 8700 C 855.259 -4.47565 -0.437666 0
M  V30 8701 C 854.029 -5.05272 -0.0529454 0
M  V30 8702 C 856.227 -5.13479 0.290537 0
M  V30 8703 N 854.209 -6.07232 0.902355 0
M  V30 8704 C 855.58 -6.10147 1.10097 0
M  V30 8705 C 857.635 -4.96627 0.355804 0
M  V30 8706 C 856.338 -6.91778 1.97069 0
M  V30 8707 C 858.364 -5.78833 1.21271 0
M  V30 8708 C 857.726 -6.75083 2.01102 0
M  V30 8709 H 853.825 -0.747882 -0.228464 0
M  V30 8710 H 856.409 -1.94651 0.0438462 0
M  V30 8711 H 854.58 -3.26474 -2.10403 0
M  V30 8712 H 856.312 -3.501 -2.03008 0
M  V30 8713 H 853.067 -4.71747 -0.418486 0
M  V30 8714 H 853.491 -6.6289 1.37498 0
M  V30 8715 H 858.133 -4.22077 -0.247105 0
M  V30 8716 H 855.851 -7.65662 2.58433 0
M  V30 8717 H 859.437 -5.67838 1.26694 0
M  V30 8718 H 858.317 -7.37587 2.66337 0
M  V30 8719 N 855.82 0.285905 -1.54985 0
M  V30 8720 C 857.069 1.01691 -1.74189 0
M  V30 8721 C 857.382 1.87908 -0.543135 0
M  V30 8722 O 858.588 2.64389 -0.617305 0
M  V30 8723 C 857.044 1.85785 -3.0824 0
M  V30 8724 C 856.652 1.04497 -4.35642 0
M  V30 8725 C 858.396 2.58393 -3.36798 0
M  V30 8726 C 856.303 1.87955 -5.60738 0
M  V30 8727 H 855.233 0.383396 -0.649248 0
M  V30 8728 H 857.884 0.27317 -1.81455 0
M  V30 8729 H 856.266 2.64205 -2.94978 0
M  V30 8730 H 857.44 0.305847 -4.59784 0
M  V30 8731 H 855.755 0.434023 -4.14132 0
M  V30 8732 H 858.352 3.21214 -4.27464 0
M  V30 8733 H 858.695 3.28011 -2.56349 0
M  V30 8734 H 859.228 1.87012 -3.511 0
M  V30 8735 H 855.967 1.22781 -6.43898 0
M  V30 8736 H 855.487 2.59499 -5.40759 0
M  V30 8737 H 857.166 2.45636 -5.98558 0
M  V30 8738 N 857.298 1.47698 0.54982 0
M  V30 8739 C 858.523 1.58579 1.33669 0
M  V30 8740 C 858.948 0.239049 1.86575 0
M  V30 8741 O 858.306 -0.786256 1.63364 0
M  V30 8742 C 858.354 2.62029 2.47736 0
M  V30 8743 O 857.458 2.17813 3.50188 0
M  V30 8744 H 856.799 0.532447 0.396732 0
M  V30 8745 H 859.329 1.93536 0.6637 0
M  V30 8746 H 859.339 2.82682 2.94202 0
M  V30 8747 H 858.014 3.59812 2.08586 0
M  V30 8748 H 856.591 2.07291 3.09976 0
M  V30 8749 N 858.776 -0.797141 1.35954 0
M  V30 8750 C 860.001 -1.59097 1.33053 0
M  V30 8751 C 860.426 -1.87897 -0.0874592 0
M  V30 8752 O 859.784 -1.47291 -1.05712 0
M  V30 8753 C 859.832 -2.89346 2.152 0
M  V30 8754 O 858.936 -3.826 1.5392 0
M  V30 8755 H 858.277 -0.482895 0.45575 0
M  V30 8756 H 860.807 -0.988633 1.79129 0
M  V30 8757 H 860.817 -3.38686 2.27499 0
M  V30 8758 H 859.492 -2.6771 3.18283 0
M  V30 8759 H 858.069 -3.41174 1.50516 0
M  V30 8760 N 860.254 -1.20106 -1.0204 0
M  V30 8761 C 861.501 -1.00889 -1.75578 0
M  V30 8762 C 861.829 0.459415 -1.88996 0
M  V30 8763 O 861.084 1.35735 -1.40977 0
M  V30 8764 C 861.383 -1.63308 -3.17908 0
M  V30 8765 C 861.049 -3.13091 -3.24476 0
M  V30 8766 C 859.711 -3.53968 -3.25976 0
M  V30 8767 C 862.063 -4.09093 -3.22944 0
M  V30 8768 C 859.391 -4.89381 -3.2361 0
M  V30 8769 C 861.743 -5.44447 -3.22119 0
M  V30 8770 C 860.407 -5.84742 -3.2192 0
M  V30 8771 H 859.677 -0.36918 -0.642485 0
M  V30 8772 H 862.324 -1.49475 -1.19706 0
M  V30 8773 H 860.629 -1.06974 -3.76914 0
M  V30 8774 H 862.326 -1.45958 -3.73493 0
M  V30 8775 H 858.916 -2.80526 -3.24042 0
M  V30 8776 H 863.1 -3.78549 -3.20958 0
M  V30 8777 H 858.356 -5.1987 -3.21785 0
M  V30 8778 H 862.53 -6.18584 -3.19885 0
M  V30 8779 H 860.157 -6.89642 -3.19841 0
M  V30 8780 N 861.732 1.21287 -1.00634 0
M  V30 8781 C 862.962 1.94103 -0.70765 0
M  V30 8782 C 863.37 1.74382 0.733991 0
M  V30 8783 O 862.713 1.04843 1.50843 0
M  V30 8784 C 862.775 3.46705 -0.950581 0
M  V30 8785 C 862.439 3.90176 -2.37932 0
M  V30 8786 C 863.436 3.96769 -3.35961 0
M  V30 8787 C 861.121 4.22453 -2.71733 0
M  V30 8788 C 863.115 4.35034 -4.65858 0
M  V30 8789 C 860.802 4.60394 -4.01846 0
M  V30 8790 C 861.8 4.66656 -4.9872 0
M  V30 8791 O 861.488 5.03732 -6.26505 0
M  V30 8792 H 861.22 0.62405 -0.259881 0
M  V30 8793 H 863.774 1.55015 -1.34757 0
M  V30 8794 H 862.004 3.85868 -0.253492 0
M  V30 8795 H 863.693 4.00741 -0.645069 0
M  V30 8796 H 864.459 3.72009 -3.11182 0
M  V30 8797 H 860.338 4.16776 -1.97025 0
M  V30 8798 H 863.882 4.39836 -5.4147 0
M  V30 8799 H 859.779 4.84609 -4.26409 0
M  V30 8800 H 860.547 5.21761 -6.30641 0
M  V30 8801 N 863.21 0.781244 1.36873 0
M  V30 8802 C 864.12 0.174981 2.33947 0
M  V30 8803 C 865.136 -0.668512 1.60645 0
M  V30 8804 O 866.312 -0.586213 1.9268 0
M  V30 8805 C 863.377 -0.686557 3.39834 0
M  V30 8806 C 862.438 0.174489 4.28945 0
M  V30 8807 C 861.671 -0.646024 5.29776 0
M  V30 8808 O 861.894 -1.88254 5.38439 0
M  V30 8809 O 860.828 -0.0502214 6.01879 0
M  V30 8810 H 864.654 0.977382 2.87543 0
M  V30 8811 H 862.239 0.542559 1.392 0
M  V30 8812 H 864.121 -1.1781 4.04597 0
M  V30 8813 H 862.796 -1.46699 2.8855 0
M  V30 8814 H 861.703 0.712604 3.6725 0
M  V30 8815 H 863.036 0.918232 4.83559 0
M  V30 8816 N 864.689 -1.48329 0.532571 0
M  V30 8817 C 865.652 -2.2816 -0.218069 0
M  V30 8818 C 866.652 -1.35526 -0.865409 0
M  V30 8819 O 867.842 -1.58394 -0.725061 0
M  V30 8820 C 864.974 -3.1448 -1.31586 0
M  V30 8821 H 866.167 -2.95987 0.482865 0
M  V30 8822 H 863.72 -1.53612 0.288603 0
M  V30 8823 H 864.455 -2.5129 -2.04997 0
M  V30 8824 H 864.24 -3.82625 -0.856779 0
M  V30 8825 H 865.73 -3.74693 -1.84377 0
M  V30 8826 N 866.167 -0.267825 -1.55308 0
M  V30 8827 C 867.13 0.60965 -2.20943 0
M  V30 8828 C 868.13 1.0869 -1.18504 0
M  V30 8829 O 869.32 0.988248 -1.43455 0
M  V30 8830 C 866.452 1.84027 -2.86961 0
M  V30 8831 H 867.645 0.0366806 -2.99878 0
M  V30 8832 H 865.198 -0.0183941 -1.56289 0
M  V30 8833 H 865.933 2.45394 -2.1202 0
M  V30 8834 H 865.718 1.50605 -3.62023 0
M  V30 8835 H 867.208 2.46442 -3.37129 0
M  V30 8836 N 867.645 1.57599 0.00500368 0
M  V30 8837 C 868.891 1.90631 0.691919 0
M  V30 8838 C 869.224 0.868443 1.737 0
M  V30 8839 O 868.499 -0.113482 1.94169 0
M  V30 8840 C 868.782 3.34255 1.33961 0
M  V30 8841 C 868.635 4.48755 0.306413 0
M  V30 8842 C 869.954 3.77211 2.26715 0
M  V30 8843 H 867.073 0.693279 0.250066 0
M  V30 8844 H 869.715 1.89946 -0.0452634 0
M  V30 8845 H 867.865 3.3497 1.96793 0
M  V30 8846 H 869.537 4.60176 -0.321841 0
M  V30 8847 H 867.78 4.32203 -0.371852 0
M  V30 8848 H 868.451 5.46193 0.798554 0
M  V30 8849 H 870.927 3.78017 1.73904 0
M  V30 8850 H 869.803 4.78466 2.69002 0
M  V30 8851 H 870.064 3.10801 3.14413 0
M  V30 8852 N 869.123 -0.277682 1.55134 0
M  V30 8853 C 870.07 -1.34313 1.87693 0
M  V30 8854 C 871.04 -1.49298 0.727973 0
M  V30 8855 O 872.225 -1.6378 0.978807 0
M  V30 8856 C 869.365 -2.69922 2.15026 0
M  V30 8857 C 868.478 -2.63197 3.42565 0
M  V30 8858 C 867.613 -3.90955 3.59622 0
M  V30 8859 C 866.652 -3.78722 4.8087 0
M  V30 8860 N 865.789 -4.98303 4.94609 0
M  V30 8861 H 870.629 -1.05847 2.78569 0
M  V30 8862 H 868.166 -0.511469 1.37922 0
M  V30 8863 H 870.124 -3.48817 2.28872 0
M  V30 8864 H 868.754 -2.966 1.2739 0
M  V30 8865 H 867.806 -1.76038 3.37216 0
M  V30 8866 H 869.118 -2.50056 4.31594 0
M  V30 8867 H 868.272 -4.78291 3.7326 0
M  V30 8868 H 867.011 -4.06957 2.6877 0
M  V30 8869 H 866.016 -2.89769 4.67241 0
M  V30 8870 H 867.241 -3.64242 5.73153 0
M  V30 8871 H 865.187 -5.14725 4.06687 0
M  V30 8872 H 865.104 -4.87675 5.77676 0
M  V30 8873 H 866.372 -5.87225 5.12628 0
M  V30 8874 N 870.601 -1.47988 -0.541979 0
M  V30 8875 C 871.533 -1.5769 -1.66332 0
M  V30 8876 C 872.546 -0.461994 -1.56107 0
M  V30 8877 O 873.735 -0.732306 -1.62787 0
M  V30 8878 C 870.835 -1.47939 -3.04905 0
M  V30 8879 C 870.008 -2.74263 -3.40733 0
M  V30 8880 C 869.067 -2.58133 -4.58534 0
M  V30 8881 O 868.093 -3.31991 -4.62354 0
M  V30 8882 N 869.295 -1.6696 -5.55972 0
M  V30 8883 H 872.06 -2.54389 -1.5845 0
M  V30 8884 H 869.621 -1.4456 -0.728979 0
M  V30 8885 H 871.613 -1.34861 -3.81569 0
M  V30 8886 H 870.183 -0.592626 -3.06931 0
M  V30 8887 H 869.403 -3.01992 -2.53366 0
M  V30 8888 H 870.691 -3.58094 -3.6145 0
M  V30 8889 H 870.089 -1.06134 -5.55655 0
M  V30 8890 H 868.646 -1.59826 -6.31901 0
M  V30 8891 N 872.079 0.78992 -1.36375 0
M  V30 8892 C 873.042 1.88414 -1.30509 0
M  V30 8893 C 874.042 1.59384 -0.2129 0
M  V30 8894 O 875.232 1.67805 -0.467651 0
M  V30 8895 C 872.364 3.25188 -1.02302 0
M  V30 8896 H 873.557 1.95031 -2.27822 0
M  V30 8897 H 871.11 0.987664 -1.2114 0
M  V30 8898 H 871.845 3.24254 -0.0544486 0
M  V30 8899 H 871.63 3.47647 -1.81338 0
M  V30 8900 H 873.12 4.05252 -1.00801 0
M  V30 8901 N 873.557 1.20646 1.01402 0
M  V30 8902 C 874.467 0.973385 2.13453 0
M  V30 8903 C 875.483 -0.0715865 1.73853 0
M  V30 8904 O 876.659 0.116438 2.01063 0
M  V30 8905 C 873.724 0.531285 3.42605 0
M  V30 8906 C 872.785 1.64741 3.96433 0
M  V30 8907 C 872.018 1.22631 5.1942 0
M  V30 8908 O 872.241 0.0960891 5.70319 0
M  V30 8909 O 871.175 2.03474 5.66465 0
M  V30 8910 H 875.001 1.91164 2.35987 0
M  V30 8911 H 872.586 0.990553 1.11841 0
M  V30 8912 H 874.468 0.294095 4.20373 0
M  V30 8913 H 873.143 -0.378358 3.21481 0
M  V30 8914 H 872.05 1.93891 3.19933 0
M  V30 8915 H 873.383 2.53415 4.2195 0
M  V30 8916 N 875.035 -1.20752 1.01276 0
M  V30 8917 C 876.282 -1.90021 0.699887 0
M  V30 8918 C 876.61 -1.78604 -0.770113 0
M  V30 8919 O 875.865 -1.16195 -1.57471 0
M  V30 8920 C 876.164 -3.40808 1.07633 0
M  V30 8921 C 875.83 -3.72423 2.54189 0
M  V30 8922 C 874.492 -3.80762 2.94234 0
M  V30 8923 C 876.844 -3.87025 3.49086 0
M  V30 8924 C 874.172 -4.01158 4.28123 0
M  V30 8925 C 876.524 -4.0893 4.82658 0
M  V30 8926 C 875.188 -4.15498 5.22415 0
M  V30 8927 H 874.458 -0.695335 0.256107 0
M  V30 8928 H 877.105 -1.43096 1.27263 0
M  V30 8929 H 875.41 -3.89521 0.421944 0
M  V30 8930 H 877.107 -3.92693 0.811997 0
M  V30 8931 H 873.697 -3.66529 2.22158 0
M  V30 8932 H 877.881 -3.79942 3.19309 0
M  V30 8933 H 873.137 -4.04476 4.58486 0
M  V30 8934 H 877.311 -4.19172 5.56119 0
M  V30 8935 H 874.938 -4.31055 6.26176 0
M  V30 8936 N 876.513 -0.788492 -1.36457 0
M  V30 8937 C 877.46 -0.18435 -2.30063 0
M  V30 8938 C 878.43 0.67128 -1.51931 0
M  V30 8939 O 879.615 0.620152 -1.8044 0
M  V30 8940 C 876.755 0.675596 -3.38422 0
M  V30 8941 C 875.868 -0.198475 -4.31544 0
M  V30 8942 C 875.003 0.667757 -5.26986 0
M  V30 8943 C 874.042 -0.207825 -6.11747 0
M  V30 8944 N 873.179 0.617335 -6.99381 0
M  V30 8945 H 878.019 -0.988056 -2.81143 0
M  V30 8946 H 875.556 -0.498815 -1.38384 0
M  V30 8947 H 877.514 1.18916 -3.99894 0
M  V30 8948 H 876.144 1.44474 -2.88664 0
M  V30 8949 H 875.196 -0.829995 -3.71235 0
M  V30 8950 H 876.508 -0.873163 -4.91098 0
M  V30 8951 H 875.662 1.24716 -5.93743 0
M  V30 8952 H 874.401 1.37607 -4.67884 0
M  V30 8953 H 873.406 -0.799638 -5.43954 0
M  V30 8954 H 874.631 -0.913729 -6.72925 0
M  V30 8955 H 872.577 1.30996 -6.42788 0
M  V30 8956 H 872.494 0.000307255 -7.56 0
M  V30 8957 H 873.762 1.1806 -7.70508 0
M  V30 8958 N 877.991 1.48044 -0.54043 0
M  V30 8959 C 878.939 2.31461 0.229862 0
M  V30 8960 C 879.933 1.41884 0.925495 0
M  V30 8961 O 881.139 1.58736 0.848689 0
M  V30 8962 H 877.514 0.746227 0.0929975 0
M  V30 8963 H 879.485 2.94297 -0.493118 0
M  V30 8964 C 878.234 3.24172 1.25729 0
M  V30 8965 H 877.557 3.93052 0.731426 0
M  V30 8966 H 878.997 3.85404 1.76747 0
M  V30 8967 C 877.456 2.4651 2.2964 0
M  V30 8968 O 877.986 2.19742 3.36268 0
M  V30 8969 N 876.192 2.07817 2.03127 0
M  V30 8970 H 875.739 2.29786 1.1643 0
M  V30 8971 H 875.697 1.56168 2.72872 0
M  V30 8972 N 879.47 0.276058 1.55163 0
M  V30 8973 C 880.716 -0.340959 1.99913 0
M  V30 8974 C 881.049 -1.55434 1.16422 0
M  V30 8975 O 880.324 -1.93081 0.234517 0
M  V30 8976 C 880.607 -0.722211 3.52783 0
M  V30 8977 C 880.46 0.498575 4.47028 0
M  V30 8978 C 881.779 -1.5583 4.11589 0
M  V30 8979 H 878.898 -0.122455 0.726756 0
M  V30 8980 H 881.54 0.38319 1.86096 0
M  V30 8981 H 879.69 -1.33919 3.64689 0
M  V30 8982 H 881.362 1.13713 4.47065 0
M  V30 8983 H 879.605 1.13646 4.18649 0
M  V30 8984 H 880.276 0.188041 5.5168 0
M  V30 8985 H 882.752 -1.03722 4.02965 0
M  V30 8986 H 881.628 -1.79387 5.1876 0
M  V30 8987 H 881.889 -2.53963 3.61877 0
M  V30 8988 N 880.948 -1.576 0.00335426 0
M  V30 8989 C 881.911 -2.07576 -0.971838 0
M  V30 8990 C 882.911 -0.985796 -1.27038 0
M  V30 8991 O 884.101 -1.24833 -1.21501 0
M  V30 8992 C 881.233 -2.52003 -2.29581 0
M  V30 8993 H 882.426 -2.95008 -0.539481 0
M  V30 8994 H 879.979 -1.54381 -0.244186 0
M  V30 8995 H 880.714 -1.67825 -2.77498 0
M  V30 8996 H 880.499 -3.31609 -2.09231 0
M  V30 8997 H 881.989 -2.90983 -2.99531 0
M  V30 8998 N 882.426 0.269451 -1.5528 0
M  V30 8999 C 883.359 1.3588 -1.83336 0
M  V30 9000 C 884.337 1.4739 -0.68666 0
M  V30 9001 O 885.521 1.63959 -0.930037 0
M  V30 9002 C 882.648 2.73483 -1.99812 0
M  V30 9003 C 881.694 2.79239 -3.22378 0
M  V30 9004 S 882.527 2.38125 -4.79642 0
M  V30 9005 C 883.683 3.77697 -4.99095 0
M  V30 9006 H 883.916 1.11878 -2.75446 0
M  V30 9007 H 881.449 0.469268 -1.47096 0
M  V30 9008 H 883.407 3.52725 -2.09989 0
M  V30 9009 H 882.068 2.94735 -1.08583 0
M  V30 9010 H 881.261 3.80243 -3.30804 0
M  V30 9011 H 880.863 2.08022 -3.1081 0
M  V30 9012 H 883.155 4.72999 -4.85055 0
M  V30 9013 H 884.098 3.7422 -6.01136 0
M  V30 9014 H 884.506 3.69164 -4.27058 0
M  V30 9015 N 883.904 1.48273 0.534124 0
M  V30 9016 C 885.315 1.49667 1.1161 0
M  V30 9017 C 885.666 0.264139 1.94414 0
M  V30 9018 O 884.791 -0.629084 2.07054 0
M  V30 9019 C 885.386 2.71191 2.03079 0
M  V30 9020 C 883.945 2.7547 2.56502 0
M  V30 9021 C 883.092 2.43119 1.33373 0
M  V30 9022 H 886.043 1.55449 0.319578 0
M  V30 9023 H 886.064 2.49473 2.87304 0
M  V30 9024 H 885.576 3.60879 1.42785 0
M  V30 9025 H 883.677 1.89979 3.20529 0
M  V30 9026 H 883.79 3.76787 2.95919 0
M  V30 9027 H 882.154 1.94187 1.64813 0
M  V30 9028 H 882.937 3.35044 0.748375 0
M  V30 9029 N 885.382 -0.782676 1.36792 0
M  V30 9030 C 886.607 -1.57676 1.34733 0
M  V30 9031 C 887.032 -1.87979 -0.0675253 0
M  V30 9032 O 886.39 -1.48404 -1.04144 0
M  V30 9033 C 886.438 -2.87047 2.18257 0
M  V30 9034 O 885.542 -3.80946 1.57969 0
M  V30 9035 H 884.883 -0.478034 0.460846 0
M  V30 9036 H 887.413 -0.969578 1.80168 0
M  V30 9037 H 887.423 -3.36254 2.31079 0
M  V30 9038 H 886.098 -2.64319 3.21104 0
M  V30 9039 H 884.675 -3.39558 1.54126 0
M  V30 9040 N 886.86 -1.21182 -1.00761 0
M  V30 9041 C 888.107 -1.02746 -1.74498 0
M  V30 9042 C 888.435 0.439344 -1.89473 0
M  V30 9043 O 887.69 1.34232 -1.42409 0
M  V30 9044 C 887.989 -1.6667 -3.16158 0
M  V30 9045 C 887.655 -3.16515 -3.21137 0
M  V30 9046 C 886.317 -3.57405 -3.22203 0
M  V30 9047 C 888.669 -4.12495 -3.18587 0
M  V30 9048 C 885.997 -4.92786 -3.18401 0
M  V30 9049 C 888.349 -5.47833 -3.16326 0
M  V30 9050 C 887.013 -5.88124 -3.157 0
M  V30 9051 H 886.283 -0.375974 -0.638533 0
M  V30 9052 H 888.93 -1.50736 -1.18114 0
M  V30 9053 H 887.235 -1.10966 -3.75758 0
M  V30 9054 H 888.932 -1.49911 -3.71924 0
M  V30 9055 H 885.522 -2.83947 -3.21048 0
M  V30 9056 H 889.706 -3.81932 -3.16925 0
M  V30 9057 H 884.962 -5.23253 -3.16253 0
M  V30 9058 H 889.136 -6.21942 -3.13306 0
M  V30 9059 H 886.763 -6.92995 -3.12508 0
M  V30 9060 N 888.338 1.20213 -1.01915 0
M  V30 9061 C 889.248 2.26763 -0.601311 0
M  V30 9062 C 890.264 1.70185 0.362369 0
M  V30 9063 O 891.44 2.00165 0.222682 0
M  V30 9064 C 888.505 3.46662 0.0512879 0
M  V30 9065 C 887.566 4.18459 -0.958659 0
M  V30 9066 C 886.799 5.32634 -0.337107 0
M  V30 9067 O 887.022 5.63841 0.86251 0
M  V30 9068 O 885.956 5.9258 -1.05511 0
M  V30 9069 H 889.782 2.64725 -1.48844 0
M  V30 9070 H 887.367 1.2688 -0.788784 0
M  V30 9071 H 889.249 4.19345 0.41564 0
M  V30 9072 H 887.924 3.1057 0.912572 0
M  V30 9073 H 886.831 3.47937 -1.37442 0
M  V30 9074 H 888.164 4.58498 -1.78999 0
M  V30 9075 N 889.816 0.795718 1.36037 0
M  V30 9076 C 891.093 0.294743 1.93367 0
M  V30 9077 C 891.473 -1.21406 1.72696 0
M  V30 9078 O 890.821 -2.00849 1.08959 0
M  V30 9079 C 891.031 0.694254 3.42025 0
M  V30 9080 C 892.379 0.677566 4.19159 0
M  V30 9081 O 893.403 0.635119 3.50492 0
M  V30 9082 O 892.262 0.726127 5.41655 0
M  V30 9083 H 889.356 0.0745459 0.823633 0
M  V30 9084 H 891.902 0.878685 1.4518 0
M  V30 9085 H 890.674 1.73458 3.50753 0
M  V30 9086 H 890.297 0.0845338 3.9751 0
M  V30 9087 N 891.294 -1.47756 0.548274 0
M  V30 9088 C 892.541 -2.02489 0.0208955 0
M  V30 9089 C 892.869 -1.42356 -1.32533 0
M  V30 9090 O 892.124 -0.565448 -1.87353 0
M  V30 9091 C 892.423 -3.5716 -0.131069 0
M  V30 9092 C 892.089 -4.36169 1.14313 0
M  V30 9093 C 890.751 -4.57476 1.4923 0
M  V30 9094 C 893.103 -4.81801 1.9879 0
M  V30 9095 C 890.431 -5.21662 2.68487 0
M  V30 9096 C 892.783 -5.47303 3.17242 0
M  V30 9097 C 891.447 -5.66844 3.52483 0
M  V30 9098 H 890.717 -0.740961 0.00764621 0
M  V30 9099 H 893.364 -1.77531 0.717987 0
M  V30 9100 H 891.669 -3.8106 -0.911063 0
M  V30 9101 H 893.366 -3.9715 -0.55433 0
M  V30 9102 H 889.956 -4.19858 0.861235 0
M  V30 9103 H 894.14 -4.65126 1.73123 0
M  V30 9104 H 889.396 -5.34987 2.95971 0
M  V30 9105 H 893.57 -5.81626 3.82994 0
M  V30 9106 H 891.197 -6.16352 4.44988 0
M  V30 9107 N 892.772 -0.284283 -1.55015 0
M  V30 9108 C 894.018 0.3233 -2.00814 0
M  V30 9109 C 894.373 1.52796 -1.16923 0
M  V30 9110 O 893.666 1.90172 -0.233499 0
M  V30 9111 C 893.86 0.747219 -3.49502 0
M  V30 9112 C 893.689 -0.414821 -4.47783 0
M  V30 9113 C 892.459 -0.901531 -4.97193 0
M  V30 9114 C 894.657 -1.25433 -4.9877 0
M  V30 9115 N 892.639 -2.03208 -5.79292 0
M  V30 9116 C 894.01 -2.23262 -5.78406 0
M  V30 9117 C 896.065 -1.28662 -4.80989 0
M  V30 9118 C 894.768 -3.24077 -6.42158 0
M  V30 9119 C 896.794 -2.28326 -5.45547 0
M  V30 9120 C 896.156 -3.24887 -6.25002 0
M  V30 9121 H 892.255 0.0832226 -0.777559 0
M  V30 9122 H 894.839 -0.410393 -1.90326 0
M  V30 9123 H 893.01 1.45012 -3.60314 0
M  V30 9124 H 894.742 1.33292 -3.8212 0
M  V30 9125 H 891.497 -0.479291 -4.71169 0
M  V30 9126 H 891.921 -2.60125 -6.25031 0
M  V30 9127 H 896.563 -0.553858 -4.19157 0
M  V30 9128 H 894.281 -3.98281 -7.03134 0
M  V30 9129 H 897.867 -2.31578 -5.33726 0
M  V30 9130 H 896.747 -4.00745 -6.74072 0
M  V30 9131 N 894.251 1.57596 -0.0117121 0
M  V30 9132 C 895.476 1.95764 0.684938 0
M  V30 9133 C 895.901 0.887285 1.65858 0
M  V30 9134 O 895.259 -0.153508 1.80649 0
M  V30 9135 C 895.307 3.33031 1.38285 0
M  V30 9136 O 894.411 3.28163 2.49765 0
M  V30 9137 H 893.752 0.638767 0.181309 0
M  V30 9138 H 896.282 2.04486 -0.0683883 0
M  V30 9139 H 896.292 3.68866 1.74362 0
M  V30 9140 H 894.967 4.10483 0.669043 0
M  V30 9141 H 893.544 3.04021 2.15929 0
M  V30 9142 N 895.729 -0.261212 1.5542 0
M  V30 9143 C 896.639 -1.34493 1.92221 0
M  V30 9144 C 897.655 -1.53421 0.82086 0
M  V30 9145 O 898.831 -1.6732 1.12099 0
M  V30 9146 C 895.896 -2.68209 2.19692 0
M  V30 9147 C 894.957 -2.57927 3.43179 0
M  V30 9148 C 894.19 -3.85266 3.69331 0
M  V30 9149 O 894.413 -4.86493 2.97793 0
M  V30 9150 O 893.347 -3.8476 4.62865 0
M  V30 9151 H 897.173 -1.06278 2.84497 0
M  V30 9152 H 894.758 -0.460752 1.42118 0
M  V30 9153 H 896.64 -3.47252 2.38734 0
M  V30 9154 H 895.315 -2.96186 1.30597 0
M  V30 9155 H 894.222 -1.77219 3.2946 0
M  V30 9156 H 895.555 -2.34898 4.32532 0
M  V30 9157 N 897.207 -1.48554 -0.526253 0
M  V30 9158 C 898.455 -1.56452 -1.27935 0
M  V30 9159 C 898.776 -0.24184 -1.93495 0
M  V30 9160 O 898.046 0.736917 -1.81511 0
M  V30 9161 H 896.626 -0.576379 -0.47518 0
M  V30 9162 H 899.288 -1.85039 -0.612083 0
M  V30 9163 H 898.384 -2.34751 -2.05666 0
M  V30 9164 N 898.685 0.775411 -1.37205 0
M  V30 9165 C 899.934 1.52909 -1.31536 0
M  V30 9166 C 900.247 1.9535 0.0989374 0
M  V30 9167 O 901.453 2.70072 0.278079 0
M  V30 9168 C 899.909 2.761 -2.30861 0
M  V30 9169 C 899.517 2.40773 -3.77799 0
M  V30 9170 C 901.261 3.54052 -2.34195 0
M  V30 9171 C 899.168 3.60444 -4.68865 0
M  V30 9172 H 898.098 0.574061 -0.488845 0
M  V30 9173 H 900.749 0.849642 -1.62645 0
M  V30 9174 H 899.131 3.45916 -1.92764 0
M  V30 9175 H 900.305 1.78764 -4.24712 0
M  V30 9176 H 898.62 1.76004 -3.77375 0
M  V30 9177 H 901.217 4.42992 -2.99437 0
M  V30 9178 H 901.56 3.93649 -1.35449 0
M  V30 9179 H 902.093 2.91229 -2.7098 0
M  V30 9180 H 898.832 3.25932 -5.68725 0
M  V30 9181 H 898.352 4.21571 -4.26659 0
M  V30 9182 H 900.031 4.27302 -4.85821 0
M  V30 9183 N 900.163 1.21714 1.00117 0
M  V30 9184 C 901.409 1.03823 1.74208 0
M  V30 9185 C 901.742 -0.426733 1.89454 0
M  V30 9186 O 901.017 -1.31658 1.43166 0
M  V30 9187 C 901.3 1.74047 3.15246 0
M  V30 9188 C 901.153 3.28087 3.077 0
M  V30 9189 C 902.472 1.48614 4.14249 0
M  V30 9190 H 899.591 0.378573 0.632338 0
M  V30 9191 H 902.233 1.49942 1.16694 0
M  V30 9192 H 900.383 1.3484 3.64349 0
M  V30 9193 H 902.055 3.76686 2.6628 0
M  V30 9194 H 900.298 3.58191 2.44707 0
M  V30 9195 H 900.969 3.72392 4.07466 0
M  V30 9196 H 903.445 1.82656 3.73866 0
M  V30 9197 H 902.321 2.00257 5.11066 0
M  V30 9198 H 902.582 0.416957 4.40129 0
M  V30 9199 N 901.641 -1.19671 1.02551 0
M  V30 9200 C 902.551 -2.26441 0.613329 0
M  V30 9201 C 903.567 -1.70375 -0.353339 0
M  V30 9202 O 904.743 -2.0028 -0.212064 0
M  V30 9203 C 901.808 -3.46684 -0.0329028 0
M  V30 9204 C 900.869 -4.17945 0.980837 0
M  V30 9205 C 900.102 -5.32448 0.36535 0
M  V30 9206 O 900.325 -5.64291 -0.832596 0
M  V30 9207 O 899.259 -5.92012 1.08652 0
M  V30 9208 H 903.085 -2.63932 1.50246 0
M  V30 9209 H 900.67 -1.2646 0.795502 0
M  V30 9210 H 902.552 -4.1956 -0.393395 0
M  V30 9211 H 901.227 -3.1105 -0.896089 0
M  V30 9212 H 900.134 -3.47204 1.39286 0
M  V30 9213 H 901.467 -4.57542 1.81428 0
M  V30 9214 N 903.119 -0.802921 -1.35613 0
M  V30 9215 C 904.366 -0.381576 -1.98872 0
M  V30 9216 C 904.694 1.0503 -1.63704 0
M  V30 9217 O 903.949 1.7427 -0.890418 0
M  V30 9218 C 904.248 -0.507806 -3.53774 0
M  V30 9219 C 903.914 -1.90245 -4.088 0
M  V30 9220 C 902.576 -2.28401 -4.2354 0
M  V30 9221 C 904.928 -2.81504 -4.3864 0
M  V30 9222 C 902.256 -3.57192 -4.65436 0
M  V30 9223 C 904.608 -4.09737 -4.81973 0
M  V30 9224 C 903.272 -4.47897 -4.94919 0
M  V30 9225 H 902.542 -0.139629 -0.727726 0
M  V30 9226 H 905.189 -1.023 -1.61886 0
M  V30 9227 H 903.494 0.21708 -3.91198 0
M  V30 9228 H 905.191 -0.162625 -4.0067 0
M  V30 9229 H 901.781 -1.596 -3.97776 0
M  V30 9230 H 905.965 -2.53276 -4.26808 0
M  V30 9231 H 901.221 -3.86611 -4.73648 0
M  V30 9232 H 905.395 -4.80555 -5.04024 0
M  V30 9233 H 903.022 -5.47747 -5.27141 0
M  V30 9234 N 904.597 1.47463 -0.556102 0
M  V30 9235 C 906.008 1.86298 -0.122429 0
M  V30 9236 C 906.359 1.46285 1.30749 0
M  V30 9237 O 905.484 0.865405 1.98342 0
M  V30 9238 C 906.079 3.38115 -0.215407 0
M  V30 9239 C 904.638 3.76046 0.163223 0
M  V30 9240 C 903.785 2.71515 -0.563466 0
M  V30 9241 H 906.736 1.38996 -0.765888 0
M  V30 9242 H 906.757 3.76263 0.566271 0
M  V30 9243 H 906.269 3.67207 -1.25622 0
M  V30 9244 H 904.37 3.5257 1.20519 0
M  V30 9245 H 904.483 4.78705 -0.194568 0
M  V30 9246 H 902.847 2.54699 -0.00667879 0
M  V30 9247 H 903.63 3.03449 -1.60542 0
M  V30 9248 N 906.075 0.2925 1.54862 0
M  V30 9249 C 907.324 -0.319994 1.99146 0
M  V30 9250 C 907.637 -1.55658 1.18448 0
M  V30 9251 O 908.843 -2.24312 1.52959 0
M  V30 9252 C 907.299 -0.620665 3.54508 0
M  V30 9253 C 906.907 0.597098 4.44003 0
M  V30 9254 C 908.651 -1.19482 4.07338 0
M  V30 9255 C 906.558 0.270049 5.90783 0
M  V30 9256 H 905.488 -0.123342 0.743843 0
M  V30 9257 H 908.139 0.399876 1.7909 0
M  V30 9258 H 906.521 -1.3999 3.7043 0
M  V30 9259 H 907.695 1.37354 4.39853 0
M  V30 9260 H 906.01 1.0893 4.019 0
M  V30 9261 H 908.607 -1.45362 5.14562 0
M  V30 9262 H 908.95 -2.13435 3.57423 0
M  V30 9263 H 909.483 -0.477485 3.94924 0
M  V30 9264 H 906.222 1.17791 6.4483 0
M  V30 9265 H 905.742 -0.469292 5.97961 0
M  V30 9266 H 907.421 -0.131471 6.46866 0
M  V30 9267 N 907.553 -1.57587 0.0200696 0
M  V30 9268 C 908.781 -1.95718 -0.670964 0
M  V30 9269 C 909.196 -0.896081 -1.6618 0
M  V30 9270 O 908.553 0.123037 -1.82085 0
M  V30 9271 C 908.604 -3.33904 -1.38529 0
M  V30 9272 O 908.325 -4.35943 -0.434167 0
M  V30 9273 C 909.826 -3.86614 -2.16898 0
M  V30 9274 H 907.046 -0.644819 -0.185606 0
M  V30 9275 H 909.59 -2.04354 0.0771495 0
M  V30 9276 H 907.745 -3.26515 -2.08487 0
M  V30 9277 H 908.159 -5.16001 -0.940378 0
M  V30 9278 H 909.633 -4.85673 -2.62346 0
M  V30 9279 H 910.11 -3.20379 -3.00423 0
M  V30 9280 H 910.716 -3.97243 -1.51916 0
M  V30 9281 N 909.032 0.252966 -1.55557 0
M  V30 9282 C 909.942 1.33472 -1.92931 0
M  V30 9283 C 910.958 1.52983 -0.828985 0
M  V30 9284 O 912.134 1.66723 -1.12984 0
M  V30 9285 C 909.199 2.6704 -2.21112 0
M  V30 9286 C 908.26 2.56103 -3.44542 0
M  V30 9287 C 907.493 3.83302 -3.71369 0
M  V30 9288 O 907.716 4.84907 -3.00368 0
M  V30 9289 O 906.65 3.823 -4.64898 0
M  V30 9290 H 910.476 1.04768 -2.85057 0
M  V30 9291 H 908.061 0.453208 -1.4236 0
M  V30 9292 H 909.943 3.45981 -2.40572 0
M  V30 9293 H 908.618 2.95489 -1.32166 0
M  V30 9294 H 907.525 1.7547 -3.30396 0
M  V30 9295 H 908.858 2.32601 -4.33772 0
M  V30 9296 N 910.51 1.48831 0.518367 0
M  V30 9297 C 911.758 1.57128 1.27103 0
M  V30 9298 C 912.079 0.252098 1.93364 0
M  V30 9299 O 911.349 -0.727281 1.819 0
M  V30 9300 H 909.929 0.578891 0.472116 0
M  V30 9301 H 912.591 1.85361 0.602262 0
M  V30 9302 H 911.687 2.35838 2.04418 0
M  V30 9303 N 911.988 -0.768124 1.37614 0
M  V30 9304 C 912.951 -1.86314 1.3349 0
M  V30 9305 C 913.951 -1.59025 0.23823 0
M  V30 9306 O 915.141 -1.6704 0.494288 0
M  V30 9307 C 912.273 -3.23519 1.07462 0
M  V30 9308 H 913.466 -1.91382 2.30896 0
M  V30 9309 H 911.019 -0.968267 1.22696 0
M  V30 9310 H 911.754 -3.24127 0.106028 0
M  V30 9311 H 911.539 -3.44719 1.86846 0
M  V30 9312 H 913.029 -4.03597 1.07236 0
M  V30 9313 N 913.466 -1.22244 -0.994698 0
M  V30 9314 C 914.414 -0.988118 -2.10568 0
M  V30 9315 C 915.408 0.0681541 -1.69263 0
M  V30 9316 O 916.614 -0.0841311 -1.79803 0
M  V30 9317 H 912.989 -0.302343 -0.688544 0
M  V30 9318 H 914.96 -1.93091 -2.27505 0
M  V30 9319 C 913.709 -0.580557 -3.42819 0
M  V30 9320 H 913.032 -1.385 -3.75044 0
M  V30 9321 H 914.472 -0.456004 -4.21541 0
M  V30 9322 C 912.931 0.709692 -3.2934 0
M  V30 9323 O 913.461 1.76259 -3.60965 0
M  V30 9324 N 911.667 0.680155 -2.82528 0
M  V30 9325 H 911.214 -0.176977 -2.56991 0
M  V30 9326 H 911.172 1.54372 -2.73892 0
M  V30 9327 N 914.944 1.19125 -1.03184 0
M  V30 9328 C 916.191 1.88883 -0.730029 0
M  V30 9329 C 916.519 1.79807 0.741602 0
M  V30 9330 O 915.774 1.18686 1.55603 0
M  V30 9331 C 916.073 3.39052 -1.13041 0
M  V30 9332 C 915.739 3.68332 -2.60082 0
M  V30 9333 C 914.401 3.76033 -3.00254 0
M  V30 9334 C 916.753 3.81423 -3.55199 0
M  V30 9335 C 914.081 3.94296 -4.34451 0
M  V30 9336 C 916.433 4.012 -4.89103 0
M  V30 9337 C 915.097 4.07134 -5.28959 0
M  V30 9338 H 914.367 0.691172 -0.267137 0
M  V30 9339 H 917.014 1.41053 -1.29523 0
M  V30 9340 H 915.319 3.88801 -0.48386 0
M  V30 9341 H 917.016 3.91351 -0.874368 0
M  V30 9342 H 913.606 3.62948 -2.27961 0
M  V30 9343 H 917.79 3.74814 -3.25313 0
M  V30 9344 H 913.046 3.97131 -4.64863 0
M  V30 9345 H 917.22 4.10271 -5.62717 0
M  V30 9346 H 914.847 4.21038 -6.32954 0
M  V30 9347 N 916.422 0.810101 1.35185 0
M  V30 9348 C 917.668 0.392698 1.98962 0
M  V30 9349 C 918.001 -1.03835 1.64109 0
M  V30 9350 O 917.276 -1.721 0.9062 0
M  V30 9351 C 917.559 0.580349 3.55393 0
M  V30 9352 C 917.412 2.05658 4.00031 0
M  V30 9353 C 918.731 0.00822618 4.40099 0
M  V30 9354 H 915.85 0.144157 0.722764 0
M  V30 9355 H 918.492 1.02029 1.60281 0
M  V30 9356 H 916.642 0.0461106 3.88473 0
M  V30 9357 H 918.314 2.65348 3.77344 0
M  V30 9358 H 916.557 2.55174 3.50811 0
M  V30 9359 H 917.228 2.13875 5.08883 0
M  V30 9360 H 919.704 0.464517 4.13499 0
M  V30 9361 H 918.58 0.169414 5.48638 0
M  V30 9362 H 918.841 -1.08576 4.2856 0
M  V30 9363 N 917.9 -1.47166 0.563914 0
M  V30 9364 C 919.316 -1.58018 0.224173 0
M  V30 9365 C 919.516 -1.56163 -1.27339 0
M  V30 9366 O 918.572 -1.4686 -2.05398 0
M  V30 9367 C 919.885 -2.88236 0.856762 0
M  V30 9368 C 921.433 -3.01833 0.82861 0
M  V30 9369 C 921.908 -4.34761 1.44039 0
M  V30 9370 N 923.399 -4.41413 1.40388 0
M  V30 9371 C 924.134 -5.42845 1.84681 0
M  V30 9372 N 923.63 -6.51052 2.3686 0
M  V30 9373 N 925.423 -5.33931 1.75711 0
M  V30 9374 H 917.574 -1.46615 1.53681 0
M  V30 9375 H 919.837 -0.698195 0.64127 0
M  V30 9376 H 919.543 -2.95349 1.90949 0
M  V30 9377 H 919.417 -3.75537 0.353766 0
M  V30 9378 H 921.804 -2.94312 -0.215451 0
M  V30 9379 H 921.885 -2.16056 1.36943 0
M  V30 9380 H 921.529 -4.43037 2.48355 0
M  V30 9381 H 921.459 -5.1928 0.874953 0
M  V30 9382 H 923.95 -3.63811 1.02227 0
M  V30 9383 H 924.263 -7.24633 2.68564 0
M  V30 9384 H 922.608 -6.51924 2.40875 0
M  V30 9385 H 925.799 -4.48295 1.34718 0
M  V30 9386 H 925.972 -6.12841 2.10547 0
M  V30 9387 N 919.378 -0.300708 -1.54705 0
M  V30 9388 C 920.608 0.310819 -2.04249 0
M  V30 9389 C 921.016 1.4809 -1.17754 0
M  V30 9390 O 920.359 1.82654 -0.195779 0
M  V30 9391 C 920.421 0.83014 -3.49784 0
M  V30 9392 C 920.085 -0.214628 -4.56496 0
M  V30 9393 C 921.082 -1.04298 -5.09331 0
M  V30 9394 C 918.767 -0.356242 -5.01035 0
M  V30 9395 C 920.761 -1.99889 -6.05246 0
M  V30 9396 C 918.448 -1.3156 -5.96771 0
M  V30 9397 C 919.446 -2.1354 -6.4876 0
M  V30 9398 O 919.134 -3.07849 -7.4262 0
M  V30 9399 H 918.866 0.0715341 -0.672204 0
M  V30 9400 H 921.42 -0.438179 -2.00672 0
M  V30 9401 H 919.65 1.62966 -3.50684 0
M  V30 9402 H 921.339 1.35752 -3.82526 0
M  V30 9403 H 922.105 -0.944439 -4.75716 0
M  V30 9404 H 917.984 0.271916 -4.60197 0
M  V30 9405 H 921.528 -2.63917 -6.45751 0
M  V30 9406 H 917.425 -1.41486 -6.29803 0
M  V30 9407 H 918.193 -3.02824 -7.60421 0
M  V30 9408 N 920.856 1.57574 -0.0284266 0
M  V30 9409 C 921.819 2.09096 0.938691 0
M  V30 9410 C 922.819 1.00588 1.25454 0
M  V30 9411 O 924.009 1.2675 1.19499 0
M  V30 9412 C 921.141 2.55624 2.25542 0
M  V30 9413 H 922.334 2.95829 0.49248 0
M  V30 9414 H 919.887 1.5475 0.219594 0
M  V30 9415 H 920.622 1.72218 2.74793 0
M  V30 9416 H 920.407 3.34896 2.03929 0
M  V30 9417 H 921.897 2.95712 2.94863 0
M  V30 9418 N 922.334 -0.244713 1.55689 0
M  V30 9419 C 923.611 -0.995407 1.68378 0
M  V30 9420 C 923.991 -2.03288 0.568949 0
M  V30 9421 O 923.339 -2.24469 -0.427299 0
M  V30 9422 C 923.549 -1.62678 3.08767 0
M  V30 9423 C 924.897 -2.1278 3.67437 0
M  V30 9424 O 925.921 -1.72614 3.11581 0
M  V30 9425 O 924.78 -2.86536 4.65359 0
M  V30 9426 H 921.874 -0.463476 0.684923 0
M  V30 9427 H 924.42 -0.238326 1.68018 0
M  V30 9428 H 923.192 -0.876469 3.81358 0
M  V30 9429 H 922.815 -2.45 3.13146 0
M  V30 9430 N 923.813 -1.49104 -0.510467 0
M  V30 9431 C 925.06 -1.58112 -1.26518 0
M  V30 9432 C 925.388 -0.263603 -1.92705 0
M  V30 9433 O 924.643 0.747743 -1.80852 0
M  V30 9434 C 924.942 -2.68259 -2.36161 0
M  V30 9435 C 924.608 -4.10069 -1.87495 0
M  V30 9436 C 923.27 -4.48662 -1.73942 0
M  V30 9437 C 925.622 -4.98859 -1.5096 0
M  V30 9438 C 922.95 -5.73829 -1.22217 0
M  V30 9439 C 925.302 -6.24535 -1.00691 0
M  V30 9440 C 923.966 -6.61967 -0.857691 0
M  V30 9441 H 923.236 -0.578574 -0.462962 0
M  V30 9442 H 925.883 -1.82899 -0.567475 0
M  V30 9443 H 924.188 -2.37407 -3.11681 0
M  V30 9444 H 925.885 -2.7244 -2.9424 0
M  V30 9445 H 922.475 -3.79601 -1.99001 0
M  V30 9446 H 926.659 -4.69706 -1.60282 0
M  V30 9447 H 921.915 -6.01539 -1.09368 0
M  V30 9448 H 926.089 -6.9272 -0.71498 0
M  V30 9449 H 923.716 -7.58839 -0.454702 0
M  V30 9450 N 925.291 0.760815 -1.38019 0
M  V30 9451 C 926.707 1.06289 -1.19058 0
M  V30 9452 C 926.907 2.01471 -0.0342603 0
M  V30 9453 O 925.963 2.44713 0.62224 0
M  V30 9454 C 927.276 1.6499 -2.51394 0
M  V30 9455 C 928.824 1.77196 -2.58013 0
M  V30 9456 C 929.299 2.3931 -3.90506 0
M  V30 9457 N 930.79 2.46749 -3.92007 0
M  V30 9458 C 931.525 2.95687 -4.91281 0
M  V30 9459 N 931.021 3.44715 -6.00952 0
M  V30 9460 N 932.814 2.94661 -4.78677 0
M  V30 9461 H 924.965 0.129045 -2.12008 0
M  V30 9462 H 927.228 0.119878 -0.94039 0
M  V30 9463 H 926.934 1.0252 -3.36426 0
M  V30 9464 H 926.808 2.64146 -2.6927 0
M  V30 9465 H 929.195 2.38796 -1.7338 0
M  V30 9466 H 929.276 0.767645 -2.4401 0
M  V30 9467 H 928.92 1.78346 -4.75558 0
M  V30 9468 H 928.85 3.40369 -4.01817 0
M  V30 9469 H 931.341 2.12064 -3.12789 0
M  V30 9470 H 931.654 3.80492 -6.72641 0
M  V30 9471 H 929.999 3.42791 -6.04582 0
M  V30 9472 H 933.19 2.55665 -3.92113 0
M  V30 9473 H 933.363 3.32489 -5.56197 0
M  V30 9474 N 926.769 1.22769 0.988202 0
M  V30 9475 C 927.679 1.01844 2.11341 0
M  V30 9476 C 928.695 -0.0346937 1.73965 0
M  V30 9477 O 929.871 0.159061 2.00771 0
M  V30 9478 C 926.936 0.603837 3.41401 0
M  V30 9479 C 925.997 1.73113 3.92849 0
M  V30 9480 C 925.23 1.33621 5.16702 0
M  V30 9481 O 925.453 0.217041 5.69987 0
M  V30 9482 O 924.387 2.15444 5.62021 0
M  V30 9483 H 928.213 1.96127 2.31879 0
M  V30 9484 H 925.798 1.01405 1.09715 0
M  V30 9485 H 927.68 0.383196 4.19654 0
M  V30 9486 H 926.355 -0.310082 3.22211 0
M  V30 9487 H 925.262 2.00634 3.15748 0
M  V30 9488 H 926.595 2.62308 4.1648 0
M  V30 9489 N 928.247 -1.18576 1.03814 0
M  V30 9490 C 929.524 -1.8433 0.654358 0
M  V30 9491 C 929.904 -1.92504 -0.866338 0
M  V30 9492 O 929.252 -1.44904 -1.76678 0
M  V30 9493 C 929.462 -3.22778 1.32723 0
M  V30 9494 C 930.81 -3.98841 1.45641 0
M  V30 9495 O 931.834 -3.32209 1.28514 0
M  V30 9496 O 930.693 -5.18219 1.73526 0
M  V30 9497 H 927.787 -0.794766 0.228638 0
M  V30 9498 H 930.333 -1.25989 1.13687 0
M  V30 9499 H 929.105 -3.11717 2.36534 0
M  V30 9500 H 928.728 -3.88772 0.833176 0
M  V30 9501 N 929.725 -0.817259 -1.34754 0
M  V30 9502 C 931.136 -0.462215 -1.80888 0
M  V30 9503 C 931.487 1.01685 -1.67794 0
M  V30 9504 O 930.612 1.79094 -1.21468 0
M  V30 9505 C 931.207 -0.832204 -3.2842 0
M  V30 9506 C 929.766 -0.52961 -3.72655 0
M  V30 9507 C 928.913 -1.05214 -2.56564 0
M  V30 9508 H 931.864 -1.00795 -1.22581 0
M  V30 9509 H 931.885 -0.133804 -3.80265 0
M  V30 9510 H 931.397 -1.90873 -3.37919 0
M  V30 9511 H 929.498 0.537743 -3.68699 0
M  V30 9512 H 929.611 -1.06971 -4.67005 0
M  V30 9513 H 927.975 -0.473949 -2.50251 0
M  V30 9514 H 928.758 -2.135 -2.68836 0
M  V30 9515 N 931.203 1.46865 -0.571711 0
M  V30 9516 C 932.133 2.3298 0.155795 0
M  V30 9517 C 933.114 1.44678 0.894553 0
M  V30 9518 O 934.299 1.73513 0.872176 0
M  V30 9519 C 931.429 3.26745 1.17708 0
M  V30 9520 C 930.383 4.24401 0.553863 0
M  V30 9521 C 929.709 5.07595 1.68083 0
M  V30 9522 C 931.009 5.19884 -0.501827 0
M  V30 9523 H 932.703 2.94056 -0.563176 0
M  V30 9524 H 930.249 1.41402 -0.27228 0
M  V30 9525 H 932.202 3.85838 1.6943 0
M  V30 9526 H 930.926 2.63753 1.92618 0
M  V30 9527 H 929.585 3.66554 0.057815 0
M  V30 9528 H 929.233 4.40996 2.41933 0
M  V30 9529 H 928.933 5.73722 1.26953 0
M  V30 9530 H 930.457 5.6955 2.20103 0
M  V30 9531 H 931.871 5.73257 -0.0701057 0
M  V30 9532 H 930.268 5.94293 -0.832815 0
M  V30 9533 H 931.338 4.64482 -1.39229 0
M  V30 9534 N 932.681 0.308908 1.54543 0
M  V30 9535 C 933.928 -0.298036 2.00295 0
M  V30 9536 C 934.256 -1.53285 1.19724 0
M  V30 9537 O 933.511 -1.93917 0.263551 0
M  V30 9538 C 933.81 -0.691522 3.50646 0
M  V30 9539 C 933.476 0.442454 4.48724 0
M  V30 9540 C 932.138 0.753739 4.7526 0
M  V30 9541 C 934.49 1.20488 5.07082 0
M  V30 9542 C 931.818 1.83044 5.57415 0
M  V30 9543 C 934.17 2.27156 5.90409 0
M  V30 9544 C 932.834 2.58882 6.15253 0
M  V30 9545 H 932.104 -0.109059 0.73293 0
M  V30 9546 H 934.751 0.429647 1.86618 0
M  V30 9547 H 933.056 -1.49941 3.61974 0
M  V30 9548 H 934.753 -1.17244 3.83477 0
M  V30 9549 H 931.343 0.189744 4.2818 0
M  V30 9550 H 935.527 0.977653 4.86575 0
M  V30 9551 H 930.783 2.08088 5.749 0
M  V30 9552 H 934.957 2.86687 6.34652 0
M  V30 9553 H 932.584 3.42443 6.78702 0
M  V30 9554 N 934.159 -1.57557 0.0367827 0
M  V30 9555 C 935.107 -2.11844 -0.960454 0
M  V30 9556 C 936.101 -1.04681 -1.33185 0
M  V30 9557 O 937.307 -1.23108 -1.31318 0
M  V30 9558 H 933.682 -0.676921 -0.32754 0
M  V30 9559 H 935.653 -2.94557 -0.477346 0
M  V30 9560 C 934.402 -2.66683 -2.23105 0
M  V30 9561 H 933.725 -3.48795 -1.95403 0
M  V30 9562 H 935.165 -3.08305 -2.91074 0
M  V30 9563 C 933.624 -1.59782 -2.96599 0
M  V30 9564 O 934.154 -1.00214 -3.88999 0
M  V30 9565 N 932.36 -1.31644 -2.59072 0
M  V30 9566 H 931.907 -1.80272 -1.8401 0
M  V30 9567 H 931.865 -0.603457 -3.08554 0
M  V30 9568 N 935.637 0.236453 -1.55816 0
M  V30 9569 C 937.048 0.80468 -1.68469 0
M  V30 9570 C 937.399 1.85601 -0.636133 0
M  V30 9571 O 936.524 2.15323 0.215622 0
M  V30 9572 C 937.119 1.46634 -3.05424 0
M  V30 9573 C 935.678 1.98214 -3.19981 0
M  V30 9574 C 934.825 0.83695 -2.64368 0
M  V30 9575 H 937.776 0.0120647 -1.58695 0
M  V30 9576 H 937.797 2.33472 -3.00451 0
M  V30 9577 H 937.309 0.700931 -3.81718 0
M  V30 9578 H 935.41 2.77604 -2.4853 0
M  V30 9579 H 935.523 2.17235 -4.2702 0
M  V30 9580 H 933.887 1.24028 -2.22462 0
M  V30 9581 H 934.67 0.084451 -3.43196 0
M  V30 9582 N 937.115 1.49373 0.502552 0
M  V30 9583 C 938.045 1.68839 1.61294 0
M  V30 9584 C 939.026 0.537096 1.61398 0
M  V30 9585 O 940.211 0.772764 1.78163 0
M  V30 9586 C 937.341 1.75347 2.99784 0
M  V30 9587 C 936.295 2.90251 3.14545 0
M  V30 9588 C 935.621 2.8187 4.54371 0
M  V30 9589 C 936.921 4.31207 2.94717 0
M  V30 9590 H 938.615 2.61803 1.45257 0
M  V30 9591 H 936.161 1.25987 0.697371 0
M  V30 9592 H 938.114 1.87552 3.77362 0
M  V30 9593 H 936.838 0.789814 3.16906 0
M  V30 9594 H 935.497 2.77646 2.39392 0
M  V30 9595 H 935.145 1.83416 4.68367 0
M  V30 9596 H 934.845 3.5899 4.65188 0
M  V30 9597 H 936.369 2.96081 5.34012 0
M  V30 9598 H 937.783 4.44501 3.62065 0
M  V30 9599 H 936.18 5.09536 3.17007 0
M  V30 9600 H 937.25 4.45759 1.90857 0
M  V30 9601 N 938.594 -0.753485 1.38421 0
M  V30 9602 C 939.842 -1.50962 1.34368 0
M  V30 9603 C 940.163 -1.94889 -0.0656895 0
M  V30 9604 O 939.433 -1.67652 -1.01339 0
M  V30 9605 H 938.013 -0.559967 0.494415 0
M  V30 9606 H 940.675 -0.895665 1.73101 0
M  V30 9607 H 939.771 -2.40048 1.99458 0
M  V30 9608 N 940.072 -1.23292 -0.981677 0
M  V30 9609 C 941.3 -1.09088 -1.75805 0
M  V30 9610 C 941.715 0.357746 -1.8538 0
M  V30 9611 O 941.072 1.24751 -1.33205 0
M  V30 9612 C 941.123 -1.70885 -3.1856 0
M  V30 9613 O 940.844 -3.10082 -3.09484 0
M  V30 9614 C 942.345 -1.62106 -4.12597 0
M  V30 9615 H 939.565 -0.38184 -0.55176 0
M  V30 9616 H 942.109 -1.63116 -1.23342 0
M  V30 9617 H 940.264 -1.20893 -3.68054 0
M  V30 9618 H 940.678 -3.40039 -3.99342 0
M  V30 9619 H 942.152 -2.10049 -5.10474 0
M  V30 9620 H 942.629 -0.579642 -4.35358 0
M  V30 9621 H 943.235 -2.11457 -3.69007 0
M  V30 9622 N 941.55 1.18024 -1.04442 0
M  V30 9623 C 942.961 1.69749 -0.777312 0
M  V30 9624 C 943.312 1.83234 0.701399 0
M  V30 9625 O 942.437 1.51452 1.54568 0
M  V30 9626 C 943.032 3.08321 -1.40441 0
M  V30 9627 C 941.591 3.57243 -1.18553 0
M  V30 9628 C 940.738 2.33695 -1.49271 0
M  V30 9629 H 943.689 1.02647 -1.21035 0
M  V30 9630 H 943.71 3.71787 -0.809628 0
M  V30 9631 H 943.222 2.98474 -2.48062 0
M  V30 9632 H 941.323 3.72379 -0.128221 0
M  V30 9633 H 941.436 4.40451 -1.88519 0
M  V30 9634 H 939.8 2.37792 -0.912526 0
M  V30 9635 H 940.583 2.26464 -2.5801 0
M  V30 9636 N 943.028 0.824394 1.34319 0
M  V30 9637 C 944.253 0.425194 2.02995 0
M  V30 9638 C 944.678 -0.961476 1.6167 0
M  V30 9639 O 944.036 -1.62593 0.80207 0
M  V30 9640 C 944.084 0.537004 3.56579 0
M  V30 9641 O 943.188 -0.442576 4.10018 0
M  V30 9642 H 942.529 0.174853 0.640564 0
M  V30 9643 H 945.059 1.11522 1.71534 0
M  V30 9644 H 945.069 0.413311 4.05901 0
M  V30 9645 H 943.744 1.54836 3.86004 0
M  V30 9646 H 942.321 -0.277644 3.71865 0
M  V30 9647 N 944.506 -1.46559 0.579492 0
M  V30 9648 C 945.754 -2.02 0.0637157 0
M  V30 9649 C 946.075 -1.45378 -1.29962 0
M  V30 9650 O 945.345 -0.637262 -1.85245 0
M  V30 9651 H 943.925 -0.746717 0.0205638 0
M  V30 9652 H 946.587 -1.79702 0.754544 0
M  V30 9653 H 945.683 -3.12099 -0.00770254 0
M  V30 9654 N 945.984 -0.3171 -1.54377 0
M  V30 9655 C 946.914 0.544623 -2.2706 0
M  V30 9656 C 947.895 1.12469 -1.27611 0
M  V30 9657 O 949.08 1.15103 -1.56413 0
M  V30 9658 C 946.21 1.70879 -3.02353 0
M  V30 9659 C 945.164 1.25833 -4.09084 0
M  V30 9660 C 944.49 2.50894 -4.72182 0
M  V30 9661 C 945.79 0.377876 -5.20931 0
M  V30 9662 H 947.484 -0.0616372 -2.99337 0
M  V30 9663 H 945.03 -0.0310848 -1.43966 0
M  V30 9664 H 946.983 2.31787 -3.51927 0
M  V30 9665 H 945.707 2.34155 -2.27682 0
M  V30 9666 H 944.366 0.672228 -3.60384 0
M  V30 9667 H 944.014 3.12518 -3.94134 0
M  V30 9668 H 943.714 2.21447 -5.44275 0
M  V30 9669 H 945.238 3.12575 -5.24528 0
M  V30 9670 H 946.652 0.893056 -5.66302 0
M  V30 9671 H 945.049 0.176474 -5.9984 0
M  V30 9672 H 946.119 -0.592943 -4.81261 0
M  V30 9673 N 947.462 1.57535 -0.0451378 0
M  V30 9674 C 948.711 1.91628 0.629415 0
M  V30 9675 C 949.024 0.924754 1.72359 0
M  V30 9676 O 950.23 1.15751 2.45589 0
M  V30 9677 C 948.686 3.40322 1.17084 0
M  V30 9678 C 948.294 4.47867 0.109101 0
M  V30 9679 C 950.038 3.83458 1.82099 0
M  V30 9680 C 947.945 5.87671 0.663072 0
M  V30 9681 H 946.875 0.715163 0.238868 0
M  V30 9682 H 949.526 1.83151 -0.113046 0
M  V30 9683 H 947.908 3.43783 1.96543 0
M  V30 9684 H 949.082 4.55988 -0.664201 0
M  V30 9685 H 947.397 4.14034 -0.443227 0
M  V30 9686 H 949.994 4.85273 2.2453 0
M  V30 9687 H 950.337 3.19379 2.67026 0
M  V30 9688 H 950.87 3.82488 1.09305 0
M  V30 9689 H 947.609 6.55332 -0.148423 0
M  V30 9690 H 947.129 5.83124 1.4045 0
M  V30 9691 H 948.808 6.36737 1.14785 0
M  V30 9692 N 948.94 -0.228186 1.55939 0
M  V30 9693 C 949.85 -1.30386 1.9503 0
M  V30 9694 C 950.866 -1.51645 0.853218 0
M  V30 9695 O 952.042 -1.64904 1.15623 0
M  V30 9696 C 949.107 -2.63489 2.25332 0
M  V30 9697 C 948.168 -2.5059 3.48573 0
M  V30 9698 C 947.401 -3.77345 3.7742 0
M  V30 9699 O 947.624 -4.80067 3.08045 0
M  V30 9700 O 946.558 -3.74855 4.70922 0
M  V30 9701 H 950.384 -1.0022 2.86687 0
M  V30 9702 H 947.969 -0.430503 1.43063 0
M  V30 9703 H 949.851 -3.4211 2.46046 0
M  V30 9704 H 948.526 -2.93349 1.3685 0
M  V30 9705 H 947.433 -1.70191 3.33145 0
M  V30 9706 H 948.766 -2.2567 4.37417 0
M  V30 9707 N 950.418 -1.49637 -0.494624 0
M  V30 9708 C 951.667 -1.58691 -1.24499 0
M  V30 9709 C 951.98 -0.281763 -1.9356 0
M  V30 9710 O 953.186 -0.250925 -2.70338 0
M  V30 9711 C 951.642 -2.8002 -2.26091 0
M  V30 9712 C 951.25 -4.17318 -1.6294 0
M  V30 9713 C 952.994 -2.98407 -3.01916 0
M  V30 9714 C 950.901 -5.29862 -2.62679 0
M  V30 9715 H 949.831 -0.590888 -0.468367 0
M  V30 9716 H 952.482 -1.76034 -0.518112 0
M  V30 9717 H 950.864 -2.56185 -3.01969 0
M  V30 9718 H 952.038 -4.51315 -0.930108 0
M  V30 9719 H 950.353 -4.04342 -0.994819 0
M  V30 9720 H 952.95 -3.79658 -3.76516 0
M  V30 9721 H 953.293 -2.09214 -3.5991 0
M  V30 9722 H 953.826 -3.22312 -2.33152 0
M  V30 9723 H 950.565 -6.21134 -2.09458 0
M  V30 9724 H 950.085 -5.00311 -3.3083 0
M  V30 9725 H 951.764 -5.59461 -3.2498 0
M  V30 9726 N 951.896 0.746133 -1.38819 0
M  V30 9727 C 953.126 1.53316 -1.38484 0
M  V30 9728 C 953.534 1.89183 0.0253332 0
M  V30 9729 O 952.877 1.5382 1.00424 0
M  V30 9730 C 952.939 2.85623 -2.18311 0
M  V30 9731 C 952.603 2.72253 -3.67052 0
M  V30 9732 C 953.6 2.41547 -4.60381 0
M  V30 9733 C 951.285 2.89472 -4.10501 0
M  V30 9734 C 953.279 2.28226 -5.9514 0
M  V30 9735 C 950.966 2.7577 -5.45338 0
M  V30 9736 C 951.964 2.45191 -6.37472 0
M  V30 9737 O 951.652 2.31561 -7.69828 0
M  V30 9738 H 951.384 0.480763 -0.475229 0
M  V30 9739 H 953.938 0.93057 -1.83111 0
M  V30 9740 H 952.168 3.481 -1.68414 0
M  V30 9741 H 953.857 3.47178 -2.10291 0
M  V30 9742 H 954.623 2.27905 -4.28117 0
M  V30 9743 H 950.502 3.12269 -3.3913 0
M  V30 9744 H 954.046 2.04279 -6.6702 0
M  V30 9745 H 949.943 2.88987 -5.77197 0
M  V30 9746 H 950.711 2.46716 -7.80432 0
M  V30 9747 N 953.375 1.23811 0.975125 0
M  V30 9748 C 954.6 1.10109 1.75757 0
M  V30 9749 C 955.025 -0.342922 1.84948 0
M  V30 9750 O 954.383 -1.24814 1.31496 0
M  V30 9751 C 954.431 1.73724 3.15994 0
M  V30 9752 O 953.535 1.00297 4.00018 0
M  V30 9753 H 952.876 0.385627 0.540544 0
M  V30 9754 H 955.406 1.63971 1.22372 0
M  V30 9755 H 955.416 1.79178 3.6655 0
M  V30 9756 H 954.091 2.78794 3.0862 0
M  V30 9757 H 952.668 1.02575 3.58515 0
M  V30 9758 N 954.853 -1.17469 1.05066 0
M  V30 9759 C 955.8 -2.21443 0.650512 0
M  V30 9760 C 956.77 -1.62441 -0.346702 0
M  V30 9761 O 957.955 -1.89305 -0.238404 0
M  V30 9762 C 955.095 -3.45087 0.0301014 0
M  V30 9763 C 954.208 -4.18385 1.07599 0
M  V30 9764 C 953.343 -5.29513 0.423038 0
M  V30 9765 C 952.382 -5.94596 1.45333 0
M  V30 9766 N 951.519 -6.97241 0.824623 0
M  V30 9767 H 956.359 -2.55025 1.54163 0
M  V30 9768 H 953.896 -1.25274 0.771032 0
M  V30 9769 H 955.854 -4.15754 -0.347032 0
M  V30 9770 H 954.484 -3.12093 -0.824481 0
M  V30 9771 H 953.536 -3.46446 1.57097 0
M  V30 9772 H 954.848 -4.62899 1.85813 0
M  V30 9773 H 954.002 -6.067 -0.00774975 0
M  V30 9774 H 952.741 -4.86129 -0.391092 0
M  V30 9775 H 951.746 -5.16142 1.89415 0
M  V30 9776 H 952.971 -6.40061 2.26934 0
M  V30 9777 H 950.917 -6.55993 0.0309804 0
M  V30 9778 H 950.834 -7.40059 1.54432 0
M  V30 9779 H 952.102 -7.78375 0.418567 0
M  V30 9780 N 956.331 -0.831506 -1.3388 0
M  V30 9781 C 957.279 -0.247896 -2.31275 0
M  V30 9782 C 958.273 0.616083 -1.578 0
M  V30 9783 O 959.479 0.506465 -1.72728 0
M  V30 9784 H 955.854 -0.0614293 -0.749487 0
M  V30 9785 H 957.825 -1.08401 -2.78014 0
M  V30 9786 C 956.574 0.568434 -3.43022 0
M  V30 9787 H 955.897 -0.0870654 -3.99705 0
M  V30 9788 H 957.337 0.942751 -4.13386 0
M  V30 9789 C 955.796 1.74431 -2.88228 0
M  V30 9790 O 956.326 2.84278 -2.83811 0
M  V30 9791 N 954.532 1.56382 -2.44935 0
M  V30 9792 H 954.079 0.670255 -2.48727 0
M  V30 9793 H 954.037 2.35208 -2.08625 0
M  V30 9794 N 957.809 1.4625 -0.587256 0
M  V30 9795 C 959.058 2.01571 -0.0722643 0
M  V30 9796 C 959.371 1.46385 1.29733 0
M  V30 9797 O 960.577 1.93554 1.90392 0
M  V30 9798 C 959.033 3.59814 -0.078579 0
M  V30 9799 C 958.641 4.23996 -1.44678 0
M  V30 9800 C 960.385 4.22776 0.382231 0
M  V30 9801 C 958.292 5.74332 -1.41057 0
M  V30 9802 H 957.222 0.753642 -0.0232461 0
M  V30 9803 H 959.873 1.67936 -0.739577 0
M  V30 9804 H 958.255 3.90546 0.654988 0
M  V30 9805 H 959.429 4.04867 -2.20043 0
M  V30 9806 H 957.744 3.73147 -1.84799 0
M  V30 9807 H 960.341 5.32983 0.428182 0
M  V30 9808 H 960.684 3.92027 1.40072 0
M  V30 9809 H 961.217 3.96687 -0.297417 0
M  V30 9810 H 957.956 6.09747 -2.40601 0
M  V30 9811 H 957.476 5.95711 -0.699185 0
M  V30 9812 H 959.155 6.37137 -1.12543 0
M  V30 9813 N 959.287 0.325282 1.54207 0
M  V30 9814 C 960.197 -0.548778 2.28091 0
M  V30 9815 C 961.213 -1.12772 1.32508 0
M  V30 9816 O 962.389 -1.14732 1.65525 0
M  V30 9817 C 959.454 -1.69284 3.02562 0
M  V30 9818 C 958.515 -1.14553 4.13734 0
M  V30 9819 C 957.748 -2.23506 4.84645 0
M  V30 9820 O 957.971 -3.43884 4.55082 0
M  V30 9821 O 956.905 -1.88828 5.71513 0
M  V30 9822 H 960.731 0.0512974 3.03657 0
M  V30 9823 H 958.316 0.0909159 1.49123 0
M  V30 9824 H 960.198 -2.35887 3.49192 0
M  V30 9825 H 958.873 -2.27906 2.2987 0
M  V30 9826 H 957.78 -0.444532 3.71449 0
M  V30 9827 H 959.113 -0.60441 4.88475 0
M  V30 9828 N 960.765 -1.57509 0.0534917 0
M  V30 9829 C 961.712 -2.11667 -0.920101 0
M  V30 9830 C 962.682 -1.0246 -1.30733 0
M  V30 9831 O 963.867 -1.30021 -1.39639 0
M  V30 9832 C 961.007 -2.66803 -2.18883 0
M  V30 9833 C 960.12 -3.90104 -1.85588 0
M  V30 9834 C 959.255 -4.33547 -3.06937 0
M  V30 9835 C 958.294 -5.49542 -2.69573 0
M  V30 9836 N 957.431 -5.88029 -3.83623 0
M  V30 9837 H 962.271 -2.94562 -0.451371 0
M  V30 9838 H 959.808 -1.45576 -0.211168 0
M  V30 9839 H 961.766 -2.96871 -2.93127 0
M  V30 9840 H 960.396 -1.86702 -2.63329 0
M  V30 9841 H 959.448 -3.66613 -1.01484 0
M  V30 9842 H 960.76 -4.74404 -1.54087 0
M  V30 9843 H 959.914 -4.6518 -3.89477 0
M  V30 9844 H 958.653 -3.48064 -3.41618 0
M  V30 9845 H 957.658 -5.17579 -1.8545 0
M  V30 9846 H 958.883 -6.36743 -2.36082 0
M  V30 9847 H 956.829 -5.05498 -4.181 0
M  V30 9848 H 956.746 -6.67025 -3.55828 0
M  V30 9849 H 958.014 -6.24277 -4.66796 0
M  V30 9850 N 962.243 0.219913 -1.56058 0
M  V30 9851 C 963.176 1.29978 -1.87566 0
M  V30 9852 C 964.154 1.45131 -0.733203 0
M  V30 9853 O 965.338 1.60917 -0.981729 0
M  V30 9854 C 962.465 2.66988 -2.08411 0
M  V30 9855 C 961.511 2.68842 -3.31099 0
M  V30 9856 S 962.344 2.22745 -4.86975 0
M  V30 9857 C 963.5 3.61627 -5.10859 0
M  V30 9858 H 963.733 1.03059 -2.78866 0
M  V30 9859 H 961.266 0.422233 -1.48514 0
M  V30 9860 H 963.224 3.45866 -2.21104 0
M  V30 9861 H 961.885 2.91131 -1.17905 0
M  V30 9862 H 961.078 3.69526 -3.42734 0
M  V30 9863 H 960.68 1.98028 -3.17271 0
M  V30 9864 H 962.972 4.57328 -4.99857 0
M  V30 9865 H 963.915 3.54906 -6.12737 0
M  V30 9866 H 964.323 3.55391 -4.38586 0
M  V30 9867 N 963.721 1.49897 0.486681 0
M  V30 9868 C 964.969 1.59789 1.23742 0
M  V30 9869 C 965.29 0.293056 1.92785 0
M  V30 9870 O 964.56 -0.688534 1.83401 0
M  V30 9871 H 963.14 0.588775 0.459731 0
M  V30 9872 H 965.802 1.86597 0.562808 0
M  V30 9873 H 964.898 2.40121 1.9937 0
M  V30 9874 N 965.199 -0.738761 1.39212 0
M  V30 9875 C 966.429 -1.5258 1.39295 0
M  V30 9876 C 966.837 -1.89194 -0.0153 0
M  V30 9877 O 966.18 -1.5435 -0.996073 0
M  V30 9878 C 966.242 -2.84462 2.19822 0
M  V30 9879 C 965.906 -2.70303 3.68491 0
M  V30 9880 C 966.903 -2.39102 4.61656 0
M  V30 9881 C 964.588 -2.87291 4.1203 0
M  V30 9882 C 966.582 -2.25066 5.96342 0
M  V30 9883 C 964.269 -2.72874 5.46793 0
M  V30 9884 C 965.267 -2.41807 6.38763 0
M  V30 9885 O 964.955 -2.27475 7.71045 0
M  V30 9886 H 964.687 -0.478236 0.477772 0
M  V30 9887 H 967.241 -0.920846 1.83602 0
M  V30 9888 H 965.471 -3.47202 1.70257 0
M  V30 9889 H 967.16 -3.46058 2.12129 0
M  V30 9890 H 967.926 -2.25632 4.2932 0
M  V30 9891 H 963.805 -3.10466 3.40781 0
M  V30 9892 H 967.349 -2.00739 6.68094 0
M  V30 9893 H 963.246 -2.85922 5.78722 0
M  V30 9894 H 964.014 -2.42574 7.81729 0
M  V30 9895 N 966.677 -1.24326 -0.968545 0
M  V30 9896 C 967.954 -0.990459 -1.68669 0
M  V30 9897 C 968.334 0.487487 -2.05394 0
M  V30 9898 O 967.682 1.46158 -1.75642 0
M  V30 9899 C 967.892 -1.91251 -2.91931 0
M  V30 9900 C 969.24 -2.18291 -3.6419 0
M  V30 9901 O 970.264 -1.88897 -3.01987 0
M  V30 9902 O 969.123 -2.68204 -4.76161 0
M  V30 9903 H 966.217 -0.374515 -0.737338 0
M  V30 9904 H 968.763 -1.35421 -1.02271 0
M  V30 9905 H 967.535 -2.9111 -2.61478 0
M  V30 9906 H 967.158 -1.55188 -3.66064 0
M  V30 9907 N 968.156 1.1691 -1.05688 0
M  V30 9908 C 969.433 1.83266 -0.683601 0
M  V30 9909 C 969.813 1.93858 0.835602 0
M  V30 9910 O 969.161 1.47696 1.7435 0
M  V30 9911 C 969.371 3.20625 -1.37842 0
M  V30 9912 C 970.719 3.96473 -1.51967 0
M  V30 9913 O 971.743 3.30122 -1.33783 0
M  V30 9914 O 970.602 5.15393 -1.81749 0
M  V30 9915 H 967.696 0.791028 -0.241254 0
M  V30 9916 H 970.242 1.24165 -1.15677 0
M  V30 9917 H 969.014 3.07914 -2.41463 0
M  V30 9918 H 968.637 3.87398 -0.894921 0
M  V30 9919 N 969.634 0.838594 1.33437 0
M  V30 9920 C 970.874 0.440239 1.99603 0
M  V30 9921 C 971.238 -0.982061 1.64984 0
M  V30 9922 O 972.439 -1.48413 2.24114 0
M  V30 9923 C 970.71 0.654201 3.51362 0
M  V30 9924 S 972.269 0.351025 4.37394 0
M  V30 9925 H 969.087 0.165608 0.691444 0
M  V30 9926 H 971.689 1.08782 1.6244 0
M  V30 9927 H 970.393 1.68873 3.74045 0
M  V30 9928 H 969.924 -0.00754449 3.93399 0
M  V30 9929 H 971.939 -0.829298 4.89221 0
M  V30 9930 N 971.112 -1.45937 0.595003 0
M  V30 9931 C 972.523 -1.85908 0.171779 0
M  V30 9932 C 972.874 -1.497 -1.26824 0
M  V30 9933 O 971.999 -0.917688 -1.95978 0
M  V30 9934 C 972.594 -3.37425 0.304976 0
M  V30 9935 C 971.153 -3.76346 -0.0634635 0
M  V30 9936 C 970.3 -2.69926 0.635255 0
M  V30 9937 H 973.251 -1.36916 0.802471 0
M  V30 9938 H 973.272 -3.77632 -0.466313 0
M  V30 9939 H 972.784 -3.63747 1.35314 0
M  V30 9940 H 970.885 -3.55642 -1.11129 0
M  V30 9941 H 970.998 -4.78021 0.321419 0
M  V30 9942 H 969.362 -2.54592 0.0742054 0
M  V30 9943 H 970.145 -2.99086 1.68531 0
M  V30 9944 N 972.59 -0.333456 -1.54032 0
M  V30 9945 C 973.553 0.515392 -2.2333 0
M  V30 9946 C 974.553 1.03566 -1.23007 0
M  V30 9947 O 975.743 0.926514 -1.47517 0
M  V30 9948 C 972.875 1.7169 -2.94508 0
M  V30 9949 H 974.068 -0.0905407 -2.99763 0
M  V30 9950 H 971.621 -0.0846651 -1.56071 0
M  V30 9951 H 972.356 2.3618 -2.22237 0
M  V30 9952 H 972.141 1.35115 -3.68085 0
M  V30 9953 H 973.631 2.31922 -3.47278 0
M  V30 9954 N 974.068 1.57479 -0.061844 0
M  V30 9955 C 975.018 2.0867 0.918749 0
M  V30 9956 C 976.002 0.994174 1.26511 0
M  V30 9957 O 977.194 1.25738 1.24575 0
M  V30 9958 C 974.323 2.64386 2.18986 0
M  V30 9959 C 973.409 3.80626 1.87042 0
M  V30 9960 N 973.8 4.89982 1.25504 0
M  V30 9961 C 972.098 3.89733 2.1685 0
M  V30 9962 C 972.799 5.70928 1.11429 0
M  V30 9963 N 971.775 5.18877 1.62072 0
M  V30 9964 H 975.577 2.90611 0.438469 0
M  V30 9965 H 973.091 1.61775 0.142321 0
M  V30 9966 H 975.088 2.9937 2.90144 0
M  V30 9967 H 973.748 1.83888 2.67611 0
M  V30 9968 H 974.759 5.09556 0.925914 0
M  V30 9969 H 971.436 3.20194 2.67921 0
M  V30 9970 H 972.826 6.68886 0.635665 0
M  V30 9971 N 975.546 -0.211634 1.56173 0
M  V30 9972 C 976.957 -0.777776 1.69728 0
M  V30 9973 C 977.308 -1.84566 0.66558 0
M  V30 9974 O 976.433 -2.15639 -0.181338 0
M  V30 9975 C 977.028 -1.41757 3.07718 0
M  V30 9976 C 975.587 -1.93098 3.23094 0
M  V30 9977 C 974.734 -0.794785 2.65666 0
M  V30 9978 H 977.685 0.0131839 1.58695 0
M  V30 9979 H 977.706 -2.28662 3.04128 0
M  V30 9980 H 977.218 -0.640114 3.82785 0
M  V30 9981 H 975.319 -2.73615 2.52914 0
M  V30 9982 H 975.432 -2.10414 4.30422 0
M  V30 9983 H 973.796 -1.20473 2.24407 0
M  V30 9984 H 974.579 -0.0298408 3.43287 0
M  V30 9985 N 977.024 -1.50153 -0.478725 0
M  V30 9986 C 978.252 -1.64505 -1.25482 0
M  V30 9987 C 978.667 -0.325295 -1.85977 0
M  V30 9988 O 978.024 0.691885 -1.68876 0
M  V30 9989 C 978.075 -2.73052 -2.36906 0
M  V30 9990 O 977.796 -3.99911 -1.78894 0
M  V30 9991 C 979.297 -2.98309 -3.27912 0
M  V30 9992 H 976.517 -0.55318 -0.379781 0
M  V30 9993 H 979.061 -1.96329 -0.57229 0
M  V30 9994 H 977.216 -2.43944 -3.00949 0
M  V30 9995 H 977.63 -4.5988 -2.52211 0
M  V30 9996 H 979.104 -3.77942 -4.02323 0
M  V30 9997 H 979.581 -2.09082 -3.8624 0
M  V30 9998 H 980.187 -3.2892 -2.69614 0
M  V30 9999 N 978.502 0.731368 -1.39602 0
M  V30 10000 C 979.748 1.49211 -1.38231 0
M  V30 10001 C 980.103 1.92389 0.020747 0
M  V30 10002 O 979.396 1.64161 0.988014 0
M  V30 10003 C 979.59 2.74224 -2.29208 0
M  V30 10004 C 979.419 2.4327 -3.78219 0
M  V30 10005 C 978.189 2.35387 -4.47125 0
M  V30 10006 C 980.387 2.08574 -4.70108 0
M  V30 10007 N 978.369 1.96942 -5.81452 0
M  V30 10008 C 979.74 1.80603 -5.93113 0
M  V30 10009 C 981.795 1.95074 -4.58095 0
M  V30 10010 C 980.498 1.40491 -7.05447 0
M  V30 10011 C 982.524 1.56365 -5.70354 0
M  V30 10012 C 981.886 1.29281 -6.92435 0
M  V30 10013 H 977.985 0.544703 -0.56109 0
M  V30 10014 H 980.569 0.849647 -1.75183 0
M  V30 10015 H 978.74 3.36244 -1.94408 0
M  V30 10016 H 980.472 3.40451 -2.18803 0
M  V30 10017 H 977.227 2.52604 -4.0061 0
M  V30 10018 H 977.651 1.80303 -6.52549 0
M  V30 10019 H 982.293 2.1468 -3.64242 0
M  V30 10020 H 980.011 1.19626 -7.99197 0
M  V30 10021 H 983.597 1.4652 -5.63048 0
M  V30 10022 H 982.477 0.997769 -7.77827 0
M  V30 10023 N 979.98 1.24838 0.961938 0
M  V30 10024 C 980.913 0.989041 2.05653 0
M  V30 10025 C 981.891 -0.079199 1.62407 0
M  V30 10026 O 983.075 0.0589397 1.88408 0
M  V30 10027 C 980.202 0.493661 3.35083 0
M  V30 10028 C 979.248 1.55132 3.97286 0
M  V30 10029 S 980.081 3.13438 4.34185 0
M  V30 10030 C 981.237 2.65617 5.66744 0
M  V30 10031 H 981.47 1.91588 2.27335 0
M  V30 10032 H 979.003 1.08287 1.10061 0
M  V30 10033 H 980.961 0.214482 4.09939 0
M  V30 10034 H 979.622 -0.412559 3.11379 0
M  V30 10035 H 978.815 1.15525 4.90581 0
M  V30 10036 H 978.417 1.78081 3.28882 0
M  V30 10037 H 980.709 2.08788 6.44526 0
M  V30 10038 H 981.652 3.57524 6.11214 0
M  V30 10039 H 982.06 2.05853 5.25628 0
M  V30 10040 N 981.458 -1.16348 1.06306 0
M  V30 10041 C 982.368 -2.24375 0.685059 0
M  V30 10042 C 983.384 -1.71413 -0.298956 0
M  V30 10043 O 984.56 -2.00854 -0.148239 0
M  V30 10044 C 981.625 -3.46614 0.0774088 0
M  V30 10045 C 980.686 -4.14613 1.11331 0
M  V30 10046 C 979.919 -5.31016 0.534559 0
M  V30 10047 O 980.142 -5.66654 -0.65265 0
M  V30 10048 O 979.076 -5.88256 1.27431 0
M  V30 10049 H 982.902 -2.59018 1.58566 0
M  V30 10050 H 980.487 -1.23865 0.835332 0
M  V30 10051 H 982.369 -4.20599 -0.259716 0
M  V30 10052 H 981.044 -3.13743 -0.796677 0
M  V30 10053 H 979.951 -3.42597 1.50261 0
M  V30 10054 H 981.284 -4.51538 1.95893 0
M  V30 10055 N 982.937 -0.845659 -1.3299 0
M  V30 10056 C 984.348 -0.50048 -1.79867 0
M  V30 10057 C 984.699 0.981027 -1.69913 0
M  V30 10058 O 983.824 1.76477 -1.25239 0
M  V30 10059 C 984.419 -0.901679 -3.26581 0
M  V30 10060 C 982.978 -0.608536 -3.71448 0
M  V30 10061 C 982.125 -1.10632 -2.54275 0
M  V30 10062 H 985.076 -1.03372 -1.20416 0
M  V30 10063 H 985.097 -0.214433 -3.79895 0
M  V30 10064 H 984.609 -1.97998 -3.33794 0
M  V30 10065 H 982.71 0.459416 -3.69757 0
M  V30 10066 H 982.823 -1.16853 -4.64631 0
M  V30 10067 H 981.187 -0.526925 -2.4919 0
M  V30 10068 H 981.97 -2.19154 -2.64247 0
M  V30 10069 N 984.415 1.45619 -0.602734 0
M  V30 10070 C 985.378 2.28941 0.108962 0
M  V30 10071 C 986.378 1.39501 0.799762 0
M  V30 10072 O 987.568 1.61673 0.648663 0
M  V30 10073 C 984.7 3.204 1.16432 0
M  V30 10074 H 985.893 2.93346 -0.623534 0
M  V30 10075 H 983.446 1.52061 -0.361565 0
M  V30 10076 H 984.181 2.60785 1.92774 0
M  V30 10077 H 983.966 3.86277 0.673248 0
M  V30 10078 H 985.456 3.83063 1.6629 0
M  V30 10079 N 985.893 0.34162 1.53853 0
M  V30 10080 C 986.803 -0.524555 2.2866 0
M  V30 10081 C 987.819 -1.1136 1.33697 0
M  V30 10082 O 988.995 -1.1297 1.66732 0
M  V30 10083 C 986.06 -1.66065 3.04341 0
M  V30 10084 C 985.121 -1.10158 4.14926 0
M  V30 10085 C 984.354 -2.18353 4.86988 0
M  V30 10086 O 984.577 -3.39038 4.58704 0
M  V30 10087 O 983.511 -1.82756 5.73484 0
M  V30 10088 H 987.337 0.0835014 3.03585 0
M  V30 10089 H 984.922 0.106727 1.49018 0
M  V30 10090 H 986.804 -2.3217 3.51674 0
M  V30 10091 H 985.479 -2.25456 2.32275 0
M  V30 10092 H 984.386 -0.405109 3.719 0
M  V30 10093 H 985.719 -0.552567 4.89088 0
M  V30 10094 N 987.371 -1.57444 0.0701946 0
M  V30 10095 C 988.787 -1.57009 -0.286431 0
M  V30 10096 C 988.987 -1.07946 -1.70147 0
M  V30 10097 O 988.043 -0.744622 -2.41271 0
M  V30 10098 C 989.356 -3.00542 -0.0975466 0
M  V30 10099 C 990.904 -3.12553 -0.167205 0
M  V30 10100 C 991.379 -4.58 -0.00662047 0
M  V30 10101 N 992.87 -4.63158 -0.0622778 0
M  V30 10102 C 993.605 -5.73388 0.0375831 0
M  V30 10103 N 993.101 -6.92537 0.190873 0
M  V30 10104 N 994.894 -5.62097 -0.0193672 0
M  V30 10105 H 987.045 -1.87651 0.995023 0
M  V30 10106 H 989.308 -0.865006 0.387902 0
M  V30 10107 H 989.014 -3.40543 0.878822 0
M  V30 10108 H 988.888 -3.67485 -0.850547 0
M  V30 10109 H 991.275 -2.72439 -1.13406 0
M  V30 10110 H 991.356 -2.48251 0.616871 0
M  V30 10111 H 991 -4.98803 0.956992 0
M  V30 10112 H 990.93 -5.20332 -0.810081 0
M  V30 10113 H 993.421 -3.77475 -0.179229 0
M  V30 10114 H 993.734 -7.72365 0.25926 0
M  V30 10115 H 992.079 -6.94632 0.226214 0
M  V30 10116 H 995.27 -4.67897 -0.137815 0
M  V30 10117 H 995.443 -6.4797 0.0619121 0
M  V30 10118 N 988.849 0.203349 -1.56283 0
M  V30 10119 C 989.779 1.2549 -1.96912 0
M  V30 10120 C 990.76 1.47919 -0.839884 0
M  V30 10121 O 991.945 1.59795 -1.10359 0
M  V30 10122 C 989.075 2.6009 -2.30153 0
M  V30 10123 C 988.029 2.52289 -3.45738 0
M  V30 10124 C 987.355 3.91086 -3.64632 0
M  V30 10125 C 988.655 2.05503 -4.80173 0
M  V30 10126 H 990.349 0.917306 -2.85002 0
M  V30 10127 H 987.895 0.439818 -1.37119 0
M  V30 10128 H 989.848 3.33829 -2.5717 0
M  V30 10129 H 988.572 2.95574 -1.38937 0
M  V30 10130 H 987.231 1.81006 -3.18798 0
M  V30 10131 H 986.879 4.23908 -2.7076 0
M  V30 10132 H 986.579 3.86742 -4.42385 0
M  V30 10133 H 988.103 4.66459 -3.94016 0
M  V30 10134 H 989.517 2.68995 -5.06275 0
M  V30 10135 H 987.914 2.1218 -5.61337 0
M  V30 10136 H 988.984 1.00793 -4.74309 0
M  V30 10137 N 990.327 1.50405 0.470755 0
M  V30 10138 C 991.575 1.61092 1.2204 0
M  V30 10139 C 991.896 0.313487 1.92464 0
M  V30 10140 O 991.166 -0.669043 1.84121 0
M  V30 10141 H 989.746 0.593618 0.45346 0
M  V30 10142 H 992.408 1.87184 0.542985 0
M  V30 10143 H 991.504 2.42222 1.96812 0
M  V30 10144 N 991.805 -0.723954 1.39988 0
M  V30 10145 C 993.053 -1.48078 1.3754 0
M  V30 10146 C 993.374 -1.94985 -0.0243358 0
M  V30 10147 O 992.644 -1.69764 -0.977602 0
M  V30 10148 H 991.224 -0.549354 0.506181 0
M  V30 10149 H 993.886 -0.858746 1.74962 0
M  V30 10150 H 992.982 -2.35763 2.04505 0
M  V30 10151 N 993.283 -1.25346 -0.955304 0
M  V30 10152 C 994.246 -1.05754 -2.03344 0
M  V30 10153 C 995.246 -0.0105743 -1.60797 0
M  V30 10154 O 996.436 -0.252699 -1.72357 0
M  V30 10155 C 993.568 -0.605536 -3.35479 0
M  V30 10156 H 994.761 -2.01459 -2.22158 0
M  V30 10157 H 992.314 -1.07744 -1.1323 0
M  V30 10158 H 993.049 0.354154 -3.2236 0
M  V30 10159 H 992.834 -1.36134 -3.67709 0
M  V30 10160 H 994.324 -0.489867 -4.14717 0
M  V30 10161 N 994.761 1.15782 -1.06922 0
M  V30 10162 C 996.009 1.86097 -0.788192 0
M  V30 10163 C 996.33 1.82475 0.687606 0
M  V30 10164 O 995.6 1.26266 1.49778 0
M  V30 10165 H 994.18 0.689008 -0.288577 0
M  V30 10166 H 996.842 1.40377 -1.35205 0
M  V30 10167 H 995.938 2.91358 -1.1188 0
M  V30 10168 N 996.239 0.8527 1.3254 0
M  V30 10169 C 997.202 0.300959 2.27215 0
M  V30 10170 C 998.202 -0.538235 1.51525 0
M  V30 10171 O 999.392 -0.350027 1.70647 0
M  V30 10172 C 996.524 -0.574428 3.36025 0
M  V30 10173 H 997.717 1.13655 2.77529 0
M  V30 10174 H 995.27 0.626878 1.43178 0
M  V30 10175 H 996.005 -1.43191 2.90976 0
M  V30 10176 H 995.79 0.0262265 3.92091 0
M  V30 10177 H 997.28 -0.9533 4.06573 0
M  V30 10178 N 997.718 -1.45297 0.610449 0
M  V30 10179 C 998.665 -2.30553 -0.106718 0
M  V30 10180 C 999.635 -1.42272 -0.85719 0
M  V30 10181 O 1000.82 -1.71199 -0.842357 0
M  V30 10182 C 997.96 -3.27226 -1.09623 0
M  V30 10183 C 997.073 -4.3061 -0.346329 0
M  V30 10184 C 996.208 -5.14389 -1.32581 0
M  V30 10185 C 995.247 -6.09497 -0.563892 0
M  V30 10186 N 994.384 -6.86047 -1.4928 0
M  V30 10187 H 999.224 -2.91344 0.626296 0
M  V30 10188 H 996.761 -1.43563 0.32065 0
M  V30 10189 H 998.719 -3.81744 -1.68308 0
M  V30 10190 H 997.349 -2.68182 -1.79662 0
M  V30 10191 H 996.401 -3.7873 0.356084 0
M  V30 10192 H 997.713 -4.98183 0.248026 0
M  V30 10193 H 996.867 -5.73321 -1.98464 0
M  V30 10194 H 995.606 -4.4684 -1.9541 0
M  V30 10195 H 994.611 -5.49693 0.108551 0
M  V30 10196 H 995.836 -6.79074 0.0593872 0
M  V30 10197 H 993.782 -6.21185 -2.10868 0
M  V30 10198 H 993.699 -7.49983 -0.951953 0
M  V30 10199 H 994.967 -7.49518 -2.14112 0
M  V30 10200 N 999.196 -0.349774 -1.5367 0
M  V30 10201 C 1000.43 0.245682 -2.05134 0
M  V30 10202 C 1000.83 1.44269 -1.22406 0
M  V30 10203 O 1000.18 1.81938 -0.25379 0
M  V30 10204 C 1000.24 0.718439 -3.52248 0
M  V30 10205 C 999.903 -0.35975 -4.55582 0
M  V30 10206 C 1000.9 -1.20449 -5.05755 0
M  V30 10207 C 998.585 -0.515463 -4.99648 0
M  V30 10208 C 1000.58 -2.19043 -5.98581 0
M  V30 10209 C 998.266 -1.50479 -5.92283 0
M  V30 10210 C 999.264 -2.34072 -6.41638 0
M  V30 10211 O 998.952 -3.31319 -7.3245 0
M  V30 10212 H 998.684 0.0501122 -0.67414 0
M  V30 10213 H 1001.24 -0.5018 -1.99176 0
M  V30 10214 H 999.468 1.51727 -3.55691 0
M  V30 10215 H 1001.16 1.23513 -3.86651 0
M  V30 10216 H 1001.92 -1.09531 -4.7247 0
M  V30 10217 H 997.802 0.12537 -4.60829 0
M  V30 10218 H 1001.35 -2.84327 -6.37027 0
M  V30 10219 H 997.243 -1.61451 -6.24983 0
M  V30 10220 H 998.011 -3.26863 -7.50402 0
M  V30 10221 N 1000.67 1.57404 -0.0785433 0
M  V30 10222 C 1002.08 1.81118 0.45311 0
M  V30 10223 C 1002.44 0.992963 1.69218 0
M  V30 10224 O 1001.56 0.217448 2.15305 0
M  V30 10225 C 1002.16 3.28506 0.82882 0
M  V30 10226 C 1000.71 3.53042 1.3053 0
M  V30 10227 C 999.862 2.75739 0.29378 0
M  V30 10228 H 1002.81 1.55758 -0.304171 0
M  V30 10229 H 1002.83 3.40924 1.68971 0
M  V30 10230 H 1002.35 3.88031 -0.0731826 0
M  V30 10231 H 1000.45 2.98829 2.22558 0
M  V30 10232 H 1000.56 4.61724 1.27857 0
M  V30 10233 H 998.924 2.42703 0.772477 0
M  V30 10234 H 999.707 3.38005 -0.600613 0
M  V30 10235 N 1002.15 -0.195058 1.56388 0
M  V30 10236 C 1003.08 -1.24444 1.97575 0
M  V30 10237 C 1004.06 -1.47471 0.847717 0
M  V30 10238 O 1005.25 -1.59208 1.11205 0
M  V30 10239 C 1002.38 -2.58866 2.31529 0
M  V30 10240 C 1001.33 -2.50451 3.47071 0
M  V30 10241 C 1000.66 -3.89146 3.667 0
M  V30 10242 C 1001.96 -2.02953 4.81256 0
M  V30 10243 H 1003.65 -0.902178 2.85484 0
M  V30 10244 H 1001.2 -0.43254 1.3735 0
M  V30 10245 H 1003.15 -3.3246 2.58936 0
M  V30 10246 H 1001.87 -2.94833 1.40502 0
M  V30 10247 H 1000.53 -1.79313 3.19754 0
M  V30 10248 H 1000.18 -4.22466 2.73004 0
M  V30 10249 H 999.882 -3.84391 4.44429 0
M  V30 10250 H 1001.41 -4.64363 3.96484 0
M  V30 10251 H 1002.82 -2.66306 5.07695 0
M  V30 10252 H 1001.22 -2.092 5.62455 0
M  V30 10253 H 1002.29 -0.982757 4.74837 0
M  V30 10254 N 1003.63 -1.50653 -0.462772 0
M  V30 10255 C 1004.58 -1.66509 -1.55752 0
M  V30 10256 C 1005.56 -0.519508 -1.52282 0
M  V30 10257 O 1006.76 -0.774296 -1.59166 0
M  V30 10258 C 1003.88 -1.77023 -2.94139 0
M  V30 10259 C 1002.97 -2.97284 -3.02461 0
M  V30 10260 N 1003.36 -4.20843 -2.80579 0
M  V30 10261 C 1001.66 -2.96014 -3.33604 0
M  V30 10262 C 1002.36 -5.01886 -2.94084 0
M  V30 10263 N 1001.34 -4.3601 -3.24648 0
M  V30 10264 H 1005.14 -2.59727 -1.37546 0
M  V30 10265 H 1002.65 -1.47951 -0.669653 0
M  V30 10266 H 1004.65 -1.86488 -3.72864 0
M  V30 10267 H 1003.31 -0.849688 -3.13385 0
M  V30 10268 H 1004.32 -4.50206 -2.55998 0
M  V30 10269 H 1001 -2.13493 -3.58786 0
M  V30 10270 H 1002.39 -6.10164 -2.81334 0
M  V30 10271 N 1005.11 0.71652 -1.4037 0
M  V30 10272 C 1006.35 1.47857 -1.38803 0
M  V30 10273 C 1006.69 1.94197 0.0100536 0
M  V30 10274 O 1005.96 1.68093 0.978521 0
M  V30 10275 C 1006.25 2.7053 -2.37667 0
M  V30 10276 C 1006.1 2.3009 -3.86496 0
M  V30 10277 C 1007.42 3.72684 -2.34082 0
M  V30 10278 H 1004.54 0.53632 -0.505499 0
M  V30 10279 H 1007.18 0.817824 -1.71498 0
M  V30 10280 H 1005.33 3.26906 -2.09916 0
M  V30 10281 H 1007 1.79202 -4.2507 0
M  V30 10282 H 1005.24 1.62102 -4.02375 0
M  V30 10283 H 1005.91 3.18018 -4.51186 0
M  V30 10284 H 1008.39 3.25935 -2.58661 0
M  V30 10285 H 1007.27 4.56157 -3.05306 0
M  V30 10286 H 1007.53 4.20916 -1.35213 0
M  V30 10287 N 1006.59 1.25851 0.948643 0
M  V30 10288 C 1007.83 1.11119 1.69648 0
M  V30 10289 C 1008.17 -0.345995 1.91093 0
M  V30 10290 O 1007.44 -1.25467 1.48621 0
M  V30 10291 C 1007.72 1.87261 3.0758 0
M  V30 10292 C 1007.58 3.40842 2.93507 0
M  V30 10293 C 1008.9 1.6605 4.07573 0
M  V30 10294 H 1006.01 0.405052 0.615713 0
M  V30 10295 H 1008.66 1.54756 1.10229 0
M  V30 10296 H 1006.81 1.50172 3.58303 0
M  V30 10297 H 1008.48 3.87641 2.50064 0
M  V30 10298 H 1006.72 3.68248 2.29294 0
M  V30 10299 H 1007.39 3.89339 3.91305 0
M  V30 10300 H 1009.87 1.98348 3.65783 0
M  V30 10301 H 1008.74 2.21753 5.02113 0
M  V30 10302 H 1009.01 0.603256 4.37965 0
M  V30 10303 N 1008.06 -1.15214 1.07534 0
M  V30 10304 C 1009.03 -2.18209 0.701237 0
M  V30 10305 C 1010.03 -1.58693 -0.25946 0
M  V30 10306 O 1011.22 -1.74154 -0.0401744 0
M  V30 10307 C 1008.35 -3.40883 0.0338703 0
M  V30 10308 H 1009.54 -2.5282 1.61314 0
M  V30 10309 H 1007.1 -1.29707 0.872105 0
M  V30 10310 H 1007.83 -3.11843 -0.890187 0
M  V30 10311 H 1007.62 -3.85342 0.72486 0
M  V30 10312 H 1009.11 -4.17056 -0.213152 0
M  V30 10313 N 1009.54 -0.859717 -1.32086 0
M  V30 10314 C 1010.77 -0.478865 -2.01796 0
M  V30 10315 C 1011.19 0.918274 -1.64163 0
M  V30 10316 O 1010.55 1.60409 -0.844896 0
M  V30 10317 C 1010.6 -0.631356 -3.5503 0
M  V30 10318 O 1009.7 0.333712 -4.11048 0
M  V30 10319 H 1009.04 -0.191775 -0.635703 0
M  V30 10320 H 1011.57 -1.16031 -1.68517 0
M  V30 10321 H 1011.58 -0.520783 -4.04663 0
M  V30 10322 H 1010.26 -1.65015 -3.81763 0
M  V30 10323 H 1008.84 0.178953 -3.7247 0
M  V30 10324 N 1011.02 1.44971 -0.618145 0
M  V30 10325 C 1011.97 2.27704 0.116119 0
M  V30 10326 C 1012.95 1.37927 0.828558 0
M  V30 10327 O 1014.15 1.61836 0.716806 0
M  V30 10328 C 1011.28 3.25004 1.10578 0
M  V30 10329 C 1010.36 4.22269 0.39364 0
M  V30 10330 N 1010.75 5.02571 -0.570581 0
M  V30 10331 C 1009.05 4.41387 0.639809 0
M  V30 10332 C 1009.75 5.73211 -0.990144 0
M  V30 10333 N 1008.73 5.42587 -0.331653 0
M  V30 10334 H 1012.53 2.87193 -0.624295 0
M  V30 10335 H 1010.04 1.56252 -0.442631 0
M  V30 10336 H 1012.04 3.83017 1.64631 0
M  V30 10337 H 1010.7 2.67075 1.84664 0
M  V30 10338 H 1011.71 5.09153 -0.947814 0
M  V30 10339 H 1008.39 3.94572 1.36453 0
M  V30 10340 H 1009.78 6.47728 -1.78601 0
M  V30 10341 N 1012.5 0.357919 1.53482 0
M  V30 10342 C 1013.91 -0.122938 1.86295 0
M  V30 10343 C 1014.26 -1.48803 1.27875 0
M  V30 10344 O 1013.39 -2.07978 0.597828 0
M  V30 10345 C 1013.98 -0.229853 3.38019 0
M  V30 10346 C 1012.54 -0.654955 3.70658 0
M  V30 10347 C 1011.69 0.202539 2.76559 0
M  V30 10348 H 1014.64 0.576997 1.47839 0
M  V30 10349 H 1014.66 -1.05481 3.65587 0
M  V30 10350 H 1014.17 0.763825 3.80509 0
M  V30 10351 H 1012.27 -1.65714 3.33721 0
M  V30 10352 H 1012.38 -0.43488 4.77122 0
M  V30 10353 H 1010.75 -0.327388 2.52587 0
M  V30 10354 H 1011.53 1.19361 3.21882 0
M  V30 10355 N 1013.98 -1.5736 0.0868897 0
M  V30 10356 C 1014.92 -2.13571 -0.874996 0
M  V30 10357 C 1015.89 -1.0521 -1.2853 0
M  V30 10358 O 1017.08 -1.32954 -1.3685 0
M  V30 10359 C 1014.22 -2.71386 -2.13175 0
M  V30 10360 C 1013.33 -3.93953 -1.77272 0
M  V30 10361 C 1012.47 -4.3996 -2.97671 0
M  V30 10362 C 1011.51 -5.55137 -2.57856 0
M  V30 10363 N 1010.64 -5.96034 -3.71064 0
M  V30 10364 H 1015.48 -2.95453 -0.388789 0
M  V30 10365 H 1013.02 -1.45992 -0.180242 0
M  V30 10366 H 1014.98 -3.03022 -2.86764 0
M  V30 10367 H 1013.61 -1.92245 -2.5931 0
M  V30 10368 H 1012.66 -3.68683 -0.936845 0
M  V30 10369 H 1013.97 -4.77565 -1.43989 0
M  V30 10370 H 1013.13 -4.73337 -3.79522 0
M  V30 10371 H 1011.86 -3.55232 -3.34158 0
M  V30 10372 H 1010.87 -5.21397 -1.7443 0
M  V30 10373 H 1012.09 -6.41608 -2.22522 0
M  V30 10374 H 1010.04 -5.14253 -4.07284 0
M  V30 10375 H 1009.96 -6.74423 -3.41599 0
M  V30 10376 H 1011.23 -6.34038 -4.53449 0
M  V30 10377 N 1015.45 0.186762 -1.56489 0
M  V30 10378 C 1016.68 0.925916 -1.85584 0
M  V30 10379 C 1017.1 1.75708 -0.671446 0
M  V30 10380 O 1016.46 1.7728 0.379687 0
M  V30 10381 C 1016.51 1.79107 -3.12975 0
M  V30 10382 O 1015.61 2.89088 -2.94112 0
M  V30 10383 H 1014.96 0.260275 -0.610863 0
M  V30 10384 H 1017.49 0.189561 -2.0372 0
M  V30 10385 H 1017.5 2.19408 -3.43983 0
M  V30 10386 H 1016.17 1.18044 -3.98796 0
M  V30 10387 H 1014.75 2.52482 -2.74422 0
M  V30 10388 N 1016.93 1.50896 0.454776 0
M  V30 10389 C 1018.35 1.38684 0.78987 0
M  V30 10390 C 1018.55 0.455587 1.96282 0
M  V30 10391 O 1017.6 -0.0957503 2.52318 0
M  V30 10392 C 1018.92 2.80381 1.08661 0
M  V30 10393 C 1020.47 2.8941 1.19209 0
M  V30 10394 C 1020.94 4.31976 1.52187 0
M  V30 10395 N 1022.43 4.35002 1.59146 0
M  V30 10396 C 1023.17 5.42326 1.862 0
M  V30 10397 N 1022.66 6.59835 2.11164 0
M  V30 10398 N 1024.46 5.29786 1.87838 0
M  V30 10399 H 1016.61 2.10006 -0.317981 0
M  V30 10400 H 1018.87 0.944636 -0.0797969 0
M  V30 10401 H 1018.58 3.50438 0.297626 0
M  V30 10402 H 1018.45 3.18634 2.01872 0
M  V30 10403 H 1020.84 2.19561 1.97173 0
M  V30 10404 H 1020.92 2.54677 0.239401 0
M  V30 10405 H 1020.56 5.02368 0.747576 0
M  V30 10406 H 1020.49 4.64208 2.48633 0
M  V30 10407 H 1022.98 3.50276 1.41828 0
M  V30 10408 H 1023.3 7.37428 2.31128 0
M  V30 10409 H 1021.64 6.62981 2.08522 0
M  V30 10410 H 1024.83 4.36974 1.67843 0
M  V30 10411 H 1025 6.13511 2.08585 0
M  V30 10412 N 1018.41 -0.709066 1.40748 0
M  V30 10413 C 1019.34 -1.83583 1.4429 0
M  V30 10414 C 1020.32 -1.67378 0.303067 0
M  V30 10415 O 1021.51 -1.87312 0.512612 0
M  V30 10416 C 1018.64 -3.21599 1.31116 0
M  V30 10417 C 1017.59 -3.52486 2.4277 0
M  V30 10418 C 1016.92 -4.89716 2.14668 0
M  V30 10419 C 1018.22 -3.52824 3.85113 0
M  V30 10420 H 1019.91 -1.80876 2.38588 0
M  V30 10421 H 1017.46 -0.868795 1.14839 0
M  V30 10422 H 1019.41 -4.00123 1.32209 0
M  V30 10423 H 1018.13 -3.24898 0.332965 0
M  V30 10424 H 1016.79 -2.76305 2.40937 0
M  V30 10425 H 1016.44 -4.89625 1.15224 0
M  V30 10426 H 1016.14 -5.11347 2.89478 0
M  V30 10427 H 1017.66 -5.70566 2.17455 0
M  V30 10428 H 1019.08 -4.21377 3.88734 0
M  V30 10429 H 1017.48 -3.85984 4.59496 0
M  V30 10430 H 1018.55 -2.52073 4.14231 0
M  V30 10431 N 1019.89 -1.26353 -0.941956 0
M  V30 10432 C 1020.84 -1.04513 -2.02635 0
M  V30 10433 C 1021.82 0.0222314 -1.60885 0
M  V30 10434 O 1023.02 -0.194629 -1.75927 0
M  V30 10435 C 1020.14 -0.679282 -3.36512 0
M  V30 10436 C 1019.23 -1.78406 -3.8475 0
M  V30 10437 N 1019.62 -3.02136 -4.05645 0
M  V30 10438 C 1017.92 -1.66748 -4.13656 0
M  V30 10439 C 1018.62 -3.73932 -4.45589 0
M  V30 10440 N 1017.6 -3.01616 -4.52248 0
M  V30 10441 H 1021.4 -1.9843 -2.16801 0
M  V30 10442 H 1018.91 -1.16858 -1.12774 0
M  V30 10443 H 1020.91 -0.503975 -4.13843 0
M  V30 10444 H 1019.57 0.252418 -3.23717 0
M  V30 10445 H 1020.58 -3.38049 -3.92356 0
M  V30 10446 H 1017.26 -0.805627 -4.09653 0
M  V30 10447 H 1018.65 -4.80201 -4.69954 0
M  V30 10448 N 1021.37 1.14642 -1.08144 0
M  V30 10449 C 1022.59 1.90025 -0.830972 0
M  V30 10450 C 1023.02 1.77904 0.610879 0
M  V30 10451 O 1022.38 1.11735 1.42776 0
M  V30 10452 C 1022.42 3.38085 -1.25422 0
M  V30 10453 O 1021.53 4.10412 -0.404486 0
M  V30 10454 H 1020.87 0.591327 -0.302041 0
M  V30 10455 H 1023.4 1.4513 -1.44216 0
M  V30 10456 H 1023.41 3.88894 -1.23391 0
M  V30 10457 H 1022.08 3.46226 -2.30435 0
M  V30 10458 H 1020.66 3.69693 -0.487987 0
M  V30 10459 N 1022.85 0.866709 1.31628 0
M  V30 10460 C 1023.78 0.277328 2.27516 0
M  V30 10461 C 1024.79 -0.557786 1.52946 0
M  V30 10462 O 1025.98 -0.38031 1.74402 0
M  V30 10463 C 1023.08 -0.625742 3.33073 0
M  V30 10464 C 1022.25 0.176204 4.37045 0
M  V30 10465 C 1021.31 -0.654497 5.22114 0
M  V30 10466 O 1020.34 -0.0836961 5.69138 0
M  V30 10467 N 1021.54 -1.96708 5.46156 0
M  V30 10468 H 1024.3 1.10133 2.78731 0
M  V30 10469 H 1021.87 0.72787 1.44616 0
M  V30 10470 H 1023.86 -1.18709 3.86898 0
M  V30 10471 H 1022.43 -1.35042 2.81926 0
M  V30 10472 H 1021.65 0.918999 3.83338 0
M  V30 10473 H 1022.94 0.726594 5.03585 0
M  V30 10474 H 1022.33 -2.454 5.09701 0
M  V30 10475 H 1020.89 -2.47629 6.02929 0
M  V30 10476 N 1024.32 -1.44642 0.625825 0
M  V30 10477 C 1025.25 -2.33397 -0.0692188 0
M  V30 10478 C 1026.23 -1.47898 -0.840241 0
M  V30 10479 O 1027.42 -1.7663 -0.807176 0
M  V30 10480 C 1024.55 -3.30888 -1.055 0
M  V30 10481 C 1023.5 -4.26164 -0.395968 0
M  V30 10482 C 1022.83 -5.13483 -1.49128 0
M  V30 10483 C 1024.13 -5.17663 0.694433 0
M  V30 10484 H 1025.82 -2.91763 0.671925 0
M  V30 10485 H 1023.37 -1.40294 0.324573 0
M  V30 10486 H 1025.32 -3.91861 -1.54993 0
M  V30 10487 H 1024.05 -2.7072 -1.82696 0
M  V30 10488 H 1022.71 -3.66516 0.0782691 0
M  V30 10489 H 1022.35 -4.49672 -2.25399 0
M  V30 10490 H 1022.05 -5.78038 -1.05573 0
M  V30 10491 H 1023.58 -5.77327 -1.98813 0
M  V30 10492 H 1024.99 -5.72602 0.282818 0
M  V30 10493 H 1023.39 -5.90793 1.05281 0
M  V30 10494 H 1024.46 -4.58994 1.56372 0
M  V30 10495 N 1025.8 -0.366053 -1.5329 0
M  V30 10496 C 1026.75 0.495319 -2.27265 0
M  V30 10497 C 1027.74 1.08298 -1.30261 0
M  V30 10498 O 1028.95 1.02613 -1.47887 0
M  V30 10499 H 1025.32 0.178454 -0.730519 0
M  V30 10500 H 1027.3 -0.150354 -2.98021 0
M  V30 10501 C 1026.04 1.62283 -3.07505 0
M  V30 10502 H 1025.37 1.17993 -3.81992 0
M  V30 10503 H 1026.81 2.20024 -3.62444 0
M  V30 10504 C 1025.27 2.56542 -2.18375 0
M  V30 10505 O 1025.8 3.59371 -1.79486 0
M  V30 10506 N 1024 2.25742 -1.82999 0
M  V30 10507 H 1023.55 1.42159 -2.14822 0
M  V30 10508 H 1023.51 2.89064 -1.2365 0
M  V30 10509 N 1027.28 1.57312 -0.0952337 0
M  V30 10510 C 1028.53 1.93974 0.567319 0
M  V30 10511 C 1028.85 0.977805 1.68713 0
M  V30 10512 O 1028.12 0.0298944 1.95877 0
M  V30 10513 H 1026.7 0.71612 0.212558 0
M  V30 10514 H 1029.36 1.94254 -0.158598 0
M  V30 10515 H 1028.46 2.964 0.977423 0
M  V30 10516 N 1028.76 -0.17846 1.56586 0
M  V30 10517 C 1029.99 -0.911996 1.85715 0
M  V30 10518 C 1030.4 -1.76138 0.679766 0
M  V30 10519 O 1029.76 -1.79088 -0.351266 0
M  V30 10520 C 1029.81 -1.79459 3.1381 0
M  V30 10521 O 1029.53 -0.979476 4.2701 0
M  V30 10522 C 1031.03 -2.6384 3.56235 0
M  V30 10523 H 1028.25 -0.265299 0.616326 0
M  V30 10524 H 1030.79 -0.180704 2.037 0
M  V30 10525 H 1028.95 -2.4793 2.97673 0
M  V30 10526 H 1029.36 -1.58244 5.00059 0
M  V30 10527 H 1030.84 -3.21396 4.48786 0
M  V30 10528 H 1031.31 -3.38363 2.80013 0
M  V30 10529 H 1031.92 -2.00712 3.7496 0
M  V30 10530 N 1030.24 -1.51135 -0.446768 0
M  V30 10531 C 1031.46 -1.67411 -1.22427 0
M  V30 10532 C 1031.89 -0.367009 -1.84485 0
M  V30 10533 O 1031.24 0.67185 -1.68392 0
M  V30 10534 C 1031.29 -2.78473 -2.29096 0
M  V30 10535 O 1030.4 -2.41419 -3.34351 0
M  V30 10536 H 1029.74 -0.558512 -0.359111 0
M  V30 10537 H 1032.27 -1.97648 -0.5288 0
M  V30 10538 H 1032.28 -3.02277 -2.7403 0
M  V30 10539 H 1030.95 -3.73326 -1.83304 0
M  V30 10540 H 1029.53 -2.28152 -2.9496 0
M  V30 10541 N 1031.71 0.701592 -1.41122 0
M  V30 10542 C 1032.64 1.82815 -1.45262 0
M  V30 10543 C 1033.62 1.67215 -0.311939 0
M  V30 10544 O 1034.81 1.87038 -0.522538 0
M  V30 10545 C 1031.94 3.20899 -1.32819 0
M  V30 10546 C 1030.89 3.51194 -2.44636 0
M  V30 10547 C 1030.22 4.8857 -2.17263 0
M  V30 10548 C 1031.52 3.50777 -3.86979 0
M  V30 10549 H 1033.21 1.79608 -2.39544 0
M  V30 10550 H 1030.76 0.862693 -1.15298 0
M  V30 10551 H 1032.71 3.99417 -1.34329 0
M  V30 10552 H 1031.44 3.24717 -0.350191 0
M  V30 10553 H 1030.1 2.75024 -2.42399 0
M  V30 10554 H 1029.74 4.89007 -1.17819 0
M  V30 10555 H 1029.44 5.09805 -2.92186 0
M  V30 10556 H 1030.97 5.69405 -2.20478 0
M  V30 10557 H 1032.38 4.19309 -3.90964 0
M  V30 10558 H 1030.78 3.83542 -4.61536 0
M  V30 10559 H 1031.85 2.49873 -4.15562 0
M  V30 10560 N 1033.19 1.2685 0.935242 0
M  V30 10561 C 1034.61 1.04091 1.20984 0
M  V30 10562 C 1034.81 -0.230242 2.0018 0
M  V30 10563 O 1033.86 -0.93778 2.3444 0
M  V30 10564 C 1035.18 2.27586 1.96533 0
M  V30 10565 C 1036.72 2.32547 2.09501 0
M  V30 10566 C 1037.2 3.55751 2.88454 0
M  V30 10567 N 1038.69 3.56263 2.96025 0
M  V30 10568 C 1039.43 4.48262 3.57559 0
M  V30 10569 N 1038.92 5.50557 4.20546 0
M  V30 10570 N 1040.71 4.35901 3.5489 0
M  V30 10571 H 1032.87 2.08484 0.405954 0
M  V30 10572 H 1035.13 0.916548 0.242164 0
M  V30 10573 H 1034.83 3.20076 1.45753 0
M  V30 10574 H 1034.71 2.32305 2.97177 0
M  V30 10575 H 1037.1 1.40568 2.5947 0
M  V30 10576 H 1037.18 2.31836 1.08101 0
M  V30 10577 H 1036.82 4.48063 2.3917 0
M  V30 10578 H 1036.75 3.53711 3.90123 0
M  V30 10579 H 1039.24 2.82278 2.51252 0
M  V30 10580 H 1039.55 6.16935 4.65415 0
M  V30 10581 H 1037.9 5.54407 4.19115 0
M  V30 10582 H 1041.09 3.552 3.04879 0
M  V30 10583 H 1041.26 5.07792 4.02557 0
M  V30 10584 N 1034.67 -1.14067 1.0875 0
M  V30 10585 C 1035.95 -1.81389 0.73195 0
M  V30 10586 C 1036.33 -1.96005 -0.78391 0
M  V30 10587 O 1035.68 -1.52267 -1.70373 0
M  V30 10588 C 1035.89 -3.16858 1.46294 0
M  V30 10589 C 1037.23 -3.92305 1.62426 0
M  V30 10590 O 1038.26 -3.26459 1.42488 0
M  V30 10591 O 1037.12 -5.10393 1.9535 0
M  V30 10592 H 1034.21 -0.784354 0.262141 0
M  V30 10593 H 1036.76 -1.21054 1.18929 0
M  V30 10594 H 1035.53 -3.01404 2.49542 0
M  V30 10595 H 1035.15 -3.84889 0.997318 0
M  V30 10596 N 1036.15 -0.873678 -1.31166 0
M  V30 10597 C 1037.08 -0.348011 -2.30892 0
M  V30 10598 C 1038.06 0.563092 -1.60509 0
M  V30 10599 O 1039.24 0.479332 -1.88192 0
M  V30 10600 C 1036.37 0.448158 -3.44396 0
M  V30 10601 C 1035.33 -0.370179 -4.26396 0
M  V30 10602 C 1034.65 0.551903 -5.31844 0
M  V30 10603 C 1035.95 -1.60624 -4.96988 0
M  V30 10604 H 1037.65 -1.18134 -2.75109 0
M  V30 10605 H 1035.19 -0.569502 -1.3226 0
M  V30 10606 H 1037.15 0.826458 -4.13216 0
M  V30 10607 H 1035.87 1.31503 -2.98956 0
M  V30 10608 H 1034.53 -0.730472 -3.59249 0
M  V30 10609 H 1034.18 1.41616 -4.82653 0
M  V30 10610 H 1033.88 0.00823478 -5.87599 0
M  V30 10611 H 1035.4 0.926965 -6.03523 0
M  V30 10612 H 1036.82 -1.29917 -5.58386 0
M  V30 10613 H 1035.21 -2.08926 -5.62557 0
M  V30 10614 H 1036.28 -2.357 -4.23761 0
M  V30 10615 N 1037.63 1.44308 -0.633487 0
M  V30 10616 C 1038.86 2.06085 -0.145852 0
M  V30 10617 C 1039.26 1.47432 1.18577 0
M  V30 10618 O 1038.61 0.592575 1.7388 0
M  V30 10619 C 1038.67 3.59477 0.0407848 0
M  V30 10620 C 1038.33 4.40607 -1.21304 0
M  V30 10621 C 1039.33 4.73937 -2.13728 0
M  V30 10622 C 1037.02 4.80943 -1.44911 0
M  V30 10623 C 1039.01 5.46489 -3.28068 0
M  V30 10624 C 1036.7 5.53243 -2.59548 0
M  V30 10625 C 1037.69 5.85936 -3.50953 0
M  V30 10626 O 1037.38 6.56764 -4.6359 0
M  V30 10627 H 1037.11 0.671484 -0.0780085 0
M  V30 10628 H 1039.67 1.86128 -0.868658 0
M  V30 10629 H 1037.9 3.77933 0.818761 0
M  V30 10630 H 1039.59 4.03013 0.483273 0
M  V30 10631 H 1040.35 4.43311 -1.96725 0
M  V30 10632 H 1036.23 4.54915 -0.746537 0
M  V30 10633 H 1039.78 5.71924 -3.99435 0
M  V30 10634 H 1035.67 5.83285 -2.76493 0
M  V30 10635 H 1036.44 6.75234 -4.62602 0
M  V30 10636 N 1039.1 0.374177 1.53094 0
M  V30 10637 C 1040.07 -0.455999 2.24618 0
M  V30 10638 C 1041.07 -1.00269 1.25709 0
M  V30 10639 O 1042.26 -0.887077 1.49922 0
M  V30 10640 C 1039.39 -1.63822 2.98957 0
M  V30 10641 H 1040.58 0.169986 2.99418 0
M  V30 10642 H 1038.14 0.126015 1.55791 0
M  V30 10643 H 1038.87 -2.30205 2.28421 0
M  V30 10644 H 1038.66 -1.25308 3.71538 0
M  V30 10645 H 1040.15 -2.22633 3.53305 0
M  V30 10646 N 1040.58 -1.57259 0.103575 0
M  V30 10647 C 1041.83 -1.94945 -0.558953 0
M  V30 10648 C 1042.16 -0.986038 -1.67305 0
M  V30 10649 O 1041.44 -0.0205464 -1.94489 0
M  V30 10650 C 1041.72 -3.42689 -1.10617 0
M  V30 10651 C 1041.57 -4.498 0.00345246 0
M  V30 10652 C 1042.89 -3.91933 -2.00191 0
M  V30 10653 H 1040.01 -0.708859 -0.201713 0
M  V30 10654 H 1042.65 -1.89183 0.176006 0
M  V30 10655 H 1040.8 -3.4773 -1.73251 0
M  V30 10656 H 1042.47 -4.56866 0.638082 0
M  V30 10657 H 1040.72 -4.28615 0.668705 0
M  V30 10658 H 1041.39 -5.50397 -0.420396 0
M  V30 10659 H 1043.86 -3.89098 -1.4745 0
M  V30 10660 H 1042.74 -4.9586 -2.35402 0
M  V30 10661 H 1043 -3.31722 -2.92255 0
M  V30 10662 N 1042.06 0.170153 -1.56679 0
M  V30 10663 C 1043.02 1.19443 -1.95617 0
M  V30 10664 C 1044.02 1.37118 -0.83996 0
M  V30 10665 O 1045.21 1.34504 -1.10699 0
M  V30 10666 C 1042.35 2.55926 -2.25199 0
M  V30 10667 H 1043.54 0.86095 -2.87276 0
M  V30 10668 H 1041.09 0.412646 -1.50755 0
M  V30 10669 H 1041.83 2.94286 -1.36257 0
M  V30 10670 H 1041.61 2.44464 -3.06562 0
M  V30 10671 H 1043.1 3.29742 -2.56242 0
M  V30 10672 N 1043.54 1.5137 0.438746 0
M  V30 10673 C 1044.79 1.63645 1.18595 0
M  V30 10674 C 1045.11 0.354241 1.91755 0
M  V30 10675 O 1044.38 -0.629838 1.85499 0
M  V30 10676 H 1042.96 0.603103 0.440767 0
M  V30 10677 H 1045.62 1.88293 0.503159 0
M  V30 10678 H 1044.72 2.46342 1.9163 0
M  V30 10679 N 1045.02 -0.694098 1.41492 0
M  V30 10680 C 1045.97 -1.80016 1.39923 0
M  V30 10681 C 1046.95 -1.58561 0.273377 0
M  V30 10682 O 1048.14 -1.69368 0.514157 0
M  V30 10683 C 1045.27 -3.18333 1.28526 0
M  V30 10684 C 1044.36 -3.45478 2.45979 0
M  V30 10685 N 1044.75 -3.43313 3.71443 0
M  V30 10686 C 1043.05 -3.76033 2.39824 0
M  V30 10687 C 1043.75 -3.69404 4.4935 0
M  V30 10688 N 1042.72 -3.89221 3.79484 0
M  V30 10689 H 1046.53 -1.76707 2.34844 0
M  V30 10690 H 1044.04 -0.894148 1.35568 0
M  V30 10691 H 1046.04 -3.97567 1.25484 0
M  V30 10692 H 1044.7 -3.22852 0.345904 0
M  V30 10693 H 1045.71 -3.2366 4.04308 0
M  V30 10694 H 1042.38 -3.87913 1.54368 0
M  V30 10695 H 1043.77 -3.73854 5.58285 0
M  V30 10696 N 1046.49 -1.27344 -0.928501 0
M  V30 10697 C 1047.4 -1.11812 -2.06241 0
M  V30 10698 C 1048.42 -0.048347 -1.73933 0
M  V30 10699 O 1049.6 -0.25467 -1.99783 0
M  V30 10700 C 1046.66 -0.766036 -3.38131 0
M  V30 10701 C 1045.72 -1.91659 -3.84142 0
M  V30 10702 C 1044.96 -1.58121 -5.09738 0
M  V30 10703 O 1045.18 -0.488742 -5.68302 0
M  V30 10704 O 1044.11 -2.42013 -5.51102 0
M  V30 10705 H 1047.94 -2.06967 -2.22258 0
M  V30 10706 H 1045.52 -1.06524 -1.04752 0
M  V30 10707 H 1047.41 -0.582982 -4.17348 0
M  V30 10708 H 1046.08 0.155998 -3.23324 0
M  V30 10709 H 1044.99 -2.1547 -3.05816 0
M  V30 10710 H 1046.32 -2.8188 -4.0349 0
M  V30 10711 N 1047.97 1.13488 -1.09353 0
M  V30 10712 C 1049.38 1.66299 -0.848609 0
M  V30 10713 C 1049.73 1.86044 0.623051 0
M  V30 10714 O 1048.86 1.57871 1.48005 0
M  V30 10715 C 1049.45 3.02087 -1.53391 0
M  V30 10716 C 1048.01 3.51893 -1.33598 0
M  V30 10717 C 1047.16 2.27154 -1.59048 0
M  V30 10718 H 1050.11 0.974208 -1.25279 0
M  V30 10719 H 1050.13 3.68018 -0.966587 0
M  V30 10720 H 1049.64 2.87684 -2.60498 0
M  V30 10721 H 1047.75 3.715 -0.286045 0
M  V30 10722 H 1047.86 4.32059 -2.0703 0
M  V30 10723 H 1046.22 2.33708 -1.01256 0
M  V30 10724 H 1047.01 2.15317 -2.67383 0
M  V30 10725 N 1049.45 0.880621 1.30701 0
M  V30 10726 C 1050.69 0.503519 1.98101 0
M  V30 10727 C 1051.06 -0.929075 1.68024 0
M  V30 10728 O 1052.26 -1.41208 2.28722 0
M  V30 10729 C 1050.53 0.765652 3.49102 0
M  V30 10730 S 1052.09 0.490001 4.36056 0
M  V30 10731 H 1048.9 0.187522 0.685825 0
M  V30 10732 H 1051.51 1.13895 1.58897 0
M  V30 10733 H 1050.21 1.80688 3.68484 0
M  V30 10734 H 1049.74 0.117616 3.93224 0
M  V30 10735 H 1051.76 -0.673236 4.91612 0
M  V30 10736 N 1050.93 -1.4397 0.641131 0
M  V30 10737 C 1051.86 -2.33458 -0.04446 0
M  V30 10738 C 1052.84 -1.48781 -0.824507 0
M  V30 10739 O 1054.03 -1.77477 -0.788397 0
M  V30 10740 C 1051.16 -3.31989 -1.01984 0
M  V30 10741 C 1050.11 -4.2656 -0.350745 0
M  V30 10742 C 1049.44 -5.15036 -1.43673 0
M  V30 10743 C 1050.74 -5.16897 0.749299 0
M  V30 10744 H 1052.43 -2.91034 0.702832 0
M  V30 10745 H 1049.98 -1.39942 0.339435 0
M  V30 10746 H 1051.93 -3.93483 -1.50828 0
M  V30 10747 H 1050.65 -2.72643 -1.79815 0
M  V30 10748 H 1049.31 -3.66413 0.117139 0
M  V30 10749 H 1048.96 -4.52037 -2.20617 0
M  V30 10750 H 1048.66 -5.79125 -0.994358 0
M  V30 10751 H 1050.18 -5.79403 -1.92678 0
M  V30 10752 H 1051.6 -5.7227 0.343534 0
M  V30 10753 H 1049.99 -5.89643 1.11541 0
M  V30 10754 H 1051.06 -4.5731 1.61232 0
M  V30 10755 N 1052.41 -0.382291 -1.52893 0
M  V30 10756 C 1053.66 0.203342 -2.00672 0
M  V30 10757 C 1053.97 1.48487 -1.27322 0
M  V30 10758 O 1055.18 2.15013 -1.65776 0
M  V30 10759 C 1053.63 0.412922 -3.57523 0
M  V30 10760 C 1053.24 -0.854949 -4.39767 0
M  V30 10761 C 1054.98 0.955301 -4.13611 0
M  V30 10762 C 1052.89 -0.614033 -5.88204 0
M  V30 10763 H 1051.82 0.0797635 -0.749769 0
M  V30 10764 H 1054.47 -0.50361 -1.76454 0
M  V30 10765 H 1052.85 1.18155 -3.77962 0
M  V30 10766 H 1054.03 -1.62765 -4.31096 0
M  V30 10767 H 1052.34 -1.32176 -3.94865 0
M  V30 10768 H 1054.94 1.15114 -5.22162 0
M  V30 10769 H 1055.28 1.92233 -3.69259 0
M  V30 10770 H 1055.82 0.24642 -3.97036 0
M  V30 10771 H 1052.55 -1.55187 -6.36865 0
M  V30 10772 H 1052.07 0.119865 -5.9968 0
M  V30 10773 H 1053.75 -0.245895 -6.46533 0
M  V30 10774 N 1053.89 1.57202 -0.111913 0
M  V30 10775 C 1054.83 2.16186 0.858286 0
M  V30 10776 C 1055.83 1.10917 1.28039 0
M  V30 10777 O 1057.03 1.29233 1.25295 0
M  V30 10778 H 1053.41 0.691777 0.29487 0
M  V30 10779 H 1055.38 2.96499 0.336265 0
M  V30 10780 C 1054.13 2.77024 2.10127 0
M  V30 10781 H 1053.45 3.5772 1.78539 0
M  V30 10782 H 1054.89 3.21841 2.76033 0
M  V30 10783 C 1053.35 1.73752 2.88638 0
M  V30 10784 O 1053.88 1.18659 3.83774 0
M  V30 10785 N 1052.09 1.43855 2.52496 0
M  V30 10786 H 1051.63 1.88846 1.75199 0
M  V30 10787 H 1051.59 0.749985 3.05324 0
M  V30 10788 N 1055.36 -0.161842 1.56767 0
M  V30 10789 C 1056.77 -0.723385 1.72116 0
M  V30 10790 C 1057.13 -1.82355 0.723961 0
M  V30 10791 O 1056.25 -2.16107 -0.112643 0
M  V30 10792 C 1056.85 -1.31895 3.12072 0
M  V30 10793 C 1055.4 -1.82722 3.29074 0
M  V30 10794 C 1054.55 -0.709863 2.6806 0
M  V30 10795 H 1057.5 0.0636647 1.58572 0
M  V30 10796 H 1057.52 -2.18871 3.11249 0
M  V30 10797 H 1057.04 -0.51801 3.84627 0
M  V30 10798 H 1055.14 -2.6543 2.61491 0
M  V30 10799 H 1055.25 -1.96614 4.36898 0
M  V30 10800 H 1053.61 -1.13273 2.28126 0
M  V30 10801 H 1054.4 0.0793884 3.43208 0
M  V30 10802 N 1056.84 -1.516 -0.430713 0
M  V30 10803 C 1057.8 -1.72794 -1.50582 0
M  V30 10804 C 1058.8 -0.597903 -1.49271 0
M  V30 10805 O 1059.99 -0.865535 -1.51176 0
M  V30 10806 C 1057.13 -1.79049 -2.90093 0
M  V30 10807 H 1058.32 -2.68751 -1.33091 0
M  V30 10808 H 1055.87 -1.4169 -0.659822 0
M  V30 10809 H 1056.61 -0.849309 -3.12981 0
M  V30 10810 H 1056.39 -2.61181 -2.92449 0
M  V30 10811 H 1057.88 -1.97262 -3.68072 0
M  V30 10812 N 1058.32 0.686584 -1.41858 0
M  V30 10813 C 1059.6 1.44176 -1.32185 0
M  V30 10814 C 1059.98 2.11049 0.046362 0
M  V30 10815 O 1059.32 2.02365 1.06117 0
M  V30 10816 C 1059.53 2.45385 -2.48168 0
M  V30 10817 C 1060.88 3.10375 -2.89746 0
M  V30 10818 O 1061.91 2.55711 -2.47973 0
M  V30 10819 O 1060.77 4.09404 -3.62009 0
M  V30 10820 H 1057.86 0.642513 -0.520678 0
M  V30 10821 H 1060.41 0.716303 -1.53841 0
M  V30 10822 H 1059.18 1.94687 -3.3943 0
M  V30 10823 H 1058.8 3.25428 -2.28435 0
M  V30 10824 N 1059.8 1.27835 0.921735 0
M  V30 10825 C 1060.76 1.11108 2.00469 0
M  V30 10826 C 1061.76 0.053203 1.60712 0
M  V30 10827 O 1062.95 0.298308 1.71627 0
M  V30 10828 C 1060.08 0.694269 3.33755 0
M  V30 10829 H 1061.28 2.07279 2.16738 0
M  V30 10830 H 1058.83 1.10708 1.10333 0
M  V30 10831 H 1059.56 -0.268561 3.23186 0
M  V30 10832 H 1059.35 1.45836 3.6397 0
M  V30 10833 H 1060.84 0.59965 4.13272 0
M  V30 10834 N 1061.28 -1.12907 1.09954 0
M  V30 10835 C 1062.24 -2.16673 0.747364 0
M  V30 10836 C 1063.24 -1.59208 -0.225741 0
M  V30 10837 O 1064.43 -1.742 -0.00322482 0
M  V30 10838 C 1061.56 -3.40735 0.106169 0
M  V30 10839 H 1062.75 -2.49341 1.6664 0
M  V30 10840 H 1060.31 -1.27828 0.899421 0
M  V30 10841 H 1061.04 -3.13661 -0.82384 0
M  V30 10842 H 1060.83 -3.83717 0.806434 0
M  V30 10843 H 1062.32 -4.17414 -0.12464 0
M  V30 10844 N 1062.75 -0.88754 -1.30232 0
M  V30 10845 C 1063.72 -0.361095 -2.26338 0
M  V30 10846 C 1064.72 0.497871 -1.52898 0
M  V30 10847 O 1065.91 0.30466 -1.71515 0
M  V30 10848 C 1063.04 0.485135 -3.3743 0
M  V30 10849 H 1064.23 -1.20973 -2.74419 0
M  V30 10850 H 1061.78 -0.664619 -1.41466 0
M  V30 10851 H 1062.52 1.35425 -2.9467 0
M  V30 10852 H 1062.3 -0.130173 -3.91884 0
M  V30 10853 H 1063.79 0.845169 -4.08958 0
M  V30 10854 N 1064.23 1.43628 -0.648757 0
M  V30 10855 C 1065.65 1.56442 -0.315921 0
M  V30 10856 C 1065.85 1.63322 1.18018 0
M  V30 10857 O 1064.9 1.58585 1.96487 0
M  V30 10858 C 1066.22 2.82751 -1.02335 0
M  V30 10859 C 1067.77 2.96488 -1.00318 0
M  V30 10860 C 1068.24 4.25623 -1.69142 0
M  V30 10861 N 1069.73 4.32477 -1.65885 0
M  V30 10862 C 1070.47 5.31154 -2.16016 0
M  V30 10863 N 1069.96 6.36135 -2.74415 0
M  V30 10864 N 1071.76 5.22778 -2.06541 0
M  V30 10865 H 1063.91 1.37405 -1.61968 0
M  V30 10866 H 1066.17 0.65962 -0.680886 0
M  V30 10867 H 1065.88 2.83714 -2.07844 0
M  V30 10868 H 1065.75 3.72836 -0.572114 0
M  V30 10869 H 1068.14 2.95068 0.0434919 0
M  V30 10870 H 1068.22 2.07704 -1.49307 0
M  V30 10871 H 1067.86 4.27804 -2.73763 0
M  V30 10872 H 1067.79 5.13296 -1.17622 0
M  V30 10873 H 1070.28 3.57232 -1.23264 0
M  V30 10874 H 1070.6 7.07743 -3.10355 0
M  V30 10875 H 1068.94 6.36771 -2.78474 0
M  V30 10876 H 1072.13 4.39678 -1.60625 0
M  V30 10877 H 1072.3 5.99523 -2.45919 0
M  V30 10878 N 1065.71 0.390394 1.52688 0
M  V30 10879 C 1066.96 -0.191067 2.01195 0
M  V30 10880 C 1067.28 -1.47229 1.27862 0
M  V30 10881 O 1066.55 -1.91793 0.399007 0
M  V30 10882 H 1065.13 -0.073596 0.743366 0
M  V30 10883 H 1067.79 0.522334 1.8777 0
M  V30 10884 H 1066.89 -0.40051 3.0952 0
M  V30 10885 N 1067.19 -1.57141 0.120249 0
M  V30 10886 C 1068.44 -1.94413 -0.53727 0
M  V30 10887 C 1068.75 -1.00594 -1.67751 0
M  V30 10888 O 1069.96 -1.27336 -2.39787 0
M  V30 10889 C 1068.41 -3.45521 -1.00714 0
M  V30 10890 C 1068.02 -4.47878 0.104706 0
M  V30 10891 C 1069.76 -3.9171 -1.63596 0
M  V30 10892 C 1067.67 -5.90165 -0.381932 0
M  V30 10893 H 1066.6 -0.725745 -0.204475 0
M  V30 10894 H 1069.25 -1.82404 0.200302 0
M  V30 10895 H 1067.63 -3.52769 -1.79917 0
M  V30 10896 H 1068.81 -4.523 0.881002 0
M  V30 10897 H 1067.12 -4.11448 0.640264 0
M  V30 10898 H 1069.72 -4.95433 -2.01122 0
M  V30 10899 H 1070.06 -3.31756 -2.51483 0
M  V30 10900 H 1070.6 -3.87268 -0.909319 0
M  V30 10901 H 1067.34 -6.53877 0.460921 0
M  V30 10902 H 1066.86 -5.89161 -1.12468 0
M  V30 10903 H 1068.53 -6.41488 -0.842748 0
M  V30 10904 N 1068.67 0.153526 -1.5685 0
M  V30 10905 C 1069.63 1.17362 -1.96873 0
M  V30 10906 C 1070.63 1.36219 -0.854456 0
M  V30 10907 O 1071.82 1.33322 -1.1212 0
M  V30 10908 C 1068.95 2.53523 -2.27901 0
M  V30 10909 H 1070.14 0.830432 -2.88173 0
M  V30 10910 H 1067.7 0.396633 -1.51184 0
M  V30 10911 H 1068.43 2.92824 -1.39371 0
M  V30 10912 H 1068.22 2.41198 -3.09137 0
M  V30 10913 H 1069.71 3.27006 -2.59725 0
M  V30 10914 N 1070.14 1.51827 0.422667 0
M  V30 10915 C 1071.42 1.55772 1.18299 0
M  V30 10916 C 1071.8 0.330657 2.08494 0
M  V30 10917 O 1071.15 -0.683373 2.18042 0
M  V30 10918 C 1071.36 2.87941 1.97208 0
M  V30 10919 C 1072.71 3.4044 2.53744 0
M  V30 10920 O 1073.73 2.8959 2.07403 0
M  V30 10921 O 1072.59 4.29201 3.38303 0
M  V30 10922 H 1069.68 0.626889 0.539388 0
M  V30 10923 H 1072.23 1.64147 0.430545 0
M  V30 10924 H 1071 3.68702 1.31052 0
M  V30 10925 H 1070.63 2.82795 2.79486 0
M  V30 10926 N 1071.62 -0.679052 1.4222 0
M  V30 10927 C 1072.87 -1.43627 1.42182 0
M  V30 10928 C 1073.19 -1.94964 0.0377095 0
M  V30 10929 O 1072.46 -1.72788 -0.923098 0
M  V30 10930 H 1071.04 -0.532972 0.523402 0
M  V30 10931 H 1073.7 -0.802649 1.77605 0
M  V30 10932 H 1072.8 -2.29137 2.11902 0
M  V30 10933 N 1073.1 -1.28322 -0.914942 0
M  V30 10934 C 1074.38 -1.06111 -1.64316 0
M  V30 10935 C 1074.76 0.399934 -2.07277 0
M  V30 10936 O 1074.11 1.38577 -1.81683 0
M  V30 10937 C 1074.32 -2.03461 -2.83557 0
M  V30 10938 C 1075.66 -2.33541 -3.54604 0
M  V30 10939 O 1076.69 -2.01536 -2.93704 0
M  V30 10940 O 1075.55 -2.88158 -4.64357 0
M  V30 10941 H 1072.64 -0.405451 -0.72079 0
M  V30 10942 H 1075.19 -1.39636 -0.964352 0
M  V30 10943 H 1073.96 -3.01938 -2.48896 0
M  V30 10944 H 1073.58 -1.70574 -3.59152 0
M  V30 10945 N 1074.58 1.12322 -1.10551 0
M  V30 10946 C 1075.82 1.8413 -0.849932 0
M  V30 10947 C 1076.16 1.83938 0.622946 0
M  V30 10948 O 1075.43 1.28579 1.45937 0
M  V30 10949 C 1075.72 3.31751 -1.40048 0
M  V30 10950 C 1075.57 3.40391 -2.9403 0
M  V30 10951 C 1076.89 4.27543 -1.04379 0
M  V30 10952 H 1074.01 0.668533 -0.310213 0
M  V30 10953 H 1076.65 1.31766 -1.36886 0
M  V30 10954 H 1074.8 3.76475 -0.959102 0
M  V30 10955 H 1076.47 3.04294 -3.46703 0
M  V30 10956 H 1074.71 2.809 -3.30571 0
M  V30 10957 H 1075.38 4.44252 -3.27635 0
M  V30 10958 H 1077.86 3.90951 -1.42466 0
M  V30 10959 H 1076.74 5.2924 -1.4559 0
M  V30 10960 H 1077 4.42075 0.0466316 0
M  V30 10961 N 1076.06 0.894434 1.2976 0
M  V30 10962 C 1076.99 0.3847 2.30309 0
M  V30 10963 C 1077.97 -0.537486 1.61385 0
M  V30 10964 O 1079.15 -0.449332 1.8893 0
M  V30 10965 C 1076.28 -0.393311 3.45066 0
M  V30 10966 C 1075.24 0.437968 4.25753 0
M  V30 10967 C 1074.56 -0.467221 5.32655 0
M  V30 10968 C 1075.86 1.6851 4.9437 0
M  V30 10969 H 1077.56 1.22496 2.73194 0
M  V30 10970 H 1075.1 0.590471 1.31337 0
M  V30 10971 H 1077.06 -0.760614 4.14479 0
M  V30 10972 H 1075.78 -1.2673 3.0101 0
M  V30 10973 H 1074.44 0.787533 3.58041 0
M  V30 10974 H 1074.09 -1.33919 4.84845 0
M  V30 10975 H 1073.79 0.0852482 5.87538 0
M  V30 10976 H 1075.31 -0.830833 6.04921 0
M  V30 10977 H 1076.72 1.38784 5.56248 0
M  V30 10978 H 1075.12 2.17849 5.59162 0
M  V30 10979 H 1076.19 2.42412 4.19958 0
M  V30 10980 N 1077.53 -1.43282 0.656365 0
M  V30 10981 C 1078.95 -1.56272 0.324213 0
M  V30 10982 C 1079.15 -1.63946 -1.1715 0
M  V30 10983 O 1078.21 -1.59625 -1.95643 0
M  V30 10984 C 1079.52 -2.82204 1.03833 0
M  V30 10985 C 1081.07 -2.95952 1.01889 0
M  V30 10986 C 1081.54 -4.2472 1.71397 0
M  V30 10987 N 1083.03 -4.31591 1.68176 0
M  V30 10988 C 1083.77 -5.30001 2.1883 0
M  V30 10989 N 1083.26 -6.34671 2.77785 0
M  V30 10990 N 1085.06 -5.21676 2.09311 0
M  V30 10991 H 1077.21 -1.36544 1.62694 0
M  V30 10992 H 1079.47 -0.655999 0.684375 0
M  V30 10993 H 1079.18 -2.82608 2.09346 0
M  V30 10994 H 1079.05 -3.72527 0.591878 0
M  V30 10995 H 1081.44 -2.95087 -0.0278431 0
M  V30 10996 H 1081.52 -2.0691 1.50406 0
M  V30 10997 H 1081.16 -4.26346 2.76028 0
M  V30 10998 H 1081.09 -5.12665 1.20342 0
M  V30 10999 H 1083.58 -3.56573 1.25157 0
M  V30 11000 H 1083.9 -7.06087 3.14104 0
M  V30 11001 H 1082.24 -6.35285 2.81847 0
M  V30 11002 H 1085.43 -4.3882 1.62955 0
M  V30 11003 H 1085.61 -5.9821 2.49095 0
M  V30 11004 N 1079.01 -0.398486 -1.52479 0
M  V30 11005 C 1080.26 0.181019 -2.0199 0
M  V30 11006 C 1080.59 1.45691 -1.28405 0
M  V30 11007 O 1079.87 1.90607 -0.387207 0
M  V30 11008 C 1080.15 0.439587 -3.57407 0
M  V30 11009 C 1080 -0.85223 -4.41653 0
M  V30 11010 C 1081.32 1.2263 -4.2267 0
M  V30 11011 H 1078.44 0.0643164 -0.734188 0
M  V30 11012 H 1081.08 -0.52986 -1.82462 0
M  V30 11013 H 1079.23 1.04516 -3.74177 0
M  V30 11014 H 1080.91 -1.48879 -4.36615 0
M  V30 11015 H 1079.15 -1.46555 -4.08294 0
M  V30 11016 H 1079.82 -0.625839 -5.48441 0
M  V30 11017 H 1082.3 0.713722 -4.09933 0
M  V30 11018 H 1081.17 1.37596 -5.31374 0
M  V30 11019 H 1081.43 2.24403 -3.80914 0
M  V30 11020 N 1080.49 1.57075 -0.12858 0
M  V30 11021 C 1081.74 1.9552 0.527087 0
M  V30 11022 C 1082.07 1.01243 1.66072 0
M  V30 11023 O 1081.32 0.0381076 1.95663 0
M  V30 11024 C 1081.62 3.40329 1.09138 0
M  V30 11025 C 1081.29 4.50832 0.0781039 0
M  V30 11026 C 1079.95 4.80782 -0.200493 0
M  V30 11027 C 1082.3 5.17595 -0.61192 0
M  V30 11028 C 1079.63 5.74809 -1.17524 0
M  V30 11029 C 1081.98 6.12671 -1.57536 0
M  V30 11030 C 1080.64 6.41008 -1.86184 0
M  V30 11031 H 1079.91 0.715458 0.192875 0
M  V30 11032 H 1082.56 1.90328 -0.211515 0
M  V30 11033 H 1080.87 3.42262 1.90694 0
M  V30 11034 H 1082.56 3.67393 1.60696 0
M  V30 11035 H 1079.15 4.2751 0.30543 0
M  V30 11036 H 1083.34 4.94605 -0.40986 0
M  V30 11037 H 1078.59 5.95065 -1.40384 0
M  V30 11038 H 1082.77 6.63486 -2.11565 0
M  V30 11039 H 1080.39 7.13673 -2.61868 0
M  V30 11040 N 1081.97 -0.145205 1.5693 0
M  V30 11041 C 1082.92 -1.19841 1.99351 0
M  V30 11042 C 1083.91 -1.44371 0.886197 0
M  V30 11043 O 1085.12 -1.44642 1.07138 0
M  V30 11044 H 1081.49 -0.403437 0.63462 0
M  V30 11045 H 1083.46 -0.813932 2.87085 0
M  V30 11046 C 1082.21 -2.52377 2.39167 0
M  V30 11047 H 1081.54 -2.34332 3.23927 0
M  V30 11048 H 1082.98 -3.24694 2.72671 0
M  V30 11049 C 1081.43 -3.1305 1.24503 0
M  V30 11050 O 1081.96 -3.97962 0.546739 0
M  V30 11051 N 1080.17 -2.72528 1.00882 0
M  V30 11052 H 1079.72 -2.03576 1.57843 0
M  V30 11053 H 1079.68 -3.13456 0.24351 0
M  V30 11054 N 1083.45 -1.52049 -0.414609 0
M  V30 11055 C 1084.72 -1.56397 -1.17471 0
M  V30 11056 C 1085.1 -0.34171 -2.08316 0
M  V30 11057 O 1084.45 0.6718 -2.18401 0
M  V30 11058 C 1084.66 -2.88983 -1.95678 0
M  V30 11059 C 1086.01 -3.41781 -2.51935 0
M  V30 11060 O 1087.03 -2.90686 -2.05865 0
M  V30 11061 O 1085.89 -4.30989 -3.36022 0
M  V30 11062 H 1082.99 -0.62974 -0.536056 0
M  V30 11063 H 1085.53 -1.64374 -0.421834 0
M  V30 11064 H 1084.31 -3.69392 -1.29094 0
M  V30 11065 H 1083.93 -2.84274 -2.77983 0
M  V30 11066 N 1084.93 0.6715 -1.42579 0
M  V30 11067 C 1086.34 0.985019 -1.25577 0
M  V30 11068 C 1086.54 2.00845 -0.162319 0
M  V30 11069 O 1085.6 2.48175 0.465352 0
M  V30 11070 C 1086.91 1.48668 -2.61377 0
M  V30 11071 C 1088.46 1.60429 -2.68759 0
M  V30 11072 C 1088.93 2.13991 -4.04935 0
M  V30 11073 N 1090.42 2.21319 -4.06906 0
M  V30 11074 C 1091.16 2.63845 -5.09091 0
M  V30 11075 N 1090.66 3.05799 -6.21658 0
M  V30 11076 N 1092.45 2.63623 -4.96447 0
M  V30 11077 H 1084.6 -0.00604561 -2.12399 0
M  V30 11078 H 1086.86 0.0598299 -0.94611 0
M  V30 11079 H 1086.57 0.80917 -3.42265 0
M  V30 11080 H 1086.44 2.46487 -2.85524 0
M  V30 11081 H 1088.83 2.27286 -1.88216 0
M  V30 11082 H 1088.91 0.610909 -2.48398 0
M  V30 11083 H 1088.55 1.47741 -4.85937 0
M  V30 11084 H 1088.48 3.14126 -4.2265 0
M  V30 11085 H 1090.98 1.91743 -3.25643 0
M  V30 11086 H 1091.29 3.36944 -6.95477 0
M  V30 11087 H 1089.63 3.03648 -6.25158 0
M  V30 11088 H 1092.82 2.30211 -4.07579 0
M  V30 11089 H 1093 2.96444 -5.76216 0
M  V30 11090 N 1086.4 1.28806 0.908124 0
M  V30 11091 C 1087.65 1.16058 1.65454 0
M  V30 11092 C 1087.97 -0.290057 1.92831 0
M  V30 11093 O 1087.24 -1.20001 1.54843 0
M  V30 11094 H 1085.82 0.426522 0.61326 0
M  V30 11095 H 1088.48 1.61614 1.08936 0
M  V30 11096 H 1087.58 1.70437 2.61453 0
M  V30 11097 N 1087.88 -1.11734 1.11145 0
M  V30 11098 C 1088.81 -2.17438 0.724804 0
M  V30 11099 C 1089.83 -1.6099 -0.242069 0
M  V30 11100 O 1091.02 -1.78482 -0.0254259 0
M  V30 11101 C 1088.12 -3.38863 0.050004 0
M  V30 11102 C 1087.29 -4.24785 1.04292 0
M  V30 11103 C 1086.35 -5.24691 0.398243 0
M  V30 11104 O 1085.37 -5.59408 1.05125 0
M  V30 11105 N 1086.58 -5.74388 -0.840184 0
M  V30 11106 H 1089.34 -2.51219 1.63429 0
M  V30 11107 H 1086.9 -1.27226 1.00125 0
M  V30 11108 H 1088.89 -4.02788 -0.392929 0
M  V30 11109 H 1087.46 -3.0317 -0.762005 0
M  V30 11110 H 1086.68 -3.57363 1.6639 0
M  V30 11111 H 1087.97 -4.79033 1.71478 0
M  V30 11112 H 1087.37 -5.48359 -1.38994 0
M  V30 11113 H 1085.93 -6.40163 -1.22615 0
M  V30 11114 N 1089.36 -0.901303 -1.29284 0
M  V30 11115 C 1090.61 -0.52401 -1.94774 0
M  V30 11116 C 1090.92 0.934645 -1.71825 0
M  V30 11117 O 1092.13 1.41953 -2.31434 0
M  V30 11118 C 1090.58 -0.886262 -3.48817 0
M  V30 11119 C 1090.19 -2.3638 -3.80564 0
M  V30 11120 C 1091.94 -0.578955 -4.20533 0
M  V30 11121 C 1089.84 -2.66682 -5.27858 0
M  V30 11122 H 1088.77 -0.192244 -0.72908 0
M  V30 11123 H 1091.42 -1.09852 -1.46986 0
M  V30 11124 H 1089.81 -0.240666 -3.95268 0
M  V30 11125 H 1090.98 -3.05508 -3.44966 0
M  V30 11126 H 1089.29 -2.64029 -3.2199 0
M  V30 11127 H 1091.89 -0.782185 -5.28948 0
M  V30 11128 H 1092.23 0.482605 -4.13493 0
M  V30 11129 H 1092.77 -1.18246 -3.79819 0
M  V30 11130 H 1089.51 -3.71643 -5.39965 0
M  V30 11131 H 1089.03 -2.02179 -5.64698 0
M  V30 11132 H 1090.71 -2.53033 -5.95469 0
M  V30 11133 N 1090.84 1.42931 -0.663954 0
M  V30 11134 C 1091.77 2.33499 0.00731327 0
M  V30 11135 C 1092.75 1.50074 0.800733 0
M  V30 11136 O 1093.93 1.78708 0.760062 0
M  V30 11137 C 1091.06 3.33569 0.966897 0
M  V30 11138 C 1090.02 4.27064 0.282839 0
M  V30 11139 C 1089.34 5.17257 1.35461 0
M  V30 11140 C 1090.64 5.1564 -0.831438 0
M  V30 11141 H 1092.34 2.89879 -0.749044 0
M  V30 11142 H 1089.88 1.39385 -0.361656 0
M  V30 11143 H 1091.84 3.95833 1.44549 0
M  V30 11144 H 1090.56 2.75469 1.75455 0
M  V30 11145 H 1089.22 3.6618 -0.175417 0
M  V30 11146 H 1088.87 4.5549 2.13397 0
M  V30 11147 H 1088.57 5.80634 0.902098 0
M  V30 11148 H 1090.09 5.82395 1.83436 0
M  V30 11149 H 1091.51 5.71651 -0.434534 0
M  V30 11150 H 1089.9 5.87794 -1.20908 0
M  V30 11151 H 1090.97 4.54687 -1.68487 0
M  V30 11152 N 1092.32 0.406567 1.52266 0
M  V30 11153 C 1093.56 -0.170305 2.02084 0
M  V30 11154 C 1093.89 -1.45008 1.29176 0
M  V30 11155 O 1093.17 -1.90399 0.39731 0
M  V30 11156 C 1093.45 -0.420627 3.57635 0
M  V30 11157 C 1093.31 0.87564 4.41194 0
M  V30 11158 C 1094.62 -1.20387 4.23314 0
M  V30 11159 H 1091.74 -0.0604219 0.734519 0
M  V30 11160 H 1094.39 0.539529 1.82179 0
M  V30 11161 H 1092.54 -1.0253 3.74726 0
M  V30 11162 H 1094.21 1.51192 4.35819 0
M  V30 11163 H 1092.45 1.48718 4.07511 0
M  V30 11164 H 1093.12 0.654916 5.48101 0
M  V30 11165 H 1095.6 -0.691972 4.10306 0
M  V30 11166 H 1094.47 -1.34776 5.32096 0
M  V30 11167 H 1094.73 -2.2238 3.82099 0
M  V30 11168 N 1093.79 -1.57004 0.136909 0
M  V30 11169 C 1095.04 -1.9541 -0.51569 0
M  V30 11170 C 1095.36 -1.02219 -1.66061 0
M  V30 11171 O 1094.63 -0.0818172 -1.95729 0
M  V30 11172 H 1093.21 -0.721504 -0.193497 0
M  V30 11173 H 1095.88 -1.93765 0.210046 0
M  V30 11174 H 1094.97 -2.98887 -0.898494 0
M  V30 11175 N 1095.27 0.136881 -1.57004 0
M  V30 11176 C 1096.24 1.15267 -1.98106 0
M  V30 11177 C 1097.24 1.35305 -0.868856 0
M  V30 11178 O 1098.43 1.32126 -1.13527 0
M  V30 11179 C 1095.56 2.51092 -2.30577 0
M  V30 11180 H 1096.75 0.799821 -2.89038 0
M  V30 11181 H 1094.3 0.380576 -1.51596 0
M  V30 11182 H 1095.04 2.9133 -1.42469 0
M  V30 11183 H 1094.82 2.37906 -3.11678 0
M  V30 11184 H 1096.31 3.24232 -2.63179 0
M  V30 11185 N 1096.75 1.52266 0.40654 0
M  V30 11186 C 1097.7 1.75794 1.4955 0
M  V30 11187 C 1098.67 0.600472 1.54866 0
M  V30 11188 O 1099.85 0.838305 1.71397 0
M  V30 11189 C 1096.99 1.91682 2.86971 0
M  V30 11190 C 1096.11 3.19337 2.90943 0
M  V30 11191 C 1095.24 3.25641 4.1968 0
M  V30 11192 C 1094.28 4.47488 4.17637 0
M  V30 11193 N 1093.42 4.51171 5.37949 0
M  V30 11194 H 1098.26 2.68733 1.28789 0
M  V30 11195 H 1095.79 1.33157 0.625102 0
M  V30 11196 H 1097.75 1.98877 3.66748 0
M  V30 11197 H 1096.38 1.02121 3.06221 0
M  V30 11198 H 1095.43 3.21301 2.03642 0
M  V30 11199 H 1096.75 4.09153 2.85299 0
M  V30 11200 H 1095.9 3.31922 5.07851 0
M  V30 11201 H 1094.64 2.33769 4.28023 0
M  V30 11202 H 1093.64 4.41351 3.27856 0
M  V30 11203 H 1094.87 5.40659 4.10932 0
M  V30 11204 H 1092.81 3.62182 5.46955 0
M  V30 11205 H 1092.73 5.34835 5.3431 0
M  V30 11206 H 1094 4.61685 6.28066 0
M  V30 11207 N 1098.23 -0.663929 1.42933 0
M  V30 11208 C 1099.47 -1.42603 1.44195 0
M  V30 11209 C 1099.81 -1.94101 0.0620284 0
M  V30 11210 O 1099.08 -1.71609 -0.91546 0
M  V30 11211 C 1099.37 -2.61522 2.47544 0
M  V30 11212 C 1099.22 -2.15587 3.94769 0
M  V30 11213 C 1100.54 -3.6374 2.47753 0
M  V30 11214 H 1097.66 -0.517189 0.525056 0
M  V30 11215 H 1100.3 -0.75361 1.74415 0
M  V30 11216 H 1098.45 -3.1889 2.21904 0
M  V30 11217 H 1100.12 -1.63303 4.31428 0
M  V30 11218 H 1098.36 -1.47057 4.08114 0
M  V30 11219 H 1099.03 -3.01053 4.62678 0
M  V30 11220 H 1101.51 -3.16111 2.70579 0
M  V30 11221 H 1100.39 -4.44512 3.22025 0
M  V30 11222 H 1100.65 -4.15607 1.50742 0
M  V30 11223 N 1099.71 -1.29285 -0.901281 0
M  V30 11224 C 1100.93 -1.20169 -1.69039 0
M  V30 11225 C 1101.36 0.234509 -1.86632 0
M  V30 11226 O 1100.71 1.16935 -1.38549 0
M  V30 11227 C 1100.76 -1.91852 -3.05328 0
M  V30 11228 O 1099.87 -1.23448 -3.9349 0
M  V30 11229 H 1099.21 -0.416486 -0.517141 0
M  V30 11230 H 1101.74 -1.70826 -1.12603 0
M  V30 11231 H 1101.75 -2.00244 -3.5548 0
M  V30 11232 H 1100.42 -2.96313 -2.91841 0
M  V30 11233 H 1099 -1.23303 -3.51924 0
M  V30 11234 N 1101.18 1.11143 -1.11736 0
M  V30 11235 C 1102.46 1.79384 -0.779785 0
M  V30 11236 C 1102.84 1.98015 0.731668 0
M  V30 11237 O 1102.19 1.56731 1.66276 0
M  V30 11238 C 1102.4 3.12868 -1.54643 0
M  V30 11239 C 1103.75 3.8786 -1.7277 0
M  V30 11240 O 1104.77 3.22566 -1.51094 0
M  V30 11241 O 1103.63 5.05034 -2.08813 0
M  V30 11242 H 1100.72 0.777128 -0.282845 0
M  V30 11243 H 1103.27 1.17858 -1.22096 0
M  V30 11244 H 1102.04 2.94682 -2.57446 0
M  V30 11245 H 1101.67 3.82109 -1.09901 0
M  V30 11246 N 1102.66 0.908147 1.28804 0
M  V30 11247 C 1103.63 0.397058 2.25735 0
M  V30 11248 C 1104.63 -0.473483 1.53671 0
M  V30 11249 O 1105.82 -0.277335 1.71978 0
M  V30 11250 C 1102.95 -0.431392 3.38159 0
M  V30 11251 H 1104.14 1.25323 2.72459 0
M  V30 11252 H 1101.69 0.687041 1.4039 0
M  V30 11253 H 1102.43 -1.3072 2.96787 0
M  V30 11254 H 1102.21 0.192502 3.91627 0
M  V30 11255 H 1103.7 -0.78 4.10251 0
M  V30 11256 N 1104.14 -1.42577 0.671525 0
M  V30 11257 C 1105.39 -2.01882 0.192716 0
M  V30 11258 C 1105.72 -1.52959 -1.19654 0
M  V30 11259 O 1104.99 -0.730404 -1.80265 0
M  V30 11260 C 1105.28 -3.59404 0.223734 0
M  V30 11261 C 1105.13 -4.18514 1.64821 0
M  V30 11262 C 1106.45 -4.37996 -0.429858 0
M  V30 11263 H 1103.57 -0.733523 0.0715026 0
M  V30 11264 H 1106.21 -1.69641 0.855689 0
M  V30 11265 H 1104.36 -3.87003 -0.340776 0
M  V30 11266 H 1106.03 -4.01881 2.26472 0
M  V30 11267 H 1104.28 -3.74467 2.1899 0
M  V30 11268 H 1104.95 -5.27643 1.62162 0
M  V30 11269 H 1107.42 -4.16069 0.0506433 0
M  V30 11270 H 1106.3 -5.476 -0.377503 0
M  V30 11271 H 1106.56 -4.15625 -1.50693 0
M  V30 11272 N 1105.62 -0.414636 -1.52048 0
M  V30 11273 C 1106.55 0.452854 -2.23662 0
M  V30 11274 C 1107.53 1.04348 -1.24701 0
M  V30 11275 O 1108.71 1.09029 -1.53769 0
M  V30 11276 C 1105.84 1.62908 -2.96949 0
M  V30 11277 C 1104.89 1.16132 -4.10385 0
M  V30 11278 S 1105.72 0.121936 -5.35361 0
M  V30 11279 C 1106.88 1.30336 -6.12179 0
M  V30 11280 H 1107.11 -0.155202 -2.96895 0
M  V30 11281 H 1104.64 -0.198972 -1.53113 0
M  V30 11282 H 1106.6 2.30351 -3.39777 0
M  V30 11283 H 1105.26 2.20849 -2.23348 0
M  V30 11284 H 1104.45 2.04025 -4.60858 0
M  V30 11285 H 1104.06 0.565452 -3.69701 0
M  V30 11286 H 1106.35 2.22596 -6.39889 0
M  V30 11287 H 1107.29 0.839052 -7.03111 0
M  V30 11288 H 1107.7 1.53165 -5.43324 0
M  V30 11289 N 1107.1 1.56929 -0.145233 0
M  V30 11290 C 1108.51 1.82877 0.375884 0
M  V30 11291 C 1108.86 1.06384 1.64854 0
M  V30 11292 O 1107.98 0.30857 2.14189 0
M  V30 11293 C 1108.58 3.31725 0.688744 0
M  V30 11294 C 1107.14 3.58261 1.15439 0
M  V30 11295 C 1106.28 2.76737 0.176565 0
M  V30 11296 H 1109.24 1.54328 -0.36996 0
M  V30 11297 H 1109.26 3.47784 1.54359 0
M  V30 11298 H 1108.77 3.87371 -0.237694 0
M  V30 11299 H 1106.87 3.08 2.09683 0
M  V30 11300 H 1106.98 4.66732 1.08158 0
M  V30 11301 H 1105.35 2.45761 0.668843 0
M  V30 11302 H 1106.13 3.35154 -0.743432 0
M  V30 11303 N 1108.58 -0.128553 1.57075 0
M  V30 11304 C 1109.82 -0.836355 1.83982 0
M  V30 11305 C 1110.14 -1.80862 0.728971 0
M  V30 11306 O 1109.41 -1.94326 -0.247859 0
M  V30 11307 H 1107.99 -0.31185 0.678792 0
M  V30 11308 H 1110.66 -0.118153 1.94542 0
M  V30 11309 H 1109.75 -1.38741 2.79567 0
M  V30 11310 N 1110.05 -1.5248 -0.398459 0
M  V30 11311 C 1111.02 -1.75949 -1.46883 0
M  V30 11312 C 1112.02 -0.629431 -1.47969 0
M  V30 11313 O 1113.21 -0.897407 -1.49306 0
M  V30 11314 C 1110.34 -1.85162 -2.8623 0
M  V30 11315 H 1111.53 -2.71513 -1.2736 0
M  V30 11316 H 1109.08 -1.43058 -0.629619 0
M  V30 11317 H 1109.82 -0.915505 -3.11109 0
M  V30 11318 H 1109.6 -2.67326 -2.86844 0
M  V30 11319 H 1111.09 -2.05025 -3.63805 0
M  V30 11320 N 1111.53 0.65634 -1.43283 0
M  V30 11321 C 1112.78 1.41212 -1.44021 0
M  V30 11322 C 1113.09 1.95485 -0.0669783 0
M  V30 11323 O 1114.3 2.71457 0.0481909 0
M  V30 11324 C 1112.76 2.55541 -2.5343 0
M  V30 11325 C 1112.36 2.07889 -3.96845 0
M  V30 11326 C 1114.11 3.3293 -2.63359 0
M  V30 11327 C 1112.01 3.19411 -4.97726 0
M  V30 11328 H 1110.94 0.530566 -0.535739 0
M  V30 11329 H 1113.6 0.708743 -1.6926 0
M  V30 11330 H 1111.98 3.28335 -2.21387 0
M  V30 11331 H 1113.15 1.42127 -4.38334 0
M  V30 11332 H 1111.47 1.43388 -3.90933 0
M  V30 11333 H 1114.06 4.1602 -3.35903 0
M  V30 11334 H 1114.41 3.80753 -1.68324 0
M  V30 11335 H 1114.94 2.67216 -2.94687 0
M  V30 11336 H 1111.68 2.7656 -5.94302 0
M  V30 11337 H 1111.2 3.83895 -4.60853 0
M  V30 11338 H 1112.88 3.84591 -5.20287 0
M  V30 11339 N 1113.01 1.29761 0.894412 0
M  V30 11340 C 1113.94 1.1115 2.00445 0
M  V30 11341 C 1114.95 0.0574655 1.62699 0
M  V30 11342 O 1116.14 0.302528 1.75918 0
M  V30 11343 C 1113.24 0.670984 3.32191 0
M  V30 11344 C 1112.42 1.80471 3.98433 0
M  V30 11345 C 1111.48 1.35431 5.08473 0
M  V30 11346 O 1110.5 2.05994 5.30618 0
M  V30 11347 N 1111.7 0.22811 5.80052 0
M  V30 11348 H 1114.47 2.06753 2.16964 0
M  V30 11349 H 1112.03 1.21772 1.06692 0
M  V30 11350 H 1114.02 0.352877 4.03159 0
M  V30 11351 H 1112.59 -0.192735 3.12005 0
M  V30 11352 H 1111.81 2.29142 3.20761 0
M  V30 11353 H 1113.1 2.56471 4.39431 0
M  V30 11354 H 1112.5 -0.360076 5.64553 0
M  V30 11355 H 1111.05 -0.0305985 6.51793 0
M  V30 11356 N 1114.49 -1.10549 1.12324 0
M  V30 11357 C 1115.74 -1.81851 0.872531 0
M  V30 11358 C 1116.05 -1.86058 -0.603468 0
M  V30 11359 O 1117.26 -2.53553 -0.970736 0
M  V30 11360 C 1115.71 -3.26631 1.51131 0
M  V30 11361 C 1115.32 -3.30725 3.02201 0
M  V30 11362 C 1117.06 -4.02768 1.34082 0
M  V30 11363 C 1114.97 -4.69957 3.59018 0
M  V30 11364 H 1113.9 -0.681422 0.322769 0
M  V30 11365 H 1116.55 -1.24332 1.34959 0
M  V30 11366 H 1114.93 -3.8414 0.961913 0
M  V30 11367 H 1116.11 -2.83046 3.63623 0
M  V30 11368 H 1114.42 -2.68072 3.18632 0
M  V30 11369 H 1117.02 -5.05612 1.73955 0
M  V30 11370 H 1117.36 -4.15328 0.284369 0
M  V30 11371 H 1117.9 -3.51671 1.85937 0
M  V30 11372 H 1114.63 -4.62597 4.64418 0
M  V30 11373 H 1114.15 -5.18008 3.02371 0
M  V30 11374 H 1115.83 -5.38925 3.58007 0
M  V30 11375 N 1115.97 -0.914965 -1.28321 0
M  V30 11376 C 1117.2 -0.563835 -1.98757 0
M  V30 11377 C 1117.6 0.859528 -1.68549 0
M  V30 11378 O 1116.95 1.58105 -0.935336 0
M  V30 11379 C 1117.01 -0.694539 -3.52727 0
M  V30 11380 C 1116.67 -2.08767 -4.06528 0
M  V30 11381 C 1117.67 -3.06052 -4.20272 0
M  V30 11382 C 1115.35 -2.40118 -4.4119 0
M  V30 11383 C 1117.35 -4.32803 -4.67932 0
M  V30 11384 C 1115.04 -3.67108 -4.88544 0
M  V30 11385 C 1116.03 -4.63265 -5.01871 0
M  V30 11386 O 1115.72 -5.87997 -5.48192 0
M  V30 11387 H 1115.45 -0.213557 -0.641381 0
M  V30 11388 H 1118.01 -1.23062 -1.64453 0
M  V30 11389 H 1116.24 0.0293186 -3.86689 0
M  V30 11390 H 1117.93 -0.350335 -4.04385 0
M  V30 11391 H 1118.69 -2.8315 -3.93765 0
M  V30 11392 H 1114.57 -1.66025 -4.30066 0
M  V30 11393 H 1118.12 -5.07861 -4.78249 0
M  V30 11394 H 1114.01 -3.89834 -5.14489 0
M  V30 11395 H 1114.78 -5.90804 -5.66474 0
M  V30 11396 N 1117.44 1.42219 -0.679077 0
M  V30 11397 C 1118.35 2.346 -0.00345919 0
M  V30 11398 C 1119.37 1.55327 0.784181 0
M  V30 11399 O 1120.55 1.87878 0.725524 0
M  V30 11400 C 1117.61 3.33905 0.933194 0
M  V30 11401 C 1116.67 4.29073 0.139607 0
M  V30 11402 C 1115.9 5.23634 1.03165 0
M  V30 11403 O 1116.13 5.23234 2.27119 0
M  V30 11404 O 1115.06 5.99901 0.490159 0
M  V30 11405 H 1118.89 2.9392 -0.764525 0
M  V30 11406 H 1116.47 1.42794 -0.439329 0
M  V30 11407 H 1118.35 3.949 1.47077 0
M  V30 11408 H 1117.03 2.77052 1.67404 0
M  V30 11409 H 1115.94 3.71478 -0.442177 0
M  V30 11410 H 1117.27 4.88979 -0.562214 0
M  V30 11411 N 1118.92 0.422693 1.51826 0
M  V30 11412 C 1120.17 -0.148348 2.01555 0
M  V30 11413 C 1120.49 -1.44483 1.30956 0
M  V30 11414 O 1119.76 -1.90904 0.439599 0
M  V30 11415 H 1118.34 -0.0578116 0.74476 0
M  V30 11416 H 1121 0.562046 1.8662 0
M  V30 11417 H 1120.1 -0.334766 3.10299 0
M  V30 11418 N 1120.4 -1.5685 0.153553 0
M  V30 11419 C 1121.65 -1.95946 -0.494936 0
M  V30 11420 C 1121.97 -1.03975 -1.64967 0
M  V30 11421 O 1121.24 -0.102572 -1.95631 0
M  V30 11422 H 1119.82 -0.723516 -0.185833 0
M  V30 11423 H 1122.48 -1.93531 0.230585 0
M  V30 11424 H 1121.58 -2.99823 -0.866743 0
M  V30 11425 N 1121.88 0.120221 -1.57141 0
M  V30 11426 C 1123.12 0.824472 -1.85941 0
M  V30 11427 C 1123.48 1.77552 -0.741152 0
M  V30 11428 O 1122.77 1.89842 0.258939 0
M  V30 11429 C 1122.97 1.61338 -3.18912 0
M  V30 11430 C 1122.79 0.740224 -4.43566 0
M  V30 11431 C 1121.56 0.39553 -5.0375 0
M  V30 11432 C 1123.76 0.0584053 -5.14267 0
M  V30 11433 N 1121.74 -0.488415 -6.11954 0
M  V30 11434 C 1123.12 -0.684591 -6.16209 0
M  V30 11435 C 1125.17 -0.0181409 -4.97897 0
M  V30 11436 C 1123.87 -1.49694 -7.03551 0
M  V30 11437 C 1125.9 -0.817313 -5.85725 0
M  V30 11438 C 1125.26 -1.54851 -6.87169 0
M  V30 11439 H 1121.36 0.278664 -0.730664 0
M  V30 11440 H 1123.94 0.0882789 -1.945 0
M  V30 11441 H 1122.12 2.32062 -3.11451 0
M  V30 11442 H 1123.85 2.26287 -3.35524 0
M  V30 11443 H 1120.6 0.737491 -4.67823 0
M  V30 11444 H 1121.03 -0.9222 -6.7069 0
M  V30 11445 H 1125.67 0.532815 -4.19429 0
M  V30 11446 H 1123.39 -2.05906 -7.81427 0
M  V30 11447 H 1126.97 -0.878884 -5.75123 0
M  V30 11448 H 1125.85 -2.15696 -7.53953 0
M  V30 11449 N 1123.36 1.52689 0.390367 0
M  V30 11450 C 1124.59 1.71292 1.1551 0
M  V30 11451 C 1124.99 0.430405 1.84239 0
M  V30 11452 O 1124.34 -0.604823 1.73458 0
M  V30 11453 C 1124.4 2.80597 2.24735 0
M  V30 11454 C 1124.06 4.21757 1.75984 0
M  V30 11455 C 1125.06 5.04961 1.23733 0
M  V30 11456 C 1122.75 4.68071 1.82248 0
M  V30 11457 C 1124.74 6.32561 0.783926 0
M  V30 11458 C 1122.43 5.95656 1.36519 0
M  V30 11459 C 1123.42 6.7773 0.846786 0
M  V30 11460 O 1123.11 8.02923 0.396164 0
M  V30 11461 H 1122.84 0.576906 0.352356 0
M  V30 11462 H 1125.4 2.00117 0.462865 0
M  V30 11463 H 1123.63 2.4719 2.97378 0
M  V30 11464 H 1125.32 2.87616 2.86412 0
M  V30 11465 H 1126.08 4.70363 1.18251 0
M  V30 11466 H 1121.96 4.04278 2.21541 0
M  V30 11467 H 1125.51 6.96572 0.378612 0
M  V30 11468 H 1121.4 6.29758 1.41686 0
M  V30 11469 H 1122.17 8.16861 0.517766 0
M  V30 11470 N 1124.83 -0.648732 1.43629 0
M  V30 11471 C 1126.11 -1.4062 1.35961 0
M  V30 11472 C 1126.49 -2.11098 0.00961023 0
M  V30 11473 O 1125.84 -2.05107 -1.00714 0
M  V30 11474 C 1126.05 -2.38719 2.54586 0
M  V30 11475 C 1127.4 -3.02584 2.97873 0
M  V30 11476 O 1128.42 -2.49046 2.54665 0
M  V30 11477 O 1127.28 -3.99662 3.72736 0
M  V30 11478 H 1124.37 -0.628483 0.53753 0
M  V30 11479 H 1126.92 -0.675263 1.55687 0
M  V30 11480 H 1125.69 -1.85619 3.44472 0
M  V30 11481 H 1125.32 -3.19257 2.36983 0
M  V30 11482 N 1126.31 -1.30234 -0.887518 0
M  V30 11483 C 1127.72 -1.17048 -1.45453 0
M  V30 11484 C 1128.07 0.229793 -1.9485 0
M  V30 11485 O 1127.2 1.12628 -1.84781 0
M  V30 11486 C 1127.79 -2.11876 -2.64375 0
M  V30 11487 C 1126.35 -2.02676 -3.17174 0
M  V30 11488 C 1125.5 -2.02104 -1.89866 0
M  V30 11489 H 1128.45 -1.42541 -0.697694 0
M  V30 11490 H 1128.47 -1.69811 -3.40506 0
M  V30 11491 H 1127.98 -3.13781 -2.28392 0
M  V30 11492 H 1126.09 -1.03904 -3.57819 0
M  V30 11493 H 1126.2 -2.90939 -3.80646 0
M  V30 11494 H 1124.56 -1.4687 -2.0809 0
M  V30 11495 H 1125.35 -3.05735 -1.56145 0
M  V30 11496 N 1127.79 1.09952 -1.12909 0
M  V30 11497 C 1128.72 2.18477 -0.824014 0
M  V30 11498 C 1129.7 1.68744 0.214324 0
M  V30 11499 O 1130.89 1.94057 0.0744281 0
M  V30 11500 C 1128.02 3.46143 -0.283308 0
M  V30 11501 C 1126.97 4.09178 -1.25528 0
M  V30 11502 C 1126.3 5.31604 -0.574574 0
M  V30 11503 C 1127.6 4.52308 -2.6118 0
M  V30 11504 H 1129.29 2.44254 -1.73148 0
M  V30 11505 H 1126.84 1.17394 -0.833952 0
M  V30 11506 H 1128.79 4.21361 -0.057583 0
M  V30 11507 H 1127.51 3.19872 0.659525 0
M  V30 11508 H 1126.17 3.35973 -1.4669 0
M  V30 11509 H 1125.82 5.01611 0.37356 0
M  V30 11510 H 1125.52 5.74732 -1.22299 0
M  V30 11511 H 1127.04 6.0955 -0.358004 0
M  V30 11512 H 1128.46 5.18776 -2.44017 0
M  V30 11513 H 1126.86 5.06302 -3.22147 0
M  V30 11514 H 1127.93 3.64977 -3.19249 0
M  V30 11515 N 1129.27 0.921757 1.27833 0
M  V30 11516 C 1130.55 0.477706 1.89677 0
M  V30 11517 C 1130.93 -1.04392 1.83481 0
M  V30 11518 O 1130.27 -1.89549 1.27606 0
M  V30 11519 C 1130.48 1.01709 3.33851 0
M  V30 11520 C 1131.83 1.074 4.10792 0
M  V30 11521 O 1132.86 0.966295 3.42843 0
M  V30 11522 O 1131.71 1.23909 5.32268 0
M  V30 11523 H 1128.81 0.15271 0.812778 0
M  V30 11524 H 1131.35 1.01306 1.36144 0
M  V30 11525 H 1130.13 2.061 3.32623 0
M  V30 11526 H 1129.75 0.463031 3.94895 0
M  V30 11527 N 1130.75 -1.41857 0.686609 0
M  V30 11528 C 1132.16 -1.84439 0.289662 0
M  V30 11529 C 1132.51 -1.57462 -1.17047 0
M  V30 11530 O 1131.63 -1.04046 -1.89745 0
M  V30 11531 C 1132.23 -3.34802 0.518948 0
M  V30 11532 C 1130.79 -3.75988 0.176007 0
M  V30 11533 C 1129.93 -2.65339 0.805632 0
M  V30 11534 H 1132.89 -1.31536 0.88792 0
M  V30 11535 H 1132.91 -3.79833 -0.225209 0
M  V30 11536 H 1132.42 -3.54405 1.58173 0
M  V30 11537 H 1130.52 -3.61989 -0.882865 0
M  V30 11538 H 1130.63 -4.75009 0.624772 0
M  V30 11539 H 1129 -2.53605 0.235966 0
M  V30 11540 H 1129.78 -2.87762 1.8721 0
M  V30 11541 N 1132.22 -0.430739 -1.51599 0
M  V30 11542 C 1133.45 0.139197 -2.06932 0
M  V30 11543 C 1133.87 1.3626 -1.29672 0
M  V30 11544 O 1133.23 1.78219 -0.332836 0
M  V30 11545 C 1133.28 0.446593 -3.57824 0
M  V30 11546 O 1132.38 1.53414 -3.82803 0
M  V30 11547 H 1131.73 0.00475812 -0.663983 0
M  V30 11548 H 1134.26 -0.610171 -1.9529 0
M  V30 11549 H 1134.27 0.698972 -4.01968 0
M  V30 11550 H 1132.94 -0.447613 -4.13484 0
M  V30 11551 H 1131.52 1.27224 -3.50526 0
M  V30 11552 N 1133.7 1.56767 -0.161869 0
M  V30 11553 C 1134.61 2.21083 0.784814 0
M  V30 11554 C 1135.63 1.19959 1.26039 0
M  V30 11555 O 1136.8 1.52588 1.31449 0
M  V30 11556 C 1133.87 2.83153 2.00063 0
M  V30 11557 C 1132.93 3.9945 1.57285 0
M  V30 11558 C 1132.16 4.5855 2.7307 0
M  V30 11559 O 1132.39 4.16534 3.89686 0
M  V30 11560 O 1131.32 5.48575 2.47688 0
M  V30 11561 H 1135.15 3.02522 0.267243 0
M  V30 11562 H 1132.73 1.49255 0.0658783 0
M  V30 11563 H 1134.61 3.22546 2.71186 0
M  V30 11564 H 1133.29 2.04718 2.50744 0
M  V30 11565 H 1132.2 3.64745 0.831393 0
M  V30 11566 H 1133.53 4.7945 1.11304 0
M  V30 11567 N 1135.18 -0.111886 1.57202 0
M  V30 11568 C 1136.09 -1.1556 2.04165 0
M  V30 11569 C 1137.11 -1.44898 0.963354 0
M  V30 11570 O 1138.28 -1.55873 1.27536 0
M  V30 11571 C 1135.35 -2.46048 2.44256 0
M  V30 11572 C 1134.41 -2.24043 3.66201 0
M  V30 11573 C 1133.64 -3.4831 4.04371 0
M  V30 11574 O 1133.86 -4.55895 3.42806 0
M  V30 11575 O 1132.8 -3.38891 4.9743 0
M  V30 11576 H 1136.62 -0.786778 2.93332 0
M  V30 11577 H 1134.21 -0.323196 1.45862 0
M  V30 11578 H 1136.09 -3.22916 2.70745 0
M  V30 11579 H 1134.77 -2.8239 1.58233 0
M  V30 11580 H 1133.67 -1.4501 3.44852 0
M  V30 11581 H 1135.01 -1.92602 4.52952 0
M  V30 11582 N 1136.66 -1.52894 -0.382264 0
M  V30 11583 C 1137.91 -1.67933 -1.1244 0
M  V30 11584 C 1138.23 -0.425166 -1.90309 0
M  V30 11585 O 1137.5 0.560557 -1.87709 0
M  V30 11586 H 1136.08 -0.619047 -0.418079 0
M  V30 11587 H 1138.74 -1.90031 -0.432928 0
M  V30 11588 H 1137.84 -2.53285 -1.82355 0
M  V30 11589 N 1138.14 0.641106 -1.43971 0
M  V30 11590 C 1139.37 1.42829 -1.49692 0
M  V30 11591 C 1139.78 1.88427 -0.118594 0
M  V30 11592 O 1139.14 1.60234 0.873581 0
M  V30 11593 C 1139.19 2.65524 -2.45314 0
M  V30 11594 O 1138.91 2.2183 -3.77787 0
M  V30 11595 C 1140.41 3.58758 -2.60399 0
M  V30 11596 H 1137.63 0.438367 -0.508011 0
M  V30 11597 H 1140.17 0.784933 -1.88836 0
M  V30 11598 H 1138.33 3.25973 -2.09332 0
M  V30 11599 H 1138.74 3.01303 -4.29321 0
M  V30 11600 H 1140.22 4.41483 -3.31357 0
M  V30 11601 H 1140.69 4.06909 -1.65294 0
M  V30 11602 H 1141.3 3.04184 -2.97241 0
M  V30 11603 N 1139.62 1.30703 0.880598 0
M  V30 11604 C 1140.55 1.20033 2.00286 0
M  V30 11605 C 1141.53 0.0899614 1.69862 0
M  V30 11606 O 1142.71 0.272747 1.92275 0
M  V30 11607 C 1139.84 0.895902 3.35546 0
M  V30 11608 C 1138.8 1.96468 3.80242 0
M  V30 11609 C 1138.12 1.51316 5.12843 0
M  V30 11610 C 1139.42 3.37637 3.98496 0
M  V30 11611 H 1141.12 2.13922 2.0947 0
M  V30 11612 H 1138.66 1.02989 1.00644 0
M  V30 11613 H 1140.61 0.807899 4.13583 0
M  V30 11614 H 1139.34 -0.0786636 3.26505 0
M  V30 11615 H 1138 2.0424 3.04437 0
M  V30 11616 H 1137.65 0.52674 5.00234 0
M  V30 11617 H 1137.35 2.22807 5.43719 0
M  V30 11618 H 1138.87 1.43903 5.93401 0
M  V30 11619 H 1140.28 3.326 4.66959 0
M  V30 11620 H 1138.68 4.07253 4.40755 0
M  V30 11621 H 1139.75 3.79205 3.02211 0
M  V30 11622 N 1141.09 -1.09351 1.1349 0
M  V30 11623 C 1142.37 -1.78121 0.808225 0
M  V30 11624 C 1142.75 -1.99154 -0.700072 0
M  V30 11625 O 1142.1 -1.59356 -1.63762 0
M  V30 11626 C 1142.31 -3.10368 1.59601 0
M  V30 11627 C 1143.66 -3.85063 1.78919 0
M  V30 11628 O 1144.68 -3.20122 1.56206 0
M  V30 11629 O 1143.54 -5.01648 2.16821 0
M  V30 11630 H 1140.63 -0.77253 0.295173 0
M  V30 11631 H 1143.18 -1.15901 1.23956 0
M  V30 11632 H 1141.95 -2.90549 2.62101 0
M  V30 11633 H 1141.57 -3.80312 1.15967 0
M  V30 11634 N 1142.57 -0.928524 -1.27343 0
M  V30 11635 C 1143.52 -0.426873 -2.26818 0
M  V30 11636 C 1144.49 0.506663 -1.58184 0
M  V30 11637 O 1145.67 0.425641 -1.85992 0
M  V30 11638 C 1142.81 0.313523 -3.43673 0
M  V30 11639 C 1141.93 -0.65422 -4.27018 0
M  V30 11640 C 1141.06 0.106102 -5.31094 0
M  V30 11641 C 1140.1 -0.854293 -6.06109 0
M  V30 11642 N 1139.24 -0.126545 -7.01986 0
M  V30 11643 H 1144.08 -1.28014 -2.69103 0
M  V30 11644 H 1141.61 -0.642515 -1.32326 0
M  V30 11645 H 1143.57 0.75912 -4.10236 0
M  V30 11646 H 1142.2 1.13102 -3.02337 0
M  V30 11647 H 1141.25 -1.21834 -3.60362 0
M  V30 11648 H 1142.57 -1.38817 -4.79094 0
M  V30 11649 H 1141.72 0.611577 -6.0361 0
M  V30 11650 H 1140.46 0.873009 -4.79823 0
M  V30 11651 H 1139.46 -1.37101 -5.32432 0
M  V30 11652 H 1140.69 -1.621 -6.5947 0
M  V30 11653 H 1138.64 0.622102 -6.53044 0
M  V30 11654 H 1138.55 -0.800046 -7.51755 0
M  V30 11655 H 1139.82 0.358251 -7.78676 0
M  V30 11656 N 1144.05 1.41491 -0.694123 0
M  V30 11657 C 1145.28 2.0528 -0.233128 0
M  V30 11658 C 1145.69 1.52329 1.12217 0
M  V30 11659 O 1145.03 0.66579 1.7121 0
M  V30 11660 C 1145.09 3.59326 -0.111718 0
M  V30 11661 C 1144.76 4.35065 -1.39882 0
M  V30 11662 C 1145.75 4.64446 -2.33637 0
M  V30 11663 C 1143.44 4.74364 -1.65179 0
M  V30 11664 C 1145.43 5.32083 -3.50951 0
M  V30 11665 C 1143.12 5.41737 -2.82779 0
M  V30 11666 C 1144.12 5.70524 -3.75488 0
M  V30 11667 O 1143.81 6.36511 -4.91029 0
M  V30 11668 H 1143.54 0.667571 -0.106418 0
M  V30 11669 H 1146.09 1.82276 -0.94682 0
M  V30 11670 H 1144.32 3.81065 0.65773 0
M  V30 11671 H 1146.01 4.047 0.311906 0
M  V30 11672 H 1146.78 4.34568 -2.1535 0
M  V30 11673 H 1142.66 4.5134 -0.93881 0
M  V30 11674 H 1146.2 5.54468 -4.23333 0
M  V30 11675 H 1142.1 5.71033 -3.00984 0
M  V30 11676 H 1142.86 6.55006 -4.90825 0
M  V30 11677 N 1145.53 0.438773 1.51369 0
M  V30 11678 C 1146.78 -0.126962 2.01701 0
M  V30 11679 C 1147.1 -1.43086 1.32481 0
M  V30 11680 O 1146.37 -1.90427 0.459823 0
M  V30 11681 H 1144.95 -0.0499092 0.745331 0
M  V30 11682 H 1147.61 0.581808 1.86013 0
M  V30 11683 H 1146.7 -0.301836 3.10637 0
M  V30 11684 N 1147.01 -1.56678 0.170181 0
M  V30 11685 C 1148.28 -1.88524 -0.521362 0
M  V30 11686 C 1148.66 -1.07989 -1.81388 0
M  V30 11687 O 1148.01 -0.17347 -2.27841 0
M  V30 11688 C 1148.22 -3.40527 -0.764367 0
M  V30 11689 C 1149.57 -4.10241 -1.09487 0
M  V30 11690 O 1150.59 -3.45837 -0.852945 0
M  V30 11691 O 1149.45 -5.24022 -1.55124 0
M  V30 11692 H 1146.55 -0.782161 -0.268614 0
M  V30 11693 H 1149.09 -1.68414 0.208531 0
M  V30 11694 H 1147.86 -3.91015 0.149416 0
M  V30 11695 H 1147.49 -3.66244 -1.54762 0
M  V30 11696 N 1148.48 0.103547 -1.57259 0
M  V30 11697 C 1149.73 0.809774 -1.85931 0
M  V30 11698 C 1150.06 1.78791 -0.758122 0
M  V30 11699 O 1149.34 1.93079 0.234682 0
M  V30 11700 C 1149.62 1.54601 -3.25224 0
M  V30 11701 C 1149.47 0.586439 -4.45961 0
M  V30 11702 C 1150.79 2.4986 -3.62296 0
M  V30 11703 H 1147.91 0.29293 -0.676285 0
M  V30 11704 H 1150.55 0.0736065 -1.89857 0
M  V30 11705 H 1148.7 2.17355 -3.22008 0
M  V30 11706 H 1150.38 -0.0334441 -4.61288 0
M  V30 11707 H 1148.62 -0.10085 -4.33683 0
M  V30 11708 H 1149.29 1.13855 -5.40131 0
M  V30 11709 H 1151.77 1.97203 -3.66402 0
M  V30 11710 H 1150.64 2.98396 -4.60707 0
M  V30 11711 H 1150.9 3.33233 -2.90531 0
M  V30 11712 N 1149.96 1.53094 0.37415 0
M  V30 11713 C 1150.91 1.79585 1.47824 0
M  V30 11714 C 1151.9 0.664513 1.55822 0
M  V30 11715 O 1153.11 0.84729 1.58811 0
M  V30 11716 H 1149.48 0.568474 0.492282 0
M  V30 11717 H 1151.46 2.72014 1.22681 0
M  V30 11718 C 1150.2 1.995 2.84772 0
M  V30 11719 H 1149.53 2.85991 2.79373 0
M  V30 11720 H 1150.97 2.22018 3.61226 0
M  V30 11721 C 1149.43 0.771673 3.27943 0
M  V30 11722 O 1149.96 -0.0437737 4.01676 0
M  V30 11723 N 1148.16 0.597547 2.8439 0
M  V30 11724 H 1147.71 1.26227 2.24554 0
M  V30 11725 H 1147.67 -0.219578 3.13632 0
M  V30 11726 N 1151.44 -0.633461 1.44309 0
M  V30 11727 C 1152.69 -1.39513 1.47187 0
M  V30 11728 C 1153.02 -1.93926 0.103186 0
M  V30 11729 O 1152.29 -1.73512 -0.878853 0
M  V30 11730 C 1152.58 -2.56213 2.53036 0
M  V30 11731 C 1152.43 -2.07164 3.99253 0
M  V30 11732 C 1153.75 -3.58403 2.55412 0
M  V30 11733 H 1150.87 -0.505936 0.535908 0
M  V30 11734 H 1153.51 -0.716445 1.75975 0
M  V30 11735 H 1151.66 -3.14111 2.28619 0
M  V30 11736 H 1153.33 -1.54115 4.34795 0
M  V30 11737 H 1151.57 -1.38367 4.11141 0
M  V30 11738 H 1152.25 -2.91172 4.6896 0
M  V30 11739 H 1154.72 -3.103 2.77224 0
M  V30 11740 H 1153.6 -4.37581 3.31382 0
M  V30 11741 H 1153.86 -4.12316 1.59523 0
M  V30 11742 N 1152.92 -1.31168 -0.873655 0
M  V30 11743 C 1153.85 -1.21094 -1.99646 0
M  V30 11744 C 1154.83 -0.0989684 -1.69812 0
M  V30 11745 O 1156.01 -0.282939 -1.92128 0
M  V30 11746 C 1153.14 -0.913684 -3.35066 0
M  V30 11747 C 1152.1 -1.98482 -3.79195 0
M  V30 11748 C 1151.42 -1.54033 -5.12033 0
M  V30 11749 C 1152.72 -3.39745 -3.96699 0
M  V30 11750 H 1154.42 -2.1503 -2.08333 0
M  V30 11751 H 1151.96 -1.03521 -1.00097 0
M  V30 11752 H 1153.92 -0.829821 -4.13149 0
M  V30 11753 H 1152.64 0.0613471 -3.26542 0
M  V30 11754 H 1151.3 -2.05851 -3.03349 0
M  V30 11755 H 1150.95 -0.553261 -4.99948 0
M  V30 11756 H 1150.65 -2.25688 -5.4253 0
M  V30 11757 H 1152.17 -1.47047 -5.92629 0
M  V30 11758 H 1153.59 -3.35071 -4.65188 0
M  V30 11759 H 1151.98 -4.09585 -4.38589 0
M  V30 11760 H 1153.05 -3.80802 -3.00196 0
M  V30 11761 N 1154.4 1.08748 -1.14068 0
M  V30 11762 C 1155.62 1.85353 -0.930532 0
M  V30 11763 C 1156.05 1.80892 0.515717 0
M  V30 11764 O 1155.4 1.19146 1.36652 0
M  V30 11765 C 1155.45 3.30962 -1.43167 0
M  V30 11766 O 1154.56 4.0769 -0.621468 0
M  V30 11767 H 1153.9 0.574485 -0.332962 0
M  V30 11768 H 1156.43 1.37282 -1.51707 0
M  V30 11769 H 1156.44 3.81807 -1.43832 0
M  V30 11770 H 1155.11 3.33524 -2.48464 0
M  V30 11771 H 1153.69 3.66587 -0.683267 0
M  V30 11772 N 1155.87 0.935264 1.26849 0
M  V30 11773 C 1156.8 0.457776 2.28969 0
M  V30 11774 C 1157.79 -0.48587 1.63013 0
M  V30 11775 O 1158.97 -0.388998 1.90264 0
M  V30 11776 C 1156.1 -0.283332 3.46142 0
M  V30 11777 C 1155.05 0.573196 4.24144 0
M  V30 11778 C 1154.38 -0.297525 5.33872 0
M  V30 11779 C 1155.68 1.84153 4.88759 0
M  V30 11780 H 1157.37 1.31125 2.69159 0
M  V30 11781 H 1154.92 0.631956 1.29392 0
M  V30 11782 H 1156.87 -0.628366 4.16689 0
M  V30 11783 H 1155.6 -1.1709 3.04889 0
M  V30 11784 H 1154.26 0.901043 3.55354 0
M  V30 11785 H 1153.9 -1.18427 4.8886 0
M  V30 11786 H 1153.6 0.272126 5.8697 0
M  V30 11787 H 1155.13 -0.637961 6.07258 0
M  V30 11788 H 1156.54 1.5641 5.51551 0
M  V30 11789 H 1154.94 2.35528 5.51948 0
M  V30 11790 H 1156.01 2.5565 4.12033 0
M  V30 11791 N 1157.35 -1.41121 0.701616 0
M  V30 11792 C 1158.63 -1.9492 0.162911 0
M  V30 11793 C 1159.01 -1.64064 -1.32839 0
M  V30 11794 O 1158.36 -0.950848 -2.07777 0
M  V30 11795 C 1158.57 -3.45946 0.460673 0
M  V30 11796 C 1159.92 -4.22789 0.391706 0
M  V30 11797 O 1160.94 -3.53993 0.395931 0
M  V30 11798 O 1159.8 -5.45332 0.357071 0
M  V30 11799 H 1156.89 -0.826793 0.0185103 0
M  V30 11800 H 1159.44 -1.50805 0.778192 0
M  V30 11801 H 1158.21 -3.61711 1.49269 0
M  V30 11802 H 1157.83 -3.97168 -0.185277 0
M  V30 11803 N 1158.83 -0.446794 -1.51134 0
M  V30 11804 C 1160.08 0.116666 -2.02464 0
M  V30 11805 C 1160.41 1.41532 -1.32975 0
M  V30 11806 O 1159.68 1.89278 -0.447651 0
M  V30 11807 C 1159.97 0.325659 -3.58624 0
M  V30 11808 C 1159.82 -0.992307 -4.38718 0
M  V30 11809 C 1161.14 1.09121 -4.26357 0
M  V30 11810 H 1158.26 0.0409262 -0.735863 0
M  V30 11811 H 1160.9 -0.587641 -1.80684 0
M  V30 11812 H 1159.05 0.925585 -3.77313 0
M  V30 11813 H 1160.72 -1.62694 -4.31658 0
M  V30 11814 H 1158.97 -1.5947 -4.03425 0
M  V30 11815 H 1159.64 -0.800005 -5.46172 0
M  V30 11816 H 1162.11 0.582944 -4.11996 0
M  V30 11817 H 1160.99 1.20621 -5.35483 0
M  V30 11818 H 1161.25 2.12171 -3.87861 0
M  V30 11819 N 1160.31 1.56586 -0.178487 0
M  V30 11820 C 1161.56 1.96709 0.4637 0
M  V30 11821 C 1161.88 1.06586 1.63292 0
M  V30 11822 O 1161.15 0.133683 1.95443 0
M  V30 11823 H 1159.73 0.726381 0.174299 0
M  V30 11824 H 1162.39 1.9314 -0.261345 0
M  V30 11825 H 1161.49 3.01164 0.818934 0
M  V30 11826 N 1161.79 -0.095206 1.57312 0
M  V30 11827 C 1163.01 -0.81227 1.90289 0
M  V30 11828 C 1163.43 -1.72287 0.772178 0
M  V30 11829 O 1162.79 -1.80698 -0.255841 0
M  V30 11830 C 1162.84 -1.62572 3.22882 0
M  V30 11831 O 1162.56 -0.75175 4.31602 0
M  V30 11832 C 1164.06 -2.44585 3.6972 0
M  V30 11833 H 1161.28 -0.232256 0.629522 0
M  V30 11834 H 1163.82 -0.0724733 2.04372 0
M  V30 11835 H 1161.98 -2.31803 3.10397 0
M  V30 11836 H 1162.39 -1.31514 5.07744 0
M  V30 11837 H 1163.87 -2.97155 4.65191 0
M  V30 11838 H 1164.34 -3.23044 2.97555 0
M  V30 11839 H 1164.95 -1.80554 3.85072 0
M  V30 11840 N 1163.26 -1.53291 -0.366026 0
M  V30 11841 C 1164.49 -1.73665 -1.13381 0
M  V30 11842 C 1164.91 -0.464284 -1.8228 0
M  V30 11843 O 1164.27 0.581645 -1.71717 0
M  V30 11844 C 1164.32 -2.90225 -2.14013 0
M  V30 11845 O 1163.42 -2.58803 -3.21084 0
M  V30 11846 H 1162.77 -0.576762 -0.329 0
M  V30 11847 H 1165.3 -2.00174 -0.423287 0
M  V30 11848 H 1165.31 -3.16378 -2.57622 0
M  V30 11849 H 1163.98 -3.82518 -1.63257 0
M  V30 11850 H 1162.56 -2.43466 -2.82451 0
M  V30 11851 N 1164.74 0.6258 -1.44643 0
M  V30 11852 C 1165.69 1.73751 -1.51919 0
M  V30 11853 C 1166.66 1.62007 -0.36647 0
M  V30 11854 O 1167.84 1.81852 -0.577439 0
M  V30 11855 C 1164.98 3.12015 -1.47448 0
M  V30 11856 C 1164.1 3.34696 -2.73135 0
M  V30 11857 C 1163.23 4.62962 -2.6046 0
M  V30 11858 C 1162.27 4.7884 -3.81286 0
M  V30 11859 N 1161.41 5.98388 -3.67255 0
M  V30 11860 H 1166.25 1.66867 -2.46899 0
M  V30 11861 H 1163.79 0.813921 -1.22531 0
M  V30 11862 H 1165.74 3.91983 -1.42846 0
M  V30 11863 H 1164.37 3.179 -0.560312 0
M  V30 11864 H 1163.43 2.4863 -2.87901 0
M  V30 11865 H 1164.74 3.42306 -3.62806 0
M  V30 11866 H 1163.89 5.51099 -2.53722 0
M  V30 11867 H 1162.63 4.57719 -1.68359 0
M  V30 11868 H 1161.64 3.89131 -3.88403 0
M  V30 11869 H 1162.86 4.85893 -4.74431 0
M  V30 11870 H 1160.81 5.94224 -2.77909 0
M  V30 11871 H 1160.72 6.07078 -4.50547 0
M  V30 11872 H 1161.99 6.89072 -3.64417 0
M  V30 11873 N 1166.22 1.31629 0.866686 0
M  V30 11874 C 1167.15 1.22151 1.99001 0
M  V30 11875 C 1168.13 0.107972 1.69757 0
M  V30 11876 O 1169.32 0.293125 1.91975 0
M  V30 11877 C 1166.45 0.93144 3.34577 0
M  V30 11878 C 1165.4 2.0049 3.78137 0
M  V30 11879 C 1164.73 1.56747 5.11209 0
M  V30 11880 C 1166.03 3.41844 3.94892 0
M  V30 11881 H 1167.72 2.16132 2.0719 0
M  V30 11882 H 1165.27 1.04051 0.995463 0
M  V30 11883 H 1167.22 0.851719 4.12703 0
M  V30 11884 H 1165.94 -0.0440289 3.2657 0
M  V30 11885 H 1164.6 2.07457 3.02253 0
M  V30 11886 H 1164.25 0.579767 4.99648 0
M  V30 11887 H 1163.95 2.28562 5.41326 0
M  V30 11888 H 1165.47 1.50188 5.91841 0
M  V30 11889 H 1166.89 3.37534 4.63405 0
M  V30 11890 H 1165.29 4.11905 4.36411 0
M  V30 11891 H 1166.36 3.82389 2.98172 0
M  V30 11892 N 1167.7 -1.08142 1.14644 0
M  V30 11893 C 1168.66 -2.13308 0.83859 0
M  V30 11894 C 1169.66 -1.60022 -0.158012 0
M  V30 11895 O 1170.85 -1.74057 0.0706621 0
M  V30 11896 C 1167.98 -3.39978 0.250591 0
M  V30 11897 H 1169.18 -2.42049 1.77066 0
M  V30 11898 H 1166.73 -1.23899 0.952828 0
M  V30 11899 H 1167.47 -3.16873 -0.690064 0
M  V30 11900 H 1167.25 -3.79952 0.968456 0
M  V30 11901 H 1168.74 -4.17567 0.0525115 0
M  V30 11902 N 1169.18 -0.941978 -1.26351 0
M  V30 11903 C 1170.11 -0.409504 -2.25512 0
M  V30 11904 C 1171.12 0.467665 -1.55938 0
M  V30 11905 O 1172.31 0.277982 -1.76322 0
M  V30 11906 C 1169.41 0.430487 -3.36155 0
M  V30 11907 C 1168.58 -0.430714 -4.35274 0
M  V30 11908 C 1167.64 0.348976 -5.25042 0
M  V30 11909 O 1166.67 -0.24827 -5.68658 0
M  V30 11910 N 1167.87 1.64531 -5.56695 0
M  V30 11911 H 1170.64 -1.26196 -2.71836 0
M  V30 11912 H 1168.2 -0.810947 -1.40126 0
M  V30 11913 H 1170.19 0.959501 -3.93161 0
M  V30 11914 H 1168.76 1.18375 -2.8932 0
M  V30 11915 H 1167.98 -1.14093 -3.77328 0
M  V30 11916 H 1169.27 -1.01896 -4.98492 0
M  V30 11917 H 1168.67 2.15266 -5.23142 0
M  V30 11918 H 1167.22 2.12055 -6.16341 0
M  V30 11919 N 1170.66 1.40747 -0.709091 0
M  V30 11920 C 1171.9 2.00606 -0.245324 0
M  V30 11921 C 1172.22 1.56489 1.16346 0
M  V30 11922 O 1171.49 0.801456 1.78755 0
M  V30 11923 H 1170.07 0.741833 -0.0877098 0
M  V30 11924 H 1172.74 1.72178 -0.913271 0
M  V30 11925 H 1171.83 3.10901 -0.273322 0
M  V30 11926 N 1172.13 0.454803 1.50895 0
M  V30 11927 C 1173.08 -0.361974 2.29766 0
M  V30 11928 C 1174.08 -1.00519 1.36353 0
M  V30 11929 O 1175.28 -0.938159 1.53618 0
M  V30 11930 H 1171.66 -0.135559 0.739681 0
M  V30 11931 H 1173.63 0.323853 2.96637 0
M  V30 11932 C 1172.38 -1.44078 3.16444 0
M  V30 11933 H 1171.7 -0.955212 3.88221 0
M  V30 11934 H 1173.14 -1.98518 3.74655 0
M  V30 11935 C 1171.6 -2.43374 2.32961 0
M  V30 11936 O 1172.13 -3.48295 2.00133 0
M  V30 11937 N 1170.33 -2.14689 1.95849 0
M  V30 11938 H 1169.88 -1.29392 2.22745 0
M  V30 11939 H 1169.84 -2.81363 1.40292 0
M  V30 11940 N 1173.61 -1.56489 0.186789 0
M  V30 11941 C 1174.85 -1.99239 -0.456427 0
M  V30 11942 C 1175.22 -1.07076 -1.5937 0
M  V30 11943 O 1176.42 -1.39028 -2.30054 0
M  V30 11944 C 1174.69 -3.45553 -0.912587 0
M  V30 11945 S 1176.25 -4.1033 -1.55481 0
M  V30 11946 H 1173.06 -0.695792 -0.146267 0
M  V30 11947 H 1175.67 -1.93369 0.287899 0
M  V30 11948 H 1174.37 -4.10332 -0.0746877 0
M  V30 11949 H 1173.9 -3.55222 -1.69058 0
M  V30 11950 H 1175.92 -4.06653 -2.84338 0
M  V30 11951 N 1175.09 0.086862 -1.5736 0
M  V30 11952 C 1176.34 0.787281 -1.86135 0
M  V30 11953 C 1176.66 1.78866 -0.776667 0
M  V30 11954 O 1175.93 1.94915 0.19625 0
M  V30 11955 H 1174.51 0.293744 -0.686821 0
M  V30 11956 H 1177.17 0.0665326 -1.94786 0
M  V30 11957 H 1176.27 1.3128 -2.83147 0
M  V30 11958 N 1176.57 1.53483 0.357892 0
M  V30 11959 C 1177.5 1.76757 1.4591 0
M  V30 11960 C 1178.51 0.648502 1.49326 0
M  V30 11961 O 1179.7 0.924932 1.52667 0
M  V30 11962 C 1176.8 1.83938 2.8464 0
M  V30 11963 C 1175.97 3.13683 3.04831 0
M  V30 11964 C 1175.03 3.12007 4.23719 0
M  V30 11965 O 1174.06 3.8578 4.18524 0
M  V30 11966 N 1175.26 2.33366 5.31527 0
M  V30 11967 H 1178.03 2.71778 1.2632 0
M  V30 11968 H 1175.59 1.52355 0.547673 0
M  V30 11969 H 1177.58 1.80285 3.62325 0
M  V30 11970 H 1176.15 0.961675 2.9744 0
M  V30 11971 H 1175.37 3.30576 2.14739 0
M  V30 11972 H 1176.66 3.99412 3.15194 0
M  V30 11973 H 1176.06 1.72954 5.38613 0
M  V30 11974 H 1174.61 2.35524 6.07759 0
M  V30 11975 N 1178.05 -0.61812 1.44973 0
M  V30 11976 C 1179.27 -1.40429 1.51945 0
M  V30 11977 C 1179.69 -1.88215 0.148556 0
M  V30 11978 O 1179.05 -1.61603 -0.847978 0
M  V30 11979 C 1179.1 -2.61588 2.49507 0
M  V30 11980 O 1178.82 -2.15791 3.81269 0
M  V30 11981 C 1180.32 -3.5457 2.66074 0
M  V30 11982 H 1177.54 -0.43023 0.514921 0
M  V30 11983 H 1180.08 -0.754791 1.90061 0
M  V30 11984 H 1178.24 -3.22602 2.14492 0
M  V30 11985 H 1178.65 -2.94434 4.34061 0
M  V30 11986 H 1180.13 -4.36155 3.38338 0
M  V30 11987 H 1180.6 -4.04227 1.71746 0
M  V30 11988 H 1181.21 -2.99416 3.02043 0
M  V30 11989 N 1179.52 -1.32087 -0.859693 0
M  V30 11990 C 1180.77 -1.21716 -1.60836 0
M  V30 11991 C 1181.09 0.220904 -1.94349 0
M  V30 11992 O 1182.29 0.446422 -2.67805 0
M  V30 11993 C 1180.75 -2.13143 -2.89997 0
M  V30 11994 C 1180.36 -3.62003 -2.63928 0
M  V30 11995 C 1182.1 -2.11596 -3.68004 0
M  V30 11996 C 1180.01 -4.45407 -3.89059 0
M  V30 11997 H 1178.94 -0.45199 -0.603507 0
M  V30 11998 H 1181.59 -1.57013 -0.949687 0
M  V30 11999 H 1179.97 -1.70755 -3.57294 0
M  V30 12000 H 1181.14 -4.12701 -2.04974 0
M  V30 12001 H 1179.46 -3.6563 -1.99258 0
M  V30 12002 H 1182.06 -2.71149 -4.6085 0
M  V30 12003 H 1182.4 -1.10568 -4.01348 0
M  V30 12004 H 1182.93 -2.52238 -3.07605 0
M  V30 12005 H 1179.67 -5.4723 -3.60859 0
M  V30 12006 H 1179.19 -3.99462 -4.47427 0
M  V30 12007 H 1180.87 -4.58149 -4.56846 0
M  V30 12008 N 1181 1.07532 -1.15215 0
M  V30 12009 C 1181.93 2.1668 -0.870171 0
M  V30 12010 C 1182.91 1.69161 0.178483 0
M  V30 12011 O 1184.1 1.94172 0.0332489 0
M  V30 12012 C 1181.23 3.45464 -0.356666 0
M  V30 12013 C 1180.18 4.06424 -1.34179 0
M  V30 12014 C 1179.51 5.30266 -0.687206 0
M  V30 12015 C 1180.81 4.46666 -2.70715 0
M  V30 12016 H 1182.5 2.40526 -1.7829 0
M  V30 12017 H 1180.05 1.15598 -0.858665 0
M  V30 12018 H 1182 4.21144 -0.146947 0
M  V30 12019 H 1180.72 3.21199 0.591527 0
M  V30 12020 H 1179.38 3.32786 -1.53783 0
M  V30 12021 H 1179.03 5.0229 0.267077 0
M  V30 12022 H 1178.73 5.72009 -1.34462 0
M  V30 12023 H 1180.26 6.08653 -0.487218 0
M  V30 12024 H 1181.67 5.13483 -2.54966 0
M  V30 12025 H 1180.07 4.99355 -3.32813 0
M  V30 12026 H 1181.14 3.58123 -3.26919 0
M  V30 12027 N 1182.48 0.948665 1.2585 0
M  V30 12028 C 1183.44 0.468673 2.24357 0
M  V30 12029 C 1184.44 -0.424355 1.551 0
M  V30 12030 O 1185.63 -0.222481 1.72773 0
M  V30 12031 C 1182.77 -0.32359 3.39361 0
M  V30 12032 H 1183.96 1.33928 2.68334 0
M  V30 12033 H 1181.51 0.731357 1.38133 0
M  V30 12034 H 1182.25 -1.21212 3.00796 0
M  V30 12035 H 1182.03 0.316998 3.90816 0
M  V30 12036 H 1183.52 -0.649087 4.12525 0
M  V30 12037 N 1183.96 -1.40369 0.716545 0
M  V30 12038 C 1185.24 -1.94737 0.183576 0
M  V30 12039 C 1185.62 -1.65464 -1.31092 0
M  V30 12040 O 1184.96 -0.972832 -2.06756 0
M  V30 12041 C 1185.17 -3.45438 0.497339 0
M  V30 12042 C 1186.52 -4.2235 0.436526 0
M  V30 12043 O 1187.55 -3.53553 0.433454 0
M  V30 12044 O 1186.4 -5.44923 0.41489 0
M  V30 12045 H 1183.5 -0.82655 0.0272785 0
M  V30 12046 H 1186.04 -1.49972 0.794143 0
M  V30 12047 H 1184.82 -3.60107 1.53097 0
M  V30 12048 H 1184.44 -3.97342 -0.143141 0
M  V30 12049 N 1185.44 -0.462799 -1.50652 0
M  V30 12050 C 1186.68 0.0951853 -2.02576 0
M  V30 12051 C 1187.02 1.40113 -1.34469 0
M  V30 12052 O 1186.29 1.88793 -0.467702 0
M  V30 12053 C 1186.57 0.287603 -3.5895 0
M  V30 12054 C 1186.43 -1.03878 -4.37641 0
M  V30 12055 C 1187.75 1.04593 -4.27491 0
M  V30 12056 H 1184.86 0.0331191 -0.736255 0
M  V30 12057 H 1187.51 -0.606772 -1.80051 0
M  V30 12058 H 1185.66 0.885514 -3.78274 0
M  V30 12059 H 1187.33 -1.67263 -4.29908 0
M  V30 12060 H 1185.57 -1.6374 -4.01711 0
M  V30 12061 H 1186.24 -0.857889 -5.45293 0
M  V30 12062 H 1188.72 0.539213 -4.12591 0
M  V30 12063 H 1187.59 1.14935 -5.36732 0
M  V30 12064 H 1187.86 2.08045 -3.90089 0
M  V30 12065 N 1186.91 1.56388 -0.195085 0
M  V30 12066 C 1187.82 2.22698 0.737743 0
M  V30 12067 C 1188.84 1.22605 1.23466 0
M  V30 12068 O 1190.02 1.55342 1.28183 0
M  V30 12069 C 1187.08 2.87333 1.94011 0
M  V30 12070 C 1186.14 4.02696 1.48776 0
M  V30 12071 C 1185.38 4.64239 2.63282 0
M  V30 12072 O 1185.6 4.24706 3.80763 0
M  V30 12073 O 1184.53 5.53705 2.35996 0
M  V30 12074 H 1188.36 3.03021 0.203013 0
M  V30 12075 H 1185.94 1.49361 0.0342044 0
M  V30 12076 H 1187.83 3.28226 2.64284 0
M  V30 12077 H 1186.5 2.0999 2.46345 0
M  V30 12078 H 1185.41 3.66426 0.753839 0
M  V30 12079 H 1186.74 4.81703 1.01109 0
M  V30 12080 N 1188.39 -0.0785156 1.57404 0
M  V30 12081 C 1189.34 -1.09402 2.03224 0
M  V30 12082 C 1190.31 -1.38849 0.911596 0
M  V30 12083 O 1191.49 -1.50031 1.17878 0
M  V30 12084 C 1188.63 -2.40444 2.47549 0
M  V30 12085 C 1187.75 -2.17585 3.73203 0
M  V30 12086 C 1186.88 -3.42143 4.06339 0
M  V30 12087 C 1185.92 -3.14619 5.25054 0
M  V30 12088 N 1185.06 -4.31489 5.5386 0
M  V30 12089 H 1189.9 -0.696307 2.89751 0
M  V30 12090 H 1187.44 -0.332261 1.43298 0
M  V30 12091 H 1189.39 -3.16944 2.71298 0
M  V30 12092 H 1188.02 -2.78031 1.64009 0
M  V30 12093 H 1187.08 -1.3181 3.56834 0
M  V30 12094 H 1188.39 -1.93249 4.59844 0
M  V30 12095 H 1187.54 -4.27042 4.30953 0
M  V30 12096 H 1186.28 -3.69549 3.18253 0
M  V30 12097 H 1185.29 -2.28116 5.00243 0
M  V30 12098 H 1186.51 -2.88543 6.14752 0
M  V30 12099 H 1184.46 -4.58939 4.68734 0
M  V30 12100 H 1184.37 -4.10403 6.34906 0
M  V30 12101 H 1185.64 -5.17404 5.83021 0
M  V30 12102 N 1189.87 -1.5367 -0.349747 0
M  V30 12103 C 1191.1 -1.74294 -1.10928 0
M  V30 12104 C 1191.51 -0.479102 -1.83033 0
M  V30 12105 O 1190.85 0.558621 -1.75 0
M  V30 12106 C 1190.91 -2.86457 -2.17216 0
M  V30 12107 C 1190.58 -4.26274 -1.6474 0
M  V30 12108 C 1191.57 -5.08065 -1.10302 0
M  V30 12109 C 1189.26 -4.72739 -1.69774 0
M  V30 12110 C 1191.25 -6.34417 -0.615938 0
M  V30 12111 C 1188.94 -5.99066 -1.20678 0
M  V30 12112 C 1189.94 -6.79737 -0.6668 0
M  V30 12113 O 1189.63 -8.03691 -0.183143 0
M  V30 12114 H 1189.36 -0.586046 -0.336937 0
M  V30 12115 H 1191.91 -2.01274 -0.409645 0
M  V30 12116 H 1190.14 -2.54988 -2.9072 0
M  V30 12117 H 1191.83 -2.95109 -2.78686 0
M  V30 12118 H 1192.6 -4.73333 -1.05739 0
M  V30 12119 H 1188.48 -4.1001 -2.10744 0
M  V30 12120 H 1192.02 -6.97331 -0.193795 0
M  V30 12121 H 1187.92 -6.33293 -1.24939 0
M  V30 12122 H 1188.69 -8.17946 -0.301008 0
M  V30 12123 N 1191.35 0.610423 -1.45298 0
M  V30 12124 C 1192.31 1.70324 -1.5337 0
M  V30 12125 C 1193.31 1.55393 -0.413492 0
M  V30 12126 O 1194.5 1.60512 -0.676872 0
M  V30 12127 C 1191.63 3.09572 -1.42752 0
M  V30 12128 H 1192.83 1.64535 -2.50736 0
M  V30 12129 H 1190.38 0.825906 -1.32697 0
M  V30 12130 H 1191.11 3.2094 -0.465601 0
M  V30 12131 H 1190.9 3.21817 -2.24 0
M  V30 12132 H 1192.39 3.89178 -1.51427 0
M  V30 12133 N 1192.83 1.32541 0.852676 0
M  V30 12134 C 1194.07 1.22971 1.60383 0
M  V30 12135 C 1194.4 -0.208009 1.93887 0
M  V30 12136 O 1193.67 -1.13326 1.59794 0
M  V30 12137 H 1192.25 0.452149 0.594618 0
M  V30 12138 H 1194.91 1.66089 1.01983 0
M  V30 12139 H 1194 1.81373 2.53989 0
M  V30 12140 N 1194.3 -1.0692 1.15784 0
M  V30 12141 C 1195.27 -2.12407 0.861167 0
M  V30 12142 C 1196.27 -1.6018 -0.141031 0
M  V30 12143 O 1197.46 -1.73972 0.0891192 0
M  V30 12144 C 1194.59 -3.39693 0.286636 0
M  V30 12145 H 1195.78 -2.40157 1.79623 0
M  V30 12146 H 1193.34 -1.22881 0.965916 0
M  V30 12147 H 1194.07 -3.17587 -0.656417 0
M  V30 12148 H 1193.86 -3.78903 1.0087 0
M  V30 12149 H 1195.35 -4.17488 0.0967971 0
M  V30 12150 N 1195.78 -0.955326 -1.25345 0
M  V30 12151 C 1197.19 -0.651118 -1.74978 0
M  V30 12152 C 1197.54 0.833495 -1.77616 0
M  V30 12153 O 1196.67 1.65228 -1.39745 0
M  V30 12154 C 1197.26 -1.17521 -3.17764 0
M  V30 12155 C 1195.82 -0.921151 -3.64954 0
M  V30 12156 C 1194.97 -1.31784 -2.43984 0
M  V30 12157 H 1197.92 -1.13205 -1.11222 0
M  V30 12158 H 1197.94 -0.535625 -3.76711 0
M  V30 12159 H 1197.45 -2.25575 -3.15813 0
M  V30 12160 H 1195.56 0.144392 -3.7232 0
M  V30 12161 H 1195.67 -1.5581 -4.53056 0
M  V30 12162 H 1194.03 -0.736219 -2.43828 0
M  V30 12163 H 1194.82 -2.40761 -2.44723 0
M  V30 12164 N 1197.26 1.39987 -0.723979 0
M  V30 12165 C 1198.51 2.01028 -0.267511 0
M  V30 12166 C 1198.84 1.57295 1.13894 0
M  V30 12167 O 1198.12 0.796805 1.7743 0
M  V30 12168 C 1198.4 3.58326 -0.356971 0
M  V30 12169 C 1198.25 4.12109 -1.8024 0
M  V30 12170 C 1199.57 4.39289 0.267003 0
M  V30 12171 H 1196.69 0.730364 -0.0986775 0
M  V30 12172 H 1199.33 1.66348 -0.91806 0
M  V30 12173 H 1197.48 3.88001 0.196908 0
M  V30 12174 H 1199.15 3.93199 -2.41231 0
M  V30 12175 H 1197.4 3.66082 -2.32737 0
M  V30 12176 H 1198.07 5.21261 -1.81634 0
M  V30 12177 H 1200.54 4.15595 -0.20503 0
M  V30 12178 H 1199.42 5.48624 0.174004 0
M  V30 12179 H 1199.68 4.20931 1.35164 0
M  V30 12180 N 1198.74 0.470782 1.50404 0
M  V30 12181 C 1199.97 -0.0820134 2.06737 0
M  V30 12182 C 1200.38 -1.33535 1.33468 0
M  V30 12183 O 1199.74 -1.77975 0.403872 0
M  V30 12184 C 1199.79 -0.370427 3.59597 0
M  V30 12185 O 1199.51 0.8332 4.30104 0
M  V30 12186 C 1201.01 -0.970222 4.32552 0
M  V30 12187 H 1198.23 0.00694502 0.670964 0
M  V30 12188 H 1200.78 0.659476 1.93575 0
M  V30 12189 H 1198.93 -1.06185 3.72563 0
M  V30 12190 H 1199.35 0.577614 5.2131 0
M  V30 12191 H 1200.82 -1.1218 5.40481 0
M  V30 12192 H 1201.3 -1.96024 3.93028 0
M  V30 12193 H 1201.9 -0.31719 4.24116 0
M  V30 12194 N 1200.22 -1.56282 0.203376 0
M  V30 12195 C 1201.46 -1.98105 -0.433844 0
M  V30 12196 C 1201.8 -1.09044 -1.60695 0
M  V30 12197 O 1201.07 -0.144193 -1.93965 0
M  V30 12198 C 1201.35 -3.4903 -0.885992 0
M  V30 12199 C 1201.21 -4.48867 0.289501 0
M  V30 12200 C 1202.53 -4.03871 -1.7486 0
M  V30 12201 H 1199.65 -0.720252 -0.156224 0
M  V30 12202 H 1202.29 -1.87681 0.295963 0
M  V30 12203 H 1200.44 -3.58045 -1.50785 0
M  V30 12204 H 1202.11 -4.51883 0.92734 0
M  V30 12205 H 1200.35 -4.23495 0.939934 0
M  V30 12206 H 1201.02 -5.51956 -0.0695128 0
M  V30 12207 H 1203.5 -3.97688 -1.22407 0
M  V30 12208 H 1202.38 -5.09827 -2.03391 0
M  V30 12209 H 1202.64 -3.49637 -2.70567 0
M  V30 12210 N 1201.7 0.070167 -1.57444 0
M  V30 12211 C 1202.92 0.781894 -1.91557 0
M  V30 12212 C 1203.34 1.71037 -0.799489 0
M  V30 12213 O 1202.7 1.81082 0.227062 0
M  V30 12214 C 1202.75 1.57415 -3.25427 0
M  V30 12215 O 1202.47 0.682991 -4.32743 0
M  V30 12216 C 1203.97 2.38673 -3.73564 0
M  V30 12217 H 1201.19 0.222211 -0.633138 0
M  V30 12218 H 1203.73 0.0399504 -2.04461 0
M  V30 12219 H 1201.89 2.26835 -3.14045 0
M  V30 12220 H 1202.3 1.2342 -5.09772 0
M  V30 12221 H 1203.78 2.89716 -4.6986 0
M  V30 12222 H 1204.25 3.18269 -3.02657 0
M  V30 12223 H 1204.86 1.74405 -3.87896 0
M  V30 12224 N 1203.17 1.53854 0.341593 0
M  V30 12225 C 1204.42 1.71447 1.08322 0
M  V30 12226 C 1204.75 0.477289 1.88243 0
M  V30 12227 O 1204.03 -0.525695 1.87261 0
M  V30 12228 C 1204.31 2.97917 2.02281 0
M  V30 12229 C 1204.16 4.31847 1.25809 0
M  V30 12230 C 1205.48 3.20065 3.0207 0
M  V30 12231 H 1202.6 0.623847 0.392408 0
M  V30 12232 H 1205.24 1.86527 0.361594 0
M  V30 12233 H 1203.39 2.85191 2.63815 0
M  V30 12234 H 1205.07 4.56427 0.668737 0
M  V30 12235 H 1203.31 4.30169 0.560119 0
M  V30 12236 H 1203.98 5.16522 1.94704 0
M  V30 12237 H 1206.46 3.32135 2.50651 0
M  V30 12238 H 1205.33 4.09947 3.65013 0
M  V30 12239 H 1205.59 2.36452 3.73554 0
M  V30 12240 N 1204.65 -0.602709 1.4562 0
M  V30 12241 C 1205.9 -1.36158 1.49891 0
M  V30 12242 C 1206.23 -1.93977 0.142581 0
M  V30 12243 O 1205.48 -1.75822 -0.859374 0
M  V30 12244 C 1205.78 -2.52474 2.52966 0
M  V30 12245 C 1205.45 -2.12772 3.97541 0
M  V30 12246 C 1204.11 -2.01658 4.36907 0
M  V30 12247 C 1206.46 -1.8186 4.88443 0
M  V30 12248 C 1203.79 -1.57862 5.65063 0
M  V30 12249 C 1206.14 -1.39548 6.17016 0
M  V30 12250 C 1204.8 -1.26997 6.55308 0
M  V30 12251 H 1204.07 -0.498236 0.54849 0
M  V30 12252 H 1206.72 -0.680738 1.78992 0
M  V30 12253 H 1205.03 -3.25917 2.17452 0
M  V30 12254 H 1206.72 -3.10701 2.53507 0
M  V30 12255 H 1203.31 -2.22349 3.66413 0
M  V30 12256 H 1207.5 -1.89341 4.58763 0
M  V30 12257 H 1202.75 -1.46771 5.93522 0
M  V30 12258 H 1206.93 -1.14677 6.86893 0
M  V30 12259 H 1204.55 -0.928346 7.5451 0
M  V30 12260 N 1206.13 -1.32992 -0.845635 0
M  V30 12261 C 1207.41 -1.14671 -1.58461 0
M  V30 12262 C 1207.79 0.289498 -2.09106 0
M  V30 12263 O 1207.13 1.28751 -1.88773 0
M  V30 12264 C 1207.34 -2.18206 -2.72373 0
M  V30 12265 C 1208.69 -2.5201 -3.41726 0
M  V30 12266 O 1209.72 -2.16821 -2.82608 0
M  V30 12267 O 1208.58 -3.12368 -4.48429 0
M  V30 12268 H 1205.67 -0.443088 -0.698285 0
M  V30 12269 H 1208.22 -1.44552 -0.888978 0
M  V30 12270 H 1206.99 -3.14707 -2.32541 0
M  V30 12271 H 1206.61 -1.89372 -3.49605 0
M  V30 12272 N 1207.61 1.06304 -1.1635 0
M  V30 12273 C 1208.84 1.82799 -0.96913 0
M  V30 12274 C 1209.25 1.82526 0.482659 0
M  V30 12275 O 1208.61 1.24437 1.33498 0
M  V30 12276 C 1208.66 3.29417 -1.48884 0
M  V30 12277 O 1208.38 3.29803 -2.88377 0
M  V30 12278 C 1209.88 4.22642 -1.33748 0
M  V30 12279 H 1207.1 0.576388 -0.343537 0
M  V30 12280 H 1209.64 1.34122 -1.54375 0
M  V30 12281 H 1207.8 3.75406 -0.956509 0
M  V30 12282 H 1208.21 4.21486 -3.1217 0
M  V30 12283 H 1209.69 5.23545 -1.74942 0
M  V30 12284 H 1210.16 4.38287 -0.283021 0
M  V30 12285 H 1210.77 3.82499 -1.85942 0
M  V30 12286 N 1209.09 0.96196 1.24836 0
M  V30 12287 C 1210.5 0.660388 1.7463 0
M  V30 12288 C 1210.85 -0.824064 1.78055 0
M  V30 12289 O 1209.97 -1.64485 1.40619 0
M  V30 12290 C 1210.57 1.19205 3.17137 0
M  V30 12291 C 1209.13 0.940493 3.64461 0
M  V30 12292 C 1208.27 1.33076 2.43282 0
M  V30 12293 H 1211.22 1.13794 1.1062 0
M  V30 12294 H 1211.25 0.555595 3.76422 0
M  V30 12295 H 1210.76 2.27247 3.14612 0
M  V30 12296 H 1208.86 -0.124645 3.72391 0
M  V30 12297 H 1208.97 1.5821 4.52224 0
M  V30 12298 H 1207.34 0.749139 2.43434 0
M  V30 12299 H 1208.12 2.42055 2.43442 0
M  V30 12300 N 1210.56 -1.39601 0.731392 0
M  V30 12301 C 1211.51 -2.30628 0.0890606 0
M  V30 12302 C 1212.48 -1.49025 -0.73353 0
M  V30 12303 O 1213.67 -1.77722 -0.694234 0
M  V30 12304 C 1210.81 -3.35339 -0.814956 0
M  V30 12305 C 1209.92 -4.31995 0.0198606 0
M  V30 12306 C 1209.05 -5.23774 -0.885095 0
M  V30 12307 C 1208.09 -6.12083 -0.045311 0
M  V30 12308 N 1207.23 -6.9623 -0.906002 0
M  V30 12309 H 1212.07 -2.84988 0.870958 0
M  V30 12310 H 1209.61 -1.40329 0.441166 0
M  V30 12311 H 1211.56 -3.94634 -1.3535 0
M  V30 12312 H 1210.19 -2.82443 -1.56287 0
M  V30 12313 H 1209.25 -3.74349 0.675778 0
M  V30 12314 H 1210.56 -4.94289 0.669346 0
M  V30 12315 H 1209.71 -5.88078 -1.49161 0
M  V30 12316 H 1208.45 -4.61794 -1.56837 0
M  V30 12317 H 1207.46 -5.46795 0.574028 0
M  V30 12318 H 1208.68 -6.76128 0.634692 0
M  V30 12319 H 1206.63 -6.36821 -1.57463 0
M  V30 12320 H 1206.54 -7.55352 -0.312914 0
M  V30 12321 H 1207.81 -7.64967 -1.49819 0
M  V30 12322 N 1212.04 -0.478751 -1.50152 0
M  V30 12323 C 1213.29 0.0734397 -2.01967 0
M  V30 12324 C 1213.61 1.39523 -1.36229 0
M  V30 12325 O 1212.88 1.89141 -0.510149 0
M  V30 12326 H 1211.46 0.0301305 -0.746392 0
M  V30 12327 H 1214.12 -0.630921 -1.84406 0
M  V30 12328 H 1213.22 0.21937 -3.11328 0
M  V30 12329 N 1213.52 1.56172 -0.211661 0
M  V30 12330 C 1214.48 2.18602 0.688906 0
M  V30 12331 C 1215.48 1.14508 1.12892 0
M  V30 12332 O 1216.67 1.39799 1.03932 0
M  V30 12333 C 1213.81 2.80141 1.94253 0
M  V30 12334 H 1215 2.9955 0.144765 0
M  V30 12335 H 1212.55 1.56254 0.0379615 0
M  V30 12336 H 1213.29 2.03035 2.52878 0
M  V30 12337 H 1213.07 3.56358 1.63558 0
M  V30 12338 H 1214.56 3.28026 2.58436 0
M  V30 12339 O 1215.04 0.0750807 1.61325 0
M  V30 12340 H 1215.73 -0.530633 1.8629 0
M  V30 END ATOM
M  V30 BEGIN BOND
M  V30 END BOND
M  V30 END CTAB
M  END
$$$$
