drugbank_target|Q01362 High affinity immunoglobulin epsilon receptor subunit beta (DB00043)
 OpenBabel12092120063D

  0  0  0     0  0            999 V3000
M  V30 BEGIN CTAB
M  V30 COUNTS 3742 3779 0 0 0
M  V30 BEGIN ATOM
M  V30 1 H -0.908 1.98254 -0.117106 0
M  V30 2 N 0 1.576 0 0
M  V30 3 C 0.933 2.03868 1.02534 0
M  V30 4 C 1.911 0.928543 1.3348 0
M  V30 5 O 3.095 1.19667 1.45644 0
M  V30 6 C 0.222 2.43627 2.35294 0
M  V30 7 C -0.732 3.65373 2.2001 0
M  V30 8 S 0.101 5.13292 1.52614 0
M  V30 9 C 1.257 5.56322 2.86805 0
M  V30 10 H 1.49 2.90518 0.631377 0
M  V30 11 H -0.977 1.52953 0.210867 0
M  V30 12 H 0.981 2.67203 3.11629 0
M  V30 13 H -0.358 1.57376 2.7183 0
M  V30 14 H -1.165 3.90944 3.18086 0
M  V30 15 H -1.563 3.418 1.51819 0
M  V30 16 H 0.729 5.58782 3.83104 0
M  V30 17 H 1.672 6.56266 2.65933 0
M  V30 18 H 2.08 4.83886 2.90714 0
M  V30 19 N 1.4781 -0.272755 1.55222 0
M  V30 20 C 2.7551 -1.02562 1.66555 0
M  V30 21 C 3.1351 -2.04282 0.532189 0
M  V30 22 O 2.4831 -2.23662 -0.467717 0
M  V30 23 C 2.6931 -1.6822 3.05782 0
M  V30 24 C 4.0411 -2.19373 3.63539 0
M  V30 25 O 5.0651 -1.78206 3.08417 0
M  V30 26 O 3.9241 -2.94883 4.60115 0
M  V30 27 H 1.0181 -0.475755 0.676451 0
M  V30 28 H 3.5641 -0.268593 1.67561 0
M  V30 29 H 2.3361 -0.945112 3.79715 0
M  V30 30 H 1.9591 -2.50609 3.08676 0
M  V30 31 N 2.9562 -1.48159 -0.537278 0
M  V30 32 C 4.1842 -1.59454 -1.31841 0
M  V30 33 C 4.5992 -0.252065 -1.8711 0
M  V30 34 O 3.9562 0.757621 -1.66031 0
M  V30 35 C 4.0072 -2.63546 -2.47439 0
M  V30 36 O 3.7282 -3.92583 -1.94449 0
M  V30 37 C 5.2292 -2.85212 -3.39366 0
M  V30 38 H 2.4492 -0.53785 -0.401196 0
M  V30 39 H 4.9932 -1.93932 -0.648891 0
M  V30 40 H 3.1482 -2.31946 -3.1029 0
M  V30 41 H 3.5622 -4.49629 -2.70063 0
M  V30 42 H 5.0362 -3.61863 -4.16844 0
M  V30 43 H 5.5132 -1.93765 -3.94147 0
M  V30 44 H 6.1192 -3.18086 -2.82314 0
M  V30 45 N 4.4343 0.785586 -1.36625 0
M  V30 46 C 5.3443 1.92964 -1.33425 0
M  V30 47 C 6.3603 1.72394 -0.235851 0
M  V30 48 O 7.5363 1.95866 -0.468878 0
M  V30 49 C 4.6013 3.27884 -1.12662 0
M  V30 50 C 3.6623 3.61204 -2.32013 0
M  V30 51 C 2.8953 4.89687 -2.12231 0
M  V30 52 O 3.1183 5.59704 -1.09945 0
M  V30 53 O 2.0523 5.21752 -3.00098 0
M  V30 54 H 5.8783 1.98613 -2.29753 0
M  V30 55 H 3.4633 0.926384 -1.17211 0
M  V30 56 H 5.3453 4.08614 -1.03016 0
M  V30 57 H 4.0203 3.23118 -0.193991 0
M  V30 58 H 2.9273 2.80765 -2.47228 0
M  V30 59 H 4.2603 3.70698 -3.23796 0
M  V30 60 N 5.9124 1.20967 1.01018 0
M  V30 61 C 7.1374 1.0503 1.78839 0
M  V30 62 C 7.5624 -0.395752 1.8389 0
M  V30 63 O 6.9204 -1.28529 1.27867 0
M  V30 64 C 6.9684 1.64602 3.2084 0
M  V30 65 O 6.0724 0.887988 4.02726 0
M  V30 66 H 5.4134 0.369987 0.551367 0
M  V30 67 H 7.9434 1.60399 1.27018 0
M  V30 68 H 7.9534 1.68607 3.71532 0
M  V30 69 H 6.6284 2.69841 3.16479 0
M  V30 70 H 5.2054 0.922648 3.61305 0
M  V30 71 N 7.3905 -1.2043 1.01659 0
M  V30 72 C 8.3385 -2.25249 0.580143 0
M  V30 73 C 9.3325 -1.65057 -0.381115 0
M  V30 74 O 10.5385 -1.78241 -0.251039 0
M  V30 75 H 6.9135 -0.732695 0.169299 0
M  V30 76 H 8.8845 -2.59389 1.47512 0
M  V30 77 C 7.6335 -3.47638 -0.065788 0
M  V30 78 H 6.9565 -3.94233 0.664874 0
M  V30 79 H 8.3965 -4.2268 -0.334282 0
M  V30 80 C 6.8555 -3.10447 -1.3086 0
M  V30 81 O 7.3855 -3.21981 -2.4019 0
M  V30 82 N 5.5915 -2.64996 -1.1927 0
M  V30 83 H 5.1385 -2.55811 -0.303064 0
M  V30 84 H 5.0965 -2.40482 -2.02523 0
M  V30 85 N 8.8686 -0.792821 -1.36206 0
M  V30 86 C 10.2846 -0.474903 -1.52371 0
M  V30 87 C 10.4846 1.00622 -1.74578 0
M  V30 88 O 9.5406 1.79162 -1.77924 0
M  V30 89 C 10.8536 -1.3083 -2.70747 0
M  V30 90 C 12.4016 -1.30234 -2.84619 0
M  V30 91 C 12.8766 -2.11956 -4.06004 0
M  V30 92 N 14.3676 -2.09419 -4.13156 0
M  V30 93 C 15.1026 -2.69419 -5.06163 0
M  V30 94 N 14.5986 -3.3829 -6.04592 0
M  V30 95 N 16.3916 -2.59134 -4.98804 0
M  V30 96 H 8.5426 -1.75222 -1.20046 0
M  V30 97 H 10.8056 -0.745024 -0.586211 0
M  V30 98 H 10.5116 -2.35881 -2.6087 0
M  V30 99 H 10.3856 -0.95196 -3.6499 0
M  V30 100 H 12.7726 -0.259748 -2.93955 0
M  V30 101 H 12.8536 -1.69847 -1.91274 0
M  V30 102 H 12.4976 -3.16248 -3.97429 0
M  V30 103 H 12.4276 -1.69711 -4.98503 0
M  V30 104 H 14.9186 -1.59297 -3.42685 0
M  V30 105 H 15.2316 -3.81394 -6.7213 0
M  V30 106 H 13.5766 -3.42393 -6.04807 0
M  V30 107 H 16.7676 -2.04927 -4.20859 0
M  V30 108 H 16.9406 -3.06185 -5.711 0
M  V30 109 N 10.3467 1.47872 -0.545128 0
M  V30 110 C 11.7627 1.5829 -0.204032 0
M  V30 111 C 11.9627 1.54529 1.29317 0
M  V30 112 O 11.0187 1.44232 2.07252 0
M  V30 113 C 12.3317 2.89304 -0.819987 0
M  V30 114 C 13.8797 3.02864 -0.790105 0
M  V30 115 C 14.3547 4.3656 -1.38491 0
M  V30 116 N 15.8457 4.43165 -1.34755 0
M  V30 117 C 16.5807 5.45153 -1.77753 0
M  V30 118 N 16.0767 6.54016 -2.2855 0
M  V30 119 N 17.8697 5.36125 -1.68897 0
M  V30 120 H 10.0207 1.4856 -1.51802 0
M  V30 121 H 12.2837 0.706305 -0.632327 0
M  V30 122 H 11.9897 2.97757 -1.87173 0
M  V30 123 H 11.8637 3.75957 -0.305915 0
M  V30 124 H 14.2507 2.94014 0.252913 0
M  V30 125 H 14.3317 2.17782 -1.34181 0
M  V30 126 H 13.9757 4.46164 -2.42693 0
M  V30 127 H 13.9057 5.20353 -0.808754 0
M  V30 128 H 16.3967 3.65083 -0.975855 0
M  V30 129 H 16.7097 7.27994 -2.59314 0
M  V30 130 H 15.0547 6.54938 -2.32553 0
M  V30 131 H 18.2457 4.49975 -1.28998 0
M  V30 132 H 18.4187 6.15472 -2.02726 0
M  V30 133 N 11.8248 0.280983 1.55075 0
M  V30 134 C 12.7878 -0.590896 2.21452 0
M  V30 135 C 13.7878 -1.07682 1.19421 0
M  V30 136 O 14.9778 -0.97605 1.44288 0
M  V30 137 C 12.1098 -1.81587 2.88511 0
M  V30 138 H 13.3028 -0.0112554 2.99898 0
M  V30 139 H 10.8558 0.0316438 1.56268 0
M  V30 140 H 11.5908 -2.43587 2.14093 0
M  V30 141 H 11.3758 -1.4753 3.63287 0
M  V30 142 H 12.8658 -2.43575 3.39206 0
M  V30 143 N 13.3029 -1.57598 0.00835791 0
M  V30 144 C 14.2509 -2.10078 -0.998508 0
M  V30 145 C 15.2449 -1.02262 -1.35051 0
M  V30 146 O 16.4509 -1.20719 -1.33518 0
M  V30 147 H 12.8259 -0.670903 -0.339696 0
M  V30 148 H 14.7969 -2.93648 -0.530398 0
M  V30 149 C 13.5459 -2.62615 -2.27879 0
M  V30 150 H 12.8689 -3.45213 -2.01662 0
M  V30 151 H 14.3089 -3.03004 -2.96588 0
M  V30 152 C 12.7679 -1.54407 -2.99433 0
M  V30 153 O 13.2979 -0.931812 -3.90743 0
M  V30 154 N 11.5039 -1.2695 -2.61404 0
M  V30 155 H 11.0509 -1.76924 -1.87232 0
M  V30 156 H 11.0089 -0.547704 -3.09593 0
M  V30 157 N 14.781 0.264519 -1.55364 0
M  V30 158 C 15.711 1.33121 -1.91836 0
M  V30 159 C 16.692 1.51101 -0.781192 0
M  V30 160 O 17.877 1.64003 -1.04003 0
M  V30 161 C 15.007 2.68921 -2.19769 0
M  V30 162 C 13.961 2.65661 -3.35571 0
M  V30 163 C 13.287 4.05093 -3.49004 0
M  V30 164 C 14.587 2.24187 -4.71739 0
M  V30 165 H 16.281 1.02844 -2.81182 0
M  V30 166 H 13.827 0.493286 -1.35287 0
M  V30 167 H 15.78 3.43663 -2.43872 0
M  V30 168 H 14.504 3.00799 -1.27231 0
M  V30 169 H 13.163 1.93377 -3.1145 0
M  V30 170 H 12.811 4.34206 -2.53917 0
M  V30 171 H 12.511 4.03804 -4.26868 0
M  V30 172 H 14.035 4.81561 -3.75408 0
M  V30 173 H 15.449 2.88654 -4.9533 0
M  V30 174 H 13.846 2.34044 -5.52579 0
M  V30 175 H 14.916 1.19327 -4.69988 0
M  V30 176 N 16.2591 1.48442 0.529413 0
M  V30 177 C 17.2221 1.62524 1.61612 0
M  V30 178 C 18.2221 0.498509 1.52877 0
M  V30 179 O 19.4121 0.76431 1.56537 0
M  V30 180 C 16.5441 1.59597 3.01233 0
M  V30 181 H 17.7371 2.59423 1.50465 0
M  V30 182 H 15.2901 1.37047 0.751514 0
M  V30 183 H 16.0251 0.641781 3.17886 0
M  V30 184 H 15.8101 2.41397 3.08982 0
M  V30 185 H 17.3001 1.72646 3.80241 0
M  V30 186 N 17.7372 -0.778329 1.37039 0
M  V30 187 C 18.6672 -1.90546 1.34962 0
M  V30 188 C 19.6482 -1.68681 0.219274 0
M  V30 189 O 20.8332 -1.89634 0.418624 0
M  V30 190 C 17.9632 -3.27734 1.14925 0
M  V30 191 C 16.9172 -3.64147 2.24902 0
M  V30 192 C 16.2432 -4.99806 1.89996 0
M  V30 193 C 17.5432 -3.71579 3.67051 0
M  V30 194 H 19.2372 -1.92541 2.29277 0
M  V30 195 H 16.7832 -0.924948 1.10366 0
M  V30 196 H 18.7362 -4.06215 1.12104 0
M  V30 197 H 17.4602 -3.26154 0.170631 0
M  V30 198 H 16.1192 -2.8797 2.26868 0
M  V30 199 H 15.7672 -4.94759 0.906796 0
M  V30 200 H 15.4672 -5.25139 2.63634 0
M  V30 201 H 16.9912 -5.80694 1.88749 0
M  V30 202 H 18.4052 -4.40227 3.67251 0
M  V30 203 H 16.8022 -4.08405 4.39688 0
M  V30 204 H 17.8722 -2.72404 4.01154 0
M  V30 205 N 19.2153 -1.21501 -1.00376 0
M  V30 206 C 20.6263 -1.03146 -1.55621 0
M  V30 207 C 20.9773 0.408375 -1.91903 0
M  V30 208 O 20.1023 1.29177 -1.73616 0
M  V30 209 C 20.6973 -1.86612 -2.82775 0
M  V30 210 C 19.2563 -1.72586 -3.34501 0
M  V30 211 C 18.4033 -1.83747 -2.07683 0
M  V30 212 H 21.3543 -1.35505 -0.826081 0
M  V30 213 H 21.3753 -1.3771 -3.54706 0
M  V30 214 H 20.8873 -2.91399 -2.56336 0
M  V30 215 H 18.9883 -0.704877 -3.65872 0
M  V30 216 H 19.1013 -2.54623 -4.05837 0
M  V30 217 H 17.4653 -1.27069 -2.20739 0
M  V30 218 H 18.2483 -2.90044 -1.83655 0
M  V30 219 N 20.6934 1.19889 -1.02296 0
M  V30 220 C 21.6254 2.22334 -0.556787 0
M  V30 221 C 22.6384 1.58674 0.364199 0
M  V30 222 O 23.8274 1.77768 0.161533 0
M  V30 223 C 20.9274 3.38257 0.208694 0
M  V30 224 C 20.1004 4.31504 -0.71577 0
M  V30 225 C 19.1594 5.262 0.00325597 0
M  V30 226 O 18.1854 5.65798 -0.621357 0
M  V30 227 N 19.3874 5.66303 1.27599 0
M  V30 228 H 22.1524 2.62957 -1.43784 0
M  V30 229 H 19.7134 1.34495 -0.901261 0
M  V30 230 H 21.7054 3.98616 0.699111 0
M  V30 231 H 20.2754 2.96472 0.991102 0
M  V30 232 H 19.4954 3.69016 -1.38638 0
M  V30 233 H 20.7834 4.9072 -1.34428 0
M  V30 234 H 20.1814 5.36155 1.80429 0
M  V30 235 H 18.7384 6.28942 1.71102 0
M  V30 236 N 22.1715 0.800033 1.35784 0
M  V30 237 C 23.0815 0.207204 2.33683 0
M  V30 238 C 24.0975 -0.64631 1.61551 0
M  V30 239 O 25.2735 -0.559604 1.93469 0
M  V30 240 C 22.3385 -0.639659 3.40748 0
M  V30 241 C 21.3995 0.233585 4.28664 0
M  V30 242 C 20.6325 -0.572954 5.30616 0
M  V30 243 O 20.8555 -1.80816 5.40982 0
M  V30 244 O 19.7895 0.0327285 6.01891 0
M  V30 245 H 23.6155 1.01692 2.86169 0
M  V30 246 H 21.2005 0.561691 1.38439 0
M  V30 247 H 23.0825 -1.12223 4.06182 0
M  V30 248 H 21.7575 -1.42708 2.90544 0
M  V30 249 H 20.6645 0.763147 3.66233 0
M  V30 250 H 21.9975 0.984784 4.82248 0
M  V30 251 N 23.6496 -1.47581 0.552962 0
M  V30 252 C 25.0606 -1.86324 0.118463 0
M  V30 253 C 25.4116 -1.46006 -1.3106 0
M  V30 254 O 24.5366 -0.861182 -1.98526 0
M  V30 255 C 25.1316 -3.3816 0.20821 0
M  V30 256 C 23.6906 -3.7601 -0.171226 0
M  V30 257 C 22.8376 -2.71634 0.557686 0
M  V30 258 H 25.7886 -1.39159 0.762928 0
M  V30 259 H 25.8096 -3.76141 -0.574278 0
M  V30 260 H 25.3216 -3.67473 1.24841 0
M  V30 261 H 23.4226 -3.52313 -1.21269 0
M  V30 262 H 23.5356 -4.78745 0.184379 0
M  V30 263 H 21.8996 -2.547 0.00125792 0
M  V30 264 H 22.6826 -3.0379 1.59896 0
M  V30 265 N 25.1277 -0.289203 -1.54924 0
M  V30 266 C 26.3527 0.329299 -2.04769 0
M  V30 267 C 26.7777 1.4763 -1.16564 0
M  V30 268 O 26.1357 1.80527 -0.167186 0
M  V30 269 C 26.1837 0.774438 -3.52186 0
M  V30 270 O 25.2877 1.88038 -3.67036 0
M  V30 271 H 24.6287 0.0659259 -0.660719 0
M  V30 272 H 27.1587 -0.42761 -2.00082 0
M  V30 273 H 27.1687 1.06642 -3.93816 0
M  V30 274 H 25.8437 -0.0646707 -4.1585 0
M  V30 275 H 24.4207 1.58985 -3.3731 0
M  V30 276 N 26.6058 1.57591 -0.0167156 0
M  V30 277 C 27.8308 1.9598 0.67872 0
M  V30 278 C 28.2558 0.892546 1.65575 0
M  V30 279 O 27.6138 -0.147772 1.80697 0
M  V30 280 C 27.6618 3.33468 1.37227 0
M  V30 281 O 26.7658 3.28954 2.48722 0
M  V30 282 H 26.1068 0.639339 0.17928 0
M  V30 283 H 28.6368 2.04463 -0.0748802 0
M  V30 284 H 28.6468 3.69417 1.7319 0
M  V30 285 H 27.3218 4.10694 0.656007 0
M  V30 286 H 25.8988 3.04705 2.14963 0
M  V30 287 N 28.0839 -0.256276 1.55502 0
M  V30 288 C 29.3299 -0.987079 1.77157 0
M  V30 289 C 29.6629 -1.85327 0.580315 0
M  V30 290 O 28.9379 -1.89874 -0.421686 0
M  V30 291 C 29.2209 -1.85553 3.08613 0
M  V30 292 C 29.0739 -1.01816 4.38125 0
M  V30 293 C 30.3929 -2.8397 3.36228 0
M  V30 294 H 27.5119 -0.357428 0.644526 0
M  V30 295 H 30.1539 -0.258239 1.88237 0
M  V30 296 H 28.3039 -2.47695 2.99298 0
M  V30 297 H 29.9759 -0.416159 4.59419 0
M  V30 298 H 28.2189 -0.322178 4.32602 0
M  V30 299 H 28.8899 -1.65939 5.26468 0
M  V30 300 H 31.3659 -2.31964 3.45445 0
M  V30 301 H 30.2419 -3.41864 4.29442 0
M  V30 302 H 30.5029 -3.59955 2.56681 0
M  V30 303 N 29.562 -1.4872 -0.521534 0
M  V30 304 C 30.973 -1.50607 -1.10337 0
M  V30 305 C 31.324 -0.280612 -1.94183 0
M  V30 306 O 30.449 0.611507 -2.0758 0
M  V30 307 C 31.044 -2.72903 -2.00772 0
M  V30 308 C 29.603 -2.77634 -2.54158 0
M  V30 309 C 28.75 -2.44241 -1.31307 0
M  V30 310 H 31.701 -1.55714 -0.306388 0
M  V30 311 H 31.722 -2.519 -2.85178 0
M  V30 312 H 31.234 -3.62077 -1.39721 0
M  V30 313 H 29.335 -1.92689 -3.18907 0
M  V30 314 H 29.448 -3.79283 -2.92714 0
M  V30 315 H 27.812 -1.95577 -1.63161 0
M  V30 316 H 28.595 -3.35666 -0.719943 0
M  V30 317 N 31.0401 0.771051 -1.3745 0
M  V30 318 C 32.0031 1.86598 -1.33093 0
M  V30 319 C 33.0031 1.59076 -0.234845 0
M  V30 320 O 34.1931 1.67145 -0.490732 0
M  V30 321 C 31.3251 3.23747 -1.06773 0
M  V30 322 H 32.5181 1.91873 -2.30488 0
M  V30 323 H 30.0711 0.970876 -1.2249 0
M  V30 324 H 30.8061 3.24148 -0.099129 0
M  V30 325 H 30.5911 3.45115 -1.86112 0
M  V30 326 H 32.0811 4.03824 -1.06377 0
M  V30 327 N 32.5182 1.22032 0.997298 0
M  V30 328 C 33.7652 1.04222 1.73621 0
M  V30 329 C 34.0932 -0.423264 1.89839 0
M  V30 330 O 33.3482 -1.3302 1.43542 0
M  V30 331 C 33.6472 1.69345 3.14733 0
M  V30 332 C 33.3132 3.19226 3.18442 0
M  V30 333 C 31.9752 3.60124 3.19161 0
M  V30 334 C 34.3272 4.15181 3.15078 0
M  V30 335 C 31.6552 4.95467 3.14212 0
M  V30 336 C 34.0072 5.50495 3.1167 0
M  V30 337 C 32.6712 5.90779 3.10703 0
M  V30 338 H 31.9412 0.381374 0.635323 0
M  V30 339 H 34.5882 1.51732 1.16831 0
M  V30 340 H 32.8932 1.14147 3.74803 0
M  V30 341 H 34.5902 1.53059 3.7064 0
M  V30 342 H 31.1802 2.86659 3.18629 0
M  V30 343 H 35.3642 3.84605 3.13676 0
M  V30 344 H 30.6202 5.25916 3.11805 0
M  V30 345 H 34.7942 6.24576 3.08022 0
M  V30 346 H 32.4212 6.9562 3.06622 0
M  V30 347 N 33.9963 -1.19345 1.0293 0
M  V30 348 C 34.9063 -2.26245 0.620515 0
M  V30 349 C 35.9223 -1.70486 -0.347928 0
M  V30 350 O 37.0983 -2.00347 -0.205704 0
M  V30 351 C 34.1633 -3.46693 -0.0218957 0
M  V30 352 C 33.2243 -4.17632 0.994102 0
M  V30 353 C 32.4573 -5.32329 0.382253 0
M  V30 354 O 32.6803 -5.64552 -0.814676 0
M  V30 355 O 31.6143 -5.91664 1.10531 0
M  V30 356 H 35.4403 -2.63453 1.51083 0
M  V30 357 H 33.0253 -1.26207 0.799513 0
M  V30 358 H 34.9073 -4.19683 -0.380072 0
M  V30 359 H 33.5823 -3.11333 -0.886209 0
M  V30 360 H 32.4893 -3.4676 1.40387 0
M  V30 361 H 33.8223 -4.56964 1.8288 0
M  V30 362 N 35.4744 -0.807222 -1.35358 0
M  V30 363 C 36.7204 -0.388463 -1.99045 0
M  V30 364 C 37.0534 1.04184 -1.63888 0
M  V30 365 O 36.3284 1.72292 -0.902535 0
M  V30 366 C 36.6114 -0.572783 -3.55515 0
M  V30 367 C 36.4644 -2.04807 -4.00468 0
M  V30 368 C 37.7834 0.00114064 -4.401 0
M  V30 369 H 34.9024 -0.142619 -0.723069 0
M  V30 370 H 37.5444 -1.01687 -1.60498 0
M  V30 371 H 35.6944 -0.0378425 -3.88482 0
M  V30 372 H 37.3664 -2.64544 -3.77908 0
M  V30 373 H 35.6094 -2.54427 -3.51353 0
M  V30 374 H 36.2804 -2.12792 -5.09337 0
M  V30 375 H 38.7564 -0.455716 -4.13597 0
M  V30 376 H 37.6324 -0.157737 -5.48673 0
M  V30 377 H 37.8934 1.09488 -4.28328 0
M  V30 378 N 36.9525 1.47285 -0.560781 0
M  V30 379 C 37.8825 2.32857 0.173105 0
M  V30 380 C 38.8635 1.44009 0.905281 0
M  V30 381 O 40.0485 1.7286 0.885046 0
M  V30 382 C 37.1785 3.25861 1.20133 0
M  V30 383 C 36.1325 4.23978 0.585388 0
M  V30 384 C 35.4585 5.06332 1.7185 0
M  V30 385 C 36.7585 5.20242 -0.463178 0
M  V30 386 H 38.4525 2.94466 -0.541307 0
M  V30 387 H 35.9985 1.41601 -0.261764 0
M  V30 388 H 37.9515 3.84569 1.72293 0
M  V30 389 H 36.6755 2.62315 1.94573 0
M  V30 390 H 35.3345 3.66501 0.085054 0
M  V30 391 H 34.9825 4.39186 2.45203 0
M  V30 392 H 34.6825 5.72762 1.31213 0
M  V30 393 H 36.2065 5.67899 2.24329 0
M  V30 394 H 37.6205 5.73293 -0.027502 0
M  V30 395 H 36.0175 5.94896 -0.788627 0
M  V30 396 H 37.0875 4.65504 -1.35773 0
M  V30 397 N 38.4306 0.297415 1.54768 0
M  V30 398 C 39.3406 -0.58983 2.27064 0
M  V30 399 C 40.3566 -1.15144 1.30453 0
M  V30 400 O 41.5326 -1.17699 1.63428 0
M  V30 401 C 38.5976 -1.74714 2.9946 0
M  V30 402 C 37.6586 -1.21997 4.11601 0
M  V30 403 C 36.8916 -2.32212 4.80535 0
M  V30 404 O 37.1146 -3.52036 4.48806 0
M  V30 405 O 36.0486 -1.99106 5.68014 0
M  V30 406 H 39.8746 -0.00348199 3.037 0
M  V30 407 H 37.4596 0.0640035 1.49263 0
M  V30 408 H 39.3416 -2.42147 3.44881 0
M  V30 409 H 38.0166 -2.32016 2.25722 0
M  V30 410 H 36.9236 -0.511458 3.70587 0
M  V30 411 H 38.2566 -0.692419 4.87305 0
M  V30 412 N 39.9087 -1.5758 0.0250728 0
M  V30 413 C 41.1577 -1.90811 -0.653767 0
M  V30 414 C 41.4707 -0.90273 -1.73523 0
M  V30 415 O 42.6767 -1.12614 -2.47043 0
M  V30 416 C 41.1327 -3.38804 -1.21409 0
M  V30 417 C 40.7407 -4.47692 -0.166126 0
M  V30 418 C 42.4847 -3.81108 -1.86967 0
M  V30 419 C 40.3917 -5.86779 -0.737856 0
M  V30 420 H 39.3217 -0.712063 -0.247956 0
M  V30 421 H 41.9727 -1.83281 0.0897137 0
M  V30 422 H 40.3547 -3.41252 -2.00905 0
M  V30 423 H 41.5287 -4.56797 0.606079 0
M  V30 424 H 39.8437 -4.14565 0.390466 0
M  V30 425 H 42.4407 -4.82375 -2.30692 0
M  V30 426 H 42.7837 -3.15953 -2.71071 0
M  V30 427 H 43.3167 -3.81065 -1.14167 0
M  V30 428 H 40.0557 -6.55468 0.0649577 0
M  V30 429 H 39.5757 -5.81288 -1.47864 0
M  V30 430 H 41.2547 -6.35223 -1.22884 0
M  V30 431 N 41.3868 0.248026 -1.55636 0
M  V30 432 C 42.6118 0.998028 -1.81808 0
M  V30 433 C 43.0368 1.78207 -0.601979 0
M  V30 434 O 42.3948 1.75653 0.448961 0
M  V30 435 C 42.4428 1.9125 -3.05705 0
M  V30 436 O 41.5468 3.00406 -2.82542 0
M  V30 437 H 40.8878 0.284045 -0.600179 0
M  V30 438 H 43.4178 0.269357 -2.02819 0
M  V30 439 H 43.4278 2.32737 -3.35108 0
M  V30 440 H 42.1028 1.33602 -3.93857 0
M  V30 441 H 40.6798 2.63056 -2.64303 0
M  V30 442 N 42.8649 1.48995 0.513639 0
M  V30 443 C 44.2759 1.5119 1.09537 0
M  V30 444 C 44.6269 0.290906 1.94031 0
M  V30 445 O 43.7519 -0.60049 2.07902 0
M  V30 446 C 44.3469 2.73964 1.99322 0
M  V30 447 C 42.9059 2.78978 2.52682 0
M  V30 448 C 42.0529 2.44934 1.30009 0
M  V30 449 H 45.0039 1.55875 0.298125 0
M  V30 450 H 45.0249 2.53409 2.83838 0
M  V30 451 H 44.5369 3.62813 1.37799 0
M  V30 452 H 42.6379 1.94378 3.1788 0
M  V30 453 H 42.7509 3.8083 2.90698 0
M  V30 454 H 41.1149 1.9644 1.62122 0
M  V30 455 H 41.8979 3.36043 0.702131 0
M  V30 456 N 44.343 -0.763751 1.37857 0
M  V30 457 C 45.275 -1.88664 1.30148 0
M  V30 458 C 46.288 -1.61365 0.215685 0
M  V30 459 O 47.477 -1.72134 0.472459 0
M  V30 460 C 44.577 -3.24075 0.991396 0
M  V30 461 C 43.75 -3.78958 2.18426 0
M  V30 462 C 42.809 -4.92862 1.8432 0
M  V30 463 O 41.835 -5.08027 2.56704 0
M  V30 464 N 43.037 -5.75071 0.792081 0
M  V30 465 H 45.802 -1.95791 2.26905 0
M  V30 466 H 43.363 -0.943226 1.31586 0
M  V30 467 H 45.355 -3.97804 0.743935 0
M  V30 468 H 43.925 -3.12399 0.112122 0
M  V30 469 H 43.145 -2.96913 2.59299 0
M  V30 470 H 44.433 -4.12357 2.98058 0
M  V30 471 H 43.831 -5.65375 0.191595 0
M  V30 472 H 42.388 -6.48991 0.60449 0
M  V30 473 N 45.8211 -1.22559 -0.990812 0
M  V30 474 C 46.7311 -1.01394 -2.11557 0
M  V30 475 C 47.7471 0.0383962 -1.73958 0
M  V30 476 O 48.9231 -0.154787 -2.00804 0
M  V30 477 C 45.9881 -0.596569 -3.41529 0
M  V30 478 C 45.0491 -1.72276 -3.93217 0
M  V30 479 C 44.2821 -1.32521 -5.16985 0
M  V30 480 O 44.5051 -0.204909 -5.70032 0
M  V30 481 O 43.4391 -2.14247 -5.62478 0
M  V30 482 H 47.2651 -1.95633 -2.32296 0
M  V30 483 H 44.8501 -1.01172 -1.0993 0
M  V30 484 H 46.7321 -0.374263 -4.19735 0
M  V30 485 H 45.4071 0.316939 -3.22145 0
M  V30 486 H 44.3141 -1.99961 -3.16174 0
M  V30 487 H 45.6471 -2.61421 -4.17037 0
M  V30 488 N 47.2992 1.18797 -1.03562 0
M  V30 489 C 48.5452 1.8893 -0.737113 0
M  V30 490 C 48.8782 1.79837 0.732956 0
M  V30 491 O 48.1532 1.19525 1.5344 0
M  V30 492 C 48.4362 3.39607 -1.19745 0
M  V30 493 C 48.2892 3.57537 -2.72924 0
M  V30 494 C 49.6082 4.33069 -0.783526 0
M  V30 495 H 46.7272 0.686057 -0.269249 0
M  V30 496 H 49.3692 1.39797 -1.28673 0
M  V30 497 H 47.5192 3.81583 -0.729855 0
M  V30 498 H 49.1912 3.24688 -3.27682 0
M  V30 499 H 47.4342 3.00363 -3.12993 0
M  V30 500 H 48.1052 4.63238 -3.00191 0
M  V30 501 H 50.5812 3.98846 -1.18581 0
M  V30 502 H 49.4572 5.3707 -1.13343 0
M  V30 503 H 49.7182 4.40986 0.313681 0
M  V30 504 N 48.7773 0.814389 1.34928 0
M  V30 505 C 50.0023 0.410097 2.03305 0
M  V30 506 C 50.4273 -0.973464 1.60951 0
M  V30 507 O 49.7853 -1.63185 0.789964 0
M  V30 508 C 49.8333 0.51049 3.56968 0
M  V30 509 O 48.9373 -0.473035 4.09678 0
M  V30 510 H 48.2783 0.170088 0.641846 0
M  V30 511 H 50.8083 1.10244 1.72358 0
M  V30 512 H 50.8183 0.383135 4.06197 0
M  V30 513 H 49.4933 1.51963 3.87144 0
M  V30 514 H 48.0703 -0.305272 3.71648 0
M  V30 515 N 50.2554 -1.46986 0.568584 0
M  V30 516 C 51.4804 -2.07335 0.0520528 0
M  V30 517 C 51.9054 -1.41675 -1.23733 0
M  V30 518 O 51.2634 -0.495623 -1.74394 0
M  V30 519 C 51.3114 -3.60417 -0.11501 0
M  V30 520 O 50.4154 -3.95309 -1.17492 0
M  V30 521 H 49.7564 -0.661597 0.0564385 0
M  V30 522 H 52.2864 -1.88837 0.787507 0
M  V30 523 H 52.2964 -4.06698 -0.325644 0
M  V30 524 H 50.9714 -4.07601 0.826675 0
M  V30 525 H 49.5484 -3.60757 -0.943869 0
M  V30 526 N 51.7335 -0.305618 -1.54608 0
M  V30 527 C 52.9815 0.301701 -1.99835 0
M  V30 528 C 53.3025 1.54054 -1.19551 0
M  V30 529 O 52.5725 1.93702 -0.292658 0
M  V30 530 H 51.1525 0.114468 -0.738178 0
M  V30 531 H 53.8145 -0.418016 -1.90364 0
M  V30 532 H 52.9105 0.570548 -3.06841 0
M  V30 533 N 53.2116 1.57565 -0.0334293 0
M  V30 534 C 54.6276 1.56297 0.322997 0
M  V30 535 C 54.8276 1.03945 1.7262 0
M  V30 536 O 53.8836 0.688109 2.42943 0
M  V30 537 C 55.1966 3.00232 0.167664 0
M  V30 538 C 56.7446 3.12078 0.240107 0
M  V30 539 C 57.2196 4.57859 0.113513 0
M  V30 540 N 58.7106 4.62887 0.170359 0
M  V30 541 C 59.4456 5.73319 0.0962517 0
M  V30 542 N 58.9416 6.92794 -0.0291881 0
M  V30 543 N 60.7346 5.61898 0.150551 0
M  V30 544 H 52.8856 1.89923 -0.950956 0
M  V30 545 H 55.1486 0.873824 -0.367608 0
M  V30 546 H 54.8546 3.42501 -0.799102 0
M  V30 547 H 54.7286 3.654 0.936083 0
M  V30 548 H 57.1156 2.69718 1.19733 0
M  V30 549 H 57.1966 2.49623 -0.558763 0
M  V30 550 H 56.8406 5.009 -0.840314 0
M  V30 551 H 56.7706 5.18299 0.931302 0
M  V30 552 H 59.2616 3.76954 0.26728 0
M  V30 553 H 59.5746 7.7276 -0.0789252 0
M  V30 554 H 57.9196 6.94971 -0.0640299 0
M  V30 555 H 61.1106 4.67448 0.246981 0
M  V30 556 H 61.2836 6.47938 0.0893365 0
M  V30 557 N 54.6897 -0.239769 1.55765 0
M  V30 558 C 55.6197 -1.30052 1.9393 0
M  V30 559 C 56.6007 -1.49839 0.805132 0
M  V30 560 O 57.7857 -1.62328 1.06599 0
M  V30 561 C 54.9157 -2.65391 2.2402 0
M  V30 562 C 53.8697 -2.60289 3.39755 0
M  V30 563 C 53.1957 -3.99489 3.55405 0
M  V30 564 C 54.4957 -2.16654 4.75246 0
M  V30 565 H 56.1897 -0.983573 2.82783 0
M  V30 566 H 53.7357 -0.471701 1.36055 0
M  V30 567 H 55.6887 -3.3974 2.49308 0
M  V30 568 H 54.4127 -2.98736 1.32 0
M  V30 569 H 53.0717 -1.88398 3.14487 0
M  V30 570 H 52.7197 -4.30112 2.60793 0
M  V30 571 H 52.4197 -3.96962 4.33238 0
M  V30 572 H 53.9437 -4.75528 3.83022 0
M  V30 573 H 55.3577 -2.80737 4.99859 0
M  V30 574 H 53.7547 -2.25223 5.56232 0
M  V30 575 H 54.8247 -1.11835 4.71827 0
M  V30 576 N 56.1678 -1.49265 -0.50573 0
M  V30 577 C 57.0978 -1.68495 -1.61653 0
M  V30 578 C 58.0788 -0.53366 -1.61512 0
M  V30 579 O 59.2638 -0.76897 -1.78327 0
M  V30 580 C 56.3938 -1.74709 -3.00157 0
M  V30 581 C 55.3478 -2.89581 -3.15162 0
M  V30 582 C 54.6738 -2.80903 -4.5497 0
M  V30 583 C 55.9738 -4.30578 -2.95634 0
M  V30 584 H 57.6678 -2.61493 -1.45814 0
M  V30 585 H 55.2138 -1.25838 -0.70005 0
M  V30 586 H 57.1668 -1.86748 -3.77761 0
M  V30 587 H 55.8908 -0.783067 -3.17074 0
M  V30 588 H 54.5498 -2.77136 -2.39982 0
M  V30 589 H 54.1978 -1.82419 -4.68756 0
M  V30 590 H 53.8978 -3.57999 -4.65951 0
M  V30 591 H 55.4218 -2.94944 -5.34641 0
M  V30 592 H 56.8358 -4.4373 -3.63011 0
M  V30 593 H 55.2328 -5.0886 -3.18091 0
M  V30 594 H 56.3028 -4.45352 -1.91806 0
M  V30 595 N 57.6459 0.756429 -1.3826 0
M  V30 596 C 58.5929 1.87011 -1.35261 0
M  V30 597 C 59.5629 1.64695 -0.215616 0
M  V30 598 O 60.7479 1.864 -0.407399 0
M  V30 599 C 57.8879 3.24275 -1.18068 0
M  V30 600 C 57.0009 3.58442 -2.41129 0
M  V30 601 C 56.1359 4.84994 -2.16689 0
M  V30 602 C 55.1749 5.11939 -3.35537 0
M  V30 603 N 54.3119 6.29685 -3.10549 0
M  V30 604 H 59.1519 1.8891 -2.30472 0
M  V30 605 H 56.6889 0.923373 -1.14509 0
M  V30 606 H 58.6469 4.03479 -1.06116 0
M  V30 607 H 57.2769 3.21711 -0.264973 0
M  V30 608 H 56.3289 2.74103 -2.63764 0
M  V30 609 H 57.6409 3.74283 -3.29717 0
M  V30 610 H 56.7949 5.72135 -2.01857 0
M  V30 611 H 55.5339 4.71286 -1.25462 0
M  V30 612 H 54.5389 4.23268 -3.50891 0
M  V30 613 H 55.7639 5.27546 -4.27635 0
M  V30 614 H 53.7099 6.17306 -2.21967 0
M  V30 615 H 53.6269 6.46014 -3.92686 0
M  V30 616 H 54.8949 7.19722 -2.99367 0
M  V30 617 N 59.124 1.23083 0.984299 0
M  V30 618 C 60.349 1.088 1.76571 0
M  V30 619 C 60.774 -0.356657 1.84688 0
M  V30 620 O 60.132 -1.25788 1.30565 0
M  V30 621 C 60.18 1.71371 3.17277 0
M  V30 622 O 59.284 0.973213 4.00752 0
M  V30 623 H 58.625 0.381599 0.543395 0
M  V30 624 H 61.155 1.63057 1.23587 0
M  V30 625 H 61.165 1.76449 3.67872 0
M  V30 626 H 59.84 2.76493 3.10684 0
M  V30 627 H 58.417 0.999078 3.59267 0
M  V30 628 N 60.6021 -1.18246 1.0419 0
M  V30 629 C 61.5651 -2.20128 0.638452 0
M  V30 630 C 62.5651 -1.57885 -0.304805 0
M  V30 631 O 63.7551 -1.73967 -0.0900369 0
M  V30 632 C 60.8871 -3.4084 -0.0637751 0
M  V30 633 H 62.0801 -2.57336 1.54007 0
M  V30 634 H 59.6331 -1.32152 0.834598 0
M  V30 635 H 60.3681 -3.09166 -0.979136 0
M  V30 636 H 60.1531 -3.8726 0.614198 0
M  V30 637 H 61.6431 -4.16274 -0.332512 0
M  V30 638 N 62.0802 -0.821533 -1.34494 0
M  V30 639 C 63.3052 -0.420873 -2.03085 0
M  V30 640 C 63.7302 0.964915 -1.61465 0
M  V30 641 O 63.0882 1.62763 -0.798607 0
M  V30 642 C 63.1362 -0.529414 -3.56693 0
M  V30 643 O 62.2402 0.451302 -4.09923 0
M  V30 644 H 61.5812 -0.173489 -0.640935 0
M  V30 645 H 64.1112 -1.11157 -1.71771 0
M  V30 646 H 64.1212 -0.404671 -4.05988 0
M  V30 647 H 62.7962 -1.54014 -3.86332 0
M  V30 648 H 61.3732 0.285558 -3.71805 0
M  V30 649 N 63.5583 1.46682 -0.576371 0
M  V30 650 C 64.7833 2.07304 -0.0630475 0
M  V30 651 C 65.2083 1.42329 1.2298 0
M  V30 652 O 64.5663 0.504865 1.74129 0
M  V30 653 C 64.6143 3.60472 0.095895 0
M  V30 654 O 63.7183 3.95927 1.15394 0
M  V30 655 H 63.0593 0.661288 -0.0599463 0
M  V30 656 H 65.5893 1.88417 -0.797511 0
M  V30 657 H 65.5993 4.06865 0.304071 0
M  V30 658 H 64.2743 4.07157 -0.84828 0
M  V30 659 H 62.8513 3.61252 0.924724 0
M  V30 660 N 65.0364 0.313813 1.54444 0
M  V30 661 C 66.4474 -0.176243 1.85866 0
M  V30 662 C 66.7984 -1.52405 1.23561 0
M  V30 663 O 65.9234 -2.09605 0.538016 0
M  V30 664 C 66.5184 -0.32657 3.37222 0
M  V30 665 C 65.0774 -0.760846 3.6863 0
M  V30 666 C 64.2244 0.123247 2.77026 0
M  V30 667 H 67.1754 0.534418 1.49431 0
M  V30 668 H 67.1964 -1.15908 3.62416 0
M  V30 669 H 66.7084 0.654531 3.82541 0
M  V30 670 H 64.8094 -1.75204 3.28838 0
M  V30 671 H 64.9224 -0.571353 4.75681 0
M  V30 672 H 63.2864 -0.399597 2.51546 0
M  V30 673 H 64.0694 1.10094 3.25168 0
M  V30 674 N 66.5145 -1.57545 0.0417849 0
M  V30 675 C 67.9255 -1.80011 -0.495259 0
M  V30 676 C 68.2765 -0.953199 -1.71489 0
M  V30 677 O 67.4015 -0.167138 -2.15754 0
M  V30 678 C 67.9965 -3.26482 -0.905265 0
M  V30 679 C 66.5555 -3.499 -1.38734 0
M  V30 680 C 65.7025 -2.74979 -0.358056 0
M  V30 681 H 68.6535 -1.56425 0.267736 0
M  V30 682 H 68.6745 -3.36887 -1.76882 0
M  V30 683 H 68.1865 -3.88096 -0.017401 0
M  V30 684 H 66.2875 -2.93553 -2.29471 0
M  V30 685 H 66.4005 -4.58615 -1.38598 0
M  V30 686 H 64.7645 -2.40834 -0.828912 0
M  V30 687 H 65.5475 -3.39315 0.521561 0
M  V30 688 N 67.9926 0.231505 -1.5589 0
M  V30 689 C 68.9226 1.29022 -1.94617 0
M  V30 690 C 69.9036 1.4941 -0.813067 0
M  V30 691 O 71.0886 1.6176 -1.07459 0
M  V30 692 C 68.2186 2.64199 -2.25424 0
M  V30 693 C 67.1726 2.58484 -3.41131 0
M  V30 694 C 66.4986 3.97599 -3.57518 0
M  V30 695 C 67.7986 2.1413 -4.76388 0
M  V30 696 H 69.4926 0.968563 -2.83301 0
M  V30 697 H 67.0386 0.464479 -1.36303 0
M  V30 698 H 68.9916 3.38413 -2.51107 0
M  V30 699 H 67.7156 2.98032 -1.33583 0
M  V30 700 H 66.3746 1.86727 -3.15481 0
M  V30 701 H 66.0226 4.28723 -2.6307 0
M  V30 702 H 65.7226 3.94659 -4.35337 0
M  V30 703 H 67.2466 4.7349 -3.85538 0
M  V30 704 H 68.6606 2.78083 -5.01341 0
M  V30 705 H 67.0576 2.2227 -5.57419 0
M  V30 706 H 68.1276 1.09331 -4.72414 0
M  V30 707 N 69.4707 1.49531 0.497807 0
M  V30 708 C 70.4207 1.62829 1.59596 0
M  V30 709 C 71.4047 0.483824 1.53453 0
M  V30 710 O 72.5967 0.736937 1.60929 0
M  V30 711 C 69.7257 1.7011 2.98191 0
M  V30 712 C 68.8117 2.90144 3.09317 0
M  V30 713 N 69.2027 4.1418 2.90324 0
M  V30 714 C 67.5007 2.88148 3.40422 0
M  V30 715 C 68.2017 4.94886 3.05717 0
M  V30 716 N 67.1777 4.28314 3.34736 0
M  V30 717 H 70.9797 2.56446 1.4357 0
M  V30 718 H 68.4937 1.46347 0.704001 0
M  V30 719 H 70.4907 1.77735 3.77115 0
M  V30 720 H 69.1507 0.776315 3.15283 0
M  V30 721 H 70.1617 4.44109 2.66436 0
M  V30 722 H 66.8387 2.05061 3.63671 0
M  V30 723 H 68.2287 6.03432 2.95499 0
M  V30 724 N 70.9488 -0.749086 1.3866 0
M  V30 725 C 72.1768 -1.53834 1.38358 0
M  V30 726 C 72.5918 -1.88783 -0.0255219 0
M  V30 727 O 71.9488 -1.53101 -0.993292 0
M  V30 728 C 71.9998 -2.83468 2.2434 0
M  V30 729 O 71.7208 -2.50008 3.5976 0
M  V30 730 C 73.2218 -3.7758 2.32267 0
M  V30 731 H 70.4418 -0.47585 0.473083 0
M  V30 732 H 72.9858 -0.926726 1.82297 0
M  V30 733 H 71.1408 -3.40995 1.83851 0
M  V30 734 H 71.5548 -3.33182 4.05081 0
M  V30 735 H 73.0288 -4.65478 2.96706 0
M  V30 736 H 73.5058 -4.18334 1.33765 0
M  V30 737 H 74.1118 -3.25976 2.73166 0
M  V30 738 N 72.4269 -1.23603 -0.977757 0
M  V30 739 C 73.6729 -1.08136 -1.72274 0
M  V30 740 C 74.0279 0.377453 -1.88661 0
M  V30 741 O 73.3209 1.27552 -1.42972 0
M  V30 742 C 73.5149 -1.7433 -3.11999 0
M  V30 743 C 73.3439 -3.26498 -3.0924 0
M  V30 744 C 72.1139 -3.9567 -3.14282 0
M  V30 745 C 74.3119 -4.2323 -2.92201 0
M  V30 746 N 72.2939 -5.34799 -3.01436 0
M  V30 747 C 73.6649 -5.49289 -2.87544 0
M  V30 748 C 75.7199 -4.13931 -2.76705 0
M  V30 749 C 74.4229 -6.67116 -2.68978 0
M  V30 750 C 76.4489 -5.31424 -2.59504 0
M  V30 751 C 75.8109 -6.5641 -2.55548 0
M  V30 752 H 71.9099 -0.450247 -0.639376 0
M  V30 753 H 74.4939 -1.5637 -1.16002 0
M  V30 754 H 72.6649 -1.28624 -3.66484 0
M  V30 755 H 74.3969 -1.51815 -3.75146 0
M  V30 756 H 71.1519 -3.46767 -3.22567 0
M  V30 757 H 71.5759 -6.07748 -2.98281 0
M  V30 758 H 76.2179 -3.1807 -2.78552 0
M  V30 759 H 73.9359 -7.63109 -2.65876 0
M  V30 760 H 77.5219 -5.26072 -2.48474 0
M  V30 761 H 76.4019 -7.45795 -2.42405 0
M  V30 762 N 73.905 1.17692 -1.04816 0
M  V30 763 C 74.835 2.23777 -0.666791 0
M  V30 764 C 75.816 1.66796 0.33361 0
M  V30 765 O 77.001 1.93039 0.212042 0
M  V30 766 C 74.131 3.47281 -0.0367933 0
M  V30 767 C 73.085 4.17059 -0.961546 0
M  V30 768 C 72.411 5.34342 -0.195626 0
M  V30 769 C 73.711 4.69713 -2.28402 0
M  V30 770 H 75.405 2.55933 -1.55367 0
M  V30 771 H 72.951 1.23019 -0.748484 0
M  V30 772 H 74.904 4.20706 0.241775 0
M  V30 773 H 73.628 3.14381 0.885004 0
M  V30 774 H 72.287 3.45541 -1.22462 0
M  V30 775 H 71.935 4.97692 0.728816 0
M  V30 776 H 71.635 5.81966 -0.811775 0
M  V30 777 H 73.159 6.10553 0.0757473 0
M  V30 778 H 74.573 5.34794 -2.06563 0
M  V30 779 H 72.97 5.279 -2.8538 0
M  V30 780 H 74.04 3.86726 -2.92525 0
M  V30 781 N 75.3831 0.828654 1.34056 0
M  V30 782 C 76.6111 0.43262 2.02326 0
M  V30 783 C 77.0261 -0.963147 1.62385 0
M  V30 784 O 76.3831 -1.62425 0.832121 0
M  V30 785 C 76.4341 0.53182 3.57567 0
M  V30 786 O 76.1551 1.87258 3.96063 0
M  V30 787 C 77.6561 0.131422 4.43105 0
M  V30 788 H 74.8761 0.172923 0.648335 0
M  V30 789 H 77.4201 1.1184 1.71208 0
M  V30 790 H 75.5751 -0.105938 3.87255 0
M  V30 791 H 75.9891 1.85087 4.90758 0
M  V30 792 H 77.4631 0.251904 5.51425 0
M  V30 793 H 77.9401 -0.925645 4.29335 0
M  V30 794 H 78.5461 0.743207 4.18756 0
M  V30 795 N 76.8612 -1.46375 0.584142 0
M  V30 796 C 78.1072 -2.02678 0.0703716 0
M  V30 797 C 78.4402 -1.4545 -1.28678 0
M  V30 798 O 77.7152 -0.62014 -1.84349 0
M  V30 799 C 77.9982 -3.60099 0.00614674 0
M  V30 800 C 77.8512 -4.27709 1.3923 0
M  V30 801 C 79.1702 -4.34598 -0.693742 0
M  V30 802 H 76.2892 -0.736504 0.027047 0
M  V30 803 H 78.9312 -1.74501 0.751615 0
M  V30 804 H 77.0812 -3.84236 -0.574009 0
M  V30 805 H 78.7532 -4.14832 2.01773 0
M  V30 806 H 76.9962 -3.87016 1.95962 0
M  V30 807 H 77.6672 -5.36478 1.29982 0
M  V30 808 H 80.1432 -4.15615 -0.200869 0
M  V30 809 H 79.0192 -5.44318 -0.707714 0
M  V30 810 H 79.2802 -4.05759 -1.75533 0
M  V30 811 N 78.3393 -0.321999 -1.54275 0
M  V30 812 C 79.2693 0.537411 -2.27231 0
M  V30 813 C 80.2503 1.12064 -1.27968 0
M  V30 814 O 81.4353 1.14606 -1.56777 0
M  V30 815 C 78.5653 1.69919 -3.02894 0
M  V30 816 C 77.5193 1.24534 -4.09482 0
M  V30 817 C 76.8453 2.49394 -4.72977 0
M  V30 818 C 78.1453 0.361335 -5.21049 0
M  V30 819 H 79.8393 -0.0711406 -2.99315 0
M  V30 820 H 77.3853 -0.0356555 -1.43956 0
M  V30 821 H 79.3383 2.30668 -3.52662 0
M  V30 822 H 78.0623 2.33431 -2.28424 0
M  V30 823 H 76.7213 0.660782 -3.60596 0
M  V30 824 H 76.3693 3.11265 -3.95124 0
M  V30 825 H 76.0693 2.19718 -5.44975 0
M  V30 826 H 77.5933 3.10908 -5.25517 0
M  V30 827 H 79.0073 0.875072 -5.66582 0
M  V30 828 H 77.4043 0.157428 -5.99893 0
M  V30 829 H 78.4743 -0.60822 -4.8107 0
M  V30 830 N 79.8174 1.5752 -0.0501392 0
M  V30 831 C 80.7644 2.1147 0.924603 0
M  V30 832 C 81.7344 1.02182 1.30951 0
M  V30 833 O 82.9194 1.29723 1.39916 0
M  V30 834 C 80.0594 2.66337 2.19451 0
M  V30 835 C 79.1724 3.89708 1.86418 0
M  V30 836 C 78.3074 4.32893 3.07859 0
M  V30 837 C 77.3464 5.48967 2.70742 0
M  V30 838 N 76.4834 5.87211 3.84874 0
M  V30 839 H 81.3234 2.94465 0.457639 0
M  V30 840 H 78.8604 1.45531 0.214266 0
M  V30 841 H 80.8184 2.96247 2.93758 0
M  V30 842 H 79.4484 1.86141 2.63726 0
M  V30 843 H 78.5004 3.66396 1.02264 0
M  V30 844 H 79.8124 4.74074 1.55096 0
M  V30 845 H 78.9664 4.6435 3.90466 0
M  V30 846 H 77.7054 3.47336 3.42358 0
M  V30 847 H 76.7104 5.17183 1.86551 0
M  V30 848 H 77.9354 6.3624 2.37436 0
M  V30 849 H 75.8814 5.04607 4.19175 0
M  V30 850 H 75.7984 6.66266 3.57247 0
M  V30 851 H 77.0664 6.23282 4.68123 0
M  V30 852 N 81.2955 -0.223234 1.56011 0
M  V30 853 C 82.2425 -1.27664 1.92277 0
M  V30 854 C 83.2125 -1.46659 0.779763 0
M  V30 855 O 84.3975 -1.60256 1.03551 0
M  V30 856 C 81.5375 -2.62234 2.24338 0
M  V30 857 C 80.6505 -2.51051 3.51564 0
M  V30 858 C 79.7855 -3.78133 3.7308 0
M  V30 859 C 78.8245 -3.61665 4.93827 0
M  V30 860 N 77.9615 -4.80693 5.11741 0
M  V30 861 H 82.8015 -0.960358 2.82101 0
M  V30 862 H 80.3385 -0.462901 1.39627 0
M  V30 863 H 82.2965 -3.40596 2.40936 0
M  V30 864 H 80.9265 -2.91961 1.3769 0
M  V30 865 H 79.9785 -1.64132 3.43169 0
M  V30 866 H 81.2905 -2.34803 4.40079 0
M  V30 867 H 80.4445 -4.64938 3.89766 0
M  V30 868 H 79.1835 -3.97304 2.82844 0
M  V30 869 H 78.1885 -2.73244 4.77093 0
M  V30 870 H 79.4135 -3.43966 5.85546 0
M  V30 871 H 77.3595 -5.00181 4.24446 0
M  V30 872 H 77.2765 -4.67165 5.94384 0
M  V30 873 H 78.5445 -5.6893 5.3286 0
M  V30 874 N 82.7736 -1.49793 -0.48987 0
M  V30 875 C 83.6836 -1.70036 -1.61632 0
M  V30 876 C 84.6996 -0.583102 -1.63939 0
M  V30 877 O 85.8756 -0.859169 -1.82154 0
M  V30 878 C 82.9406 -1.77277 -2.97949 0
M  V30 879 C 82.0016 -3.00918 -3.06181 0
M  V30 880 C 81.2346 -3.07804 -4.35996 0
M  V30 881 O 81.4576 -2.21982 -5.25433 0
M  V30 882 O 80.3916 -4.00369 -4.49431 0
M  V30 883 H 84.2176 -2.65486 -1.47482 0
M  V30 884 H 81.8026 -1.33666 -0.667362 0
M  V30 885 H 83.6846 -1.84329 -3.78947 0
M  V30 886 H 82.3596 -0.850076 -3.12339 0
M  V30 887 H 81.2666 -2.99377 -2.2433 0
M  V30 888 H 82.5996 -3.92704 -2.96723 0
M  V30 889 N 84.2517 0.741722 -1.39055 0
M  V30 890 C 85.1837 1.8657 -1.33133 0
M  V30 891 C 86.1967 1.61001 -0.241329 0
M  V30 892 O 87.3857 1.7136 -0.499784 0
M  V30 893 C 84.4857 3.22457 -1.04283 0
M  V30 894 C 83.6587 3.75435 -2.24427 0
M  V30 895 C 82.7177 4.89867 -1.92138 0
M  V30 896 O 81.7437 5.03879 -2.64754 0
M  V30 897 N 82.9457 5.73738 -0.88347 0
M  V30 898 H 85.7107 1.92156 -2.29991 0
M  V30 899 H 83.2717 0.922172 -1.3307 0
M  V30 900 H 85.2637 3.9657 -0.807128 0
M  V30 901 H 83.8337 3.12181 -0.161807 0
M  V30 902 H 83.0537 2.92751 -2.6399 0
M  V30 903 H 84.3417 4.07563 -3.04581 0
M  V30 904 H 83.7397 5.64999 -0.281517 0
M  V30 905 H 82.2967 6.47947 -0.707662 0
M  V30 906 N 85.7298 1.2412 0.971189 0
M  V30 907 C 86.6398 1.04747 2.09917 0
M  V30 908 C 87.6558 -0.0107162 1.73997 0
M  V30 909 O 88.8318 0.186714 2.00533 0
M  V30 910 C 85.8968 0.650828 3.40537 0
M  V30 911 C 84.9578 1.7851 3.90426 0
M  V30 912 C 84.1908 1.40729 5.14812 0
M  V30 913 O 84.4138 0.29557 5.69634 0
M  V30 914 O 83.3478 2.23168 5.58999 0
M  V30 915 H 87.1738 1.99304 2.29154 0
M  V30 916 H 84.7588 1.02908 1.08307 0
M  V30 917 H 86.6408 0.440992 4.19086 0
M  V30 918 H 85.3158 -0.265649 3.22608 0
M  V30 919 H 84.2228 2.04966 3.12953 0
M  V30 920 H 85.5558 2.68023 4.12825 0
M  V30 921 N 87.2079 -1.17134 1.05439 0
M  V30 922 C 88.4549 -1.87456 0.765942 0
M  V30 923 C 88.7829 -1.81189 -0.707153 0
M  V30 924 O 88.0379 -1.21633 -1.5331 0
M  V30 925 C 88.3369 -3.36833 1.19491 0
M  V30 926 C 88.0029 -3.63301 2.67063 0
M  V30 927 C 86.6649 -3.70234 3.07376 0
M  V30 928 C 89.0169 -3.74575 3.62413 0
M  V30 929 C 86.3449 -3.85933 4.41896 0
M  V30 930 C 88.6969 -3.91793 4.9667 0
M  V30 931 C 87.3609 -3.96966 5.36633 0
M  V30 932 H 86.6309 -0.685948 0.280278 0
M  V30 933 H 89.2779 -1.38556 1.32192 0
M  V30 934 H 87.5829 -3.87807 0.557969 0
M  V30 935 H 89.2799 -3.89611 0.948893 0
M  V30 936 H 85.8699 -3.58532 2.34846 0
M  V30 937 H 90.0539 -3.68537 3.32406 0
M  V30 938 H 85.3099 -3.88187 4.72357 0
M  V30 939 H 89.4839 -3.99458 5.70444 0
M  V30 940 H 87.1109 -4.08883 6.40874 0
M  V30 941 N 88.686 -0.835752 -1.33615 0
M  V30 942 C 89.616 -0.281739 -2.31794 0
M  V30 943 C 90.597 0.608833 -1.58831 0
M  V30 944 O 91.782 0.533035 -1.86741 0
M  V30 945 C 88.912 0.546612 -3.42971 0
M  V30 946 C 87.866 -0.247904 -4.27281 0
M  V30 947 C 87.192 0.704001 -5.30045 0
M  V30 948 C 88.492 -1.46324 -5.01385 0
M  V30 949 H 90.186 -1.10206 -2.78379 0
M  V30 950 H 87.732 -0.531388 -1.33837 0
M  V30 951 H 89.685 0.944467 -4.1068 0
M  V30 952 H 88.409 1.40011 -2.95067 0
M  V30 953 H 87.068 -0.627281 -3.61194 0
M  V30 954 H 86.716 1.55381 -4.78399 0
M  V30 955 H 86.416 0.176524 -5.87335 0
M  V30 956 H 87.94 1.09944 -6.0062 0
M  V30 957 H 89.354 -1.13871 -5.61877 0
M  V30 958 H 87.751 -1.92728 -5.6831 0
M  V30 959 H 88.821 -2.23467 -4.30338 0
M  V30 960 N 90.1641 1.46063 -0.591896 0
M  V30 961 C 91.4121 2.01938 -0.0808391 0
M  V30 962 C 91.7331 1.46475 1.28725 0
M  V30 963 O 91.0031 0.652944 1.84698 0
M  V30 964 H 89.5831 0.746516 -0.0268938 0
M  V30 965 H 92.2451 1.79055 -0.769752 0
M  V30 966 H 91.3411 3.12094 -0.0187578 0
M  V30 967 N 91.6422 0.330177 1.54103 0
M  V30 968 C 92.8882 -0.270806 2.00984 0
M  V30 969 C 93.2212 -1.51265 1.21789 0
M  V30 970 O 92.4962 -1.92142 0.301927 0
M  V30 971 C 92.7792 -0.598339 3.55094 0
M  V30 972 C 92.6322 0.654674 4.4501 0
M  V30 973 C 93.9512 -1.41334 4.16789 0
M  V30 974 H 91.0702 -0.0969531 0.730595 0
M  V30 975 H 93.7122 0.448066 1.84641 0
M  V30 976 H 91.8622 -1.21078 3.69151 0
M  V30 977 H 93.5342 1.29285 4.42813 0
M  V30 978 H 91.7772 1.28224 4.14416 0
M  V30 979 H 92.4482 0.380944 5.50684 0
M  V30 980 H 94.9242 -0.895597 4.06347 0
M  V30 981 H 93.8002 -1.61127 5.24718 0
M  V30 982 H 94.0612 -2.41146 3.70541 0
M  V30 983 N 93.1203 -1.57491 0.0584922 0
M  V30 984 C 94.3483 -1.97296 -0.623037 0
M  V30 985 C 94.7633 -0.936338 -1.63946 0
M  V30 986 O 94.1203 0.0785981 -1.82331 0
M  V30 987 C 94.1713 -3.37183 -1.30345 0
M  V30 988 O 93.8923 -4.36872 -0.32773 0
M  V30 989 C 95.3933 -3.91788 -2.07406 0
M  V30 990 H 92.6133 -0.649153 -0.169826 0
M  V30 991 H 95.1573 -2.04106 0.12696 0
M  V30 992 H 93.3123 -3.31502 -2.00463 0
M  V30 993 H 93.7263 -5.18141 -0.814269 0
M  V30 994 H 95.2003 -4.91926 -2.50425 0
M  V30 995 H 95.6773 -3.27609 -2.92521 0
M  V30 996 H 96.2833 -4.00829 -1.42184 0
M  V30 997 N 94.5984 0.214957 -1.56127 0
M  V30 998 C 95.5304 1.29004 -1.89448 0
M  V30 999 C 96.5434 1.42716 -0.783326 0
M  V30 1000 O 97.7324 1.43496 -1.06166 0
M  V30 1001 C 94.8324 2.66482 -2.09381 0
M  V30 1002 C 94.0054 2.74633 -3.40434 0
M  V30 1003 C 93.0644 3.9317 -3.49719 0
M  V30 1004 O 92.0904 3.812 -4.227 0
M  V30 1005 N 93.2924 5.07765 -2.81346 0
M  V30 1006 H 96.0574 1.00743 -2.82261 0
M  V30 1007 H 93.6184 0.40497 -1.56753 0
M  V30 1008 H 95.6104 3.44173 -2.12901 0
M  V30 1009 H 94.1804 2.87314 -1.23163 0
M  V30 1010 H 93.4004 1.83368 -3.48955 0
M  V30 1011 H 94.6884 2.77054 -4.26754 0
M  V30 1012 H 94.0864 5.20386 -2.21843 0
M  V30 1013 H 92.6434 5.83474 -2.90519 0
M  V30 1014 N 96.0765 1.50051 0.48192 0
M  V30 1015 C 97.3255 1.59741 1.23149 0
M  V30 1016 C 97.6385 0.298163 1.93314 0
M  V30 1017 O 98.8445 0.273835 2.70116 0
M  V30 1018 C 97.3005 2.81926 2.23708 0
M  V30 1019 C 96.9085 4.18685 1.59396 0
M  V30 1020 C 98.6525 3.00956 2.99375 0
M  V30 1021 C 96.5595 5.3207 2.58178 0
M  V30 1022 H 95.4895 0.594838 0.46334 0
M  V30 1023 H 98.1405 1.76467 0.503169 0
M  V30 1024 H 96.5225 2.58736 2.99786 0
M  V30 1025 H 97.6965 4.52088 0.891811 0
M  V30 1026 H 96.0115 4.05171 0.960503 0
M  V30 1027 H 98.6085 3.82836 3.73283 0
M  V30 1028 H 98.9515 2.12258 3.58123 0
M  V30 1029 H 99.4845 3.24277 2.30411 0
M  V30 1030 H 96.2235 6.22888 2.04184 0
M  V30 1031 H 95.7435 5.03098 3.26577 0
M  V30 1032 H 97.4225 5.62196 3.20225 0
M  V30 1033 N 97.5546 -0.734337 1.39446 0
M  V30 1034 C 98.4846 -1.86155 1.40955 0
M  V30 1035 C 99.4656 -1.67898 0.272827 0
M  V30 1036 O 100.651 -1.88207 0.478743 0
M  V30 1037 C 97.7806 -3.23912 1.25294 0
M  V30 1038 C 96.7346 -3.56808 2.36373 0
M  V30 1039 C 96.0606 -4.93508 2.058 0
M  V30 1040 C 97.3606 -3.59713 3.78687 0
M  V30 1041 H 99.0546 -1.8515 2.35287 0
M  V30 1042 H 96.6006 -0.889367 1.13253 0
M  V30 1043 H 98.5536 -4.02443 1.2497 0
M  V30 1044 H 97.2776 -3.25446 0.274308 0
M  V30 1045 H 95.9366 -2.80606 2.35914 0
M  V30 1046 H 95.5846 -4.91623 1.06374 0
M  V30 1047 H 95.2846 -5.16486 2.80208 0
M  V30 1048 H 96.8086 -5.74396 2.07128 0
M  V30 1049 H 98.2226 -4.2832 3.81071 0
M  V30 1050 H 96.6196 -3.94209 4.52459 0
M  V30 1051 H 97.6896 -2.59504 4.09617 0
M  V30 1052 N 99.0327 -1.24633 -0.964593 0
M  V30 1053 C 100.261 -1.11501 -1.74285 0
M  V30 1054 C 100.676 0.332165 -1.85855 0
M  V30 1055 O 100.033 1.22903 -1.34911 0
M  V30 1056 C 100.084 -1.75258 -3.16175 0
M  V30 1057 O 99.8047 -3.14318 -3.05182 0
M  V30 1058 C 101.306 -1.67776 -4.10324 0
M  V30 1059 H 98.5257 -0.389407 -0.546446 0
M  V30 1060 H 101.07 -1.64801 -1.21083 0
M  V30 1061 H 99.2247 -1.25954 -3.66353 0
M  V30 1062 H 99.6387 -3.4551 -3.94618 0
M  V30 1063 H 101.113 -2.17064 -5.0753 0
M  V30 1064 H 101.59 -0.639584 -4.34518 0
M  V30 1065 H 102.196 -2.16522 -3.66058 0
M  V30 1066 N 100.511 1.16574 -1.06058 0
M  V30 1067 C 101.474 2.19085 -0.673392 0
M  V30 1068 C 102.474 1.5835 0.279648 0
M  V30 1069 O 103.664 1.74088 0.0623488 0
M  V30 1070 C 100.796 3.40899 0.00954234 0
M  V30 1071 H 101.989 2.54853 -1.58081 0
M  V30 1072 H 99.5418 1.30808 -0.855516 0
M  V30 1073 H 100.277 3.10684 0.929826 0
M  V30 1074 H 100.062 3.86233 -0.67573 0
M  V30 1075 H 101.552 4.1675 0.266245 0
M  V30 1076 N 101.989 0.842826 1.3317 0
M  V30 1077 C 102.922 0.223862 2.27099 0
M  V30 1078 C 103.9 -0.631311 1.49844 0
M  V30 1079 O 105.084 -0.590708 1.79005 0
M  V30 1080 C 102.211 -0.685313 3.31694 0
M  V30 1081 C 101.257 0.094919 4.26394 0
M  V30 1082 S 102.09 1.45546 5.15341 0
M  V30 1083 C 103.246 0.551685 6.23464 0
M  V30 1084 H 103.479 1.02015 2.79249 0
M  V30 1085 H 101.012 0.639797 1.4052 0
M  V30 1086 H 102.97 -1.20426 3.92438 0
M  V30 1087 H 101.631 -1.4553 2.78352 0
M  V30 1088 H 100.824 -0.597059 5.00451 0
M  V30 1089 H 100.426 0.545054 3.70007 0
M  V30 1090 H 102.718 -0.248877 6.77043 0
M  V30 1091 H 103.661 1.26253 6.96754 0
M  V30 1092 H 104.069 0.131275 5.64347 0
M  V30 1093 N 103.467 -1.45747 0.599634 0
M  V30 1094 C 104.716 -2.01502 0.0893511 0
M  V30 1095 C 105.029 -1.4748 -1.28488 0
M  V30 1096 O 106.235 -1.95161 -1.88745 0
M  V30 1097 C 104.691 -3.59735 0.109082 0
M  V30 1098 C 104.299 -4.22754 1.48267 0
M  V30 1099 C 106.043 -4.23085 -0.346374 0
M  V30 1100 C 103.95 -5.73115 1.45921 0
M  V30 1101 H 102.88 -0.753417 0.0296347 0
M  V30 1102 H 105.531 -1.67303 0.753788 0
M  V30 1103 H 103.913 -3.91087 -0.621854 0
M  V30 1104 H 105.087 -4.02987 2.23468 0
M  V30 1105 H 103.402 -3.71567 1.87955 0
M  V30 1106 H 105.999 -5.33327 -0.38298 0
M  V30 1107 H 106.342 -3.93201 -1.36743 0
M  V30 1108 H 106.875 -3.9642 0.331038 0
M  V30 1109 H 103.614 -6.07685 2.45762 0
M  V30 1110 H 103.134 -5.95097 0.749665 0
M  V30 1111 H 104.813 -6.3616 1.17941 0
M  V30 1112 N 104.945 -0.338344 -1.53925 0
M  V30 1113 C 106.185 0.260168 -2.02737 0
M  V30 1114 C 106.549 1.48181 -1.22092 0
M  V30 1115 O 107.75 2.15416 -1.60777 0
M  V30 1116 C 106.021 0.571627 -3.52799 0
M  V30 1117 S 107.58 1.14769 -4.23525 0
M  V30 1118 H 104.398 0.077791 -0.706732 0
M  V30 1119 H 107 -0.474899 -1.89644 0
M  V30 1120 H 105.704 -0.325392 -4.09108 0
M  V30 1121 H 105.235 1.3365 -3.70002 0
M  V30 1122 H 107.25 2.43372 -4.32417 0
M  V30 1123 N 106.423 1.57458 -0.0668435 0
M  V30 1124 C 107.353 2.15468 0.899764 0
M  V30 1125 C 108.334 1.08042 1.31381 0
M  V30 1126 O 109.519 1.36054 1.38574 0
M  V30 1127 C 106.649 2.71232 2.16911 0
M  V30 1128 C 105.603 3.83781 1.89463 0
M  V30 1129 C 104.929 4.26127 3.22986 0
M  V30 1130 C 106.229 5.08238 1.20381 0
M  V30 1131 H 107.923 2.96488 0.416529 0
M  V30 1132 H 105.469 1.4262 0.198908 0
M  V30 1133 H 107.422 3.10458 2.84945 0
M  V30 1134 H 106.146 1.87426 2.67468 0
M  V30 1135 H 104.805 3.45051 1.23836 0
M  V30 1136 H 104.453 3.39249 3.71374 0
M  V30 1137 H 104.153 5.01993 3.05413 0
M  V30 1138 H 105.677 4.67966 3.92225 0
M  V30 1139 H 107.091 5.44811 1.78475 0
M  V30 1140 H 105.488 5.89349 1.13083 0
M  V30 1141 H 106.558 4.84558 0.182153 0
M  V30 1142 N 107.901 -0.206675 1.56239 0
M  V30 1143 C 109.141 -0.93574 1.81723 0
M  V30 1144 C 109.505 -1.80927 0.642609 0
M  V30 1145 O 110.706 -2.57323 0.777081 0
M  V30 1146 C 108.977 -1.74012 3.12177 0
M  V30 1147 S 110.536 -2.52279 3.59028 0
M  V30 1148 H 107.354 -0.314065 0.637875 0
M  V30 1149 H 109.956 -0.200071 1.94474 0
M  V30 1150 H 108.66 -1.0888 3.95693 0
M  V30 1151 H 108.191 -2.51782 3.02274 0
M  V30 1152 H 110.206 -3.76209 3.23545 0
M  V30 1153 N 109.379 -1.50304 -0.473955 0
M  V30 1154 C 110.626 -1.6115 -1.22625 0
M  V30 1155 C 110.954 -0.310517 -1.92005 0
M  V30 1156 O 110.209 0.703419 -1.82621 0
M  V30 1157 C 110.508 -2.73938 -2.29549 0
M  V30 1158 C 110.174 -4.14519 -1.7744 0
M  V30 1159 C 108.836 -4.5277 -1.62949 0
M  V30 1160 C 111.188 -5.02392 -1.3875 0
M  V30 1161 C 108.516 -5.76639 -1.08187 0
M  V30 1162 C 110.868 -6.26805 -0.854309 0
M  V30 1163 C 109.532 -6.63861 -0.696011 0
M  V30 1164 H 108.802 -0.589691 -0.448715 0
M  V30 1165 H 111.449 -1.84228 -0.522705 0
M  V30 1166 H 109.754 -2.44937 -3.05799 0
M  V30 1167 H 111.451 -2.79534 -2.87509 0
M  V30 1168 H 108.041 -3.8434 -1.89685 0
M  V30 1169 H 112.225 -4.73474 -1.4878 0
M  V30 1170 H 107.481 -6.04027 -0.946666 0
M  V30 1171 H 111.655 -6.94258 -0.545843 0
M  V30 1172 H 109.282 -7.59722 -0.26952 0
M  V30 1173 N 110.857 0.726932 -1.39834 0
M  V30 1174 C 112.105 1.4837 -1.37225 0
M  V30 1175 C 112.426 1.94979 0.0284857 0
M  V30 1176 O 111.696 1.69555 0.981213 0
M  V30 1177 H 110.276 0.55043 -0.505011 0
M  V30 1178 H 112.938 0.862468 -1.74778 0
M  V30 1179 H 112.034 2.36198 -2.04003 0
M  V30 1180 N 112.336 1.25143 0.95797 0
M  V30 1181 C 113.564 1.12424 1.73691 0
M  V30 1182 C 113.979 -0.322304 1.86029 0
M  V30 1183 O 113.336 -1.22186 1.35561 0
M  V30 1184 C 113.387 1.76933 3.15241 0
M  V30 1185 O 113.108 3.15932 3.03511 0
M  V30 1186 C 114.609 1.6995 4.09429 0
M  V30 1187 H 111.829 0.3923 0.544373 0
M  V30 1188 H 114.373 1.6544 1.20207 0
M  V30 1189 H 112.528 1.27895 3.6568 0
M  V30 1190 H 112.942 3.47598 3.9278 0
M  V30 1191 H 114.416 2.19753 5.06372 0
M  V30 1192 H 114.893 0.662619 4.34173 0
M  V30 1193 H 115.499 2.18461 3.64904 0
M  V30 1194 N 113.814 -1.1601 1.06675 0
M  V30 1195 C 115.06 -1.86909 0.786945 0
M  V30 1196 C 115.393 -1.81717 -0.685018 0
M  V30 1197 O 114.668 -1.23551 -1.50218 0
M  V30 1198 C 114.951 -3.36313 1.28707 0
M  V30 1199 C 114.804 -3.50175 2.82308 0
M  V30 1200 C 116.123 -4.3084 0.898071 0
M  V30 1201 H 113.242 -0.678677 0.287343 0
M  V30 1202 H 115.884 -1.36336 1.32334 0
M  V30 1203 H 114.034 -3.79513 0.830768 0
M  V30 1204 H 115.706 -3.15886 3.36175 0
M  V30 1205 H 113.949 -2.91959 3.20847 0
M  V30 1206 H 114.62 -4.55116 3.12368 0
M  V30 1207 H 117.096 -3.95561 1.29114 0
M  V30 1208 H 115.972 -5.33876 1.27543 0
M  V30 1209 H 116.233 -4.41662 -0.196651 0
M  V30 1210 N 115.292 -0.849877 -1.32721 0
M  V30 1211 C 116.538 -0.451591 -1.97708 0
M  V30 1212 C 116.871 0.989175 -1.6712 0
M  V30 1213 O 116.146 1.69334 -0.956891 0
M  V30 1214 C 116.429 -0.685598 -3.53513 0
M  V30 1215 C 116.282 -2.17444 -3.93749 0
M  V30 1216 C 117.601 -0.138874 -4.39881 0
M  V30 1217 H 114.72 -0.16555 -0.718166 0
M  V30 1218 H 117.362 -1.06742 -1.57182 0
M  V30 1219 H 115.512 -0.161416 -3.88165 0
M  V30 1220 H 117.184 -2.76433 -3.693 0
M  V30 1221 H 115.427 -2.65476 -3.43081 0
M  V30 1222 H 116.098 -2.28888 -5.02309 0
M  V30 1223 H 118.574 -0.587068 -4.11938 0
M  V30 1224 H 117.45 -0.332213 -5.47894 0
M  V30 1225 H 117.711 0.95806 -4.31594 0
M  V30 1226 N 116.77 1.45427 -0.607355 0
M  V30 1227 C 118.01 2.04128 -0.105458 0
M  V30 1228 C 118.374 1.46555 1.24039 0
M  V30 1229 O 119.575 1.96608 1.833 0
M  V30 1230 C 117.846 3.57338 -0.0665324 0
M  V30 1231 S 119.405 4.37201 0.374207 0
M  V30 1232 H 116.223 0.709278 -0.0494575 0
M  V30 1233 H 118.825 1.78139 -0.805404 0
M  V30 1234 H 117.529 3.96752 -1.04957 0
M  V30 1235 H 117.06 3.87902 0.655415 0
M  V30 1236 H 119.075 4.6888 1.62377 0
M  V30 1237 N 118.248 0.346503 1.53744 0
M  V30 1238 C 119.473 -0.253074 2.0585 0
M  V30 1239 C 119.898 -1.43202 1.21962 0
M  V30 1240 O 119.256 -1.79783 0.234073 0
M  V30 1241 C 119.304 -0.643193 3.54817 0
M  V30 1242 O 118.408 -1.74286 3.73762 0
M  V30 1243 H 117.749 -0.0413583 0.662711 0
M  V30 1244 H 120.279 0.501574 1.98357 0
M  V30 1245 H 120.289 -0.919526 3.97503 0
M  V30 1246 H 118.964 0.218966 4.15323 0
M  V30 1247 H 117.541 -1.46356 3.42979 0
M  V30 1248 N 119.726 -1.57421 0.075193 0
M  V30 1249 C 120.972 -1.93905 -0.594025 0
M  V30 1250 C 121.305 -0.955701 -1.69056 0
M  V30 1251 O 120.58 0.0145373 -1.94495 0
M  V30 1252 C 120.863 -3.40638 -1.1678 0
M  V30 1253 C 120.716 -4.49733 -0.0776792 0
M  V30 1254 C 122.035 -3.88259 -2.07228 0
M  V30 1255 H 119.154 -0.705105 -0.214466 0
M  V30 1256 H 121.796 -1.8947 0.141854 0
M  V30 1257 H 119.946 -3.44549 -1.79494 0
M  V30 1258 H 121.618 -4.57942 0.555573 0
M  V30 1259 H 119.861 -4.29751 0.591286 0
M  V30 1260 H 120.532 -5.49549 -0.519603 0
M  V30 1261 H 123.008 -3.86376 -1.54445 0
M  V30 1262 H 121.884 -4.91533 -2.44308 0
M  V30 1263 H 122.145 -3.26396 -2.98191 0
M  V30 1264 N 121.204 0.198386 -1.56346 0
M  V30 1265 C 122.134 1.24865 -1.9731 0
M  V30 1266 C 123.115 1.47651 -0.844576 0
M  V30 1267 O 124.3 1.59444 -1.10866 0
M  V30 1268 C 121.43 2.59358 -2.30977 0
M  V30 1269 C 120.384 2.5119 -3.46537 0
M  V30 1270 C 119.71 3.89926 -3.65871 0
M  V30 1271 C 121.01 2.03977 -4.80823 0
M  V30 1272 H 122.704 0.908252 -2.85291 0
M  V30 1273 H 120.25 0.435462 -1.37258 0
M  V30 1274 H 122.203 3.33011 -2.58228 0
M  V30 1275 H 120.927 2.95132 -1.39874 0
M  V30 1276 H 119.586 1.79993 -3.19371 0
M  V30 1277 H 119.234 4.23046 -2.72105 0
M  V30 1278 H 118.934 3.85336 -4.4361 0
M  V30 1279 H 120.458 4.65205 -3.95495 0
M  V30 1280 H 121.872 2.67386 -5.07127 0
M  V30 1281 H 120.269 2.10397 -5.62008 0
M  V30 1282 H 121.339 0.992861 -4.74626 0
M  V30 1283 N 122.682 1.50554 0.465978 0
M  V30 1284 C 123.959 1.5232 1.22712 0
M  V30 1285 C 124.339 0.270807 2.09356 0
M  V30 1286 O 123.687 -0.745541 2.15995 0
M  V30 1287 C 123.897 2.82175 2.05374 0
M  V30 1288 C 125.245 3.33033 2.6339 0
M  V30 1289 O 126.269 2.83531 2.15612 0
M  V30 1290 O 125.128 4.19336 3.50456 0
M  V30 1291 H 122.222 0.611183 0.557122 0
M  V30 1292 H 124.768 1.62847 0.477381 0
M  V30 1293 H 123.54 3.64797 1.41558 0
M  V30 1294 H 123.163 2.74675 2.87471 0
M  V30 1295 N 124.16 -0.719506 1.40217 0
M  V30 1296 C 125.409 -1.47486 1.37589 0
M  V30 1297 C 125.722 -1.9559 -0.0201568 0
M  V30 1298 O 126.928 -2.70973 -0.169049 0
M  V30 1299 C 125.384 -2.66575 2.41796 0
M  V30 1300 C 124.992 -2.25358 3.87192 0
M  V30 1301 C 126.736 -3.4433 2.48269 0
M  V30 1302 C 124.643 -3.41262 4.83005 0
M  V30 1303 H 123.573 -0.553901 0.511576 0
M  V30 1304 H 126.224 -0.783427 1.65936 0
M  V30 1305 H 124.606 -3.3787 2.06543 0
M  V30 1306 H 125.78 -1.61509 4.31569 0
M  V30 1307 H 124.095 -1.60657 3.84159 0
M  V30 1308 H 126.692 -4.30569 3.17041 0
M  V30 1309 H 127.035 -3.87872 1.51198 0
M  V30 1310 H 127.568 -2.80076 2.82493 0
M  V30 1311 H 124.307 -3.02755 5.81394 0
M  V30 1312 H 123.827 -4.0404 4.43297 0
M  V30 1313 H 125.506 -4.07383 5.02641 0
M  V30 1314 N 125.638 -1.25649 -0.95132 0
M  V30 1315 C 126.863 -1.13443 -1.73624 0
M  V30 1316 C 127.288 0.307565 -1.85568 0
M  V30 1317 O 126.646 1.22282 -1.33854 0
M  V30 1318 C 126.694 -1.79723 -3.12621 0
M  V30 1319 O 125.798 -1.07912 -3.98031 0
M  V30 1320 H 125.139 -0.395872 -0.533086 0
M  V30 1321 H 127.669 -1.66276 -1.1922 0
M  V30 1322 H 127.679 -1.86141 -3.63064 0
M  V30 1323 H 126.354 -2.84633 -3.03244 0
M  V30 1324 H 124.931 -1.09398 -3.56492 0
M  V30 1325 N 127.117 1.15442 -1.07289 0
M  V30 1326 C 128.067 2.18164 -0.662467 0
M  V30 1327 C 129.051 1.57845 0.312074 0
M  V30 1328 O 130.243 1.76552 0.125905 0
M  V30 1329 C 127.372 3.43246 -0.0611295 0
M  V30 1330 C 126.458 4.1062 -1.06077 0
M  V30 1331 N 126.849 4.53491 -2.24008 0
M  V30 1332 C 125.147 4.36949 -0.893964 0
M  V30 1333 C 125.848 5.05731 -2.87422 0
M  V30 1334 N 124.824 4.99236 -2.15091 0
M  V30 1335 H 128.626 2.49038 -1.56068 0
M  V30 1336 H 126.14 1.32003 -0.945988 0
M  V30 1337 H 128.137 4.16145 0.250792 0
M  V30 1338 H 126.797 3.13854 0.832207 0
M  V30 1339 H 127.808 4.46898 -2.6173 0
M  V30 1340 H 124.485 4.17466 -0.0534693 0
M  V30 1341 H 125.875 5.48865 -3.87553 0
M  V30 1342 N 128.595 0.856903 1.32268 0
M  V30 1343 C 129.844 0.457599 1.96441 0
M  V30 1344 C 130.157 -0.992426 1.68553 0
M  V30 1345 O 131.363 -1.49727 2.26482 0
M  V30 1346 C 129.819 0.767358 3.51624 0
M  V30 1347 C 129.427 2.23326 3.88367 0
M  V30 1348 C 131.171 0.435887 4.22256 0
M  V30 1349 C 129.078 2.48613 5.36606 0
M  V30 1350 H 128.008 0.167387 0.735185 0
M  V30 1351 H 130.659 1.048 1.5063 0
M  V30 1352 H 129.041 0.106367 3.95857 0
M  V30 1353 H 130.215 2.93623 3.55137 0
M  V30 1354 H 128.53 2.52948 3.30766 0
M  V30 1355 H 131.127 0.602202 5.31298 0
M  V30 1356 H 131.47 -0.622672 4.11617 0
M  V30 1357 H 132.003 1.05286 3.83614 0
M  V30 1358 H 128.742 3.53101 5.52268 0
M  V30 1359 H 128.262 1.82896 5.71235 0
M  V30 1360 H 129.941 2.32676 6.03714 0
M  V30 1361 N 130.073 -1.45103 0.615059 0
M  V30 1362 C 130.983 -2.34382 -0.101034 0
M  V30 1363 C 131.999 -1.51681 -0.852585 0
M  V30 1364 O 133.175 -1.8446 -0.808484 0
M  V30 1365 C 130.24 -3.29417 -1.08099 0
M  V30 1366 C 129.301 -4.28025 -0.330577 0
M  V30 1367 C 128.534 -5.1852 -1.26385 0
M  V30 1368 O 128.757 -5.12598 -2.50198 0
M  V30 1369 O 127.691 -5.97122 -0.756866 0
M  V30 1370 H 131.517 -2.97033 0.632855 0
M  V30 1371 H 129.102 -1.4461 0.375293 0
M  V30 1372 H 130.984 -3.87958 -1.6452 0
M  V30 1373 H 129.659 -2.69321 -1.79577 0
M  V30 1374 H 128.566 -3.73078 0.276283 0
M  V30 1375 H 129.899 -4.90997 0.343866 0
M  V30 1376 N 131.551 -0.354651 -1.53558 0
M  V30 1377 C 132.799 0.237972 -2.00694 0
M  V30 1378 C 133.12 1.50173 -1.24391 0
M  V30 1379 O 132.39 1.92673 -0.354135 0
M  V30 1380 H 130.97 0.0909256 -0.741446 0
M  V30 1381 H 133.632 -0.478368 -1.88938 0
M  V30 1382 H 132.728 0.47264 -3.085 0
M  V30 1383 N 133.029 1.57378 -0.0835403 0
M  V30 1384 C 134.306 1.85363 0.624507 0
M  V30 1385 C 134.686 0.978239 1.87066 0
M  V30 1386 O 134.034 0.0475908 2.2845 0
M  V30 1387 C 134.244 3.35795 0.950947 0
M  V30 1388 C 135.592 4.03581 1.31939 0
M  V30 1389 O 136.616 3.40609 1.04232 0
M  V30 1390 O 135.475 5.14672 1.83779 0
M  V30 1391 H 132.569 0.766162 0.311329 0
M  V30 1392 H 135.115 1.69307 -0.115362 0
M  V30 1393 H 133.887 3.91244 0.0663899 0
M  V30 1394 H 133.51 3.57154 1.74719 0
M  V30 1395 N 134.507 -0.190092 1.56449 0
M  V30 1396 C 135.756 -0.907912 1.80111 0
M  V30 1397 C 136.069 -1.84214 0.657619 0
M  V30 1398 O 137.275 -2.60094 0.778663 0
M  V30 1399 C 135.731 -1.66485 3.19078 0
M  V30 1400 C 135.339 -0.7752 4.41242 0
M  V30 1401 C 137.083 -2.37201 3.52045 0
M  V30 1402 C 134.99 -1.53129 5.71231 0
M  V30 1403 H 133.92 -0.34276 0.671589 0
M  V30 1404 H 136.571 -0.161109 1.82791 0
M  V30 1405 H 134.953 -2.45572 3.10661 0
M  V30 1406 H 136.127 -0.0226298 4.60794 0
M  V30 1407 H 134.442 -0.178627 4.16017 0
M  V30 1408 H 137.039 -2.94329 4.46402 0
M  V30 1409 H 137.382 -3.11632 2.76028 0
M  V30 1410 H 137.915 -1.65075 3.61932 0
M  V30 1411 H 134.654 -0.82967 6.50228 0
M  V30 1412 H 134.174 -2.25767 5.55688 0
M  V30 1413 H 135.853 -2.08377 6.12526 0
M  V30 1414 N 135.985 -1.50799 -0.457987 0
M  V30 1415 C 137.232 -1.62442 -1.20908 0
M  V30 1416 C 137.56 -0.330865 -1.91665 0
M  V30 1417 O 136.815 0.68401 -1.83357 0
M  V30 1418 C 137.114 -2.76358 -2.2663 0
M  V30 1419 C 136.78 -4.16378 -1.73033 0
M  V30 1420 C 135.442 -4.54473 -1.58138 0
M  V30 1421 C 137.794 -5.03836 -1.33413 0
M  V30 1422 C 135.122 -5.77754 -1.02065 0
M  V30 1423 C 137.474 -6.27676 -0.78778 0
M  V30 1424 C 136.138 -6.64562 -0.625561 0
M  V30 1425 H 135.408 -0.594417 -0.442435 0
M  V30 1426 H 138.055 -1.84772 -0.503136 0
M  V30 1427 H 136.36 -2.48167 -3.03184 0
M  V30 1428 H 138.057 -2.82568 -2.84528 0
M  V30 1429 H 134.647 -3.86331 -1.85598 0
M  V30 1430 H 138.831 -4.75026 -1.4375 0
M  V30 1431 H 134.087 -6.04997 -0.882547 0
M  V30 1432 H 138.261 -6.94797 -0.472177 0
M  V30 1433 H 135.888 -7.59965 -0.188926 0
M  V30 1434 N 137.463 0.71206 -1.40597 0
M  V30 1435 C 138.688 1.50617 -1.42581 0
M  V30 1436 C 139.113 1.88079 -0.0282102 0
M  V30 1437 O 138.471 1.53511 0.964579 0
M  V30 1438 C 138.519 2.7557 -2.3258 0
M  V30 1439 O 137.623 3.72414 -1.77148 0
M  V30 1440 H 136.964 0.453966 -0.484573 0
M  V30 1441 H 139.494 0.876649 -1.84868 0
M  V30 1442 H 139.504 3.2406 -2.47889 0
M  V30 1443 H 138.179 2.47639 -3.34138 0
M  V30 1444 H 136.756 3.31276 -1.71204 0
M  V30 1445 N 138.941 1.26152 0.944643 0
M  V30 1446 C 140.166 1.14363 1.7302 0
M  V30 1447 C 140.591 -0.29772 1.85729 0
M  V30 1448 O 139.949 -1.2157 1.34501 0
M  V30 1449 C 139.997 1.81378 3.11664 0
M  V30 1450 O 139.101 1.10022 3.97453 0
M  V30 1451 H 138.442 0.398694 0.53098 0
M  V30 1452 H 140.972 1.66906 1.18337 0
M  V30 1453 H 140.982 1.88064 3.62072 0
M  V30 1454 H 139.657 2.86237 3.0173 0
M  V30 1455 H 138.234 1.11287 3.55907 0
M  V30 1456 N 140.419 -1.14872 1.07899 0
M  V30 1457 C 141.666 -1.85789 0.805532 0
M  V30 1458 C 141.994 -1.82649 -0.668561 0
M  V30 1459 O 141.249 -1.24858 -1.50695 0
M  V30 1460 C 141.548 -3.34223 1.26609 0
M  V30 1461 C 141.214 -3.57555 2.74709 0
M  V30 1462 C 139.876 -3.63631 3.1516 0
M  V30 1463 C 142.228 -3.66803 3.70277 0
M  V30 1464 C 139.556 -3.76473 4.49983 0
M  V30 1465 C 141.908 -3.8117 5.04869 0
M  V30 1466 C 140.572 -3.85494 5.44932 0
M  V30 1467 H 139.842 -0.679849 0.294765 0
M  V30 1468 H 142.489 -1.3572 1.35101 0
M  V30 1469 H 140.794 -3.86536 0.640103 0
M  V30 1470 H 142.491 -3.87511 1.03132 0
M  V30 1471 H 139.081 -3.5347 2.42398 0
M  V30 1472 H 143.265 -3.61404 3.40149 0
M  V30 1473 H 138.521 -3.7808 4.80484 0
M  V30 1474 H 142.695 -3.87268 5.78789 0
M  V30 1475 H 140.322 -3.95197 6.49403 0
M  V30 1476 N 141.898 -0.863906 -1.31812 0
M  V30 1477 C 142.845 -0.313303 -2.28664 0
M  V30 1478 C 143.815 0.584868 -1.55462 0
M  V30 1479 O 145 0.517805 -1.83639 0
M  V30 1480 C 142.14 0.48441 -3.41683 0
M  V30 1481 C 141.253 -0.440594 -4.29747 0
M  V30 1482 C 140.388 0.370652 -5.29905 0
M  V30 1483 C 139.427 -0.551164 -6.09613 0
M  V30 1484 N 138.564 0.223462 -7.01744 0
M  V30 1485 H 143.404 -1.14444 -2.75148 0
M  V30 1486 H 140.941 -0.575769 -1.35364 0
M  V30 1487 H 142.899 0.962627 -4.05943 0
M  V30 1488 H 141.529 1.28029 -2.96325 0
M  V30 1489 H 140.581 -1.03724 -3.65986 0
M  V30 1490 H 141.893 -1.14767 -4.85417 0
M  V30 1491 H 141.047 0.911638 -5.99812 0
M  V30 1492 H 139.786 1.11105 -4.74876 0
M  V30 1493 H 138.791 -1.10396 -5.38603 0
M  V30 1494 H 140.016 -1.29032 -6.66729 0
M  V30 1495 H 137.962 0.946787 -6.49132 0
M  V30 1496 H 137.879 -0.424399 -7.54808 0
M  V30 1497 H 139.147 0.745876 -7.75923 0
M  V30 1498 N 143.376 1.44774 -0.622745 0
M  V30 1499 C 144.339 2.29069 0.0774015 0
M  V30 1500 C 145.339 1.4059 0.780461 0
M  V30 1501 O 146.529 1.62551 0.626322 0
M  V30 1502 C 143.661 3.21974 1.12006 0
M  V30 1503 H 144.854 2.92459 -0.663901 0
M  V30 1504 H 142.407 1.51548 -0.382486 0
M  V30 1505 H 143.142 2.63417 1.89162 0
M  V30 1506 H 142.927 3.87168 0.619951 0
M  V30 1507 H 144.417 3.85318 1.60995 0
M  V30 1508 N 144.854 0.36279 1.53368 0
M  V30 1509 C 146.102 -0.227326 2.00817 0
M  V30 1510 C 146.423 -1.49511 1.25186 0
M  V30 1511 O 145.693 -1.92482 0.364348 0
M  V30 1512 H 144.273 -0.0869923 0.741917 0
M  V30 1513 H 146.935 0.488381 1.88682 0
M  V30 1514 H 146.031 -0.456273 3.08747 0
M  V30 1515 N 146.332 -1.57332 0.0918853 0
M  V30 1516 C 147.562 -1.98286 -0.580205 0
M  V30 1517 C 147.97 -0.969713 -1.6246 0
M  V30 1518 O 147.313 0.0493501 -1.83634 0
M  V30 1519 C 147.375 -3.35603 -1.28882 0
M  V30 1520 C 147.039 -4.55285 -0.395559 0
M  V30 1521 C 148.036 -5.18687 0.355002 0
M  V30 1522 C 145.721 -5.01314 -0.314556 0
M  V30 1523 C 147.715 -6.26484 1.17458 0
M  V30 1524 C 145.402 -6.08979 0.508677 0
M  V30 1525 C 146.4 -6.71429 1.2519 0
M  V30 1526 O 146.088 -7.77018 2.06151 0
M  V30 1527 H 145.82 -0.656678 -0.160466 0
M  V30 1528 H 148.374 -2.04721 0.16688 0
M  V30 1529 H 146.604 -3.25842 -2.08241 0
M  V30 1530 H 148.293 -3.61026 -1.85512 0
M  V30 1531 H 149.059 -4.84058 0.302134 0
M  V30 1532 H 144.938 -4.5247 -0.882697 0
M  V30 1533 H 148.482 -6.75159 1.75518 0
M  V30 1534 H 144.379 -6.4304 0.563037 0
M  V30 1535 H 145.147 -7.93991 1.98799 0
M  V30 1536 N 147.81 0.181792 -1.56548 0
M  V30 1537 C 149.221 0.745244 -1.71181 0
M  V30 1538 C 149.572 1.83262 -0.70068 0
M  V30 1539 O 148.697 2.15946 0.140154 0
M  V30 1540 C 149.292 1.35859 -3.10367 0
M  V30 1541 C 147.851 1.86898 -3.2672 0
M  V30 1542 C 146.998 0.743942 -2.67134 0
M  V30 1543 H 149.949 -0.0434661 -1.5864 0
M  V30 1544 H 149.97 2.22817 -3.08436 0
M  V30 1545 H 149.482 0.566948 -3.83937 0
M  V30 1546 H 147.583 2.68738 -2.5809 0
M  V30 1547 H 147.696 2.02162 -4.34359 0
M  V30 1548 H 146.06 1.16169 -2.26665 0
M  V30 1549 H 146.843 -0.035676 -3.43281 0
M  V30 1550 N 149.288 1.51039 0.449983 0
M  V30 1551 C 150.535 1.63081 1.20045 0
M  V30 1552 C 150.863 0.341024 1.91487 0
M  V30 1553 O 150.118 -0.674276 1.83717 0
M  V30 1554 C 150.417 2.77556 2.25161 0
M  V30 1555 C 150.083 4.17289 1.70823 0
M  V30 1556 C 148.745 4.55305 1.55725 0
M  V30 1557 C 151.097 5.04536 1.3074 0
M  V30 1558 C 148.425 5.78287 0.989999 0
M  V30 1559 C 150.777 6.28085 0.754482 0
M  V30 1560 C 149.441 6.64885 0.590308 0
M  V30 1561 H 148.711 0.596755 0.439277 0
M  V30 1562 H 151.358 1.85037 0.49333 0
M  V30 1563 H 149.663 2.49771 3.01863 0
M  V30 1564 H 151.36 2.84073 2.83026 0
M  V30 1565 H 147.95 3.8731 1.83546 0
M  V30 1566 H 152.134 4.75782 1.41229 0
M  V30 1567 H 147.39 6.05456 0.850451 0
M  V30 1568 H 151.564 6.95038 0.435324 0
M  V30 1569 H 149.191 7.60055 0.14862 0
M  V30 1570 N 150.766 -0.704594 1.40972 0
M  V30 1571 C 152.012 -1.46546 1.41053 0
M  V30 1572 C 152.367 -1.92393 0.0159714 0
M  V30 1573 O 151.66 -1.66017 -0.956506 0
M  V30 1574 C 151.854 -2.698 2.34399 0
M  V30 1575 C 151.683 -2.36008 3.82793 0
M  V30 1576 C 150.453 -2.26812 4.51536 0
M  V30 1577 C 152.651 -1.99565 4.74003 0
M  V30 1578 N 150.633 -1.8581 5.85105 0
M  V30 1579 C 152.004 -1.69251 5.96451 0
M  V30 1580 C 154.059 -1.86296 4.61734 0
M  V30 1581 C 152.762 -1.27003 7.07999 0
M  V30 1582 C 154.788 -1.45452 5.73234 0
M  V30 1583 C 154.15 -1.16043 6.94776 0
M  V30 1584 H 150.249 -0.533896 0.571383 0
M  V30 1585 H 152.833 -0.816061 1.76773 0
M  V30 1586 H 151.004 -3.32473 2.00789 0
M  V30 1587 H 152.736 -3.36214 2.25261 0
M  V30 1588 H 149.491 -2.44913 4.05357 0
M  V30 1589 H 149.915 -1.67817 6.55871 0
M  V30 1590 H 154.557 -2.0769 3.68273 0
M  V30 1591 H 152.275 -1.04353 8.01334 0
M  V30 1592 H 155.861 -1.35748 5.65742 0
M  V30 1593 H 154.741 -0.84915 7.79589 0
M  V30 1594 N 152.244 -1.26651 -0.937939 0
M  V30 1595 C 153.492 -1.12165 -1.68118 0
M  V30 1596 C 153.813 0.334983 -1.92101 0
M  V30 1597 O 153.083 1.23583 -1.52 0
M  V30 1598 H 151.663 -0.412093 -0.623048 0
M  V30 1599 H 154.325 -1.59027 -1.12678 0
M  V30 1600 H 153.421 -1.64289 -2.6536 0
M  V30 1601 N 153.722 1.14298 -1.08507 0
M  V30 1602 C 154.685 2.17607 -0.719711 0
M  V30 1603 C 155.685 1.58907 0.245997 0
M  V30 1604 O 156.875 1.74181 0.0254081 0
M  V30 1605 C 154.007 3.40842 -0.0627695 0
M  V30 1606 H 155.2 2.51443 -1.63452 0
M  V30 1607 H 152.753 1.28963 -0.88307 0
M  V30 1608 H 153.488 3.12587 0.863716 0
M  V30 1609 H 153.273 3.84713 -0.757504 0
M  V30 1610 H 154.763 4.17221 0.177786 0
M  V30 1611 N 155.201 0.870884 1.31352 0
M  V30 1612 C 156.45 0.478408 1.95944 0
M  V30 1613 C 156.763 -0.974493 1.69597 0
M  V30 1614 O 157.969 -1.47316 2.28058 0
M  V30 1615 C 156.425 0.804609 3.50791 0
M  V30 1616 C 156.033 2.27433 3.85977 0
M  V30 1617 C 157.777 0.480648 4.2177 0
M  V30 1618 C 155.684 2.5429 5.33939 0
M  V30 1619 H 154.614 0.175175 0.733369 0
M  V30 1620 H 157.265 1.06391 1.4951 0
M  V30 1621 H 155.647 0.148347 3.95722 0
M  V30 1622 H 156.821 2.97373 3.52002 0
M  V30 1623 H 155.136 2.56442 3.28065 0
M  V30 1624 H 157.733 0.658519 5.30629 0
M  V30 1625 H 158.076 -0.578979 4.12254 0
M  V30 1626 H 158.609 1.09349 3.82476 0
M  V30 1627 H 155.348 3.58939 5.48491 0
M  V30 1628 H 154.868 1.88945 5.69263 0
M  V30 1629 H 156.547 2.39066 6.01212 0
M  V30 1630 N 156.679 -1.44442 0.630414 0
M  V30 1631 C 157.926 -2.02052 0.134617 0
M  V30 1632 C 158.254 -1.49576 -1.24327 0
M  V30 1633 O 157.509 -0.669806 -1.83881 0
M  V30 1634 C 157.808 -3.57332 0.0697835 0
M  V30 1635 C 157.474 -4.29058 1.38635 0
M  V30 1636 C 156.136 -4.4837 1.74694 0
M  V30 1637 C 158.488 -4.69872 2.25543 0
M  V30 1638 C 155.816 -5.05756 2.97369 0
M  V30 1639 C 158.168 -5.28616 3.47487 0
M  V30 1640 C 156.832 -5.46147 3.8377 0
M  V30 1641 H 156.102 -0.739361 0.0492598 0
M  V30 1642 H 158.749 -1.73217 0.816586 0
M  V30 1643 H 157.054 -3.85577 -0.695553 0
M  V30 1644 H 158.751 -3.99637 -0.330344 0
M  V30 1645 H 155.341 -4.14357 1.09574 0
M  V30 1646 H 159.525 -4.54666 1.98979 0
M  V30 1647 H 154.781 -5.17515 3.25558 0
M  V30 1648 H 158.955 -5.59192 4.15063 0
M  V30 1649 H 156.582 -5.9038 4.7891 0
M  V30 1650 N 158.157 -0.370918 -1.53173 0
M  V30 1651 C 159.404 0.217102 -2.01333 0
M  V30 1652 C 159.732 1.48338 -1.25802 0
M  V30 1653 O 158.987 1.92698 -0.34146 0
M  V30 1654 C 159.286 0.549696 -3.53147 0
M  V30 1655 C 158.952 -0.622872 -4.46577 0
M  V30 1656 C 157.614 -0.944595 -4.71838 0
M  V30 1657 C 159.966 -1.40819 -5.01816 0
M  V30 1658 C 157.294 -2.05351 -5.49589 0
M  V30 1659 C 159.646 -2.50757 -5.80778 0
M  V30 1660 C 158.31 -2.83458 -6.04324 0
M  V30 1661 H 157.58 0.0794431 -0.736729 0
M  V30 1662 H 160.227 -0.504481 -1.84736 0
M  V30 1663 H 158.532 1.35237 -3.6772 0
M  V30 1664 H 160.229 1.017 -3.87889 0
M  V30 1665 H 156.819 -0.36209 -4.27068 0
M  V30 1666 H 161.003 -1.17289 -4.82242 0
M  V30 1667 H 156.259 -2.3108 -5.6605 0
M  V30 1668 H 160.433 -3.12022 -6.22588 0
M  V30 1669 H 158.06 -3.69508 -6.64355 0
M  V30 1670 N 159.635 1.57281 -0.100228 0
M  V30 1671 C 160.86 1.99302 0.573881 0
M  V30 1672 C 161.285 0.979059 1.60611 0
M  V30 1673 O 160.643 -0.0517803 1.81226 0
M  V30 1674 C 160.691 3.40274 1.19358 0
M  V30 1675 O 159.795 3.41676 2.30935 0
M  V30 1676 H 159.136 0.647944 0.145138 0
M  V30 1677 H 161.666 2.03779 -0.183156 0
M  V30 1678 H 161.676 3.78078 1.53365 0
M  V30 1679 H 160.351 4.13594 0.437385 0
M  V30 1680 H 158.928 3.15672 1.98509 0
M  V30 1681 N 161.113 -0.173488 1.56642 0
M  V30 1682 C 162.362 -0.888758 1.81063 0
M  V30 1683 C 162.675 -1.83506 0.67712 0
M  V30 1684 O 163.881 -2.59254 0.806206 0
M  V30 1685 C 162.337 -1.63091 3.20826 0
M  V30 1686 C 161.945 -0.728357 4.4204 0
M  V30 1687 C 163.689 -2.33454 3.54541 0
M  V30 1688 C 161.596 -1.47062 5.72823 0
M  V30 1689 H 160.526 -0.335618 0.675186 0
M  V30 1690 H 163.177 -0.141712 1.82952 0
M  V30 1691 H 161.559 -2.42263 3.13248 0
M  V30 1692 H 162.733 0.0262449 4.60793 0
M  V30 1693 H 161.048 -0.134492 4.16183 0
M  V30 1694 H 163.645 -2.89578 4.49498 0
M  V30 1695 H 163.988 -3.08687 2.79317 0
M  V30 1696 H 164.521 -1.61227 3.63663 0
M  V30 1697 H 161.26 -0.760658 6.51072 0
M  V30 1698 H 160.78 -2.1986 5.58052 0
M  V30 1699 H 162.459 -2.01868 6.14702 0
M  V30 1700 N 162.591 -1.51276 -0.441967 0
M  V30 1701 C 163.816 -1.67799 -1.21895 0
M  V30 1702 C 164.241 -0.372864 -1.84367 0
M  V30 1703 O 163.599 0.666501 -1.68604 0
M  V30 1704 C 163.647 -2.79199 -2.28211 0
M  V30 1705 O 162.751 -2.42479 -3.33583 0
M  V30 1706 H 162.092 -0.559649 -0.357336 0
M  V30 1707 H 164.622 -1.97815 -0.522522 0
M  V30 1708 H 164.632 -3.03146 -2.73069 0
M  V30 1709 H 163.307 -3.73906 -1.82118 0
M  V30 1710 H 161.884 -2.29087 -2.94234 0
M  V30 1711 N 164.069 0.697108 -1.41344 0
M  V30 1712 C 165.317 1.45426 -1.40341 0
M  V30 1713 C 165.638 1.94996 -0.0128787 0
M  V30 1714 O 164.908 1.71599 0.945027 0
M  V30 1715 H 163.488 0.539594 -0.516573 0
M  V30 1716 H 166.15 0.825201 -1.76569 0
M  V30 1717 H 165.246 2.31817 -2.08967 0
M  V30 1718 N 165.547 1.27147 0.931209 0
M  V30 1719 C 166.48 1.0389 2.0318 0
M  V30 1720 C 167.458 -0.0395716 1.62552 0
M  V30 1721 O 168.642 0.104867 1.88208 0
M  V30 1722 C 165.769 0.575227 3.3378 0
M  V30 1723 C 164.815 1.64774 3.93385 0
M  V30 1724 S 165.648 3.23933 4.26413 0
M  V30 1725 C 166.804 2.79358 5.60098 0
M  V30 1726 H 167.037 1.97075 2.22596 0
M  V30 1727 H 164.57 1.10938 1.07387 0
M  V30 1728 H 166.528 0.314385 4.09294 0
M  V30 1729 H 165.189 -0.336505 3.12292 0
M  V30 1730 H 164.382 1.27454 4.87618 0
M  V30 1731 H 163.984 1.86048 3.24441 0
M  V30 1732 H 166.276 2.24443 6.39243 0
M  V30 1733 H 167.219 3.72322 6.02314 0
M  V30 1734 H 167.627 2.1861 5.20452 0
M  V30 1735 N 167.025 -1.13721 1.09112 0
M  V30 1736 C 167.955 -2.21148 0.749385 0
M  V30 1737 C 168.936 -1.6792 -0.271475 0
M  V30 1738 O 170.121 -1.93693 -0.140251 0
M  V30 1739 C 167.251 -3.46905 0.165659 0
M  V30 1740 C 166.205 -4.13203 1.11567 0
M  V30 1741 C 165.531 -5.33248 0.393809 0
M  V30 1742 C 166.831 -4.60912 2.45678 0
M  V30 1743 H 168.525 -2.4999 1.64758 0
M  V30 1744 H 166.071 -1.20156 0.793626 0
M  V30 1745 H 168.024 -4.21313 -0.085466 0
M  V30 1746 H 166.748 -3.17449 -0.767714 0
M  V30 1747 H 165.407 -3.40758 1.35202 0
M  V30 1748 H 165.055 -5.00054 -0.543599 0
M  V30 1749 H 164.755 -5.78552 1.02721 0
M  V30 1750 H 166.279 -6.10413 0.150908 0
M  V30 1751 H 167.693 -5.26759 2.26269 0
M  V30 1752 H 166.09 -5.16944 3.04776 0
M  V30 1753 H 167.16 -3.75603 3.06677 0
M  V30 1754 N 168.503 -0.877838 -1.30888 0
M  V30 1755 C 169.728 -0.506629 -2.01117 0
M  V30 1756 C 170.153 0.895564 -1.65412 0
M  V30 1757 O 169.511 1.5923 -0.866922 0
M  V30 1758 C 169.559 -0.680223 -3.54126 0
M  V30 1759 O 168.663 0.277033 -4.11468 0
M  V30 1760 H 168.004 -0.200518 -0.633 0
M  V30 1761 H 170.534 -1.18342 -1.66902 0
M  V30 1762 H 170.544 -0.5765 -4.03907 0
M  V30 1763 H 169.219 -1.70261 -3.79452 0
M  V30 1764 H 167.796 0.127606 -3.72682 0
M  V30 1765 N 169.982 1.44106 -0.638065 0
M  V30 1766 C 171.231 2.01194 -0.142744 0
M  V30 1767 C 171.544 1.50835 1.24532 0
M  V30 1768 O 172.75 2.00096 1.83504 0
M  V30 1769 C 171.206 3.59319 -0.20442 0
M  V30 1770 C 170.814 4.18674 -1.59423 0
M  V30 1771 C 172.558 4.23854 0.234079 0
M  V30 1772 C 170.465 5.69045 -1.61065 0
M  V30 1773 H 169.395 0.752367 -0.0495998 0
M  V30 1774 H 172.046 1.65246 -0.797881 0
M  V30 1775 H 170.428 3.92598 0.517946 0
M  V30 1776 H 171.602 3.96921 -2.34074 0
M  V30 1777 H 169.917 3.66453 -1.97741 0
M  V30 1778 H 172.514 5.34155 0.241443 0
M  V30 1779 H 172.857 3.96688 1.2627 0
M  V30 1780 H 173.39 3.95403 -0.436025 0
M  V30 1781 H 170.129 6.00956 -2.61787 0
M  V30 1782 H 169.649 5.929 -0.90718 0
M  V30 1783 H 171.328 6.32809 -1.34766 0
M  V30 1784 N 171.46 0.379036 1.52974 0
M  V30 1785 C 172.709 -0.207612 2.00629 0
M  V30 1786 C 173.022 -1.48758 1.27006 0
M  V30 1787 O 174.228 -2.15365 1.65318 0
M  V30 1788 C 172.684 -0.42053 3.57435 0
M  V30 1789 C 172.292 0.845587 4.39948 0
M  V30 1790 C 174.036 -0.964102 4.13407 0
M  V30 1791 C 171.943 0.601513 5.88333 0
M  V30 1792 H 170.873 -0.0813591 0.749598 0
M  V30 1793 H 173.524 0.499853 1.76561 0
M  V30 1794 H 171.906 -1.18959 3.7771 0
M  V30 1795 H 173.08 1.61848 4.31442 0
M  V30 1796 H 171.395 1.31336 3.95145 0
M  V30 1797 H 173.992 -1.16225 5.21916 0
M  V30 1798 H 174.335 -1.93019 3.68849 0
M  V30 1799 H 174.868 -0.25487 3.96983 0
M  V30 1800 H 171.607 1.53831 6.37194 0
M  V30 1801 H 171.127 -0.132628 5.99653 0
M  V30 1802 H 172.806 0.232134 6.46583 0
M  V30 1803 N 172.938 -1.57226 0.108567 0
M  V30 1804 C 174.163 -1.99604 -0.563303 0
M  V30 1805 C 174.588 -0.987563 -1.6009 0
M  V30 1806 O 173.946 0.0421687 -1.81251 0
M  V30 1807 C 173.994 -3.40902 -1.17552 0
M  V30 1808 O 173.098 -3.42896 -2.2912 0
M  V30 1809 H 172.439 -0.648704 -0.1417 0
M  V30 1810 H 174.969 -2.03679 0.193961 0
M  V30 1811 H 174.979 -3.78886 -1.51357 0
M  V30 1812 H 173.654 -4.1382 -0.415445 0
M  V30 1813 H 172.231 -3.1672 -1.96832 0
M  V30 1814 N 174.416 0.165178 -1.56732 0
M  V30 1815 C 175.326 1.22423 -2.00125 0
M  V30 1816 C 176.342 1.48084 -0.913619 0
M  V30 1817 O 177.518 1.60112 -1.22172 0
M  V30 1818 C 174.583 2.54197 -2.35764 0
M  V30 1819 C 173.644 2.36343 -3.58386 0
M  V30 1820 C 172.877 3.61834 -3.92316 0
M  V30 1821 O 173.1 4.67267 -3.27135 0
M  V30 1822 O 172.034 3.55579 -4.85641 0
M  V30 1823 H 175.86 0.885886 -2.90492 0
M  V30 1824 H 173.445 0.372518 -1.44681 0
M  V30 1825 H 175.327 3.3192 -2.59629 0
M  V30 1826 H 174.002 2.87598 -1.48557 0
M  V30 1827 H 172.909 1.56632 -3.39731 0
M  V30 1828 H 174.242 2.07865 -4.46154 0
M  V30 1829 N 175.894 1.51508 0.433938 0
M  V30 1830 C 177.31 1.39759 0.770682 0
M  V30 1831 C 177.51 0.482594 1.95636 0
M  V30 1832 O 176.566 -0.0609691 2.52426 0
M  V30 1833 C 177.879 2.81851 1.04787 0
M  V30 1834 C 179.427 2.91025 1.1521 0
M  V30 1835 C 179.902 4.34032 1.46219 0
M  V30 1836 N 181.393 4.37154 1.53136 0
M  V30 1837 C 182.128 5.4484 1.78709 0
M  V30 1838 N 181.624 6.62682 2.02051 0
M  V30 1839 N 183.417 5.32324 1.80519 0
M  V30 1840 H 175.568 2.09548 -0.346892 0
M  V30 1841 H 177.831 0.943446 -0.0928074 0
M  V30 1842 H 177.537 3.50815 0.249304 0
M  V30 1843 H 177.411 3.21386 1.97461 0
M  V30 1844 H 179.798 2.22257 1.94128 0
M  V30 1845 H 179.879 2.54983 0.204281 0
M  V30 1846 H 179.523 5.03351 0.678274 0
M  V30 1847 H 179.453 4.6759 2.42212 0
M  V30 1848 H 181.944 3.52197 1.36987 0
M  V30 1849 H 182.257 7.40543 2.20943 0
M  V30 1850 H 180.602 6.65791 1.99366 0
M  V30 1851 H 183.793 4.39246 1.61805 0
M  V30 1852 H 183.966 6.16328 2.00111 0
M  V30 1853 N 177.372 -0.689602 1.41712 0
M  V30 1854 C 178.788 -1.00093 1.24312 0
M  V30 1855 C 178.988 -2.01036 0.136729 0
M  V30 1856 O 178.044 -2.47562 -0.496918 0
M  V30 1857 C 179.357 -1.51985 2.59463 0
M  V30 1858 C 180.905 -1.63838 2.66695 0
M  V30 1859 C 181.38 -2.1913 4.02177 0
M  V30 1860 N 182.871 -2.26483 4.04054 0
M  V30 1861 C 183.606 -2.70306 5.0569 0
M  V30 1862 N 183.102 -3.13691 6.17713 0
M  V30 1863 N 184.895 -2.69923 4.9305 0
M  V30 1864 H 177.046 -0.0210029 2.1239 0
M  V30 1865 H 179.309 -0.0718733 0.945272 0
M  V30 1866 H 179.015 -0.85269 3.41207 0
M  V30 1867 H 178.889 -2.50103 2.82362 0
M  V30 1868 H 181.276 -2.29664 1.85306 0
M  V30 1869 H 181.357 -0.642492 2.476 0
M  V30 1870 H 181.001 -1.53918 4.84016 0
M  V30 1871 H 180.931 -3.19482 4.18615 0
M  V30 1872 H 183.422 -1.95874 3.23174 0
M  V30 1873 H 183.735 -3.45773 6.9113 0
M  V30 1874 H 182.08 -3.11585 6.21241 0
M  V30 1875 H 185.271 -2.35382 4.04614 0
M  V30 1876 H 185.444 -3.03758 5.72394 0
M  V30 1877 N 178.85 -1.27639 -0.924453 0
M  V30 1878 C 179.798 -1.10485 -2.04685 0
M  V30 1879 C 180.792 -0.0270421 -1.69378 0
M  V30 1880 O 181.998 -0.185008 -1.79047 0
M  V30 1881 H 178.373 -0.340546 -0.670472 0
M  V30 1882 H 180.344 -2.05566 -2.16298 0
M  V30 1883 C 179.093 -0.772229 -3.39016 0
M  V30 1884 H 178.416 -1.59351 -3.66671 0
M  V30 1885 H 179.856 -0.692097 -4.18313 0
M  V30 1886 C 178.315 0.523554 -3.32807 0
M  V30 1887 O 178.845 1.55702 -3.70297 0
M  V30 1888 N 177.051 0.520363 -2.85903 0
M  V30 1889 H 176.598 -0.32107 -2.55591 0
M  V30 1890 H 176.556 1.38742 -2.82131 0
M  V30 1891 N 180.328 1.1314 -1.09713 0
M  V30 1892 C 181.291 2.16831 -0.742751 0
M  V30 1893 C 182.291 1.59159 0.229129 0
M  V30 1894 O 183.481 1.74199 0.00693237 0
M  V30 1895 C 180.613 3.40756 -0.0989168 0
M  V30 1896 H 181.806 2.49695 -1.66109 0
M  V30 1897 H 179.359 1.2802 -0.896699 0
M  V30 1898 H 180.094 3.13485 0.830514 0
M  V30 1899 H 179.879 3.83888 -0.798265 0
M  V30 1900 H 181.369 4.17386 0.133524 0
M  V30 1901 N 181.806 0.884767 1.30421 0
M  V30 1902 C 183.034 0.518044 2.0031 0
M  V30 1903 C 183.449 -0.893408 1.66324 0
M  V30 1904 O 182.806 -1.5875 0.900262 0
M  V30 1905 C 182.857 0.682997 3.54989 0
M  V30 1906 O 182.578 2.03888 3.87764 0
M  V30 1907 C 184.079 0.31924 4.42149 0
M  V30 1908 H 181.299 0.200265 0.640418 0
M  V30 1909 H 183.843 1.19001 1.6631 0
M  V30 1910 H 181.998 0.0584052 3.87356 0
M  V30 1911 H 182.412 2.05735 4.82466 0
M  V30 1912 H 183.886 0.485555 5.4986 0
M  V30 1913 H 184.363 -0.742717 4.32875 0
M  V30 1914 H 184.969 0.920147 4.15227 0
M  V30 1915 N 183.284 -1.43765 0.645699 0
M  V30 1916 C 184.514 -2.05953 0.163318 0
M  V30 1917 C 184.922 -1.48432 -1.17322 0
M  V30 1918 O 184.265 -0.607295 -1.73371 0
M  V30 1919 C 184.327 -3.59499 -0.0103065 0
M  V30 1920 C 183.991 -4.39563 1.25035 0
M  V30 1921 C 184.988 -4.72108 2.17739 0
M  V30 1922 C 182.673 -4.79697 1.48983 0
M  V30 1923 C 184.667 -5.43688 3.3269 0
M  V30 1924 C 182.354 -5.51023 2.64229 0
M  V30 1925 C 183.352 -5.8294 3.55908 0
M  V30 1926 O 183.04 -6.5281 4.69142 0
M  V30 1927 H 182.772 -0.670798 0.0836986 0
M  V30 1928 H 185.326 -1.85384 0.884407 0
M  V30 1929 H 183.556 -3.78613 -0.78669 0
M  V30 1930 H 185.245 -4.03408 -0.449087 0
M  V30 1931 H 186.011 -4.41627 2.00476 0
M  V30 1932 H 181.89 -4.54266 0.785078 0
M  V30 1933 H 185.434 -5.68517 4.04269 0
M  V30 1934 H 181.331 -5.8092 2.81429 0
M  V30 1935 H 182.099 -6.71288 4.6831 0
M  V30 1936 N 184.763 -0.387143 -1.52771 0
M  V30 1937 C 185.693 0.440551 -2.29306 0
M  V30 1938 C 186.674 1.06535 -1.32606 0
M  V30 1939 O 187.859 1.07853 -1.61497 0
M  V30 1940 C 184.989 1.56919 -3.09829 0
M  V30 1941 C 183.943 1.07054 -4.14395 0
M  V30 1942 C 183.269 2.29109 -4.83129 0
M  V30 1943 C 184.569 0.140015 -5.22112 0
M  V30 1944 H 186.263 -0.198026 -2.98744 0
M  V30 1945 H 183.809 -0.09668 -1.43675 0
M  V30 1946 H 185.762 2.15503 -3.62128 0
M  V30 1947 H 184.486 2.23532 -2.3812 0
M  V30 1948 H 183.145 0.507247 -3.63074 0
M  V30 1949 H 182.793 2.94227 -4.0797 0
M  V30 1950 H 182.493 1.96406 -5.53804 0
M  V30 1951 H 184.017 2.88339 -5.38231 0
M  V30 1952 H 185.431 0.633978 -5.69784 0
M  V30 1953 H 183.828 -0.0971485 -6.00021 0
M  V30 1954 H 184.898 -0.811711 -4.78058 0
M  V30 1955 N 186.241 1.57166 -0.116904 0
M  V30 1956 C 187.487 1.95412 0.542405 0
M  V30 1957 C 187.82 1.00019 1.66463 0
M  V30 1958 O 187.095 0.0370346 1.94465 0
M  V30 1959 C 187.378 3.43615 1.07708 0
M  V30 1960 C 187.231 4.49781 -0.0415868 0
M  V30 1961 C 188.55 3.93616 1.96861 0
M  V30 1962 H 185.669 0.710543 0.195696 0
M  V30 1963 H 188.311 1.89027 -0.192038 0
M  V30 1964 H 186.461 3.49187 1.70296 0
M  V30 1965 H 188.133 4.56308 -0.676793 0
M  V30 1966 H 186.376 4.28033 -0.705019 0
M  V30 1967 H 187.047 5.50733 0.373717 0
M  V30 1968 H 189.523 3.90335 1.44146 0
M  V30 1969 H 188.399 4.97838 2.3119 0
M  V30 1970 H 188.66 3.34188 2.89432 0
M  V30 1971 N 187.719 -0.156864 1.56817 0
M  V30 1972 C 189.135 -0.50916 1.5126 0
M  V30 1973 C 189.335 -1.83897 0.823658 0
M  V30 1974 O 188.391 -2.49469 0.390055 0
M  V30 1975 C 189.704 -0.52857 2.96018 0
M  V30 1976 C 191.252 -0.614771 3.06903 0
M  V30 1977 C 191.727 -0.664938 4.53147 0
M  V30 1978 N 193.218 -0.727433 4.57452 0
M  V30 1979 C 193.953 -0.787067 5.67973 0
M  V30 1980 N 193.449 -0.806649 6.88088 0
M  V30 1981 N 195.242 -0.827195 5.5598 0
M  V30 1982 H 187.393 0.714935 2.00006 0
M  V30 1983 H 189.656 0.259526 0.911784 0
M  V30 1984 H 189.362 0.380154 3.49639 0
M  V30 1985 H 189.236 -1.36998 3.51442 0
M  V30 1986 H 191.623 -1.51392 2.53307 0
M  V30 1987 H 191.704 0.253597 2.5454 0
M  V30 1988 H 191.348 0.230011 5.07379 0
M  V30 1989 H 191.278 -1.54966 5.03282 0
M  V30 1990 H 193.769 -0.719998 3.70978 0
M  V30 1991 H 194.082 -0.853727 7.6807 0
M  V30 1992 H 192.427 -0.774687 6.90669 0
M  V30 1993 H 195.618 -0.808998 4.61056 0
M  V30 1994 H 195.791 -0.870206 6.4213 0
M  V30 1995 N 189.197 -1.51736 -0.425897 0
M  V30 1996 C 190.445 -1.64644 -1.17204 0
M  V30 1997 C 190.766 -0.370486 -1.91448 0
M  V30 1998 O 190.036 0.614088 -1.86026 0
M  V30 1999 H 188.616 -0.606819 -0.435638 0
M  V30 2000 H 191.278 -1.88713 -0.487177 0
M  V30 2001 H 190.374 -2.47958 -1.89534 0
M  V30 2002 N 190.675 0.682077 -1.42076 0
M  V30 2003 C 191.9 1.47558 -1.45744 0
M  V30 2004 C 192.325 1.87977 -0.0680981 0
M  V30 2005 O 191.683 1.55522 0.9318 0
M  V30 2006 C 191.731 2.70575 -2.38373 0
M  V30 2007 O 190.835 3.68573 -1.85007 0
M  V30 2008 H 190.176 0.443585 -0.494093 0
M  V30 2009 H 192.706 0.837238 -1.86686 0
M  V30 2010 H 192.716 3.18729 -2.54707 0
M  V30 2011 H 191.391 2.40495 -3.39315 0
M  V30 2012 H 189.968 3.2757 -1.78192 0
M  V30 2013 N 192.153 1.28127 0.917671 0
M  V30 2014 C 193.083 1.14248 2.03641 0
M  V30 2015 C 194.064 0.0412748 1.7005 0
M  V30 2016 O 195.249 0.217566 1.92977 0
M  V30 2017 C 192.379 0.799431 3.37974 0
M  V30 2018 C 191.333 1.85497 3.85713 0
M  V30 2019 C 190.659 1.36565 5.16966 0
M  V30 2020 C 191.959 3.26085 4.08002 0
M  V30 2021 H 193.653 2.07835 2.15511 0
M  V30 2022 H 191.199 1.00064 1.03553 0
M  V30 2023 H 193.152 0.689114 4.15727 0
M  V30 2024 H 191.876 -0.172145 3.26146 0
M  V30 2025 H 190.535 1.95437 3.10161 0
M  V30 2026 H 190.183 0.383253 5.01538 0
M  V30 2027 H 189.883 2.07143 5.49878 0
M  V30 2028 H 191.407 1.26848 5.97279 0
M  V30 2029 H 192.821 3.19089 4.76293 0
M  V30 2030 H 191.218 3.94462 4.52238 0
M  V30 2031 H 192.288 3.70394 3.12948 0
M  V30 2032 N 193.631 -1.12557 1.10312 0
M  V30 2033 C 194.879 -1.83675 0.843091 0
M  V30 2034 C 195.2 -1.84435 -0.633131 0
M  V30 2035 O 194.47 -1.30657 -1.45964 0
M  V30 2036 H 193.05 -0.680138 0.308904 0
M  V30 2037 H 195.712 -1.36301 1.39313 0
M  V30 2038 H 194.808 -2.87908 1.2048 0
M  V30 2039 N 195.109 -0.891671 -1.2995 0
M  V30 2040 C 196.072 -0.36828 -2.26222 0
M  V30 2041 C 197.072 0.493014 -1.53056 0
M  V30 2042 O 198.262 0.299213 -1.71611 0
M  V30 2043 C 195.394 0.47442 -3.37583 0
M  V30 2044 H 196.587 -1.21844 -2.74033 0
M  V30 2045 H 194.14 -0.669107 -1.41254 0
M  V30 2046 H 194.875 1.34489 -2.95099 0
M  V30 2047 H 194.66 -0.142615 -3.91841 0
M  V30 2048 H 196.15 0.83218 -4.09224 0
M  V30 2049 N 196.587 1.43421 -0.653314 0
M  V30 2050 C 197.535 2.32546 0.0501531 0
M  V30 2051 C 198.529 1.48617 0.812985 0
M  V30 2052 O 199.735 1.64825 0.723375 0
M  V30 2053 H 196.11 0.751185 0.0350032 0
M  V30 2054 H 198.081 2.89602 -0.719261 0
M  V30 2055 C 196.83 3.32925 1.00279 0
M  V30 2056 H 196.153 3.97532 0.425236 0
M  V30 2057 H 197.593 3.9792 1.46409 0
M  V30 2058 C 196.052 2.63532 2.09886 0
M  V30 2059 O 196.582 2.45092 3.18265 0
M  V30 2060 N 194.788 2.22905 1.86445 0
M  V30 2061 H 194.335 2.38103 0.98309 0
M  V30 2062 H 194.293 1.76805 2.59976 0
M  V30 2063 N 198.065 0.39524 1.52563 0
M  V30 2064 C 199.293 -0.184943 2.06072 0
M  V30 2065 C 199.708 -1.40021 1.26647 0
M  V30 2066 O 199.065 -1.79767 0.314672 0
M  V30 2067 C 199.116 -0.549179 3.57304 0
M  V30 2068 O 198.837 0.617813 4.33722 0
M  V30 2069 C 200.338 -1.18459 4.2718 0
M  V30 2070 H 197.558 -0.0265025 0.670476 0
M  V30 2071 H 200.102 0.562184 1.96621 0
M  V30 2072 H 198.257 -1.2462 3.66809 0
M  V30 2073 H 198.671 0.317091 5.23541 0
M  V30 2074 H 200.145 -1.38976 5.34219 0
M  V30 2075 H 200.622 -2.15368 3.82771 0
M  V30 2076 H 201.228 -0.528163 4.22008 0
M  V30 2077 N 199.544 -1.57102 0.125237 0
M  V30 2078 C 200.507 -2.14471 -0.80838 0
M  V30 2079 C 201.507 -1.0811 -1.19033 0
M  V30 2080 O 202.697 -1.33856 -1.11482 0
M  V30 2081 C 199.829 -2.69005 -2.09402 0
M  V30 2082 H 201.022 -2.98297 -0.309696 0
M  V30 2083 H 198.575 -1.55807 -0.124051 0
M  V30 2084 H 199.31 -1.88785 -2.63687 0
M  V30 2085 H 199.095 -3.46799 -1.82957 0
M  V30 2086 H 200.585 -3.13278 -2.76128 0
M  V30 2087 N 201.022 0.148545 -1.56898 0
M  V30 2088 C 202.247 0.880385 -1.87787 0
M  V30 2089 C 202.672 1.74018 -0.714093 0
M  V30 2090 O 202.03 1.78153 0.336343 0
M  V30 2091 C 202.078 1.71422 -3.17249 0
M  V30 2092 O 201.182 2.8183 -3.01074 0
M  V30 2093 H 200.523 0.245301 -0.617028 0
M  V30 2094 H 203.053 0.139826 -2.04122 0
M  V30 2095 H 203.063 2.10954 -3.49231 0
M  V30 2096 H 201.738 1.08284 -4.01556 0
M  V30 2097 H 200.315 2.45715 -2.80497 0
M  V30 2098 N 202.5 1.5196 0.417844 0
M  V30 2099 C 203.725 1.69717 1.1921 0
M  V30 2100 C 204.15 0.402148 1.83751 0
M  V30 2101 O 203.508 -0.639593 1.69643 0
M  V30 2102 C 203.556 2.82794 2.2374 0
M  V30 2103 O 202.66 2.47756 3.29683 0
M  V30 2104 H 202.001 0.565263 0.348387 0
M  V30 2105 H 204.531 1.98621 0.490985 0
M  V30 2106 H 204.541 3.07452 2.68212 0
M  V30 2107 H 203.216 3.76756 1.76146 0
M  V30 2108 H 201.793 2.33739 2.90552 0
M  V30 2109 N 203.978 -0.674533 1.42435 0
M  V30 2110 C 205.227 -1.43034 1.42212 0
M  V30 2111 C 205.54 -1.95555 0.0420788 0
M  V30 2112 O 206.746 -2.71374 -0.0827558 0
M  V30 2113 C 205.202 -2.58748 2.50155 0
M  V30 2114 C 204.81 -2.12925 3.94166 0
M  V30 2115 C 206.554 -3.36257 2.59098 0
M  V30 2116 C 204.461 -3.25723 4.93618 0
M  V30 2117 H 203.391 -0.537345 0.528939 0
M  V30 2118 H 206.042 -0.73024 1.68344 0
M  V30 2119 H 204.424 -3.31128 2.17188 0
M  V30 2120 H 205.598 -1.47697 4.36488 0
M  V30 2121 H 203.913 -1.48354 3.89076 0
M  V30 2122 H 206.51 -4.20264 3.30578 0
M  V30 2123 H 206.853 -3.82866 1.63461 0
M  V30 2124 H 207.386 -2.70947 2.9126 0
M  V30 2125 H 204.125 -2.84105 5.90732 0
M  V30 2126 H 203.645 -3.89732 4.55926 0
M  V30 2127 H 205.324 -3.91186 5.15347 0
M  V30 2128 N 205.456 -1.28612 -0.910864 0
M  V30 2129 C 206.419 -1.12803 -1.9952 0
M  V30 2130 C 207.419 -0.0668264 -1.60661 0
M  V30 2131 O 208.609 -0.312847 -1.71368 0
M  V30 2132 C 205.741 -0.72254 -3.33155 0
M  V30 2133 H 206.934 -2.09109 -2.14973 0
M  V30 2134 H 204.487 -1.11639 -1.09391 0
M  V30 2135 H 205.222 0.241152 -3.23402 0
M  V30 2136 H 205.007 -1.48916 -3.62721 0
M  V30 2137 H 206.497 -0.634666 -4.12749 0
M  V30 2138 N 206.934 1.1197 -1.10907 0
M  V30 2139 C 208.182 1.83225 -0.852819 0
M  V30 2140 C 208.503 1.84769 0.623341 0
M  V30 2141 O 207.773 1.3143 1.45269 0
M  V30 2142 H 206.353 0.67849 -0.312507 0
M  V30 2143 H 209.015 1.3556 -1.40033 0
M  V30 2144 H 208.111 2.87265 -1.22005 0
M  V30 2145 N 208.412 0.89855 1.29475 0
M  V30 2146 C 209.66 0.522847 1.9522 0
M  V30 2147 C 209.981 -0.93371 1.71192 0
M  V30 2148 O 209.251 -1.65823 1.04305 0
M  V30 2149 H 207.831 0.190366 0.722336 0
M  V30 2150 H 210.493 1.14459 1.5775 0
M  V30 2151 H 209.589 0.704476 3.04045 0
M  V30 2152 N 209.89 -1.43072 0.660911 0
M  V30 2153 C 211.118 -2.06067 0.185422 0
M  V30 2154 C 211.533 -1.49582 -1.15198 0
M  V30 2155 O 210.89 -0.630134 -1.71276 0
M  V30 2156 C 210.941 -3.61371 0.0966523 0
M  V30 2157 O 210.662 -4.15758 1.38119 0
M  V30 2158 C 212.163 -4.41455 -0.403996 0
M  V30 2159 H 209.383 -0.664459 0.0934604 0
M  V30 2160 H 211.927 -1.83447 0.90373 0
M  V30 2161 H 210.082 -3.8315 -0.572259 0
M  V30 2162 H 210.496 -5.09499 1.24542 0
M  V30 2163 H 211.97 -5.50437 -0.415045 0
M  V30 2164 H 212.447 -4.15036 -1.43674 0
M  V30 2165 H 213.053 -4.24663 0.232691 0
M  V30 2166 N 211.368 -0.403325 -1.52352 0
M  V30 2167 C 212.616 0.174003 -2.0135 0
M  V30 2168 C 212.937 1.46139 -1.29106 0
M  V30 2169 O 212.207 1.91448 -0.415253 0
M  V30 2170 H 210.787 0.0672911 -0.743963 0
M  V30 2171 H 213.449 -0.538235 -1.87321 0
M  V30 2172 H 212.545 0.374254 -3.09848 0
M  V30 2173 N 212.846 1.57033 -0.133567 0
M  V30 2174 C 214.095 1.94861 0.520768 0
M  V30 2175 C 214.408 1.02012 1.66892 0
M  V30 2176 O 215.614 1.29365 2.38699 0
M  V30 2177 C 214.07 3.46362 0.977809 0
M  V30 2178 C 213.678 4.47773 -0.142674 0
M  V30 2179 C 215.422 3.93083 1.60269 0
M  V30 2180 C 213.329 5.90468 0.331883 0
M  V30 2181 H 212.259 0.727453 0.198315 0
M  V30 2182 H 214.91 1.82227 -0.215759 0
M  V30 2183 H 213.292 3.54282 1.7692 0
M  V30 2184 H 214.466 4.51536 -0.919317 0
M  V30 2185 H 212.781 4.10891 -0.675124 0
M  V30 2186 H 215.378 4.97121 1.96914 0
M  V30 2187 H 215.721 3.33876 2.48662 0
M  V30 2188 H 216.254 3.88025 0.876453 0
M  V30 2189 H 212.993 6.53463 -0.516341 0
M  V30 2190 H 212.513 5.90094 1.07469 0
M  V30 2191 H 214.192 6.42179 0.788332 0
M  V30 2192 N 214.325 -0.140222 1.56975 0
M  V30 2193 C 215.553 -0.866437 1.87884 0
M  V30 2194 C 215.968 -1.74428 0.722517 0
M  V30 2195 O 215.325 -1.79891 -0.30749 0
M  V30 2196 C 215.376 -1.71753 3.18093 0
M  V30 2197 O 215.097 -0.875056 4.29272 0
M  V30 2198 C 216.598 -2.55074 3.62563 0
M  V30 2199 H 213.818 -0.25019 0.622612 0
M  V30 2200 H 216.362 -0.130977 2.0408 0
M  V30 2201 H 214.517 -2.40598 3.03631 0
M  V30 2202 H 214.931 -1.46002 5.03769 0
M  V30 2203 H 216.405 -3.10356 4.5649 0
M  V30 2204 H 216.882 -3.31434 2.88181 0
M  V30 2205 H 217.488 -1.91509 3.79743 0
M  V30 2206 N 215.803 -1.52179 -0.40978 0
M  V30 2207 C 217.052 -1.65434 -1.15388 0
M  V30 2208 C 217.365 -0.390056 -1.91671 0
M  V30 2209 O 218.571 -0.402399 -2.68501 0
M  V30 2210 C 217.027 -2.92279 -2.10003 0
M  V30 2211 C 216.635 -4.25813 -1.39239 0
M  V30 2212 C 218.379 -3.14897 -2.84675 0
M  V30 2213 C 216.286 -5.43782 -2.32498 0
M  V30 2214 H 215.216 -0.616267 -0.434432 0
M  V30 2215 H 217.867 -1.78666 -0.418401 0
M  V30 2216 H 216.249 -2.72744 -2.871 0
M  V30 2217 H 217.423 -4.55828 -0.675099 0
M  V30 2218 H 215.738 -4.09292 -0.766097 0
M  V30 2219 H 218.335 -4.0021 -3.54593 0
M  V30 2220 H 218.678 -2.29103 -3.47588 0
M  V30 2221 H 219.211 -3.34901 -2.14677 0
M  V30 2222 H 215.95 -6.3192 -1.74233 0
M  V30 2223 H 215.47 -5.18106 -3.02201 0
M  V30 2224 H 217.149 -5.76834 -2.93038 0
M  V30 2225 N 217.281 0.66697 -1.42791 0
M  V30 2226 C 218.211 1.79218 -1.49677 0
M  V30 2227 C 219.192 1.66405 -0.352623 0
M  V30 2228 O 220.377 1.85708 -0.567993 0
M  V30 2229 C 217.507 3.17565 -1.40605 0
M  V30 2230 C 216.461 3.45124 -2.53127 0
M  V30 2231 C 215.787 4.83127 -2.29112 0
M  V30 2232 C 217.087 3.41236 -3.95418 0
M  V30 2233 H 218.781 1.73713 -2.43853 0
M  V30 2234 H 216.327 0.83432 -1.17367 0
M  V30 2235 H 218.28 3.96022 -1.44029 0
M  V30 2236 H 217.004 3.23767 -0.429271 0
M  V30 2237 H 215.663 2.69031 -2.49034 0
M  V30 2238 H 215.311 4.85988 -1.29709 0
M  V30 2239 H 215.011 5.02528 -3.04531 0
M  V30 2240 H 216.535 5.63859 -2.34297 0
M  V30 2241 H 217.949 4.09651 -4.01073 0
M  V30 2242 H 216.346 3.72173 -4.70752 0
M  V30 2243 H 217.416 2.39665 -4.21532 0
M  V30 2244 N 218.759 1.29093 0.90403 0
M  V30 2245 C 220.008 1.16187 1.64874 0
M  V30 2246 C 220.321 -0.286742 1.93487 0
M  V30 2247 O 221.527 -0.537062 2.66135 0
M  V30 2248 C 219.983 2.03177 2.97064 0
M  V30 2249 C 219.591 3.52836 2.76062 0
M  V30 2250 C 221.335 1.98984 3.74974 0
M  V30 2251 C 219.242 4.31945 4.03952 0
M  V30 2252 H 218.172 0.431246 0.618501 0
M  V30 2253 H 220.823 1.53699 1.00243 0
M  V30 2254 H 219.205 1.5853 3.62883 0
M  V30 2255 H 220.379 4.05507 2.18863 0
M  V30 2256 H 218.694 3.58656 2.11553 0
M  V30 2257 H 221.291 2.55351 4.69787 0
M  V30 2258 H 221.634 0.968815 4.0487 0
M  V30 2259 H 222.167 2.41652 3.15989 0
M  V30 2260 H 218.906 5.34667 3.79225 0
M  V30 2261 H 218.426 3.84045 4.60727 0
M  V30 2262 H 220.105 4.42379 4.72133 0
M  V30 2263 N 220.237 -1.11381 1.11499 0
M  V30 2264 C 221.486 -1.82494 0.858993 0
M  V30 2265 C 221.799 -1.85605 -0.617278 0
M  V30 2266 O 223.005 -2.52824 -0.989552 0
M  V30 2267 C 221.461 -3.27745 1.48699 0
M  V30 2268 C 221.069 -3.32961 2.99735 0
M  V30 2269 C 222.813 -4.03754 1.31085 0
M  V30 2270 C 220.72 -4.72612 3.55516 0
M  V30 2271 H 219.65 -0.683802 0.317696 0
M  V30 2272 H 222.301 -1.25331 1.34031 0
M  V30 2273 H 220.683 -3.84844 0.933339 0
M  V30 2274 H 221.857 -2.85741 3.61509 0
M  V30 2275 H 220.172 -2.70433 3.16631 0
M  V30 2276 H 222.769 -5.06891 1.70192 0
M  V30 2277 H 223.112 -4.15527 0.253496 0
M  V30 2278 H 223.645 -3.53043 1.83318 0
M  V30 2279 H 220.384 -4.66036 4.60967 0
M  V30 2280 H 219.904 -5.2024 2.98513 0
M  V30 2281 H 221.583 -5.4157 3.53992 0
M  V30 2282 N 221.715 -0.905404 -1.28997 0
M  V30 2283 C 222.663 -0.377431 -2.29517 0
M  V30 2284 C 223.657 0.526461 -1.61012 0
M  V30 2285 O 224.863 0.40863 -1.753 0
M  V30 2286 H 221.238 -0.103437 -0.744852 0
M  V30 2287 H 223.209 -1.23848 -2.71485 0
M  V30 2288 C 221.958 0.374833 -3.45674 0
M  V30 2289 H 221.281 -0.311474 -3.98585 0
M  V30 2290 H 222.721 0.70903 -4.1803 0
M  V30 2291 C 221.18 1.57963 -2.97572 0
M  V30 2292 O 221.71 2.67886 -2.99333 0
M  V30 2293 N 219.916 1.42375 -2.53333 0
M  V30 2294 H 219.463 0.529466 -2.521 0
M  V30 2295 H 219.421 2.23117 -2.21509 0
M  V30 2296 N 223.193 1.4272 -0.668489 0
M  V30 2297 C 224.123 2.335 -0.000100175 0
M  V30 2298 C 225.104 1.50328 0.795964 0
M  V30 2299 O 226.289 1.78949 0.754385 0
M  V30 2300 C 223.419 3.33874 0.956302 0
M  V30 2301 C 222.373 4.27152 0.269278 0
M  V30 2302 C 221.699 5.17684 1.33818 0
M  V30 2303 C 222.999 5.15373 -0.847805 0
M  V30 2304 H 224.693 2.89639 -0.758244 0
M  V30 2305 H 222.239 1.39269 -0.366079 0
M  V30 2306 H 224.192 3.9629 1.43292 0
M  V30 2307 H 222.916 2.76025 1.74579 0
M  V30 2308 H 221.575 3.66123 -0.187042 0
M  V30 2309 H 221.223 4.56165 2.1195 0
M  V30 2310 H 220.923 5.80918 0.883659 0
M  V30 2311 H 222.447 5.82974 1.81586 0
M  V30 2312 H 223.861 5.7151 -0.452681 0
M  V30 2313 H 222.258 5.87407 -1.22773 0
M  V30 2314 H 223.328 4.5415 -1.69929 0
M  V30 2315 N 224.671 0.411399 1.52136 0
M  V30 2316 C 225.618 -0.412975 2.27075 0
M  V30 2317 C 226.588 -1.03912 1.29582 0
M  V30 2318 O 227.773 -1.06296 1.58448 0
M  V30 2319 C 224.913 -1.52247 3.09701 0
M  V30 2320 C 224.026 -0.917021 4.22155 0
M  V30 2321 C 223.161 -1.9994 4.92135 0
M  V30 2322 C 222.2 -1.37101 5.96548 0
M  V30 2323 N 221.337 -2.39364 6.60038 0
M  V30 2324 H 226.177 0.232499 2.97092 0
M  V30 2325 H 223.714 0.126496 1.46555 0
M  V30 2326 H 225.672 -2.17674 3.55913 0
M  V30 2327 H 224.302 -2.13794 2.41851 0
M  V30 2328 H 223.354 -0.151742 3.80097 0
M  V30 2329 H 224.666 -0.418006 4.97045 0
M  V30 2330 H 223.82 -2.73088 5.41763 0
M  V30 2331 H 222.559 -2.53208 4.16818 0
M  V30 2332 H 221.564 -0.624873 5.46237 0
M  V30 2333 H 222.789 -0.845998 6.7381 0
M  V30 2334 H 220.735 -2.91759 5.87548 0
M  V30 2335 H 220.652 -1.9428 7.3061 0
M  V30 2336 H 221.92 -3.12074 7.14304 0
M  V30 2337 N 226.149 -1.5696 0.141893 0
M  V30 2338 C 227.096 -2.16501 -0.799737 0
M  V30 2339 C 228.066 -1.09643 -1.24771 0
M  V30 2340 O 229.251 -1.3766 -1.32115 0
M  V30 2341 C 226.391 -2.78679 -2.03549 0
M  V30 2342 C 225.504 -3.99914 -1.6338 0
M  V30 2343 C 224.639 -4.50106 -2.82096 0
M  V30 2344 C 223.678 -5.63819 -2.38275 0
M  V30 2345 N 222.815 -6.08651 -3.49983 0
M  V30 2346 H 227.655 -2.96632 -0.285179 0
M  V30 2347 H 225.192 -1.46533 -0.129053 0
M  V30 2348 H 227.15 -3.1287 -2.75986 0
M  V30 2349 H 225.78 -2.012 -2.52425 0
M  V30 2350 H 224.832 -3.71735 -0.807279 0
M  V30 2351 H 226.144 -4.82311 -1.27192 0
M  V30 2352 H 225.298 -4.86325 -3.62729 0
M  V30 2353 H 224.037 -3.66706 -3.21525 0
M  V30 2354 H 223.042 -5.2718 -1.56081 0
M  V30 2355 H 224.267 -6.49 -1.99938 0
M  V30 2356 H 222.213 -5.28188 -3.89042 0
M  V30 2357 H 222.13 -6.85961 -3.17794 0
M  V30 2358 H 223.398 -6.49515 -4.30988 0
M  V30 2359 N 227.627 0.131896 -1.57047 0
M  V30 2360 C 228.852 0.860418 -1.8871 0
M  V30 2361 C 229.277 1.73251 -0.73251 0
M  V30 2362 O 228.635 1.785 0.317429 0
M  V30 2363 C 228.683 1.68047 -3.19049 0
M  V30 2364 O 227.787 2.7862 -3.04047 0
M  V30 2365 H 227.128 0.238743 -0.619595 0
M  V30 2366 H 229.658 0.118169 -2.04258 0
M  V30 2367 H 229.668 2.07238 -3.51449 0
M  V30 2368 H 228.343 1.04018 -4.02682 0
M  V30 2369 H 226.92 2.42726 -2.83088 0
M  V30 2370 N 229.106 1.52395 0.401703 0
M  V30 2371 C 230.036 1.79231 1.49661 0
M  V30 2372 C 231.017 0.643654 1.57452 0
M  V30 2373 O 232.202 0.889989 1.72606 0
M  V30 2374 C 229.332 1.94971 2.87409 0
M  V30 2375 C 228.286 3.10604 2.94465 0
M  V30 2376 C 227.612 3.11577 4.34538 0
M  V30 2377 C 228.912 4.49921 2.6527 0
M  V30 2378 H 230.606 2.70917 1.27454 0
M  V30 2379 H 228.152 1.30362 0.6117 0
M  V30 2380 H 230.105 2.12328 3.63999 0
M  V30 2381 H 228.829 0.999632 3.10926 0
M  V30 2382 H 227.488 2.93009 2.20321 0
M  V30 2383 H 227.136 2.14277 4.55076 0
M  V30 2384 H 226.836 3.89247 4.40183 0
M  V30 2385 H 228.36 3.31073 5.13053 0
M  V30 2386 H 229.774 4.67683 3.31581 0
M  V30 2387 H 228.171 5.29564 2.82281 0
M  V30 2388 H 229.241 4.57507 1.60671 0
M  V30 2389 N 230.584 -0.659388 1.43143 0
M  V30 2390 C 231.547 -1.75432 1.47501 0
M  V30 2391 C 232.547 -1.56707 0.360512 0
M  V30 2392 O 233.737 -1.62717 0.622002 0
M  V30 2393 C 230.869 -3.14239 1.32162 0
M  V30 2394 H 232.062 -1.7295 2.45006 0
M  V30 2395 H 229.615 -0.870469 1.29817 0
M  V30 2396 H 230.35 -3.22336 0.356401 0
M  V30 2397 H 230.135 -3.29235 2.12948 0
M  V30 2398 H 231.625 -3.94094 1.3813 0
M  V30 2399 N 232.062 -1.29571 -0.897171 0
M  V30 2400 C 233.292 -1.20408 -1.67886 0
M  V30 2401 C 233.7 0.237429 -1.87704 0
M  V30 2402 O 233.043 1.17048 -1.41582 0
M  V30 2403 C 233.105 -1.84887 -3.08314 0
M  V30 2404 C 232.769 -3.34189 -3.11716 0
M  V30 2405 C 233.766 -4.30374 -2.91675 0
M  V30 2406 C 231.451 -3.75431 -3.33701 0
M  V30 2407 C 233.445 -5.65776 -2.93557 0
M  V30 2408 C 231.132 -5.10955 -3.35214 0
M  V30 2409 C 232.13 -6.05938 -3.15164 0
M  V30 2410 O 231.818 -7.38987 -3.1647 0
M  V30 2411 H 231.55 -0.418289 -0.531046 0
M  V30 2412 H 234.104 -1.71514 -1.13014 0
M  V30 2413 H 232.334 -1.28295 -3.64798 0
M  V30 2414 H 234.023 -1.70011 -3.6858 0
M  V30 2415 H 234.789 -3.99844 -2.74499 0
M  V30 2416 H 230.668 -3.01953 -3.48347 0
M  V30 2417 H 234.212 -6.39889 -2.77826 0
M  V30 2418 H 230.109 -5.4113 -3.51922 0
M  V30 2419 H 230.877 -7.47823 -3.3272 0
M  V30 2420 N 233.54 1.10788 -1.12088 0
M  V30 2421 C 234.789 1.82036 -0.868659 0
M  V30 2422 C 235.102 1.85929 0.607426 0
M  V30 2423 O 236.308 2.53346 0.97613 0
M  V30 2424 C 234.764 3.26951 -1.50435 0
M  V30 2425 C 234.372 3.31367 -3.01496 0
M  V30 2426 C 236.116 4.03053 -1.33225 0
M  V30 2427 C 234.023 4.7072 -3.58017 0
M  V30 2428 H 232.953 0.682108 -0.321318 0
M  V30 2429 H 235.604 1.24618 -1.34694 0
M  V30 2430 H 233.986 3.84343 -0.953735 0
M  V30 2431 H 235.16 2.83819 -3.6302 0
M  V30 2432 H 233.475 2.6875 -3.18061 0
M  V30 2433 H 236.072 5.05981 -1.72878 0
M  V30 2434 H 236.415 4.15387 -0.275529 0
M  V30 2435 H 236.948 3.52066 -1.85188 0
M  V30 2436 H 233.687 4.63585 -4.63432 0
M  V30 2437 H 233.207 5.1865 -3.01268 0
M  V30 2438 H 234.886 5.39685 -3.56859 0
M  V30 2439 N 235.018 0.912232 1.28515 0
M  V30 2440 C 235.968 0.370649 2.24967 0
M  V30 2441 C 236.952 -0.516375 1.52389 0
M  V30 2442 O 238.144 -0.356345 1.73376 0
M  V30 2443 C 235.273 -0.389526 3.41083 0
M  V30 2444 C 234.359 0.51313 4.20984 0
M  V30 2445 N 234.75 1.62604 4.78951 0
M  V30 2446 C 233.048 0.313235 4.44899 0
M  V30 2447 C 233.749 2.18619 5.39055 0
M  V30 2448 N 232.725 1.47765 5.23132 0
M  V30 2449 H 236.527 1.22061 2.67354 0
M  V30 2450 H 234.041 0.764712 1.43269 0
M  V30 2451 H 236.038 -0.794353 4.09262 0
M  V30 2452 H 234.698 -1.2366 3.0023 0
M  V30 2453 H 235.709 2.00864 4.77362 0
M  V30 2454 H 232.386 -0.494452 4.14562 0
M  V30 2455 H 233.776 3.12228 5.94948 0
M  V30 2456 N 236.496 -1.42363 0.676048 0
M  V30 2457 C 237.745 -2.00745 0.196037 0
M  V30 2458 C 238.058 -1.54083 -1.20489 0
M  V30 2459 O 239.264 -2.04891 -1.78134 0
M  V30 2460 C 237.72 -3.58651 0.299616 0
M  V30 2461 C 237.328 -4.143 1.70468 0
M  V30 2462 C 239.072 -4.24326 -0.121619 0
M  V30 2463 C 236.979 -5.64574 1.76096 0
M  V30 2464 H 235.909 -0.750787 0.0695301 0
M  V30 2465 H 238.56 -1.63072 0.841412 0
M  V30 2466 H 236.942 -3.93833 -0.413673 0
M  V30 2467 H 238.116 -3.90575 2.44515 0
M  V30 2468 H 236.431 -3.61081 2.07387 0
M  V30 2469 H 239.028 -5.34607 -0.0997362 0
M  V30 2470 H 239.371 -3.99897 -1.15708 0
M  V30 2471 H 239.904 -3.94108 0.540706 0
M  V30 2472 H 236.643 -5.93804 2.77628 0
M  V30 2473 H 236.163 -5.90286 1.06406 0
M  V30 2474 H 237.842 -6.29013 1.51496 0
M  V30 2475 N 237.974 -0.419461 -1.51915 0
M  V30 2476 C 238.924 0.418496 -2.24126 0
M  V30 2477 C 239.908 1.00495 -1.25656 0
M  V30 2478 O 241.1 0.926058 -1.50842 0
M  V30 2479 C 238.229 1.52899 -3.07371 0
M  V30 2480 C 237.315 0.952797 -4.13258 0
M  V30 2481 N 237.706 0.104175 -5.05693 0
M  V30 2482 C 236.004 1.22224 -4.28926 0
M  V30 2483 C 236.705 -0.21752 -5.81293 0
M  V30 2484 N 235.681 0.394293 -5.42168 0
M  V30 2485 H 239.483 -0.236048 -2.92951 0
M  V30 2486 H 236.997 -0.230481 -1.60756 0
M  V30 2487 H 238.994 2.14199 -3.57665 0
M  V30 2488 H 237.654 2.18605 -2.40088 0
M  V30 2489 H 238.665 -0.260924 -5.17242 0
M  V30 2490 H 235.342 1.87812 -3.72871 0
M  V30 2491 H 236.732 -0.906992 -6.6575 0
M  V30 2492 N 239.452 1.56882 -0.150215 0
M  V30 2493 C 240.677 2.01027 0.510184 0
M  V30 2494 C 241.102 1.02966 1.57415 0
M  V30 2495 O 240.46 0.00590158 1.81299 0
M  V30 2496 C 240.508 3.43899 1.08472 0
M  V30 2497 O 239.612 3.4885 2.19948 0
M  V30 2498 H 238.953 0.652233 0.124451 0
M  V30 2499 H 241.483 2.03093 -0.247894 0
M  V30 2500 H 241.493 3.82766 1.41259 0
M  V30 2501 H 240.168 4.14776 0.305582 0
M  V30 2502 H 238.745 3.21827 1.88366 0
M  V30 2503 N 240.93 -0.123565 1.57115 0
M  V30 2504 C 242.17 -0.838097 1.86428 0
M  V30 2505 C 242.534 -1.77266 0.737611 0
M  V30 2506 O 243.735 -2.52842 0.912389 0
M  V30 2507 C 242.006 -1.57219 3.20962 0
M  V30 2508 S 243.565 -2.32893 3.71896 0
M  V30 2509 H 240.383 -0.279811 0.653626 0
M  V30 2510 H 242.985 -0.0967034 1.95261 0
M  V30 2511 H 241.689 -0.877522 4.00909 0
M  V30 2512 H 241.22 -2.35405 3.15195 0
M  V30 2513 H 243.235 -3.5853 3.43032 0
M  V30 2514 N 242.408 -1.52605 -0.393616 0
M  V30 2515 C 243.34 -1.73303 -1.49995 0
M  V30 2516 C 244.353 -0.613473 -1.50799 0
M  V30 2517 O 245.542 -0.889049 -1.54784 0
M  V30 2518 C 242.642 -1.77245 -2.88855 0
M  V30 2519 C 241.815 -3.06483 -3.12069 0
M  V30 2520 C 240.874 -3.02033 -4.30886 0
M  V30 2521 O 239.9 -3.75907 -4.27414 0
M  V30 2522 N 241.102 -2.20897 -5.36828 0
M  V30 2523 H 243.867 -2.68756 -1.32629 0
M  V30 2524 H 241.428 -1.51036 -0.583083 0
M  V30 2525 H 243.42 -1.7178 -3.66434 0
M  V30 2526 H 241.99 -0.891993 -2.99603 0
M  V30 2527 H 241.21 -3.25474 -2.22396 0
M  V30 2528 H 242.498 -3.91947 -3.2443 0
M  V30 2529 H 241.896 -1.60336 -5.42502 0
M  V30 2530 H 240.453 -2.21275 -6.13091 0
M  V30 2531 N 243.887 0.651787 -1.4349 0
M  V30 2532 C 244.834 1.76462 -1.4876 0
M  V30 2533 C 245.804 1.62641 -0.337189 0
M  V30 2534 O 246.989 1.82864 -0.544544 0
M  V30 2535 C 244.129 3.14623 -1.41796 0
M  V30 2536 C 243.242 3.39568 -2.67053 0
M  V30 2537 C 242.377 4.67585 -2.52068 0
M  V30 2538 C 241.416 4.85639 -3.72587 0
M  V30 2539 N 240.553 6.04915 -3.56402 0
M  V30 2540 H 245.393 1.71293 -2.43849 0
M  V30 2541 H 242.93 0.835889 -1.21043 0
M  V30 2542 H 244.888 3.94496 -1.35753 0
M  V30 2543 H 243.518 3.18859 -0.50288 0
M  V30 2544 H 242.57 2.53783 -2.8337 0
M  V30 2545 H 243.882 3.48795 -3.56572 0
M  V30 2546 H 243.036 5.55586 -2.4374 0
M  V30 2547 H 241.775 4.60681 -1.60075 0
M  V30 2548 H 240.78 3.96073 -3.81321 0
M  V30 2549 H 242.005 4.94372 -4.65589 0
M  V30 2550 H 239.951 5.9914 -2.67146 0
M  V30 2551 H 239.868 6.15106 -4.39524 0
M  V30 2552 H 241.136 6.95533 -3.51929 0
M  V30 2553 N 245.365 1.30045 0.890287 0
M  V30 2554 C 246.612 1.18561 1.64163 0
M  V30 2555 C 246.94 -0.260852 1.92743 0
M  V30 2556 O 246.195 -1.20376 1.54299 0
M  V30 2557 C 246.494 1.95409 2.99249 0
M  V30 2558 C 246.16 3.45066 2.90242 0
M  V30 2559 C 244.822 3.85878 2.87492 0
M  V30 2560 C 247.174 4.4039 2.78758 0
M  V30 2561 C 244.502 5.20314 2.7109 0
M  V30 2562 C 246.854 5.74928 2.63894 0
M  V30 2563 C 245.518 6.14986 2.59516 0
M  V30 2564 H 244.788 0.433846 0.600715 0
M  V30 2565 H 247.435 1.61088 1.03552 0
M  V30 2566 H 245.74 1.45501 3.63781 0
M  V30 2567 H 247.437 1.8392 3.56334 0
M  V30 2568 H 244.027 3.12631 2.93189 0
M  V30 2569 H 248.211 4.09806 2.79952 0
M  V30 2570 H 243.467 5.50449 2.66112 0
M  V30 2571 H 247.641 6.48434 2.53981 0
M  V30 2572 H 245.268 7.19104 2.46565 0
M  V30 2573 N 246.843 -1.10192 1.12674 0
M  V30 2574 C 248.09 -1.82205 0.883606 0
M  V30 2575 C 248.418 -1.8532 -0.590492 0
M  V30 2576 O 247.673 -1.31137 -1.45264 0
M  V30 2577 C 247.972 -3.28552 1.4067 0
M  V30 2578 C 247.638 -3.45582 2.89627 0
M  V30 2579 C 246.3 -3.49937 3.30299 0
M  V30 2580 C 248.652 -3.50768 3.85501 0
M  V30 2581 C 245.98 -3.57049 4.65546 0
M  V30 2582 C 248.332 -3.59414 5.20581 0
M  V30 2583 C 246.996 -3.62034 5.60792 0
M  V30 2584 H 246.266 -0.666735 0.323334 0
M  V30 2585 H 248.913 -1.29868 1.40736 0
M  V30 2586 H 247.218 -3.83473 0.80347 0
M  V30 2587 H 248.915 -3.82788 1.19475 0
M  V30 2588 H 245.505 -3.42871 2.57172 0
M  V30 2589 H 249.689 -3.46651 3.55171 0
M  V30 2590 H 244.945 -3.57361 4.96088 0
M  V30 2591 H 249.119 -3.62371 5.94693 0
M  V30 2592 H 246.746 -3.67298 6.6558 0
M  V30 2593 N 248.321 -0.919034 -1.28029 0
M  V30 2594 C 249.231 -0.416756 -2.30869 0
M  V30 2595 C 250.247 0.498235 -1.66714 0
M  V30 2596 O 251.423 0.383144 -1.97722 0
M  V30 2597 C 248.488 0.330274 -3.45123 0
M  V30 2598 C 247.549 -0.618578 -4.2482 0
M  V30 2599 C 246.782 0.0928959 -5.33619 0
M  V30 2600 O 247.005 1.31375 -5.55065 0
M  V30 2601 O 245.939 -0.574499 -5.99152 0
M  V30 2602 H 249.765 -1.27043 -2.75851 0
M  V30 2603 H 247.35 -0.684052 -1.3282 0
M  V30 2604 H 249.232 0.751972 -4.14636 0
M  V30 2605 H 247.907 1.1597 -3.02213 0
M  V30 2606 H 246.814 -1.08978 -3.57875 0
M  V30 2607 H 248.147 -1.41497 -4.71423 0
M  V30 2608 N 249.799 1.42003 -0.683588 0
M  V30 2609 C 251.027 2.05746 -0.218182 0
M  V30 2610 C 251.442 1.51396 1.12804 0
M  V30 2611 O 250.799 0.657303 1.70252 0
M  V30 2612 C 250.85 3.61171 -0.154131 0
M  V30 2613 O 250.571 4.13508 -1.44716 0
M  V30 2614 C 252.072 4.42042 0.333713 0
M  V30 2615 H 249.292 0.662888 -0.10402 0
M  V30 2616 H 251.836 1.81987 -0.9328 0
M  V30 2617 H 249.991 3.84012 0.511231 0
M  V30 2618 H 250.405 5.07453 -1.32632 0
M  V30 2619 H 251.879 5.51028 0.327423 0
M  V30 2620 H 252.356 4.17269 1.37053 0
M  V30 2621 H 252.962 4.24239 -0.300222 0
M  V30 2622 N 251.277 0.427512 1.51691 0
M  V30 2623 C 252.224 -0.388867 2.275 0
M  V30 2624 C 253.194 -1.02532 1.30677 0
M  V30 2625 O 254.379 -1.0461 1.59566 0
M  V30 2626 C 251.519 -1.48954 3.11298 0
M  V30 2627 C 250.632 -0.872194 4.23104 0
M  V30 2628 C 249.767 -1.94709 4.94228 0
M  V30 2629 C 248.806 -1.30766 5.97969 0
M  V30 2630 N 247.943 -2.32349 6.62539 0
M  V30 2631 H 252.783 0.263997 2.96828 0
M  V30 2632 H 250.32 0.142033 1.46413 0
M  V30 2633 H 252.278 -2.13887 3.58201 0
M  V30 2634 H 250.908 -2.11217 2.44105 0
M  V30 2635 H 249.96 -0.111419 3.80237 0
M  V30 2636 H 251.272 -0.365264 4.97461 0
M  V30 2637 H 250.426 -2.67327 5.44629 0
M  V30 2638 H 249.165 -2.48773 4.1948 0
M  V30 2639 H 248.17 -0.566902 5.4687 0
M  V30 2640 H 249.395 -0.774483 6.74669 0
M  V30 2641 H 247.341 -2.85511 5.90609 0
M  V30 2642 H 247.258 -1.8652 7.3263 0
M  V30 2643 H 248.526 -3.04481 7.17574 0
M  V30 2644 N 252.755 -1.56801 0.158532 0
M  V30 2645 C 253.995 -1.98383 -0.49229 0
M  V30 2646 C 254.359 -1.04184 -1.61275 0
M  V30 2647 O 255.56 -1.34856 -2.32524 0
M  V30 2648 C 253.831 -3.4385 -0.974766 0
M  V30 2649 S 255.39 -4.07459 -1.62857 0
M  V30 2650 H 252.208 -0.693041 -0.158794 0
M  V30 2651 H 254.81 -1.93856 0.252974 0
M  V30 2652 H 253.514 -4.10131 -0.148688 0
M  V30 2653 H 253.045 -3.52115 -1.75438 0
M  V30 2654 H 255.06 -4.01458 -2.91627 0
M  V30 2655 N 254.233 0.115231 -1.57178 0
M  V30 2656 C 255.48 0.822351 -1.8505 0
M  V30 2657 C 255.808 1.79701 -0.744168 0
M  V30 2658 O 255.063 1.93909 0.26414 0
M  V30 2659 C 255.362 1.60324 -3.19423 0
M  V30 2660 C 255.028 0.772536 -4.44233 0
M  V30 2661 C 253.69 0.543468 -4.78121 0
M  V30 2662 C 256.042 0.193746 -5.2084 0
M  V30 2663 C 253.37 -0.274583 -5.86057 0
M  V30 2664 C 255.722 -0.611517 -6.29637 0
M  V30 2665 C 254.386 -0.850867 -6.62055 0
M  V30 2666 H 253.656 0.30092 -0.677147 0
M  V30 2667 H 256.303 0.0845802 -1.91313 0
M  V30 2668 H 254.608 2.41203 -3.08753 0
M  V30 2669 H 256.305 2.1544 -3.38211 0
M  V30 2670 H 252.895 0.96117 -4.17683 0
M  V30 2671 H 257.079 0.357926 -4.95008 0
M  V30 2672 H 252.335 -0.469206 -6.09597 0
M  V30 2673 H 256.509 -1.06697 -6.88178 0
M  V30 2674 H 254.136 -1.48657 -7.45523 0
M  V30 2675 N 255.711 1.52812 0.385517 0
M  V30 2676 C 256.644 1.72592 1.49289 0
M  V30 2677 C 257.622 0.573819 1.52138 0
M  V30 2678 O 258.806 0.80404 1.70492 0
M  V30 2679 C 255.933 1.78669 2.87741 0
M  V30 2680 C 254.979 3.00455 3.02703 0
M  V30 2681 S 255.812 4.60366 2.73538 0
M  V30 2682 C 256.968 4.69263 4.14177 0
M  V30 2683 H 257.201 2.66248 1.32285 0
M  V30 2684 H 254.734 1.43148 0.578611 0
M  V30 2685 H 256.692 1.82855 3.67524 0
M  V30 2686 H 255.353 0.861 3.02069 0
M  V30 2687 H 254.546 3.01258 4.04054 0
M  V30 2688 H 254.148 2.94278 2.30817 0
M  V30 2689 H 256.44 4.48092 5.08153 0
M  V30 2690 H 257.383 5.71276 4.18388 0
M  V30 2691 H 257.791 3.98072 4.00249 0
M  V30 2692 N 257.189 -0.644168 1.43834 0
M  V30 2693 C 258.152 -1.73857 1.49353 0
M  V30 2694 C 259.152 -1.56315 0.377112 0
M  V30 2695 O 260.342 -1.62048 0.639226 0
M  V30 2696 C 257.474 -3.12819 1.35488 0
M  V30 2697 H 258.667 -1.70342 2.46827 0
M  V30 2698 H 256.22 -0.856652 1.30733 0
M  V30 2699 H 256.955 -3.2194 0.390569 0
M  V30 2700 H 256.74 -3.26958 2.16428 0
M  V30 2701 H 258.23 -3.92606 1.42302 0
M  V30 2702 N 258.668 -1.30515 -0.883378 0
M  V30 2703 C 259.893 -1.22487 -1.67367 0
M  V30 2704 C 260.318 0.208767 -1.86938 0
M  V30 2705 O 259.676 1.15015 -1.40148 0
M  V30 2706 C 259.724 -1.96041 -3.02655 0
M  V30 2707 O 258.828 -1.28859 -3.91751 0
M  V30 2708 H 258.169 -0.423573 -0.511353 0
M  V30 2709 H 260.699 -1.72362 -1.10239 0
M  V30 2710 H 260.709 -2.05124 -3.52687 0
M  V30 2711 H 259.384 -3.00307 -2.8773 0
M  V30 2712 H 257.961 -1.28141 -3.50192 0
M  V30 2713 N 260.146 1.09593 -1.13257 0
M  V30 2714 C 261.393 1.81734 -0.893257 0
M  V30 2715 C 261.721 1.8563 0.580656 0
M  V30 2716 O 260.976 1.31906 1.44566 0
M  V30 2717 C 261.275 3.27802 -1.42411 0
M  V30 2718 C 260.941 3.44041 -2.91456 0
M  V30 2719 C 259.603 3.48181 -3.3215 0
M  V30 2720 C 261.955 3.48719 -3.87356 0
M  V30 2721 C 259.283 3.54575 -4.67433 0
M  V30 2722 C 261.635 3.56648 -5.2248 0
M  V30 2723 C 260.299 3.59055 -5.62704 0
M  V30 2724 H 259.569 0.665011 -0.326866 0
M  V30 2725 H 262.216 1.2912 -1.41422 0
M  V30 2726 H 260.521 3.83042 -0.823795 0
M  V30 2727 H 262.218 3.82149 -1.21503 0
M  V30 2728 H 258.808 3.41502 -2.58987 0
M  V30 2729 H 262.992 3.44763 -3.57004 0
M  V30 2730 H 258.248 3.54725 -4.97976 0
M  V30 2731 H 262.422 3.59212 -5.96607 0
M  V30 2732 H 260.049 3.63763 -6.67518 0
M  V30 2733 N 261.624 0.925811 1.2754 0
M  V30 2734 C 262.849 0.580924 1.99098 0
M  V30 2735 C 263.274 -0.833555 1.68622 0
M  V30 2736 O 262.632 -1.55903 0.925422 0
M  V30 2737 C 262.68 0.811186 3.51358 0
M  V30 2738 O 261.784 -0.124129 4.12213 0
M  V30 2739 H 261.125 0.223873 0.625122 0
M  V30 2740 H 263.655 1.24455 1.62395 0
M  V30 2741 H 263.665 0.72601 4.01489 0
M  V30 2742 H 262.34 1.84227 3.72872 0
M  V30 2743 H 260.917 0.0108006 3.72898 0
M  V30 2744 N 263.102 -1.41638 0.69111 0
M  V30 2745 C 264.33 -2.05628 0.22909 0
M  V30 2746 C 264.745 -1.51992 -1.11999 0
M  V30 2747 O 264.102 -0.666322 -1.69901 0
M  V30 2748 C 264.153 -3.61084 0.173283 0
M  V30 2749 O 263.874 -4.12735 1.46907 0
M  V30 2750 C 265.375 -4.42213 -0.310266 0
M  V30 2751 H 262.595 -0.662327 0.107534 0
M  V30 2752 H 265.139 -1.81489 0.942438 0
M  V30 2753 H 263.294 -3.84278 -0.490858 0
M  V30 2754 H 263.708 -5.06743 1.35322 0
M  V30 2755 H 265.182 -5.51194 -0.298196 0
M  V30 2756 H 265.659 -4.1799 -1.34838 0
M  V30 2757 H 266.265 -4.24074 0.322716 0
M  V30 2758 N 264.58 -0.43555 -1.51462 0
M  V30 2759 C 265.49 0.383001 -2.31453 0
M  V30 2760 C 266.506 1.02931 -1.4029 0
M  V30 2761 O 267.682 1.02507 -1.73362 0
M  V30 2762 C 264.747 1.47043 -3.13973 0
M  V30 2763 C 263.808 0.844433 -4.20913 0
M  V30 2764 C 263.041 1.88004 -4.9949 0
M  V30 2765 O 263.264 3.10199 -4.78678 0
M  V30 2766 O 262.198 1.47157 -5.83634 0
M  V30 2767 H 266.024 -0.269964 -3.02498 0
M  V30 2768 H 263.609 -0.19813 -1.4808 0
M  V30 2769 H 265.491 2.10113 -3.65281 0
M  V30 2770 H 264.166 2.10751 -2.45695 0
M  V30 2771 H 263.073 0.175729 -3.73687 0
M  V30 2772 H 264.406 0.250869 -4.9156 0
M  V30 2773 N 266.058 1.56714 -0.166846 0
M  V30 2774 C 267.307 1.95922 0.479318 0
M  V30 2775 C 267.62 1.05529 1.6469 0
M  V30 2776 O 268.826 1.34399 2.35901 0
M  V30 2777 C 267.282 3.48359 0.90412 0
M  V30 2778 C 266.89 4.47369 -0.237621 0
M  V30 2779 C 268.634 3.96394 1.51896 0
M  V30 2780 C 266.541 5.91039 0.206561 0
M  V30 2781 H 265.471 0.731495 0.18284 0
M  V30 2782 H 268.122 1.81728 -0.254363 0
M  V30 2783 H 266.504 3.57955 1.69365 0
M  V30 2784 H 267.678 4.49485 -1.01489 0
M  V30 2785 H 265.993 4.09366 -0.762128 0
M  V30 2786 H 268.59 5.01186 1.86325 0
M  V30 2787 H 268.933 3.39075 2.41524 0
M  V30 2788 H 269.466 3.89796 0.79395 0
M  V30 2789 H 266.205 6.52221 -0.654834 0
M  V30 2790 H 265.725 5.9224 0.949282 0
M  V30 2791 H 267.404 6.43707 0.651939 0
M  V30 2792 N 267.536 -0.106894 1.57237 0
M  V30 2793 C 268.782 -0.81373 1.85759 0
M  V30 2794 C 269.115 -1.78952 0.754315 0
M  V30 2795 O 268.39 -1.93029 -0.23879 0
M  V30 2796 C 268.673 -1.55293 3.24894 0
M  V30 2797 C 268.526 -0.595929 4.45835 0
M  V30 2798 C 269.845 -2.5063 3.61763 0
M  V30 2799 H 266.964 -0.294369 0.67566 0
M  V30 2800 H 269.606 -0.0776472 1.89841 0
M  V30 2801 H 267.756 -2.1804 3.21544 0
M  V30 2802 H 269.428 0.0236262 4.61294 0
M  V30 2803 H 267.671 0.0916191 4.33703 0
M  V30 2804 H 268.342 -1.15004 5.39887 0
M  V30 2805 H 270.818 -1.97982 3.65981 0
M  V30 2806 H 269.694 -2.99376 4.60071 0
M  V30 2807 H 269.955 -3.3385 2.89821 0
M  V30 2808 N 269.014 -1.53014 -0.377408 0
M  V30 2809 C 270.26 -1.68872 -1.12294 0
M  V30 2810 C 270.593 -0.433224 -1.89306 0
M  V30 2811 O 269.868 0.569258 -1.85983 0
M  V30 2812 C 270.151 -2.93115 -2.09179 0
M  V30 2813 C 270.004 -4.28794 -1.35853 0
M  V30 2814 C 271.323 -3.12928 -3.09458 0
M  V30 2815 H 268.442 -0.614518 -0.406862 0
M  V30 2816 H 271.084 -1.85633 -0.40503 0
M  V30 2817 H 269.234 -2.78956 -2.70399 0
M  V30 2818 H 270.906 -4.54742 -0.775082 0
M  V30 2819 H 269.149 -4.28744 -0.660364 0
M  V30 2820 H 269.82 -5.11837 -2.06706 0
M  V30 2821 H 272.296 -3.26194 -2.58334 0
M  V30 2822 H 271.172 -4.01316 -3.74482 0
M  V30 2823 H 271.433 -2.27669 -3.78971 0
M  V30 2824 N 270.492 0.636531 -1.44174 0
M  V30 2825 C 271.425 1.76139 -1.45087 0
M  V30 2826 C 272.403 1.59611 -0.310326 0
M  V30 2827 O 273.587 1.81568 -0.506477 0
M  V30 2828 C 270.714 3.13648 -1.27839 0
M  V30 2829 C 269.76 3.48838 -2.45386 0
M  V30 2830 S 270.593 3.46927 -4.07924 0
M  V30 2831 C 271.749 4.87064 -3.9309 0
M  V30 2832 H 271.982 1.75096 -2.40268 0
M  V30 2833 H 269.515 0.810666 -1.31406 0
M  V30 2834 H 271.473 3.93002 -1.18575 0
M  V30 2835 H 270.134 3.12235 -0.341787 0
M  V30 2836 H 269.327 4.48886 -2.29167 0
M  V30 2837 H 268.929 2.76935 -2.51362 0
M  V30 2838 H 271.221 5.76153 -3.56446 0
M  V30 2839 H 272.164 5.08337 -4.92949 0
M  V30 2840 H 272.572 4.61384 -3.25246 0
M  V30 2841 N 271.97 1.30982 0.876444 0
M  V30 2842 C 272.903 1.12414 1.98591 0
M  V30 2843 C 273.881 0.0294078 1.62573 0
M  V30 2844 O 275.065 0.184598 1.87594 0
M  V30 2845 C 272.192 0.716276 3.3104 0
M  V30 2846 C 271.238 1.81311 3.86042 0
M  V30 2847 S 272.071 3.41727 4.1229 0
M  V30 2848 C 273.227 3.02863 5.47745 0
M  V30 2849 H 273.46 2.06338 2.14037 0
M  V30 2850 H 270.993 1.15393 1.02586 0
M  V30 2851 H 272.951 0.487697 4.07593 0
M  V30 2852 H 271.612 -0.203749 3.13438 0
M  V30 2853 H 270.805 1.48021 4.81774 0
M  V30 2854 H 270.407 1.99641 3.16259 0
M  V30 2855 H 272.699 2.51353 6.29148 0
M  V30 2856 H 273.642 3.97533 5.8598 0
M  V30 2857 H 274.05 2.40487 5.10711 0
M  V30 2858 N 273.449 -1.08991 1.13837 0
M  V30 2859 C 274.379 -2.17771 0.842507 0
M  V30 2860 C 275.36 -1.6892 -0.20001 0
M  V30 2861 O 276.545 -1.94113 -0.0579731 0
M  V30 2862 C 273.675 -3.4589 0.312644 0
M  V30 2863 C 272.629 -4.08099 1.28992 0
M  V30 2864 C 271.955 -5.31098 0.619623 0
M  V30 2865 C 273.255 -4.50077 2.65005 0
M  V30 2866 H 274.949 -2.42777 1.75213 0
M  V30 2867 H 272.495 -1.16682 0.843875 0
M  V30 2868 H 274.448 -4.21297 0.0933043 0
M  V30 2869 H 273.172 -3.20419 -0.632382 0
M  V30 2870 H 271.831 -3.34717 1.49533 0
M  V30 2871 H 271.479 -5.0191 -0.33102 0
M  V30 2872 H 271.179 -5.73674 1.27167 0
M  V30 2873 H 272.703 -6.09224 0.409669 0
M  V30 2874 H 274.117 -5.16688 2.48407 0
M  V30 2875 H 272.514 -5.03553 3.26427 0
M  V30 2876 H 273.584 -3.62257 3.22332 0
M  V30 2877 N 274.927 -0.932562 -1.27047 0
M  V30 2878 C 276.174 -0.575559 -1.94148 0
M  V30 2879 C 276.502 0.883984 -1.73251 0
M  V30 2880 O 275.757 1.64655 -1.0577 0
M  V30 2881 C 276.056 -0.853713 -3.47054 0
M  V30 2882 C 275.722 -2.29577 -3.88079 0
M  V30 2883 C 274.384 -2.68999 -3.9899 0
M  V30 2884 C 276.736 -3.23331 -4.08787 0
M  V30 2885 C 274.064 -4.01289 -4.28 0
M  V30 2886 C 276.416 -4.55207 -4.39282 0
M  V30 2887 C 275.08 -4.94457 -4.48407 0
M  V30 2888 H 274.35 -0.210612 -0.710439 0
M  V30 2889 H 276.997 -1.17744 -1.51025 0
M  V30 2890 H 275.302 -0.169204 -3.91434 0
M  V30 2891 H 276.999 -0.55639 -3.97121 0
M  V30 2892 H 273.589 -1.97994 -3.80127 0
M  V30 2893 H 277.773 -2.94074 -3.99793 0
M  V30 2894 H 273.029 -4.31374 -4.33275 0
M  V30 2895 H 277.203 -5.27852 -4.54252 0
M  V30 2896 H 274.83 -5.96994 -4.7064 0
M  V30 2897 N 276.405 1.4127 -0.698611 0
M  V30 2898 C 277.335 2.33447 -0.049629 0
M  V30 2899 C 278.316 1.51982 0.763898 0
M  V30 2900 O 279.501 1.80509 0.716257 0
M  V30 2901 C 276.631 3.35828 0.885267 0
M  V30 2902 C 275.585 4.27627 0.178613 0
M  V30 2903 C 274.911 5.20406 1.22807 0
M  V30 2904 C 276.211 5.13459 -0.956933 0
M  V30 2905 H 277.905 2.87966 -0.81951 0
M  V30 2906 H 275.451 1.38461 -0.395538 0
M  V30 2907 H 277.404 3.9924 1.34854 0
M  V30 2908 H 276.128 2.79666 1.68685 0
M  V30 2909 H 274.787 3.65643 -0.26466 0
M  V30 2910 H 274.435 4.60558 2.02226 0
M  V30 2911 H 274.135 5.82661 0.760239 0
M  V30 2912 H 275.659 5.86695 1.69179 0
M  V30 2913 H 277.073 5.70421 -0.573805 0
M  V30 2914 H 275.47 5.8467 -1.35205 0
M  V30 2915 H 276.54 4.50443 -1.79524 0
M  V30 2916 N 277.883 0.443576 1.51229 0
M  V30 2917 C 279.111 -0.11929 2.06556 0
M  V30 2918 C 279.526 -1.35921 1.31038 0
M  V30 2919 O 278.883 -1.78675 0.371704 0
M  V30 2920 C 278.934 -0.435228 3.5887 0
M  V30 2921 O 278.655 0.755486 4.31537 0
M  V30 2922 C 280.156 -1.04808 4.30732 0
M  V30 2923 H 277.376 -0.0051584 0.67098 0
M  V30 2924 H 279.92 0.624453 1.94733 0
M  V30 2925 H 278.075 -1.12887 3.70588 0
M  V30 2926 H 278.489 0.483491 5.22267 0
M  V30 2927 H 279.963 -1.2191 5.3837 0
M  V30 2928 H 280.44 -2.03081 3.89429 0
M  V30 2929 H 281.046 -0.393637 4.23474 0
M  V30 2930 N 279.361 -1.56624 0.175154 0
M  V30 2931 C 280.61 -1.96173 -0.468921 0
M  V30 2932 C 280.923 -1.06401 -1.64128 0
M  V30 2933 O 282.129 -1.35648 -2.35185 0
M  V30 2934 C 280.585 -3.48833 -0.885633 0
M  V30 2935 C 280.193 -4.47237 0.261343 0
M  V30 2936 C 281.937 -3.97194 -1.49791 0
M  V30 2937 C 279.844 -5.9114 -0.175214 0
M  V30 2938 H 278.774 -0.732455 -0.178958 0
M  V30 2939 H 281.425 -1.81591 0.263997 0
M  V30 2940 H 279.807 -3.58848 -1.67464 0
M  V30 2941 H 280.981 -4.4894 1.03871 0
M  V30 2942 H 279.296 -4.08956 0.783827 0
M  V30 2943 H 281.893 -5.02167 -1.83665 0
M  V30 2944 H 282.236 -3.40351 -2.39722 0
M  V30 2945 H 282.769 -3.90212 -0.773267 0
M  V30 2946 H 279.508 -6.51865 0.689414 0
M  V30 2947 H 279.028 -5.92735 -0.91786 0
M  V30 2948 H 280.707 -6.44044 -0.617792 0
M  V30 2949 N 280.839 0.0985539 -1.57292 0
M  V30 2950 C 281.769 1.12064 -2.04851 0
M  V30 2951 C 282.75 1.41981 -0.936767 0
M  V30 2952 O 283.935 1.52071 -1.20781 0
M  V30 2953 C 281.065 2.44144 -2.47004 0
M  V30 2954 C 280.019 2.28643 -3.6181 0
M  V30 2955 C 279.345 3.65869 -3.89929 0
M  V30 2956 C 280.645 1.72986 -4.92822 0
M  V30 2957 H 282.339 0.724979 -2.9049 0
M  V30 2958 H 279.885 0.34729 -1.39749 0
M  V30 2959 H 281.838 3.15914 -2.78884 0
M  V30 2960 H 280.562 2.85639 -1.5836 0
M  V30 2961 H 279.221 1.59318 -3.30172 0
M  V30 2962 H 278.869 4.04885 -2.98458 0
M  V30 2963 H 278.569 3.56344 -4.67218 0
M  V30 2964 H 280.093 4.39112 -4.2428 0
M  V30 2965 H 281.507 2.34593 -5.23105 0
M  V30 2966 H 279.904 1.74229 -5.74251 0
M  V30 2967 H 280.974 0.689007 -4.7998 0
M  V30 2968 N 282.317 1.53212 0.369288 0
M  V30 2969 C 283.565 1.68881 1.11012 0
M  V30 2970 C 283.886 0.441285 1.89941 0
M  V30 2971 O 283.156 -0.544623 1.88177 0
M  V30 2972 H 281.736 0.622569 0.412816 0
M  V30 2973 H 284.398 1.90391 0.416802 0
M  V30 2974 H 283.494 2.54822 1.80201 0
M  V30 2975 N 283.795 -0.628877 1.44509 0
M  V30 2976 C 284.725 -1.75187 1.54376 0
M  V30 2977 C 285.706 -1.65411 0.396618 0
M  V30 2978 O 286.891 -1.84137 0.617031 0
M  V30 2979 C 284.021 -3.13725 1.48976 0
M  V30 2980 C 282.975 -3.38291 2.62189 0
M  V30 2981 C 282.301 -4.76883 2.41841 0
M  V30 2982 C 283.601 -3.30632 4.04326 0
M  V30 2983 H 285.295 -1.67187 2.48373 0
M  V30 2984 H 282.841 -0.802909 1.19538 0
M  V30 2985 H 284.794 -3.92064 1.54478 0
M  V30 2986 H 283.518 -3.22515 0.514961 0
M  V30 2987 H 282.177 -2.62334 2.56079 0
M  V30 2988 H 281.825 -4.82378 1.42548 0
M  V30 2989 H 281.525 -4.94278 3.17747 0
M  V30 2990 H 283.049 -5.57449 2.49165 0
M  V30 2991 H 284.463 -3.98873 4.11793 0
M  V30 2992 H 282.86 -3.59561 4.80454 0
M  V30 2993 H 283.93 -2.28404 4.27738 0
M  V30 2994 N 285.273 -1.31445 -0.869486 0
M  V30 2995 C 286.521 -1.20918 -1.61936 0
M  V30 2996 C 286.842 0.232683 -1.93607 0
M  V30 2997 O 286.112 1.15352 -1.58338 0
M  V30 2998 H 284.692 -0.44454 -0.600328 0
M  V30 2999 H 287.354 -1.64776 -1.0409 0
M  V30 3000 H 286.45 -1.78124 -2.56278 0
M  V30 3001 N 286.751 1.08385 -1.14413 0
M  V30 3002 C 287.976 1.85057 -0.936413 0
M  V30 3003 C 288.401 1.81055 0.509971 0
M  V30 3004 O 287.759 1.1958 1.36273 0
M  V30 3005 C 287.807 3.30505 -1.44217 0
M  V30 3006 O 286.911 4.07491 -0.634409 0
M  V30 3007 H 286.252 0.573425 -0.334784 0
M  V30 3008 H 288.782 1.36799 -1.52142 0
M  V30 3009 H 288.792 3.81348 -1.45043 0
M  V30 3010 H 287.467 3.32734 -2.49522 0
M  V30 3011 H 286.044 3.66368 -0.694902 0
M  V30 3012 N 288.23 0.939286 1.26551 0
M  V30 3013 C 289.193 0.451987 2.24699 0
M  V30 3014 C 290.193 -0.435869 1.5478 0
M  V30 3015 O 291.383 -0.235314 1.72603 0
M  V30 3016 C 288.515 -0.348801 3.39111 0
M  V30 3017 H 289.708 1.3193 2.69322 0
M  V30 3018 H 287.261 0.721072 1.38673 0
M  V30 3019 H 287.996 -1.23444 2.99887 0
M  V30 3020 H 287.781 0.287945 3.91041 0
M  V30 3021 H 289.271 -0.679726 4.12031 0
M  V30 3022 N 289.708 -1.40897 0.706093 0
M  V30 3023 C 290.954 -2.01352 0.241889 0
M  V30 3024 C 291.287 -1.55832 -1.15888 0
M  V30 3025 O 290.562 -0.774145 -1.7843 0
M  V30 3026 C 290.845 -3.58752 0.311311 0
M  V30 3027 C 290.698 -4.1437 1.74978 0
M  V30 3028 C 292.017 -4.38914 -0.322922 0
M  V30 3029 H 289.136 -0.731562 0.0893687 0
M  V30 3030 H 291.778 -1.67504 0.896802 0
M  V30 3031 H 289.928 -3.87718 -0.246302 0
M  V30 3032 H 291.6 -3.96239 2.36205 0
M  V30 3033 H 289.843 -3.69016 2.28057 0
M  V30 3034 H 290.514 -5.23532 1.74981 0
M  V30 3035 H 292.99 -4.15822 0.152089 0
M  V30 3036 H 291.866 -5.48358 -0.243855 0
M  V30 3037 H 292.127 -4.19176 -1.40513 0
M  V30 3038 N 291.186 -0.45159 -1.50991 0
M  V30 3039 C 292.411 0.110667 -2.07105 0
M  V30 3040 C 292.836 1.3446 -1.31538 0
M  V30 3041 O 292.194 1.77743 -0.357365 0
M  V30 3042 C 292.242 0.397238 -3.58405 0
M  V30 3043 O 291.346 1.48124 -3.84881 0
M  V30 3044 H 290.687 -0.00439271 -0.663985 0
M  V30 3045 H 293.217 -0.637026 -1.9443 0
M  V30 3046 H 293.227 0.64351 -4.02893 0
M  V30 3047 H 291.902 -0.504553 -4.12828 0
M  V30 3048 H 290.479 1.22381 -3.52246 0
M  V30 3049 N 292.664 1.56529 -0.183458 0
M  V30 3050 C 293.594 2.21549 0.737456 0
M  V30 3051 C 294.575 1.17489 1.23005 0
M  V30 3052 O 295.76 1.45959 1.281 0
M  V30 3053 C 292.89 2.86575 1.96194 0
M  V30 3054 C 291.844 3.96778 1.60473 0
M  V30 3055 C 291.17 4.48911 2.90487 0
M  V30 3056 C 292.47 5.15767 0.823497 0
M  V30 3057 H 294.164 2.98761 0.195453 0
M  V30 3058 H 291.71 1.43702 0.0925686 0
M  V30 3059 H 293.663 3.30739 2.61131 0
M  V30 3060 H 292.387 2.06749 2.52828 0
M  V30 3061 H 291.046 3.53286 0.978997 0
M  V30 3062 H 290.694 3.65862 3.45186 0
M  V30 3063 H 290.394 5.23265 2.67335 0
M  V30 3064 H 291.918 4.95771 3.56432 0
M  V30 3065 H 293.332 5.56549 1.37571 0
M  V30 3066 H 291.729 5.96114 0.690551 0
M  V30 3067 H 292.799 4.84574 -0.177782 0
M  V30 3068 N 294.142 -0.090211 1.57342 0
M  V30 3069 C 295.37 -0.806224 1.90546 0
M  V30 3070 C 295.785 -1.72041 0.777644 0
M  V30 3071 O 295.142 -1.80778 -0.250103 0
M  V30 3072 C 295.193 -1.61546 3.23396 0
M  V30 3073 O 294.914 -0.738043 4.31839 0
M  V30 3074 C 296.415 -2.4341 3.70495 0
M  V30 3075 H 293.635 -0.230256 0.630257 0
M  V30 3076 H 296.179 -0.0659843 2.04394 0
M  V30 3077 H 294.334 -2.30816 3.11131 0
M  V30 3078 H 294.748 -1.29901 5.08159 0
M  V30 3079 H 296.222 -2.95676 4.66133 0
M  V30 3080 H 296.699 -3.22098 2.98579 0
M  V30 3081 H 297.305 -1.79331 3.85643 0
M  V30 3082 N 295.62 -1.53406 -0.361157 0
M  V30 3083 C 296.869 -1.69022 -1.10066 0
M  V30 3084 C 297.182 -0.450838 -1.90333 0
M  V30 3085 O 298.388 -0.487617 -2.67085 0
M  V30 3086 C 296.844 -2.98812 -2.00598 0
M  V30 3087 C 296.452 -4.30027 -1.25621 0
M  V30 3088 C 298.196 -3.23795 -2.74513 0
M  V30 3089 C 296.103 -5.50903 -2.1508 0
M  V30 3090 H 295.033 -0.629776 -0.414606 0
M  V30 3091 H 297.684 -1.79907 -0.361348 0
M  V30 3092 H 296.066 -2.8174 -2.78278 0
M  V30 3093 H 297.24 -4.57745 -0.529739 0
M  V30 3094 H 295.555 -4.11522 -0.635496 0
M  V30 3095 H 298.152 -4.11289 -3.41681 0
M  V30 3096 H 298.495 -2.40045 -3.40123 0
M  V30 3097 H 299.028 -3.41561 -2.03914 0
M  V30 3098 H 295.767 -6.37143 -1.54041 0
M  V30 3099 H 295.287 -5.27459 -2.85565 0
M  V30 3100 H 296.966 -5.85865 -2.74538 0
M  V30 3101 N 297.098 0.621204 -1.44841 0
M  V30 3102 C 298.338 1.39201 -1.49674 0
M  V30 3103 C 298.702 1.91561 -0.129764 0
M  V30 3104 O 299.903 2.68748 -0.0527814 0
M  V30 3105 C 298.174 2.519 -2.53537 0
M  V30 3106 S 299.733 3.39916 -2.77494 0
M  V30 3107 H 296.551 0.474758 -0.529269 0
M  V30 3108 H 299.153 0.718171 -1.81831 0
M  V30 3109 H 297.857 2.11761 -3.51547 0
M  V30 3110 H 297.388 3.241 -2.22986 0
M  V30 3111 H 299.403 4.49646 -2.0984 0
M  V30 3112 N 298.576 1.31904 0.862503 0
M  V30 3113 C 299.824 1.21776 1.61292 0
M  V30 3114 C 300.145 -0.222413 1.93727 0
M  V30 3115 O 299.415 -1.1451 1.58947 0
M  V30 3116 H 297.995 0.447717 0.597962 0
M  V30 3117 H 300.657 1.65326 1.03215 0
M  V30 3118 H 299.753 1.7948 2.5533 0
M  V30 3119 N 300.054 -1.07777 1.14986 0
M  V30 3120 C 301.017 -2.13041 0.845358 0
M  V30 3121 C 302.017 -1.60071 -0.152931 0
M  V30 3122 O 303.207 -1.74033 0.0761879 0
M  V30 3123 C 300.339 -3.39896 0.261383 0
M  V30 3124 H 301.532 -2.41485 1.77834 0
M  V30 3125 H 299.085 -1.23595 0.956757 0
M  V30 3126 H 299.82 -3.17091 -0.68 0
M  V30 3127 H 299.605 -3.79642 0.980514 0
M  V30 3128 H 301.095 -4.17548 0.0657687 0
M  V30 3129 N 301.532 -0.945985 -1.26051 0
M  V30 3130 C 302.78 -0.594941 -1.93145 0
M  V30 3131 C 303.101 0.86953 -1.7454 0
M  V30 3132 O 302.371 1.61838 -1.10387 0
M  V30 3133 H 300.951 -0.217044 -0.714773 0
M  V30 3134 H 303.613 -1.20235 -1.53393 0
M  V30 3135 H 302.709 -0.816835 -3.01221 0
M  V30 3136 N 303.011 1.40521 -0.713556 0
M  V30 3137 C 303.921 2.34522 -0.0606667 0
M  V30 3138 C 304.937 1.57193 0.74607 0
M  V30 3139 O 306.113 1.89591 0.679493 0
M  V30 3140 C 303.178 3.36081 0.851491 0
M  V30 3141 C 302.239 4.29286 0.0349339 0
M  V30 3142 C 301.472 5.25994 0.903649 0
M  V30 3143 O 301.695 5.28616 2.14292 0
M  V30 3144 O 300.629 6.00918 0.343723 0
M  V30 3145 H 304.455 2.91968 -0.835972 0
M  V30 3146 H 302.04 1.41681 -0.47402 0
M  V30 3147 H 303.922 3.98369 1.37404 0
M  V30 3148 H 302.597 2.81052 1.60598 0
M  V30 3149 H 301.504 3.70289 -0.532633 0
M  V30 3150 H 302.837 4.87462 -0.681287 0
M  V30 3151 N 304.489 0.459591 1.5075 0
M  V30 3152 C 305.399 -0.34613 2.32033 0
M  V30 3153 C 306.415 -1.00686 1.41909 0
M  V30 3154 O 307.591 -0.997361 1.7497 0
M  V30 3155 C 304.656 -1.42029 3.16273 0
M  V30 3156 C 303.717 -0.777362 4.22203 0
M  V30 3157 C 302.95 -1.80034 5.02418 0
M  V30 3158 O 303.173 -3.02544 4.83553 0
M  V30 3159 O 302.107 -1.37853 5.85901 0
M  V30 3160 H 305.933 0.318054 3.0203 0
M  V30 3161 H 303.518 0.221663 1.47746 0
M  V30 3162 H 305.4 -2.04275 3.68578 0
M  V30 3163 H 304.075 -2.06815 2.49016 0
M  V30 3164 H 302.982 -0.116256 3.73919 0
M  V30 3165 H 304.315 -0.172634 4.91897 0
M  V30 3166 N 305.967 -1.56429 0.191757 0
M  V30 3167 C 306.897 -2.21937 -0.725696 0
M  V30 3168 C 307.878 -1.1814 -1.2238 0
M  V30 3169 O 309.063 -1.46636 -1.27325 0
M  V30 3170 C 306.193 -2.87611 -1.94672 0
M  V30 3171 C 305.147 -3.97623 -1.58366 0
M  V30 3172 C 304.473 -4.50446 -2.88102 0
M  V30 3173 C 305.773 -5.16197 -0.796133 0
M  V30 3174 H 307.467 -2.98861 -0.179606 0
M  V30 3175 H 305.013 -1.43749 -0.0849464 0
M  V30 3176 H 306.966 -3.3212 -2.59373 0
M  V30 3177 H 305.69 -2.08087 -2.51728 0
M  V30 3178 H 304.349 -3.53801 -0.960247 0
M  V30 3179 H 303.997 -3.67688 -3.43241 0
M  V30 3180 H 303.697 -5.24675 -2.64556 0
M  V30 3181 H 305.221 -4.97654 -3.53798 0
M  V30 3182 H 306.635 -5.57271 -1.34618 0
M  V30 3183 H 305.032 -5.96471 -0.658928 0
M  V30 3184 H 306.102 -4.84473 0.203478 0
M  V30 3185 N 307.445 0.0818655 -1.57387 0
M  V30 3186 C 308.392 1.09834 -2.0299 0
M  V30 3187 C 309.362 1.39043 -0.908639 0
M  V30 3188 O 310.547 1.50282 -1.17559 0
M  V30 3189 C 307.687 2.40971 -2.47037 0
M  V30 3190 C 306.8 2.18379 -3.7274 0
M  V30 3191 C 305.935 3.43008 -4.0561 0
M  V30 3192 C 304.974 3.15736 -5.24383 0
M  V30 3193 N 304.111 4.32667 -5.52941 0
M  V30 3194 H 308.951 0.702472 -2.89602 0
M  V30 3195 H 306.488 0.33531 -1.43227 0
M  V30 3196 H 308.446 3.1752 -2.70623 0
M  V30 3197 H 307.076 2.78379 -1.63417 0
M  V30 3198 H 306.128 1.32569 -3.56552 0
M  V30 3199 H 307.44 1.94227 -4.59431 0
M  V30 3200 H 306.594 4.27958 -4.30043 0
M  V30 3201 H 305.333 3.70225 -3.17466 0
M  V30 3202 H 304.338 2.2918 -4.99757 0
M  V30 3203 H 305.563 2.8985 -6.14136 0
M  V30 3204 H 303.509 4.59935 -4.67756 0
M  V30 3205 H 303.426 4.11753 -6.34031 0
M  V30 3206 H 304.694 5.18644 -5.81918 0
M  V30 3207 N 308.923 1.53595 0.353017 0
M  V30 3208 C 310.171 1.70049 1.09215 0
M  V30 3209 C 310.492 0.461406 1.89463 0
M  V30 3210 O 309.762 -0.524633 1.88744 0
M  V30 3211 H 308.342 0.626912 0.40619 0
M  V30 3212 H 311.004 1.90822 0.396585 0
M  V30 3213 H 310.1 2.56718 1.77488 0
M  V30 3214 N 310.401 -0.613514 1.45168 0
M  V30 3215 C 311.349 -1.74572 1.53712 0
M  V30 3216 C 312.343 -1.64426 0.407505 0
M  V30 3217 O 313.549 -1.70291 0.583176 0
M  V30 3218 H 309.924 -0.576641 0.48269 0
M  V30 3219 H 311.895 -1.64492 2.48968 0
M  V30 3220 C 310.644 -3.12943 1.51532 0
M  V30 3221 H 309.967 -3.21407 2.37776 0
M  V30 3222 H 311.407 -3.9201 1.61569 0
M  V30 3223 C 309.866 -3.36053 0.238798 0
M  V30 3224 O 310.396 -3.95837 -0.6838 0
M  V30 3225 N 308.602 -2.9028 0.136359 0
M  V30 3226 H 308.149 -2.41811 0.887999 0
M  V30 3227 H 308.107 -3.06116 -0.716944 0
M  V30 3228 N 311.879 -1.3236 -0.855495 0
M  V30 3229 C 312.826 -1.21225 -1.964 0
M  V30 3230 C 313.796 -0.0946204 -1.6583 0
M  V30 3231 O 314.981 -0.27002 -1.8888 0
M  V30 3232 C 312.121 -0.940419 -3.32039 0
M  V30 3233 C 311.234 -2.14276 -3.75113 0
M  V30 3234 C 310.369 -1.80648 -4.9954 0
M  V30 3235 C 309.408 -2.97208 -5.35102 0
M  V30 3236 N 308.545 -2.63678 -6.50706 0
M  V30 3237 H 313.385 -2.16042 -2.05255 0
M  V30 3238 H 310.922 -1.07451 -1.00463 0
M  V30 3239 H 312.88 -0.763311 -4.10158 0
M  V30 3240 H 311.51 -0.0290413 -3.22787 0
M  V30 3241 H 310.562 -2.43017 -2.92655 0
M  V30 3242 H 311.874 -3.01468 -3.97389 0
M  V30 3243 H 311.028 -1.59484 -5.85363 0
M  V30 3244 H 309.767 -0.906678 -4.79198 0
M  V30 3245 H 308.772 -3.19004 -4.47791 0
M  V30 3246 H 309.997 -3.87918 -5.57401 0
M  V30 3247 H 307.943 -1.76238 -6.31883 0
M  V30 3248 H 307.86 -3.444 -6.72997 0
M  V30 3249 H 309.128 -2.45942 -7.39684 0
M  V30 3250 N 313.357 1.07166 -1.15556 0
M  V30 3251 C 314.603 1.80065 -0.932984 0
M  V30 3252 C 314.936 1.86586 0.53845 0
M  V30 3253 O 314.211 1.35098 1.39924 0
M  V30 3254 C 314.494 3.25022 -1.55025 0
M  V30 3255 C 314.347 3.26634 -3.09242 0
M  V30 3256 C 315.666 4.22341 -1.2376 0
M  V30 3257 H 312.785 0.653697 -0.340366 0
M  V30 3258 H 315.427 1.25389 -1.4275 0
M  V30 3259 H 313.577 3.71712 -1.12972 0
M  V30 3260 H 315.249 2.88173 -3.60214 0
M  V30 3261 H 313.492 2.65539 -3.43033 0
M  V30 3262 H 314.163 4.28854 -3.47546 0
M  V30 3263 H 316.639 3.8405 -1.60139 0
M  V30 3264 H 315.515 5.22053 -1.69564 0
M  V30 3265 H 315.776 4.41828 -0.154938 0
M  V30 3266 N 314.835 0.952656 1.25548 0
M  V30 3267 C 316.246 0.647392 1.75116 0
M  V30 3268 C 316.597 -0.837274 1.77438 0
M  V30 3269 O 315.722 -1.65525 1.39393 0
M  V30 3270 C 316.317 1.16845 3.18014 0
M  V30 3271 C 314.876 0.913382 3.6515 0
M  V30 3272 C 314.023 1.31265 2.44264 0
M  V30 3273 H 316.974 1.12968 1.11462 0
M  V30 3274 H 316.995 0.527606 3.76824 0
M  V30 3275 H 316.507 2.24902 3.16292 0
M  V30 3276 H 314.608 -0.152316 3.72289 0
M  V30 3277 H 314.721 1.54845 4.53387 0
M  V30 3278 H 313.085 0.731028 2.43984 0
M  V30 3279 H 313.868 2.40239 2.45234 0
M  V30 3280 N 316.313 -1.40141 0.720998 0
M  V30 3281 C 317.223 -2.34486 0.0731031 0
M  V30 3282 C 318.239 -1.57587 -0.737723 0
M  V30 3283 O 319.415 -1.89949 -0.669429 0
M  V30 3284 C 316.48 -3.36528 -0.833656 0
M  V30 3285 C 315.541 -4.29298 -0.0121673 0
M  V30 3286 C 314.774 -5.26466 -0.875742 0
M  V30 3287 O 314.997 -5.29745 -2.11485 0
M  V30 3288 O 313.931 -6.01092 -0.31185 0
M  V30 3289 H 317.757 -2.9152 0.851444 0
M  V30 3290 H 315.342 -1.41427 0.481527 0
M  V30 3291 H 317.224 -3.99093 -1.35289 0
M  V30 3292 H 315.899 -2.81899 -1.59105 0
M  V30 3293 H 314.806 -3.70001 0.552262 0
M  V30 3294 H 316.139 -4.87094 0.707129 0
M  V30 3295 N 317.792 -0.46758 -1.50504 0
M  V30 3296 C 319.069 0.15003 -1.95024 0
M  V30 3297 C 319.449 1.57304 -1.40779 0
M  V30 3298 O 318.797 2.20281 -0.607319 0
M  V30 3299 C 319.007 0.0969324 -3.48865 0
M  V30 3300 C 320.355 0.287565 -4.23625 0
M  V30 3301 O 321.379 0.173678 -3.55776 0
M  V30 3302 O 320.238 0.517186 -5.44047 0
M  V30 3303 H 317.332 0.113582 -0.819163 0
M  V30 3304 H 319.878 -0.52773 -1.61286 0
M  V30 3305 H 318.65 -0.896732 -3.80886 0
M  V30 3306 H 318.273 0.816303 -3.8913 0
M  V30 3307 N 319.27 1.56325 -0.20005 0
M  V30 3308 C 320.686 1.58839 0.155716 0
M  V30 3309 C 320.886 1.21636 1.60645 0
M  V30 3310 O 319.942 0.941437 2.34293 0
M  V30 3311 C 321.255 3.0032 -0.151124 0
M  V30 3312 C 322.803 3.12866 -0.0916284 0
M  V30 3313 C 323.278 4.56488 -0.371845 0
M  V30 3314 N 324.769 4.62089 -0.320641 0
M  V30 3315 C 325.504 5.71116 -0.511243 0
M  V30 3316 N 325 6.88592 -0.762461 0
M  V30 3317 N 326.793 5.60335 -0.445157 0
M  V30 3318 H 318.944 1.78788 -1.14668 0
M  V30 3319 H 321.207 0.829996 -0.458051 0
M  V30 3320 H 320.913 3.32117 -1.15721 0
M  V30 3321 H 320.787 3.73257 0.543986 0
M  V30 3322 H 323.174 2.80878 0.905065 0
M  V30 3323 H 323.255 2.42304 -0.81989 0
M  V30 3324 H 322.899 4.89189 -1.36588 0
M  V30 3325 H 322.829 5.25246 0.377362 0
M  V30 3326 H 325.32 3.77665 -0.13329 0
M  V30 3327 H 325.633 7.67581 -0.896576 0
M  V30 3328 H 323.978 6.90387 -0.799412 0
M  V30 3329 H 327.169 4.67436 -0.249278 0
M  V30 3330 H 327.342 6.45243 -0.597116 0
M  V30 3331 N 320.748 -0.0735177 1.57428 0
M  V30 3332 C 321.994 -0.774145 1.87443 0
M  V30 3333 C 322.327 -1.77311 0.792103 0
M  V30 3334 O 321.602 -1.93492 -0.197793 0
M  V30 3335 C 321.885 -1.48367 3.28115 0
M  V30 3336 C 321.738 -0.501227 4.46999 0
M  V30 3337 C 323.057 -2.429 3.66998 0
M  V30 3338 H 320.176 -0.279971 0.681752 0
M  V30 3339 H 322.818 -0.0373616 1.89963 0
M  V30 3340 H 320.968 -2.11171 3.26097 0
M  V30 3341 H 322.64 0.121468 4.6114 0
M  V30 3342 H 320.883 0.183593 4.33411 0
M  V30 3343 H 321.554 -1.03526 5.42205 0
M  V30 3344 H 324.03 -1.90175 3.70098 0
M  V30 3345 H 322.906 -2.89549 4.66318 0
M  V30 3346 H 323.167 -3.27628 2.96837 0
M  V30 3347 N 322.226 -1.5378 -0.344866 0
M  V30 3348 C 323.456 -1.74646 -1.10374 0
M  V30 3349 C 323.864 -0.48491 -1.8288 0
M  V30 3350 O 323.207 0.553062 -1.75177 0
M  V30 3351 C 323.269 -2.87145 -2.16306 0
M  V30 3352 C 322.933 -4.26795 -1.63386 0
M  V30 3353 C 323.93 -5.08412 -1.08688 0
M  V30 3354 C 321.615 -4.73276 -1.68272 0
M  V30 3355 C 323.609 -6.34609 -0.595792 0
M  V30 3356 C 321.296 -5.99446 -1.18776 0
M  V30 3357 C 322.294 -6.79946 -0.645215 0
M  V30 3358 O 321.982 -8.03745 -0.157626 0
M  V30 3359 H 321.714 -0.587112 -0.335075 0
M  V30 3360 H 324.268 -2.01403 -0.403252 0
M  V30 3361 H 322.498 -2.55909 -2.89909 0
M  V30 3362 H 324.187 -2.95992 -2.77747 0
M  V30 3363 H 324.953 -4.73666 -1.04236 0
M  V30 3364 H 320.832 -4.10677 -2.09442 0
M  V30 3365 H 324.376 -6.97389 -0.171654 0
M  V30 3366 H 320.273 -6.33687 -1.22928 0
M  V30 3367 H 321.041 -8.18038 -0.275037 0
M  V30 3368 N 323.704 0.605807 -1.45491 0
M  V30 3369 C 324.614 1.74466 -1.56839 0
M  V30 3370 C 325.63 1.68006 -0.452772 0
M  V30 3371 O 326.806 1.8833 -0.713708 0
M  V30 3372 C 323.871 3.10931 -1.53371 0
M  V30 3373 C 322.932 3.28832 -2.75986 0
M  V30 3374 C 322.165 4.58787 -2.72673 0
M  V30 3375 O 322.388 5.4122 -1.80102 0
M  V30 3376 O 321.322 4.79438 -3.63899 0
M  V30 3377 H 325.148 1.67843 -2.53106 0
M  V30 3378 H 322.733 0.770108 -1.28022 0
M  V30 3379 H 324.615 3.92233 -1.54051 0
M  V30 3380 H 323.29 3.18042 -0.602572 0
M  V30 3381 H 322.197 2.47112 -2.80867 0
M  V30 3382 H 323.53 3.26599 -3.68231 0
M  V30 3383 N 325.182 1.32811 0.848464 0
M  V30 3384 C 326.092 1.24278 1.98978 0
M  V30 3385 C 327.108 0.155176 1.73307 0
M  V30 3386 O 328.284 0.376999 1.9784 0
M  V30 3387 C 325.349 0.972444 3.32783 0
M  V30 3388 C 324.41 2.14911 3.71634 0
M  V30 3389 C 323.643 1.89157 4.99054 0
M  V30 3390 O 323.866 0.837165 5.64223 0
M  V30 3391 O 322.8 2.75433 5.35183 0
M  V30 3392 H 326.626 2.20238 2.09115 0
M  V30 3393 H 324.211 1.12762 0.980052 0
M  V30 3394 H 326.093 0.838432 4.12975 0
M  V30 3395 H 324.768 0.043051 3.23671 0
M  V30 3396 H 323.675 2.33862 2.91992 0
M  V30 3397 H 325.008 3.06151 3.85399 0
M  V30 3398 N 326.66 -1.06551 1.16123 0
M  V30 3399 C 327.59 -2.15935 0.88851 0
M  V30 3400 C 328.571 -1.69306 -0.164135 0
M  V30 3401 O 329.756 -1.94193 -0.0167857 0
M  V30 3402 C 326.886 -3.45149 0.385942 0
M  V30 3403 C 325.84 -4.05271 1.3762 0
M  V30 3404 C 325.166 -5.29664 0.732137 0
M  V30 3405 C 326.466 -4.44355 2.74493 0
M  V30 3406 H 328.16 -2.39006 1.80323 0
M  V30 3407 H 325.706 -1.14866 0.868435 0
M  V30 3408 H 327.659 -4.21004 0.182647 0
M  V30 3409 H 326.383 -3.21689 -0.564274 0
M  V30 3410 H 325.042 -3.3147 1.56599 0
M  V30 3411 H 324.69 -5.02499 -0.224483 0
M  V30 3412 H 324.39 -5.70848 1.39307 0
M  V30 3413 H 325.914 -6.08218 0.538802 0
M  V30 3414 H 327.328 -5.11303 2.59311 0
M  V30 3415 H 325.725 -4.96515 3.37035 0
M  V30 3416 H 326.795 -3.55339 3.29943 0
M  V30 3417 N 328.138 -0.959301 -1.25041 0
M  V30 3418 C 329.086 -0.474437 -2.2771 0
M  V30 3419 C 330.08 0.457697 -1.631 0
M  V30 3420 O 331.286 0.333912 -1.76876 0
M  V30 3421 H 327.661 -0.134936 -0.739795 0
M  V30 3422 H 329.632 -1.35251 -2.65988 0
M  V30 3423 C 328.381 0.227884 -3.46952 0
M  V30 3424 H 327.704 -0.480248 -3.96905 0
M  V30 3425 H 329.144 0.531091 -4.20661 0
M  V30 3426 C 327.603 1.452 -3.04004 0
M  V30 3427 O 328.133 2.54949 -3.10426 0
M  V30 3428 N 326.339 1.31502 -2.59144 0
M  V30 3429 H 325.886 0.422065 -2.54119 0
M  V30 3430 H 325.844 2.13521 -2.30773 0
M  V30 3431 N 329.616 1.39756 -0.72842 0
M  V30 3432 C 330.865 1.99879 -0.270407 0
M  V30 3433 C 331.178 1.58449 1.14688 0
M  V30 3434 O 332.384 2.11362 1.70407 0
M  V30 3435 C 330.84 3.57292 -0.43252 0
M  V30 3436 C 330.448 4.07688 -1.85727 0
M  V30 3437 C 332.192 4.24485 -0.0359507 0
M  V30 3438 C 330.099 5.5765 -1.96928 0
M  V30 3439 H 329.029 0.747689 -0.0973472 0
M  V30 3440 H 331.68 1.59837 -0.901355 0
M  V30 3441 H 330.062 3.95097 0.267219 0
M  V30 3442 H 331.236 3.81231 -2.58843 0
M  V30 3443 H 329.551 3.53135 -2.20646 0
M  V30 3444 H 332.148 5.34609 -0.0987484 0
M  V30 3445 H 332.491 4.03915 1.00787 0
M  V30 3446 H 333.024 3.9183 -0.686604 0
M  V30 3447 H 329.763 5.8309 -2.99476 0
M  V30 3448 H 329.283 5.8593 -1.28241 0
M  V30 3449 H 330.962 6.22957 -1.74737 0
M  V30 3450 N 331.094 0.475555 1.50254 0
M  V30 3451 C 332.324 -0.0753399 2.06463 0
M  V30 3452 C 332.732 -1.33661 1.33908 0
M  V30 3453 O 332.075 -1.79219 0.403257 0
M  V30 3454 C 332.137 -0.424921 3.5698 0
M  V30 3455 C 331.801 0.734965 4.51051 0
M  V30 3456 C 332.798 1.61827 4.94073 0
M  V30 3457 C 330.483 0.926557 4.9368 0
M  V30 3458 C 332.477 2.67754 5.78434 0
M  V30 3459 C 330.164 1.98904 5.77824 0
M  V30 3460 C 331.162 2.8629 6.20103 0
M  V30 3461 O 330.85 3.90708 7.02568 0
M  V30 3462 H 330.582 0.00576308 0.675975 0
M  V30 3463 H 333.136 0.664662 1.94349 0
M  V30 3464 H 331.366 -1.21817 3.67012 0
M  V30 3465 H 333.055 -0.911422 3.95535 0
M  V30 3466 H 333.821 1.48196 4.61804 0
M  V30 3467 H 329.7 0.25584 4.6029 0
M  V30 3468 H 333.244 3.35992 6.11355 0
M  V30 3469 H 329.141 2.12541 6.09505 0
M  V30 3470 H 329.909 3.87751 7.20827 0
M  V30 3471 N 332.573 -1.56217 0.208337 0
M  V30 3472 C 333.798 -2.02782 -0.435222 0
M  V30 3473 C 334.223 -1.08738 -1.53485 0
M  V30 3474 O 333.581 -0.0731855 -1.81152 0
M  V30 3475 C 333.629 -3.47687 -0.956335 0
M  V30 3476 O 332.733 -3.56773 -2.06849 0
M  V30 3477 H 332.074 -0.656403 -0.100158 0
M  V30 3478 H 334.604 -2.02033 0.3231 0
M  V30 3479 H 334.614 -3.87745 -1.26955 0
M  V30 3480 H 333.289 -4.15624 -0.15143 0
M  V30 3481 H 331.866 -3.28597 -1.76292 0
M  V30 3482 N 334.051 0.0651679 -1.57465 0
M  V30 3483 C 335.014 1.06117 -2.03155 0
M  V30 3484 C 336.014 1.31204 -0.929632 0
M  V30 3485 O 337.204 1.26813 -1.19432 0
M  V30 3486 C 334.336 2.4032 -2.41783 0
M  V30 3487 H 335.529 0.667231 -2.92383 0
M  V30 3488 H 333.082 0.311075 -1.53173 0
M  V30 3489 H 333.817 2.84532 -1.55601 0
M  V30 3490 H 333.602 2.23451 -3.22199 0
M  V30 3491 H 335.092 3.11898 -2.77685 0
M  V30 3492 N 335.529 1.53961 0.336706 0
M  V30 3493 C 336.757 1.75483 1.09605 0
M  V30 3494 C 337.172 0.4972 1.82136 0
M  V30 3495 O 336.529 -0.53149 1.74589 0
M  V30 3496 C 336.58 2.93943 2.10428 0
M  V30 3497 O 336.301 4.14842 1.40846 0
M  V30 3498 C 337.802 3.27571 2.98684 0
M  V30 3499 H 335.022 0.586166 0.326574 0
M  V30 3500 H 337.566 2.00808 0.38683 0
M  V30 3501 H 335.721 2.70929 2.76905 0
M  V30 3502 H 336.135 4.81383 2.08255 0
M  V30 3503 H 337.609 4.13791 3.6535 0
M  V30 3504 H 338.086 2.44168 3.65074 0
M  V30 3505 H 338.692 3.52615 2.37787 0
M  V30 3506 N 337.007 -0.598083 1.45811 0
M  V30 3507 C 338.237 -1.38121 1.53643 0
M  V30 3508 C 338.645 -1.88425 0.171081 0
M  V30 3509 O 337.988 -1.63409 -0.839237 0
M  V30 3510 C 338.05 -2.61432 2.46766 0
M  V30 3511 C 337.714 -2.32702 3.93318 0
M  V30 3512 C 338.711 -1.92479 4.82957 0
M  V30 3513 C 336.396 -2.45321 4.38318 0
M  V30 3514 C 338.39 -1.65248 6.15607 0
M  V30 3515 C 336.077 -2.17703 5.71007 0
M  V30 3516 C 337.075 -1.7773 6.5947 0
M  V30 3517 O 336.763 -1.50441 7.89698 0
M  V30 3518 H 336.495 -0.428863 0.522544 0
M  V30 3519 H 339.049 -0.73557 1.91777 0
M  V30 3520 H 337.279 -3.28749 2.0362 0
M  V30 3521 H 338.968 -3.23487 2.45175 0
M  V30 3522 H 339.734 -1.82258 4.49452 0
M  V30 3523 H 335.613 -2.75399 3.69697 0
M  V30 3524 H 339.157 -1.33973 6.84614 0
M  V30 3525 H 335.054 -2.27544 6.04065 0
M  V30 3526 H 335.822 -1.64415 8.01817 0
M  V30 3527 N 338.485 -1.33259 -0.841409 0
M  V30 3528 C 339.71 -1.2775 -1.63385 0
M  V30 3529 C 340.135 0.149188 -1.87507 0
M  V30 3530 O 339.493 1.10498 -1.43736 0
M  V30 3531 C 339.541 -2.05571 -2.96265 0
M  V30 3532 O 338.645 -1.41257 -3.87453 0
M  V30 3533 H 337.986 -0.439627 -0.497618 0
M  V30 3534 H 340.516 -1.75782 -1.04699 0
M  V30 3535 H 340.526 -2.16241 -3.45982 0
M  V30 3536 H 339.201 -3.09309 -2.7803 0
M  V30 3537 H 337.778 -1.39217 -3.45938 0
M  V30 3538 N 339.963 1.05934 -1.16686 0
M  V30 3539 C 340.873 2.17014 -0.891183 0
M  V30 3540 C 341.889 1.73453 0.137907 0
M  V30 3541 O 343.065 2.01361 -0.039592 0
M  V30 3542 C 340.13 3.44384 -0.400099 0
M  V30 3543 C 339.191 4.02433 -1.49486 0
M  V30 3544 C 338.424 5.23723 -1.02711 0
M  V30 3545 O 338.647 5.7027 0.121716 0
M  V30 3546 O 337.581 5.7382 -1.81699 0
M  V30 3547 H 341.407 2.43113 -1.82015 0
M  V30 3548 H 338.992 1.15541 -0.947132 0
M  V30 3549 H 340.874 4.21189 -0.133392 0
M  V30 3550 H 339.549 3.19802 0.500817 0
M  V30 3551 H 338.456 3.27102 -1.81535 0
M  V30 3552 H 339.789 4.31317 -2.37121 0
M  V30 3553 N 341.441 0.965919 1.2453 0
M  V30 3554 C 342.371 0.513476 2.27784 0
M  V30 3555 C 343.352 -0.445974 1.6415 0
M  V30 3556 O 344.537 -0.342485 1.91156 0
M  V30 3557 C 341.667 -0.198839 3.4673 0
M  V30 3558 C 340.621 0.676456 4.2262 0
M  V30 3559 C 339.947 -0.167248 5.34438 0
M  V30 3560 C 341.247 1.96017 4.84123 0
M  V30 3561 H 342.941 1.3765 2.65881 0
M  V30 3562 H 340.487 0.663321 1.27813 0
M  V30 3563 H 342.44 -0.526567 4.18097 0
M  V30 3564 H 341.164 -1.0962 3.07654 0
M  V30 3565 H 339.823 0.98743 3.53052 0
M  V30 3566 H 339.471 -1.0647 4.91603 0
M  V30 3567 H 339.171 0.415181 5.86131 0
M  V30 3568 H 340.695 -0.489688 6.08633 0
M  V30 3569 H 342.109 1.69814 5.47573 0
M  V30 3570 H 340.506 2.48918 5.4604 0
M  V30 3571 H 341.576 2.65622 4.05676 0
M  V30 3572 N 342.919 -1.39368 0.735821 0
M  V30 3573 C 343.829 -2.34395 0.0979693 0
M  V30 3574 C 344.845 -1.58361 -0.720968 0
M  V30 3575 O 346.021 -1.90648 -0.649245 0
M  V30 3576 C 343.086 -3.37393 -0.797916 0
M  V30 3577 C 342.147 -4.29287 0.0333662 0
M  V30 3578 C 341.38 -5.27365 -0.819854 0
M  V30 3579 O 341.603 -5.31959 -2.05855 0
M  V30 3580 O 340.537 -6.01389 -0.248079 0
M  V30 3581 H 344.363 -2.90601 0.882315 0
M  V30 3582 H 341.948 -1.40909 0.4965 0
M  V30 3583 H 343.83 -4.00505 -1.31048 0
M  V30 3584 H 342.505 -2.83571 -1.56106 0
M  V30 3585 H 341.412 -3.69395 0.591475 0
M  V30 3586 H 342.745 -4.86317 0.758752 0
M  V30 3587 N 344.397 -0.483516 -1.5 0
M  V30 3588 C 345.674 0.129337 -1.95172 0
M  V30 3589 C 346.054 1.55802 -1.4244 0
M  V30 3590 O 345.402 2.19625 -0.630649 0
M  V30 3591 C 345.612 0.0599251 -3.48949 0
M  V30 3592 C 346.96 0.242617 -4.23906 0
M  V30 3593 O 347.984 0.135933 -3.55941 0
M  V30 3594 O 346.843 0.459454 -5.44565 0
M  V30 3595 H 343.937 0.104887 -0.820322 0
M  V30 3596 H 346.483 -0.544807 -1.60717 0
M  V30 3597 H 345.255 -0.937079 -3.79914 0
M  V30 3598 H 344.878 0.774984 -3.89974 0
M  V30 3599 N 345.875 1.56104 -0.216619 0
M  V30 3600 C 347.286 1.844 0.292128 0
M  V30 3601 C 347.637 1.13788 1.59833 0
M  V30 3602 O 346.762 0.405888 2.12559 0
M  V30 3603 C 347.357 3.3452 0.53681 0
M  V30 3604 C 345.916 3.63151 0.989876 0
M  V30 3605 C 345.063 2.77255 0.0502302 0
M  V30 3606 H 348.014 1.52481 -0.439926 0
M  V30 3607 H 348.035 3.54459 1.38345 0
M  V30 3608 H 347.547 3.85885 -0.414031 0
M  V30 3609 H 345.648 3.17238 1.95425 0
M  V30 3610 H 345.761 4.71177 0.867698 0
M  V30 3611 H 344.125 2.48555 0.556117 0
M  V30 3612 H 344.908 3.31416 -0.89544 0
M  V30 3613 N 347.353 -0.0568162 1.57498 0
M  V30 3614 C 348.601 -0.751617 1.87604 0
M  V30 3615 C 348.922 -1.77351 0.81066 0
M  V30 3616 O 348.192 -1.95254 -0.159018 0
M  V30 3617 H 346.772 -0.280583 0.692302 0
M  V30 3618 H 349.434 -0.0293483 1.94878 0
M  V30 3619 H 348.53 -1.25852 2.856 0
M  V30 3620 N 348.832 -1.54138 -0.328536 0
M  V30 3621 C 349.742 -1.86192 -1.42723 0
M  V30 3622 C 350.758 -0.753382 -1.56844 0
M  V30 3623 O 351.934 -1.04718 -1.72035 0
M  V30 3624 C 348.999 -2.07824 -2.77507 0
M  V30 3625 C 348.06 -3.31641 -2.72603 0
M  V30 3626 C 347.293 -3.52232 -4.00959 0
M  V30 3627 O 347.516 -2.7636 -4.9898 0
M  V30 3628 O 346.45 -4.45699 -4.0452 0
M  V30 3629 H 350.276 -2.79608 -1.18547 0
M  V30 3630 H 347.861 -1.3998 -0.522104 0
M  V30 3631 H 349.743 -2.23411 -3.57303 0
M  V30 3632 H 348.418 -1.17596 -3.01584 0
M  V30 3633 H 347.325 -3.21444 -1.91376 0
M  V30 3634 H 348.658 -4.2191 -2.53481 0
M  V30 3635 N 350.31 0.590341 -1.46126 0
M  V30 3636 C 351.243 1.71434 -1.50617 0
M  V30 3637 C 352.221 1.58543 -0.360948 0
M  V30 3638 O 353.405 1.79865 -0.563985 0
M  V30 3639 C 350.532 3.09422 -1.37753 0
M  V30 3640 C 349.578 3.40854 -2.5636 0
M  V30 3641 S 350.411 3.33773 -4.18755 0
M  V30 3642 C 351.567 4.74312 -4.08386 0
M  V30 3643 H 351.8 1.67364 -2.45717 0
M  V30 3644 H 349.333 0.76845 -1.33919 0
M  V30 3645 H 351.291 3.8903 -1.31018 0
M  V30 3646 H 349.952 3.10989 -0.440949 0
M  V30 3647 H 349.145 4.41368 -2.43332 0
M  V30 3648 H 348.747 2.68798 -2.60046 0
M  V30 3649 H 351.039 5.64522 -3.74595 0
M  V30 3650 H 351.982 4.92397 -5.08872 0
M  V30 3651 H 352.39 4.50803 -3.3976 0
M  V30 3652 N 351.788 1.33704 0.83433 0
M  V30 3653 C 353.013 1.28615 1.62705 0
M  V30 3654 C 353.438 -0.139242 1.87584 0
M  V30 3655 O 352.796 -1.09734 1.4432 0
M  V30 3656 C 352.844 2.07139 2.95171 0
M  V30 3657 O 351.948 1.4331 3.86699 0
M  V30 3658 H 351.289 0.44226 0.49528 0
M  V30 3659 H 353.819 1.76335 1.03766 0
M  V30 3660 H 353.829 2.18073 3.44831 0
M  V30 3661 H 352.504 3.10779 2.76386 0
M  V30 3662 H 351.081 1.4105 3.45195 0
M  V30 3663 N 353.266 -1.05314 1.17247 0
M  V30 3664 C 354.677 -1.59753 0.96623 0
M  V30 3665 C 355.028 -1.9005 -0.487378 0
M  V30 3666 O 354.153 -1.68126 -1.36245 0
M  V30 3667 C 354.748 -2.90249 1.74759 0
M  V30 3668 C 353.307 -3.41352 1.58606 0
M  V30 3669 C 352.454 -2.15103 1.75002 0
M  V30 3670 H 355.405 -0.881406 1.31973 0
M  V30 3671 H 355.426 -3.60097 1.22925 0
M  V30 3672 H 354.938 -2.68166 2.8055 0
M  V30 3673 H 353.039 -3.68474 0.552985 0
M  V30 3674 H 353.152 -4.16019 2.37624 0
M  V30 3675 H 351.516 -2.25804 1.17833 0
M  V30 3676 H 352.299 -1.95491 2.82202 0
M  V30 3677 N 354.744 -0.972509 -1.24016 0
M  V30 3678 C 356.155 -0.67517 -1.74064 0
M  V30 3679 C 356.506 0.808939 -1.78747 0
M  V30 3680 O 355.631 1.63286 -1.42009 0
M  V30 3681 C 356.226 -1.21889 -3.16115 0
M  V30 3682 C 354.785 -0.971358 -3.6365 0
M  V30 3683 C 353.932 -1.35134 -2.42145 0
M  V30 3684 H 356.883 -1.14727 -1.09651 0
M  V30 3685 H 356.904 -0.587489 -3.75937 0
M  V30 3686 H 356.416 -2.29906 -3.12674 0
M  V30 3687 H 354.517 0.0930686 -3.72484 0
M  V30 3688 H 354.63 -1.62039 -4.50866 0
M  V30 3689 H 352.994 -0.769751 -2.4279 0
M  V30 3690 H 353.777 -2.4411 -2.41381 0
M  V30 3691 N 356.222 1.38976 -0.743202 0
M  V30 3692 C 357.471 1.99581 -0.291592 0
M  V30 3693 C 357.784 1.59656 1.13001 0
M  V30 3694 O 358.99 2.13157 1.68156 0
M  V30 3695 C 357.446 3.56813 -0.470391 0
M  V30 3696 C 357.054 4.05695 -1.90041 0
M  V30 3697 C 358.798 4.24423 -0.0809709 0
M  V30 3698 C 356.705 5.5553 -2.02832 0
M  V30 3699 H 355.635 0.746615 -0.105272 0
M  V30 3700 H 358.286 1.58872 -0.918258 0
M  V30 3701 H 356.668 3.95359 0.225299 0
M  V30 3702 H 357.842 3.78464 -2.62872 0
M  V30 3703 H 356.157 3.50775 -2.24379 0
M  V30 3704 H 358.754 5.34474 -0.155445 0
M  V30 3705 H 359.097 4.04962 0.96497 0
M  V30 3706 H 359.63 3.9108 -0.728124 0
M  V30 3707 H 356.369 5.79881 -3.05643 0
M  V30 3708 H 355.889 5.84537 -1.34448 0
M  V30 3709 H 357.568 6.21069 -1.81335 0
M  V30 3710 N 357.7 0.491464 1.49741 0
M  V30 3711 C 358.977 -0.118984 1.95238 0
M  V30 3712 C 359.357 -1.55044 1.43264 0
M  V30 3713 O 358.705 -2.19287 0.642287 0
M  V30 3714 C 358.915 -0.0414187 3.48975 0
M  V30 3715 C 360.263 -0.220133 4.24029 0
M  V30 3716 O 361.287 -0.117055 3.56008 0
M  V30 3717 O 360.146 -0.430567 5.44801 0
M  V30 3718 H 357.24 -0.100536 0.820866 0
M  V30 3719 H 359.786 0.553322 1.60426 0
M  V30 3720 H 358.558 0.957214 3.79412 0
M  V30 3721 H 358.181 -0.754292 3.9038 0
M  V30 3722 N 359.178 -1.55987 0.224894 0
M  V30 3723 C 360.108 -2.23426 -0.678457 0
M  V30 3724 C 361.089 -1.20709 -1.19847 0
M  V30 3725 O 362.274 -1.49304 -1.24186 0
M  V30 3726 C 359.404 -2.91676 -1.88527 0
M  V30 3727 C 358.358 -4.00893 -1.49896 0
M  V30 3728 C 357.684 -4.56455 -2.78483 0
M  V30 3729 C 358.984 -5.17769 -0.686461 0
M  V30 3730 H 360.678 -2.99175 -0.116173 0
M  V30 3731 H 358.224 -1.43897 -0.054436 0
M  V30 3732 H 360.177 -3.37547 -2.5227 0
M  V30 3733 H 358.901 -2.1338 -2.47258 0
M  V30 3734 H 357.56 -3.55758 -0.884985 0
M  V30 3735 H 357.208 -3.74886 -3.35365 0
M  V30 3736 H 356.908 -5.30169 -2.53368 0
M  V30 3737 H 358.432 -5.05047 -3.43162 0
M  V30 3738 H 359.846 -5.60001 -1.22767 0
M  V30 3739 H 358.243 -5.97735 -0.532259 0
M  V30 3740 H 359.313 -4.83932 0.306196 0
M  V30 3741 O 360.695 -0.0887553 -1.61256 0
M  V30 3742 H 361.386 0.514821 -1.86733 0
M  V30 END ATOM
M  V30 BEGIN BOND
M  V30 END BOND
M  V30 END CTAB
M  END
$$$$
