drugbank_target|P08708 40S ribosomal protein S17 (DB11638)
 OpenBabel12092121093D

  0  0  0     0  0            999 V3000
M  V30 BEGIN CTAB
M  V30 COUNTS 2240 2255 0 0 0
M  V30 BEGIN ATOM
M  V30 1 H -0.908 1.98254 -0.117106 0
M  V30 2 N 0 1.576 0 0
M  V30 3 C 0.933 2.03868 1.02534 0
M  V30 4 C 1.911 0.928543 1.3348 0
M  V30 5 O 3.095 1.19667 1.45644 0
M  V30 6 C 0.222 2.43627 2.35294 0
M  V30 7 C -0.732 3.65373 2.2001 0
M  V30 8 S 0.101 5.13292 1.52614 0
M  V30 9 C 1.257 5.56322 2.86805 0
M  V30 10 H 1.49 2.90518 0.631377 0
M  V30 11 H -0.977 1.52953 0.210867 0
M  V30 12 H 0.981 2.67203 3.11629 0
M  V30 13 H -0.358 1.57376 2.7183 0
M  V30 14 H -1.165 3.90944 3.18086 0
M  V30 15 H -1.563 3.418 1.51819 0
M  V30 16 H 0.729 5.58782 3.83104 0
M  V30 17 H 1.672 6.56266 2.65933 0
M  V30 18 H 2.08 4.83886 2.90714 0
M  V30 19 N 1.4781 -0.272755 1.55222 0
M  V30 20 C 2.7261 -1.00234 1.75492 0
M  V30 21 C 3.0471 -1.8681 0.5592 0
M  V30 22 O 2.3171 -1.91215 -0.425882 0
M  V30 23 H 0.8971 -0.373076 0.647166 0
M  V30 24 H 3.5591 -0.296926 1.92625 0
M  V30 25 H 2.6551 -1.63913 2.65592 0
M  V30 26 N 2.9562 -1.48159 -0.537278 0
M  V30 27 C 4.3722 -1.34118 -0.865129 0
M  V30 28 C 4.5722 -0.346678 -1.98495 0
M  V30 29 O 3.6282 0.234715 -2.51407 0
M  V30 30 C 4.9412 -2.73963 -1.23954 0
M  V30 31 C 6.4892 -2.82397 -1.34984 0
M  V30 32 C 6.9642 -4.22928 -1.75772 0
M  V30 33 N 8.4552 -4.25566 -1.82887 0
M  V30 34 C 9.1902 -5.31235 -2.15817 0
M  V30 35 N 8.6862 -6.47189 -2.47222 0
M  V30 36 N 10.4792 -5.18624 -2.16761 0
M  V30 37 H 2.6302 -2.1144 0.201715 0
M  V30 38 H 4.8932 -0.947598 0.0275949 0
M  V30 39 H 4.5992 -3.48264 -0.490381 0
M  V30 40 H 4.4732 -3.0702 -2.19132 0
M  V30 41 H 6.8602 -2.08356 -2.08978 0
M  V30 42 H 6.9412 -2.5297 -0.379448 0
M  V30 43 H 6.5852 -4.97482 -1.02341 0
M  V30 44 H 6.5152 -4.49794 -2.73848 0
M  V30 45 H 9.0062 -3.41924 -1.60924 0
M  V30 46 H 9.3192 -7.23564 -2.71433 0
M  V30 47 H 7.6642 -6.50476 -2.44757 0
M  V30 48 H 10.8552 -4.27056 -1.91679 0
M  V30 49 H 11.0282 -6.01078 -2.42093 0
M  V30 50 N 4.4343 0.785586 -1.36625 0
M  V30 51 C 5.6803 1.54591 -1.31261 0
M  V30 52 C 6.0133 1.93906 0.106823 0
M  V30 53 O 5.2883 1.63007 1.06108 0
M  V30 54 C 5.5713 2.82038 -2.23889 0
M  V30 55 C 5.4243 2.49066 -3.74548 0
M  V30 56 C 6.7433 3.83887 -2.15217 0
M  V30 57 H 3.8623 0.560846 -0.478143 0
M  V30 58 H 6.5043 0.902278 -1.67209 0
M  V30 59 H 4.6543 3.36961 -1.93363 0
M  V30 60 H 6.3263 2.00164 -4.15611 0
M  V30 61 H 4.5693 1.81954 -3.93796 0
M  V30 62 H 5.2403 3.40109 -4.34776 0
M  V30 63 H 7.7163 3.38421 -2.42096 0
M  V30 64 H 6.5923 4.70806 -2.82193 0
M  V30 65 H 6.8533 4.27131 -1.14068 0
M  V30 66 N 5.9124 1.20967 1.01018 0
M  V30 67 C 7.3284 0.965905 1.27053 0
M  V30 68 C 7.5284 -0.350785 1.98423 0
M  V30 69 O 6.5844 -1.07773 2.28344 0
M  V30 70 C 7.8974 2.15294 2.09926 0
M  V30 71 C 9.4454 2.19463 2.23171 0
M  V30 72 C 9.9204 3.3767 3.09424 0
M  V30 73 N 11.4114 3.37724 3.17012 0
M  V30 74 C 12.1464 4.25837 3.83993 0
M  V30 75 N 11.6424 5.24138 4.53047 0
M  V30 76 N 13.4354 4.1366 3.80581 0
M  V30 77 H 5.5864 2.0565 0.531194 0
M  V30 78 H 7.8494 0.90024 0.297106 0
M  V30 79 H 7.5554 3.10684 1.64828 0
M  V30 80 H 7.4294 2.13923 3.10672 0
M  V30 81 H 9.8164 1.24632 2.6749 0
M  V30 82 H 9.8974 2.2488 1.21912 0
M  V30 83 H 9.5414 4.32791 2.65808 0
M  V30 84 H 9.4714 3.29491 4.10784 0
M  V30 85 H 11.9624 2.6658 2.6785 0
M  V30 86 H 12.2754 5.87684 5.01844 0
M  V30 87 H 10.6204 5.28068 4.5185 0
M  V30 88 H 13.8114 3.36127 3.25785 0
M  V30 89 H 13.9844 4.82538 4.32505 0
M  V30 90 N 7.3905 -1.2043 1.01659 0
M  V30 91 C 8.6185 -1.93777 0.725132 0
M  V30 92 C 9.0335 -1.74772 -0.714166 0
M  V30 93 O 8.3905 -1.06169 -1.4844 0
M  V30 94 C 8.4415 -3.45876 1.05129 0
M  V30 95 O 8.1625 -3.6426 2.43406 0
M  V30 96 C 9.6635 -4.36368 0.780891 0
M  V30 97 H 6.8835 -0.615901 0.266284 0
M  V30 98 H 9.4275 -1.52922 1.35776 0
M  V30 99 H 7.5825 -3.8461 0.464065 0
M  V30 100 H 7.9965 -4.58246 2.55169 0
M  V30 101 H 9.4705 -5.41743 1.05918 0
M  V30 102 H 9.9475 -4.38275 -0.284937 0
M  V30 103 H 10.5535 -4.03296 1.35027 0
M  V30 104 N 8.8686 -0.792821 -1.36206 0
M  V30 105 C 9.8156 -0.191653 -2.30003 0
M  V30 106 C 10.7856 0.666453 -1.52143 0
M  V30 107 O 11.9706 0.61442 -1.80636 0
M  V30 108 C 9.1106 0.664848 -3.38635 0
M  V30 109 C 8.2236 -0.212175 -4.31479 0
M  V30 110 C 7.3586 0.651022 -5.27196 0
M  V30 111 C 6.3976 -0.227247 -6.11678 0
M  V30 112 N 5.5346 0.595127 -6.99573 0
M  V30 113 H 10.3746 -0.996978 -2.80828 0
M  V30 114 H 7.9116 -0.503206 -1.38225 0
M  V30 115 H 9.8696 1.17645 -4.00269 0
M  V30 116 H 8.4996 1.43557 -2.89122 0
M  V30 117 H 7.5516 -0.841777 -3.70969 0
M  V30 118 H 8.8636 -0.888751 -4.90818 0
M  V30 119 H 8.0176 1.2283 -5.94136 0
M  V30 120 H 6.7566 1.36121 -4.68319 0
M  V30 121 H 5.7616 -0.816904 -5.43697 0
M  V30 122 H 6.9866 -0.93509 -6.72631 0
M  V30 123 H 4.9326 1.28955 -6.432 0
M  V30 124 H 4.8496 -0.0236952 -7.55996 0
M  V30 125 H 6.1176 1.15613 -7.70879 0
M  V30 126 N 10.3467 1.47872 -0.545128 0
M  V30 127 C 11.5747 2.06889 -0.021084 0
M  V30 128 C 11.9897 1.39955 1.2672 0
M  V30 129 O 11.3467 0.492036 1.75742 0
M  V30 130 C 11.3977 3.60996 0.190817 0
M  V30 131 O 11.1187 4.25419 -1.04644 0
M  V30 132 C 12.6197 4.36849 0.753521 0
M  V30 133 H 9.8397 0.669785 -0.0403635 0
M  V30 134 H 12.3837 1.90049 -0.755095 0
M  V30 135 H 10.5387 3.77391 0.87492 0
M  V30 136 H 10.9527 5.17785 -0.836611 0
M  V30 137 H 12.4267 5.45399 0.851139 0
M  V30 138 H 12.9037 4.02306 1.762 0
M  V30 139 H 13.5097 4.25169 0.105503 0
M  V30 140 N 11.8248 0.280983 1.55075 0
M  V30 141 C 13.0708 -0.33461 2.00021 0
M  V30 142 C 13.4038 -1.55063 1.16915 0
M  V30 143 O 12.6788 -1.93006 0.240646 0
M  V30 144 C 12.9618 -0.711007 3.53011 0
M  V30 145 C 12.8148 0.512766 4.46868 0
M  V30 146 C 14.1338 -1.54522 4.12081 0
M  V30 147 H 11.2528 -0.120147 0.727141 0
M  V30 148 H 13.8948 0.389097 1.85973 0
M  V30 149 H 12.0448 -1.32761 3.65112 0
M  V30 150 H 13.7168 1.15131 4.46702 0
M  V30 151 H 11.9598 1.14975 4.18286 0
M  V30 152 H 12.6308 0.205556 5.51617 0
M  V30 153 H 15.1068 -1.02442 4.03293 0
M  V30 154 H 13.9828 -1.77739 5.19327 0
M  V30 155 H 14.2438 -2.52813 3.62682 0
M  V30 156 N 13.3029 -1.57598 0.00835791 0
M  V30 157 C 14.2499 -2.08945 -0.980346 0
M  V30 158 C 15.2199 -0.986738 -1.33614 0
M  V30 159 O 16.4049 -1.25968 -1.43306 0
M  V30 160 C 13.5449 -2.60425 -2.26435 0
M  V30 161 C 12.6579 -3.84628 -1.96685 0
M  V30 162 C 11.7929 -4.24579 -3.19228 0
M  V30 163 C 10.8319 -5.41596 -2.85202 0
M  V30 164 N 9.9689 -5.768 -4.00307 0
M  V30 165 H 14.8089 -2.93148 -0.535551 0
M  V30 166 H 12.3459 -1.44912 -0.252776 0
M  V30 167 H 14.3039 -2.88354 -3.01509 0
M  V30 168 H 12.9339 -1.79083 -2.68568 0
M  V30 169 H 11.9859 -3.63556 -1.11942 0
M  V30 170 H 13.2979 -4.69796 -1.67611 0
M  V30 171 H 12.4519 -4.53834 -4.02641 0
M  V30 172 H 11.1909 -3.38137 -3.51447 0
M  V30 173 H 10.1959 -5.12056 -2.00198 0
M  V30 174 H 11.4209 -6.29721 -2.54222 0
M  V30 175 H 9.3669 -4.93316 -4.32407 0
M  V30 176 H 9.2839 -6.5656 -3.74786 0
M  V30 177 H 10.5519 -6.10652 -4.84484 0
M  V30 178 N 14.781 0.264519 -1.55364 0
M  V30 179 C 15.728 1.32717 -1.88825 0
M  V30 180 C 16.698 1.48675 -0.740605 0
M  V30 181 O 17.883 1.62945 -0.992657 0
M  V30 182 C 15.023 2.68089 -2.17307 0
M  V30 183 C 14.136 2.60284 -3.44785 0
M  V30 184 C 13.271 3.87892 -3.62924 0
M  V30 185 C 12.31 3.74631 -4.84064 0
M  V30 186 N 11.447 4.94092 -4.98816 0
M  V30 187 H 16.287 1.03481 -2.79456 0
M  V30 188 H 13.824 0.499757 -1.3835 0
M  V30 189 H 15.782 3.46864 -2.31821 0
M  V30 190 H 14.412 2.95509 -1.299 0
M  V30 191 H 13.464 1.73173 -3.38697 0
M  V30 192 H 14.776 2.46388 -4.33698 0
M  V30 193 H 13.93 4.75109 -3.77302 0
M  V30 194 H 12.669 4.04664 -2.7221 0
M  V30 195 H 11.674 2.85797 -4.69681 0
M  V30 196 H 12.899 3.5937 -5.76221 0
M  V30 197 H 10.845 5.11259 -4.11036 0
M  V30 198 H 10.762 4.8276 -5.81789 0
M  V30 199 H 12.03 5.82857 -5.17588 0
M  V30 200 N 16.2591 1.48442 0.529413 0
M  V30 201 C 17.2221 1.62524 1.61612 0
M  V30 202 C 18.2221 0.498509 1.52877 0
M  V30 203 O 19.4121 0.76431 1.56537 0
M  V30 204 C 16.5441 1.59597 3.01233 0
M  V30 205 H 17.7371 2.59423 1.50465 0
M  V30 206 H 15.2901 1.37047 0.751514 0
M  V30 207 H 16.0251 0.641781 3.17886 0
M  V30 208 H 15.8101 2.41397 3.08982 0
M  V30 209 H 17.3001 1.72646 3.80241 0
M  V30 210 N 17.7372 -0.778329 1.37039 0
M  V30 211 C 18.7002 -1.87301 1.32102 0
M  V30 212 C 19.7002 -1.59198 0.226405 0
M  V30 213 O 20.8902 -1.67403 0.481861 0
M  V30 214 C 18.0222 -3.24309 1.05055 0
M  V30 215 H 19.2152 -1.93093 2.29467 0
M  V30 216 H 16.7682 -0.977358 1.21973 0
M  V30 217 H 17.5032 -3.24196 0.0819373 0
M  V30 218 H 17.2882 -3.46098 1.84279 0
M  V30 219 H 18.7782 -4.04382 1.04234 0
M  V30 220 N 19.2153 -1.21501 -1.00376 0
M  V30 221 C 20.6313 -0.972629 -1.26539 0
M  V30 222 C 20.8313 0.340257 -1.98606 0
M  V30 223 O 19.8873 1.06561 -2.28913 0
M  V30 224 C 21.2003 -2.16404 -2.08781 0
M  V30 225 C 22.7483 -2.20643 -2.22004 0
M  V30 226 C 23.2233 -3.39306 -3.07629 0
M  V30 227 N 24.7143 -3.39401 -3.15217 0
M  V30 228 C 25.4493 -4.27867 -3.81729 0
M  V30 229 N 24.9453 -5.26533 -4.5026 0
M  V30 230 N 26.7383 -4.15672 -3.78382 0
M  V30 231 H 18.8893 -2.05929 -0.520281 0
M  V30 232 H 21.1523 -0.901803 -0.292328 0
M  V30 233 H 20.8583 -3.11554 -1.63178 0
M  V30 234 H 20.7323 -2.15567 -3.09533 0
M  V30 235 H 23.1193 -1.26048 -2.66825 0
M  V30 236 H 23.2003 -2.25523 -1.20718 0
M  V30 237 H 22.8443 -4.34195 -2.63509 0
M  V30 238 H 22.7743 -3.31665 -4.09031 0
M  V30 239 H 25.2653 -2.67997 -2.66432 0
M  V30 240 H 25.5783 -5.90337 -4.98721 0
M  V30 241 H 23.9233 -5.30457 -4.49044 0
M  V30 242 H 27.1143 -3.3785 -3.23998 0
M  V30 243 H 27.2873 -4.84825 -4.2994 0
M  V30 244 N 20.6934 1.19889 -1.02296 0
M  V30 245 C 21.9394 1.89701 -0.717033 0
M  V30 246 C 22.2724 1.7905 0.751989 0
M  V30 247 O 21.5474 1.17891 1.547 0
M  V30 248 C 21.8304 3.40858 -1.16136 0
M  V30 249 C 21.6834 3.60411 -2.69117 0
M  V30 250 C 23.0024 4.33876 -0.737549 0
M  V30 251 H 20.1214 0.688874 -0.261957 0
M  V30 252 H 22.7634 1.41154 -1.27183 0
M  V30 253 H 20.9134 3.82335 -0.689342 0
M  V30 254 H 22.5854 3.28145 -3.2422 0
M  V30 255 H 20.8284 3.03665 -3.0979 0
M  V30 256 H 21.4994 4.66396 -2.95261 0
M  V30 257 H 23.9754 4.00081 -1.14344 0
M  V30 258 H 22.8514 5.38242 -1.0764 0
M  V30 259 H 23.1124 4.40628 0.360436 0
M  V30 260 N 22.1715 0.800033 1.35784 0
M  V30 261 C 23.4205 0.37387 1.98205 0
M  V30 262 C 23.7335 -1.06302 1.64193 0
M  V30 263 O 24.9395 -1.59198 2.19928 0
M  V30 264 C 23.3955 0.617532 3.54562 0
M  V30 265 C 23.0035 2.06654 3.9749 0
M  V30 266 C 24.7475 0.256401 4.23725 0
M  V30 267 C 22.6545 2.2563 5.46667 0
M  V30 268 H 21.5845 0.136055 0.741623 0
M  V30 269 H 24.2355 0.983166 1.54939 0
M  V30 270 H 22.6175 -0.0616248 3.95952 0
M  V30 271 H 23.7915 2.78296 3.67271 0
M  V30 272 H 22.1065 2.38691 3.41197 0
M  V30 273 H 24.7035 0.376318 5.33374 0
M  V30 274 H 25.0465 -0.796692 4.08606 0
M  V30 275 H 25.5795 0.889214 3.87734 0
M  V30 276 H 22.3185 3.2936 5.66747 0
M  V30 277 H 21.8385 1.58504 5.78478 0
M  V30 278 H 23.5175 2.06861 6.1304 0
M  V30 279 N 23.6496 -1.47581 0.552962 0
M  V30 280 C 24.8986 -2.01684 0.0251995 0
M  V30 281 C 25.2116 -1.43317 -1.33115 0
M  V30 282 O 26.4176 -1.89057 -1.94858 0
M  V30 283 C 24.8736 -3.599 -0.00542052 0
M  V30 284 C 24.4816 -4.27257 1.34742 0
M  V30 285 C 26.2256 -4.21768 -0.4808 0
M  V30 286 C 24.1326 -5.77467 1.27614 0
M  V30 287 H 23.0626 -0.753979 0.00565033 0
M  V30 288 H 25.7136 -1.69616 0.70018 0
M  V30 289 H 24.0956 -3.88911 -0.745961 0
M  V30 290 H 25.2696 -4.09893 2.10534 0
M  V30 291 H 23.5846 -3.77358 1.76039 0
M  V30 292 H 26.1816 -5.31838 -0.55246 0
M  V30 293 H 26.5246 -3.88651 -1.49184 0
M  V30 294 H 27.0576 -3.97273 0.204752 0
M  V30 295 H 23.7966 -6.15196 2.26304 0
M  V30 296 H 23.3166 -5.9718 0.55996 0
M  V30 297 H 24.9956 -6.3959 0.976421 0
M  V30 298 N 25.1277 -0.289203 -1.54924 0
M  V30 299 C 26.0377 0.601863 -2.26748 0
M  V30 300 C 27.0537 1.15834 -1.2984 0
M  V30 301 O 28.2297 1.18564 -1.62802 0
M  V30 302 C 25.2947 1.76299 -2.98529 0
M  V30 303 C 24.3557 1.24178 -4.10948 0
M  V30 304 C 23.5887 2.34757 -4.79296 0
M  V30 305 O 23.8117 3.54411 -4.46933 0
M  V30 306 O 22.7457 2.02115 -5.66951 0
M  V30 307 H 26.5717 0.0195879 -3.03694 0
M  V30 308 H 24.1567 -0.0560868 -1.49295 0
M  V30 309 H 26.0387 2.43973 -3.43592 0
M  V30 310 H 24.7137 2.33209 -2.24488 0
M  V30 311 H 23.6207 0.531104 -3.70311 0
M  V30 312 H 24.9537 0.718252 -4.86931 0
M  V30 313 N 26.6058 1.57591 -0.0167156 0
M  V30 314 C 27.5528 2.09462 0.969251 0
M  V30 315 C 28.5228 0.99381 1.33089 0
M  V30 316 O 29.7078 1.26726 1.42636 0
M  V30 317 C 26.8478 2.61622 2.25051 0
M  V30 318 C 25.9608 3.85666 1.94642 0
M  V30 319 C 25.0958 4.26266 3.16972 0
M  V30 320 C 24.1348 5.43101 2.82326 0
M  V30 321 N 23.2718 5.78915 3.97243 0
M  V30 322 H 28.1118 2.93428 0.519997 0
M  V30 323 H 25.6488 1.45044 0.245087 0
M  V30 324 H 27.6068 2.89949 2.99976 0
M  V30 325 H 26.2368 1.80505 2.67615 0
M  V30 326 H 25.2888 3.64145 1.10013 0
M  V30 327 H 26.6008 4.70678 1.65117 0
M  V30 328 H 25.7548 4.55963 4.00228 0
M  V30 329 H 24.4938 3.39996 3.49648 0
M  V30 330 H 23.4988 5.1311 1.97479 0
M  V30 331 H 24.7238 6.3106 2.50879 0
M  V30 332 H 22.6698 4.95602 4.29785 0
M  V30 333 H 22.5868 6.58539 3.71299 0
M  V30 334 H 23.8548 6.13212 4.81239 0
M  V30 335 N 28.0839 -0.256276 1.55502 0
M  V30 336 C 29.3139 -1.00196 1.80677 0
M  V30 337 C 29.7219 -1.79805 0.588797 0
M  V30 338 O 29.0649 -1.78055 -0.451883 0
M  V30 339 C 29.1269 -1.99515 2.99055 0
M  V30 340 C 28.7909 -1.38688 4.35448 0
M  V30 341 C 29.7879 -0.794079 5.138 0
M  V30 342 C 27.4729 -1.40906 4.82132 0
M  V30 343 C 29.4669 -0.231562 6.36979 0
M  V30 344 C 27.1539 -0.842684 6.05262 0
M  V30 345 C 28.1519 -0.254953 6.82524 0
M  V30 346 O 27.8399 0.3027 8.0333 0
M  V30 347 H 27.5719 -0.300919 0.60533 0
M  V30 348 H 30.1259 -0.287307 2.03381 0
M  V30 349 H 28.3559 -2.74785 2.72084 0
M  V30 350 H 30.0449 -2.60349 3.11405 0
M  V30 351 H 30.8109 -0.769519 4.78856 0
M  V30 352 H 26.6899 -1.85591 4.21992 0
M  V30 353 H 30.2339 0.227816 6.97228 0
M  V30 354 H 26.1309 -0.86454 6.39684 0
M  V30 355 H 26.8989 0.193662 8.18271 0
M  V30 356 N 29.562 -1.4872 -0.521534 0
M  V30 357 C 30.792 -1.6061 -1.29954 0
M  V30 358 C 31.2 -0.268728 -1.87282 0
M  V30 359 O 30.543 0.753221 -1.67548 0
M  V30 360 C 30.605 -2.60013 -2.48261 0
M  V30 361 C 30.269 -4.04874 -2.11957 0
M  V30 362 C 31.266 -4.92304 -1.67132 0
M  V30 363 C 28.951 -4.5047 -2.22221 0
M  V30 364 C 30.945 -6.2336 -1.33047 0
M  V30 365 C 28.632 -5.81544 -1.87748 0
M  V30 366 C 29.63 -6.67812 -1.43234 0
M  V30 367 O 29.318 -7.96446 -1.09217 0
M  V30 368 H 29.05 -0.544116 -0.401141 0
M  V30 369 H 31.604 -1.95339 -0.634958 0
M  V30 370 H 29.834 -2.20422 -3.17728 0
M  V30 371 H 31.523 -2.61648 -3.10315 0
M  V30 372 H 32.289 -4.58312 -1.58665 0
M  V30 373 H 28.168 -3.83504 -2.55823 0
M  V30 374 H 31.712 -6.90649 -0.982299 0
M  V30 375 H 27.609 -6.15069 -1.95858 0
M  V30 376 H 28.377 -8.09275 -1.22542 0
M  V30 377 N 31.0401 0.771051 -1.3745 0
M  V30 378 C 32.2681 1.56015 -1.35893 0
M  V30 379 C 32.6831 1.88718 0.0555523 0
M  V30 380 O 32.0401 1.51502 1.01752 0
M  V30 381 C 32.0911 2.87001 -2.19801 0
M  V30 382 O 31.8121 2.557 -3.55738 0
M  V30 383 C 33.3131 3.81228 -2.26231 0
M  V30 384 H 30.5331 0.483317 -0.465453 0
M  V30 385 H 33.0771 0.955611 -1.80799 0
M  V30 386 H 31.2321 3.43877 -1.78402 0
M  V30 387 H 31.6461 3.39584 -3.99729 0
M  V30 388 H 33.1201 4.70139 -2.89263 0
M  V30 389 H 33.5971 4.20409 -1.27093 0
M  V30 390 H 34.2031 3.30281 -2.67945 0
M  V30 391 N 32.5182 1.22032 0.997298 0
M  V30 392 C 33.9342 0.979326 1.26021 0
M  V30 393 C 34.1342 -0.32972 1.98784 0
M  V30 394 O 33.1902 -1.05345 2.29475 0
M  V30 395 C 34.5032 2.17509 2.07631 0
M  V30 396 C 36.0512 2.21817 2.2083 0
M  V30 397 C 36.5262 3.40933 3.05825 0
M  V30 398 N 38.0172 3.41067 3.13412 0
M  V30 399 C 38.7522 4.29885 3.79455 0
M  V30 400 N 38.2482 5.28914 4.47462 0
M  V30 401 N 40.0412 4.17673 3.76173 0
M  V30 402 H 32.1922 2.06202 0.509352 0
M  V30 403 H 34.4552 0.90334 0.287541 0
M  V30 404 H 34.1612 3.12415 1.61524 0
M  V30 405 H 34.0352 2.17206 3.08385 0
M  V30 406 H 36.4222 1.27462 2.66153 0
M  V30 407 H 36.5032 2.2616 1.1952 0
M  V30 408 H 36.1472 4.35586 2.61203 0
M  V30 409 H 36.0772 3.33829 4.07266 0
M  V30 410 H 38.5682 2.69406 2.65007 0
M  V30 411 H 38.8812 5.92973 4.95583 0
M  V30 412 H 37.2262 5.32831 4.46224 0
M  V30 413 H 40.4172 3.39564 3.22202 0
M  V30 414 H 40.5902 4.87098 4.27363 0
M  V30 415 N 33.9963 -1.19345 1.0293 0
M  V30 416 C 34.9263 -2.2481 0.631105 0
M  V30 417 C 35.9073 -1.66245 -0.360104 0
M  V30 418 O 37.0923 -1.92677 -0.242726 0
M  V30 419 C 34.2223 -3.47295 -0.0184607 0
M  V30 420 C 33.1763 -4.18536 0.895073 0
M  V30 421 C 32.5023 -5.34586 0.110592 0
M  V30 422 C 33.8023 -4.73287 2.209 0
M  V30 423 H 35.4963 -2.58372 1.51275 0
M  V30 424 H 33.0423 -1.24194 0.728818 0
M  V30 425 H 34.9953 -4.20268 -0.308675 0
M  V30 426 H 33.7193 -3.12933 -0.934907 0
M  V30 427 H 32.3783 -3.47446 1.16949 0
M  V30 428 H 32.0263 -4.96469 -0.807902 0
M  V30 429 H 31.7263 -5.83183 0.719087 0
M  V30 430 H 33.2503 -6.10355 -0.172871 0
M  V30 431 H 34.6643 -5.38013 1.98028 0
M  V30 432 H 33.0613 -5.32373 2.76946 0
M  V30 433 H 34.1313 -3.91331 2.86336 0
M  V30 434 N 35.4744 -0.807222 -1.35358 0
M  V30 435 C 36.7224 -0.387122 -1.98358 0
M  V30 436 C 37.0434 1.04942 -1.64354 0
M  V30 437 O 36.3134 1.72615 -0.926339 0
M  V30 438 H 34.8934 -0.140154 -0.733734 0
M  V30 439 H 37.5554 -1.0332 -1.6526 0
M  V30 440 H 36.6514 -0.493352 -3.08176 0
M  V30 441 N 36.9525 1.47285 -0.560781 0
M  V30 442 C 37.9005 2.31756 0.197942 0
M  V30 443 C 38.8945 1.43146 0.905854 0
M  V30 444 O 40.1005 1.59891 0.826733 0
M  V30 445 H 36.4755 0.747438 0.0827049 0
M  V30 446 H 38.4465 2.9359 -0.533629 0
M  V30 447 C 37.1955 3.25874 1.21249 0
M  V30 448 H 36.5185 3.94023 0.67719 0
M  V30 449 H 37.9585 3.87803 1.71419 0
M  V30 450 C 36.4175 2.49651 2.26221 0
M  V30 451 O 36.9475 2.24355 3.33208 0
M  V30 452 N 35.1535 2.10597 2.00243 0
M  V30 453 H 34.7005 2.31369 1.13252 0
M  V30 454 H 34.6585 1.59913 2.70694 0
M  V30 455 N 38.4306 0.297415 1.54768 0
M  V30 456 C 39.7076 -0.365847 1.92148 0
M  V30 457 C 40.0876 -1.71975 1.22424 0
M  V30 458 O 39.4356 -2.25666 0.358739 0
M  V30 459 C 39.6456 -0.484056 3.45627 0
M  V30 460 C 40.9936 -0.756594 4.17805 0
M  V30 461 O 42.0176 -0.568007 3.51642 0
M  V30 462 O 40.8766 -1.11863 5.34929 0
M  V30 463 H 37.9706 -0.203919 0.801465 0
M  V30 464 H 40.5166 0.34521 1.66152 0
M  V30 465 H 39.2886 0.467865 3.88493 0
M  V30 466 H 38.9116 -1.24372 3.77647 0
M  V30 467 N 39.9087 -1.5758 0.0250728 0
M  V30 468 C 41.1557 -1.91633 -0.654444 0
M  V30 469 C 41.4837 -0.901103 -1.72367 0
M  V30 470 O 40.7387 0.0905647 -1.9549 0
M  V30 471 C 41.0377 -3.32421 -1.31268 0
M  V30 472 C 40.7037 -4.49344 -0.374223 0
M  V30 473 C 39.3657 -4.8106 -0.115911 0
M  V30 474 C 41.7177 -5.20498 0.270432 0
M  V30 475 C 39.0457 -5.8129 0.79493 0
M  V30 476 C 41.3977 -6.21699 1.1693 0
M  V30 477 C 40.0617 -6.51859 1.43655 0
M  V30 478 H 39.3317 -0.701236 -0.239478 0
M  V30 479 H 41.9787 -1.91307 0.0859734 0
M  V30 480 H 40.2837 -3.28989 -2.12775 0
M  V30 481 H 41.9807 -3.56038 -1.84494 0
M  V30 482 H 38.5707 -4.24579 -0.58573 0
M  V30 483 H 42.7547 -4.96229 0.0839194 0
M  V30 484 H 38.0107 -6.03005 1.00973 0
M  V30 485 H 42.1847 -6.75955 1.67504 0
M  V30 486 H 39.8117 -7.2934 2.144 0
M  V30 487 N 41.3868 0.248026 -1.55636 0
M  V30 488 C 42.3368 1.30994 -1.86614 0
M  V30 489 C 43.3208 1.43543 -0.726918 0
M  V30 490 O 44.5128 1.46804 -0.988818 0
M  V30 491 C 41.6418 2.6656 -2.16335 0
M  V30 492 C 40.7278 2.58019 -3.36581 0
M  V30 493 N 41.1188 2.1911 -4.55878 0
M  V30 494 C 39.4168 2.89035 -3.39669 0
M  V30 495 C 40.1178 2.21174 -5.38012 0
M  V30 496 N 39.0938 2.60632 -4.77045 0
M  V30 497 H 42.8958 0.999583 -2.76379 0
M  V30 498 H 40.4098 0.456652 -1.55848 0
M  V30 499 H 42.4068 3.43194 -2.36692 0
M  V30 500 H 41.0668 2.98463 -1.27867 0
M  V30 501 H 42.0778 1.90672 -4.81523 0
M  V30 502 H 38.7548 3.25485 -2.61469 0
M  V30 503 H 40.1448 1.9344 -6.43452 0
M  V30 504 N 42.8649 1.48995 0.513639 0
M  V30 505 C 44.0929 1.61531 1.29288 0
M  V30 506 C 44.5079 0.281801 1.86685 0
M  V30 507 O 43.8649 -0.731111 1.67215 0
M  V30 508 C 43.9159 2.67449 2.43215 0
M  V30 509 O 43.6369 3.95626 1.88179 0
M  V30 510 C 45.1379 2.90575 3.34785 0
M  V30 511 H 42.3579 0.544165 0.392588 0
M  V30 512 H 44.9019 1.9494 0.617956 0
M  V30 513 H 43.0569 2.36853 3.0656 0
M  V30 514 H 43.4709 4.53868 2.62876 0
M  V30 515 H 44.9449 3.68449 4.11035 0
M  V30 516 H 45.4219 2.00011 3.91015 0
M  V30 517 H 46.0279 3.22538 2.77218 0
M  V30 518 N 44.343 -0.763751 1.37857 0
M  V30 519 C 45.291 -1.89864 1.34367 0
M  V30 520 C 46.285 -1.67816 0.231143 0
M  V30 521 O 47.491 -1.75508 0.399617 0
M  V30 522 H 43.866 -0.624501 0.41893 0
M  V30 523 H 45.837 -1.89925 2.30155 0
M  V30 524 C 44.586 -3.27227 1.1755 0
M  V30 525 H 43.909 -3.44773 2.02414 0
M  V30 526 H 45.349 -4.06911 1.1916 0
M  V30 527 C 43.808 -3.36692 -0.118311 0
M  V30 528 O 44.338 -3.86374 -1.09902 0
M  V30 529 N 42.544 -2.90092 -0.171717 0
M  V30 530 H 42.091 -2.49853 0.627012 0
M  V30 531 H 42.049 -2.96806 -1.03699 0
M  V30 532 N 45.8211 -1.22559 -0.990812 0
M  V30 533 C 46.7681 -0.997519 -2.0813 0
M  V30 534 C 47.7381 0.0814702 -1.659 0
M  V30 535 O 48.9231 -0.0685424 -1.90677 0
M  V30 536 C 46.0631 -0.583615 -3.40129 0
M  V30 537 C 45.1761 -1.7336 -3.9569 0
M  V30 538 C 44.3111 -1.26748 -5.15857 0
M  V30 539 C 43.3501 -2.38888 -5.63559 0
M  V30 540 N 42.4871 -1.93308 -6.74964 0
M  V30 541 H 47.3271 -1.93099 -2.26973 0
M  V30 542 H 44.8641 -0.962114 -1.11273 0
M  V30 543 H 46.8221 -0.324801 -4.15934 0
M  V30 544 H 45.4521 0.312845 -3.2128 0
M  V30 545 H 44.5041 -2.10669 -3.16738 0
M  V30 546 H 45.8161 -2.57704 -4.27071 0
M  V30 547 H 44.9701 -0.966173 -5.98957 0
M  V30 548 H 43.7091 -0.394272 -4.86104 0
M  V30 549 H 42.7141 -2.69805 -4.79046 0
M  V30 550 H 43.9391 -3.26728 -5.95336 0
M  V30 551 H 41.8851 -1.08352 -6.4699 0
M  V30 552 H 41.8021 -2.71217 -7.05675 0
M  V30 553 H 43.0701 -1.66252 -7.61564 0
M  V30 554 N 47.2992 1.18797 -1.03562 0
M  V30 555 C 48.7152 1.40671 -0.753917 0
M  V30 556 C 48.9152 1.9043 0.658686 0
M  V30 557 O 47.9712 2.08538 1.42366 0
M  V30 558 C 49.2842 2.41192 -1.79574 0
M  V30 559 C 50.8322 2.54928 -1.81606 0
M  V30 560 C 51.3072 3.58709 -2.84766 0
M  V30 561 N 52.7982 3.66212 -2.83625 0
M  V30 562 C 53.5332 4.46225 -3.60098 0
M  V30 563 N 53.0292 5.29888 -4.46308 0
M  V30 564 N 54.8222 4.40939 -3.4861 0
M  V30 565 H 46.9732 0.848221 -1.94728 0
M  V30 566 H 49.2362 0.435081 -0.842264 0
M  V30 567 H 48.9422 2.11669 -2.80872 0
M  V30 568 H 48.8162 3.40467 -1.62365 0
M  V30 569 H 51.2032 2.83771 -0.809817 0
M  V30 570 H 51.2842 1.55784 -2.02891 0
M  V30 571 H 50.9282 3.30607 -3.85566 0
M  V30 572 H 50.8582 4.57519 -2.60737 0
M  V30 573 H 53.3492 3.06466 -2.21105 0
M  V30 574 H 53.6622 5.88078 -5.01382 0
M  V30 575 H 52.0072 5.29326 -4.50377 0
M  V30 576 H 55.1982 3.74624 -2.80668 0
M  V30 577 H 55.3712 5.03056 -4.08459 0
M  V30 578 N 48.7773 0.814389 1.34928 0
M  V30 579 C 50.0233 0.399013 1.98836 0
M  V30 580 C 50.3563 -1.03314 1.64438 0
M  V30 581 O 49.6313 -1.71811 0.911659 0
M  V30 582 C 49.9143 0.591629 3.55207 0
M  V30 583 C 49.7673 2.06928 3.99376 0
M  V30 584 C 51.0863 0.022199 4.40094 0
M  V30 585 H 48.2053 0.146451 0.722303 0
M  V30 586 H 50.8473 1.02537 1.59957 0
M  V30 587 H 48.9973 0.0584441 3.88456 0
M  V30 588 H 50.6693 2.66544 3.76499 0
M  V30 589 H 48.9123 2.56287 3.49999 0
M  V30 590 H 49.5833 2.1549 5.08201 0
M  V30 591 H 52.0593 0.477643 4.13349 0
M  V30 592 H 50.9353 0.186832 5.48582 0
M  V30 593 H 51.1963 -1.07215 4.28902 0
M  V30 594 N 50.2554 -1.46986 0.568584 0
M  V30 595 C 51.4954 -2.04336 0.0512999 0
M  V30 596 C 51.8594 -1.43214 -1.27881 0
M  V30 597 O 53.0604 -1.91679 -1.88448 0
M  V30 598 C 51.3314 -3.57389 -0.0282328 0
M  V30 599 S 52.8904 -4.36056 -0.489991 0
M  V30 600 H 49.7084 -0.71034 0.0306349 0
M  V30 601 H 52.3104 -1.80212 0.757891 0
M  V30 602 H 51.0144 -3.99395 0.944011 0
M  V30 603 H 50.5454 -3.86028 -0.75803 0
M  V30 604 H 52.5604 -4.6441 -1.74752 0
M  V30 605 N 51.7335 -0.305618 -1.54608 0
M  V30 606 C 52.6435 0.57778 -2.27374 0
M  V30 607 C 53.6595 1.14451 -1.31061 0
M  V30 608 O 54.8355 1.16831 -1.6405 0
M  V30 609 C 51.9005 1.73123 -3.00382 0
M  V30 610 C 50.9615 1.19812 -4.12242 0
M  V30 611 C 50.1945 2.2966 -4.81759 0
M  V30 612 O 50.4175 3.49651 -4.50666 0
M  V30 613 O 49.3515 1.96091 -5.69062 0
M  V30 614 H 53.1775 -0.012624 -3.03697 0
M  V30 615 H 50.7625 -0.0719184 -1.49227 0
M  V30 616 H 52.6445 2.40315 -3.4616 0
M  V30 617 H 51.3195 2.30815 -2.26949 0
M  V30 618 H 50.2265 0.491798 -3.70853 0
M  V30 619 H 51.5595 0.666566 -4.87666 0
M  V30 620 N 53.2116 1.57565 -0.0334293 0
M  V30 621 C 54.1216 2.13943 0.962572 0
M  V30 622 C 55.1376 1.09276 1.35406 0
M  V30 623 O 56.3136 1.41355 1.4346 0
M  V30 624 C 53.3786 2.65887 2.22497 0
M  V30 625 C 52.4396 3.85286 1.8935 0
M  V30 626 C 51.6726 4.34743 3.09571 0
M  V30 627 O 51.8956 3.83352 4.22371 0
M  V30 628 O 50.8296 5.26538 2.91618 0
M  V30 629 H 54.6556 2.99333 0.513169 0
M  V30 630 H 52.2406 1.4822 0.18743 0
M  V30 631 H 54.1226 2.99346 2.96598 0
M  V30 632 H 52.7976 1.83578 2.6661 0
M  V30 633 H 51.7046 3.56746 1.1262 0
M  V30 634 H 53.0376 4.68771 1.5005 0
M  V30 635 N 54.6897 -0.239769 1.55765 0
M  V30 636 C 55.9387 -0.964754 1.77131 0
M  V30 637 C 56.2517 -1.86213 0.59868 0
M  V30 638 O 57.4577 -2.6244 0.695522 0
M  V30 639 C 55.9137 -1.76552 3.1362 0
M  V30 640 C 55.5217 -0.915185 4.38553 0
M  V30 641 C 57.2657 -2.48281 3.44321 0
M  V30 642 C 55.1727 -1.71225 5.66071 0
M  V30 643 H 54.1027 -0.363953 0.660344 0
M  V30 644 H 56.7537 -0.219181 1.82186 0
M  V30 645 H 55.1357 -2.55331 3.02691 0
M  V30 646 H 56.3097 -0.169217 4.60489 0
M  V30 647 H 54.6247 -0.310889 4.15238 0
M  V30 648 H 57.2217 -3.08382 4.36812 0
M  V30 649 H 57.5647 -3.20256 2.65973 0
M  V30 650 H 58.0977 -1.76507 3.56497 0
M  V30 651 H 54.8367 -1.03612 6.4726 0
M  V30 652 H 54.3567 -2.43331 5.48224 0
M  V30 653 H 56.0357 -2.27758 6.05587 0
M  V30 654 N 56.1678 -1.49265 -0.50573 0
M  V30 655 C 57.1308 -1.65075 -1.59006 0
M  V30 656 C 58.1308 -0.522768 -1.52065 0
M  V30 657 O 59.3208 -0.789117 -1.55302 0
M  V30 658 C 56.4528 -1.64369 -2.98656 0
M  V30 659 H 57.6458 -2.61784 -1.46319 0
M  V30 660 H 55.1988 -1.38226 -0.729616 0
M  V30 661 H 55.9338 -0.692272 -3.16825 0
M  V30 662 H 55.7188 -2.46282 -3.05103 0
M  V30 663 H 57.2088 -1.78674 -3.77446 0
M  V30 664 N 57.6459 0.756429 -1.3826 0
M  V30 665 C 58.8949 1.51082 -1.3363 0
M  V30 666 C 59.2079 1.95467 0.0720068 0
M  V30 667 O 60.4139 2.7043 0.240834 0
M  V30 668 C 58.8699 2.72893 -2.34644 0
M  V30 669 C 58.4779 2.35544 -3.81081 0
M  V30 670 C 60.2219 3.50791 -2.39052 0
M  V30 671 C 58.1289 3.53948 -4.73787 0
M  V30 672 H 57.0589 0.56727 -0.49671 0
M  V30 673 H 59.7099 0.827147 -1.638 0
M  V30 674 H 58.0919 3.43227 -1.97513 0
M  V30 675 H 59.2659 1.72894 -4.27135 0
M  V30 676 H 57.5809 1.70786 -3.79764 0
M  V30 677 H 60.1779 4.38823 -3.05513 0
M  V30 678 H 60.5209 3.91745 -1.40861 0
M  V30 679 H 61.0539 2.87467 -2.74968 0
M  V30 680 H 57.7929 3.18064 -5.73163 0
M  V30 681 H 57.3129 4.15651 -4.32428 0
M  V30 682 H 58.9919 4.20566 -4.91663 0
M  V30 683 N 59.124 1.23083 0.984299 0
M  V30 684 C 60.373 1.05466 1.71929 0
M  V30 685 C 60.686 -0.409211 1.91272 0
M  V30 686 O 61.892 -0.705226 2.62181 0
M  V30 687 C 60.348 1.83874 3.09384 0
M  V30 688 C 59.956 3.34566 2.97943 0
M  V30 689 C 61.7 1.74734 3.8687 0
M  V30 690 C 59.607 4.05381 4.30605 0
M  V30 691 H 58.537 0.391039 0.644674 0
M  V30 692 H 61.188 1.47013 1.09815 0
M  V30 693 H 59.57 1.35131 3.72231 0
M  V30 694 H 60.744 3.90767 2.44209 0
M  V30 695 H 59.059 3.44476 2.33934 0
M  V30 696 H 61.656 2.24957 4.85076 0
M  V30 697 H 61.999 0.709372 4.10212 0
M  V30 698 H 62.532 2.21067 3.30717 0
M  V30 699 H 59.271 5.09467 4.1246 0
M  V30 700 H 58.791 3.53967 4.84218 0
M  V30 701 H 60.47 4.11458 4.99311 0
M  V30 702 N 60.6021 -1.18246 1.0419 0
M  V30 703 C 62.0131 -1.69914 0.773698 0
M  V30 704 C 62.3641 -1.83085 -0.705297 0
M  V30 705 O 61.4891 -1.51123 -1.5489 0
M  V30 706 C 62.0841 -3.08619 1.39784 0
M  V30 707 C 60.6431 -3.57494 1.17792 0
M  V30 708 C 59.7901 -2.34013 1.48773 0
M  V30 709 H 62.7411 -1.02904 1.20816 0
M  V30 710 H 62.7621 -3.71958 0.801714 0
M  V30 711 H 62.2741 -2.99001 2.47426 0
M  V30 712 H 60.3751 -3.72406 0.120295 0
M  V30 713 H 60.4881 -4.40852 1.87581 0
M  V30 714 H 58.8521 -2.37986 0.907463 0
M  V30 715 H 59.6351 -2.27013 2.57527 0
M  V30 716 N 62.0802 -0.821533 -1.34494 0
M  V30 717 C 63.3052 -0.420873 -2.03085 0
M  V30 718 C 63.7302 0.964915 -1.61465 0
M  V30 719 O 63.0882 1.62763 -0.798607 0
M  V30 720 C 63.1362 -0.529414 -3.56693 0
M  V30 721 O 62.2402 0.451302 -4.09923 0
M  V30 722 H 61.5812 -0.173489 -0.640935 0
M  V30 723 H 64.1112 -1.11157 -1.71771 0
M  V30 724 H 64.1212 -0.404671 -4.05988 0
M  V30 725 H 62.7962 -1.54014 -3.86332 0
M  V30 726 H 61.3732 0.285558 -3.71805 0
M  V30 727 N 63.5583 1.46682 -0.576371 0
M  V30 728 C 64.5053 2.30241 0.160499 0
M  V30 729 C 65.4753 1.40233 0.890162 0
M  V30 730 O 66.6603 1.69186 0.882084 0
M  V30 731 C 63.8003 3.24578 1.1723 0
M  V30 732 C 62.9133 4.29684 0.446736 0
M  V30 733 C 62.0483 5.11154 1.44551 0
M  V30 734 C 61.0873 6.08015 0.70599 0
M  V30 735 N 60.2243 6.82376 1.65251 0
M  V30 736 H 65.0643 2.92727 -0.558127 0
M  V30 737 H 62.6013 1.44272 -0.287056 0
M  V30 738 H 64.5593 3.77711 1.77172 0
M  V30 739 H 63.1893 2.63916 1.85872 0
M  V30 740 H 62.2413 3.79458 -0.267594 0
M  V30 741 H 63.5533 4.98626 -0.131686 0
M  V30 742 H 62.7073 5.68533 2.11791 0
M  V30 743 H 61.4463 4.42158 2.05786 0
M  V30 744 H 60.4513 5.49796 0.0197725 0
M  V30 745 H 61.6763 6.79028 0.09912 0
M  V30 746 H 59.6223 6.16094 2.25308 0
M  V30 747 H 59.5393 7.47556 1.12673 0
M  V30 748 H 60.8073 7.44316 2.31546 0
M  V30 749 N 65.0364 0.313813 1.54444 0
M  V30 750 C 65.9834 -0.55655 2.23989 0
M  V30 751 C 66.9534 -1.11943 1.22711 0
M  V30 752 O 68.1384 -1.16158 1.51367 0
M  V30 753 C 65.2784 -1.71635 2.99392 0
M  V30 754 C 64.3914 -1.18364 4.15468 0
M  V30 755 C 63.5264 -2.30834 4.78424 0
M  V30 756 C 62.5654 -1.74762 5.86622 0
M  V30 757 N 61.7024 -2.80855 6.43479 0
M  V30 758 H 66.5424 0.0430893 2.97969 0
M  V30 759 H 64.0794 0.0330359 1.47063 0
M  V30 760 H 66.0374 -2.39868 3.41349 0
M  V30 761 H 64.6674 -2.28742 2.27765 0
M  V30 762 H 63.7194 -0.393163 3.78363 0
M  V30 763 H 65.0314 -0.733262 4.93381 0
M  V30 764 H 64.1854 -3.0699 5.23299 0
M  V30 765 H 62.9244 -2.79204 3.99871 0
M  V30 766 H 61.9294 -0.970995 5.41158 0
M  V30 767 H 63.1544 -1.2728 6.67066 0
M  V30 768 H 61.1004 -3.28535 5.67804 0
M  V30 769 H 61.0174 -2.40351 7.16776 0
M  V30 770 H 62.2854 -3.5687 6.93011 0
M  V30 771 N 66.5145 -1.57545 0.0417849 0
M  V30 772 C 67.4445 -2.14009 -0.933929 0
M  V30 773 C 68.4255 -1.05938 -1.33083 0
M  V30 774 O 69.6105 -1.33833 -1.40721 0
M  V30 775 C 66.7405 -2.67747 -2.21199 0
M  V30 776 C 65.6945 -3.80718 -1.95544 0
M  V30 777 C 65.0205 -4.20935 -3.29724 0
M  V30 778 C 66.3205 -5.06258 -1.28452 0
M  V30 779 H 68.0145 -2.95788 -0.463645 0
M  V30 780 H 65.5605 -1.42285 -0.221573 0
M  V30 781 H 67.5135 -3.05886 -2.89848 0
M  V30 782 H 66.2375 -1.83147 -2.70416 0
M  V30 783 H 64.8965 -3.43037 -1.2931 0
M  V30 784 H 64.5445 -3.33298 -3.76724 0
M  V30 785 H 64.2445 -4.9707 -3.13361 0
M  V30 786 H 65.7685 -4.61666 -3.9962 0
M  V30 787 H 67.1825 -5.41903 -1.8712 0
M  V30 788 H 65.5795 -5.87475 -1.22445 0
M  V30 789 H 66.6495 -4.84207 -0.259219 0
M  V30 790 N 67.9926 0.231505 -1.5589 0
M  V30 791 C 69.4086 0.580748 -1.48659 0
M  V30 792 C 69.6086 1.87617 -0.73498 0
M  V30 793 O 68.6646 2.51046 -0.270586 0
M  V30 794 C 69.9776 0.669202 -2.93159 0
M  V30 795 C 71.5256 0.760499 -3.03621 0
M  V30 796 C 72.0006 0.880383 -4.49459 0
M  V30 797 N 73.4916 0.944861 -4.53461 0
M  V30 798 C 74.2266 1.05716 -5.63571 0
M  V30 799 N 73.7226 1.13403 -6.83456 0
M  V30 800 N 75.5156 1.09152 -5.514 0
M  V30 801 H 67.6666 -0.618695 -2.03189 0
M  V30 802 H 69.9296 -0.215728 -0.923128 0
M  V30 803 H 69.6356 -0.212904 -3.51055 0
M  V30 804 H 69.5096 1.5361 -3.44505 0
M  V30 805 H 71.8966 1.63305 -2.45796 0
M  V30 806 H 71.9776 -0.131864 -2.5546 0
M  V30 807 H 71.6216 0.0123284 -5.07899 0
M  V30 808 H 71.5516 1.78802 -4.95316 0
M  V30 809 H 74.0426 0.896176 -3.6712 0
M  V30 810 H 74.3556 1.21921 -7.63122 0
M  V30 811 H 72.7006 1.10333 -6.86186 0
M  V30 812 H 75.8916 1.02805 -4.56671 0
M  V30 813 H 76.0646 1.17558 -6.37247 0
M  V30 814 N 69.4707 1.49531 0.497807 0
M  V30 815 C 70.4187 1.66926 1.61983 0
M  V30 816 C 71.4127 0.535167 1.60724 0
M  V30 817 O 72.6187 0.714896 1.65195 0
M  V30 818 H 68.9937 0.526415 0.537021 0
M  V30 819 H 70.9647 2.61098 1.44465 0
M  V30 820 C 69.7137 1.75602 3.00099 0
M  V30 821 H 69.0367 2.62244 3.01775 0
M  V30 822 H 70.4767 1.91807 3.78135 0
M  V30 823 C 68.9357 0.501543 3.33146 0
M  V30 824 O 69.4657 -0.371342 3.9998 0
M  V30 825 N 67.6717 0.363531 2.88317 0
M  V30 826 H 67.2187 1.07485 2.34104 0
M  V30 827 H 67.1767 -0.474728 3.10795 0
M  V30 828 N 70.9488 -0.749086 1.3866 0
M  V30 829 C 71.8958 -1.86291 1.36251 0
M  V30 830 C 72.8658 -1.64578 0.224347 0
M  V30 831 O 74.0508 -1.86181 0.417279 0
M  V30 832 C 71.1908 -3.23644 1.19786 0
M  V30 833 C 70.3038 -3.57158 2.43027 0
M  V30 834 C 69.4388 -4.83838 2.19258 0
M  V30 835 C 68.4778 -5.10152 3.38247 0
M  V30 836 N 67.6148 -6.28029 3.13884 0
M  V30 837 H 72.4548 -1.87685 2.3147 0
M  V30 838 H 69.9918 -0.917287 1.14997 0
M  V30 839 H 71.9498 -4.0291 1.08254 0
M  V30 840 H 70.5798 -3.21566 0.282031 0
M  V30 841 H 69.6318 -2.72701 2.65214 0
M  V30 842 H 70.9438 -3.7253 3.31697 0
M  V30 843 H 70.0978 -5.71057 2.04888 0
M  V30 844 H 68.8368 -4.70614 1.2796 0
M  V30 845 H 67.8418 -4.21401 3.53131 0
M  V30 846 H 69.0668 -5.25271 4.30427 0
M  V30 847 H 67.0128 -6.1612 2.25238 0
M  V30 848 H 66.9298 -6.43922 3.96106 0
M  V30 849 H 68.1978 -7.18124 3.03179 0
M  V30 850 N 72.4269 -1.23603 -0.977757 0
M  V30 851 C 73.6759 -1.06377 -1.71368 0
M  V30 852 C 73.9889 0.399062 -1.91486 0
M  V30 853 O 75.1949 0.691312 -2.62551 0
M  V30 854 C 73.6509 -1.85512 -3.08404 0
M  V30 855 C 73.2589 -3.36141 -2.96164 0
M  V30 856 C 75.0029 -1.76783 -3.85938 0
M  V30 857 C 72.9099 -4.07659 -4.28449 0
M  V30 858 H 71.8399 -0.394452 -0.642591 0
M  V30 859 H 74.4909 -1.47594 -1.09034 0
M  V30 860 H 72.8729 -1.37103 -3.71509 0
M  V30 861 H 74.0469 -3.92056 -2.42133 0
M  V30 862 H 72.3619 -3.45712 -2.32104 0
M  V30 863 H 74.9589 -2.27526 -4.83876 0
M  V30 864 H 75.3019 -0.731116 -4.0983 0
M  V30 865 H 75.8349 -2.22818 -3.2954 0
M  V30 866 H 72.5739 -5.11648 -4.09752 0
M  V30 867 H 72.0939 -3.5653 -4.82334 0
M  V30 868 H 73.7729 -4.141 -4.97122 0
M  V30 869 N 73.905 1.17692 -1.04816 0
M  V30 870 C 74.868 2.19787 -0.650117 0
M  V30 871 C 75.868 1.58044 0.296427 0
M  V30 872 O 77.058 1.74012 0.0808097 0
M  V30 873 C 74.19 3.40869 0.0456987 0
M  V30 874 H 75.383 2.56516 -1.5537 0
M  V30 875 H 72.936 1.31708 -0.841594 0
M  V30 876 H 73.671 3.09681 0.962726 0
M  V30 877 H 73.456 3.86928 -0.634727 0
M  V30 878 H 74.946 4.16445 0.310432 0
M  V30 879 N 75.3831 0.828654 1.34056 0
M  V30 880 C 76.6311 0.41863 1.97717 0
M  V30 881 C 76.9521 -1.02314 1.66002 0
M  V30 882 O 76.2221 -1.71119 0.953683 0
M  V30 883 H 74.8021 0.151809 0.731412 0
M  V30 884 H 77.4641 1.05936 1.63596 0
M  V30 885 H 76.5601 0.542318 3.07352 0
M  V30 886 N 76.8612 -1.46375 0.584142 0
M  V30 887 C 78.0912 -2.06461 0.0758195 0
M  V30 888 C 78.4992 -1.43322 -1.23512 0
M  V30 889 O 77.8422 -0.533216 -1.75791 0
M  V30 890 C 77.9042 -3.59131 -0.162773 0
M  V30 891 C 77.5682 -4.4447 1.06279 0
M  V30 892 C 78.5652 -4.80918 1.97519 0
M  V30 893 C 76.2502 -4.85584 1.28504 0
M  V30 894 C 78.2442 -5.57309 3.09331 0
M  V30 895 C 75.9312 -5.61734 2.4062 0
M  V30 896 C 76.9292 -5.9751 3.30863 0
M  V30 897 O 76.6172 -6.72121 4.41032 0
M  V30 898 H 76.3492 -0.673745 0.0551725 0
M  V30 899 H 78.9032 -1.88969 0.804984 0
M  V30 900 H 77.1332 -3.74936 -0.946565 0
M  V30 901 H 78.8222 -4.0114 -0.619782 0
M  V30 902 H 79.5882 -4.49732 1.81565 0
M  V30 903 H 75.4672 -4.57187 0.591702 0
M  V30 904 H 79.0112 -5.85152 3.79793 0
M  V30 905 H 74.9082 -5.92334 2.56537 0
M  V30 906 H 75.6762 -6.90547 4.39417 0
M  V30 907 N 78.3393 -0.321999 -1.54275 0
M  V30 908 C 79.5853 0.281461 -2.00837 0
M  V30 909 C 79.9183 1.51909 -1.20985 0
M  V30 910 O 79.1933 1.923 -0.291733 0
M  V30 911 C 79.4763 0.617162 -3.54772 0
M  V30 912 C 79.3293 -0.631064 -4.45351 0
M  V30 913 C 80.6483 1.43542 -4.16033 0
M  V30 914 H 77.7673 0.100826 -0.730071 0
M  V30 915 H 80.4093 -0.438268 -1.84876 0
M  V30 916 H 78.5593 1.23034 -3.68504 0
M  V30 917 H 80.2313 -1.26934 -4.43492 0
M  V30 918 H 78.4743 -1.26025 -4.15091 0
M  V30 919 H 79.1453 -0.351735 -5.50878 0
M  V30 920 H 81.6213 0.917134 -4.05867 0
M  V30 921 H 80.4973 1.63907 -5.23856 0
M  V30 922 H 80.7583 2.43108 -3.69257 0
M  V30 923 N 79.8174 1.5752 -0.0501392 0
M  V30 924 C 81.0454 1.96963 0.633492 0
M  V30 925 C 81.4604 0.927631 1.6444 0
M  V30 926 O 80.8174 -0.0882665 1.82286 0
M  V30 927 C 80.8684 3.36487 1.32132 0
M  V30 928 O 80.5894 4.36693 0.350894 0
M  V30 929 C 82.0904 3.90682 2.09481 0
M  V30 930 H 79.3104 0.648244 0.173266 0
M  V30 931 H 81.8544 2.0417 -0.116134 0
M  V30 932 H 80.0094 3.30434 2.02218 0
M  V30 933 H 80.4234 5.17702 0.841735 0
M  V30 934 H 81.8974 4.90591 2.5303 0
M  V30 935 H 82.3744 3.26053 2.94255 0
M  V30 936 H 82.9804 4.00069 1.44307 0
M  V30 937 N 81.2955 -0.223234 1.56011 0
M  V30 938 C 82.2455 -1.28008 1.88674 0
M  V30 939 C 83.2295 -1.42369 0.749663 0
M  V30 940 O 84.4215 -1.45212 1.01205 0
M  V30 941 C 81.5505 -2.63084 2.20548 0
M  V30 942 C 80.6365 -2.52632 3.40643 0
M  V30 943 N 81.0275 -2.11829 4.59306 0
M  V30 944 C 79.3255 -2.83594 3.44224 0
M  V30 945 C 80.0265 -2.12587 5.41463 0
M  V30 946 N 79.0025 -2.5301 4.81131 0
M  V30 947 H 82.8045 -0.955487 2.77935 0
M  V30 948 H 80.3185 -0.431801 1.56554 0
M  V30 949 H 82.3155 -3.39385 2.42122 0
M  V30 950 H 80.9755 -2.96391 1.32599 0
M  V30 951 H 81.9865 -1.82988 4.84496 0
M  V30 952 H 78.6635 -3.21284 2.66614 0
M  V30 953 H 80.0535 -1.83179 6.46448 0
M  V30 954 N 82.7736 -1.49793 -0.48987 0
M  V30 955 C 83.7036 -1.70201 -1.59856 0
M  V30 956 C 84.6846 -0.55076 -1.60937 0
M  V30 957 O 85.8696 -0.787841 -1.77501 0
M  V30 958 C 82.9996 -1.77882 -2.98287 0
M  V30 959 C 81.9536 -2.92907 -3.12073 0
M  V30 960 C 81.2796 -2.85712 -4.51965 0
M  V30 961 C 82.5796 -4.3369 -2.91051 0
M  V30 962 H 84.2736 -2.63025 -1.43032 0
M  V30 963 H 81.8196 -1.26574 -0.686664 0
M  V30 964 H 83.7726 -1.90744 -3.75759 0
M  V30 965 H 82.4966 -0.816653 -3.16225 0
M  V30 966 H 81.1556 -2.79665 -2.37029 0
M  V30 967 H 80.8036 -1.8738 -4.66795 0
M  V30 968 H 80.5036 -3.62921 -4.62128 0
M  V30 969 H 82.0276 -3.00598 -5.31482 0
M  V30 970 H 83.4416 -4.47555 -3.58284 0
M  V30 971 H 81.8386 -5.12205 -3.12675 0
M  V30 972 H 82.9086 -4.47362 -1.87071 0
M  V30 973 N 84.2517 0.741722 -1.39055 0
M  V30 974 C 85.1847 1.86416 -1.31622 0
M  V30 975 C 86.1627 1.61473 -0.191076 0
M  V30 976 O 87.3467 1.84825 -0.370399 0
M  V30 977 C 84.4737 3.22266 -1.04221 0
M  V30 978 C 83.5197 3.66079 -2.18834 0
M  V30 979 S 84.3527 3.7623 -3.81066 0
M  V30 980 C 85.5087 5.14881 -3.55877 0
M  V30 981 H 85.7417 1.92437 -2.26617 0
M  V30 982 H 83.2747 0.905907 -1.25031 0
M  V30 983 H 85.2327 4.00714 -0.890964 0
M  V30 984 H 83.8937 3.1391 -0.109237 0
M  V30 985 H 83.0867 4.64648 -1.95238 0
M  V30 986 H 82.6887 2.94817 -2.30128 0
M  V30 987 H 84.9807 6.01006 -3.12726 0
M  V30 988 H 85.9237 5.43503 -4.53884 0
M  V30 989 H 86.3317 4.84239 -2.90126 0
M  V30 990 N 85.7298 1.2412 0.971189 0
M  V30 991 C 86.6768 1.0305 2.06517 0
M  V30 992 C 87.6468 -0.0550666 1.66009 0
M  V30 993 O 88.8318 0.0988688 1.90544 0
M  V30 994 C 85.9718 0.637653 3.39158 0
M  V30 995 C 85.0848 1.79633 3.92882 0
M  V30 996 C 84.2198 1.34939 5.13775 0
M  V30 997 C 83.2588 2.47823 5.59687 0
M  V30 998 N 82.3958 2.04022 6.71803 0
M  V30 999 H 87.2358 1.96685 2.23873 0
M  V30 1000 H 84.7728 0.979694 1.09729 0
M  V30 1001 H 86.7308 0.390931 4.15364 0
M  V30 1002 H 85.3608 -0.261693 3.21737 0
M  V30 1003 H 84.4128 2.15681 3.13346 0
M  V30 1004 H 85.7248 2.64466 4.22918 0
M  V30 1005 H 84.8788 1.06134 5.97345 0
M  V30 1006 H 83.6178 0.471557 4.85415 0
M  V30 1007 H 82.6228 2.77392 4.74693 0
M  V30 1008 H 83.8478 3.36158 5.90063 0
M  V30 1009 H 81.7938 1.18632 6.45184 0
M  V30 1010 H 81.7108 2.82409 7.01271 0
M  V30 1011 H 82.9788 1.78347 7.58823 0
M  V30 1012 N 87.2079 -1.17134 1.05439 0
M  V30 1013 C 88.6239 -1.39454 0.776201 0
M  V30 1014 C 88.8239 -1.91454 -0.628307 0
M  V30 1015 O 87.8799 -2.10777 -1.39031 0
M  V30 1016 C 89.1929 -2.38305 1.83388 0
M  V30 1017 C 90.7409 -2.52006 1.85639 0
M  V30 1018 C 91.2159 -3.54133 2.90437 0
M  V30 1019 N 92.7069 -3.61653 2.89415 0
M  V30 1020 C 93.4419 -4.4044 3.67152 0
M  V30 1021 N 92.9379 -5.22721 4.54681 0
M  V30 1022 N 94.7309 -4.35337 3.55581 0
M  V30 1023 H 86.8819 -0.817134 1.96053 0
M  V30 1024 H 89.1449 -0.421626 0.849079 0
M  V30 1025 H 88.8509 -2.07173 2.84204 0
M  V30 1026 H 88.7249 -3.37841 1.67761 0
M  V30 1027 H 91.1119 -2.82447 0.85486 0
M  V30 1028 H 91.1929 -1.52537 2.05344 0
M  V30 1029 H 90.8369 -3.24431 3.90777 0
M  V30 1030 H 90.7669 -4.53313 2.67983 0
M  V30 1031 H 93.2579 -3.02909 2.25952 0
M  V30 1032 H 93.5709 -5.80027 5.10674 0
M  V30 1033 H 91.9159 -5.22093 4.58741 0
M  V30 1034 H 95.1069 -3.70112 2.86592 0
M  V30 1035 H 95.2799 -4.96494 4.1641 0
M  V30 1036 N 88.686 -0.835752 -1.33615 0
M  V30 1037 C 89.935 -0.426289 -1.97144 0
M  V30 1038 C 90.248 1.01912 -1.66953 0
M  V30 1039 O 91.454 1.53311 -2.24072 0
M  V30 1040 C 89.91 -0.711321 -3.52801 0
M  V30 1041 C 89.518 -2.1712 -3.91871 0
M  V30 1042 C 91.262 -0.368654 -4.22896 0
M  V30 1043 C 89.169 -2.40044 -5.40493 0
M  V30 1044 H 88.099 -0.15567 -0.737755 0
M  V30 1045 H 90.75 -1.0239 -1.52278 0
M  V30 1046 H 89.132 -0.0433766 -3.95976 0
M  V30 1047 H 90.306 -2.87936 -3.59763 0
M  V30 1048 H 88.621 -2.47654 -3.34749 0
M  V30 1049 H 91.218 -0.517601 -5.32189 0
M  V30 1050 H 91.561 0.688078 -4.10574 0
M  V30 1051 H 92.094 -0.991702 -3.8524 0
M  V30 1052 H 88.833 -3.44271 -5.57815 0
M  V30 1053 H 88.353 -1.73785 -5.74072 0
M  V30 1054 H 90.032 -2.23042 -6.0734 0
M  V30 1055 N 90.1641 1.46063 -0.591896 0
M  V30 1056 C 91.0961 2.28539 0.174001 0
M  V30 1057 C 92.1091 1.39047 0.846753 0
M  V30 1058 O 93.2981 1.63564 0.714774 0
M  V30 1059 C 90.3981 3.14347 1.26645 0
M  V30 1060 C 89.5711 4.32021 0.683856 0
M  V30 1061 C 88.6301 4.99157 1.66518 0
M  V30 1062 O 87.6561 5.56458 1.19763 0
M  V30 1063 N 88.8581 4.97005 2.99943 0
M  V30 1064 H 91.6231 2.94911 -0.533633 0
M  V30 1065 H 89.1841 1.56077 -0.430294 0
M  V30 1066 H 91.1761 3.56125 1.92242 0
M  V30 1067 H 89.7461 2.49988 1.87682 0
M  V30 1068 H 88.9661 3.93915 -0.1498 0
M  V30 1069 H 90.2541 5.08059 0.274567 0
M  V30 1070 H 89.6521 4.51714 3.40545 0
M  V30 1071 H 88.2091 5.42696 3.61004 0
M  V30 1072 N 91.6422 0.330177 1.54103 0
M  V30 1073 C 93.0582 -0.0222371 1.59585 0
M  V30 1074 C 93.2582 -1.49902 1.34654 0
M  V30 1075 O 92.3142 -2.25592 1.13421 0
M  V30 1076 C 93.6272 0.401932 2.98002 0
M  V30 1077 C 95.1752 0.353145 3.11001 0
M  V30 1078 C 95.6502 0.752576 4.51775 0
M  V30 1079 N 97.1412 0.706239 4.57784 0
M  V30 1080 C 97.8762 0.987417 5.64834 0
M  V30 1081 N 97.3722 1.33607 6.79795 0
M  V30 1082 N 99.1652 0.91254 5.54643 0
M  V30 1083 H 91.3162 1.29228 1.68564 0
M  V30 1084 H 93.5792 0.525906 0.78875 0
M  V30 1085 H 93.2852 1.4311 3.21267 0
M  V30 1086 H 93.1592 -0.229699 3.765 0
M  V30 1087 H 95.5462 -0.666822 2.87467 0
M  V30 1088 H 95.6272 1.0198 2.34593 0
M  V30 1089 H 95.2712 1.77049 4.76042 0
M  V30 1090 H 95.2012 0.0635409 5.26562 0
M  V30 1091 H 97.6922 0.44889 3.75224 0
M  V30 1092 H 98.0052 1.53582 7.57385 0
M  V30 1093 H 96.3502 1.37439 6.81275 0
M  V30 1094 H 99.5412 0.639601 4.6371 0
M  V30 1095 H 99.7142 1.13503 6.37982 0
M  V30 1096 N 93.1203 -1.57491 0.0584922 0
M  V30 1097 C 94.3683 -1.92597 -0.612436 0
M  V30 1098 C 94.6893 -0.938162 -1.70949 0
M  V30 1099 O 93.9593 0.0158301 -1.95894 0
M  V30 1100 H 92.5393 -0.710964 -0.229214 0
M  V30 1101 H 95.2013 -1.94571 0.113218 0
M  V30 1102 H 94.2973 -2.94038 -1.04633 0
M  V30 1103 N 94.5984 0.214957 -1.56127 0
M  V30 1104 C 96.0094 0.781386 -1.69562 0
M  V30 1105 C 96.3604 1.84707 -0.66165 0
M  V30 1106 O 95.4854 2.156 0.185927 0
M  V30 1107 C 96.0804 1.42411 -3.07416 0
M  V30 1108 C 94.6394 1.93786 -3.22683 0
M  V30 1109 C 93.7864 0.800438 -2.65496 0
M  V30 1110 H 96.7374 -0.00980633 -1.58697 0
M  V30 1111 H 96.7584 2.29309 -3.0364 0
M  V30 1112 H 96.2704 0.64826 -3.82648 0
M  V30 1113 H 94.3714 2.74152 -2.52332 0
M  V30 1114 H 94.4844 2.1133 -4.29973 0
M  V30 1115 H 92.8484 1.2095 -2.2415 0
M  V30 1116 H 93.6314 0.0371471 -3.4328 0
M  V30 1117 N 96.0765 1.50051 0.48192 0
M  V30 1118 C 97.3225 1.60736 1.2366 0
M  V30 1119 C 97.6555 0.301786 1.91841 0
M  V30 1120 O 96.9305 -0.696025 1.8162 0
M  V30 1121 C 97.2135 2.78009 2.28874 0
M  V30 1122 C 97.0665 4.18416 1.65069 0
M  V30 1123 C 98.3855 2.90867 3.30279 0
M  V30 1124 H 95.5045 0.585031 0.448228 0
M  V30 1125 H 98.1465 1.82402 0.531946 0
M  V30 1126 H 96.2965 2.59667 2.88973 0
M  V30 1127 H 97.9685 4.48322 1.0865 0
M  V30 1128 H 96.2115 4.23177 0.954148 0
M  V30 1129 H 96.8825 4.96381 2.41474 0
M  V30 1130 H 99.3585 3.07623 2.80191 0
M  V30 1131 H 98.2345 3.74566 4.01238 0
M  V30 1132 H 98.4955 2.01021 3.93755 0
M  V30 1133 N 97.5546 -0.734337 1.39446 0
M  V30 1134 C 98.9706 -1.03997 1.21065 0
M  V30 1135 C 99.1706 -2.01369 0.0727019 0
M  V30 1136 O 98.2266 -2.45856 -0.575426 0
M  V30 1137 C 99.5396 -1.60163 2.54496 0
M  V30 1138 C 101.088 -1.7224 2.61347 0
M  V30 1139 C 101.563 -2.31814 3.95002 0
M  V30 1140 N 103.054 -2.39223 3.96644 0
M  V30 1141 C 103.789 -2.86258 4.96834 0
M  V30 1142 N 103.285 -3.33184 6.07421 0
M  V30 1143 N 105.078 -2.85473 4.84213 0
M  V30 1144 H 97.2286 -0.0885624 2.12215 0
M  V30 1145 H 99.4916 -0.10191 0.942506 0
M  V30 1146 H 99.1976 -0.960811 3.38321 0
M  V30 1147 H 99.0716 -2.5896 2.74262 0
M  V30 1148 H 101.459 -2.35443 1.77906 0
M  V30 1149 H 101.54 -0.720939 2.4543 0
M  V30 1150 H 101.184 -1.69238 4.78875 0
M  V30 1151 H 101.114 -3.32638 4.08239 0
M  V30 1152 H 103.605 -2.06057 3.16779 0
M  V30 1153 H 103.918 -3.67586 6.7978 0
M  V30 1154 H 102.263 -3.31191 6.11013 0
M  V30 1155 H 105.454 -2.48136 3.96921 0
M  V30 1156 H 105.627 -3.21814 5.62441 0
M  V30 1157 N 99.0327 -1.24633 -0.964593 0
M  V30 1158 C 100.281 -1.08573 -1.70459 0
M  V30 1159 C 100.602 0.375655 -1.91347 0
M  V30 1160 O 99.8717 1.26779 -1.49345 0
M  V30 1161 H 98.4517 -0.398784 -0.631649 0
M  V30 1162 H 101.114 -1.56601 -1.16026 0
M  V30 1163 H 100.21 -1.58623 -2.68785 0
M  V30 1164 N 100.511 1.16574 -1.06058 0
M  V30 1165 C 101.76 1.86385 -0.770944 0
M  V30 1166 C 102.073 1.82448 0.705129 0
M  V30 1167 O 103.279 2.47815 1.10905 0
M  V30 1168 C 101.735 3.34466 -1.32893 0
M  V30 1169 C 101.343 3.46883 -2.83507 0
M  V30 1170 C 103.087 4.09548 -1.11672 0
M  V30 1171 C 100.994 4.89036 -3.32562 0
M  V30 1172 H 99.9238 0.698181 -0.284709 0
M  V30 1173 H 102.575 1.31583 -1.27899 0
M  V30 1174 H 100.957 3.88859 -0.748662 0
M  V30 1175 H 102.131 3.02663 -3.47465 0
M  V30 1176 H 100.446 2.85232 -3.03368 0
M  V30 1177 H 103.043 5.14434 -1.45814 0
M  V30 1178 H 103.386 4.16264 -0.0549535 0
M  V30 1179 H 103.919 3.61387 -1.66265 0
M  V30 1180 H 100.658 4.87499 -4.38207 0
M  V30 1181 H 100.178 5.3389 -2.73351 0
M  V30 1182 H 101.857 5.57843 -3.2775 0
M  V30 1183 N 101.989 0.842826 1.3317 0
M  V30 1184 C 103.214 0.453129 2.02389 0
M  V30 1185 C 103.639 -0.939105 1.6298 0
M  V30 1186 O 102.997 -1.61472 0.8244 0
M  V30 1187 C 103.045 0.586094 3.55805 0
M  V30 1188 O 102.149 -0.386029 4.10589 0
M  V30 1189 H 101.49 0.183664 0.638094 0
M  V30 1190 H 104.02 1.13875 1.69981 0
M  V30 1191 H 104.03 0.469209 4.05293 0
M  V30 1192 H 102.705 1.6014 3.83833 0
M  V30 1193 H 101.282 -0.226371 3.72212 0
M  V30 1194 N 103.467 -1.45747 0.599634 0
M  V30 1195 C 104.716 -2.01502 0.0893511 0
M  V30 1196 C 105.029 -1.4748 -1.28488 0
M  V30 1197 O 106.235 -1.95161 -1.88745 0
M  V30 1198 C 104.691 -3.59735 0.109082 0
M  V30 1199 C 104.299 -4.22754 1.48267 0
M  V30 1200 C 106.043 -4.23085 -0.346374 0
M  V30 1201 C 103.95 -5.73115 1.45921 0
M  V30 1202 H 102.88 -0.753417 0.0296347 0
M  V30 1203 H 105.531 -1.67303 0.753788 0
M  V30 1204 H 103.913 -3.91087 -0.621854 0
M  V30 1205 H 105.087 -4.02987 2.23468 0
M  V30 1206 H 103.402 -3.71567 1.87955 0
M  V30 1207 H 105.999 -5.33327 -0.38298 0
M  V30 1208 H 106.342 -3.93201 -1.36743 0
M  V30 1209 H 106.875 -3.9642 0.331038 0
M  V30 1210 H 103.614 -6.07685 2.45762 0
M  V30 1211 H 103.134 -5.95097 0.749665 0
M  V30 1212 H 104.813 -6.3616 1.17941 0
M  V30 1213 N 104.945 -0.338344 -1.53925 0
M  V30 1214 C 105.892 0.520845 -2.24846 0
M  V30 1215 C 106.862 1.09976 -1.24477 0
M  V30 1216 O 108.047 1.13735 -1.53196 0
M  V30 1217 C 105.187 1.6685 -3.02084 0
M  V30 1218 C 104.3 1.11739 -4.17299 0
M  V30 1219 C 103.435 2.23193 -4.82036 0
M  V30 1220 C 102.474 1.65407 -5.89328 0
M  V30 1221 N 101.611 2.70582 -6.47866 0
M  V30 1222 H 106.451 -0.0904881 -2.97863 0
M  V30 1223 H 103.988 -0.0564282 -1.46992 0
M  V30 1224 H 105.946 2.34407 -3.45122 0
M  V30 1225 H 104.576 2.2509 -2.31375 0
M  V30 1226 H 103.628 0.332919 -3.7894 0
M  V30 1227 H 104.94 0.654677 -4.94485 0
M  V30 1228 H 104.094 2.98626 -5.28117 0
M  V30 1229 H 102.833 2.72807 -4.04262 0
M  V30 1230 H 101.838 0.884779 -5.42634 0
M  V30 1231 H 103.063 1.16652 -6.69006 0
M  V30 1232 H 101.009 3.1946 -5.72959 0
M  V30 1233 H 100.926 2.28917 -7.20509 0
M  V30 1234 H 102.194 3.45799 -6.98601 0
M  V30 1235 N 106.423 1.57458 -0.0668435 0
M  V30 1236 C 107.353 2.15468 0.899764 0
M  V30 1237 C 108.334 1.08042 1.31381 0
M  V30 1238 O 109.519 1.36054 1.38574 0
M  V30 1239 C 106.649 2.71232 2.16911 0
M  V30 1240 C 105.603 3.83781 1.89463 0
M  V30 1241 C 104.929 4.26127 3.22986 0
M  V30 1242 C 106.229 5.08238 1.20381 0
M  V30 1243 H 107.923 2.96488 0.416529 0
M  V30 1244 H 105.469 1.4262 0.198908 0
M  V30 1245 H 107.422 3.10458 2.84945 0
M  V30 1246 H 106.146 1.87426 2.67468 0
M  V30 1247 H 104.805 3.45051 1.23836 0
M  V30 1248 H 104.453 3.39249 3.71374 0
M  V30 1249 H 104.153 5.01993 3.05413 0
M  V30 1250 H 105.677 4.67966 3.92225 0
M  V30 1251 H 107.091 5.44811 1.78475 0
M  V30 1252 H 105.488 5.89349 1.13083 0
M  V30 1253 H 106.558 4.84558 0.182153 0
M  V30 1254 N 107.901 -0.206675 1.56239 0
M  V30 1255 C 108.833 -1.27997 1.9013 0
M  V30 1256 C 109.846 -1.42299 0.790883 0
M  V30 1257 O 111.035 -1.42931 1.06925 0
M  V30 1258 C 108.135 -2.65368 2.10792 0
M  V30 1259 C 107.308 -2.72824 3.41886 0
M  V30 1260 C 106.367 -3.9131 3.51799 0
M  V30 1261 O 105.393 -3.78953 4.24716 0
M  V30 1262 N 106.595 -5.06265 2.84035 0
M  V30 1263 H 109.36 -0.992444 2.82791 0
M  V30 1264 H 106.921 -0.396652 1.56966 0
M  V30 1265 H 108.913 -3.43039 2.14724 0
M  V30 1266 H 107.483 -2.86657 1.24685 0
M  V30 1267 H 106.703 -1.81515 3.49923 0
M  V30 1268 H 107.991 -2.74786 4.28217 0
M  V30 1269 H 107.389 -5.19203 2.246 0
M  V30 1270 H 105.946 -5.81925 2.93609 0
M  V30 1271 N 109.379 -1.50304 -0.473955 0
M  V30 1272 C 110.289 -1.7174 -1.5982 0
M  V30 1273 C 111.305 -0.600457 -1.63311 0
M  V30 1274 O 112.481 -0.878441 -1.81233 0
M  V30 1275 C 109.546 -1.80427 -2.96052 0
M  V30 1276 C 108.607 -3.04148 -3.02972 0
M  V30 1277 C 107.84 -3.12411 -4.32706 0
M  V30 1278 O 108.063 -2.27542 -5.23049 0
M  V30 1279 O 106.997 -4.05113 -4.45159 0
M  V30 1280 H 110.823 -2.67035 -1.44657 0
M  V30 1281 H 108.408 -1.34366 -0.653148 0
M  V30 1282 H 110.29 -1.88338 -3.7697 0
M  V30 1283 H 108.965 -0.883156 -3.11419 0
M  V30 1284 H 107.872 -3.0174 -2.21142 0
M  V30 1285 H 109.205 -3.95829 -2.92541 0
M  V30 1286 N 110.857 0.726932 -1.39834 0
M  V30 1287 C 111.767 1.87131 -1.41489 0
M  V30 1288 C 112.783 1.71239 -0.308757 0
M  V30 1289 O 113.959 1.93701 -0.551529 0
M  V30 1290 C 111.024 3.22811 -1.26468 0
M  V30 1291 C 110.085 3.51039 -2.47124 0
M  V30 1292 C 109.318 4.80245 -2.3281 0
M  V30 1293 O 109.541 5.54537 -1.33585 0
M  V30 1294 O 108.475 5.08554 -3.21957 0
M  V30 1295 H 112.301 1.8869 -2.3797 0
M  V30 1296 H 109.886 0.875837 -1.21035 0
M  V30 1297 H 111.768 4.03877 -1.20255 0
M  V30 1298 H 110.443 3.22005 -0.330862 0
M  V30 1299 H 109.35 2.70027 -2.58914 0
M  V30 1300 H 110.683 3.56632 -3.39227 0
M  V30 1301 N 112.336 1.25143 0.95797 0
M  V30 1302 C 113.246 1.06968 2.08794 0
M  V30 1303 C 114.262 0.00773911 1.73998 0
M  V30 1304 O 115.438 0.207972 2.00323 0
M  V30 1305 C 112.503 0.68691 3.39827 0
M  V30 1306 C 111.564 1.82641 3.88511 0
M  V30 1307 C 110.797 1.46181 5.1329 0
M  V30 1308 O 111.02 0.355971 5.69288 0
M  V30 1309 O 109.954 2.29085 5.566 0
M  V30 1310 H 113.78 2.01723 2.27027 0
M  V30 1311 H 111.365 1.04051 1.07209 0
M  V30 1312 H 113.247 0.485417 4.18595 0
M  V30 1313 H 111.922 -0.231417 3.22872 0
M  V30 1314 H 110.829 2.08274 3.10762 0
M  V30 1315 H 112.162 2.72386 4.09959 0
M  V30 1316 N 113.814 -1.1601 1.06675 0
M  V30 1317 C 115.23 -1.38622 0.790948 0
M  V30 1318 C 115.43 -1.92109 -0.607965 0
M  V30 1319 O 114.486 -2.12239 -1.36787 0
M  V30 1320 C 115.799 -2.36347 1.85905 0
M  V30 1321 C 117.347 -2.50023 1.88301 0
M  V30 1322 C 117.822 -3.51033 2.94176 0
M  V30 1323 N 119.313 -3.58563 2.93235 0
M  V30 1324 C 120.048 -4.36521 3.71803 0
M  V30 1325 N 119.544 -5.17869 4.602 0
M  V30 1326 N 121.337 -4.31541 3.60178 0
M  V30 1327 H 113.488 -0.796294 1.96908 0
M  V30 1328 H 115.751 -0.412597 0.853503 0
M  V30 1329 H 115.457 -2.04147 2.86386 0
M  V30 1330 H 115.331 -3.36042 1.71334 0
M  V30 1331 H 117.718 -2.81524 0.884769 0
M  V30 1332 H 117.799 -1.5035 2.06951 0
M  V30 1333 H 117.443 -3.20268 3.94196 0
M  V30 1334 H 117.373 -4.50445 2.72776 0
M  V30 1335 H 119.864 -3.00496 2.29152 0
M  V30 1336 H 120.177 -5.74578 5.16797 0
M  V30 1337 H 118.522 -5.17199 4.64253 0
M  V30 1338 H 121.713 -3.67051 2.90502 0
M  V30 1339 H 121.886 -4.9205 4.21653 0
M  V30 1340 N 115.292 -0.849877 -1.32721 0
M  V30 1341 C 116.202 -0.293791 -2.32753 0
M  V30 1342 C 117.218 0.585906 -1.63839 0
M  V30 1343 O 118.394 0.487413 -1.95413 0
M  V30 1344 C 115.459 0.512752 -3.42887 0
M  V30 1345 C 114.52 -0.39252 -4.27502 0
M  V30 1346 C 113.753 0.375625 -5.32377 0
M  V30 1347 O 113.976 1.60613 -5.4732 0
M  V30 1348 O 112.91 -0.256094 -6.01355 0
M  V30 1349 H 116.736 -1.12242 -2.82197 0
M  V30 1350 H 114.321 -0.612685 -1.36259 0
M  V30 1351 H 116.203 0.970704 -4.10067 0
M  V30 1352 H 114.878 1.31826 -2.95641 0
M  V30 1353 H 113.785 -0.898547 -3.63149 0
M  V30 1354 H 115.118 -1.16309 -4.7826 0
M  V30 1355 N 116.77 1.45427 -0.607355 0
M  V30 1356 C 118.186 1.57283 -0.270985 0
M  V30 1357 C 118.386 1.59875 1.22647 0
M  V30 1358 O 117.442 1.52893 2.00948 0
M  V30 1359 C 118.755 2.85566 -0.941952 0
M  V30 1360 C 120.303 2.9924 -0.917849 0
M  V30 1361 C 120.778 4.30293 -1.56882 0
M  V30 1362 N 122.269 4.37051 -1.5343 0
M  V30 1363 C 123.004 5.37123 -2.00715 0
M  V30 1364 N 122.5 6.43734 -2.56084 0
M  V30 1365 N 124.293 5.28479 -1.91484 0
M  V30 1366 H 116.444 1.41988 -1.57966 0
M  V30 1367 H 118.707 0.67885 -0.661715 0
M  V30 1368 H 118.413 2.8955 -1.99633 0
M  V30 1369 H 118.287 3.74322 -0.465096 0
M  V30 1370 H 120.674 2.94822 0.127984 0
M  V30 1371 H 120.755 2.11895 -1.43297 0
M  V30 1372 H 120.399 4.35469 -2.61398 0
M  V30 1373 H 120.329 5.16454 -1.02873 0
M  V30 1374 H 122.82 3.60615 -1.12982 0
M  V30 1375 H 123.133 7.16341 -2.89958 0
M  V30 1376 H 121.478 6.44485 -2.60122 0
M  V30 1377 H 124.669 4.44098 -1.47967 0
M  V30 1378 H 124.842 6.0632 -2.28648 0
M  V30 1379 N 118.248 0.346503 1.53744 0
M  V30 1380 C 119.664 -0.00530975 1.59599 0
M  V30 1381 C 119.864 -1.48465 1.36236 0
M  V30 1382 O 118.92 -2.24376 1.15808 0
M  V30 1383 C 120.233 0.433516 2.97559 0
M  V30 1384 C 121.781 0.386111 3.10609 0
M  V30 1385 C 122.256 0.800451 4.50951 0
M  V30 1386 N 123.747 0.754753 4.5701 0
M  V30 1387 C 124.482 1.04727 5.63755 0
M  V30 1388 N 123.978 1.4081 6.7834 0
M  V30 1389 N 125.771 0.971316 5.53644 0
M  V30 1390 H 117.922 1.31009 1.67184 0
M  V30 1391 H 120.185 0.534242 0.783128 0
M  V30 1392 H 119.891 1.46509 3.19731 0
M  V30 1393 H 119.765 -0.189753 3.76722 0
M  V30 1394 H 122.152 -0.636295 2.88158 0
M  V30 1395 H 122.233 1.04462 2.33498 0
M  V30 1396 H 121.877 1.82088 4.74137 0
M  V30 1397 H 121.807 0.119386 5.26465 0
M  V30 1398 H 124.298 0.488662 3.74727 0
M  V30 1399 H 124.611 1.61607 7.55714 0
M  V30 1400 H 122.956 1.44657 6.79779 0
M  V30 1401 H 126.147 0.688748 4.63005 0
M  V30 1402 H 126.32 1.20263 6.36742 0
M  V30 1403 N 119.726 -1.57421 0.075193 0
M  V30 1404 C 121.003 -1.85029 -0.634329 0
M  V30 1405 C 121.383 -0.968305 -1.87582 0
M  V30 1406 O 120.731 -0.0354749 -2.28472 0
M  V30 1407 C 120.941 -3.35286 -0.968742 0
M  V30 1408 C 122.289 -4.02875 -1.34077 0
M  V30 1409 O 123.313 -3.40051 -1.06037 0
M  V30 1410 O 122.172 -5.13691 -1.86506 0
M  V30 1411 H 119.266 -0.7645 -0.315387 0
M  V30 1412 H 121.812 -1.69366 0.106382 0
M  V30 1413 H 120.584 -3.91203 -0.0871376 0
M  V30 1414 H 120.207 -3.56223 -1.7661 0
M  V30 1415 N 121.204 0.198386 -1.56346 0
M  V30 1416 C 122.152 1.26538 -1.95169 0
M  V30 1417 C 123.146 1.47295 -0.836685 0
M  V30 1418 O 124.352 1.48195 -1.02167 0
M  V30 1419 H 120.727 0.424744 -0.620561 0
M  V30 1420 H 122.698 0.910904 -2.84157 0
M  V30 1421 C 121.447 2.6035 -2.30463 0
M  V30 1422 H 120.77 2.45192 -3.15786 0
M  V30 1423 H 122.21 3.33762 -2.61494 0
M  V30 1424 C 120.669 3.17096 -1.13806 0
M  V30 1425 O 121.199 3.99588 -0.41135 0
M  V30 1426 N 119.405 2.75795 -0.915736 0
M  V30 1427 H 118.952 2.08816 -1.50843 0
M  V30 1428 H 118.91 3.14101 -0.136979 0
M  V30 1429 N 122.682 1.50554 0.465978 0
M  V30 1430 C 123.912 1.65323 1.23903 0
M  V30 1431 C 124.32 0.338051 1.86155 0
M  V30 1432 O 123.663 -0.690518 1.70228 0
M  V30 1433 C 123.725 2.69048 2.3844 0
M  V30 1434 C 123.389 4.12462 1.96784 0
M  V30 1435 C 124.386 4.98168 1.48745 0
M  V30 1436 C 122.071 4.58407 2.05349 0
M  V30 1437 C 124.065 6.27868 1.0982 0
M  V30 1438 C 121.752 5.88112 1.66035 0
M  V30 1439 C 122.75 6.72668 1.18349 0
M  V30 1440 O 122.438 7.99951 0.795825 0
M  V30 1441 H 122.17 0.558629 0.38067 0
M  V30 1442 H 124.724 1.97561 0.562022 0
M  V30 1443 H 122.954 2.32062 3.09328 0
M  V30 1444 H 124.643 2.72985 3.0039 0
M  V30 1445 H 125.409 4.63885 1.41546 0
M  V30 1446 H 121.288 3.92735 2.41414 0
M  V30 1447 H 124.832 6.93819 0.725293 0
M  V30 1448 H 120.729 6.21914 1.72895 0
M  V30 1449 H 121.497 8.13265 0.924222 0
M  V30 1450 N 124.16 -0.719506 1.40217 0
M  V30 1451 C 125.406 -1.48152 1.38488 0
M  V30 1452 C 125.739 -1.94195 -0.0141867 0
M  V30 1453 O 125.014 -1.67884 -0.982096 0
M  V30 1454 C 125.297 -2.71035 2.37091 0
M  V30 1455 C 125.15 -2.30912 3.86005 0
M  V30 1456 C 126.469 -3.73182 2.33288 0
M  V30 1457 H 123.588 -0.537395 0.504357 0
M  V30 1458 H 126.23 -0.821472 1.71324 0
M  V30 1459 H 124.38 -3.27352 2.0922 0
M  V30 1460 H 126.052 -1.80107 4.24687 0
M  V30 1461 H 124.295 -1.62958 4.02029 0
M  V30 1462 H 124.966 -3.18978 4.50508 0
M  V30 1463 H 127.442 -3.26485 2.57966 0
M  V30 1464 H 126.318 -4.56806 3.04334 0
M  V30 1465 H 126.579 -4.21202 1.34317 0
M  V30 1466 N 125.638 -1.25649 -0.95132 0
M  V30 1467 C 127.049 -1.09654 -1.51106 0
M  V30 1468 C 127.4 0.326615 -1.93462 0
M  V30 1469 O 126.525 1.21697 -1.78938 0
M  V30 1470 C 127.12 -1.98437 -2.74605 0
M  V30 1471 C 125.679 -1.86618 -3.2688 0
M  V30 1472 C 124.826 -1.9239 -1.99703 0
M  V30 1473 H 127.777 -1.38887 -0.767865 0
M  V30 1474 H 127.798 -1.5263 -3.48546 0
M  V30 1475 H 127.31 -3.02009 -2.43746 0
M  V30 1476 H 125.411 -0.859421 -3.62553 0
M  V30 1477 H 125.524 -2.71607 -3.94673 0
M  V30 1478 H 123.888 -1.36317 -2.15151 0
M  V30 1479 H 124.671 -2.97573 -1.71188 0
M  V30 1480 N 127.117 1.15442 -1.07289 0
M  V30 1481 C 128.027 2.23786 -0.704057 0
M  V30 1482 C 129.043 1.7166 0.284413 0
M  V30 1483 O 130.219 2.00972 0.131205 0
M  V30 1484 C 127.284 3.46535 -0.106792 0
M  V30 1485 C 126.345 4.13654 -1.14842 0
M  V30 1486 C 125.578 5.30544 -0.57956 0
M  V30 1487 O 125.801 5.67187 0.604585 0
M  V30 1488 O 124.735 5.87154 -1.32414 0
M  V30 1489 H 128.561 2.57664 -1.60757 0
M  V30 1490 H 126.146 1.23152 -0.845803 0
M  V30 1491 H 128.028 4.20804 0.224048 0
M  V30 1492 H 126.703 3.14407 0.770049 0
M  V30 1493 H 125.61 3.4131 -1.5316 0
M  V30 1494 H 126.943 4.49861 -1.99714 0
M  V30 1495 N 128.595 0.856903 1.32268 0
M  V30 1496 C 129.841 0.462069 1.97466 0
M  V30 1497 C 130.174 -0.980298 1.67642 0
M  V30 1498 O 129.449 -1.68824 0.965858 0
M  V30 1499 C 129.732 0.704336 3.53145 0
M  V30 1500 C 129.585 2.19529 3.9259 0
M  V30 1501 C 130.904 0.1622 4.39801 0
M  V30 1502 H 128.023 0.169357 0.717278 0
M  V30 1503 H 130.665 1.07574 1.56614 0
M  V30 1504 H 128.815 0.181999 3.88073 0
M  V30 1505 H 130.487 2.78387 3.67829 0
M  V30 1506 H 128.73 2.67292 3.41668 0
M  V30 1507 H 129.401 2.31549 5.01088 0
M  V30 1508 H 131.877 0.608905 4.11621 0
M  V30 1509 H 130.753 0.361265 5.4771 0
M  V30 1510 H 131.014 -0.935158 4.32096 0
M  V30 1511 N 130.073 -1.45103 0.615059 0
M  V30 1512 C 131.298 -2.07064 0.117988 0
M  V30 1513 C 131.723 -1.4554 -1.19163 0
M  V30 1514 O 131.081 -0.550855 -1.72729 0
M  V30 1515 C 131.129 -3.606 -0.000288387 0
M  V30 1516 O 130.233 -3.98847 -1.04856 0
M  V30 1517 H 129.574 -0.659467 0.0774581 0
M  V30 1518 H 132.104 -1.86236 0.847186 0
M  V30 1519 H 132.114 -4.07529 -0.196091 0
M  V30 1520 H 130.789 -4.04765 0.955932 0
M  V30 1521 H 129.366 -3.63577 -0.828619 0
M  V30 1522 N 131.551 -0.354651 -1.53558 0
M  V30 1523 C 132.514 0.484566 -2.24019 0
M  V30 1524 C 133.514 1.01861 -1.24422 0
M  V30 1525 O 134.704 0.906097 -1.4878 0
M  V30 1526 C 131.836 1.67615 -2.96847 0
M  V30 1527 H 133.029 -0.131843 -2.9961 0
M  V30 1528 H 130.582 -0.106165 -1.55939 0
M  V30 1529 H 131.317 2.33095 -2.25471 0
M  V30 1530 H 131.102 1.30029 -3.69912 0
M  V30 1531 H 132.592 2.27114 -3.50441 0
M  V30 1532 N 133.029 1.57378 -0.0835403 0
M  V30 1533 C 133.959 2.1641 0.87686 0
M  V30 1534 C 134.94 1.09429 1.30228 0
M  V30 1535 O 136.125 1.37516 1.37124 0
M  V30 1536 C 133.255 2.73517 2.14022 0
M  V30 1537 C 132.209 3.85769 1.85381 0
M  V30 1538 C 131.535 4.29529 3.18448 0
M  V30 1539 C 132.835 5.09486 1.14984 0
M  V30 1540 H 134.529 2.96914 0.385059 0
M  V30 1541 H 132.075 1.42823 0.18377 0
M  V30 1542 H 134.028 3.13463 2.81636 0
M  V30 1543 H 132.752 1.90252 2.65465 0
M  V30 1544 H 131.411 3.46345 1.20169 0
M  V30 1545 H 131.059 3.43169 3.67755 0
M  V30 1546 H 130.759 5.05204 3.00071 0
M  V30 1547 H 132.283 4.72099 3.8724 0
M  V30 1548 H 133.697 5.46674 1.72687 0
M  V30 1549 H 132.094 5.90515 1.06826 0
M  V30 1550 H 133.164 4.84724 0.130749 0
M  V30 1551 N 134.507 -0.190092 1.56449 0
M  V30 1552 C 135.784 -0.935886 1.71757 0
M  V30 1553 C 136.164 -2.01173 0.639726 0
M  V30 1554 O 135.512 -2.25827 -0.348502 0
M  V30 1555 C 135.722 -1.51775 3.1427 0
M  V30 1556 C 137.07 -1.99794 3.74656 0
M  V30 1557 O 138.094 -1.61607 3.1743 0
M  V30 1558 O 136.953 -2.70079 4.751 0
M  V30 1559 H 134.047 -0.439229 0.700719 0
M  V30 1560 H 136.593 -0.179395 1.68749 0
M  V30 1561 H 135.365 -0.742505 3.84191 0
M  V30 1562 H 134.988 -2.33894 3.21527 0
M  V30 1563 N 135.985 -1.50799 -0.457987 0
M  V30 1564 C 136.917 -1.66786 -1.57211 0
M  V30 1565 C 137.93 -0.548962 -1.53265 0
M  V30 1566 O 139.119 -0.8226 -1.58416 0
M  V30 1567 C 136.219 -1.64834 -2.96113 0
M  V30 1568 C 135.392 -2.92971 -3.24787 0
M  V30 1569 C 134.451 -2.83485 -4.43309 0
M  V30 1570 O 133.477 -3.5744 -4.42973 0
M  V30 1571 N 134.679 -1.97929 -5.45714 0
M  V30 1572 H 137.444 -2.62889 -1.43909 0
M  V30 1573 H 135.005 -1.48427 -0.646617 0
M  V30 1574 H 136.997 -1.56084 -3.7339 0
M  V30 1575 H 135.567 -0.764118 -3.03117 0
M  V30 1576 H 134.787 -3.15749 -2.36 0
M  V30 1577 H 136.075 -3.77834 -3.40762 0
M  V30 1578 H 135.473 -1.37182 -5.48815 0
M  V30 1579 H 134.03 -1.95073 -6.21924 0
M  V30 1580 N 137.463 0.71206 -1.40597 0
M  V30 1581 C 138.373 1.8562 -1.43466 0
M  V30 1582 C 139.389 1.70902 -0.326902 0
M  V30 1583 O 140.565 1.93105 -0.572043 0
M  V30 1584 C 137.63 3.21451 -1.29884 0
M  V30 1585 C 136.691 3.48398 -2.50833 0
M  V30 1586 C 135.924 4.77749 -2.3789 0
M  V30 1587 O 136.147 5.53089 -1.39459 0
M  V30 1588 O 135.081 5.05111 -3.27333 0
M  V30 1589 H 138.907 1.86155 -2.39958 0
M  V30 1590 H 136.492 0.86295 -1.21957 0
M  V30 1591 H 138.374 4.02579 -1.24531 0
M  V30 1592 H 137.049 3.21636 -0.364997 0
M  V30 1593 H 135.956 2.67265 -2.61763 0
M  V30 1594 H 137.289 3.53014 -3.4299 0
M  V30 1595 N 138.941 1.26152 0.944643 0
M  V30 1596 C 140.19 1.10883 1.68487 0
M  V30 1597 C 140.503 -0.348153 1.92477 0
M  V30 1598 O 141.709 -0.621459 2.64292 0
M  V30 1599 C 140.165 1.93624 3.03377 0
M  V30 1600 C 139.773 3.43875 2.87148 0
M  V30 1601 C 141.517 1.86954 3.81115 0
M  V30 1602 C 139.424 4.18875 4.1749 0
M  V30 1603 H 138.354 0.41135 0.631907 0
M  V30 1604 H 141.005 1.50433 1.05082 0
M  V30 1605 H 139.387 1.46904 3.67743 0
M  V30 1606 H 140.561 3.98338 2.31653 0
M  V30 1607 H 138.876 3.51744 2.22856 0
M  V30 1608 H 141.473 2.40275 4.77673 0
M  V30 1609 H 141.816 0.839518 4.07747 0
M  V30 1610 H 142.349 2.31477 3.23517 0
M  V30 1611 H 139.088 5.22332 3.96043 0
M  V30 1612 H 138.608 3.69193 4.72712 0
M  V30 1613 H 140.287 4.27134 4.85968 0
M  V30 1614 N 140.419 -1.14872 1.07899 0
M  V30 1615 C 141.668 -1.85135 0.800499 0
M  V30 1616 C 141.981 -1.83547 -0.676014 0
M  V30 1617 O 143.187 -2.49548 -1.06948 0
M  V30 1618 C 141.643 -3.3231 1.38197 0
M  V30 1619 C 141.251 -3.42329 2.8899 0
M  V30 1620 C 142.995 -4.0772 1.18174 0
M  V30 1621 C 140.902 -4.83684 3.403 0
M  V30 1622 H 139.832 -0.693563 0.29578 0
M  V30 1623 H 142.483 -1.29532 1.29976 0
M  V30 1624 H 140.865 -3.87618 0.810431 0
M  V30 1625 H 142.039 -2.97097 3.52236 0
M  V30 1626 H 140.354 -2.80369 3.07867 0
M  V30 1627 H 142.951 -5.12049 1.5398 0
M  V30 1628 H 143.294 -4.16124 0.12117 0
M  V30 1629 H 143.827 -3.58696 1.71994 0
M  V30 1630 H 140.566 -4.80465 4.45907 0
M  V30 1631 H 140.086 -5.29474 2.81811 0
M  V30 1632 H 141.765 -5.52558 3.36584 0
M  V30 1633 N 141.898 -0.863906 -1.31812 0
M  V30 1634 C 142.808 -0.318461 -2.32428 0
M  V30 1635 C 143.824 0.568496 -1.64451 0
M  V30 1636 O 145 0.46666 -1.95919 0
M  V30 1637 C 142.065 0.476355 -3.43412 0
M  V30 1638 C 141.126 -0.43784 -4.27061 0
M  V30 1639 C 140.359 0.319138 -5.32745 0
M  V30 1640 O 140.582 1.54799 -5.48993 0
M  V30 1641 O 139.516 -0.319861 -6.01049 0
M  V30 1642 H 143.342 -1.15229 -2.80991 0
M  V30 1643 H 140.927 -0.627103 -1.35602 0
M  V30 1644 H 142.809 0.927156 -4.11074 0
M  V30 1645 H 141.484 1.28683 -2.97022 0
M  V30 1646 H 140.391 -0.937013 -3.62175 0
M  V30 1647 H 141.724 -1.21375 -4.77 0
M  V30 1648 N 143.376 1.44774 -0.622745 0
M  V30 1649 C 144.622 2.0242 -0.124083 0
M  V30 1650 C 144.955 1.4881 1.24777 0
M  V30 1651 O 144.23 0.668799 1.8264 0
M  V30 1652 C 144.513 3.59957 -0.101619 0
M  V30 1653 C 144.366 4.23867 -1.50521 0
M  V30 1654 C 145.685 4.36284 0.578272 0
M  V30 1655 H 142.804 0.735528 -0.0465645 0
M  V30 1656 H 145.446 1.72447 -0.797617 0
M  V30 1657 H 143.596 3.85623 0.471934 0
M  V30 1658 H 145.268 4.09336 -2.12701 0
M  V30 1659 H 143.511 3.81684 -2.06154 0
M  V30 1660 H 144.182 5.32843 -1.4416 0
M  V30 1661 H 146.658 4.16001 0.0906057 0
M  V30 1662 H 145.534 5.46004 0.563149 0
M  V30 1663 H 145.795 4.10271 1.64713 0
M  V30 1664 N 144.854 0.36279 1.53368 0
M  V30 1665 C 146.131 -0.284021 1.93527 0
M  V30 1666 C 146.511 -1.66628 1.29608 0
M  V30 1667 O 145.859 -2.23942 0.45413 0
M  V30 1668 C 146.069 -0.337028 3.47369 0
M  V30 1669 C 147.417 -0.578708 4.20638 0
M  V30 1670 O 148.441 -0.418352 3.53735 0
M  V30 1671 O 147.3 -0.89074 5.39192 0
M  V30 1672 H 144.394 -0.169743 0.809393 0
M  V30 1673 H 146.94 0.41537 1.64538 0
M  V30 1674 H 145.712 0.632217 3.86159 0
M  V30 1675 H 145.335 -1.08243 3.82582 0
M  V30 1676 N 146.332 -1.57332 0.0918853 0
M  V30 1677 C 147.743 -1.81496 -0.437739 0
M  V30 1678 C 148.094 -1.00727 -1.6837 0
M  V30 1679 O 147.219 -0.235694 -2.15113 0
M  V30 1680 C 147.814 -3.29197 -0.800939 0
M  V30 1681 C 146.373 -3.54136 -1.27532 0
M  V30 1682 C 145.52 -2.75979 -0.270392 0
M  V30 1683 H 148.471 -1.55494 0.317366 0
M  V30 1684 H 148.492 -3.42344 -1.66074 0
M  V30 1685 H 148.004 -3.87955 0.106078 0
M  V30 1686 H 146.105 -3.00705 -2.20016 0
M  V30 1687 H 146.218 -4.62792 -1.23938 0
M  V30 1688 H 144.582 -2.43349 -0.751872 0
M  V30 1689 H 145.365 -3.37484 0.629248 0
M  V30 1690 N 147.81 0.181792 -1.56548 0
M  V30 1691 C 149.087 0.926765 -1.72251 0
M  V30 1692 C 149.467 2.00831 -0.650386 0
M  V30 1693 O 148.815 2.26008 0.336521 0
M  V30 1694 C 149.025 1.50106 -3.1507 0
M  V30 1695 C 150.373 1.97805 -3.75711 0
M  V30 1696 O 151.397 1.59922 -3.18282 0
M  V30 1697 O 150.256 2.67555 -4.76525 0
M  V30 1698 H 147.35 0.435506 -0.703039 0
M  V30 1699 H 149.896 0.170443 -1.68842 0
M  V30 1700 H 148.668 0.72212 -3.84579 0
M  V30 1701 H 148.291 2.32186 -3.22763 0
M  V30 1702 N 149.288 1.51039 0.449983 0
M  V30 1703 C 150.516 1.66869 1.2232 0
M  V30 1704 C 150.931 0.360727 1.85322 0
M  V30 1705 O 150.288 -0.659531 1.70166 0
M  V30 1706 C 150.339 2.77524 2.31652 0
M  V30 1707 O 150.06 4.03252 1.7123 0
M  V30 1708 C 151.561 3.04512 3.2216 0
M  V30 1709 H 148.781 0.560326 0.369155 0
M  V30 1710 H 151.325 1.97385 0.534719 0
M  V30 1711 H 149.48 2.49642 2.96239 0
M  V30 1712 H 149.894 4.64609 2.43389 0
M  V30 1713 H 151.368 3.85551 3.95038 0
M  V30 1714 H 151.845 2.16415 3.8218 0
M  V30 1715 H 152.451 3.34005 2.63288 0
M  V30 1716 N 150.766 -0.704594 1.40972 0
M  V30 1717 C 151.713 -1.81862 1.42109 0
M  V30 1718 C 152.683 -1.63781 0.276593 0
M  V30 1719 O 153.868 -1.84759 0.4763 0
M  V30 1720 C 151.008 -3.19669 1.30022 0
M  V30 1721 C 150.121 -3.49246 2.54267 0
M  V30 1722 C 149.256 -4.76618 2.3454 0
M  V30 1723 C 148.295 -4.99133 3.54306 0
M  V30 1724 N 147.432 -6.17726 3.33706 0
M  V30 1725 H 152.272 -1.80226 2.37324 0
M  V30 1726 H 149.809 -0.880238 1.17857 0
M  V30 1727 H 151.767 -3.99263 1.21018 0
M  V30 1728 H 150.397 -3.20506 0.384192 0
M  V30 1729 H 149.449 -2.64125 2.73756 0
M  V30 1730 H 150.761 -3.61788 3.43381 0
M  V30 1731 H 149.915 -5.64249 2.22952 0
M  V30 1732 H 148.654 -4.66305 1.42867 0
M  V30 1733 H 147.659 -4.09953 3.66359 0
M  V30 1734 H 148.884 -5.11311 4.4692 0
M  V30 1735 H 146.83 -6.08642 2.44725 0
M  V30 1736 H 146.747 -6.30995 4.16391 0
M  V30 1737 H 148.015 -7.08115 3.25873 0
M  V30 1738 N 152.244 -1.26651 -0.937939 0
M  V30 1739 C 153.154 -1.10276 -2.07066 0
M  V30 1740 C 154.17 -0.0354197 -1.73964 0
M  V30 1741 O 155.346 -0.239816 -1.99967 0
M  V30 1742 C 152.411 -0.740887 -3.38691 0
M  V30 1743 C 151.472 -1.88799 -3.85556 0
M  V30 1744 C 150.705 -1.54329 -5.10899 0
M  V30 1745 O 150.928 -0.446494 -5.6865 0
M  V30 1746 O 149.862 -2.37911 -5.52885 0
M  V30 1747 H 153.688 -2.05309 -2.23789 0
M  V30 1748 H 151.273 -1.05743 -1.0554 0
M  V30 1749 H 153.155 -0.55195 -4.1777 0
M  V30 1750 H 151.83 0.180022 -3.23199 0
M  V30 1751 H 150.737 -2.13191 -3.07409 0
M  V30 1752 H 152.07 -2.78874 -4.05574 0
M  V30 1753 N 153.722 1.14298 -1.08507 0
M  V30 1754 C 154.655 2.18447 -0.660004 0
M  V30 1755 C 155.633 1.59242 0.328749 0
M  V30 1756 O 156.817 1.87062 0.232367 0
M  V30 1757 C 153.944 3.38688 0.0290807 0
M  V30 1758 C 152.99 4.1646 -0.919982 0
M  V30 1759 S 153.823 4.77334 -2.42718 0
M  V30 1760 C 154.979 6.00931 -1.75024 0
M  V30 1761 H 155.212 2.54166 -1.54231 0
M  V30 1762 H 152.745 1.25446 -0.900149 0
M  V30 1763 H 154.703 4.08342 0.420378 0
M  V30 1764 H 153.364 3.01289 0.887895 0
M  V30 1765 H 152.557 5.02529 -0.384751 0
M  V30 1766 H 152.159 3.52414 -1.25223 0
M  V30 1767 H 154.451 6.69017 -1.06877 0
M  V30 1768 H 155.394 6.59044 -2.58971 0
M  V30 1769 H 155.802 5.51089 -1.22317 0
M  V30 1770 N 155.201 0.870884 1.31352 0
M  V30 1771 C 156.131 0.343096 2.30966 0
M  V30 1772 C 157.112 -0.566507 1.60389 0
M  V30 1773 O 158.297 -0.483336 1.88089 0
M  V30 1774 C 155.427 -0.455487 3.443 0
M  V30 1775 C 154.381 0.361103 4.26474 0
M  V30 1776 C 153.707 -0.563221 5.31725 0
M  V30 1777 C 155.007 1.59566 4.97329 0
M  V30 1778 H 156.701 1.17548 2.75359 0
M  V30 1779 H 154.247 0.566686 1.32381 0
M  V30 1780 H 156.2 -0.83525 4.13039 0
M  V30 1781 H 154.924 -1.32139 2.98675 0
M  V30 1782 H 153.583 0.722825 3.59403 0
M  V30 1783 H 153.231 -1.42643 4.82351 0
M  V30 1784 H 152.931 -0.0207409 5.87596 0
M  V30 1785 H 154.455 -0.939808 6.03324 0
M  V30 1786 H 155.869 1.28728 5.58661 0
M  V30 1787 H 154.266 2.07728 5.63 0
M  V30 1788 H 155.336 2.34798 4.24262 0
M  V30 1789 N 156.679 -1.44442 0.630414 0
M  V30 1790 C 157.626 -2.30678 -0.0749355 0
M  V30 1791 C 158.596 -1.4344 -0.837502 0
M  V30 1792 O 159.781 -1.72343 -0.818684 0
M  V30 1793 C 156.921 -3.28706 -1.05103 0
M  V30 1794 C 156.034 -4.31046 -0.286954 0
M  V30 1795 C 155.169 -5.16167 -1.2548 0
M  V30 1796 C 154.208 -6.10216 -0.479843 0
M  V30 1797 N 153.345 -6.88039 -1.39811 0
M  V30 1798 H 158.185 -2.90454 0.666386 0
M  V30 1799 H 155.722 -1.43107 0.340404 0
M  V30 1800 H 157.68 -3.84027 -1.63031 0
M  V30 1801 H 156.31 -2.70632 -1.75949 0
M  V30 1802 H 155.362 -3.78203 0.408243 0
M  V30 1803 H 156.674 -4.97794 0.316657 0
M  V30 1804 H 155.828 -5.76002 -1.90544 0
M  V30 1805 H 154.567 -4.49491 -1.89233 0
M  V30 1806 H 153.572 -5.49491 0.184295 0
M  V30 1807 H 154.797 -6.78928 0.152965 0
M  V30 1808 H 152.743 -6.24032 -2.02287 0
M  V30 1809 H 152.66 -7.51223 -0.848508 0
M  V30 1810 H 153.928 -7.52397 -2.03762 0
M  V30 1811 N 158.157 -0.370918 -1.53173 0
M  V30 1812 C 159.087 0.464847 -2.28826 0
M  V30 1813 C 160.068 1.07936 -1.31468 0
M  V30 1814 O 161.253 1.0956 -1.60344 0
M  V30 1815 C 158.383 1.60196 -3.08147 0
M  V30 1816 C 157.337 1.11443 -4.13237 0
M  V30 1817 C 156.663 2.3422 -4.80672 0
M  V30 1818 C 157.963 0.195384 -5.21934 0
M  V30 1819 H 159.657 -0.166329 -2.98938 0
M  V30 1820 H 157.203 -0.0814359 -1.4377 0
M  V30 1821 H 159.156 2.19332 -3.59822 0
M  V30 1822 H 157.88 2.26045 -2.35735 0
M  V30 1823 H 156.539 0.545727 -3.62515 0
M  V30 1824 H 156.187 2.98537 -4.04827 0
M  V30 1825 H 155.887 2.02269 -5.51689 0
M  V30 1826 H 157.411 2.94032 -5.35143 0
M  V30 1827 H 158.825 0.694375 -5.69079 0
M  V30 1828 H 157.222 -0.0335027 -6.00091 0
M  V30 1829 H 158.292 -0.760961 -4.78892 0
M  V30 1830 N 159.635 1.57281 -0.100228 0
M  V30 1831 C 160.565 2.17328 0.853857 0
M  V30 1832 C 161.546 1.10804 1.2906 0
M  V30 1833 O 162.731 1.38963 1.35657 0
M  V30 1834 C 159.861 2.75772 2.11109 0
M  V30 1835 C 158.815 3.87713 1.81279 0
M  V30 1836 C 158.141 4.32882 3.13874 0
M  V30 1837 C 159.441 5.10677 1.09574 0
M  V30 1838 H 161.135 2.97305 0.353545 0
M  V30 1839 H 158.681 1.43009 0.168612 0
M  V30 1840 H 160.634 3.16433 2.78296 0
M  V30 1841 H 159.358 1.93057 2.63432 0
M  V30 1842 H 158.017 3.476 1.16489 0
M  V30 1843 H 157.665 3.47051 3.64095 0
M  V30 1844 H 157.365 5.08358 2.94696 0
M  V30 1845 H 158.889 4.7618 3.82211 0
M  V30 1846 H 160.303 5.48474 1.66879 0
M  V30 1847 H 158.7 5.91615 1.00557 0
M  V30 1848 H 159.77 4.84835 0.0793299 0
M  V30 1849 N 161.113 -0.173488 1.56642 0
M  V30 1850 C 162.39 -0.917617 1.7274 0
M  V30 1851 C 162.77 -2.00484 0.661027 0
M  V30 1852 O 162.118 -2.26184 -0.32453 0
M  V30 1853 C 162.328 -1.48433 3.15862 0
M  V30 1854 C 163.676 -1.95809 3.76754 0
M  V30 1855 O 164.7 -1.58231 3.19126 0
M  V30 1856 O 163.559 -2.65024 4.77938 0
M  V30 1857 H 160.653 -0.431772 0.705338 0
M  V30 1858 H 163.199 -0.161487 1.6893 0
M  V30 1859 H 161.971 -0.701715 3.84957 0
M  V30 1860 H 161.594 -2.30471 3.23989 0
M  V30 1861 N 162.591 -1.51276 -0.441967 0
M  V30 1862 C 163.838 -1.63715 -1.19179 0
M  V30 1863 C 164.166 -0.351175 -1.91303 0
M  V30 1864 O 163.421 0.664524 -1.84072 0
M  V30 1865 C 163.72 -2.78746 -2.23686 0
M  V30 1866 C 163.386 -4.18189 -1.68607 0
M  V30 1867 C 162.048 -4.56125 -1.53308 0
M  V30 1868 C 164.4 -5.05222 -1.28062 0
M  V30 1869 C 161.728 -5.78804 -0.959317 0
M  V30 1870 C 164.08 -6.28476 -0.721162 0
M  V30 1871 C 162.744 -6.65188 -0.55504 0
M  V30 1872 H 162.014 -0.599076 -0.436106 0
M  V30 1873 H 164.661 -1.85296 -0.48351 0
M  V30 1874 H 162.966 -2.51369 -3.00535 0
M  V30 1875 H 164.663 -2.8557 -2.81515 0
M  V30 1876 H 161.253 -3.88277 -1.8149 0
M  V30 1877 H 165.437 -4.76524 -1.38704 0
M  V30 1878 H 160.693 -6.05899 -0.81833 0
M  V30 1879 H 164.867 -6.95259 -0.398458 0
M  V30 1880 H 162.494 -7.60123 -0.108311 0
M  V30 1881 N 164.069 0.697108 -1.41344 0
M  V30 1882 C 165.317 1.45426 -1.40341 0
M  V30 1883 C 165.638 1.94996 -0.0128787 0
M  V30 1884 O 164.908 1.71599 0.945027 0
M  V30 1885 H 163.488 0.539594 -0.516573 0
M  V30 1886 H 166.15 0.825201 -1.76569 0
M  V30 1887 H 165.246 2.31817 -2.08967 0
M  V30 1888 N 165.547 1.27147 0.931209 0
M  V30 1889 C 166.772 1.16191 1.71797 0
M  V30 1890 C 167.197 -0.278004 1.86034 0
M  V30 1891 O 166.555 -1.20137 1.35782 0
M  V30 1892 C 166.603 1.84673 3.09723 0
M  V30 1893 O 165.707 1.14231 3.96264 0
M  V30 1894 H 165.048 0.404303 0.526721 0
M  V30 1895 H 167.578 1.68152 1.1656 0
M  V30 1896 H 167.588 1.91893 3.60057 0
M  V30 1897 H 166.263 2.89421 2.98677 0
M  V30 1898 H 164.84 1.15056 3.54706 0
M  V30 1899 N 167.025 -1.13721 1.09112 0
M  V30 1900 C 167.955 -2.21148 0.749385 0
M  V30 1901 C 168.936 -1.6792 -0.271475 0
M  V30 1902 O 170.121 -1.93693 -0.140251 0
M  V30 1903 C 167.251 -3.46905 0.165659 0
M  V30 1904 C 166.205 -4.13203 1.11567 0
M  V30 1905 C 165.531 -5.33248 0.393809 0
M  V30 1906 C 166.831 -4.60912 2.45678 0
M  V30 1907 H 168.525 -2.4999 1.64758 0
M  V30 1908 H 166.071 -1.20156 0.793626 0
M  V30 1909 H 168.024 -4.21313 -0.085466 0
M  V30 1910 H 166.748 -3.17449 -0.767714 0
M  V30 1911 H 165.407 -3.40758 1.35202 0
M  V30 1912 H 165.055 -5.00054 -0.543599 0
M  V30 1913 H 164.755 -5.78552 1.02721 0
M  V30 1914 H 166.279 -6.10413 0.150908 0
M  V30 1915 H 167.693 -5.26759 2.26269 0
M  V30 1916 H 166.09 -5.16944 3.04776 0
M  V30 1917 H 167.16 -3.75603 3.06677 0
M  V30 1918 N 168.503 -0.877838 -1.30888 0
M  V30 1919 C 169.728 -0.506629 -2.01117 0
M  V30 1920 C 170.153 0.895564 -1.65412 0
M  V30 1921 O 169.511 1.5923 -0.866922 0
M  V30 1922 C 169.559 -0.680223 -3.54126 0
M  V30 1923 O 168.663 0.277033 -4.11468 0
M  V30 1924 H 168.004 -0.200518 -0.633 0
M  V30 1925 H 170.534 -1.18342 -1.66902 0
M  V30 1926 H 170.544 -0.5765 -4.03907 0
M  V30 1927 H 169.219 -1.70261 -3.79452 0
M  V30 1928 H 167.796 0.127606 -3.72682 0
M  V30 1929 N 169.982 1.44106 -0.638065 0
M  V30 1930 C 170.93 2.3248 0.0748149 0
M  V30 1931 C 171.924 1.47746 0.828702 0
M  V30 1932 O 173.13 1.64049 0.740816 0
M  V30 1933 H 169.505 0.750771 0.0429686 0
M  V30 1934 H 171.476 2.90348 -0.688504 0
M  V30 1935 C 170.225 3.31843 1.03805 0
M  V30 1936 H 169.548 3.97059 0.467375 0
M  V30 1937 H 170.988 3.96345 1.50622 0
M  V30 1938 C 169.447 2.61291 2.1267 0
M  V30 1939 O 169.977 2.41702 3.20847 0
M  V30 1940 N 168.183 2.20915 1.88798 0
M  V30 1941 H 167.73 2.37047 1.00829 0
M  V30 1942 H 167.688 1.74038 2.61836 0
M  V30 1943 N 171.46 0.379036 1.52974 0
M  V30 1944 C 172.39 -0.452706 2.29069 0
M  V30 1945 C 173.371 -1.07237 1.32039 0
M  V30 1946 O 174.556 -1.08708 1.60923 0
M  V30 1947 C 171.686 -1.5856 3.08992 0
M  V30 1948 C 170.64 -1.0925 4.13822 0
M  V30 1949 C 169.966 -2.31668 4.81907 0
M  V30 1950 C 171.266 -0.167702 5.22031 0
M  V30 1951 H 172.96 0.182181 2.98845 0
M  V30 1952 H 170.506 0.0890592 1.43724 0
M  V30 1953 H 172.459 -2.1742 3.6098 0
M  V30 1954 H 171.183 -2.24792 2.36931 0
M  V30 1955 H 169.842 -0.526494 3.628 0
M  V30 1956 H 169.49 -2.96386 4.06404 0
M  V30 1957 H 169.19 -1.9934 5.52754 0
M  V30 1958 H 170.714 -2.91189 5.36695 0
M  V30 1959 H 172.128 -0.664186 5.6944 0
M  V30 1960 H 170.525 0.0653265 6.00064 0
M  V30 1961 H 171.595 0.786347 4.78482 0
M  V30 1962 N 172.938 -1.57226 0.108567 0
M  V30 1963 C 173.87 -2.11809 -0.875752 0
M  V30 1964 C 174.883 -1.05839 -1.23701 0
M  V30 1965 O 176.072 -1.33245 -1.18778 0
M  V30 1966 C 173.172 -2.59411 -2.18081 0
M  V30 1967 C 172.345 -3.89364 -1.99284 0
M  V30 1968 C 171.404 -4.22672 -3.13424 0
M  V30 1969 O 170.43 -4.91668 -2.86795 0
M  V30 1970 N 171.632 -3.79154 -4.3957 0
M  V30 1971 H 174.397 -2.9689 -0.409477 0
M  V30 1972 H 171.958 -1.61721 -0.076158 0
M  V30 1973 H 173.95 -2.7873 -2.93414 0
M  V30 1974 H 172.52 -1.79268 -2.5609 0
M  V30 1975 H 171.74 -3.79059 -1.08203 0
M  V30 1976 H 173.028 -4.74358 -1.84017 0
M  V30 1977 H 172.426 -3.23486 -4.64083 0
M  V30 1978 H 170.983 -4.03602 -5.11809 0
M  V30 1979 N 174.416 0.165178 -1.56732 0
M  V30 1980 C 175.662 0.882112 -1.82611 0
M  V30 1981 C 175.995 1.81628 -0.687378 0
M  V30 1982 O 175.27 1.92009 0.310267 0
M  V30 1983 C 175.553 1.67245 -3.18906 0
M  V30 1984 C 175.406 0.760987 -4.43316 0
M  V30 1985 C 176.725 2.63884 -3.52212 0
M  V30 1986 H 173.844 0.319242 -0.664269 0
M  V30 1987 H 176.486 0.148052 -1.89422 0
M  V30 1988 H 174.636 2.29824 -3.1323 0
M  V30 1989 H 176.308 0.147596 -4.61064 0
M  V30 1990 H 174.551 0.0694102 -4.33744 0
M  V30 1991 H 175.222 1.34962 -5.35247 0
M  V30 1992 H 177.698 2.11429 -3.58381 0
M  V30 1993 H 176.574 3.16245 -4.48643 0
M  V30 1994 H 176.835 3.44377 -2.77231 0
M  V30 1995 N 175.894 1.51508 0.433938 0
M  V30 1996 C 177.122 1.68157 1.20543 0
M  V30 1997 C 177.537 0.380362 1.84929 0
M  V30 1998 O 176.894 -0.641446 1.70856 0
M  V30 1999 C 176.945 2.79965 2.28696 0
M  V30 2000 O 176.666 4.05045 1.66943 0
M  V30 2001 C 178.167 3.07912 3.18912 0
M  V30 2002 H 175.387 0.56421 0.363191 0
M  V30 2003 H 177.931 1.97941 0.513754 0
M  V30 2004 H 176.086 2.5277 2.93574 0
M  V30 2005 H 176.5 4.67165 2.38448 0
M  V30 2006 H 177.974 3.89719 3.90926 0
M  V30 2007 H 178.451 2.20456 3.79863 0
M  V30 2008 H 179.057 3.36779 2.59731 0
M  V30 2009 N 177.372 -0.689602 1.41712 0
M  V30 2010 C 178.304 -1.815 1.39966 0
M  V30 2011 C 179.317 -1.59995 0.300917 0
M  V30 2012 O 180.506 -1.69387 0.563039 0
M  V30 2013 C 177.606 -3.18364 1.16179 0
M  V30 2014 C 176.779 -3.66847 2.38206 0
M  V30 2015 C 175.838 -4.82398 2.10186 0
M  V30 2016 O 174.864 -4.93706 2.83272 0
M  V30 2017 N 176.066 -5.70064 1.0958 0
M  V30 2018 H 178.831 -1.83488 2.36965 0
M  V30 2019 H 176.392 -0.872149 1.36401 0
M  V30 2020 H 178.384 -3.93301 0.953756 0
M  V30 2021 H 176.954 -3.11365 0.27756 0
M  V30 2022 H 176.174 -2.82751 2.74673 0
M  V30 2023 H 177.462 -3.95978 3.19498 0
M  V30 2024 H 176.86 -5.63565 0.491019 0
M  V30 2025 H 175.417 -6.44874 0.947656 0
M  V30 2026 N 178.85 -1.27639 -0.924453 0
M  V30 2027 C 180.261 -1.12834 -1.48746 0
M  V30 2028 C 180.612 0.285505 -1.94112 0
M  V30 2029 O 179.737 1.17874 -1.81479 0
M  V30 2030 C 180.332 -2.04217 -2.70334 0
M  V30 2031 C 178.891 -1.93509 -3.22848 0
M  V30 2032 C 178.038 -1.96583 -1.95577 0
M  V30 2033 H 180.989 -1.40484 -0.738233 0
M  V30 2034 H 181.01 -1.59989 -3.4523 0
M  V30 2035 H 180.522 -3.07111 -2.37285 0
M  V30 2036 H 178.623 -0.936131 -3.60649 0
M  V30 2037 H 178.736 -2.79917 -3.88823 0
M  V30 2038 H 177.1 -1.4085 -2.12211 0
M  V30 2039 H 177.883 -3.01137 -1.64837 0
M  V30 2040 N 180.328 1.1314 -1.09713 0
M  V30 2041 C 181.556 1.88321 -0.856898 0
M  V30 2042 C 181.971 1.79276 0.592073 0
M  V30 2043 O 181.328 1.16142 1.40774 0
M  V30 2044 C 181.379 3.37812 -1.28706 0
M  V30 2045 O 181.1 3.46627 -2.67921 0
M  V30 2046 C 182.601 4.29952 -1.07964 0
M  V30 2047 H 179.821 0.596094 -0.308079 0
M  V30 2048 H 182.365 1.43205 -1.45988 0
M  V30 2049 H 180.52 3.805 -0.727912 0
M  V30 2050 H 180.934 4.39579 -2.8613 0
M  V30 2051 H 182.408 5.33159 -1.42986 0
M  V30 2052 H 182.885 4.39196 -0.0176577 0
M  V30 2053 H 183.491 3.93036 -1.62489 0
M  V30 2054 N 181.806 0.884767 1.30421 0
M  V30 2055 C 183.052 0.503851 1.96441 0
M  V30 2056 C 183.385 -0.944518 1.69684 0
M  V30 2057 O 182.66 -1.66737 1.00145 0
M  V30 2058 C 182.943 0.779085 3.51571 0
M  V30 2059 C 182.796 2.27807 3.87846 0
M  V30 2060 C 184.115 0.255452 4.39358 0
M  V30 2061 H 181.234 0.184533 0.713524 0
M  V30 2062 H 183.876 1.10872 1.54297 0
M  V30 2063 H 182.026 0.264274 3.876 0
M  V30 2064 H 183.698 2.86127 3.61841 0
M  V30 2065 H 181.941 2.74479 3.35922 0
M  V30 2066 H 182.612 2.42125 4.96064 0
M  V30 2067 H 185.088 0.696079 4.10236 0
M  V30 2068 H 183.964 0.477361 5.4682 0
M  V30 2069 H 184.225 -0.843293 4.33983 0
M  V30 2070 N 183.284 -1.43765 0.645699 0
M  V30 2071 C 184.532 -2.01499 0.155731 0
M  V30 2072 C 184.853 -1.51151 -1.232 0
M  V30 2073 O 184.123 -0.721044 -1.82148 0
M  V30 2074 H 182.703 -0.745003 0.0545817 0
M  V30 2075 H 185.365 -1.76075 0.835677 0
M  V30 2076 H 184.461 -3.1181 0.134577 0
M  V30 2077 N 184.763 -0.387143 -1.52771 0
M  V30 2078 C 185.696 0.493123 -2.22808 0
M  V30 2079 C 186.674 1.0658 -1.22798 0
M  V30 2080 O 187.858 1.11785 -1.51777 0
M  V30 2081 C 184.985 1.68238 -2.93962 0
M  V30 2082 C 184.031 1.23515 -4.08223 0
M  V30 2083 S 184.864 0.21848 -5.35054 0
M  V30 2084 C 186.02 1.41357 -6.09729 0
M  V30 2085 H 186.253 -0.101625 -2.97126 0
M  V30 2086 H 183.786 -0.171323 -1.53447 0
M  V30 2087 H 185.744 2.36443 -3.35567 0
M  V30 2088 H 184.405 2.24842 -2.19328 0
M  V30 2089 H 183.598 2.12304 -4.57103 0
M  V30 2090 H 183.2 0.632044 -3.68621 0
M  V30 2091 H 185.492 2.34101 -6.3577 0
M  V30 2092 H 186.435 0.965736 -7.01484 0
M  V30 2093 H 186.843 1.6294 -5.40473 0
M  V30 2094 N 186.241 1.57166 -0.116904 0
M  V30 2095 C 187.189 2.16457 0.851418 0
M  V30 2096 C 188.183 1.11323 1.27686 0
M  V30 2097 O 189.389 1.2963 1.24884 0
M  V30 2098 H 185.764 0.69271 0.292672 0
M  V30 2099 H 187.735 2.96605 0.32685 0
M  V30 2100 C 186.484 2.77689 2.09246 0
M  V30 2101 H 185.807 3.58285 1.77402 0
M  V30 2102 H 187.247 3.22716 2.7501 0
M  V30 2103 C 185.706 1.74667 2.88085 0
M  V30 2104 O 186.236 1.19877 3.83396 0
M  V30 2105 N 184.442 1.44656 2.52038 0
M  V30 2106 H 183.989 1.89402 1.74599 0
M  V30 2107 H 183.947 0.759675 3.05084 0
M  V30 2108 N 187.719 -0.156864 1.56817 0
M  V30 2109 C 188.966 -0.871125 1.82805 0
M  V30 2110 C 189.294 -1.81611 0.696262 0
M  V30 2111 O 188.549 -1.93141 -0.315459 0
M  V30 2112 C 188.848 -1.68737 3.1506 0
M  V30 2113 C 188.514 -0.890045 4.42028 0
M  V30 2114 C 187.176 -0.670042 4.76512 0
M  V30 2115 C 189.528 -0.331769 5.20143 0
M  V30 2116 C 186.856 0.119104 5.86579 0
M  V30 2117 C 189.208 0.444365 6.31037 0
M  V30 2118 C 187.872 0.675035 6.64078 0
M  V30 2119 H 187.142 -0.318767 0.668931 0
M  V30 2120 H 189.789 -0.135274 1.91022 0
M  V30 2121 H 188.094 -2.49304 3.0225 0
M  V30 2122 H 189.791 -2.24331 3.3238 0
M  V30 2123 H 186.381 -1.07157 4.14988 0
M  V30 2124 H 190.565 -0.489043 4.93885 0
M  V30 2125 H 185.821 0.307417 6.10627 0
M  V30 2126 H 189.995 0.884139 6.90765 0
M  V30 2127 H 187.622 1.28839 7.49203 0
M  V30 2128 N 189.197 -1.51736 -0.425897 0
M  V30 2129 C 190.144 -1.73875 -1.51776 0
M  V30 2130 C 191.114 -0.580702 -1.55618 0
M  V30 2131 O 192.299 -0.81641 -1.72451 0
M  V30 2132 C 189.439 -1.88012 -2.89388 0
M  V30 2133 C 188.552 -3.15606 -2.94986 0
M  V30 2134 C 187.687 -3.20271 -4.23793 0
M  V30 2135 C 186.726 -4.42134 -4.23302 0
M  V30 2136 N 185.863 -4.44284 -5.43651 0
M  V30 2137 H 190.703 -2.67071 -1.32201 0
M  V30 2138 H 188.24 -1.32351 -0.642008 0
M  V30 2139 H 190.198 -1.9419 -3.69251 0
M  V30 2140 H 188.828 -0.98213 -3.07496 0
M  V30 2141 H 187.88 -3.18681 -2.07717 0
M  V30 2142 H 189.192 -4.05486 -2.90486 0
M  V30 2143 H 188.346 -3.25428 -5.12036 0
M  V30 2144 H 187.085 -2.28299 -4.30965 0
M  V30 2145 H 186.09 -4.3714 -3.3345 0
M  V30 2146 H 187.315 -5.35382 -4.17783 0
M  V30 2147 H 185.261 -3.55188 -5.51523 0
M  V30 2148 H 185.178 -5.27988 -5.41078 0
M  V30 2149 H 186.446 -4.53649 -6.33895 0
M  V30 2150 N 190.675 0.682077 -1.42076 0
M  V30 2151 C 191.903 1.47057 -1.4554 0
M  V30 2152 C 192.318 1.8869 -0.0645779 0
M  V30 2153 O 191.675 1.57666 0.919115 0
M  V30 2154 C 191.726 2.72442 -2.37609 0
M  V30 2155 O 191.447 2.32559 -3.71279 0
M  V30 2156 C 192.948 3.66069 -2.50017 0
M  V30 2157 H 190.168 0.452737 -0.495248 0
M  V30 2158 H 192.712 0.838695 -1.8651 0
M  V30 2159 H 190.867 3.31835 -1.9991 0
M  V30 2160 H 191.281 3.13475 -4.20516 0
M  V30 2161 H 192.755 4.50792 -3.18576 0
M  V30 2162 H 193.232 4.11476 -1.53572 0
M  V30 2163 H 193.838 3.12572 -2.88407 0
M  V30 2164 N 192.153 1.28127 0.917671 0
M  V30 2165 C 193.564 1.13622 1.48145 0
M  V30 2166 C 193.915 -0.275207 1.9426 0
M  V30 2167 O 193.04 -1.1691 1.82102 0
M  V30 2168 C 193.635 2.05648 2.69248 0
M  V30 2169 C 192.194 1.95219 3.21818 0
M  V30 2170 C 191.341 1.97618 1.94532 0
M  V30 2171 H 194.292 1.40874 0.730772 0
M  V30 2172 H 194.313 1.61818 3.44377 0
M  V30 2173 H 193.825 3.08365 2.35653 0
M  V30 2174 H 191.926 0.955244 3.60147 0
M  V30 2175 H 192.039 2.81976 3.87333 0
M  V30 2176 H 190.403 1.41973 2.11461 0
M  V30 2177 H 191.186 3.02007 1.63238 0
M  V30 2178 N 193.631 -1.12557 1.10312 0
M  V30 2179 C 195.047 -1.36036 0.834649 0
M  V30 2180 C 195.247 -1.93946 -0.546539 0
M  V30 2181 O 194.303 -2.16484 -1.29966 0
M  V30 2182 C 195.616 -2.30312 1.9333 0
M  V30 2183 C 197.164 -2.43906 1.9616 0
M  V30 2184 C 197.639 -3.41496 3.05195 0
M  V30 2185 N 199.13 -3.49053 3.04494 0
M  V30 2186 C 199.865 -4.24471 3.85502 0
M  V30 2187 N 199.361 -5.02966 4.76442 0
M  V30 2188 N 201.154 -4.19864 3.73725 0
M  V30 2189 H 193.305 -0.733246 1.99342 0
M  V30 2190 H 195.568 -0.385234 0.866198 0
M  V30 2191 H 195.274 -1.94933 2.92735 0
M  V30 2192 H 195.148 -3.30421 1.81939 0
M  V30 2193 H 197.535 -2.78567 0.973886 0
M  V30 2194 H 197.616 -1.4369 2.11629 0
M  V30 2195 H 197.26 -3.07565 4.04186 0
M  V30 2196 H 197.19 -4.41539 2.86968 0
M  V30 2197 H 199.681 -2.93053 2.38596 0
M  V30 2198 H 199.994 -5.57846 5.34815 0
M  V30 2199 H 198.339 -5.02167 4.80472 0
M  V30 2200 H 201.53 -3.57623 3.02032 0
M  V30 2201 H 201.703 -4.78386 4.37093 0
M  V30 2202 N 195.109 -0.891671 -1.2995 0
M  V30 2203 C 196.357 -0.512486 -1.95494 0
M  V30 2204 C 196.678 0.942776 -1.70695 0
M  V30 2205 O 195.948 1.66374 -1.03424 0
M  V30 2206 H 194.528 -0.186533 -0.723336 0
M  V30 2207 H 197.19 -1.13621 -1.58355 0
M  V30 2208 H 196.286 -0.688342 -3.04415 0
M  V30 2209 N 196.587 1.43421 -0.653314 0
M  V30 2210 C 197.998 1.85065 -0.246537 0
M  V30 2211 C 198.349 1.54688 1.2069 0
M  V30 2212 O 197.474 0.995896 1.92122 0
M  V30 2213 C 198.069 3.35922 -0.440666 0
M  V30 2214 C 196.628 3.76297 -0.0882064 0
M  V30 2215 C 195.775 2.67147 -0.743484 0
M  V30 2216 H 198.726 1.33572 -0.856979 0
M  V30 2217 H 198.747 3.79204 0.313798 0
M  V30 2218 H 198.259 3.58 -1.49858 0
M  V30 2219 H 196.36 3.5983 0.96711 0
M  V30 2220 H 196.473 4.76338 -0.513738 0
M  V30 2221 H 194.837 2.54086 -0.176712 0
M  V30 2222 H 195.62 2.92053 -1.80443 0
M  V30 2223 N 198.065 0.39524 1.52563 0
M  V30 2224 C 199.311 -0.185318 2.01952 0
M  V30 2225 C 199.644 -1.45964 1.28095 0
M  V30 2226 O 198.919 -1.90689 0.38315 0
M  V30 2227 C 199.202 -0.447193 3.57312 0
M  V30 2228 C 199.055 0.842828 4.41833 0
M  V30 2229 C 200.374 -1.23529 4.22408 0
M  V30 2230 H 197.493 -0.0658788 0.73405 0
M  V30 2231 H 200.135 0.525975 1.82575 0
M  V30 2232 H 198.285 -1.05312 3.73954 0
M  V30 2233 H 199.957 1.4795 4.36931 0
M  V30 2234 H 198.2 1.45686 4.08605 0
M  V30 2235 H 198.871 0.614165 5.48573 0
M  V30 2236 H 201.347 -0.722445 4.0978 0
M  V30 2237 H 200.223 -1.38727 5.3108 0
M  V30 2238 H 200.484 -2.25213 3.80436 0
M  V30 2239 O 199.582 -1.59299 0.265728 0
M  V30 2240 H 200.273 -1.91266 -0.306134 0
M  V30 END ATOM
M  V30 BEGIN BOND
M  V30 END BOND
M  V30 END CTAB
M  END
$$$$
