drugbank_target|P35348 Alpha-1A adrenergic receptor (DB00211; DB00246; DB00248; DB00298; DB00321; DB00334; DB00346; DB00363; DB00368; DB00388; DB00408; DB00420; DB00449; DB00450; DB00457; DB00458; DB00477; DB00502; DB00540; DB00543; DB00555; DB00575; DB00590; DB00610; DB00622; DB00656; DB00661; DB00668; DB00679; DB00692; DB00696; DB00699; DB00706; DB00723; DB00726; DB00734; DB00751; DB00777; DB00797; DB00800; DB00831; DB00852; DB00865; DB00875; DB00908; DB00925; DB00935; DB00964; DB01136; DB01142; DB01149; DB01162; DB01186; DB01200; DB01238; DB01253; DB01267; DB01295; DB01364; DB01403; DB01472; DB01579; DB01614; DB01622; DB01624; DB04855; DB04946; DB04948; DB05469; DB05492; DB06144; DB06153; DB06207; DB06216; DB06229; DB06262; DB06694; DB06706; DB06711; DB06764; DB08950; DB09202; DB09239; DB11124; DB12278; DB14185)
 OpenBabel12092119333D

  0  0  0     0  0            999 V3000
M  V30 BEGIN CTAB
M  V30 COUNTS 7335 7423 0 0 0
M  V30 BEGIN ATOM
M  V30 1 H -0.908 1.98254 -0.117106 0
M  V30 2 N 0 1.576 0 0
M  V30 3 C 0.933 2.03868 1.02534 0
M  V30 4 C 1.911 0.928543 1.3348 0
M  V30 5 O 3.095 1.19667 1.45644 0
M  V30 6 C 0.222 2.43627 2.35294 0
M  V30 7 C -0.732 3.65373 2.2001 0
M  V30 8 S 0.101 5.13292 1.52614 0
M  V30 9 C 1.257 5.56322 2.86805 0
M  V30 10 H 1.49 2.90518 0.631377 0
M  V30 11 H -0.977 1.52953 0.210867 0
M  V30 12 H 0.981 2.67203 3.11629 0
M  V30 13 H -0.358 1.57376 2.7183 0
M  V30 14 H -1.165 3.90944 3.18086 0
M  V30 15 H -1.563 3.418 1.51819 0
M  V30 16 H 0.729 5.58782 3.83104 0
M  V30 17 H 1.672 6.56266 2.65933 0
M  V30 18 H 2.08 4.83886 2.90714 0
M  V30 19 N 1.4781 -0.272755 1.55222 0
M  V30 20 C 2.7241 -1.00581 1.761 0
M  V30 21 C 3.0571 -1.85932 0.560625 0
M  V30 22 O 2.3321 -1.89416 -0.441801 0
M  V30 23 C 2.6151 -1.88816 3.06628 0
M  V30 24 C 2.4681 -1.06457 4.37021 0
M  V30 25 C 3.7871 -2.8752 3.33197 0
M  V30 26 H 0.9061 -0.364244 0.640699 0
M  V30 27 H 3.5481 -0.278189 1.87952 0
M  V30 28 H 1.6981 -2.50856 2.96654 0
M  V30 29 H 3.3701 -0.464863 4.58952 0
M  V30 30 H 1.6131 -0.368043 4.32236 0
M  V30 31 H 2.2841 -1.71514 5.24678 0
M  V30 32 H 4.7601 -2.35615 3.42965 0
M  V30 33 H 3.6361 -3.46399 4.25792 0
M  V30 34 H 3.8971 -3.62657 2.52849 0
M  V30 35 N 2.9562 -1.48159 -0.537278 0
M  V30 36 C 4.2032 -1.55804 -1.29349 0
M  V30 37 C 4.5312 -0.228802 -1.9315 0
M  V30 38 O 3.7862 0.780242 -1.79473 0
M  V30 39 C 4.0852 -2.63956 -2.40961 0
M  V30 40 C 3.7512 -4.0662 -1.94861 0
M  V30 41 C 2.4132 -4.45452 -1.82006 0
M  V30 42 C 4.7652 -4.96055 -1.59933 0
M  V30 43 C 2.0932 -5.71531 -1.32547 0
M  V30 44 C 4.4452 -6.22617 -1.11939 0
M  V30 45 C 3.1092 -6.60312 -0.976951 0
M  V30 46 H 2.3792 -0.570129 -0.473322 0
M  V30 47 H 5.0262 -1.81845 -0.600372 0
M  V30 48 H 3.3312 -2.31747 -3.15912 0
M  V30 49 H 5.0282 -2.67089 -2.99107 0
M  V30 50 H 1.6182 -3.75949 -2.05815 0
M  V30 51 H 5.8022 -4.66738 -1.68728 0
M  V30 52 H 1.0582 -5.99468 -1.202 0
M  V30 53 H 5.2322 -6.91318 -0.839811 0
M  V30 54 H 2.8592 -7.57895 -0.591501 0
M  V30 55 N 4.4343 0.785586 -1.36625 0
M  V30 56 C 5.3643 1.91259 -1.33949 0
M  V30 57 C 6.3453 1.68795 -0.210325 0
M  V30 58 O 7.5303 1.89854 -0.408561 0
M  V30 59 C 4.6603 3.28339 -1.13186 0
M  V30 60 C 3.6143 3.65335 -2.22967 0
M  V30 61 C 2.9403 5.00806 -1.87342 0
M  V30 62 C 4.2403 3.7352 -3.65075 0
M  V30 63 H 5.9343 1.93755 -2.28253 0
M  V30 64 H 3.4803 0.930788 -1.09874 0
M  V30 65 H 5.4333 4.06804 -1.09948 0
M  V30 66 H 4.1573 3.2624 -0.153332 0
M  V30 67 H 2.8163 2.89169 -2.25337 0
M  V30 68 H 2.4643 4.95233 -0.880545 0
M  V30 69 H 2.1643 5.26529 -2.60846 0
M  V30 70 H 3.6883 5.81687 -1.85667 0
M  V30 71 H 5.1023 4.42168 -3.64911 0
M  V30 72 H 3.4993 4.10731 -4.37516 0
M  V30 73 H 4.5693 2.74527 -3.99703 0
M  V30 74 N 5.9124 1.20967 1.01018 0
M  V30 75 C 7.1374 1.0503 1.78839 0
M  V30 76 C 7.5624 -0.395752 1.8389 0
M  V30 77 O 6.9204 -1.28529 1.27867 0
M  V30 78 C 6.9684 1.64602 3.2084 0
M  V30 79 O 6.0724 0.887988 4.02726 0
M  V30 80 H 5.4134 0.369987 0.551367 0
M  V30 81 H 7.9434 1.60399 1.27018 0
M  V30 82 H 7.9534 1.68607 3.71532 0
M  V30 83 H 6.6284 2.69841 3.16479 0
M  V30 84 H 5.2054 0.922648 3.61305 0
M  V30 85 N 7.3905 -1.2043 1.01659 0
M  V30 86 C 8.6385 -1.89423 0.704522 0
M  V30 87 C 8.9595 -1.79231 -0.768197 0
M  V30 88 O 8.2295 -1.1947 -1.55254 0
M  V30 89 H 6.8095 -0.701178 0.257602 0
M  V30 90 H 9.4715 -1.4626 1.28818 0
M  V30 91 H 8.5675 -2.96052 0.987916 0
M  V30 92 N 8.8686 -0.792821 -1.36206 0
M  V30 93 C 9.8166 -0.181555 -2.3189 0
M  V30 94 C 10.8106 0.661025 -1.55971 0
M  V30 95 O 12.0166 0.555728 -1.71206 0
M  V30 96 H 8.3916 -0.0399382 -0.750939 0
M  V30 97 H 10.3626 -1.00394 -2.81005 0
M  V30 98 C 9.1116 0.666444 -3.41253 0
M  V30 99 H 8.4346 0.0274489 -3.99791 0
M  V30 100 H 9.8746 1.06076 -4.10517 0
M  V30 101 C 8.3336 1.82614 -2.83114 0
M  V30 102 O 8.8636 2.9229 -2.75553 0
M  V30 103 N 7.0696 1.63333 -2.40356 0
M  V30 104 H 6.6166 0.741217 -2.46706 0
M  V30 105 H 6.5746 2.41087 -2.01803 0
M  V30 106 N 10.3467 1.47872 -0.545128 0
M  V30 107 C 11.3097 2.28337 0.198717 0
M  V30 108 C 12.3097 1.36255 0.853888 0
M  V30 109 O 13.4997 1.59003 0.711606 0
M  V30 110 C 10.6317 3.15585 1.28915 0
M  V30 111 H 11.8247 2.95567 -0.507941 0
M  V30 112 H 9.3777 1.53362 -0.301616 0
M  V30 113 H 10.1127 2.53019 2.02859 0
M  V30 114 H 9.8977 3.83337 0.824309 0
M  V30 115 H 11.3877 3.76243 1.81194 0
M  V30 116 N 11.8248 0.280983 1.55075 0
M  V30 117 C 13.0498 -0.340154 2.04592 0
M  V30 118 C 13.4748 -1.48246 1.15779 0
M  V30 119 O 12.8328 -1.80614 0.15761 0
M  V30 120 C 12.8808 -0.793104 3.5177 0
M  V30 121 O 11.9848 -1.89981 3.66034 0
M  V30 122 H 11.3258 -0.0694289 0.66036 0
M  V30 123 H 13.8558 0.416993 2.00306 0
M  V30 124 H 13.8658 -1.08729 3.93245 0
M  V30 125 H 12.5408 0.0426163 4.15878 0
M  V30 126 H 11.1178 -1.60771 3.36463 0
M  V30 127 N 13.3029 -1.57598 0.00835791 0
M  V30 128 C 14.5799 -1.82172 -0.712235 0
M  V30 129 C 14.9599 -0.887873 -1.9152 0
M  V30 130 O 14.3079 0.06146 -2.28417 0
M  V30 131 C 14.5179 -3.30875 -1.11008 0
M  V30 132 C 15.8659 -3.96826 -1.51044 0
M  V30 133 O 16.8899 -3.35248 -1.20364 0
M  V30 134 O 15.7489 -5.05318 -2.08125 0
M  V30 135 H 12.8429 -0.750435 -0.347529 0
M  V30 136 H 15.3889 -1.69665 0.0344523 0
M  V30 137 H 14.1609 -3.90481 -0.252982 0
M  V30 138 H 13.7839 -3.48412 -1.9156 0
M  V30 139 N 14.781 0.264519 -1.55364 0
M  V30 140 C 16.006 1.01726 -1.80739 0
M  V30 141 C 16.431 1.78836 -0.583044 0
M  V30 142 O 15.789 1.75167 0.467566 0
M  V30 143 C 15.837 1.94482 -3.03659 0
M  V30 144 O 14.941 3.03386 -2.7934 0
M  V30 145 H 14.282 0.290395 -0.597132 0
M  V30 146 H 16.812 0.290854 -2.02522 0
M  V30 147 H 16.822 2.36278 -3.32621 0
M  V30 148 H 15.497 1.37772 -3.92418 0
M  V30 149 H 14.074 2.65844 -2.61498 0
M  V30 150 N 16.2591 1.48442 0.529413 0
M  V30 151 C 17.4841 1.60406 1.31471 0
M  V30 152 C 17.9091 0.264738 1.86228 0
M  V30 153 O 17.2671 -0.763668 1.64432 0
M  V30 154 C 17.3151 2.65419 2.44101 0
M  V30 155 O 16.4191 2.22618 3.47153 0
M  V30 156 H 15.7601 0.537863 0.389357 0
M  V30 157 H 18.2901 1.94432 0.636965 0
M  V30 158 H 18.3001 2.86709 2.90279 0
M  V30 159 H 16.9751 3.62652 2.03608 0
M  V30 160 H 15.5521 2.11543 3.0709 0
M  V30 161 N 17.7372 -0.778329 1.37039 0
M  V30 162 C 18.6852 -1.91278 1.32345 0
M  V30 163 C 19.6792 -1.68051 0.213331 0
M  V30 164 O 20.8852 -1.75922 0.38098 0
M  V30 165 H 17.2602 -0.628909 0.412283 0
M  V30 166 H 19.2312 -1.92355 2.28127 0
M  V30 167 C 17.9802 -3.28455 1.14073 0
M  V30 168 H 17.3032 -3.46901 1.98746 0
M  V30 169 H 18.7432 -4.08152 1.14837 0
M  V30 170 C 17.2022 -3.36548 -0.154015 0
M  V30 171 O 17.7322 -3.85186 -1.13993 0
M  V30 172 N 15.9382 -2.89894 -0.202475 0
M  V30 173 H 15.4852 -2.50504 0.600476 0
M  V30 174 H 15.4432 -2.9569 -1.06841 0
M  V30 175 N 19.2153 -1.21501 -1.00376 0
M  V30 176 C 20.4553 -1.04444 -1.75701 0
M  V30 177 C 20.8193 0.414644 -1.87469 0
M  V30 178 O 22.0203 0.705763 -2.59369 0
M  V30 179 C 20.2913 -1.72389 -3.13077 0
M  V30 180 S 21.8503 -1.70604 -4.04277 0
M  V30 181 H 18.6683 -0.374249 -0.604532 0
M  V30 182 H 21.2703 -1.54267 -1.20091 0
M  V30 183 H 19.9743 -2.77734 -3.02146 0
M  V30 184 H 19.5053 -1.22751 -3.73759 0
M  V30 185 H 21.5203 -0.748012 -4.9053 0
M  V30 186 N 20.6934 1.19889 -1.02296 0
M  V30 187 C 21.9214 1.9339 -0.735399 0
M  V30 188 C 22.3364 1.75148 0.704887 0
M  V30 189 O 21.6934 1.06954 1.47875 0
M  V30 190 C 21.7444 3.45313 -1.06962 0
M  V30 191 O 21.4654 3.62964 -2.45334 0
M  V30 192 C 22.9664 4.35948 -0.804021 0
M  V30 193 H 20.1864 0.61448 -0.269546 0
M  V30 194 H 22.7304 1.522 -1.36585 0
M  V30 195 H 20.8854 3.84359 -0.484455 0
M  V30 196 H 21.2994 4.56886 -2.57595 0
M  V30 197 H 22.7734 5.41174 -1.0879 0
M  V30 198 H 23.2504 4.3842 0.261691 0
M  V30 199 H 23.8564 4.02574 -1.37164 0
M  V30 200 N 22.1715 0.800033 1.35784 0
M  V30 201 C 23.1035 0.163596 2.28615 0
M  V30 202 C 24.1165 -0.633317 1.49976 0
M  V30 203 O 25.3055 -0.466754 1.72289 0
M  V30 204 C 22.4055 -0.790958 3.29541 0
M  V30 205 C 21.5785 -0.0418255 4.3738 0
M  V30 206 C 20.6375 -0.91389 5.18203 0
M  V30 207 O 19.6635 -0.367234 5.68014 0
M  V30 208 N 20.8655 -2.23682 5.35674 0
M  V30 209 H 23.6305 0.96105 2.83873 0
M  V30 210 H 21.1915 0.654894 1.48063 0
M  V30 211 H 23.1835 -1.37844 3.80501 0
M  V30 212 H 21.7535 -1.48925 2.74846 0
M  V30 213 H 20.9735 0.726813 3.87442 0
M  V30 214 H 22.2615 0.474719 5.06581 0
M  V30 215 H 21.6595 -2.70497 4.96838 0
M  V30 216 H 20.2165 -2.77369 5.89839 0
M  V30 217 N 23.6496 -1.47581 0.552962 0
M  V30 218 C 25.0606 -1.86324 0.118463 0
M  V30 219 C 25.4116 -1.46006 -1.3106 0
M  V30 220 O 24.5366 -0.861182 -1.98526 0
M  V30 221 C 25.1316 -3.3816 0.20821 0
M  V30 222 C 23.6906 -3.7601 -0.171226 0
M  V30 223 C 22.8376 -2.71634 0.557686 0
M  V30 224 H 25.7886 -1.39159 0.762928 0
M  V30 225 H 25.8096 -3.76141 -0.574278 0
M  V30 226 H 25.3216 -3.67473 1.24841 0
M  V30 227 H 23.4226 -3.52313 -1.21269 0
M  V30 228 H 23.5356 -4.78745 0.184379 0
M  V30 229 H 21.8996 -2.547 0.00125792 0
M  V30 230 H 22.6826 -3.0379 1.59896 0
M  V30 231 N 25.1277 -0.289203 -1.54924 0
M  V30 232 C 26.5387 0.205791 -1.85562 0
M  V30 233 C 26.8897 1.54351 -1.2112 0
M  V30 234 O 26.0147 2.10435 -0.504601 0
M  V30 235 C 26.6097 0.380177 -3.3666 0
M  V30 236 C 25.1687 0.819395 -3.67373 0
M  V30 237 C 24.3157 -0.079159 -2.77187 0
M  V30 238 H 27.2667 -0.510577 -1.50262 0
M  V30 239 H 27.2877 1.21659 -3.60526 0
M  V30 240 H 26.7997 -0.593589 -3.83534 0
M  V30 241 H 24.9007 1.80413 -3.26009 0
M  V30 242 H 25.0137 0.646957 -4.74712 0
M  V30 243 H 23.3777 0.439565 -2.50878 0
M  V30 244 H 24.1607 -1.04906 -3.26878 0
M  V30 245 N 26.6058 1.57591 -0.0167156 0
M  V30 246 C 27.5688 2.08393 0.954204 0
M  V30 247 C 28.5688 0.996531 1.26198 0
M  V30 248 O 29.7588 1.25858 1.20438 0
M  V30 249 C 26.8908 2.5394 2.27436 0
M  V30 250 H 28.0838 2.95455 0.514451 0
M  V30 251 H 25.6368 1.54582 0.231089 0
M  V30 252 H 26.3718 1.70171 2.76066 0
M  V30 253 H 26.1568 3.33371 2.06412 0
M  V30 254 H 27.6468 2.93512 2.97053 0
M  V30 255 N 28.0839 -0.256276 1.55502 0
M  V30 256 C 29.4949 -0.826068 1.67431 0
M  V30 257 C 29.8459 -1.86396 0.612446 0
M  V30 258 O 28.9709 -2.15031 -0.243025 0
M  V30 259 C 29.5659 -1.50512 3.03532 0
M  V30 260 C 28.1249 -2.02273 3.17431 0
M  V30 261 C 27.2719 -0.870548 2.63281 0
M  V30 262 H 30.2229 -0.0322728 1.58667 0
M  V30 263 H 30.2439 -2.37279 2.97454 0
M  V30 264 H 29.7559 -0.749484 3.80794 0
M  V30 265 H 27.8569 -2.80746 2.44974 0
M  V30 266 H 27.9699 -2.22655 4.24219 0
M  V30 267 H 26.3339 -1.26851 2.20864 0
M  V30 268 H 27.1169 -0.128149 3.43061 0
M  V30 269 N 29.562 -1.4872 -0.521534 0
M  V30 270 C 30.808 -1.574 -1.27879 0
M  V30 271 C 31.141 -0.250817 -1.92573 0
M  V30 272 O 30.416 0.743934 -1.79711 0
M  V30 273 C 30.699 -2.71843 -2.36164 0
M  V30 274 C 30.552 -4.13893 -1.76105 0
M  V30 275 C 31.871 -2.82008 -3.37875 0
M  V30 276 H 28.99 -0.572941 -0.463581 0
M  V30 277 H 31.632 -1.80927 -0.580119 0
M  V30 278 H 29.782 -2.51914 -2.95756 0
M  V30 279 H 31.454 -4.45284 -1.20499 0
M  V30 280 H 29.697 -4.20498 -1.06601 0
M  V30 281 H 30.368 -4.89804 -2.5455 0
M  V30 282 H 32.844 -3.00086 -2.88249 0
M  V30 283 H 31.72 -3.63796 -4.11028 0
M  V30 284 H 31.981 -1.90511 -3.98946 0
M  V30 285 N 31.0401 0.771051 -1.3745 0
M  V30 286 C 31.9881 1.90574 -1.33358 0
M  V30 287 C 32.9821 1.67936 -0.22224 0
M  V30 288 O 34.1881 1.75717 -0.390304 0
M  V30 289 H 30.5631 0.626714 -0.415612 0
M  V30 290 H 32.5341 1.91142 -2.29144 0
M  V30 291 C 31.2831 3.27845 -1.15813 0
M  V30 292 H 30.6061 3.45842 -2.00583 0
M  V30 293 H 32.0461 4.07538 -1.17 0
M  V30 294 C 30.5051 3.36625 0.136165 0
M  V30 295 O 31.0351 3.85785 1.11949 0
M  V30 296 N 29.2411 2.89997 0.187099 0
M  V30 297 H 28.7881 2.50182 -0.613753 0
M  V30 298 H 28.7461 2.96252 1.05272 0
M  V30 299 N 32.5182 1.22032 0.997298 0
M  V30 300 C 33.7672 1.03637 1.73038 0
M  V30 301 C 34.0802 -0.429475 1.90827 0
M  V30 302 O 35.2862 -0.732995 2.61418 0
M  V30 303 C 33.7422 1.80582 3.11317 0
M  V30 304 C 33.3502 3.31387 3.01474 0
M  V30 305 C 35.0942 1.70621 3.88701 0
M  V30 306 C 33.0012 4.00791 4.3488 0
M  V30 307 H 31.9312 0.384179 0.648785 0
M  V30 308 H 34.5822 1.4584 1.11368 0
M  V30 309 H 32.9642 1.31175 3.73643 0
M  V30 310 H 34.1382 3.88155 2.4834 0
M  V30 311 H 32.4532 3.41976 2.37575 0
M  V30 312 H 35.0502 2.19799 4.87434 0
M  V30 313 H 35.3932 0.665823 4.10941 0
M  V30 314 H 35.9262 2.17547 3.33044 0
M  V30 315 H 32.6652 5.05064 4.1784 0
M  V30 316 H 32.1852 3.48811 4.87945 0
M  V30 317 H 33.8642 4.06139 5.03647 0
M  V30 318 N 33.9963 -1.19345 1.0293 0
M  V30 319 C 35.2213 -1.93538 0.745511 0
M  V30 320 C 35.6463 -1.75007 -0.689511 0
M  V30 321 O 35.0043 -1.05265 -1.47611 0
M  V30 322 C 35.0523 -3.43336 1.10239 0
M  V30 323 O 34.1563 -4.11806 0.221289 0
M  V30 324 H 33.4973 -0.604193 0.275404 0
M  V30 325 H 36.0273 -1.5141 1.37609 0
M  V30 326 H 36.0373 -3.94004 1.05947 0
M  V30 327 H 34.7123 -3.56146 2.14786 0
M  V30 328 H 33.2893 -3.715 0.322842 0
M  V30 329 N 35.4744 -0.807222 -1.35358 0
M  V30 330 C 36.4214 -0.216037 -2.29787 0
M  V30 331 C 37.3914 0.650278 -1.52842 0
M  V30 332 O 38.5764 0.595227 -1.81278 0
M  V30 333 C 35.7164 0.628893 -3.39321 0
M  V30 334 C 34.8294 -0.257927 -4.31229 0
M  V30 335 C 33.9644 0.595069 -5.27856 0
M  V30 336 C 33.0034 -0.292111 -6.11403 0
M  V30 337 N 32.1404 0.520895 -7.00165 0
M  V30 338 H 36.9804 -1.02671 -2.79755 0
M  V30 339 H 34.5174 -0.517839 -1.37684 0
M  V30 340 H 36.4754 1.13393 -4.01494 0
M  V30 341 H 35.1054 1.40482 -2.90628 0
M  V30 342 H 34.1574 -0.881076 -3.70056 0
M  V30 343 H 35.4694 -0.940759 -4.89848 0
M  V30 344 H 34.6234 1.16522 -5.95405 0
M  V30 345 H 33.3624 1.31146 -4.69736 0
M  V30 346 H 32.3674 -0.874525 -5.428 0
M  V30 347 H 33.5924 -1.00638 -6.71602 0
M  V30 348 H 31.5384 1.22125 -6.44532 0
M  V30 349 H 31.4554 -0.103877 -7.55929 0
M  V30 350 H 32.7234 1.0743 -7.72062 0
M  V30 351 N 36.9525 1.47285 -0.560781 0
M  V30 352 C 37.9155 2.28535 0.174488 0
M  V30 353 C 38.9155 1.37153 0.839388 0
M  V30 354 O 40.1055 1.59748 0.694702 0
M  V30 355 C 37.2375 3.16934 1.25561 0
M  V30 356 H 38.4305 2.95012 -0.539262 0
M  V30 357 H 35.9835 1.53034 -0.317865 0
M  V30 358 H 36.7185 2.55157 2.00164 0
M  V30 359 H 36.5035 3.8419 0.783604 0
M  V30 360 H 37.9935 3.78143 1.77193 0
M  V30 361 N 38.4306 0.297415 1.54768 0
M  V30 362 C 39.6796 -0.313669 1.99246 0
M  V30 363 C 39.9926 -1.55281 1.18942 0
M  V30 364 O 41.1986 -2.23825 1.5367 0
M  V30 365 C 39.6546 -0.609407 3.54703 0
M  V30 366 C 39.2626 0.611192 4.43811 0
M  V30 367 C 41.0066 -1.18188 4.07715 0
M  V30 368 C 38.9136 0.288805 5.90694 0
M  V30 369 H 37.8436 -0.120979 0.744231 0
M  V30 370 H 40.4946 0.40556 1.78962 0
M  V30 371 H 38.8766 -1.38813 3.70873 0
M  V30 372 H 40.0506 1.3875 4.39414 0
M  V30 373 H 38.3656 1.10205 4.01552 0
M  V30 374 H 40.9626 -1.43727 5.15021 0
M  V30 375 H 41.3056 -2.12299 3.58099 0
M  V30 376 H 41.8386 -0.464944 3.95074 0
M  V30 377 H 38.5776 1.19838 6.44453 0
M  V30 378 H 38.0976 -0.450305 5.98107 0
M  V30 379 H 39.7766 -0.110933 6.46905 0
M  V30 380 N 39.9087 -1.5758 0.0250728 0
M  V30 381 C 40.8387 -2.13007 -0.956575 0
M  V30 382 C 41.8197 -1.0452 -1.342 0
M  V30 383 O 43.0047 -1.32332 -1.42133 0
M  V30 384 C 40.1347 -2.65386 -2.24026 0
M  V30 385 C 39.0887 -3.78623 -1.99571 0
M  V30 386 C 38.4147 -4.17414 -3.3417 0
M  V30 387 C 39.7147 -5.04867 -1.33814 0
M  V30 388 H 41.4087 -2.9528 -0.494991 0
M  V30 389 H 38.9547 -1.42042 -0.236651 0
M  V30 390 H 40.9077 -3.02794 -2.93076 0
M  V30 391 H 39.6317 -1.80268 -2.72343 0
M  V30 392 H 38.2907 -3.41646 -1.32941 0
M  V30 393 H 37.9387 -3.29284 -3.80238 0
M  V30 394 H 37.6387 -4.93719 -3.18615 0
M  V30 395 H 39.1627 -4.57402 -4.04495 0
M  V30 396 H 40.5767 -5.39888 -1.92857 0
M  V30 397 H 38.9737 -5.86144 -1.28669 0
M  V30 398 H 40.0437 -4.83904 -0.310561 0
M  V30 399 N 41.3868 0.248026 -1.55636 0
M  V30 400 C 42.3168 1.31079 -1.93237 0
M  V30 401 C 43.2978 1.50264 -0.797174 0
M  V30 402 O 44.4828 1.62891 -1.05737 0
M  V30 403 C 41.6128 2.66575 -2.22609 0
M  V30 404 C 40.5668 2.62087 -3.3837 0
M  V30 405 C 39.8928 4.01369 -3.53281 0
M  V30 406 C 41.1928 2.19171 -4.7409 0
M  V30 407 H 42.8868 0.998556 -2.82257 0
M  V30 408 H 40.4328 0.47891 -1.35803 0
M  V30 409 H 42.3858 3.41057 -2.47503 0
M  V30 410 H 41.1098 2.99432 -1.30414 0
M  V30 411 H 39.7688 1.90063 -3.13483 0
M  V30 412 H 39.4168 4.31489 -2.58508 0
M  V30 413 H 39.1168 3.99254 -4.31127 0
M  V30 414 H 40.6408 4.77552 -3.80495 0
M  V30 415 H 42.0548 2.83384 -4.98363 0
M  V30 416 H 40.4518 2.2817 -5.5503 0
M  V30 417 H 41.5218 1.14336 -4.71227 0
M  V30 418 N 42.8649 1.48995 0.513639 0
M  V30 419 C 44.1129 1.57531 1.26604 0
M  V30 420 C 44.4339 0.258236 1.93283 0
M  V30 421 O 43.7039 -0.721502 1.8213 0
M  V30 422 H 42.2839 0.580387 0.470276 0
M  V30 423 H 44.9459 1.85552 0.596373 0
M  V30 424 H 44.0419 2.36486 2.03669 0
M  V30 425 N 44.343 -0.763751 1.37857 0
M  V30 426 C 45.589 -1.52483 1.33704 0
M  V30 427 C 45.922 -1.94051 -0.0759612 0
M  V30 428 O 45.197 -1.64675 -1.03501 0
M  V30 429 C 45.48 -2.78441 2.28348 0
M  V30 430 C 45.333 -2.43075 3.78463 0
M  V30 431 C 46.652 -3.80415 2.21298 0
M  V30 432 H 43.771 -0.553169 0.487005 0
M  V30 433 H 46.413 -0.875562 1.68624 0
M  V30 434 H 44.563 -3.33842 1.987 0
M  V30 435 H 46.235 -1.93527 4.18742 0
M  V30 436 H 44.478 -1.75666 3.96641 0
M  V30 437 H 45.149 -3.33149 4.40132 0
M  V30 438 H 47.625 -3.34527 2.47449 0
M  V30 439 H 46.501 -4.66257 2.89647 0
M  V30 440 H 46.762 -4.25262 1.20849 0
M  V30 441 N 45.8211 -1.22559 -0.990812 0
M  V30 442 C 47.0701 -1.04553 -1.72486 0
M  V30 443 C 47.3831 0.419349 -1.91052 0
M  V30 444 O 48.5891 0.719121 -2.61803 0
M  V30 445 C 47.0451 -1.82231 -3.10355 0
M  V30 446 C 46.6531 -3.32981 -2.99713 0
M  V30 447 C 48.3971 -1.7268 -3.87791 0
M  V30 448 C 46.3041 -4.03091 -4.32748 0
M  V30 449 H 45.2341 -0.387614 -0.646739 0
M  V30 450 H 47.8851 -1.46429 -1.10593 0
M  V30 451 H 46.2671 -1.33155 -3.72942 0
M  V30 452 H 47.4411 -3.89466 -2.46278 0
M  V30 453 H 45.7561 -3.43231 -2.35758 0
M  V30 454 H 48.3531 -2.22381 -4.86262 0
M  V30 455 H 48.6961 -0.687607 -4.10582 0
M  V30 456 H 49.2291 -2.1931 -3.31885 0
M  V30 457 H 45.9681 -5.07273 -4.15156 0
M  V30 458 H 45.4881 -3.51394 -4.86089 0
M  V30 459 H 47.1671 -4.08804 -5.01486 0
M  V30 460 N 47.2992 1.18797 -1.03562 0
M  V30 461 C 48.2292 2.24472 -0.643019 0
M  V30 462 C 49.2102 1.66433 0.351283 0
M  V30 463 O 50.3952 1.92803 0.232505 0
M  V30 464 C 47.5252 3.473 4.24935e-05 0
M  V30 465 C 46.4792 4.18055 -0.917257 0
M  V30 466 C 45.8052 5.34519 -0.138941 0
M  V30 467 C 47.1052 4.72109 -2.23407 0
M  V30 468 H 48.7992 2.57566 -1.52643 0
M  V30 469 H 46.3452 1.23806 -0.735394 0
M  V30 470 H 48.2982 4.20426 0.286383 0
M  V30 471 H 47.0222 3.13424 0.918299 0
M  V30 472 H 45.6812 3.46821 -1.1879 0
M  V30 473 H 45.3292 4.96891 0.781562 0
M  V30 474 H 45.0292 5.82794 -0.750005 0
M  V30 475 H 46.5532 6.10438 0.1405 0
M  V30 476 H 47.9672 5.36955 -2.00879 0
M  V30 477 H 46.3642 5.30897 -2.79765 0
M  V30 478 H 47.4342 3.89807 -2.88407 0
M  V30 479 N 48.7773 0.814389 1.34928 0
M  V30 480 C 50.0253 0.397636 1.9815 0
M  V30 481 C 50.3463 -1.04069 1.64908 0
M  V30 482 O 49.6163 -1.72121 0.93548 0
M  V30 483 H 48.1963 0.144043 0.732981 0
M  V30 484 H 50.8583 1.04195 1.6471 0
M  V30 485 H 49.9543 0.509688 3.0791 0
M  V30 486 N 50.2554 -1.46986 0.568584 0
M  V30 487 C 51.5034 -2.02041 0.0487022 0
M  V30 488 C 51.8244 -1.44408 -1.31039 0
M  V30 489 O 51.0944 -0.623477 -1.85714 0
M  V30 490 H 49.6744 -0.746849 0.015014 0
M  V30 491 H 52.3364 -1.80257 0.741168 0
M  V30 492 H 51.4324 -3.12085 -0.0308961 0
M  V30 493 N 51.7335 -0.305618 -1.54608 0
M  V30 494 C 52.6635 0.561482 -2.26649 0
M  V30 495 C 53.6445 1.13415 -1.26772 0
M  V30 496 O 54.8295 1.16262 -1.55553 0
M  V30 497 C 51.9595 1.73122 -3.01075 0
M  V30 498 C 50.9135 1.2887 -4.08138 0
M  V30 499 C 50.2395 2.54396 -4.70305 0
M  V30 500 C 51.5395 0.416578 -5.20636 0
M  V30 501 H 53.2335 -0.0393902 -2.99374 0
M  V30 502 H 50.7795 -0.020385 -1.43986 0
M  V30 503 H 52.7325 2.34396 -3.50195 0
M  V30 504 H 51.4565 2.3584 -2.25936 0
M  V30 505 H 50.1155 0.698991 -3.59875 0
M  V30 506 H 49.7635 3.15439 -3.918 0
M  V30 507 H 49.4635 2.25486 -5.42614 0
M  V30 508 H 50.9875 3.16464 -5.2219 0
M  V30 509 H 52.4015 0.935116 -5.65622 0
M  V30 510 H 50.7985 0.221046 -5.99693 0
M  V30 511 H 51.8685 -0.557162 -4.81688 0
M  V30 512 N 53.2116 1.57565 -0.0334293 0
M  V30 513 C 54.4606 1.91155 0.643639 0
M  V30 514 C 54.7736 0.91192 1.73042 0
M  V30 515 O 55.9796 1.13923 2.46442 0
M  V30 516 C 54.4356 3.39443 1.1961 0
M  V30 517 C 54.0436 4.47774 0.142381 0
M  V30 518 C 55.7876 3.82094 1.84944 0
M  V30 519 C 53.6946 5.87162 0.706727 0
M  V30 520 H 52.6246 0.713368 0.244176 0
M  V30 521 H 55.2756 1.8323 -0.0994323 0
M  V30 522 H 53.6576 3.42313 1.99092 0
M  V30 523 H 54.8316 4.56469 -0.630296 0
M  V30 524 H 53.1466 4.14352 -0.412446 0
M  V30 525 H 55.7436 4.83591 2.2813 0
M  V30 526 H 56.0866 3.17386 2.69392 0
M  V30 527 H 56.6196 3.81665 1.12145 0
M  V30 528 H 53.3586 6.55424 -0.0997178 0
M  V30 529 H 52.8786 5.82064 1.44779 0
M  V30 530 H 54.5576 6.35866 1.19514 0
M  V30 531 N 54.6897 -0.239769 1.55765 0
M  V30 532 C 55.6197 -1.30052 1.9393 0
M  V30 533 C 56.6007 -1.49839 0.805132 0
M  V30 534 O 57.7857 -1.62328 1.06599 0
M  V30 535 C 54.9157 -2.65391 2.2402 0
M  V30 536 C 53.8697 -2.60289 3.39755 0
M  V30 537 C 53.1957 -3.99489 3.55405 0
M  V30 538 C 54.4957 -2.16654 4.75246 0
M  V30 539 H 56.1897 -0.983573 2.82783 0
M  V30 540 H 53.7357 -0.471701 1.36055 0
M  V30 541 H 55.6887 -3.3974 2.49308 0
M  V30 542 H 54.4127 -2.98736 1.32 0
M  V30 543 H 53.0717 -1.88398 3.14487 0
M  V30 544 H 52.7197 -4.30112 2.60793 0
M  V30 545 H 52.4197 -3.96962 4.33238 0
M  V30 546 H 53.9437 -4.75528 3.83022 0
M  V30 547 H 55.3577 -2.80737 4.99859 0
M  V30 548 H 53.7547 -2.25223 5.56232 0
M  V30 549 H 54.8247 -1.11835 4.71827 0
M  V30 550 N 56.1678 -1.49265 -0.50573 0
M  V30 551 C 57.4148 -1.58513 -1.26015 0
M  V30 552 C 57.7428 -0.26972 -1.92621 0
M  V30 553 O 56.9978 0.741997 -1.81088 0
M  V30 554 C 57.2968 -2.69008 -2.35308 0
M  V30 555 C 56.9628 -4.10662 -1.86192 0
M  V30 556 C 55.6248 -4.49212 -1.72516 0
M  V30 557 C 57.9768 -4.99336 -1.49375 0
M  V30 558 C 55.3048 -5.74214 -1.20394 0
M  V30 559 C 57.6568 -6.24852 -0.987072 0
M  V30 560 C 56.3208 -6.62236 -0.836669 0
M  V30 561 H 55.5908 -0.580041 -0.461122 0
M  V30 562 H 58.2378 -1.83078 -0.561665 0
M  V30 563 H 56.5428 -2.38396 -3.10926 0
M  V30 564 H 58.2398 -2.73373 -2.93374 0
M  V30 565 H 54.8298 -3.8023 -1.97795 0
M  V30 566 H 59.0138 -4.70212 -1.5879 0
M  V30 567 H 54.2698 -6.01883 -1.07458 0
M  V30 568 H 58.4438 -6.92944 -0.692983 0
M  V30 569 H 56.0708 -7.58979 -0.430607 0
M  V30 570 N 57.6459 0.756429 -1.3826 0
M  V30 571 C 58.8939 1.51248 -1.34047 0
M  V30 572 C 59.2149 1.94875 0.0698372 0
M  V30 573 O 58.4849 1.67436 1.01696 0
M  V30 574 H 57.0649 0.561018 -0.493222 0
M  V30 575 H 59.7269 0.899347 -1.7291 0
M  V30 576 H 58.8229 2.40472 -1.98947 0
M  V30 577 N 59.124 1.23083 0.984299 0
M  V30 578 C 60.37 1.06214 1.72761 0
M  V30 579 C 60.703 -0.400584 1.90024 0
M  V30 580 O 59.978 -1.29672 1.44967 0
M  V30 581 C 60.261 1.78375 3.12817 0
M  V30 582 C 60.114 3.32296 3.03149 0
M  V30 583 C 61.433 1.54309 4.12161 0
M  V30 584 H 58.552 0.387251 0.627061 0
M  V30 585 H 61.194 1.51536 1.14616 0
M  V30 586 H 59.344 1.39848 3.62457 0
M  V30 587 H 61.016 3.8032 2.61064 0
M  V30 588 H 59.259 3.6153 2.39747 0
M  V30 589 H 59.93 3.77972 4.02295 0
M  V30 590 H 62.406 1.87791 3.71314 0
M  V30 591 H 61.282 2.07281 5.08258 0
M  V30 592 H 61.543 0.477572 4.39513 0
M  V30 593 N 60.6021 -1.18246 1.0419 0
M  V30 594 C 61.5321 -2.24127 0.654914 0
M  V30 595 C 62.5131 -1.66617 -0.342451 0
M  V30 596 O 63.6981 -1.92924 -0.222277 0
M  V30 597 C 60.8281 -3.47295 0.0183757 0
M  V30 598 C 59.7821 -4.17563 0.939414 0
M  V30 599 C 59.1081 -5.34438 0.167286 0
M  V30 600 C 60.4081 -4.70917 2.25908 0
M  V30 601 H 62.1021 -2.56753 1.54007 0
M  V30 602 H 59.6481 -1.23414 0.74195 0
M  V30 603 H 61.6011 -4.20572 -0.264082 0
M  V30 604 H 60.3251 -3.13907 -0.901664 0
M  V30 605 H 58.9841 -3.46186 1.20628 0
M  V30 606 H 58.6321 -4.97298 -0.7552 0
M  V30 607 H 58.3321 -5.82388 0.780901 0
M  V30 608 H 59.8561 -6.10504 -0.108125 0
M  V30 609 H 61.2701 -5.35882 2.03724 0
M  V30 610 H 59.6671 -5.29406 2.82577 0
M  V30 611 H 60.7371 -3.88272 2.9047 0
M  V30 612 N 62.0802 -0.821533 -1.34494 0
M  V30 613 C 63.3282 -0.408139 -1.97936 0
M  V30 614 C 63.6492 1.03193 -1.65457 0
M  V30 615 O 62.9192 1.71622 -0.944595 0
M  V30 616 H 61.4992 -0.147928 -0.732206 0
M  V30 617 H 64.1612 -1.05067 -1.64155 0
M  V30 618 H 63.2572 -0.52601 -3.07635 0
M  V30 619 N 63.5583 1.46682 -0.576371 0
M  V30 620 C 64.5063 2.31953 0.17335 0
M  V30 621 C 65.5003 1.44098 0.89062 0
M  V30 622 O 66.7063 1.60759 0.809728 0
M  V30 623 H 63.0813 0.748273 0.0747727 0
M  V30 624 H 65.0523 2.93007 -0.564738 0
M  V30 625 C 63.8013 3.27142 1.17786 0
M  V30 626 H 63.1243 3.94719 0.635361 0
M  V30 627 H 64.5643 3.896 1.67296 0
M  V30 628 C 63.0233 2.52036 2.23561 0
M  V30 629 O 63.5533 2.27877 3.3081 0
M  V30 630 N 61.7593 2.12709 1.97998 0
M  V30 631 H 61.3063 2.32557 1.10792 0
M  V30 632 H 61.2643 1.62776 2.68982 0
M  V30 633 N 65.0364 0.313813 1.54444 0
M  V30 634 C 66.2854 -0.292519 1.99568 0
M  V30 635 C 66.5984 -1.54011 1.20582 0
M  V30 636 O 67.8044 -2.22183 1.56035 0
M  V30 637 C 66.2604 -0.571752 3.55329 0
M  V30 638 C 65.8684 0.658229 4.43138 0
M  V30 639 C 67.6124 -1.13857 4.08946 0
M  V30 640 C 65.5194 0.351439 5.90355 0
M  V30 641 H 64.4494 -0.113079 0.745472 0
M  V30 642 H 67.1004 0.424518 1.78522 0
M  V30 643 H 65.4824 -1.34872 3.72325 0
M  V30 644 H 66.6564 1.43403 4.37918 0
M  V30 645 H 64.9714 1.14458 4.0036 0
M  V30 646 H 67.5684 -1.38257 5.16516 0
M  V30 647 H 67.9114 -2.08489 3.6033 0
M  V30 648 H 68.4444 -0.423015 3.95544 0
M  V30 649 H 65.1834 1.26667 6.43145 0
M  V30 650 H 64.7034 -0.386842 5.98551 0
M  V30 651 H 66.3824 -0.0423134 6.46986 0
M  V30 652 N 66.5145 -1.57545 0.0417849 0
M  V30 653 C 67.4445 -2.14009 -0.933929 0
M  V30 654 C 68.4255 -1.05938 -1.33083 0
M  V30 655 O 69.6105 -1.33833 -1.40721 0
M  V30 656 C 66.7405 -2.67747 -2.21199 0
M  V30 657 C 65.6945 -3.80718 -1.95544 0
M  V30 658 C 65.0205 -4.20935 -3.29724 0
M  V30 659 C 66.3205 -5.06258 -1.28452 0
M  V30 660 H 68.0145 -2.95788 -0.463645 0
M  V30 661 H 65.5605 -1.42285 -0.221573 0
M  V30 662 H 67.5135 -3.05886 -2.89848 0
M  V30 663 H 66.2375 -1.83147 -2.70416 0
M  V30 664 H 64.8965 -3.43037 -1.2931 0
M  V30 665 H 64.5445 -3.33298 -3.76724 0
M  V30 666 H 64.2445 -4.9707 -3.13361 0
M  V30 667 H 65.7685 -4.61666 -3.9962 0
M  V30 668 H 67.1825 -5.41903 -1.8712 0
M  V30 669 H 65.5795 -5.87475 -1.22445 0
M  V30 670 H 66.6495 -4.84207 -0.259219 0
M  V30 671 N 67.9926 0.231505 -1.5589 0
M  V30 672 C 69.2386 0.95877 -1.78705 0
M  V30 673 C 69.5716 1.8438 -0.609725 0
M  V30 674 O 68.8466 1.90521 0.391426 0
M  V30 675 C 69.1296 1.8062 -3.11526 0
M  V30 676 C 68.9826 0.948328 -4.39689 0
M  V30 677 C 70.3016 2.78585 -3.40703 0
M  V30 678 H 67.4206 0.347129 -0.650131 0
M  V30 679 H 70.0626 0.228259 -1.88624 0
M  V30 680 H 68.2126 2.42902 -3.03201 0
M  V30 681 H 69.8846 0.343016 -4.60023 0
M  V30 682 H 68.1276 0.253314 -4.3306 0
M  V30 683 H 68.7986 1.57543 -5.29041 0
M  V30 684 H 71.2746 2.26439 -3.49091 0
M  V30 685 H 70.1506 3.34988 -4.34826 0
M  V30 686 H 70.4116 3.55825 -2.62375 0
M  V30 687 N 69.4707 1.49531 0.497807 0
M  V30 688 C 70.7197 1.58426 1.24837 0
M  V30 689 C 71.0327 0.277643 1.93619 0
M  V30 690 O 72.2387 0.24517 2.70391 0
M  V30 691 C 70.6947 2.79538 2.26686 0
M  V30 692 C 70.3027 4.16971 1.63828 0
M  V30 693 C 72.0467 2.97764 3.0255 0
M  V30 694 C 69.9537 5.29301 2.63807 0
M  V30 695 H 68.8837 0.58989 0.469623 0
M  V30 696 H 71.5347 1.75923 0.521857 0
M  V30 697 H 69.9167 2.55542 3.02514 0
M  V30 698 H 71.0907 4.51116 0.939711 0
M  V30 699 H 69.4057 4.04129 1.00342 0
M  V30 700 H 72.0027 3.78856 3.77323 0
M  V30 701 H 72.3457 2.08448 3.60354 0
M  V30 702 H 72.8787 3.21815 2.33838 0
M  V30 703 H 69.6177 6.20687 2.10779 0
M  V30 704 H 69.1377 4.99606 3.31894 0
M  V30 705 H 70.8167 5.58768 3.2617 0
M  V30 706 N 70.9488 -0.749086 1.3866 0
M  V30 707 C 71.8788 -1.8764 1.38973 0
M  V30 708 C 72.8598 -1.68178 0.255004 0
M  V30 709 O 74.0448 -1.88704 0.458754 0
M  V30 710 C 71.1748 -3.25222 1.21851 0
M  V30 711 C 70.1288 -3.59295 2.32575 0
M  V30 712 C 69.4548 -4.95663 2.00555 0
M  V30 713 C 70.7548 -3.63709 3.7485 0
M  V30 714 H 72.4488 -1.87635 2.3331 0
M  V30 715 H 69.9948 -0.901329 1.12303 0
M  V30 716 H 71.9478 -4.03746 1.20695 0
M  V30 717 H 70.6718 -3.25719 0.239775 0
M  V30 718 H 69.3308 -2.83093 2.32925 0
M  V30 719 H 68.9788 -4.92724 1.01154 0
M  V30 720 H 68.6788 -5.19429 2.74714 0
M  V30 721 H 70.2028 -5.7656 2.01024 0
M  V30 722 H 71.6168 -4.32338 3.76506 0
M  V30 723 H 70.0138 -3.98986 4.48252 0
M  V30 724 H 71.0838 -2.63834 4.06841 0
M  V30 725 N 72.4269 -1.23603 -0.977757 0
M  V30 726 C 73.6519 -1.09735 -1.75991 0
M  V30 727 C 74.0769 0.346858 -1.84874 0
M  V30 728 O 73.4349 1.25093 -1.3123 0
M  V30 729 C 73.4829 -1.73051 -3.16363 0
M  V30 730 O 72.5869 -0.994452 -4.0023 0
M  V30 731 H 71.9279 -0.384476 -0.541364 0
M  V30 732 H 74.4579 -1.6371 -1.2272 0
M  V30 733 H 74.4679 -1.78398 -3.66931 0
M  V30 734 H 73.1429 -2.78137 -3.09213 0
M  V30 735 H 71.7199 -1.01812 -3.58732 0
M  V30 736 N 73.905 1.17692 -1.04816 0
M  V30 737 C 75.151 1.88137 -0.75711 0
M  V30 738 C 75.484 1.80604 0.713841 0
M  V30 739 O 74.759 1.21146 1.52164 0
M  V30 740 C 75.042 3.38318 -1.2334 0
M  V30 741 C 74.895 3.54622 -2.76701 0
M  V30 742 C 76.214 4.32214 -0.829415 0
M  V30 743 H 73.333 0.683163 -0.27651 0
M  V30 744 H 75.975 1.38424 -1.30149 0
M  V30 745 H 74.125 3.80787 -0.770286 0
M  V30 746 H 75.797 3.21194 -3.31107 0
M  V30 747 H 74.04 2.97026 -3.16161 0
M  V30 748 H 74.711 4.60028 -3.05088 0
M  V30 749 H 77.187 3.97565 -1.22805 0
M  V30 750 H 76.063 5.35838 -1.19033 0
M  V30 751 H 76.324 4.41294 0.266891 0
M  V30 752 N 75.3831 0.828654 1.34056 0
M  V30 753 C 76.3461 0.259927 2.27721 0
M  V30 754 C 77.3461 -0.565478 1.50529 0
M  V30 755 O 78.5361 -0.38075 1.69988 0
M  V30 756 C 75.6681 -0.634944 3.34935 0
M  V30 757 H 76.8611 1.0863 2.79534 0
M  V30 758 H 74.4141 0.600951 1.44285 0
M  V30 759 H 75.1491 -1.48416 2.88346 0
M  V30 760 H 74.9341 -0.0444999 3.92075 0
M  V30 761 H 76.4241 -1.02648 4.04788 0
M  V30 762 N 76.8612 -1.46375 0.584142 0
M  V30 763 C 78.1012 -2.0427 0.0729695 0
M  V30 764 C 78.4652 -1.44563 -1.26355 0
M  V30 765 O 79.6662 -1.93667 -1.86405 0
M  V30 766 C 77.9372 -3.57399 0.00967464 0
M  V30 767 S 79.4962 -4.36551 -0.443714 0
M  V30 768 H 76.3142 -0.709975 0.0381673 0
M  V30 769 H 78.9162 -1.79398 0.776962 0
M  V30 770 H 77.6202 -3.98372 0.986319 0
M  V30 771 H 77.1512 -3.8681 -0.717044 0
M  V30 772 H 79.1662 -4.66237 -1.69816 0
M  V30 773 N 78.3393 -0.321999 -1.54275 0
M  V30 774 C 79.2893 0.560185 -2.21011 0
M  V30 775 C 80.2733 1.08283 -1.19011 0
M  V30 776 O 81.4653 1.02011 -1.44647 0
M  V30 777 C 78.5943 1.72137 -2.97025 0
M  V30 778 C 77.6803 1.21369 -4.06363 0
M  V30 779 N 78.0713 0.425566 -5.04007 0
M  V30 780 C 76.3693 1.49255 -4.20284 0
M  V30 781 C 77.0703 0.152601 -5.815 0
M  V30 782 N 76.0463 0.738294 -5.38563 0
M  V30 783 H 79.8483 -0.049265 -2.93859 0
M  V30 784 H 77.3623 -0.127779 -1.61897 0
M  V30 785 H 79.3593 2.36512 -3.43319 0
M  V30 786 H 78.0193 2.33431 -2.25699 0
M  V30 787 H 79.0303 0.068551 -5.17855 0
M  V30 788 H 75.7073 2.11145 -3.60172 0
M  V30 789 H 77.0973 -0.481764 -6.70171 0
M  V30 790 N 79.8174 1.5752 -0.0501392 0
M  V30 791 C 81.2334 1.56631 0.306402 0
M  V30 792 C 81.4334 1.0577 1.71508 0
M  V30 793 O 80.4894 0.713837 2.422 0
M  V30 794 C 81.8024 3.00393 0.135811 0
M  V30 795 C 83.3504 3.12315 0.206993 0
M  V30 796 C 83.8254 4.57954 0.064944 0
M  V30 797 N 85.3164 4.63041 0.121254 0
M  V30 798 C 86.0514 5.73389 0.0354381 0
M  V30 799 N 85.5474 6.92724 -0.102666 0
M  V30 800 N 87.3404 5.62026 0.090946 0
M  V30 801 H 79.4914 1.88903 -0.971046 0
M  V30 802 H 81.7544 0.869876 -0.376855 0
M  V30 803 H 81.4604 3.41635 -0.835384 0
M  V30 804 H 81.3344 3.66373 0.897275 0
M  V30 805 H 83.7214 2.70973 1.16866 0
M  V30 806 H 83.8024 2.49016 -0.585208 0
M  V30 807 H 83.4464 4.99981 -0.893394 0
M  V30 808 H 83.3764 5.19258 0.876277 0
M  V30 809 H 85.8674 3.77216 0.227284 0
M  V30 810 H 86.1804 7.72633 -0.160882 0
M  V30 811 H 84.5254 6.94864 -0.137737 0
M  V30 812 H 87.7164 4.67684 0.197388 0
M  V30 813 H 87.8894 6.47997 0.0206089 0
M  V30 814 N 81.2955 -0.223234 1.56011 0
M  V30 815 C 82.2455 -1.28008 1.88674 0
M  V30 816 C 83.2295 -1.42369 0.749663 0
M  V30 817 O 84.4215 -1.45212 1.01205 0
M  V30 818 C 81.5505 -2.63084 2.20548 0
M  V30 819 C 80.6365 -2.52632 3.40643 0
M  V30 820 N 81.0275 -2.11829 4.59306 0
M  V30 821 C 79.3255 -2.83594 3.44224 0
M  V30 822 C 80.0265 -2.12587 5.41463 0
M  V30 823 N 79.0025 -2.5301 4.81131 0
M  V30 824 H 82.8045 -0.955487 2.77935 0
M  V30 825 H 80.3185 -0.431801 1.56554 0
M  V30 826 H 82.3155 -3.39385 2.42122 0
M  V30 827 H 80.9755 -2.96391 1.32599 0
M  V30 828 H 81.9865 -1.82988 4.84496 0
M  V30 829 H 78.6635 -3.21284 2.66614 0
M  V30 830 H 80.0535 -1.83179 6.46448 0
M  V30 831 N 82.7736 -1.49793 -0.48987 0
M  V30 832 C 83.7036 -1.70201 -1.59856 0
M  V30 833 C 84.6846 -0.55076 -1.60937 0
M  V30 834 O 85.8696 -0.787841 -1.77501 0
M  V30 835 C 82.9996 -1.77882 -2.98287 0
M  V30 836 C 81.9536 -2.92907 -3.12073 0
M  V30 837 C 81.2796 -2.85712 -4.51965 0
M  V30 838 C 82.5796 -4.3369 -2.91051 0
M  V30 839 H 84.2736 -2.63025 -1.43032 0
M  V30 840 H 81.8196 -1.26574 -0.686664 0
M  V30 841 H 83.7726 -1.90744 -3.75759 0
M  V30 842 H 82.4966 -0.816653 -3.16225 0
M  V30 843 H 81.1556 -2.79665 -2.37029 0
M  V30 844 H 80.8036 -1.8738 -4.66795 0
M  V30 845 H 80.5036 -3.62921 -4.62128 0
M  V30 846 H 82.0276 -3.00598 -5.31482 0
M  V30 847 H 83.4416 -4.47555 -3.58284 0
M  V30 848 H 81.8386 -5.12205 -3.12675 0
M  V30 849 H 82.9086 -4.47362 -1.87071 0
M  V30 850 N 84.2517 0.741722 -1.39055 0
M  V30 851 C 85.2017 1.84661 -1.33732 0
M  V30 852 C 86.1857 1.59397 -0.219401 0
M  V30 853 O 87.3777 1.71015 -0.456375 0
M  V30 854 C 84.5067 3.22512 -1.17647 0
M  V30 855 C 83.5927 3.53628 -2.34112 0
M  V30 856 N 83.9837 3.55723 -3.59576 0
M  V30 857 C 82.2817 3.83956 -2.26923 0
M  V30 858 C 82.9827 3.84443 -4.36553 0
M  V30 859 N 81.9587 4.01877 -3.66055 0
M  V30 860 H 85.7607 1.84576 -2.28711 0
M  V30 861 H 83.2747 0.939647 -1.32455 0
M  V30 862 H 85.2717 4.01597 -1.11917 0
M  V30 863 H 83.9317 3.2384 -0.236124 0
M  V30 864 H 84.9427 3.37196 -3.93089 0
M  V30 865 H 81.6197 3.92929 -1.41113 0
M  V30 866 H 83.0097 3.92588 -5.45274 0
M  V30 867 N 85.7298 1.2412 0.971189 0
M  V30 868 C 86.9548 1.10667 1.75407 0
M  V30 869 C 87.3798 -0.337048 1.85056 0
M  V30 870 O 86.7378 -1.24396 1.31892 0
M  V30 871 C 86.7858 1.74726 3.15441 0
M  V30 872 O 85.8898 1.01566 3.99697 0
M  V30 873 H 85.2308 0.387341 0.539317 0
M  V30 874 H 87.7608 1.64358 1.2185 0
M  V30 875 H 87.7708 1.80341 3.6598 0
M  V30 876 H 86.4458 2.79773 3.07734 0
M  V30 877 H 85.0228 1.03713 3.58187 0
M  V30 878 N 87.2079 -1.17134 1.05439 0
M  V30 879 C 88.4539 -1.87733 0.767077 0
M  V30 880 C 88.7869 -1.8098 -0.704253 0
M  V30 881 O 88.0619 -1.21951 -1.5152 0
M  V30 882 C 88.3449 -3.37659 1.25133 0
M  V30 883 C 88.1979 -3.53149 2.78578 0
M  V30 884 C 89.5169 -4.31768 0.852324 0
M  V30 885 H 86.6359 -0.681687 0.280129 0
M  V30 886 H 89.2779 -1.37732 1.30881 0
M  V30 887 H 87.4279 -3.80373 0.790469 0
M  V30 888 H 89.0999 -3.19434 3.32806 0
M  V30 889 H 87.3429 -2.95345 3.17732 0
M  V30 890 H 88.0139 -4.58403 3.07523 0
M  V30 891 H 90.4899 -3.96909 1.24911 0
M  V30 892 H 89.3659 -5.35199 1.21873 0
M  V30 893 H 89.6269 -4.41429 -0.243485 0
M  V30 894 N 88.686 -0.835752 -1.33615 0
M  V30 895 C 89.914 -0.443344 -2.02094 0
M  V30 896 C 90.329 0.954522 -1.62894 0
M  V30 897 O 89.686 1.61982 -0.840723 0
M  V30 898 C 89.737 -0.550775 -3.5728 0
M  V30 899 O 89.458 -1.89356 -3.95065 0
M  V30 900 C 90.959 -0.154919 -4.43029 0
M  V30 901 H 88.179 -0.176359 -0.647409 0
M  V30 902 H 90.723 -1.12746 -1.70612 0
M  V30 903 H 88.878 0.0853997 -3.87306 0
M  V30 904 H 89.292 -1.87687 -4.89769 0
M  V30 905 H 90.766 -0.281144 -5.51284 0
M  V30 906 H 91.243 0.902863 -4.2982 0
M  V30 907 H 91.849 -0.765404 -4.18356 0
M  V30 908 N 90.1641 1.46063 -0.591896 0
M  V30 909 C 91.1141 2.27458 0.157172 0
M  V30 910 C 92.0981 1.3641 0.853301 0
M  V30 911 O 93.2901 1.60517 0.74588 0
M  V30 912 C 90.4191 3.22956 1.16423 0
M  V30 913 C 89.5051 4.2149 0.469742 0
M  V30 914 N 89.8961 5.03519 -0.479839 0
M  V30 915 C 88.1941 4.40161 0.719319 0
M  V30 916 C 88.8951 5.74904 -0.886591 0
M  V30 917 N 87.8711 5.43097 -0.233731 0
M  V30 918 H 91.6731 2.88272 -0.572392 0
M  V30 919 H 89.1871 1.57024 -0.414375 0
M  V30 920 H 91.1841 3.79986 1.71513 0
M  V30 921 H 89.8441 2.63701 1.89451 0
M  V30 922 H 90.8551 5.1078 -0.855823 0
M  V30 923 H 87.5321 3.92046 1.43548 0
M  V30 924 H 88.9221 6.50844 -1.66888 0
M  V30 925 N 91.6422 0.330177 1.54103 0
M  V30 926 C 92.8722 -0.271784 2.04805 0
M  V30 927 C 93.2802 -1.45816 1.20559 0
M  V30 928 O 92.6232 -1.82247 0.2306 0
M  V30 929 C 92.6852 -0.763238 3.51305 0
M  V30 930 C 92.3492 0.301705 4.56003 0
M  V30 931 C 93.3462 1.13999 5.07248 0
M  V30 932 C 91.0312 0.451793 5.00264 0
M  V30 933 C 93.0252 2.11402 6.01322 0
M  V30 934 C 90.7122 1.42924 5.94151 0
M  V30 935 C 91.7102 2.25882 6.44567 0
M  V30 936 O 91.3982 3.21965 7.3661 0
M  V30 937 H 91.1302 -0.058693 0.673447 0
M  V30 938 H 93.6842 0.476395 1.99799 0
M  V30 939 H 91.9142 -1.56244 3.5373 0
M  V30 940 H 93.6032 -1.28427 3.85047 0
M  V30 941 H 94.3692 1.03505 4.73827 0
M  V30 942 H 90.2482 -0.184044 4.60632 0
M  V30 943 H 93.7922 2.76192 6.40596 0
M  V30 944 H 89.6892 1.53479 6.26988 0
M  V30 945 H 90.4572 3.17281 7.54503 0
M  V30 946 N 93.1203 -1.57491 0.0584922 0
M  V30 947 C 94.3503 -1.9701 -0.622134 0
M  V30 948 C 94.7583 -0.935034 -1.6448 0
M  V30 949 O 94.1013 0.0882904 -1.83488 0
M  V30 950 C 94.1633 -3.32794 -1.35972 0
M  V30 951 C 93.8273 -4.54343 -0.492043 0
M  V30 952 C 94.8243 -5.19323 0.244901 0
M  V30 953 C 92.5093 -5.00534 -0.420821 0
M  V30 954 C 94.5033 -6.28835 1.04143 0
M  V30 955 C 92.1903 -6.09921 0.379389 0
M  V30 956 C 93.1883 -6.73933 1.10919 0
M  V30 957 O 92.8763 -7.81216 1.89623 0
M  V30 958 H 92.6083 -0.653127 -0.174359 0
M  V30 959 H 95.1623 -2.05029 0.123418 0
M  V30 960 H 93.3923 -3.21351 -2.15105 0
M  V30 961 H 95.0813 -3.5701 -1.93129 0
M  V30 962 H 95.8473 -4.8459 0.19939 0
M  V30 963 H 91.7263 -4.50496 -0.978474 0
M  V30 964 H 95.2703 -6.7873 1.61157 0
M  V30 965 H 91.1673 -6.44089 0.426512 0
M  V30 966 H 91.9353 -7.98029 1.81913 0
M  V30 967 N 94.5984 0.214957 -1.56127 0
M  V30 968 C 95.8474 0.936451 -1.78643 0
M  V30 969 C 96.1604 1.85237 -0.628229 0
M  V30 970 O 97.3664 2.613 -0.737186 0
M  V30 971 C 95.8224 1.7154 -3.16389 0
M  V30 972 C 95.4304 0.845299 -4.39953 0
M  V30 973 C 97.1744 2.42772 -3.48227 0
M  V30 974 C 95.0814 1.62198 -5.68723 0
M  V30 975 H 94.0114 0.353401 -0.666051 0
M  V30 976 H 96.6624 0.190169 -1.82512 0
M  V30 977 H 95.0444 2.50484 -3.06715 0
M  V30 978 H 96.2184 0.0959353 -4.607 0
M  V30 979 H 94.5334 0.244789 -4.1568 0
M  V30 980 H 97.1304 3.01394 -4.41663 0
M  V30 981 H 97.4734 3.15984 -2.71035 0
M  V30 982 H 98.0064 1.70813 -3.5926 0
M  V30 983 H 94.7454 0.933011 -6.48826 0
M  V30 984 H 94.2654 2.34579 -5.52026 0
M  V30 985 H 95.9444 2.18095 -6.09133 0
M  V30 986 N 96.0765 1.50051 0.48192 0
M  V30 987 C 97.3225 1.60736 1.2366 0
M  V30 988 C 97.6555 0.301786 1.91841 0
M  V30 989 O 96.9305 -0.696025 1.8162 0
M  V30 990 C 97.2135 2.78009 2.28874 0
M  V30 991 C 97.0665 4.18416 1.65069 0
M  V30 992 C 98.3855 2.90867 3.30279 0
M  V30 993 H 95.5045 0.585031 0.448228 0
M  V30 994 H 98.1465 1.82402 0.531946 0
M  V30 995 H 96.2965 2.59667 2.88973 0
M  V30 996 H 97.9685 4.48322 1.0865 0
M  V30 997 H 96.2115 4.23177 0.954148 0
M  V30 998 H 96.8825 4.96381 2.41474 0
M  V30 999 H 99.3585 3.07623 2.80191 0
M  V30 1000 H 98.2345 3.74566 4.01238 0
M  V30 1001 H 98.4955 2.01021 3.93755 0
M  V30 1002 N 97.5546 -0.734337 1.39446 0
M  V30 1003 C 98.5026 -1.86971 1.38364 0
M  V30 1004 C 99.4966 -1.67288 0.266687 0
M  V30 1005 O 100.703 -1.74621 0.436755 0
M  V30 1006 H 97.0776 -0.615474 0.432082 0
M  V30 1007 H 99.0486 -1.85 2.34132 0
M  V30 1008 C 97.7976 -3.2466 1.24465 0
M  V30 1009 H 97.1206 -3.40402 2.09682 0
M  V30 1010 H 98.5606 -4.04292 1.27764 0
M  V30 1011 C 97.0196 -3.36867 -0.0468674 0
M  V30 1012 O 97.5496 -3.88618 -1.01681 0
M  V30 1013 N 95.7556 -2.90391 -0.110145 0
M  V30 1014 H 95.3026 -2.48466 0.679868 0
M  V30 1015 H 95.2606 -2.98939 -0.973799 0
M  V30 1016 N 99.0327 -1.24633 -0.964593 0
M  V30 1017 C 99.9627 -1.06611 -2.07741 0
M  V30 1018 C 100.944 0.0218666 -1.70086 0
M  V30 1019 O 102.129 -0.145793 -1.93652 0
M  V30 1020 C 99.2587 -0.673444 -3.40708 0
M  V30 1021 C 98.2127 -1.71054 -3.92332 0
M  V30 1022 C 97.5387 -1.17285 -5.21678 0
M  V30 1023 C 98.8387 -3.10718 -4.19824 0
M  V30 1024 H 100.533 -1.99693 -2.23076 0
M  V30 1025 H 98.0787 -0.96152 -1.07195 0
M  V30 1026 H 100.032 -0.534345 -4.17998 0
M  V30 1027 H 98.7557 0.293073 -3.25282 0
M  V30 1028 H 97.4147 -1.83791 -3.17201 0
M  V30 1029 H 97.0627 -0.196847 -5.02615 0
M  V30 1030 H 96.7627 -1.86592 -5.57187 0
M  V30 1031 H 98.2867 -1.04593 -6.01575 0
M  V30 1032 H 99.7007 -3.01192 -4.87808 0
M  V30 1033 H 98.0977 -3.77406 -4.66567 0
M  V30 1034 H 99.1677 -3.58524 -3.26479 0
M  V30 1035 N 100.511 1.16574 -1.06058 0
M  V30 1036 C 101.474 2.19085 -0.673392 0
M  V30 1037 C 102.474 1.5835 0.279648 0
M  V30 1038 O 103.664 1.74088 0.0623488 0
M  V30 1039 C 100.796 3.40899 0.00954234 0
M  V30 1040 H 101.989 2.54853 -1.58081 0
M  V30 1041 H 99.5418 1.30808 -0.855516 0
M  V30 1042 H 100.277 3.10684 0.929826 0
M  V30 1043 H 100.062 3.86233 -0.67573 0
M  V30 1044 H 101.552 4.1675 0.266245 0
M  V30 1045 N 101.989 0.842826 1.3317 0
M  V30 1046 C 103.235 0.441099 1.97945 0
M  V30 1047 C 103.568 -0.998024 1.66593 0
M  V30 1048 O 102.843 -1.69839 0.947898 0
M  V30 1049 C 103.126 0.666841 3.53872 0
M  V30 1050 C 102.979 2.15352 3.94897 0
M  V30 1051 C 104.298 0.115544 4.39948 0
M  V30 1052 H 101.417 0.161739 0.719034 0
M  V30 1053 H 104.059 1.05907 1.57746 0
M  V30 1054 H 102.209 0.140828 3.88245 0
M  V30 1055 H 103.881 2.7447 3.70761 0
M  V30 1056 H 102.124 2.63653 3.44484 0
M  V30 1057 H 102.795 2.26221 5.03516 0
M  V30 1058 H 105.271 0.565213 4.12243 0
M  V30 1059 H 104.147 0.303152 5.48062 0
M  V30 1060 H 104.408 -0.980935 4.3108 0
M  V30 1061 N 103.467 -1.45747 0.599634 0
M  V30 1062 C 104.43 -2.28917 -0.113835 0
M  V30 1063 C 105.43 -1.3933 -0.802729 0
M  V30 1064 O 106.62 -1.61534 -0.652103 0
M  V30 1065 C 103.752 -3.20152 -1.17114 0
M  V30 1066 H 104.945 -2.93478 0.617289 0
M  V30 1067 H 102.498 -1.52137 0.358327 0
M  V30 1068 H 103.233 -2.60374 -1.93329 0
M  V30 1069 H 103.018 -3.86133 -0.681468 0
M  V30 1070 H 104.508 -3.82708 -1.67105 0
M  V30 1071 N 104.945 -0.338344 -1.53925 0
M  V30 1072 C 106.222 0.314774 -1.93051 0
M  V30 1073 C 106.602 1.68669 -1.26941 0
M  V30 1074 O 105.95 2.24636 -0.418445 0
M  V30 1075 C 106.16 0.392249 -3.46789 0
M  V30 1076 C 107.508 0.645554 -4.19664 0
M  V30 1077 O 108.532 0.474575 -3.53024 0
M  V30 1078 O 107.391 0.976408 -5.37707 0
M  V30 1079 H 104.485 0.182598 -0.80659 0
M  V30 1080 H 107.031 -0.389141 -1.65178 0
M  V30 1081 H 105.803 -0.570702 -3.87116 0
M  V30 1082 H 105.426 1.14316 -3.80812 0
M  V30 1083 N 106.423 1.57458 -0.0668435 0
M  V30 1084 C 107.353 2.15468 0.899764 0
M  V30 1085 C 108.334 1.08042 1.31381 0
M  V30 1086 O 109.519 1.36054 1.38574 0
M  V30 1087 C 106.649 2.71232 2.16911 0
M  V30 1088 C 105.603 3.83781 1.89463 0
M  V30 1089 C 104.929 4.26127 3.22986 0
M  V30 1090 C 106.229 5.08238 1.20381 0
M  V30 1091 H 107.923 2.96488 0.416529 0
M  V30 1092 H 105.469 1.4262 0.198908 0
M  V30 1093 H 107.422 3.10458 2.84945 0
M  V30 1094 H 106.146 1.87426 2.67468 0
M  V30 1095 H 104.805 3.45051 1.23836 0
M  V30 1096 H 104.453 3.39249 3.71374 0
M  V30 1097 H 104.153 5.01993 3.05413 0
M  V30 1098 H 105.677 4.67966 3.92225 0
M  V30 1099 H 107.091 5.44811 1.78475 0
M  V30 1100 H 105.488 5.89349 1.13083 0
M  V30 1101 H 106.558 4.84558 0.182153 0
M  V30 1102 N 107.901 -0.206675 1.56239 0
M  V30 1103 C 108.831 -1.25909 1.96645 0
M  V30 1104 C 109.812 -1.48097 0.836734 0
M  V30 1105 O 110.997 -1.6003 1.10019 0
M  V30 1106 C 108.127 -2.6058 2.29599 0
M  V30 1107 C 107.081 -2.53024 3.452 0
M  V30 1108 C 106.407 -3.91861 3.63798 0
M  V30 1109 C 107.707 -2.06524 4.79734 0
M  V30 1110 H 109.401 -0.923369 2.84806 0
M  V30 1111 H 106.947 -0.442735 1.37025 0
M  V30 1112 H 108.9 -3.34375 2.56459 0
M  V30 1113 H 107.624 -2.95869 1.38307 0
M  V30 1114 H 106.283 -1.81684 3.18412 0
M  V30 1115 H 105.931 -4.24483 2.69857 0
M  V30 1116 H 105.631 -3.87683 4.4156 0
M  V30 1117 H 107.155 -4.67296 3.93022 0
M  V30 1118 H 108.569 -2.70072 5.05702 0
M  V30 1119 H 106.966 -2.13374 5.60885 0
M  V30 1120 H 108.036 -1.01802 4.74093 0
M  V30 1121 N 109.379 -1.50304 -0.473955 0
M  V30 1122 C 110.309 -1.71886 -1.58042 0
M  V30 1123 C 111.29 -0.567799 -1.60344 0
M  V30 1124 O 112.475 -0.806623 -1.76656 0
M  V30 1125 C 109.605 -1.81036 -2.96384 0
M  V30 1126 C 108.559 -2.962 -3.08949 0
M  V30 1127 C 107.885 -2.9049 -4.48909 0
M  V30 1128 C 109.185 -4.36752 -2.86434 0
M  V30 1129 H 110.879 -2.64527 -1.40234 0
M  V30 1130 H 108.425 -1.27295 -0.673201 0
M  V30 1131 H 110.378 -1.94719 -3.73714 0
M  V30 1132 H 109.102 -0.850147 -3.15341 0
M  V30 1133 H 107.761 -2.82164 -2.3405 0
M  V30 1134 H 107.409 -1.92321 -4.64781 0
M  V30 1135 H 107.109 -3.67802 -4.58253 0
M  V30 1136 H 108.633 -3.06218 -5.28264 0
M  V30 1137 H 110.047 -4.5133 -3.53517 0
M  V30 1138 H 108.444 -5.15493 -3.07225 0
M  V30 1139 H 109.514 -4.49321 -1.82316 0
M  V30 1140 N 110.857 0.726932 -1.39834 0
M  V30 1141 C 112.085 1.51613 -1.40787 0
M  V30 1142 C 112.5 1.88799 -0.00451505 0
M  V30 1143 O 111.857 1.54662 0.968809 0
M  V30 1144 C 111.908 2.79863 -2.28821 0
M  V30 1145 O 111.629 2.44253 -3.63692 0
M  V30 1146 C 113.13 3.73837 -2.38245 0
M  V30 1147 H 110.35 0.468264 -0.480593 0
M  V30 1148 H 112.894 0.897607 -1.83748 0
M  V30 1149 H 111.049 3.38027 -1.89252 0
M  V30 1150 H 111.463 3.26695 -4.1033 0
M  V30 1151 H 112.937 4.60699 -3.04073 0
M  V30 1152 H 113.414 4.16153 -1.40403 0
M  V30 1153 H 114.02 3.21589 -2.78317 0
M  V30 1154 N 112.336 1.25143 0.95797 0
M  V30 1155 C 113.561 1.12521 1.74223 0
M  V30 1156 C 113.986 -0.317402 1.85403 0
M  V30 1157 O 113.344 -1.2299 1.33204 0
M  V30 1158 C 113.392 1.78062 3.1357 0
M  V30 1159 O 112.496 1.058 3.98598 0
M  V30 1160 H 111.837 0.39304 0.535178 0
M  V30 1161 H 114.367 1.65641 1.201 0
M  V30 1162 H 114.377 1.84213 3.64046 0
M  V30 1163 H 113.052 2.83021 3.04749 0
M  V30 1164 H 111.629 1.07506 3.57067 0
M  V30 1165 N 113.814 -1.1601 1.06675 0
M  V30 1166 C 115.042 -1.90527 0.806667 0
M  V30 1167 C 115.457 -1.77643 -0.639396 0
M  V30 1168 O 114.814 -1.12369 -1.43803 0
M  V30 1169 C 114.865 -3.41106 1.19705 0
M  V30 1170 O 114.586 -3.53608 2.58636 0
M  V30 1171 C 116.087 -4.32663 0.965266 0
M  V30 1172 H 113.307 -0.604053 0.292166 0
M  V30 1173 H 115.851 -1.47026 1.4214 0
M  V30 1174 H 114.006 -3.82296 0.626774 0
M  V30 1175 H 114.42 -4.47011 2.74375 0
M  V30 1176 H 115.894 -5.36763 1.288 0
M  V30 1177 H 116.371 -4.39089 -0.0987936 0
M  V30 1178 H 116.977 -3.97206 1.52011 0
M  V30 1179 N 115.292 -0.849877 -1.32721 0
M  V30 1180 C 116.538 -0.451591 -1.97708 0
M  V30 1181 C 116.871 0.989175 -1.6712 0
M  V30 1182 O 116.146 1.69334 -0.956891 0
M  V30 1183 C 116.429 -0.685598 -3.53513 0
M  V30 1184 C 116.282 -2.17444 -3.93749 0
M  V30 1185 C 117.601 -0.138874 -4.39881 0
M  V30 1186 H 114.72 -0.16555 -0.718166 0
M  V30 1187 H 117.362 -1.06742 -1.57182 0
M  V30 1188 H 115.512 -0.161416 -3.88165 0
M  V30 1189 H 117.184 -2.76433 -3.693 0
M  V30 1190 H 115.427 -2.65476 -3.43081 0
M  V30 1191 H 116.098 -2.28888 -5.02309 0
M  V30 1192 H 118.574 -0.587068 -4.11938 0
M  V30 1193 H 117.45 -0.332213 -5.47894 0
M  V30 1194 H 117.711 0.95806 -4.31594 0
M  V30 1195 N 116.77 1.45427 -0.607355 0
M  V30 1196 C 117.7 2.3329 0.0989352 0
M  V30 1197 C 118.681 1.46816 0.859007 0
M  V30 1198 O 119.866 1.75588 0.829604 0
M  V30 1199 C 116.996 3.29518 1.09705 0
M  V30 1200 C 115.95 4.25626 0.450206 0
M  V30 1201 C 115.276 5.11542 1.55655 0
M  V30 1202 C 116.576 5.18505 -0.628455 0
M  V30 1203 H 118.27 2.92595 -0.634716 0
M  V30 1204 H 115.816 1.40696 -0.306681 0
M  V30 1205 H 117.769 3.89855 1.59971 0
M  V30 1206 H 116.493 2.68372 1.86129 0
M  V30 1207 H 115.152 3.66586 -0.0315886 0
M  V30 1208 H 114.8 4.46765 2.31107 0
M  V30 1209 H 114.5 5.76647 1.12925 0
M  V30 1210 H 116.024 5.74748 2.06148 0
M  V30 1211 H 117.438 5.72916 -0.209877 0
M  V30 1212 H 115.835 5.92085 -0.977489 0
M  V30 1213 H 116.905 4.60948 -1.50514 0
M  V30 1214 N 118.248 0.346503 1.53744 0
M  V30 1215 C 119.659 -0.136779 1.86198 0
M  V30 1216 C 120.01 -1.49749 1.26766 0
M  V30 1217 O 119.135 -2.08417 0.582355 0
M  V30 1218 C 119.73 -0.254966 3.37839 0
M  V30 1219 C 118.289 -0.682482 3.70161 0
M  V30 1220 C 117.436 0.181981 2.76702 0
M  V30 1221 H 120.387 0.565994 1.48264 0
M  V30 1222 H 120.408 -1.08195 3.64793 0
M  V30 1223 H 119.92 0.735526 3.81066 0
M  V30 1224 H 118.021 -1.68189 3.3248 0
M  V30 1225 H 118.134 -0.470326 4.76786 0
M  V30 1226 H 116.498 -0.34615 2.52337 0
M  V30 1227 H 117.281 1.16966 3.2276 0
M  V30 1228 N 119.726 -1.57421 0.075193 0
M  V30 1229 C 120.973 -1.93618 -0.593146 0
M  V30 1230 C 121.301 -0.955484 -1.69413 0
M  V30 1231 O 120.556 0.0283251 -1.9568 0
M  V30 1232 C 120.855 -3.36428 -1.20626 0
M  V30 1233 C 120.521 -4.50307 -0.231078 0
M  V30 1234 C 119.183 -4.81186 0.0371936 0
M  V30 1235 C 121.535 -5.19374 0.435888 0
M  V30 1236 C 118.863 -5.78466 0.979461 0
M  V30 1237 C 121.215 -6.17665 1.3665 0
M  V30 1238 C 119.879 -6.46958 1.6432 0
M  V30 1239 H 119.149 -0.708499 -0.217047 0
M  V30 1240 H 121.796 -1.90937 0.146793 0
M  V30 1241 H 120.101 -3.35592 -2.02201 0
M  V30 1242 H 121.798 -3.61727 -1.73073 0
M  V30 1243 H 118.388 -4.26227 -0.450357 0
M  V30 1244 H 122.572 -4.95711 0.241748 0
M  V30 1245 H 117.828 -5.99487 1.20106 0
M  V30 1246 H 122.002 -6.70284 1.88924 0
M  V30 1247 H 119.629 -7.2215 2.37494 0
M  V30 1248 N 121.204 0.198386 -1.56346 0
M  V30 1249 C 122.429 0.939682 -1.84891 0
M  V30 1250 C 122.854 1.76202 -0.658369 0
M  V30 1251 O 122.212 1.76993 0.392851 0
M  V30 1252 C 122.26 1.81428 -3.11635 0
M  V30 1253 O 121.364 2.91265 -2.91956 0
M  V30 1254 H 120.705 0.264807 -0.608912 0
M  V30 1255 H 123.235 0.204695 -2.03573 0
M  V30 1256 H 123.245 2.21958 -3.42343 0
M  V30 1257 H 121.92 1.21004 -3.97908 0
M  V30 1258 H 120.497 2.54514 -2.72538 0
M  V30 1259 N 122.682 1.50554 0.465978 0
M  V30 1260 C 123.645 1.69233 1.54574 0
M  V30 1261 C 124.645 0.562901 1.50626 0
M  V30 1262 O 125.835 0.830016 1.53155 0
M  V30 1263 C 122.967 1.7223 2.94193 0
M  V30 1264 H 124.16 2.65571 1.39327 0
M  V30 1265 H 121.713 1.40111 0.692711 0
M  V30 1266 H 122.448 0.77603 3.14878 0
M  V30 1267 H 122.233 2.54285 2.98466 0
M  V30 1268 H 123.723 1.88618 3.72576 0
M  V30 1269 N 124.16 -0.719506 1.40217 0
M  V30 1270 C 125.409 -1.47486 1.37589 0
M  V30 1271 C 125.722 -1.9559 -0.0201568 0
M  V30 1272 O 126.928 -2.70973 -0.169049 0
M  V30 1273 C 125.384 -2.66575 2.41796 0
M  V30 1274 C 124.992 -2.25358 3.87192 0
M  V30 1275 C 126.736 -3.4433 2.48269 0
M  V30 1276 C 124.643 -3.41262 4.83005 0
M  V30 1277 H 123.573 -0.553901 0.511576 0
M  V30 1278 H 126.224 -0.783427 1.65936 0
M  V30 1279 H 124.606 -3.3787 2.06543 0
M  V30 1280 H 125.78 -1.61509 4.31569 0
M  V30 1281 H 124.095 -1.60657 3.84159 0
M  V30 1282 H 126.692 -4.30569 3.17041 0
M  V30 1283 H 127.035 -3.87872 1.51198 0
M  V30 1284 H 127.568 -2.80076 2.82493 0
M  V30 1285 H 124.307 -3.02755 5.81394 0
M  V30 1286 H 123.827 -4.0404 4.43297 0
M  V30 1287 H 125.506 -4.07383 5.02641 0
M  V30 1288 N 125.638 -1.25649 -0.95132 0
M  V30 1289 C 126.885 -1.10594 -1.69633 0
M  V30 1290 C 127.213 0.352515 -1.91279 0
M  V30 1291 O 126.468 1.27601 -1.4838 0
M  V30 1292 C 126.767 -1.80909 -3.08231 0
M  V30 1293 C 126.433 -3.30825 -3.06375 0
M  V30 1294 C 125.095 -3.71722 -3.05576 0
M  V30 1295 C 127.447 -4.26589 -2.99452 0
M  V30 1296 C 124.775 -5.06788 -2.95606 0
M  V30 1297 C 127.127 -5.61683 -2.91024 0
M  V30 1298 C 125.791 -6.01904 -2.88562 0
M  V30 1299 H 125.061 -0.404691 -0.620731 0
M  V30 1300 H 127.708 -1.55964 -1.11119 0
M  V30 1301 H 126.013 -1.27979 -3.70309 0
M  V30 1302 H 127.71 -1.6671 -3.64704 0
M  V30 1303 H 124.3 -2.98287 -3.07771 0
M  V30 1304 H 128.484 -3.95982 -2.99185 0
M  V30 1305 H 123.74 -5.37126 -2.92071 0
M  V30 1306 H 127.914 -6.35578 -2.84629 0
M  V30 1307 H 125.541 -7.06521 -2.80593 0
M  V30 1308 N 127.117 1.15442 -1.07289 0
M  V30 1309 C 128.027 2.23786 -0.704057 0
M  V30 1310 C 129.043 1.7166 0.284413 0
M  V30 1311 O 130.219 2.00972 0.131205 0
M  V30 1312 C 127.284 3.46535 -0.106792 0
M  V30 1313 C 126.345 4.13654 -1.14842 0
M  V30 1314 C 125.578 5.30544 -0.57956 0
M  V30 1315 O 125.801 5.67187 0.604585 0
M  V30 1316 O 124.735 5.87154 -1.32414 0
M  V30 1317 H 128.561 2.57664 -1.60757 0
M  V30 1318 H 126.146 1.23152 -0.845803 0
M  V30 1319 H 128.028 4.20804 0.224048 0
M  V30 1320 H 126.703 3.14407 0.770049 0
M  V30 1321 H 125.61 3.4131 -1.5316 0
M  V30 1322 H 126.943 4.49861 -1.99714 0
M  V30 1323 N 128.595 0.856903 1.32268 0
M  V30 1324 C 129.841 0.462069 1.97466 0
M  V30 1325 C 130.174 -0.980298 1.67642 0
M  V30 1326 O 129.449 -1.68824 0.965858 0
M  V30 1327 C 129.732 0.704336 3.53145 0
M  V30 1328 C 129.585 2.19529 3.9259 0
M  V30 1329 C 130.904 0.1622 4.39801 0
M  V30 1330 H 128.023 0.169357 0.717278 0
M  V30 1331 H 130.665 1.07574 1.56614 0
M  V30 1332 H 128.815 0.181999 3.88073 0
M  V30 1333 H 130.487 2.78387 3.67829 0
M  V30 1334 H 128.73 2.67292 3.41668 0
M  V30 1335 H 129.401 2.31549 5.01088 0
M  V30 1336 H 131.877 0.608905 4.11621 0
M  V30 1337 H 130.753 0.361265 5.4771 0
M  V30 1338 H 131.014 -0.935158 4.32096 0
M  V30 1339 N 130.073 -1.45103 0.615059 0
M  V30 1340 C 131.003 -2.33339 -0.0865619 0
M  V30 1341 C 131.984 -1.4727 -0.851209 0
M  V30 1342 O 133.169 -1.76026 -0.820281 0
M  V30 1343 C 130.299 -3.30095 -1.07956 0
M  V30 1344 C 129.253 -4.25858 -0.427628 0
M  V30 1345 C 128.579 -5.12361 -1.5294 0
M  V30 1346 C 129.879 -5.18165 0.655944 0
M  V30 1347 H 131.573 -2.92254 0.650224 0
M  V30 1348 H 129.119 -1.40532 0.314138 0
M  V30 1349 H 131.072 -3.90698 -1.57901 0
M  V30 1350 H 129.796 -2.69355 -1.84703 0
M  V30 1351 H 128.455 -3.66564 0.0510292 0
M  V30 1352 H 128.103 -4.47984 -2.28734 0
M  V30 1353 H 127.803 -5.77238 -1.09865 0
M  V30 1354 H 129.327 -5.75833 -2.03098 0
M  V30 1355 H 130.741 -5.72796 0.240257 0
M  V30 1356 H 129.138 -5.91559 1.00888 0
M  V30 1357 H 130.208 -4.60144 1.52957 0
M  V30 1358 N 131.551 -0.354651 -1.53558 0
M  V30 1359 C 132.799 0.237972 -2.00694 0
M  V30 1360 C 133.12 1.50173 -1.24391 0
M  V30 1361 O 132.39 1.92673 -0.354135 0
M  V30 1362 H 130.97 0.0909256 -0.741446 0
M  V30 1363 H 133.632 -0.478368 -1.88938 0
M  V30 1364 H 132.728 0.47264 -3.085 0
M  V30 1365 N 133.029 1.57378 -0.0835403 0
M  V30 1366 C 134.259 1.97975 0.590713 0
M  V30 1367 C 134.667 0.961083 1.62972 0
M  V30 1368 O 134.01 -0.0590879 1.83605 0
M  V30 1369 C 134.072 3.34915 1.3066 0
M  V30 1370 C 133.736 4.55069 0.419698 0
M  V30 1371 C 134.733 5.18868 -0.32749 0
M  V30 1372 C 132.418 5.0114 0.341137 0
M  V30 1373 C 134.412 6.27098 -1.14134 0
M  V30 1374 C 132.099 6.0924 -0.476374 0
M  V30 1375 C 133.097 6.72083 -1.21627 0
M  V30 1376 O 132.785 7.781 -2.02028 0
M  V30 1377 H 132.517 0.655818 0.163947 0
M  V30 1378 H 135.071 2.04807 -0.156021 0
M  V30 1379 H 133.301 3.24733 2.09966 0
M  V30 1380 H 134.99 3.60037 1.87424 0
M  V30 1381 H 135.756 4.84211 -0.276459 0
M  V30 1382 H 131.635 4.51996 0.90668 0
M  V30 1383 H 135.179 6.7608 -1.71935 0
M  V30 1384 H 131.076 6.43329 -0.528927 0
M  V30 1385 H 131.844 7.95034 -1.94586 0
M  V30 1386 N 134.507 -0.190092 1.56449 0
M  V30 1387 C 135.753 -0.906472 1.82084 0
M  V30 1388 C 136.108 -1.80677 0.661335 0
M  V30 1389 O 135.401 -1.88501 -0.343237 0
M  V30 1390 C 135.595 -1.75382 3.1141 0
M  V30 1391 C 135.424 -0.937053 4.39829 0
M  V30 1392 C 134.194 -0.619507 5.01488 0
M  V30 1393 C 136.392 -0.2874 5.13496 0
M  V30 1394 N 134.374 0.215367 6.13522 0
M  V30 1395 C 135.745 0.409454 6.18646 0
M  V30 1396 C 137.8 -0.203639 4.97483 0
M  V30 1397 C 136.503 1.1821 7.0952 0
M  V30 1398 C 138.529 0.555622 5.88784 0
M  V30 1399 C 137.891 1.24091 6.93384 0
M  V30 1400 H 133.99 -0.310931 0.717528 0
M  V30 1401 H 136.574 -0.174821 1.93914 0
M  V30 1402 H 134.745 -2.45703 3.00806 0
M  V30 1403 H 136.477 -2.41006 3.25112 0
M  V30 1404 H 133.232 -0.945126 4.64074 0
M  V30 1405 H 133.656 0.622562 6.74131 0
M  V30 1406 H 138.298 -0.719099 4.1664 0
M  V30 1407 H 136.016 1.70897 7.89823 0
M  V30 1408 H 139.602 0.621854 5.78467 0
M  V30 1409 H 138.482 1.81901 7.62812 0
M  V30 1410 N 135.985 -1.50799 -0.457987 0
M  V30 1411 C 136.948 -1.7005 -1.53674 0
M  V30 1412 C 137.948 -0.570881 -1.50325 0
M  V30 1413 O 139.138 -0.838126 -1.52712 0
M  V30 1414 C 136.27 -1.73788 -2.93276 0
M  V30 1415 H 137.463 -2.66306 -1.37917 0
M  V30 1416 H 135.016 -1.40477 -0.685271 0
M  V30 1417 H 135.751 -0.792717 -3.14462 0
M  V30 1418 H 135.536 -2.55864 -2.97113 0
M  V30 1419 H 137.026 -1.90591 -3.71571 0
M  V30 1420 N 137.463 0.71206 -1.40597 0
M  V30 1421 C 138.71 1.47197 -1.39065 0
M  V30 1422 C 139.038 1.94499 0.00583891 0
M  V30 1423 O 138.293 1.68752 0.99102 0
M  V30 1424 C 138.592 2.71039 -2.32965 0
M  V30 1425 C 138.258 2.42484 -3.80148 0
M  V30 1426 C 136.92 2.34406 -4.20247 0
M  V30 1427 C 139.272 2.18598 -4.73143 0
M  V30 1428 C 136.6 2.00516 -5.51371 0
M  V30 1429 C 138.952 1.8622 -6.0457 0
M  V30 1430 C 137.616 1.76626 -6.43708 0
M  V30 1431 H 136.886 0.538634 -0.508876 0
M  V30 1432 H 139.533 0.815325 -1.73276 0
M  V30 1433 H 137.838 3.41558 -1.91951 0
M  V30 1434 H 139.535 3.29138 -2.29061 0
M  V30 1435 H 136.125 2.49659 -3.4838 0
M  V30 1436 H 140.309 2.23793 -4.42979 0
M  V30 1437 H 135.565 1.91628 -5.80593 0
M  V30 1438 H 139.739 1.66752 -6.76141 0
M  V30 1439 H 137.366 1.50133 -7.45228 0
M  V30 1440 N 138.941 1.26152 0.944643 0
M  V30 1441 C 140.189 1.11271 1.6871 0
M  V30 1442 C 140.51 -0.345166 1.91921 0
M  V30 1443 O 139.78 -1.24387 1.51343 0
M  V30 1444 H 138.36 0.408783 0.625224 0
M  V30 1445 H 141.022 1.58427 1.1352 0
M  V30 1446 H 140.118 1.62879 2.66227 0
M  V30 1447 N 140.419 -1.14872 1.07899 0
M  V30 1448 C 141.835 -1.37776 0.805606 0
M  V30 1449 C 142.035 -1.92743 -0.587555 0
M  V30 1450 O 141.091 -2.13678 -1.34528 0
M  V30 1451 C 142.404 -2.34361 1.88402 0
M  V30 1452 C 143.952 -2.48012 1.90942 0
M  V30 1453 C 144.427 -3.47893 2.97883 0
M  V30 1454 N 145.918 -3.55433 2.97021 0
M  V30 1455 C 146.653 -4.32553 3.76412 0
M  V30 1456 N 146.149 -5.12959 4.65666 0
M  V30 1457 N 147.942 -4.27697 3.64735 0
M  V30 1458 H 140.093 -0.775365 1.97742 0
M  V30 1459 H 142.356 -0.403521 0.857831 0
M  V30 1460 H 142.062 -2.01098 2.88535 0
M  V30 1461 H 141.936 -3.34206 1.74889 0
M  V30 1462 H 144.323 -2.8057 0.914579 0
M  V30 1463 H 144.404 -1.48147 2.08534 0
M  V30 1464 H 144.048 -3.16069 3.97571 0
M  V30 1465 H 143.978 -4.47527 2.77538 0
M  V30 1466 H 146.469 -2.98048 2.32326 0
M  V30 1467 H 146.782 -5.69065 5.22862 0
M  V30 1468 H 145.127 -5.12245 4.69712 0
M  V30 1469 H 148.318 -3.63949 2.94378 0
M  V30 1470 H 148.491 -4.8755 4.26848 0
M  V30 1471 N 141.898 -0.863906 -1.31812 0
M  V30 1472 C 143.144 -0.472535 -1.97218 0
M  V30 1473 C 143.477 0.971394 -1.68159 0
M  V30 1474 O 142.752 1.68309 -0.974798 0
M  V30 1475 C 143.035 -0.723054 -3.52766 0
M  V30 1476 C 142.888 -2.21608 -3.91421 0
M  V30 1477 C 144.207 -0.185522 -4.39709 0
M  V30 1478 H 141.326 -0.173158 -0.71637 0
M  V30 1479 H 143.968 -1.08403 -1.56041 0
M  V30 1480 H 142.118 -0.202577 -3.87971 0
M  V30 1481 H 143.79 -2.80334 -3.66347 0
M  V30 1482 H 142.033 -2.691 -3.40246 0
M  V30 1483 H 142.704 -2.34203 -4.99853 0
M  V30 1484 H 145.18 -0.630726 -4.11292 0
M  V30 1485 H 144.056 -0.390306 -5.47511 0
M  V30 1486 H 144.317 0.912229 -4.32586 0
M  V30 1487 N 143.376 1.44774 -0.622745 0
M  V30 1488 C 144.623 2.02121 -0.1239 0
M  V30 1489 C 144.951 1.48915 1.25118 0
M  V30 1490 O 144.206 0.660045 1.84233 0
M  V30 1491 C 144.505 3.57364 -0.0508323 0
M  V30 1492 C 144.171 4.29787 -1.36358 0
M  V30 1493 C 142.833 4.4929 -1.72314 0
M  V30 1494 C 145.185 4.71062 -2.23048 0
M  V30 1495 C 142.513 5.07325 -2.94682 0
M  V30 1496 C 144.865 5.30452 -3.44679 0
M  V30 1497 C 143.529 5.48175 -3.80868 0
M  V30 1498 H 142.799 0.739612 -0.0453381 0
M  V30 1499 H 145.446 1.73648 -0.807389 0
M  V30 1500 H 143.751 3.85202 0.715991 0
M  V30 1501 H 145.448 3.99456 0.351533 0
M  V30 1502 H 142.038 4.14932 -1.07375 0
M  V30 1503 H 146.222 4.55715 -1.96565 0
M  V30 1504 H 141.478 5.19235 -3.22809 0
M  V30 1505 H 145.652 5.61385 -4.12092 0
M  V30 1506 H 143.279 5.92912 -4.75773 0
M  V30 1507 N 144.854 0.36279 1.53368 0
M  V30 1508 C 146.094 -0.227882 2.03126 0
M  V30 1509 C 146.458 -1.4622 1.24434 0
M  V30 1510 O 147.659 -2.12831 1.64184 0
M  V30 1511 C 145.93 -0.515427 3.53664 0
M  V30 1512 S 147.489 -1.08017 4.25297 0
M  V30 1513 H 144.307 -0.0665377 0.70788 0
M  V30 1514 H 146.909 0.50501 1.88865 0
M  V30 1515 H 145.613 0.390436 4.08539 0
M  V30 1516 H 145.144 -1.27747 3.72081 0
M  V30 1517 H 147.159 -2.36462 4.36234 0
M  V30 1518 N 146.332 -1.57332 0.0918853 0
M  V30 1519 C 147.28 -2.15075 -0.885747 0
M  V30 1520 C 148.274 -1.09277 -1.29441 0
M  V30 1521 O 149.48 -1.27627 -1.26931 0
M  V30 1522 H 145.855 -0.687966 -0.303656 0
M  V30 1523 H 147.826 -2.96047 -0.373995 0
M  V30 1524 C 146.575 -2.74325 -2.13638 0
M  V30 1525 H 145.898 -3.55418 -1.8308 0
M  V30 1526 H 147.338 -3.183 -2.80109 0
M  V30 1527 C 145.797 -1.70062 -2.90827 0
M  V30 1528 O 146.327 -1.13763 -3.85254 0
M  V30 1529 N 144.533 -1.40628 -2.54307 0
M  V30 1530 H 144.08 -1.866 -1.7759 0
M  V30 1531 H 144.038 -0.711043 -3.06254 0
M  V30 1532 N 147.81 0.181792 -1.56548 0
M  V30 1533 C 149.059 0.898348 -1.8059 0
M  V30 1534 C 149.372 1.83862 -0.667379 0
M  V30 1535 O 150.578 2.59678 -0.792446 0
M  V30 1536 C 149.034 1.64791 -3.19956 0
M  V30 1537 C 148.642 0.751789 -4.41647 0
M  V30 1538 C 150.386 2.35331 -3.53298 0
M  V30 1539 C 148.293 1.50098 -5.72035 0
M  V30 1540 H 147.223 0.339194 -0.673397 0
M  V30 1541 H 149.874 0.151413 -1.82874 0
M  V30 1542 H 148.256 2.43921 -3.11959 0
M  V30 1543 H 149.43 -0.0018076 -4.608 0
M  V30 1544 H 147.745 0.156562 -4.16106 0
M  V30 1545 H 150.342 2.91958 -4.47956 0
M  V30 1546 H 150.685 3.10164 -2.77676 0
M  V30 1547 H 151.218 1.63154 -3.62803 0
M  V30 1548 H 147.957 0.795175 -6.50659 0
M  V30 1549 H 147.477 2.22817 -5.56878 0
M  V30 1550 H 149.156 2.05125 -6.13622 0
M  V30 1551 N 149.288 1.51039 0.449983 0
M  V30 1552 C 150.534 1.64287 1.19923 0
M  V30 1553 C 150.889 0.348701 1.89214 0
M  V30 1554 O 150.182 -0.654751 1.80065 0
M  V30 1555 C 150.376 2.77556 2.25161 0
M  V30 1556 C 150.205 4.17862 1.66198 0
M  V30 1557 C 148.975 4.83976 1.45243 0
M  V30 1558 C 151.173 5.01388 1.14519 0
M  V30 1559 N 149.155 6.08433 0.817437 0
M  V30 1560 C 150.526 6.16743 0.634705 0
M  V30 1561 C 152.581 4.87008 1.03574 0
M  V30 1562 C 151.284 7.19295 0.0255452 0
M  V30 1563 C 153.31 5.89757 0.440489 0
M  V30 1564 C 152.672 7.04375 -0.0595112 0
M  V30 1565 H 148.771 0.655161 0.426952 0
M  V30 1566 H 151.355 1.88228 0.49781 0
M  V30 1567 H 149.526 2.553 2.92706 0
M  V30 1568 H 151.258 2.80049 2.92155 0
M  V30 1569 H 148.013 4.41627 1.71063 0
M  V30 1570 H 148.437 6.75017 0.517747 0
M  V30 1571 H 153.079 3.9866 1.4082 0
M  V30 1572 H 150.797 8.07302 -0.359071 0
M  V30 1573 H 154.383 5.80698 0.35788 0
M  V30 1574 H 153.263 7.82521 -0.512882 0
M  V30 1575 N 150.766 -0.704594 1.40972 0
M  V30 1576 C 151.729 -1.80035 1.41845 0
M  V30 1577 C 152.729 -1.57774 0.310474 0
M  V30 1578 O 153.919 -1.64613 0.56992 0
M  V30 1579 C 151.051 -3.18284 1.22098 0
M  V30 1580 H 152.244 -1.80658 2.3938 0
M  V30 1581 H 149.797 -0.911329 1.26982 0
M  V30 1582 H 150.532 -3.23306 0.253672 0
M  V30 1583 H 150.317 -3.35843 2.02366 0
M  V30 1584 H 151.807 -3.98289 1.25522 0
M  V30 1585 N 152.244 -1.26651 -0.937939 0
M  V30 1586 C 153.207 -1.08546 -2.01867 0
M  V30 1587 C 154.207 -0.0327327 -1.60767 0
M  V30 1588 O 155.397 -0.276427 -1.71993 0
M  V30 1589 C 152.529 -0.651711 -3.34613 0
M  V30 1590 H 153.722 -2.04502 -2.1936 0
M  V30 1591 H 151.275 -1.09294 -1.11734 0
M  V30 1592 H 152.01 0.309696 -3.22818 0
M  V30 1593 H 151.795 -1.41189 -3.65798 0
M  V30 1594 H 153.285 -0.546973 -4.14002 0
M  V30 1595 N 153.722 1.14298 -1.08507 0
M  V30 1596 C 154.968 1.85633 -0.816581 0
M  V30 1597 C 155.301 1.82784 0.656021 0
M  V30 1598 O 154.576 1.25926 1.48233 0
M  V30 1599 C 154.859 3.34223 -1.34041 0
M  V30 1600 C 154.712 3.45639 -2.87843 0
M  V30 1601 C 156.031 4.29356 -0.9665 0
M  V30 1602 H 153.15 0.67402 -0.298104 0
M  V30 1603 H 155.792 1.34214 -1.34487 0
M  V30 1604 H 153.942 3.78144 -0.89104 0
M  V30 1605 H 155.614 3.10498 -3.41158 0
M  V30 1606 H 153.857 2.86817 -3.25451 0
M  V30 1607 H 154.528 4.50089 -3.19569 0
M  V30 1608 H 157.004 3.93457 -1.35391 0
M  V30 1609 H 155.88 5.3178 -1.3602 0
M  V30 1610 H 156.141 4.41919 0.126362 0
M  V30 1611 N 155.201 0.870884 1.31352 0
M  V30 1612 C 156.478 0.402907 1.91405 0
M  V30 1613 C 156.858 -1.11512 1.79244 0
M  V30 1614 O 156.206 -1.94411 1.2007 0
M  V30 1615 C 156.416 0.885301 3.37585 0
M  V30 1616 C 157.764 0.911971 4.14691 0
M  V30 1617 O 158.788 0.831016 3.46371 0
M  V30 1618 O 157.647 1.02927 5.3672 0
M  V30 1619 H 154.741 0.120698 0.818145 0
M  V30 1620 H 157.287 0.958857 1.40014 0
M  V30 1621 H 156.059 1.92889 3.40455 0
M  V30 1622 H 155.682 0.307714 3.96407 0
M  V30 1623 N 156.679 -1.44442 0.630414 0
M  V30 1624 C 157.925 -2.02351 0.134816 0
M  V30 1625 C 158.258 -1.4947 -1.23986 0
M  V30 1626 O 157.533 -0.678475 -1.82283 0
M  V30 1627 C 157.816 -3.59898 0.120707 0
M  V30 1628 C 157.669 -4.23063 1.52767 0
M  V30 1629 C 158.988 -4.36585 -0.555127 0
M  V30 1630 H 156.107 -0.73527 0.0504646 0
M  V30 1631 H 158.749 -1.72022 0.806751 0
M  V30 1632 H 156.899 -3.85868 -0.451477 0
M  V30 1633 H 158.571 -4.08202 2.14869 0
M  V30 1634 H 156.814 -3.80586 2.08175 0
M  V30 1635 H 157.485 -5.32071 1.46984 0
M  V30 1636 H 159.961 -4.16044 -0.0685429 0
M  V30 1637 H 158.837 -5.46294 -0.534185 0
M  V30 1638 H 159.098 -4.11138 -1.62535 0
M  V30 1639 N 158.157 -0.370918 -1.53173 0
M  V30 1640 C 159.087 0.464847 -2.28826 0
M  V30 1641 C 160.068 1.07936 -1.31468 0
M  V30 1642 O 161.253 1.0956 -1.60344 0
M  V30 1643 C 158.383 1.60196 -3.08147 0
M  V30 1644 C 157.337 1.11443 -4.13237 0
M  V30 1645 C 156.663 2.3422 -4.80672 0
M  V30 1646 C 157.963 0.195384 -5.21934 0
M  V30 1647 H 159.657 -0.166329 -2.98938 0
M  V30 1648 H 157.203 -0.0814359 -1.4377 0
M  V30 1649 H 159.156 2.19332 -3.59822 0
M  V30 1650 H 157.88 2.26045 -2.35735 0
M  V30 1651 H 156.539 0.545727 -3.62515 0
M  V30 1652 H 156.187 2.98537 -4.04827 0
M  V30 1653 H 155.887 2.02269 -5.51689 0
M  V30 1654 H 157.411 2.94032 -5.35143 0
M  V30 1655 H 158.825 0.694375 -5.69079 0
M  V30 1656 H 157.222 -0.0335027 -6.00091 0
M  V30 1657 H 158.292 -0.760961 -4.78892 0
M  V30 1658 N 159.635 1.57281 -0.100228 0
M  V30 1659 C 160.875 1.96419 0.56558 0
M  V30 1660 C 161.239 0.981265 1.65031 0
M  V30 1661 O 162.44 1.26133 2.37369 0
M  V30 1662 C 160.711 3.39996 1.10171 0
M  V30 1663 S 162.27 4.01134 1.77867 0
M  V30 1664 H 159.088 0.68667 0.184406 0
M  V30 1665 H 161.69 1.94662 -0.180851 0
M  V30 1666 H 160.394 4.09296 0.300803 0
M  V30 1667 H 159.925 3.45361 1.88385 0
M  V30 1668 H 161.94 3.90358 3.06326 0
M  V30 1669 N 161.113 -0.173488 1.56642 0
M  V30 1670 C 162.353 -0.896984 1.83667 0
M  V30 1671 C 162.717 -1.79523 0.680842 0
M  V30 1672 O 163.918 -2.55616 0.831488 0
M  V30 1673 C 162.189 -1.67351 3.15798 0
M  V30 1674 S 163.748 -2.44607 3.64298 0
M  V30 1675 H 160.566 -0.300464 0.644393 0
M  V30 1676 H 163.168 -0.158775 1.94854 0
M  V30 1677 H 161.872 -1.00462 3.97914 0
M  V30 1678 H 161.403 -2.45313 3.07546 0
M  V30 1679 H 163.418 -3.69261 3.31452 0
M  V30 1680 N 162.591 -1.51276 -0.441967 0
M  V30 1681 C 163.819 -1.67516 -1.21434 0
M  V30 1682 C 164.234 -0.37055 -1.85128 0
M  V30 1683 O 163.591 0.650498 -1.70513 0
M  V30 1684 C 163.642 -2.78748 -2.30177 0
M  V30 1685 O 163.363 -4.04154 -1.69089 0
M  V30 1686 C 164.864 -3.06217 -3.20541 0
M  V30 1687 H 162.084 -0.562276 -0.366178 0
M  V30 1688 H 164.628 -1.97666 -0.524244 0
M  V30 1689 H 162.783 -2.5121 -2.94911 0
M  V30 1690 H 163.197 -4.65894 -2.40922 0
M  V30 1691 H 164.671 -3.8764 -3.92987 0
M  V30 1692 H 165.148 -2.18439 -3.81026 0
M  V30 1693 H 165.754 -3.35397 -2.61513 0
M  V30 1694 N 164.069 0.697108 -1.41344 0
M  V30 1695 C 165.032 1.79281 -1.42797 0
M  V30 1696 C 166.032 1.57607 -0.318837 0
M  V30 1697 O 167.222 1.64309 -0.578642 0
M  V30 1698 C 164.354 3.17632 -1.23785 0
M  V30 1699 H 165.547 1.79385 -2.40335 0
M  V30 1700 H 163.1 0.904582 -1.27464 0
M  V30 1701 H 163.835 3.23167 -0.270814 0
M  V30 1702 H 163.62 3.34765 -2.04144 0
M  V30 1703 H 165.11 3.97617 -1.27633 0
M  V30 1704 N 165.547 1.27147 0.931209 0
M  V30 1705 C 166.772 1.16191 1.71797 0
M  V30 1706 C 167.197 -0.278004 1.86034 0
M  V30 1707 O 166.555 -1.20137 1.35782 0
M  V30 1708 C 166.603 1.84673 3.09723 0
M  V30 1709 O 165.707 1.14231 3.96264 0
M  V30 1710 H 165.048 0.404303 0.526721 0
M  V30 1711 H 167.578 1.68152 1.1656 0
M  V30 1712 H 167.588 1.91893 3.60057 0
M  V30 1713 H 166.263 2.89421 2.98677 0
M  V30 1714 H 164.84 1.15056 3.54706 0
M  V30 1715 N 167.025 -1.13721 1.09112 0
M  V30 1716 C 168.274 -1.84275 0.82009 0
M  V30 1717 C 168.587 -1.84253 -0.656509 0
M  V30 1718 O 169.793 -2.50668 -1.04296 0
M  V30 1719 C 168.249 -3.30825 1.41714 0
M  V30 1720 C 167.857 -3.39244 2.92605 0
M  V30 1721 C 169.601 -4.06443 1.22492 0
M  V30 1722 C 167.508 -4.80047 3.45411 0
M  V30 1723 H 166.438 -0.690387 0.30312 0
M  V30 1724 H 169.089 -1.28146 1.31343 0
M  V30 1725 H 167.471 -3.86737 0.851498 0
M  V30 1726 H 168.645 -2.93344 3.55367 0
M  V30 1727 H 166.96 -2.77088 3.10823 0
M  V30 1728 H 169.557 -5.10387 1.59402 0
M  V30 1729 H 169.9 -4.15972 0.165299 0
M  V30 1730 H 170.433 -3.56852 1.75788 0
M  V30 1731 H 167.172 -4.75709 4.50978 0
M  V30 1732 H 166.692 -5.26455 2.87411 0
M  V30 1733 H 168.371 -5.48957 3.42425 0
M  V30 1734 N 168.503 -0.877838 -1.30888 0
M  V30 1735 C 169.436 -0.283995 -2.26426 0
M  V30 1736 C 170.414 0.591361 -1.51465 0
M  V30 1737 O 171.598 0.54304 -1.80509 0
M  V30 1738 C 168.725 0.597129 -3.33395 0
M  V30 1739 C 167.771 -0.207937 -4.25993 0
M  V30 1740 S 168.604 -1.59158 -5.11301 0
M  V30 1741 C 169.76 -0.716791 -6.21782 0
M  V30 1742 H 169.993 -1.09383 -2.76446 0
M  V30 1743 H 167.526 -0.676828 -1.38775 0
M  V30 1744 H 169.484 1.09978 -3.95493 0
M  V30 1745 H 168.145 1.38099 -2.82113 0
M  V30 1746 H 167.338 0.464163 -5.01858 0
M  V30 1747 H 166.94 -0.642963 -3.68432 0
M  V30 1748 H 169.232 0.0692833 -6.77465 0
M  V30 1749 H 170.175 -1.44682 -6.93161 0
M  V30 1750 H 170.583 -0.280855 -5.63801 0
M  V30 1751 N 169.982 1.44106 -0.638065 0
M  V30 1752 C 171.23 2.01579 -0.145043 0
M  V30 1753 C 171.551 1.50496 1.24 0
M  V30 1754 O 170.821 0.711374 1.82527 0
M  V30 1755 H 169.401 0.745282 -0.05063 0
M  V30 1756 H 172.063 1.76516 -0.826327 0
M  V30 1757 H 171.159 3.11877 -0.118039 0
M  V30 1758 N 171.46 0.379036 1.52974 0
M  V30 1759 C 172.39 -0.452706 2.29069 0
M  V30 1760 C 173.371 -1.07237 1.32039 0
M  V30 1761 O 174.556 -1.08708 1.60923 0
M  V30 1762 C 171.686 -1.5856 3.08992 0
M  V30 1763 C 170.64 -1.0925 4.13822 0
M  V30 1764 C 169.966 -2.31668 4.81907 0
M  V30 1765 C 171.266 -0.167702 5.22031 0
M  V30 1766 H 172.96 0.182181 2.98845 0
M  V30 1767 H 170.506 0.0890592 1.43724 0
M  V30 1768 H 172.459 -2.1742 3.6098 0
M  V30 1769 H 171.183 -2.24792 2.36931 0
M  V30 1770 H 169.842 -0.526494 3.628 0
M  V30 1771 H 169.49 -2.96386 4.06404 0
M  V30 1772 H 169.19 -1.9934 5.52754 0
M  V30 1773 H 170.714 -2.91189 5.36695 0
M  V30 1774 H 172.128 -0.664186 5.6944 0
M  V30 1775 H 170.525 0.0653265 6.00064 0
M  V30 1776 H 171.595 0.786347 4.78482 0
M  V30 1777 N 172.938 -1.57226 0.108567 0
M  V30 1778 C 174.178 -1.96717 -0.555155 0
M  V30 1779 C 174.542 -0.990003 -1.64508 0
M  V30 1780 O 175.743 -1.2739 -2.36696 0
M  V30 1781 C 174.014 -3.40575 -1.08367 0
M  V30 1782 S 175.573 -4.02072 -1.75737 0
M  V30 1783 H 172.391 -0.687638 -0.180762 0
M  V30 1784 H 174.993 -1.94563 0.191172 0
M  V30 1785 H 173.697 -4.0945 -0.279092 0
M  V30 1786 H 173.228 -3.46356 -1.86551 0
M  V30 1787 H 175.243 -3.91977 -3.04251 0
M  V30 1788 N 174.416 0.165178 -1.56732 0
M  V30 1789 C 175.665 0.879143 -1.81532 0
M  V30 1790 C 175.978 1.83144 -0.686842 0
M  V30 1791 O 177.184 2.58823 -0.819944 0
M  V30 1792 C 175.64 1.61388 -3.21686 0
M  V30 1793 C 175.248 0.704904 -4.4242 0
M  V30 1794 C 176.992 2.3157 -3.55774 0
M  V30 1795 C 174.899 1.44022 -5.73595 0
M  V30 1796 H 173.829 0.332033 -0.676957 0
M  V30 1797 H 176.48 0.132008 -1.83025 0
M  V30 1798 H 174.862 2.40599 -3.14529 0
M  V30 1799 H 176.036 -0.0506815 -4.60772 0
M  V30 1800 H 174.351 0.112419 -4.16248 0
M  V30 1801 H 176.948 2.8719 -4.51028 0
M  V30 1802 H 177.291 3.07201 -2.8095 0
M  V30 1803 H 177.824 1.59297 -3.64513 0
M  V30 1804 H 174.563 0.72612 -6.51466 0
M  V30 1805 H 174.083 2.16898 -5.5921 0
M  V30 1806 H 175.762 1.98606 -6.15764 0
M  V30 1807 N 175.894 1.51508 0.433938 0
M  V30 1808 C 177.143 1.63578 1.18005 0
M  V30 1809 C 177.456 0.359514 1.92268 0
M  V30 1810 O 178.662 0.359632 2.69108 0
M  V30 1811 C 177.118 2.88901 2.14626 0
M  V30 1812 C 176.726 4.23544 1.45995 0
M  V30 1813 C 178.47 3.10328 2.89649 0
M  V30 1814 C 176.377 5.40014 2.4112 0
M  V30 1815 H 175.307 0.609277 0.444182 0
M  V30 1816 H 177.958 1.77978 0.446773 0
M  V30 1817 H 176.34 2.68142 2.91403 0
M  V30 1818 H 177.514 4.54696 0.747532 0
M  V30 1819 H 175.829 4.08021 0.831115 0
M  V30 1820 H 178.426 3.94518 3.60915 0
M  V30 1821 H 178.769 2.23544 3.51189 0
M  V30 1822 H 179.302 3.31443 2.19978 0
M  V30 1823 H 176.041 6.29068 1.84264 0
M  V30 1824 H 175.561 5.13233 3.10406 0
M  V30 1825 H 177.24 5.72099 3.02177 0
M  V30 1826 N 177.372 -0.689602 1.41712 0
M  V30 1827 C 178.597 -1.48329 1.44959 0
M  V30 1828 C 179.022 -1.8801 0.0581283 0
M  V30 1829 O 178.38 -1.55026 -0.940035 0
M  V30 1830 C 178.428 -2.71835 2.36935 0
M  V30 1831 O 177.532 -3.69549 1.8305 0
M  V30 1832 H 176.873 -0.446199 0.491734 0
M  V30 1833 H 179.403 -0.847127 1.86239 0
M  V30 1834 H 179.413 -3.20076 2.53013 0
M  V30 1835 H 178.088 -2.42291 3.38035 0
M  V30 1836 H 176.665 -3.2851 1.76452 0
M  V30 1837 N 178.85 -1.27639 -0.924453 0
M  V30 1838 C 180.099 -1.13549 -1.66702 0
M  V30 1839 C 180.412 0.317487 -1.93006 0
M  V30 1840 O 181.618 0.579333 -2.65247 0
M  V30 1841 C 180.074 -1.98426 -3.00259 0
M  V30 1842 C 179.682 -3.484 -2.81641 0
M  V30 1843 C 181.426 -1.92993 -3.78092 0
M  V30 1844 C 179.333 -4.25464 -4.10773 0
M  V30 1845 H 178.263 -0.421351 -0.625283 0
M  V30 1846 H 180.914 -1.52085 -1.02676 0
M  V30 1847 H 179.296 -1.52736 -3.6536 0
M  V30 1848 H 180.47 -4.01973 -2.25287 0
M  V30 1849 H 178.785 -3.55245 -2.17232 0
M  V30 1850 H 181.382 -2.47844 -4.7379 0
M  V30 1851 H 181.725 -0.904281 -4.0636 0
M  V30 1852 H 182.258 -2.36595 -3.19793 0
M  V30 1853 H 178.997 -5.28566 -3.87683 0
M  V30 1854 H 178.517 -3.76667 -4.66779 0
M  V30 1855 H 180.196 -4.34812 -4.79111 0
M  V30 1856 N 180.328 1.1314 -1.09713 0
M  V30 1857 C 181.605 1.80762 -0.747302 0
M  V30 1858 C 181.985 1.96663 0.767265 0
M  V30 1859 O 181.333 1.53706 1.69076 0
M  V30 1860 C 181.543 3.15606 -1.48975 0
M  V30 1861 C 182.891 3.90914 -1.65746 0
M  V30 1862 O 183.915 3.25239 -1.45251 0
M  V30 1863 O 182.774 5.08718 -1.9967 0
M  V30 1864 H 179.868 0.782103 -0.268782 0
M  V30 1865 H 182.414 1.20041 -1.19951 0
M  V30 1866 H 181.186 2.99278 -2.52088 0
M  V30 1867 H 180.809 3.84029 -1.02991 0
M  V30 1868 N 181.806 0.884767 1.30421 0
M  V30 1869 C 183.222 0.57874 1.48737 0
M  V30 1870 C 183.422 -0.883567 1.81095 0
M  V30 1871 O 182.478 -1.6648 1.89844 0
M  V30 1872 C 183.791 1.49171 2.61091 0
M  V30 1873 C 185.339 1.49532 2.74971 0
M  V30 1874 C 185.814 2.39421 3.90438 0
M  V30 1875 N 187.305 2.37383 3.97748 0
M  V30 1876 C 188.04 3.03647 4.86401 0
M  V30 1877 N 187.536 3.79136 5.79852 0
M  V30 1878 N 189.329 2.9288 4.79768 0
M  V30 1879 H 181.48 1.83075 1.0769 0
M  V30 1880 H 183.743 0.783637 0.533495 0
M  V30 1881 H 183.449 2.53291 2.44001 0
M  V30 1882 H 183.323 1.20113 3.57565 0
M  V30 1883 H 185.71 0.46163 2.91467 0
M  V30 1884 H 185.791 1.8262 1.79119 0
M  V30 1885 H 185.435 3.42874 3.74699 0
M  V30 1886 H 185.365 2.03649 4.85628 0
M  V30 1887 H 187.856 1.82525 3.30897 0
M  V30 1888 H 188.169 4.26789 6.4426 0
M  V30 1889 H 186.514 3.83243 5.79784 0
M  V30 1890 H 189.705 2.33433 4.05742 0
M  V30 1891 H 189.878 3.448 5.4865 0
M  V30 1892 N 183.284 -1.43765 0.645699 0
M  V30 1893 C 184.514 -2.05953 0.163318 0
M  V30 1894 C 184.922 -1.48432 -1.17322 0
M  V30 1895 O 184.265 -0.607295 -1.73371 0
M  V30 1896 C 184.327 -3.59499 -0.0103065 0
M  V30 1897 C 183.991 -4.39563 1.25035 0
M  V30 1898 C 184.988 -4.72108 2.17739 0
M  V30 1899 C 182.673 -4.79697 1.48983 0
M  V30 1900 C 184.667 -5.43688 3.3269 0
M  V30 1901 C 182.354 -5.51023 2.64229 0
M  V30 1902 C 183.352 -5.8294 3.55908 0
M  V30 1903 O 183.04 -6.5281 4.69142 0
M  V30 1904 H 182.772 -0.670798 0.0836986 0
M  V30 1905 H 185.326 -1.85384 0.884407 0
M  V30 1906 H 183.556 -3.78613 -0.78669 0
M  V30 1907 H 185.245 -4.03408 -0.449087 0
M  V30 1908 H 186.011 -4.41627 2.00476 0
M  V30 1909 H 181.89 -4.54266 0.785078 0
M  V30 1910 H 185.434 -5.68517 4.04269 0
M  V30 1911 H 181.331 -5.8092 2.81429 0
M  V30 1912 H 182.099 -6.71288 4.6831 0
M  V30 1913 N 184.763 -0.387143 -1.52771 0
M  V30 1914 C 186.012 0.19697 -2.00736 0
M  V30 1915 C 186.325 1.48082 -1.27793 0
M  V30 1916 O 187.531 2.14485 -1.66458 0
M  V30 1917 C 185.987 0.401568 -3.57653 0
M  V30 1918 C 185.595 -0.868907 -4.39493 0
M  V30 1919 C 187.339 0.942164 -4.13912 0
M  V30 1920 C 185.246 -0.632705 -5.88006 0
M  V30 1921 H 184.176 0.0773827 -0.750019 0
M  V30 1922 H 186.827 -0.50921 -1.76293 0
M  V30 1923 H 185.209 1.16954 -3.78335 0
M  V30 1924 H 186.383 -1.64133 -4.30577 0
M  V30 1925 H 184.698 -1.33429 -3.94443 0
M  V30 1926 H 187.295 1.13455 -5.22525 0
M  V30 1927 H 187.638 1.9106 -3.69867 0
M  V30 1928 H 188.171 0.233814 -3.97112 0
M  V30 1929 H 184.91 -1.57208 -6.36369 0
M  V30 1930 H 184.43 0.100825 -5.99715 0
M  V30 1931 H 186.109 -0.26642 -6.46451 0
M  V30 1932 N 186.241 1.57166 -0.116904 0
M  V30 1933 C 187.489 1.94737 0.540533 0
M  V30 1934 C 187.81 1.00096 1.67349 0
M  V30 1935 O 187.08 0.0568854 1.95817 0
M  V30 1936 H 185.66 0.718981 0.202669 0
M  V30 1937 H 188.322 1.94017 -0.185353 0
M  V30 1938 H 187.418 2.97719 0.936483 0
M  V30 1939 N 187.719 -0.156864 1.56817 0
M  V30 1940 C 188.965 -0.872416 1.83076 0
M  V30 1941 C 189.298 -1.81261 0.697001 0
M  V30 1942 O 188.573 -1.92171 -0.30008 0
M  V30 1943 C 188.856 -1.65551 3.19789 0
M  V30 1944 C 188.709 -0.737467 4.43713 0
M  V30 1945 C 190.028 -2.62012 3.53606 0
M  V30 1946 H 187.147 -0.315715 0.665953 0
M  V30 1947 H 189.789 -0.138004 1.89498 0
M  V30 1948 H 187.939 -2.28159 3.14445 0
M  V30 1949 H 189.611 -0.123143 4.61136 0
M  V30 1950 H 187.854 -0.0464067 4.33775 0
M  V30 1951 H 188.525 -1.32122 5.35955 0
M  V30 1952 H 191.001 -2.09525 3.59497 0
M  V30 1953 H 189.877 -3.13861 4.50314 0
M  V30 1954 H 190.138 -3.42902 2.79053 0
M  V30 1955 N 189.197 -1.51736 -0.425897 0
M  V30 1956 C 190.422 -1.69082 -1.20108 0
M  V30 1957 C 190.847 -0.392398 -1.83962 0
M  V30 1958 O 190.205 0.64858 -1.69302 0
M  V30 1959 C 190.253 -2.81604 -2.25237 0
M  V30 1960 O 189.357 -2.46004 -3.30992 0
M  V30 1961 H 188.698 -0.563408 -0.35138 0
M  V30 1962 H 191.228 -1.98358 -0.501512 0
M  V30 1963 H 191.238 -3.06025 -2.69838 0
M  V30 1964 H 189.913 -3.75817 -1.78142 0
M  V30 1965 H 188.49 -2.32195 -2.91787 0
M  V30 1966 N 190.675 0.682077 -1.42076 0
M  V30 1967 C 191.905 1.46844 -1.45329 0
M  V30 1968 C 192.313 1.89102 -0.0609328 0
M  V30 1969 O 191.656 1.58238 0.933082 0
M  V30 1970 C 191.718 2.75375 -2.31104 0
M  V30 1971 C 191.382 2.55238 -3.79081 0
M  V30 1972 C 192.379 2.20309 -4.70914 0
M  V30 1973 C 190.064 2.70459 -4.2327 0
M  V30 1974 C 192.058 2.00859 -6.04925 0
M  V30 1975 C 189.745 2.50624 -5.57343 0
M  V30 1976 C 190.743 2.15876 -6.47986 0
M  V30 1977 O 190.431 1.96227 -7.79583 0
M  V30 1978 H 190.163 0.4586 -0.496651 0
M  V30 1979 H 192.717 0.846131 -1.87162 0
M  V30 1980 H 190.947 3.40061 -1.84107 0
M  V30 1981 H 192.636 3.37231 -2.25898 0
M  V30 1982 H 193.402 2.08153 -4.38061 0
M  V30 1983 H 189.281 2.96485 -3.53012 0
M  V30 1984 H 192.825 1.7366 -6.75639 0
M  V30 1985 H 188.722 2.62375 -5.89771 0
M  V30 1986 H 189.49 2.10883 -7.90867 0
M  V30 1987 N 192.153 1.28127 0.917671 0
M  V30 1988 C 193.564 1.13622 1.48145 0
M  V30 1989 C 193.915 -0.275207 1.9426 0
M  V30 1990 O 193.04 -1.1691 1.82102 0
M  V30 1991 C 193.635 2.05648 2.69248 0
M  V30 1992 C 192.194 1.95219 3.21818 0
M  V30 1993 C 191.341 1.97618 1.94532 0
M  V30 1994 H 194.292 1.40874 0.730772 0
M  V30 1995 H 194.313 1.61818 3.44377 0
M  V30 1996 H 193.825 3.08365 2.35653 0
M  V30 1997 H 191.926 0.955244 3.60147 0
M  V30 1998 H 192.039 2.81976 3.87333 0
M  V30 1999 H 190.403 1.41973 2.11461 0
M  V30 2000 H 191.186 3.02007 1.63238 0
M  V30 2001 N 193.631 -1.12557 1.10312 0
M  V30 2002 C 194.561 -2.20341 0.772798 0
M  V30 2003 C 195.542 -1.68198 -0.25365 0
M  V30 2004 O 196.727 -1.93831 -0.119699 0
M  V30 2005 C 193.857 -3.46709 0.202443 0
M  V30 2006 C 192.811 -4.11996 1.15943 0
M  V30 2007 C 192.137 -5.328 0.450345 0
M  V30 2008 C 193.437 -4.5828 2.50552 0
M  V30 2009 H 195.131 -2.48229 1.674 0
M  V30 2010 H 192.677 -1.19308 0.806326 0
M  V30 2011 H 194.63 -4.2138 -0.0407752 0
M  V30 2012 H 193.354 -3.18245 -0.734001 0
M  V30 2013 H 192.013 -3.39305 1.38808 0
M  V30 2014 H 191.661 -5.00602 -0.490531 0
M  V30 2015 H 191.361 -5.7743 1.08851 0
M  V30 2016 H 192.885 -6.10219 0.215642 0
M  V30 2017 H 194.299 -5.2433 2.31843 0
M  V30 2018 H 192.696 -5.13683 3.10242 0
M  V30 2019 H 193.766 -3.72329 3.10643 0
M  V30 2020 N 195.109 -0.891671 -1.2995 0
M  V30 2021 C 196.525 -0.58662 -1.48428 0
M  V30 2022 C 196.725 0.873951 -1.81561 0
M  V30 2023 O 195.781 1.65471 -1.90724 0
M  V30 2024 C 197.094 -1.50553 -2.60296 0
M  V30 2025 C 198.642 -1.50988 -2.74175 0
M  V30 2026 C 199.117 -2.41488 -3.89163 0
M  V30 2027 N 200.608 -2.39489 -3.96483 0
M  V30 2028 C 201.343 -3.06223 -4.84784 0
M  V30 2029 N 200.839 -3.82206 -5.77833 0
M  V30 2030 N 202.632 -2.95421 -4.78208 0
M  V30 2031 H 194.783 -1.83644 -1.06718 0
M  V30 2032 H 197.046 -0.786455 -0.529332 0
M  V30 2033 H 196.752 -2.54581 -2.42654 0
M  V30 2034 H 196.626 -1.22008 -3.56923 0
M  V30 2035 H 199.013 -0.47708 -2.91218 0
M  V30 2036 H 199.094 -1.83567 -1.78148 0
M  V30 2037 H 198.738 -3.44857 -3.72876 0
M  V30 2038 H 198.668 -2.06222 -4.84541 0
M  V30 2039 H 201.159 -1.84278 -3.29924 0
M  V30 2040 H 201.472 -4.302 -6.41988 0
M  V30 2041 H 199.817 -3.86313 -5.77743 0
M  V30 2042 H 203.008 -2.35581 -4.04499 0
M  V30 2043 H 203.181 -3.47704 -5.46814 0
M  V30 2044 N 196.587 1.43421 -0.653314 0
M  V30 2045 C 197.817 2.05864 -0.174238 0
M  V30 2046 C 198.225 1.49052 1.16534 0
M  V30 2047 O 197.568 0.616481 1.73047 0
M  V30 2048 C 197.63 3.59499 -0.00875873 0
M  V30 2049 C 197.294 4.38893 -1.27364 0
M  V30 2050 C 198.291 4.70947 -2.20239 0
M  V30 2051 C 195.976 4.789 -1.51525 0
M  V30 2052 C 197.97 5.41916 -3.35568 0
M  V30 2053 C 195.657 5.49614 -2.67147 0
M  V30 2054 C 196.655 5.81044 -3.58994 0
M  V30 2055 O 196.343 6.50313 -4.72597 0
M  V30 2056 H 196.075 0.670345 -0.0872549 0
M  V30 2057 H 198.629 1.84913 -0.894226 0
M  V30 2058 H 196.859 3.79025 0.7666 0
M  V30 2059 H 198.548 4.0364 0.427687 0
M  V30 2060 H 199.314 4.40558 -2.02815 0
M  V30 2061 H 195.193 4.53843 -0.809158 0
M  V30 2062 H 198.737 5.66365 -4.07279 0
M  V30 2063 H 194.634 5.79419 -2.84505 0
M  V30 2064 H 195.402 6.68795 -4.71864 0
M  V30 2065 N 198.065 0.39524 1.52563 0
M  V30 2066 C 199.476 -0.0774719 1.86539 0
M  V30 2067 C 199.827 -1.45641 1.31466 0
M  V30 2068 O 198.952 -2.06459 0.648367 0
M  V30 2069 C 199.547 -0.147356 3.38479 0
M  V30 2070 C 198.106 -0.564373 3.72145 0
M  V30 2071 C 197.253 0.269919 2.75983 0
M  V30 2072 H 200.204 0.612876 1.46388 0
M  V30 2073 H 200.225 -0.965343 3.68051 0
M  V30 2074 H 199.737 0.856387 3.78534 0
M  V30 2075 H 197.838 -1.57527 3.37663 0
M  V30 2076 H 197.951 -0.318402 4.78041 0
M  V30 2077 H 196.315 -0.265696 2.5331 0
M  V30 2078 H 197.098 1.27175 3.18875 0
M  V30 2079 N 199.544 -1.57102 0.125237 0
M  V30 2080 C 200.772 -1.99761 -0.538797 0
M  V30 2081 C 201.187 -1.00503 -1.59827 0
M  V30 2082 O 200.544 0.00119474 -1.825 0
M  V30 2083 C 200.595 -3.42408 -1.15927 0
M  V30 2084 O 200.316 -4.37869 -0.142143 0
M  V30 2085 C 201.817 -4.00232 -1.90602 0
M  V30 2086 H 199.037 -0.655772 -0.14214 0
M  V30 2087 H 201.581 -2.03383 0.213413 0
M  V30 2088 H 199.736 -3.39706 -1.86223 0
M  V30 2089 H 200.15 -5.21128 -0.593775 0
M  V30 2090 H 201.624 -5.02105 -2.29335 0
M  V30 2091 H 202.101 -3.39721 -2.78363 0
M  V30 2092 H 202.707 -4.06499 -1.25055 0
M  V30 2093 N 201.022 0.148545 -1.56898 0
M  V30 2094 C 202.271 0.85984 -1.82454 0
M  V30 2095 C 202.584 1.82406 -0.706229 0
M  V30 2096 O 203.79 2.57938 -0.847349 0
M  V30 2097 C 202.246 1.57967 -3.2338 0
M  V30 2098 C 201.854 0.65794 -4.43142 0
M  V30 2099 C 203.598 2.27784 -3.58211 0
M  V30 2100 C 201.505 1.3793 -5.75091 0
M  V30 2101 H 200.435 0.324834 -0.68044 0
M  V30 2102 H 203.086 0.112588 -1.83154 0
M  V30 2103 H 201.468 2.37249 -3.17063 0
M  V30 2104 H 202.642 -0.0995497 -4.60692 0
M  V30 2105 H 200.957 0.0682643 -4.16344 0
M  V30 2106 H 203.554 2.8239 -4.54048 0
M  V30 2107 H 203.897 3.04204 -2.84193 0
M  V30 2108 H 204.43 1.55421 -3.66182 0
M  V30 2109 H 201.169 0.656982 -6.52199 0
M  V30 2110 H 200.689 2.10954 -5.61479 0
M  V30 2111 H 202.368 1.92063 -6.17835 0
M  V30 2112 N 202.5 1.5196 0.417844 0
M  V30 2113 C 203.746 1.65836 1.16732 0
M  V30 2114 C 204.079 0.382881 1.90388 0
M  V30 2115 O 203.354 -0.618368 1.84408 0
M  V30 2116 C 203.637 2.87466 2.16876 0
M  V30 2117 C 203.49 4.25041 1.47174 0
M  V30 2118 C 204.809 3.04613 3.17646 0
M  V30 2119 H 201.928 0.603515 0.423011 0
M  V30 2120 H 204.57 1.84494 0.454105 0
M  V30 2121 H 202.72 2.71689 2.777 0
M  V30 2122 H 204.392 4.52527 0.895376 0
M  V30 2123 H 202.635 4.26843 0.773806 0
M  V30 2124 H 203.306 5.06176 2.20204 0
M  V30 2125 H 205.782 3.1923 2.66892 0
M  V30 2126 H 204.658 3.91247 3.8499 0
M  V30 2127 H 204.919 2.17541 3.84874 0
M  V30 2128 N 203.978 -0.674533 1.42435 0
M  V30 2129 C 205.206 -1.46283 1.46317 0
M  V30 2130 C 205.621 -1.88653 0.0745836 0
M  V30 2131 O 204.978 -1.58151 -0.91074 0
M  V30 2132 C 205.029 -2.71178 2.3905 0
M  V30 2133 O 204.75 -2.30586 3.72507 0
M  V30 2134 C 206.251 -3.64738 2.51955 0
M  V30 2135 H 203.471 -0.450104 0.497642 0
M  V30 2136 H 206.015 -0.828792 1.86953 0
M  V30 2137 H 204.17 -3.3077 2.01667 0
M  V30 2138 H 204.584 -3.11241 4.22172 0
M  V30 2139 H 206.058 -4.49096 3.20962 0
M  V30 2140 H 206.535 -4.10656 1.55752 0
M  V30 2141 H 207.141 -3.11038 2.90061 0
M  V30 2142 N 205.456 -1.28612 -0.910864 0
M  V30 2143 C 206.388 -1.08589 -2.01844 0
M  V30 2144 C 207.401 -0.0367419 -1.62759 0
M  V30 2145 O 208.59 -0.280101 -1.76289 0
M  V30 2146 C 205.69 -0.628626 -3.33019 0
M  V30 2147 C 204.863 -1.75382 -4.00699 0
M  V30 2148 C 203.922 -1.28945 -5.10156 0
M  V30 2149 O 202.948 -1.9922 -5.33198 0
M  V30 2150 N 204.15 -0.154224 -5.80295 0
M  V30 2151 H 206.915 -2.03973 -2.19579 0
M  V30 2152 H 204.476 -1.20403 -1.08234 0
M  V30 2153 H 206.468 -0.301508 -4.03575 0
M  V30 2154 H 205.038 0.232451 -3.11735 0
M  V30 2155 H 204.258 -2.25039 -3.23653 0
M  V30 2156 H 205.546 -2.50854 -4.42662 0
M  V30 2157 H 204.944 0.43194 -5.64049 0
M  V30 2158 H 203.501 0.113599 -6.51701 0
M  V30 2159 N 206.934 1.1197 -1.10907 0
M  V30 2160 C 208.35 1.35591 -0.841852 0
M  V30 2161 C 208.55 1.94233 0.536246 0
M  V30 2162 O 207.606 2.1717 1.28816 0
M  V30 2163 C 208.919 2.29284 -1.94549 0
M  V30 2164 C 210.467 2.42862 -1.97451 0
M  V30 2165 C 210.942 3.39873 -3.07002 0
M  V30 2166 N 212.433 3.47433 -3.06341 0
M  V30 2167 C 213.168 4.22421 -3.87748 0
M  V30 2168 N 212.664 5.00432 -4.79103 0
M  V30 2169 N 214.457 4.17876 -3.75946 0
M  V30 2170 H 206.608 0.722664 -1.99728 0
M  V30 2171 H 208.871 0.380635 -0.868229 0
M  V30 2172 H 208.577 1.93378 -2.93765 0
M  V30 2173 H 208.451 3.29452 -1.83688 0
M  V30 2174 H 210.838 2.78046 -0.988645 0
M  V30 2175 H 210.919 1.42566 -2.12388 0
M  V30 2176 H 210.563 3.05417 -4.05811 0
M  V30 2177 H 210.493 4.40011 -2.89306 0
M  V30 2178 H 212.984 2.91784 -2.40147 0
M  V30 2179 H 213.297 5.55002 -5.37766 0
M  V30 2180 H 211.642 4.99612 -4.83128 0
M  V30 2181 H 214.833 3.56016 -3.03924 0
M  V30 2182 H 215.006 4.76061 -4.39624 0
M  V30 2183 N 208.412 0.89855 1.29475 0
M  V30 2184 C 209.828 0.594483 1.48115 0
M  V30 2185 C 210.028 -0.86431 1.82022 0
M  V30 2186 O 209.084 -1.64457 1.91599 0
M  V30 2187 C 210.397 1.51932 2.59494 0
M  V30 2188 C 211.945 1.5244 2.7337 0
M  V30 2189 C 212.42 2.43548 3.87877 0
M  V30 2190 N 213.911 2.41589 3.95208 0
M  V30 2191 C 214.646 3.08789 4.83153 0
M  V30 2192 N 214.142 3.85265 5.75798 0
M  V30 2193 N 215.935 2.97952 4.76635 0
M  V30 2194 H 208.086 1.84207 1.05742 0
M  V30 2195 H 210.349 0.789251 0.525154 0
M  V30 2196 H 210.055 2.55865 2.41301 0
M  V30 2197 H 209.929 1.23899 3.56271 0
M  V30 2198 H 212.316 0.492518 2.90961 0
M  V30 2199 H 212.397 1.8451 1.77172 0
M  V30 2200 H 212.041 3.46829 3.71041 0
M  V30 2201 H 211.971 2.08788 4.83441 0
M  V30 2202 H 214.462 1.86025 3.28943 0
M  V30 2203 H 214.775 4.33598 6.39697 0
M  V30 2204 H 213.12 3.89371 5.75687 0
M  V30 2205 H 216.311 2.37723 4.03244 0
M  V30 2206 H 216.484 3.50599 5.44962 0
M  V30 2207 N 209.89 -1.43072 0.660911 0
M  V30 2208 C 211.138 -2.01323 0.177094 0
M  V30 2209 C 211.459 -1.5245 -1.2159 0
M  V30 2210 O 210.729 -0.740322 -1.81373 0
M  V30 2211 H 209.309 -0.744382 0.0624804 0
M  V30 2212 H 211.971 -1.75179 0.854305 0
M  V30 2213 H 211.067 -3.11649 0.167641 0
M  V30 2214 N 211.368 -0.403325 -1.52352 0
M  V30 2215 C 212.298 0.416205 -2.29761 0
M  V30 2216 C 213.279 1.05123 -1.33728 0
M  V30 2217 O 214.464 1.06134 -1.62632 0
M  V30 2218 C 211.594 1.53624 -3.11475 0
M  V30 2219 C 210.548 1.02653 -4.15507 0
M  V30 2220 C 209.874 2.23971 -4.85532 0
M  V30 2221 C 211.174 0.08463 -5.22231 0
M  V30 2222 H 212.868 -0.229701 -2.98518 0
M  V30 2223 H 210.414 -0.111913 -1.43564 0
M  V30 2224 H 212.367 2.1165 -3.64393 0
M  V30 2225 H 211.091 2.20994 -2.40477 0
M  V30 2226 H 209.75 0.46871 -3.63591 0
M  V30 2227 H 209.398 2.89883 -4.11068 0
M  V30 2228 H 209.098 1.90521 -5.55856 0
M  V30 2229 H 210.622 2.82614 -5.41259 0
M  V30 2230 H 212.036 0.573509 -5.70424 0
M  V30 2231 H 210.433 -0.160783 -5.99885 0
M  V30 2232 H 211.503 -0.86237 -4.7717 0
M  V30 2233 N 212.846 1.57033 -0.133567 0
M  V30 2234 C 213.779 2.11824 0.848872 0
M  V30 2235 C 214.757 1.03833 1.2513 0
M  V30 2236 O 215.941 1.31579 1.34978 0
M  V30 2237 C 213.068 2.62692 2.138 0
M  V30 2238 C 212.114 3.82705 1.88253 0
M  V30 2239 S 212.947 5.2438 1.08563 0
M  V30 2240 C 214.103 5.78627 2.38624 0
M  V30 2241 H 214.336 2.94824 0.38289 0
M  V30 2242 H 211.869 1.5419 0.0804796 0
M  V30 2243 H 213.827 2.92652 2.87863 0
M  V30 2244 H 212.488 1.79847 2.57515 0
M  V30 2245 H 211.681 4.16496 2.83809 0
M  V30 2246 H 211.283 3.53437 1.22305 0
M  V30 2247 H 213.575 5.8924 3.34369 0
M  V30 2248 H 214.518 6.76443 2.09358 0
M  V30 2249 H 214.926 5.06783 2.48658 0
M  V30 2250 N 214.325 -0.140222 1.56975 0
M  V30 2251 C 215.288 -1.15689 1.97861 0
M  V30 2252 C 216.288 -1.3549 0.865974 0
M  V30 2253 O 217.478 -1.32367 1.13246 0
M  V30 2254 C 214.61 -2.51582 2.30042 0
M  V30 2255 H 215.803 -0.805971 2.88867 0
M  V30 2256 H 213.356 -0.383801 1.51515 0
M  V30 2257 H 214.091 -2.91632 1.41849 0
M  V30 2258 H 213.876 -2.38569 3.11171 0
M  V30 2259 H 215.366 -3.24792 2.62488 0
M  V30 2260 N 215.803 -1.52179 -0.40978 0
M  V30 2261 C 216.733 -1.78435 -1.5061 0
M  V30 2262 C 217.714 -0.635295 -1.57791 0
M  V30 2263 O 218.899 -0.880823 -1.73076 0
M  V30 2264 C 216.029 -1.93444 -2.88439 0
M  V30 2265 C 214.983 -3.09038 -2.96108 0
M  V30 2266 C 214.309 -3.09268 -4.36185 0
M  V30 2267 C 215.609 -4.48508 -2.67652 0
M  V30 2268 H 217.303 -2.70237 -1.28889 0
M  V30 2269 H 214.849 -1.30036 -0.618605 0
M  V30 2270 H 216.802 -2.10394 -3.65119 0
M  V30 2271 H 215.526 -0.983129 -3.11452 0
M  V30 2272 H 214.185 -2.91837 -2.21872 0
M  V30 2273 H 213.833 -2.11861 -4.56206 0
M  V30 2274 H 213.533 -3.86907 -4.42241 0
M  V30 2275 H 215.057 -3.28348 -5.14801 0
M  V30 2276 H 216.471 -4.65918 -3.34056 0
M  V30 2277 H 214.868 -5.28059 -2.85085 0
M  V30 2278 H 215.938 -4.56649 -1.63095 0
M  V30 2279 N 217.281 0.66697 -1.42791 0
M  V30 2280 C 218.211 1.79218 -1.49677 0
M  V30 2281 C 219.192 1.66405 -0.352623 0
M  V30 2282 O 220.377 1.85708 -0.567993 0
M  V30 2283 C 217.507 3.17565 -1.40605 0
M  V30 2284 C 216.461 3.45124 -2.53127 0
M  V30 2285 C 215.787 4.83127 -2.29112 0
M  V30 2286 C 217.087 3.41236 -3.95418 0
M  V30 2287 H 218.781 1.73713 -2.43853 0
M  V30 2288 H 216.327 0.83432 -1.17367 0
M  V30 2289 H 218.28 3.96022 -1.44029 0
M  V30 2290 H 217.004 3.23767 -0.429271 0
M  V30 2291 H 215.663 2.69031 -2.49034 0
M  V30 2292 H 215.311 4.85988 -1.29709 0
M  V30 2293 H 215.011 5.02528 -3.04531 0
M  V30 2294 H 216.535 5.63859 -2.34297 0
M  V30 2295 H 217.949 4.09651 -4.01073 0
M  V30 2296 H 216.346 3.72173 -4.70752 0
M  V30 2297 H 217.416 2.39665 -4.21532 0
M  V30 2298 N 218.759 1.29093 0.90403 0
M  V30 2299 C 219.999 1.18076 1.66845 0
M  V30 2300 C 220.363 -0.26436 1.90171 0
M  V30 2301 O 221.564 -0.497423 2.64157 0
M  V30 2302 C 219.835 1.96722 2.98388 0
M  V30 2303 S 221.394 2.0219 3.89441 0
M  V30 2304 H 218.212 0.421104 0.572881 0
M  V30 2305 H 220.814 1.63322 1.07453 0
M  V30 2306 H 219.518 3.00866 2.7912 0
M  V30 2307 H 219.049 1.52064 3.62823 0
M  V30 2308 H 221.064 1.13545 4.83034 0
M  V30 2309 N 220.237 -1.11381 1.11499 0
M  V30 2310 C 221.483 -1.83403 0.865512 0
M  V30 2311 C 221.816 -1.84459 -0.607329 0
M  V30 2312 O 221.091 -1.29811 -1.44842 0
M  V30 2313 C 221.374 -3.30552 1.42855 0
M  V30 2314 C 221.227 -3.37886 2.96906 0
M  V30 2315 C 222.546 -4.26643 1.08 0
M  V30 2316 H 219.665 -0.665879 0.31587 0
M  V30 2317 H 222.307 -1.30601 1.37998 0
M  V30 2318 H 220.457 -3.75648 0.990985 0
M  V30 2319 H 222.129 -3.01343 3.49271 0
M  V30 2320 H 220.372 -2.78088 3.32941 0
M  V30 2321 H 221.043 -4.41458 3.31389 0
M  V30 2322 H 223.519 -3.89729 1.45775 0
M  V30 2323 H 222.395 -5.27986 1.50072 0
M  V30 2324 H 222.656 -4.42099 -0.00915037 0
M  V30 2325 N 221.715 -0.905404 -1.28997 0
M  V30 2326 C 222.961 -0.544465 -1.95977 0
M  V30 2327 C 223.316 0.90041 -1.70031 0
M  V30 2328 O 222.609 1.63064 -1.00601 0
M  V30 2329 C 222.803 -0.779906 -3.48787 0
M  V30 2330 C 222.632 -2.24612 -3.89589 0
M  V30 2331 C 221.402 -2.89464 -4.14172 0
M  V30 2332 C 223.6 -3.22182 -4.00878 0
M  V30 2333 N 221.582 -4.26469 -4.41585 0
M  V30 2334 C 222.953 -4.44323 -4.32409 0
M  V30 2335 C 225.008 -3.17694 -3.83373 0
M  V30 2336 C 223.711 -5.62546 -4.48258 0
M  V30 2337 C 225.737 -4.35208 -4.00435 0
M  V30 2338 C 225.099 -5.56121 -4.3233 0
M  V30 2339 H 221.198 -0.248948 -0.741316 0
M  V30 2340 H 223.782 -1.1674 -1.5582 0
M  V30 2341 H 221.953 -0.186308 -3.87953 0
M  V30 2342 H 223.685 -0.383833 -4.02876 0
M  V30 2343 H 220.44 -2.40232 -4.08149 0
M  V30 2344 H 220.864 -4.97283 -4.5939 0
M  V30 2345 H 225.506 -2.25297 -3.57773 0
M  V30 2346 H 223.224 -6.55429 -4.72692 0
M  V30 2347 H 226.81 -4.33228 -3.88336 0
M  V30 2348 H 225.69 -6.45537 -4.45255 0
M  V30 2349 N 223.193 1.4272 -0.668489 0
M  V30 2350 C 224.156 2.292 0.00448567 0
M  V30 2351 C 225.156 1.43001 0.735339 0
M  V30 2352 O 226.346 1.64461 0.57429 0
M  V30 2353 C 223.478 3.25375 1.01705 0
M  V30 2354 H 224.671 2.90199 -0.756608 0
M  V30 2355 H 222.224 1.50254 -0.430506 0
M  V30 2356 H 222.959 2.69301 1.80686 0
M  V30 2357 H 222.744 3.88944 0.496463 0
M  V30 2358 H 224.234 3.90245 1.48655 0
M  V30 2359 N 224.671 0.411399 1.52136 0
M  V30 2360 C 225.601 -0.404015 2.29978 0
M  V30 2361 C 226.582 -1.04412 1.34284 0
M  V30 2362 O 227.767 -1.0527 1.63192 0
M  V30 2363 C 224.897 -1.5197 3.12286 0
M  V30 2364 C 223.851 -1.00448 4.16046 0
M  V30 2365 C 223.177 -2.21393 4.86712 0
M  V30 2366 C 224.477 -0.0569336 5.22269 0
M  V30 2367 H 226.171 0.245529 2.98392 0
M  V30 2368 H 223.717 0.119525 1.43503 0
M  V30 2369 H 225.67 -2.09715 3.6551 0
M  V30 2370 H 224.394 -2.19716 2.41646 0
M  V30 2371 H 223.053 -0.449421 3.63835 0
M  V30 2372 H 222.701 -2.87699 4.12599 0
M  V30 2373 H 222.401 -1.87571 5.56858 0
M  V30 2374 H 223.925 -2.7974 5.4275 0
M  V30 2375 H 225.339 -0.54325 5.7072 0
M  V30 2376 H 223.736 0.192594 5.99791 0
M  V30 2377 H 224.806 0.887663 4.76706 0
M  V30 2378 N 226.149 -1.5696 0.141893 0
M  V30 2379 C 227.374 -2.00754 -0.520838 0
M  V30 2380 C 227.799 -1.0213 -1.57959 0
M  V30 2381 O 227.157 0.00371324 -1.813 0
M  V30 2382 C 227.205 -3.43318 -1.10294 0
M  V30 2383 O 226.309 -3.47679 -2.21795 0
M  V30 2384 H 225.65 -0.651564 -0.127908 0
M  V30 2385 H 228.18 -2.03221 0.23712 0
M  V30 2386 H 228.19 -3.82012 -1.43287 0
M  V30 2387 H 226.865 -4.14608 -0.327574 0
M  V30 2388 H 225.442 -3.20824 -1.9007 0
M  V30 2389 N 227.627 0.131896 -1.57047 0
M  V30 2390 C 228.557 1.16384 -2.02428 0
M  V30 2391 C 229.538 1.43936 -0.90644 0
M  V30 2392 O 230.723 1.54599 -1.17528 0
M  V30 2393 C 227.853 2.49328 -2.4177 0
M  V30 2394 C 226.807 2.36266 -3.56879 0
M  V30 2395 C 226.133 3.74057 -3.8208 0
M  V30 2396 C 227.433 1.834 -4.89042 0
M  V30 2397 H 229.127 0.786433 -2.88887 0
M  V30 2398 H 226.673 0.376855 -1.38981 0
M  V30 2399 H 228.626 3.21759 -2.7212 0
M  V30 2400 H 227.35 2.88934 -1.52266 0
M  V30 2401 H 226.009 1.66286 -3.26718 0
M  V30 2402 H 225.657 4.11125 -2.89803 0
M  V30 2403 H 225.357 3.66174 -4.59554 0
M  V30 2404 H 226.881 4.48012 -4.1487 0
M  V30 2405 H 228.295 2.45636 -5.18011 0
M  V30 2406 H 226.692 1.8637 -5.70426 0
M  V30 2407 H 227.762 0.790662 -4.7841 0
M  V30 2408 N 229.106 1.52395 0.401703 0
M  V30 2409 C 230.352 1.67065 1.14966 0
M  V30 2410 C 230.685 0.403052 1.89971 0
M  V30 2411 O 229.96 -0.598774 1.85054 0
M  V30 2412 C 230.243 2.8975 2.13815 0
M  V30 2413 C 230.096 4.26578 1.42658 0
M  V30 2414 C 231.415 3.07965 3.14397 0
M  V30 2415 H 228.534 0.607968 0.416587 0
M  V30 2416 H 231.176 1.84965 0.434511 0
M  V30 2417 H 229.326 2.74619 2.74803 0
M  V30 2418 H 230.998 4.53451 0.847329 0
M  V30 2419 H 229.241 4.27639 0.72849 0
M  V30 2420 H 229.912 5.08483 2.14823 0
M  V30 2421 H 232.388 3.22043 2.63491 0
M  V30 2422 H 231.264 3.95308 3.80819 0
M  V30 2423 H 231.525 2.21611 3.82545 0
M  V30 2424 N 230.584 -0.659388 1.43143 0
M  V30 2425 C 231.833 -1.41518 1.43721 0
M  V30 2426 C 232.146 -1.95499 0.0628176 0
M  V30 2427 O 233.352 -2.71446 -0.0539683 0
M  V30 2428 C 231.808 -2.5608 2.52885 0
M  V30 2429 C 231.416 -2.08733 3.96402 0
M  V30 2430 C 233.16 -3.3349 2.62649 0
M  V30 2431 C 231.067 -3.20469 4.97045 0
M  V30 2432 H 229.997 -0.531705 0.534608 0
M  V30 2433 H 232.648 -0.712343 1.69109 0
M  V30 2434 H 231.03 -3.28805 2.20688 0
M  V30 2435 H 232.204 -1.43059 4.3803 0
M  V30 2436 H 230.519 -1.44219 3.90627 0
M  V30 2437 H 233.116 -4.16734 3.35017 0
M  V30 2438 H 233.459 -3.8111 1.67513 0
M  V30 2439 H 233.992 -2.67842 2.94118 0
M  V30 2440 H 230.731 -2.77824 5.93712 0
M  V30 2441 H 230.251 -3.84874 4.60034 0
M  V30 2442 H 231.93 -3.85698 5.19467 0
M  V30 2443 N 232.062 -1.29571 -0.897171 0
M  V30 2444 C 233.287 -1.20705 -1.68656 0
M  V30 2445 C 233.712 0.228582 -1.86706 0
M  V30 2446 O 233.07 1.16494 -1.3892 0
M  V30 2447 C 233.118 -1.9282 -3.04717 0
M  V30 2448 O 232.222 -1.24697 -3.93096 0
M  V30 2449 H 231.563 -0.418126 -0.515816 0
M  V30 2450 H 234.093 -1.71183 -1.12061 0
M  V30 2451 H 234.103 -2.01372 -3.54843 0
M  V30 2452 H 232.778 -2.97239 -2.90899 0
M  V30 2453 H 231.355 -1.2442 -3.51531 0
M  V30 2454 N 233.54 1.10788 -1.12088 0
M  V30 2455 C 234.789 1.82036 -0.868659 0
M  V30 2456 C 235.102 1.85929 0.607426 0
M  V30 2457 O 236.308 2.53346 0.97613 0
M  V30 2458 C 234.764 3.26951 -1.50435 0
M  V30 2459 C 234.372 3.31367 -3.01496 0
M  V30 2460 C 236.116 4.03053 -1.33225 0
M  V30 2461 C 234.023 4.7072 -3.58017 0
M  V30 2462 H 232.953 0.682108 -0.321318 0
M  V30 2463 H 235.604 1.24618 -1.34694 0
M  V30 2464 H 233.986 3.84343 -0.953735 0
M  V30 2465 H 235.16 2.83819 -3.6302 0
M  V30 2466 H 233.475 2.6875 -3.18061 0
M  V30 2467 H 236.072 5.05981 -1.72878 0
M  V30 2468 H 236.415 4.15387 -0.275529 0
M  V30 2469 H 236.948 3.52066 -1.85188 0
M  V30 2470 H 233.687 4.63585 -4.63432 0
M  V30 2471 H 233.207 5.1865 -3.01268 0
M  V30 2472 H 234.886 5.39685 -3.56859 0
M  V30 2473 N 235.018 0.912232 1.28515 0
M  V30 2474 C 236.266 0.543523 1.94654 0
M  V30 2475 C 236.587 -0.9155 1.72173 0
M  V30 2476 O 235.857 -1.64708 1.06058 0
M  V30 2477 H 234.437 0.198017 0.720277 0
M  V30 2478 H 237.099 1.16126 1.56527 0
M  V30 2479 H 236.195 0.736684 3.03281 0
M  V30 2480 N 236.496 -1.42363 0.676048 0
M  V30 2481 C 237.907 -1.84649 0.275948 0
M  V30 2482 C 238.258 -1.56588 -1.18214 0
M  V30 2483 O 237.383 -1.02634 -1.90513 0
M  V30 2484 C 237.978 -3.35178 0.494053 0
M  V30 2485 C 236.537 -3.76109 0.148061 0
M  V30 2486 C 235.684 -2.65931 0.785891 0
M  V30 2487 H 238.635 -1.32192 0.878121 0
M  V30 2488 H 238.656 -3.79655 -0.25343 0
M  V30 2489 H 238.168 -3.55571 1.55535 0
M  V30 2490 H 236.269 -3.61323 -0.909742 0
M  V30 2491 H 236.382 -4.7546 0.589454 0
M  V30 2492 H 234.746 -2.53773 0.217113 0
M  V30 2493 H 235.529 -2.89146 1.85067 0
M  V30 2494 N 237.974 -0.419461 -1.51915 0
M  V30 2495 C 238.904 0.391813 -2.30189 0
M  V30 2496 C 239.885 1.03699 -1.34836 0
M  V30 2497 O 241.07 1.04403 -1.63748 0
M  V30 2498 C 238.2 1.50312 -3.13087 0
M  V30 2499 C 237.154 0.9824 -4.16573 0
M  V30 2500 C 236.48 2.18809 -4.8788 0
M  V30 2501 C 237.78 0.0292356 -5.22292 0
M  V30 2502 H 239.474 -0.26135 -2.98257 0
M  V30 2503 H 237.02 -0.127134 -1.43438 0
M  V30 2504 H 238.973 2.07773 -3.66617 0
M  V30 2505 H 237.697 2.18431 -2.42807 0
M  V30 2506 H 236.356 0.430119 -3.64068 0
M  V30 2507 H 236.004 2.85507 -4.14119 0
M  V30 2508 H 235.704 1.84615 -5.57845 0
M  V30 2509 H 237.228 2.76858 -5.44226 0
M  V30 2510 H 238.642 0.512976 -5.71 0
M  V30 2511 H 237.039 -0.2244 -5.9968 0
M  V30 2512 H 238.109 -0.912931 -4.76228 0
M  V30 2513 N 239.452 1.56882 -0.150215 0
M  V30 2514 C 240.699 1.96228 0.500093 0
M  V30 2515 C 241.027 1.03522 1.64661 0
M  V30 2516 O 240.282 0.0650683 1.95592 0
M  V30 2517 C 240.581 3.41801 1.04437 0
M  V30 2518 C 240.247 4.50897 0.0159671 0
M  V30 2519 C 238.909 4.8046 -0.266731 0
M  V30 2520 C 241.261 5.16703 -0.683192 0
M  V30 2521 C 238.589 5.73135 -1.25434 0
M  V30 2522 C 240.941 6.10441 -1.65964 0
M  V30 2523 C 239.605 6.38382 -1.95 0
M  V30 2524 H 238.875 0.718048 0.182997 0
M  V30 2525 H 241.522 1.90019 -0.237724 0
M  V30 2526 H 239.827 3.44857 1.85959 0
M  V30 2527 H 241.524 3.69573 1.55618 0
M  V30 2528 H 238.114 4.27891 0.246485 0
M  V30 2529 H 242.298 4.93993 -0.477983 0
M  V30 2530 H 237.554 5.93074 -1.48571 0
M  V30 2531 H 241.728 6.60507 -2.20689 0
M  V30 2532 H 239.355 7.09996 -2.71679 0
M  V30 2533 N 240.93 -0.123565 1.57115 0
M  V30 2534 C 242.178 -0.83051 1.84247 0
M  V30 2535 C 242.499 -1.80629 0.73471 0
M  V30 2536 O 241.769 -1.94403 -0.241688 0
M  V30 2537 H 240.349 -0.309694 0.679778 0
M  V30 2538 H 243.011 -0.111976 1.94578 0
M  V30 2539 H 242.107 -1.37852 2.80006 0
M  V30 2540 N 242.408 -1.52605 -0.393616 0
M  V30 2541 C 243.654 -1.68624 -1.13743 0
M  V30 2542 C 244.009 -0.418687 -1.87789 0
M  V30 2543 O 243.302 0.58747 -1.82371 0
M  V30 2544 C 243.496 -2.85721 -2.14705 0
M  V30 2545 C 243.325 -4.23742 -1.50575 0
M  V30 2546 C 242.095 -4.89033 -1.2718 0
M  V30 2547 C 244.293 -5.05293 -0.958311 0
M  V30 2548 N 242.275 -6.11048 -0.591058 0
M  V30 2549 C 243.646 -6.18673 -0.405367 0
M  V30 2550 C 245.701 -4.90517 -0.854274 0
M  V30 2551 C 244.404 -7.18895 0.241434 0
M  V30 2552 C 246.43 -5.90986 -0.221301 0
M  V30 2553 C 245.792 -7.03669 0.320894 0
M  V30 2554 H 241.891 -0.670556 -0.402342 0
M  V30 2555 H 244.475 -1.89946 -0.427607 0
M  V30 2556 H 242.646 -2.65987 -2.83029 0
M  V30 2557 H 244.378 -2.90699 -2.8156 0
M  V30 2558 H 241.133 -4.47672 -1.54554 0
M  V30 2559 H 241.557 -6.76474 -0.266862 0
M  V30 2560 H 246.199 -4.03612 -1.25926 0
M  V30 2561 H 243.917 -8.05413 0.658448 0
M  V30 2562 H 247.503 -5.81626 -0.142111 0
M  V30 2563 H 246.383 -7.80078 0.802956 0
M  V30 2564 N 243.887 0.651787 -1.4349 0
M  V30 2565 C 245.303 0.96762 -1.26922 0
M  V30 2566 C 245.503 2.00602 -0.189982 0
M  V30 2567 O 244.559 2.48793 0.431107 0
M  V30 2568 C 245.872 1.45052 -2.63401 0
M  V30 2569 C 247.42 1.5671 -2.70945 0
M  V30 2570 C 247.895 2.0839 -4.07845 0
M  V30 2571 N 249.386 2.1569 -4.09917 0
M  V30 2572 C 250.121 2.56804 -5.12679 0
M  V30 2573 N 249.617 2.97203 -6.25813 0
M  V30 2574 N 251.41 2.56756 -5.00033 0
M  V30 2575 H 243.561 -0.0353158 -2.12371 0
M  V30 2576 H 245.824 0.0467858 -0.946845 0
M  V30 2577 H 245.53 0.761926 -3.43348 0
M  V30 2578 H 245.404 2.42529 -2.88894 0
M  V30 2579 H 247.791 2.2467 -1.9133 0
M  V30 2580 H 247.872 0.57662 -2.49216 0
M  V30 2581 H 247.516 1.41031 -4.87927 0
M  V30 2582 H 247.446 3.08271 -4.26938 0
M  V30 2583 H 249.937 1.87237 -3.28254 0
M  V30 2584 H 250.25 3.27328 -7.00055 0
M  V30 2585 H 248.595 2.95004 -6.29283 0
M  V30 2586 H 251.786 2.24572 -4.10713 0
M  V30 2587 H 251.959 2.88475 -5.80247 0
M  V30 2588 N 245.365 1.30045 0.890287 0
M  V30 2589 C 246.297 1.11786 2.00091 0
M  V30 2590 C 247.31 0.0626307 1.62679 0
M  V30 2591 O 248.499 0.308112 1.75821 0
M  V30 2592 C 245.599 0.681527 3.31977 0
M  V30 2593 C 244.772 1.81735 3.97858 0
M  V30 2594 C 243.831 1.37045 5.08041 0
M  V30 2595 O 242.857 2.07677 5.29961 0
M  V30 2596 N 244.059 0.246525 5.79976 0
M  V30 2597 H 246.824 2.07441 2.16306 0
M  V30 2598 H 244.385 1.2211 1.06305 0
M  V30 2599 H 246.377 0.365675 4.03045 0
M  V30 2600 H 244.947 -0.182828 3.12065 0
M  V30 2601 H 244.167 2.30159 3.20032 0
M  V30 2602 H 245.455 2.57865 4.38615 0
M  V30 2603 H 244.853 -0.34215 5.64664 0
M  V30 2604 H 243.41 -0.00990438 6.51799 0
M  V30 2605 N 246.843 -1.10192 1.12674 0
M  V30 2606 C 248.254 -1.63707 0.897604 0
M  V30 2607 C 248.605 -1.87812 -0.567546 0
M  V30 2608 O 247.73 -1.62196 -1.43253 0
M  V30 2609 C 248.325 -2.974 1.62292 0
M  V30 2610 C 246.884 -3.47772 1.43986 0
M  V30 2611 C 246.031 -2.22332 1.65722 0
M  V30 2612 H 248.982 -0.936587 1.28116 0
M  V30 2613 H 249.003 -3.64986 1.07541 0
M  V30 2614 H 248.515 -2.79824 2.68924 0
M  V30 2615 H 246.616 -3.70487 0.396206 0
M  V30 2616 H 246.729 -4.25723 2.19765 0
M  V30 2617 H 245.093 -2.30599 1.08149 0
M  V30 2618 H 245.876 -2.07285 2.73657 0
M  V30 2619 N 248.321 -0.919034 -1.28029 0
M  V30 2620 C 249.284 -0.416182 -2.2539 0
M  V30 2621 C 250.284 0.460438 -1.54067 0
M  V30 2622 O 251.474 0.262744 -1.72207 0
M  V30 2623 C 248.606 0.402707 -3.38513 0
M  V30 2624 H 249.799 -1.27629 -2.71387 0
M  V30 2625 H 247.352 -0.698919 -1.39803 0
M  V30 2626 H 248.087 1.282 -2.97885 0
M  V30 2627 H 247.872 -0.225698 -3.9145 0
M  V30 2628 H 249.362 0.745191 -4.10897 0
M  V30 2629 N 249.799 1.42003 -0.683588 0
M  V30 2630 C 251.21 1.84501 -0.285736 0
M  V30 2631 C 251.561 1.57213 1.17382 0
M  V30 2632 O 250.686 1.03642 1.89966 0
M  V30 2633 C 251.281 3.34912 -0.511821 0
M  V30 2634 C 249.84 3.76025 -0.168005 0
M  V30 2635 C 248.987 2.6551 -0.799983 0
M  V30 2636 H 251.938 1.31724 -0.885119 0
M  V30 2637 H 251.959 3.79784 0.233292 0
M  V30 2638 H 251.471 3.54741 -1.57418 0
M  V30 2639 H 249.572 3.61801 0.890567 0
M  V30 2640 H 249.685 4.75141 -0.614661 0
M  V30 2641 H 248.049 2.53654 -0.230568 0
M  V30 2642 H 248.832 2.8816 -1.86597 0
M  V30 2643 N 251.277 0.427512 1.51691 0
M  V30 2644 C 252.187 -0.39527 2.31246 0
M  V30 2645 C 253.203 -1.03674 1.39742 0
M  V30 2646 O 254.379 -1.03425 1.72816 0
M  V30 2647 C 251.444 -1.48706 3.13189 0
M  V30 2648 C 250.505 -0.866743 4.20459 0
M  V30 2649 C 249.738 -1.90651 4.98486 0
M  V30 2650 O 249.961 -3.12733 4.77026 0
M  V30 2651 O 248.895 -1.5025 5.82845 0
M  V30 2652 H 252.721 0.253918 3.02637 0
M  V30 2653 H 250.306 0.190274 1.48183 0
M  V30 2654 H 252.188 -2.12047 3.64162 0
M  V30 2655 H 250.863 -2.12051 2.44573 0
M  V30 2656 H 249.77 -0.195544 3.73589 0
M  V30 2657 H 251.103 -0.276934 4.9142 0
M  V30 2658 N 252.755 -1.56801 0.158532 0
M  V30 2659 C 254.032 -1.88131 -0.535357 0
M  V30 2660 C 254.412 -1.06638 -1.82186 0
M  V30 2661 O 253.76 -0.156533 -2.27963 0
M  V30 2662 C 253.97 -3.39949 -0.789653 0
M  V30 2663 C 255.318 -4.09416 -1.12533 0
M  V30 2664 O 256.342 -3.45194 -0.878622 0
M  V30 2665 O 255.201 -5.22855 -1.59014 0
M  V30 2666 H 252.295 -0.780143 -0.27442 0
M  V30 2667 H 254.841 -1.68564 0.19601 0
M  V30 2668 H 253.613 -3.91115 0.120353 0
M  V30 2669 H 253.236 -3.65084 -1.57479 0
M  V30 2670 N 254.233 0.115231 -1.57178 0
M  V30 2671 C 255.143 1.15994 -2.03918 0
M  V30 2672 C 256.159 1.45103 -0.960268 0
M  V30 2673 O 257.335 1.56144 -1.27204 0
M  V30 2674 C 254.4 2.46568 -2.43732 0
M  V30 2675 C 253.461 2.24822 -3.65723 0
M  V30 2676 C 252.694 3.4917 -4.03629 0
M  V30 2677 O 252.917 4.56623 -3.41835 0
M  V30 2678 O 251.851 3.39949 -4.96708 0
M  V30 2679 H 255.677 0.793019 -2.93164 0
M  V30 2680 H 253.262 0.3263 -1.45793 0
M  V30 2681 H 255.144 3.23492 -2.70057 0
M  V30 2682 H 253.819 2.82726 -1.57631 0
M  V30 2683 H 252.726 1.45744 -3.44542 0
M  V30 2684 H 254.059 1.93566 -4.52541 0
M  V30 2685 N 255.711 1.52812 0.385517 0
M  V30 2686 C 256.939 1.71907 1.15133 0
M  V30 2687 C 257.354 0.439004 1.83625 0
M  V30 2688 O 256.711 -0.586765 1.7281 0
M  V30 2689 C 256.762 2.87099 2.19673 0
M  V30 2690 O 256.483 4.10151 1.53973 0
M  V30 2691 C 257.984 3.17902 3.08955 0
M  V30 2692 H 255.204 0.575479 0.345057 0
M  V30 2693 H 257.748 1.99476 0.45052 0
M  V30 2694 H 255.903 2.61982 2.85384 0
M  V30 2695 H 256.317 4.74514 2.23465 0
M  V30 2696 H 257.791 4.01959 3.7833 0
M  V30 2697 H 258.268 2.3243 3.72657 0
M  V30 2698 H 258.874 3.44871 2.48885 0
M  V30 2699 N 257.189 -0.644168 1.43834 0
M  V30 2700 C 258.438 -1.39985 1.45214 0
M  V30 2701 C 258.751 -1.95421 0.0835494 0
M  V30 2702 O 259.957 -2.71488 -0.0251748 0
M  V30 2703 C 258.413 -2.53384 2.55587 0
M  V30 2704 C 258.021 -2.04517 3.98594 0
M  V30 2705 C 259.765 -3.30685 2.66172 0
M  V30 2706 C 257.672 -3.1518 5.00416 0
M  V30 2707 H 256.602 -0.526005 0.540218 0
M  V30 2708 H 259.253 -0.694367 1.69855 0
M  V30 2709 H 257.635 -3.26446 2.24163 0
M  V30 2710 H 258.809 -1.38405 4.39523 0
M  V30 2711 H 257.124 -1.40068 3.92135 0
M  V30 2712 H 259.721 -4.13158 3.39418 0
M  V30 2713 H 260.064 -3.79312 1.71546 0
M  V30 2714 H 260.597 -2.64708 2.96942 0
M  V30 2715 H 257.336 -2.71511 5.96625 0
M  V30 2716 H 256.856 -3.79974 4.64091 0
M  V30 2717 H 258.535 -3.80166 5.23529 0
M  V30 2718 N 258.668 -1.30515 -0.883378 0
M  V30 2719 C 259.908 -1.20716 -1.64946 0
M  V30 2720 C 260.272 0.234072 -1.90568 0
M  V30 2721 O 261.473 0.455335 -2.64915 0
M  V30 2722 C 259.744 -2.01444 -2.9522 0
M  V30 2723 S 261.303 -2.0836 -3.86175 0
M  V30 2724 H 258.121 -0.430165 -0.566109 0
M  V30 2725 H 260.723 -1.65011 -1.04841 0
M  V30 2726 H 259.427 -3.05268 -2.74298 0
M  V30 2727 H 258.958 -1.57817 -3.60357 0
M  V30 2728 H 260.973 -1.21215 -4.81167 0
M  V30 2729 N 260.146 1.09593 -1.13257 0
M  V30 2730 C 261.078 2.16015 -0.766167 0
M  V30 2731 C 262.091 1.61423 0.211303 0
M  V30 2732 O 263.28 1.78498 -0.00863946 0
M  V30 2733 C 260.38 3.38706 -0.114662 0
M  V30 2734 C 259.553 4.22717 -1.12379 0
M  V30 2735 C 258.612 5.23835 -0.498301 0
M  V30 2736 O 257.638 5.573 -1.15781 0
M  V30 2737 N 258.84 5.75886 0.730417 0
M  V30 2738 H 261.605 2.48055 -1.68193 0
M  V30 2739 H 259.166 1.25292 -1.02535 0
M  V30 2740 H 261.158 4.03464 0.315991 0
M  V30 2741 H 259.728 3.04569 0.704011 0
M  V30 2742 H 258.948 3.54122 -1.73179 0
M  V30 2743 H 260.236 4.75673 -1.80589 0
M  V30 2744 H 259.634 5.50911 1.28504 0
M  V30 2745 H 258.191 6.42387 1.10376 0
M  V30 2746 N 261.624 0.925811 1.2754 0
M  V30 2747 C 262.873 0.561084 1.93739 0
M  V30 2748 C 263.186 -0.901685 1.73577 0
M  V30 2749 O 264.392 -1.37511 2.34101 0
M  V30 2750 C 262.848 0.952668 3.47062 0
M  V30 2751 C 262.456 2.43599 3.75983 0
M  V30 2752 C 264.2 0.659103 4.19352 0
M  V30 2753 C 262.107 2.76707 5.22673 0
M  V30 2754 H 261.037 0.206122 0.725279 0
M  V30 2755 H 263.688 1.12637 1.44863 0
M  V30 2756 H 262.07 0.316053 3.94737 0
M  V30 2757 H 263.244 3.12035 3.39073 0
M  V30 2758 H 261.559 2.70125 3.16893 0
M  V30 2759 H 264.156 0.882985 5.27359 0
M  V30 2760 H 264.499 -0.403607 4.14339 0
M  V30 2761 H 265.032 1.25473 3.77494 0
M  V30 2762 H 261.771 3.8188 5.32774 0
M  V30 2763 H 261.291 2.12919 5.60737 0
M  V30 2764 H 262.97 2.6435 5.90532 0
M  V30 2765 N 263.102 -1.41638 0.69111 0
M  V30 2766 C 264.05 -2.32597 0.0115199 0
M  V30 2767 C 265.044 -1.5072 -0.773296 0
M  V30 2768 O 266.25 -1.66685 -0.67942 0
M  V30 2769 H 262.625 -0.751849 -0.0150746 0
M  V30 2770 H 264.596 -2.87593 0.795791 0
M  V30 2771 C 263.345 -3.35467 -0.914172 0
M  V30 2772 H 262.668 -3.9852 -0.319687 0
M  V30 2773 H 264.108 -4.01662 -1.35808 0
M  V30 2774 C 262.567 -2.69004 -2.02826 0
M  V30 2775 O 263.097 -2.53444 -3.11655 0
M  V30 2776 N 261.303 -2.2777 -1.80469 0
M  V30 2777 H 260.85 -2.40626 -0.919615 0
M  V30 2778 H 260.808 -1.83635 -2.55197 0
M  V30 2779 N 264.58 -0.43555 -1.51462 0
M  V30 2780 C 265.49 0.383001 -2.31453 0
M  V30 2781 C 266.506 1.02931 -1.4029 0
M  V30 2782 O 267.682 1.02507 -1.73362 0
M  V30 2783 C 264.747 1.47043 -3.13973 0
M  V30 2784 C 263.808 0.844433 -4.20913 0
M  V30 2785 C 263.041 1.88004 -4.9949 0
M  V30 2786 O 263.264 3.10199 -4.78678 0
M  V30 2787 O 262.198 1.47157 -5.83634 0
M  V30 2788 H 266.024 -0.269964 -3.02498 0
M  V30 2789 H 263.609 -0.19813 -1.4808 0
M  V30 2790 H 265.491 2.10113 -3.65281 0
M  V30 2791 H 264.166 2.10751 -2.45695 0
M  V30 2792 H 263.073 0.175729 -3.73687 0
M  V30 2793 H 264.406 0.250869 -4.9156 0
M  V30 2794 N 266.058 1.56714 -0.166846 0
M  V30 2795 C 266.968 2.21331 0.777791 0
M  V30 2796 C 267.984 1.20358 1.25658 0
M  V30 2797 O 269.16 1.53005 1.30964 0
M  V30 2798 C 266.225 2.83787 1.99163 0
M  V30 2799 C 265.286 3.99947 1.56016 0
M  V30 2800 C 264.519 4.59415 2.71613 0
M  V30 2801 O 264.742 4.17769 3.88362 0
M  V30 2802 O 263.676 5.49359 2.45945 0
M  V30 2803 H 267.502 3.02605 0.257636 0
M  V30 2804 H 265.087 1.49275 0.0611393 0
M  V30 2805 H 266.969 3.23405 2.70161 0
M  V30 2806 H 265.644 2.05513 2.50092 0
M  V30 2807 H 264.551 3.65007 0.819809 0
M  V30 2808 H 265.884 4.79801 1.09782 0
M  V30 2809 N 267.536 -0.106894 1.57237 0
M  V30 2810 C 268.947 -0.662723 1.74542 0
M  V30 2811 C 269.298 -1.7971 0.787319 0
M  V30 2812 O 268.423 -2.16368 -0.0369636 0
M  V30 2813 C 269.018 -1.20896 3.16496 0
M  V30 2814 C 267.577 -1.71096 3.35266 0
M  V30 2815 C 266.724 -0.615642 2.7038 0
M  V30 2816 H 269.675 0.119106 1.58252 0
M  V30 2817 H 269.696 -2.07847 3.18716 0
M  V30 2818 H 269.208 -0.383122 3.86204 0
M  V30 2819 H 267.309 -2.56119 2.70618 0
M  V30 2820 H 267.422 -1.81208 4.43509 0
M  V30 2821 H 265.786 -1.05222 2.31949 0
M  V30 2822 H 266.569 0.199419 3.4272 0
M  V30 2823 N 269.014 -1.53014 -0.377408 0
M  V30 2824 C 270.262 -1.6829 -1.11906 0
M  V30 2825 C 270.583 -0.431206 -1.90173 0
M  V30 2826 O 269.853 0.554595 -1.87886 0
M  V30 2827 H 268.433 -0.620371 -0.416112 0
M  V30 2828 H 271.095 -1.90167 -0.426893 0
M  V30 2829 H 270.191 -2.53862 -1.8155 0
M  V30 2830 N 270.492 0.636531 -1.44174 0
M  V30 2831 C 271.722 1.42146 -1.49927 0
M  V30 2832 C 272.13 1.88812 -0.121063 0
M  V30 2833 O 271.473 1.61126 0.882267 0
M  V30 2834 C 271.535 2.67883 -2.39748 0
M  V30 2835 C 271.199 2.43048 -3.8701 0
M  V30 2836 C 272.196 2.05216 -4.77684 0
M  V30 2837 C 269.881 2.56856 -4.3166 0
M  V30 2838 C 271.875 1.81512 -6.11009 0
M  V30 2839 C 269.562 2.32766 -5.65034 0
M  V30 2840 C 270.56 1.95152 -6.54526 0
M  V30 2841 O 270.248 1.71326 -7.85431 0
M  V30 2842 H 269.98 0.442567 -0.51099 0
M  V30 2843 H 272.534 0.786158 -1.8976 0
M  V30 2844 H 270.764 3.34032 -1.94832 0
M  V30 2845 H 272.453 3.29874 -2.36513 0
M  V30 2846 H 273.219 1.94111 -4.44462 0
M  V30 2847 H 269.098 2.85104 -3.62266 0
M  V30 2848 H 272.642 1.52077 -6.80822 0
M  V30 2849 H 268.539 2.43479 -5.97819 0
M  V30 2850 H 269.307 1.85616 -7.97176 0
M  V30 2851 N 271.97 1.30982 0.876444 0
M  V30 2852 C 273.216 1.20474 1.63138 0
M  V30 2853 C 273.549 -0.238096 1.92735 0
M  V30 2854 O 272.824 -1.1692 1.55435 0
M  V30 2855 C 273.107 2.04244 2.96574 0
M  V30 2856 C 272.96 3.56793 2.73896 0
M  V30 2857 C 274.279 1.88684 3.97601 0
M  V30 2858 H 271.398 0.439001 0.591985 0
M  V30 2859 H 274.04 1.60704 1.01361 0
M  V30 2860 H 272.19 1.70063 3.493 0
M  V30 2861 H 273.862 4.01077 2.27892 0
M  V30 2862 H 272.105 3.80548 2.08245 0
M  V30 2863 H 272.776 4.10706 3.68815 0
M  V30 2864 H 275.252 2.18584 3.54062 0
M  V30 2865 H 274.128 2.4961 4.88862 0
M  V30 2866 H 274.389 0.848343 4.33884 0
M  V30 2867 N 273.449 -1.08991 1.13837 0
M  V30 2868 C 274.379 -2.17771 0.842507 0
M  V30 2869 C 275.36 -1.6892 -0.20001 0
M  V30 2870 O 276.545 -1.94113 -0.0579731 0
M  V30 2871 C 273.675 -3.4589 0.312644 0
M  V30 2872 C 272.629 -4.08099 1.28992 0
M  V30 2873 C 271.955 -5.31098 0.619623 0
M  V30 2874 C 273.255 -4.50077 2.65005 0
M  V30 2875 H 274.949 -2.42777 1.75213 0
M  V30 2876 H 272.495 -1.16682 0.843875 0
M  V30 2877 H 274.448 -4.21297 0.0933043 0
M  V30 2878 H 273.172 -3.20419 -0.632382 0
M  V30 2879 H 271.831 -3.34717 1.49533 0
M  V30 2880 H 271.479 -5.0191 -0.33102 0
M  V30 2881 H 271.179 -5.73674 1.27167 0
M  V30 2882 H 272.703 -6.09224 0.409669 0
M  V30 2883 H 274.117 -5.16688 2.48407 0
M  V30 2884 H 272.514 -5.03553 3.26427 0
M  V30 2885 H 273.584 -3.62257 3.22332 0
M  V30 2886 N 274.927 -0.932562 -1.27047 0
M  V30 2887 C 276.174 -0.575559 -1.94148 0
M  V30 2888 C 276.502 0.883984 -1.73251 0
M  V30 2889 O 275.757 1.64655 -1.0577 0
M  V30 2890 C 276.056 -0.853713 -3.47054 0
M  V30 2891 C 275.722 -2.29577 -3.88079 0
M  V30 2892 C 274.384 -2.68999 -3.9899 0
M  V30 2893 C 276.736 -3.23331 -4.08787 0
M  V30 2894 C 274.064 -4.01289 -4.28 0
M  V30 2895 C 276.416 -4.55207 -4.39282 0
M  V30 2896 C 275.08 -4.94457 -4.48407 0
M  V30 2897 H 274.35 -0.210612 -0.710439 0
M  V30 2898 H 276.997 -1.17744 -1.51025 0
M  V30 2899 H 275.302 -0.169204 -3.91434 0
M  V30 2900 H 276.999 -0.55639 -3.97121 0
M  V30 2901 H 273.589 -1.97994 -3.80127 0
M  V30 2902 H 277.773 -2.94074 -3.99793 0
M  V30 2903 H 273.029 -4.31374 -4.33275 0
M  V30 2904 H 277.203 -5.27852 -4.54252 0
M  V30 2905 H 274.83 -5.96994 -4.7064 0
M  V30 2906 N 276.405 1.4127 -0.698611 0
M  V30 2907 C 277.63 2.06024 -0.238512 0
M  V30 2908 C 278.055 1.5224 1.10475 0
M  V30 2909 O 277.413 0.650623 1.69223 0
M  V30 2910 C 277.461 3.59988 -0.209952 0
M  V30 2911 O 276.565 4.04282 0.814235 0
M  V30 2912 H 275.906 0.653829 -0.115775 0
M  V30 2913 H 278.436 1.8098 -0.954326 0
M  V30 2914 H 278.446 4.07979 -0.0418436 0
M  V30 2915 H 277.121 3.98503 -1.1903 0
M  V30 2916 H 275.698 3.6779 0.615234 0
M  V30 2917 N 277.883 0.443576 1.51229 0
M  V30 2918 C 278.846 -0.353132 2.26463 0
M  V30 2919 C 279.846 -0.944338 1.3015 0
M  V30 2920 O 281.036 -0.817813 1.5381 0
M  V30 2921 C 278.168 -1.50023 3.06114 0
M  V30 2922 H 279.361 0.3063 2.98332 0
M  V30 2923 H 276.914 0.196902 1.55055 0
M  V30 2924 H 277.649 -2.19553 2.38677 0
M  V30 2925 H 277.434 -1.08241 3.76864 0
M  V30 2926 H 278.924 -2.06296 3.63087 0
M  V30 2927 N 279.361 -1.56624 0.175154 0
M  V30 2928 C 280.291 -2.21155 -0.749195 0
M  V30 2929 C 281.272 -1.16836 -1.23626 0
M  V30 2930 O 282.457 -1.45277 -1.28873 0
M  V30 2931 C 279.587 -2.8553 -1.97711 0
M  V30 2932 C 278.541 -3.95921 -1.62575 0
M  V30 2933 C 277.867 -4.47365 -2.92864 0
M  V30 2934 C 279.167 -5.15323 -0.850838 0
M  V30 2935 H 280.861 -2.98653 -0.211295 0
M  V30 2936 H 278.407 -1.43651 -0.100188 0
M  V30 2937 H 280.36 -3.2935 -2.62881 0
M  V30 2938 H 279.084 -2.05406 -2.53921 0
M  V30 2939 H 277.743 -3.52762 -0.997719 0
M  V30 2940 H 277.391 -3.64027 -3.47122 0
M  V30 2941 H 277.091 -5.21839 -2.70106 0
M  V30 2942 H 278.615 -4.93873 -3.59056 0
M  V30 2943 H 280.029 -5.55812 -1.40521 0
M  V30 2944 H 278.426 -5.95739 -0.722154 0
M  V30 2945 H 279.496 -4.84661 0.152082 0
M  V30 2946 N 280.839 0.0985539 -1.57292 0
M  V30 2947 C 282.087 0.801092 -1.85545 0
M  V30 2948 C 282.408 1.79438 -0.763353 0
M  V30 2949 O 281.678 1.94763 0.21073 0
M  V30 2950 H 280.258 0.29884 -0.684619 0
M  V30 2951 H 282.92 0.0810064 -1.94732 0
M  V30 2952 H 282.016 1.3338 -2.82163 0
M  V30 2953 N 282.317 1.53212 0.369288 0
M  V30 2954 C 283.542 1.73423 1.1375 0
M  V30 2955 C 283.967 0.460404 1.82378 0
M  V30 2956 O 283.325 -0.585298 1.71592 0
M  V30 2957 C 283.373 2.89769 2.1463 0
M  V30 2958 O 282.477 2.58119 3.21634 0
M  V30 2959 H 281.818 0.576061 0.330227 0
M  V30 2960 H 284.348 2.00083 0.427547 0
M  V30 2961 H 284.358 3.15829 2.58294 0
M  V30 2962 H 283.033 3.8217 1.64071 0
M  V30 2963 H 281.61 2.42864 2.82969 0
M  V30 2964 N 283.795 -0.628877 1.44509 0
M  V30 2965 C 285.042 -1.38839 1.47411 0
M  V30 2966 C 285.37 -1.94202 0.10757 0
M  V30 2967 O 284.625 -1.74243 -0.890947 0
M  V30 2968 C 284.924 -2.56995 2.48371 0
M  V30 2969 C 284.59 -2.19908 3.93639 0
M  V30 2970 C 283.252 -2.09506 4.33198 0
M  V30 2971 C 285.604 -1.9064 4.85083 0
M  V30 2972 C 282.932 -1.68028 5.62124 0
M  V30 2973 C 285.284 -1.50655 6.14399 0
M  V30 2974 C 283.948 -1.38796 6.5291 0
M  V30 2975 H 283.218 -0.508048 0.539414 0
M  V30 2976 H 285.865 -0.712913 1.77735 0
M  V30 2977 H 284.17 -3.29786 2.11538 0
M  V30 2978 H 285.867 -3.15223 2.47861 0
M  V30 2979 H 282.457 -2.28922 3.62343 0
M  V30 2980 H 286.641 -1.97585 4.55273 0
M  V30 2981 H 281.897 -1.57452 5.90778 0
M  V30 2982 H 286.071 -1.27048 6.84713 0
M  V30 2983 H 283.698 -1.06429 7.52713 0
M  V30 2984 N 285.273 -1.31445 -0.869486 0
M  V30 2985 C 286.503 -1.23942 -1.65294 0
M  V30 2986 C 286.911 0.197561 -1.88166 0
M  V30 2987 O 286.254 1.14019 -1.44033 0
M  V30 2988 C 286.316 -1.91385 -3.04322 0
M  V30 2989 C 285.98 -3.40726 -3.04557 0
M  V30 2990 C 286.977 -4.36464 -2.82481 0
M  V30 2991 C 284.662 -3.82425 -3.25663 0
M  V30 2992 C 286.656 -5.71876 -2.8149 0
M  V30 2993 C 284.343 -5.1795 -3.243 0
M  V30 2994 C 285.341 -6.12486 -3.02241 0
M  V30 2995 O 285.029 -7.45534 -3.00724 0
M  V30 2996 H 284.761 -0.429459 -0.522054 0
M  V30 2997 H 287.315 -1.73873 -1.0935 0
M  V30 2998 H 285.545 -1.36004 -3.61994 0
M  V30 2999 H 287.234 -1.77791 -3.64891 0
M  V30 3000 H 288 -4.05576 -2.65956 0
M  V30 3001 H 283.879 -3.09274 -3.41863 0
M  V30 3002 H 287.423 -6.45638 -2.64191 0
M  V30 3003 H 283.32 -5.48473 -3.40365 0
M  V30 3004 H 284.088 -7.54713 -3.16782 0
M  V30 3005 N 286.751 1.08385 -1.14413 0
M  V30 3006 C 287.681 2.17321 -0.854044 0
M  V30 3007 C 288.662 1.69024 0.191049 0
M  V30 3008 O 289.847 1.94141 0.0476779 0
M  V30 3009 C 286.977 3.45719 -0.330983 0
M  V30 3010 C 285.931 4.07409 -1.31155 0
M  V30 3011 C 285.257 5.30762 -0.64778 0
M  V30 3012 C 286.557 4.48665 -2.67388 0
M  V30 3013 H 288.251 2.41845 -1.76498 0
M  V30 3014 H 285.797 1.16233 -0.850051 0
M  V30 3015 H 287.75 4.21241 -0.115645 0
M  V30 3016 H 286.474 3.2075 0.615381 0
M  V30 3017 H 285.133 3.33919 -1.51306 0
M  V30 3018 H 284.781 5.02078 0.304398 0
M  V30 3019 H 284.481 5.72992 -1.30207 0
M  V30 3020 H 286.005 6.08998 -0.441972 0
M  V30 3021 H 287.419 5.15364 -2.51143 0
M  V30 3022 H 285.816 5.01814 -3.29093 0
M  V30 3023 H 286.886 3.60543 -3.24248 0
M  V30 3024 N 288.23 0.939286 1.26551 0
M  V30 3025 C 289.641 0.628782 1.75793 0
M  V30 3026 C 289.992 -0.856046 1.7654 0
M  V30 3027 O 289.117 -1.66994 1.3763 0
M  V30 3028 C 289.712 1.13465 3.19235 0
M  V30 3029 C 288.271 0.874601 3.66098 0
M  V30 3030 C 287.418 1.28667 2.45642 0
M  V30 3031 H 290.369 1.1178 1.12654 0
M  V30 3032 H 290.39 0.487609 3.77363 0
M  V30 3033 H 289.902 2.21535 3.1866 0
M  V30 3034 H 288.003 -0.191793 3.72106 0
M  V30 3035 H 288.116 1.50028 4.55004 0
M  V30 3036 H 286.48 0.705109 2.44745 0
M  V30 3037 H 287.263 2.37625 2.47769 0
M  V30 3038 N 289.708 -1.40897 0.706093 0
M  V30 3039 C 290.638 -2.33418 0.0620085 0
M  V30 3040 C 291.619 -1.52385 -0.755827 0
M  V30 3041 O 292.804 -1.80886 -0.706674 0
M  V30 3042 C 289.934 -3.36293 -0.867445 0
M  V30 3043 C 288.888 -4.27716 -0.155932 0
M  V30 3044 C 288.214 -5.2105 -1.20046 0
M  V30 3045 C 289.514 -5.12944 0.984149 0
M  V30 3046 H 291.208 -2.87527 0.83477 0
M  V30 3047 H 288.754 -1.38249 0.402875 0
M  V30 3048 H 290.707 -3.99949 -1.32735 0
M  V30 3049 H 289.431 -2.80556 -1.67199 0
M  V30 3050 H 288.09 -3.65498 0.284047 0
M  V30 3051 H 287.738 -4.61624 -1.99781 0
M  V30 3052 H 287.438 -5.83056 -0.729328 0
M  V30 3053 H 288.962 -5.87584 -1.66066 0
M  V30 3054 H 290.376 -5.70109 0.604048 0
M  V30 3055 H 288.773 -5.83945 1.38304 0
M  V30 3056 H 289.843 -4.49485 1.81911 0
M  V30 3057 N 291.186 -0.45159 -1.50991 0
M  V30 3058 C 292.149 0.341117 -2.26647 0
M  V30 3059 C 293.149 0.937422 -1.30649 0
M  V30 3060 O 294.339 0.809644 -1.54241 0
M  V30 3061 C 291.471 1.48398 -3.06905 0
M  V30 3062 H 292.664 -0.322117 -2.98165 0
M  V30 3063 H 290.217 -0.205122 -1.54948 0
M  V30 3064 H 290.952 2.18284 -2.39838 0
M  V30 3065 H 290.737 1.06241 -3.77432 0
M  V30 3066 H 292.227 2.04367 -3.64176 0
M  V30 3067 N 292.664 1.56529 -0.183458 0
M  V30 3068 C 293.913 1.96419 0.458511 0
M  V30 3069 C 294.226 1.0727 1.63562 0
M  V30 3070 O 295.432 1.36893 2.34462 0
M  V30 3071 C 293.888 3.49298 0.867122 0
M  V30 3072 C 293.496 4.47092 -0.285057 0
M  V30 3073 C 295.24 3.97983 1.47683 0
M  V30 3074 C 293.147 5.91225 0.143862 0
M  V30 3075 H 292.077 0.733394 0.175071 0
M  V30 3076 H 294.728 1.81448 -0.273624 0
M  V30 3077 H 293.11 3.59731 1.65559 0
M  V30 3078 H 294.284 4.48383 -1.0625 0
M  V30 3079 H 292.599 4.08535 -0.805503 0
M  V30 3080 H 295.196 5.03134 1.80999 0
M  V30 3081 H 295.539 3.41618 2.37914 0
M  V30 3082 H 296.072 3.90617 0.752562 0
M  V30 3083 H 292.811 6.5149 -0.723974 0
M  V30 3084 H 292.331 5.93214 0.886413 0
M  V30 3085 H 294.01 6.44362 0.583628 0
M  V30 3086 N 294.142 -0.090211 1.57342 0
M  V30 3087 C 295.391 -0.791531 1.8552 0
M  V30 3088 C 295.704 -1.79659 0.773441 0
M  V30 3089 O 296.91 -2.54616 0.942497 0
M  V30 3090 C 295.366 -1.45856 3.2902 0
M  V30 3091 C 294.974 -0.493017 4.45279 0
M  V30 3092 C 296.718 -2.14332 3.66418 0
M  V30 3093 C 294.625 -1.16491 5.79814 0
M  V30 3094 H 293.555 -0.299356 0.692027 0
M  V30 3095 H 296.206 -0.0445343 1.83446 0
M  V30 3096 H 294.588 -2.25318 3.2565 0
M  V30 3097 H 295.762 0.270464 4.60006 0
M  V30 3098 H 294.077 0.0863061 4.16311 0
M  V30 3099 H 296.674 -2.65344 4.64216 0
M  V30 3100 H 297.017 -2.93447 2.95287 0
M  V30 3101 H 297.55 -1.41724 3.71698 0
M  V30 3102 H 294.289 -0.41447 6.54188 0
M  V30 3103 H 293.809 -1.8997 5.68921 0
M  V30 3104 H 295.488 -1.69001 6.24538 0
M  V30 3105 N 295.62 -1.53406 -0.361157 0
M  V30 3106 C 296.55 -1.83136 -1.44857 0
M  V30 3107 C 297.531 -0.685174 -1.5569 0
M  V30 3108 O 298.716 -0.93544 -1.70186 0
M  V30 3109 C 295.846 -2.02522 -2.82138 0
M  V30 3110 C 294.8 -3.18302 -2.86126 0
M  V30 3111 C 294.126 -3.22989 -4.26125 0
M  V30 3112 C 295.426 -4.56796 -2.53248 0
M  V30 3113 H 297.12 -2.74201 -1.20226 0
M  V30 3114 H 294.666 -1.31938 -0.576922 0
M  V30 3115 H 296.619 -2.21904 -3.58241 0
M  V30 3116 H 295.343 -1.08172 -3.08166 0
M  V30 3117 H 294.002 -2.98747 -2.12475 0
M  V30 3118 H 293.65 -2.26267 -4.49235 0
M  V30 3119 H 293.35 -4.00781 -4.29708 0
M  V30 3120 H 294.874 -3.44559 -5.04094 0
M  V30 3121 H 296.288 -4.7631 -3.19064 0
M  V30 3122 H 294.685 -5.36862 -2.68141 0
M  V30 3123 H 295.755 -4.61606 -1.48484 0
M  V30 3124 N 297.098 0.621204 -1.44841 0
M  V30 3125 C 298.344 1.3826 -1.48365 0
M  V30 3126 C 298.677 1.93831 -0.119624 0
M  V30 3127 O 297.952 1.74251 0.864111 0
M  V30 3128 C 298.235 2.54058 -2.55199 0
M  V30 3129 C 298.088 2.03772 -4.00995 0
M  V30 3130 C 299.407 3.56225 -2.58442 0
M  V30 3131 H 296.526 0.501374 -0.540179 0
M  V30 3132 H 299.168 0.7015 -1.76576 0
M  V30 3133 H 297.318 3.12162 -2.31274 0
M  V30 3134 H 298.99 1.50423 -4.36086 0
M  V30 3135 H 297.233 1.34876 -4.12299 0
M  V30 3136 H 297.904 2.87185 -4.71411 0
M  V30 3137 H 300.38 3.07939 -2.79844 0
M  V30 3138 H 299.256 4.34756 -3.3508 0
M  V30 3139 H 299.517 4.10949 -1.63013 0
M  V30 3140 N 298.576 1.31904 0.862503 0
M  V30 3141 C 299.509 1.14514 1.97388 0
M  V30 3142 C 300.487 0.0466493 1.62533 0
M  V30 3143 O 301.671 0.204484 1.87388 0
M  V30 3144 C 298.798 0.751347 3.30261 0
M  V30 3145 C 297.844 1.85395 3.84098 0
M  V30 3146 S 298.677 3.46081 4.08642 0
M  V30 3147 C 299.833 3.08655 5.44502 0
M  V30 3148 H 300.066 2.08597 2.11836 0
M  V30 3149 H 297.599 1.16475 1.01356 0
M  V30 3150 H 299.557 0.530901 4.07052 0
M  V30 3151 H 298.218 -0.170493 3.13637 0
M  V30 3152 H 297.411 1.53122 4.80177 0
M  V30 3153 H 297.013 2.02984 3.14123 0
M  V30 3154 H 299.305 2.58012 6.26447 0
M  V30 3155 H 300.248 4.03726 5.81731 0
M  V30 3156 H 300.656 2.45891 5.08132 0
M  V30 3157 N 300.054 -1.07777 1.14986 0
M  V30 3158 C 301.284 -1.83752 0.944402 0
M  V30 3159 C 301.692 -1.8218 -0.51058 0
M  V30 3160 O 301.035 -1.22852 -1.36576 0
M  V30 3161 C 301.097 -3.32128 1.37592 0
M  V30 3162 C 300.761 -3.57425 2.84775 0
M  V30 3163 C 301.758 -3.5173 3.8286 0
M  V30 3164 C 299.443 -3.8523 3.2234 0
M  V30 3165 C 301.437 -3.73482 5.16517 0
M  V30 3166 C 299.124 -4.06634 4.56171 0
M  V30 3167 C 300.122 -4.00754 5.53069 0
M  V30 3168 O 299.81 -4.2159 6.84483 0
M  V30 3169 H 299.542 -0.58673 0.335744 0
M  V30 3170 H 302.096 -1.36982 1.53052 0
M  V30 3171 H 300.326 -3.79686 0.733165 0
M  V30 3172 H 302.015 -3.89555 1.14024 0
M  V30 3173 H 302.781 -3.30256 3.55184 0
M  V30 3174 H 298.66 -3.88923 2.47508 0
M  V30 3175 H 302.204 -3.68808 5.92137 0
M  V30 3176 H 298.101 -4.27593 4.83564 0
M  V30 3177 H 298.869 -4.38961 6.90837 0
M  V30 3178 N 301.532 -0.945985 -1.26051 0
M  V30 3179 C 302.772 -0.603665 -1.95282 0
M  V30 3180 C 303.136 0.842377 -1.72534 0
M  V30 3181 O 304.337 1.29387 -2.35611 0
M  V30 3182 C 302.608 -0.942292 -3.44754 0
M  V30 3183 S 304.167 -0.711242 -4.32997 0
M  V30 3184 H 300.985 -0.222176 -0.675395 0
M  V30 3185 H 303.587 -1.21832 -1.52896 0
M  V30 3186 H 302.291 -1.99203 -3.58812 0
M  V30 3187 H 301.822 -0.317546 -3.92116 0
M  V30 3188 H 303.837 0.422221 -4.944 0
M  V30 3189 N 303.011 1.40521 -0.713556 0
M  V30 3190 C 304.427 1.54839 -0.386907 0
M  V30 3191 C 304.627 1.68532 1.1045 0
M  V30 3192 O 303.683 1.67377 1.89053 0
M  V30 3193 C 304.996 2.77792 -1.15118 0
M  V30 3194 C 306.544 2.91607 -1.13729 0
M  V30 3195 C 307.019 4.1747 -1.88368 0
M  V30 3196 N 308.51 4.24466 -1.85427 0
M  V30 3197 C 309.245 5.20755 -2.40004 0
M  V30 3198 N 308.741 6.22965 -3.03129 0
M  V30 3199 N 310.534 5.1282 -2.30158 0
M  V30 3200 H 302.685 1.29879 -1.68063 0
M  V30 3201 H 304.948 0.627896 -0.710247 0
M  V30 3202 H 304.654 2.73944 -2.20561 0
M  V30 3203 H 304.528 3.6984 -0.741477 0
M  V30 3204 H 306.915 2.94959 -0.0910608 0
M  V30 3205 H 306.996 2.00682 -1.5862 0
M  V30 3206 H 306.64 4.1488 -2.9298 0
M  V30 3207 H 306.57 5.074 -1.40898 0
M  V30 3208 H 309.061 3.51241 -1.3942 0
M  V30 3209 H 309.374 6.92859 -3.42295 0
M  V30 3210 H 307.719 6.23415 -3.07212 0
M  V30 3211 H 310.91 4.31899 -1.80501 0
M  V30 3212 H 311.083 5.87689 -2.72993 0
M  V30 3213 N 304.489 0.459591 1.5075 0
M  V30 3214 C 305.735 -0.0994966 2.02556 0
M  V30 3215 C 306.068 -1.40399 1.3417 0
M  V30 3216 O 305.343 -1.88892 0.463683 0
M  V30 3217 C 305.626 -0.295242 3.58888 0
M  V30 3218 C 305.479 1.02947 4.37861 0
M  V30 3219 C 306.798 -1.05502 4.27267 0
M  V30 3220 H 303.917 -0.034686 0.736183 0
M  V30 3221 H 306.559 0.602938 1.8018 0
M  V30 3222 H 304.709 -0.893563 3.78084 0
M  V30 3223 H 306.381 1.66348 4.30263 0
M  V30 3224 H 304.624 1.62885 4.02058 0
M  V30 3225 H 305.295 0.846281 5.45474 0
M  V30 3226 H 307.771 -0.547993 4.12476 0
M  V30 3227 H 306.647 -1.16077 5.36486 0
M  V30 3228 H 306.908 -2.08875 3.89645 0
M  V30 3229 N 305.967 -1.56429 0.191757 0
M  V30 3230 C 307.197 -2.01574 -0.452928 0
M  V30 3231 C 307.605 -1.07107 -1.55964 0
M  V30 3232 O 306.948 -0.067534 -1.83576 0
M  V30 3233 C 307.01 -3.43121 -1.07278 0
M  V30 3234 C 306.674 -4.56879 -0.105214 0
M  V30 3235 C 307.671 -5.15379 0.684149 0
M  V30 3236 C 305.356 -5.023 0.00489824 0
M  V30 3237 C 307.35 -6.17746 1.57062 0
M  V30 3238 C 305.037 -6.04511 0.894935 0
M  V30 3239 C 306.035 -6.62108 1.67637 0
M  V30 3240 O 305.723 -7.62335 2.55149 0
M  V30 3241 H 305.455 -0.665554 -0.118379 0
M  V30 3242 H 308.009 -2.03245 0.296737 0
M  V30 3243 H 306.239 -3.38425 -1.87097 0
M  V30 3244 H 307.928 -3.72093 -1.62177 0
M  V30 3245 H 308.694 -4.81157 0.609365 0
M  V30 3246 H 304.573 -4.57168 -0.593156 0
M  V30 3247 H 308.117 -6.6263 2.181 0
M  V30 3248 H 304.014 -6.38157 0.970847 0
M  V30 3249 H 304.782 -7.79741 2.48892 0
M  V30 3250 N 307.445 0.0818655 -1.57387 0
M  V30 3251 C 308.691 0.784074 -1.8703 0
M  V30 3252 C 309.024 1.77729 -0.782689 0
M  V30 3253 O 308.299 1.93384 0.208051 0
M  V30 3254 C 308.582 1.50105 -3.27323 0
M  V30 3255 C 308.435 0.524925 -4.46727 0
M  V30 3256 C 309.754 2.44843 -3.65705 0
M  V30 3257 H 306.873 0.283582 -0.680257 0
M  V30 3258 H 309.515 0.0474352 -1.89941 0
M  V30 3259 H 307.665 2.12897 -3.24972 0
M  V30 3260 H 309.337 -0.0970111 -4.61198 0
M  V30 3261 H 307.58 -0.160606 -4.33503 0
M  V30 3262 H 308.251 1.064 -5.41648 0
M  V30 3263 H 310.727 1.92135 -3.69085 0
M  V30 3264 H 309.603 2.92018 -4.64776 0
M  V30 3265 H 309.864 3.29197 -2.95096 0
M  V30 3266 N 308.923 1.53595 0.353017 0
M  V30 3267 C 310.169 1.70638 1.09593 0
M  V30 3268 C 310.502 0.463286 1.88593 0
M  V30 3269 O 309.777 -0.539597 1.86865 0
M  V30 3270 C 310.06 2.96406 2.04489 0
M  V30 3271 C 309.913 4.30901 1.29014 0
M  V30 3272 C 311.232 3.17812 3.0444 0
M  V30 3273 H 308.351 0.620913 0.397034 0
M  V30 3274 H 310.993 1.86254 0.375446 0
M  V30 3275 H 309.143 2.83223 2.65927 0
M  V30 3276 H 310.815 4.55917 0.702638 0
M  V30 3277 H 309.058 4.29741 0.592071 0
M  V30 3278 H 309.729 5.1506 1.98537 0
M  V30 3279 H 312.205 3.30263 2.53112 0
M  V30 3280 H 311.081 4.07223 3.6805 0
M  V30 3281 H 311.342 2.33669 3.75301 0
M  V30 3282 N 310.401 -0.613514 1.45168 0
M  V30 3283 C 311.364 -1.7065 1.53007 0
M  V30 3284 C 312.364 -1.5548 0.410184 0
M  V30 3285 O 313.554 -1.60656 0.673455 0
M  V30 3286 C 310.686 -3.09875 1.42093 0
M  V30 3287 H 311.879 -1.65068 2.50385 0
M  V30 3288 H 309.432 -0.828728 1.32521 0
M  V30 3289 H 310.167 -3.21039 0.458769 0
M  V30 3290 H 309.952 -3.22293 2.23315 0
M  V30 3291 H 311.442 -3.895 1.50598 0
M  V30 3292 N 311.879 -1.3236 -0.855495 0
M  V30 3293 C 312.826 -1.21225 -1.964 0
M  V30 3294 C 313.796 -0.0946204 -1.6583 0
M  V30 3295 O 314.981 -0.27002 -1.8888 0
M  V30 3296 C 312.121 -0.940419 -3.32039 0
M  V30 3297 C 311.234 -2.14276 -3.75113 0
M  V30 3298 C 310.369 -1.80648 -4.9954 0
M  V30 3299 C 309.408 -2.97208 -5.35102 0
M  V30 3300 N 308.545 -2.63678 -6.50706 0
M  V30 3301 H 313.385 -2.16042 -2.05255 0
M  V30 3302 H 310.922 -1.07451 -1.00463 0
M  V30 3303 H 312.88 -0.763311 -4.10158 0
M  V30 3304 H 311.51 -0.0290413 -3.22787 0
M  V30 3305 H 310.562 -2.43017 -2.92655 0
M  V30 3306 H 311.874 -3.01468 -3.97389 0
M  V30 3307 H 311.028 -1.59484 -5.85363 0
M  V30 3308 H 309.767 -0.906678 -4.79198 0
M  V30 3309 H 308.772 -3.19004 -4.47791 0
M  V30 3310 H 309.997 -3.87918 -5.57401 0
M  V30 3311 H 307.943 -1.76238 -6.31883 0
M  V30 3312 H 307.86 -3.444 -6.72997 0
M  V30 3313 H 309.128 -2.45942 -7.39684 0
M  V30 3314 N 313.357 1.07166 -1.15556 0
M  V30 3315 C 314.773 1.31899 -0.898603 0
M  V30 3316 C 314.973 1.96333 0.453383 0
M  V30 3317 O 314.029 2.22438 1.19489 0
M  V30 3318 C 315.342 2.20826 -2.04099 0
M  V30 3319 C 316.89 2.34269 -2.07574 0
M  V30 3320 C 317.365 3.26546 -3.21141 0
M  V30 3321 N 318.856 3.34127 -3.20801 0
M  V30 3322 C 319.591 4.05595 -4.05315 0
M  V30 3323 N 319.087 4.79661 -4.99897 0
M  V30 3324 N 320.88 4.01555 -3.93332 0
M  V30 3325 H 313.031 0.637302 -2.02613 0
M  V30 3326 H 315.294 0.343468 -0.883591 0
M  V30 3327 H 315 1.80744 -3.01703 0
M  V30 3328 H 314.874 3.21364 -1.97496 0
M  V30 3329 H 317.261 2.73603 -1.10568 0
M  V30 3330 H 317.342 1.33429 -2.18244 0
M  V30 3331 H 316.986 2.87931 -4.184 0
M  V30 3332 H 316.916 4.27345 -3.07708 0
M  V30 3333 H 319.407 2.81336 -2.52306 0
M  V30 3334 H 319.72 5.31694 -5.60822 0
M  V30 3335 H 318.065 4.78671 -5.03884 0
M  V30 3336 H 321.256 3.42806 -3.18751 0
M  V30 3337 H 321.429 4.56987 -4.5942 0
M  V30 3338 N 314.835 0.952656 1.25548 0
M  V30 3339 C 315.745 0.47782 2.29682 0
M  V30 3340 C 316.761 -0.453859 1.67977 0
M  V30 3341 O 317.937 -0.330587 1.98668 0
M  V30 3342 C 315.002 -0.238655 3.45878 0
M  V30 3343 C 314.063 0.730994 4.23031 0
M  V30 3344 C 313.296 0.0486165 5.33678 0
M  V30 3345 O 313.519 -1.16612 5.58353 0
M  V30 3346 O 312.453 0.733152 5.97418 0
M  V30 3347 H 316.279 1.34312 2.72386 0
M  V30 3348 H 313.864 0.719026 1.30959 0
M  V30 3349 H 315.746 -0.641774 4.16484 0
M  V30 3350 H 314.421 -1.07916 3.05181 0
M  V30 3351 H 313.328 1.18428 3.5486 0
M  V30 3352 H 314.661 1.53946 4.67506 0
M  V30 3353 N 316.313 -1.40141 0.720998 0
M  V30 3354 C 317.538 -2.05618 0.271258 0
M  V30 3355 C 317.963 -1.53978 -1.08039 0
M  V30 3356 O 317.321 -0.677463 -1.68167 0
M  V30 3357 C 317.369 -3.59609 0.267197 0
M  V30 3358 O 316.473 -4.05526 -0.749814 0
M  V30 3359 H 315.814 -0.651904 0.126162 0
M  V30 3360 H 318.344 -1.79439 0.982997 0
M  V30 3361 H 318.354 -4.0786 0.106744 0
M  V30 3362 H 317.029 -3.96559 1.25354 0
M  V30 3363 H 315.606 -3.68722 -0.556644 0
M  V30 3364 N 317.792 -0.46758 -1.50504 0
M  V30 3365 C 319.208 -0.121533 -1.59137 0
M  V30 3366 C 319.408 1.3717 -1.47603 0
M  V30 3367 O 318.464 2.14464 -1.33272 0
M  V30 3368 C 319.777 -0.6686 -2.93173 0
M  V30 3369 C 321.325 -0.631716 -3.06559 0
M  V30 3370 C 321.8 -1.15627 -4.43164 0
M  V30 3371 N 323.291 -1.11553 -4.49567 0
M  V30 3372 C 324.026 -1.49195 -5.5365 0
M  V30 3373 N 323.522 -1.94269 -6.65005 0
M  V30 3374 N 325.315 -1.4082 -5.44175 0
M  V30 3375 H 317.466 -1.4388 -1.56245 0
M  V30 3376 H 319.729 -0.594784 -0.738198 0
M  V30 3377 H 319.435 -1.71453 -3.07078 0
M  V30 3378 H 319.309 -0.11021 -3.77039 0
M  V30 3379 H 321.696 0.405297 -2.92304 0
M  V30 3380 H 321.777 -1.22687 -2.24458 0
M  V30 3381 H 321.421 -2.1919 -4.58168 0
M  V30 3382 H 321.351 -0.537365 -5.23851 0
M  V30 3383 H 323.842 -0.784895 -3.69659 0
M  V30 3384 H 324.155 -2.21148 -7.40482 0
M  V30 3385 H 322.5 -1.98219 -6.66134 0
M  V30 3386 H 325.691 -1.0545 -4.56068 0
M  V30 3387 H 325.864 -1.70481 -6.25172 0
M  V30 3388 N 319.27 1.56325 -0.20005 0
M  V30 3389 C 320.518 1.97329 0.436547 0
M  V30 3390 C 320.839 1.08826 1.61808 0
M  V30 3391 O 320.109 0.160604 1.95241 0
M  V30 3392 H 318.689 0.728714 0.164272 0
M  V30 3393 H 321.351 1.92761 -0.287937 0
M  V30 3394 H 320.447 3.02264 0.777353 0
M  V30 3395 N 320.748 -0.0735177 1.57428 0
M  V30 3396 C 321.678 -1.0879 2.06608 0
M  V30 3397 C 322.659 -1.40473 0.959237 0
M  V30 3398 O 323.844 -1.5013 1.23185 0
M  V30 3399 C 320.974 -2.40183 2.50857 0
M  V30 3400 C 319.928 -2.22858 3.65402 0
M  V30 3401 C 319.254 -3.59619 3.957 0
M  V30 3402 C 320.554 -1.65123 4.95511 0
M  V30 3403 H 322.248 -0.678673 2.91607 0
M  V30 3404 H 319.794 -0.325013 1.40284 0
M  V30 3405 H 321.747 -3.11437 2.83874 0
M  V30 3406 H 320.471 -2.83083 1.62885 0
M  V30 3407 H 319.13 -1.54045 3.32664 0
M  V30 3408 H 318.778 -4.00086 3.04861 0
M  V30 3409 H 318.478 -3.48866 4.72828 0
M  V30 3410 H 320.002 -4.32306 4.31212 0
M  V30 3411 H 321.416 -2.26241 5.26771 0
M  V30 3412 H 319.813 -1.65071 5.7695 0
M  V30 3413 H 320.883 -0.612559 4.81015 0
M  V30 3414 N 322.226 -1.5378 -0.344866 0
M  V30 3415 C 323.173 -1.81676 -1.42346 0
M  V30 3416 C 324.143 -0.662376 -1.52321 0
M  V30 3417 O 325.328 -0.906675 -1.67881 0
M  V30 3418 C 322.468 -2.03087 -2.79015 0
M  V30 3419 C 321.581 -3.30799 -2.77842 0
M  V30 3420 C 320.716 -3.42285 -4.0622 0
M  V30 3421 C 319.755 -4.6395 -3.9927 0
M  V30 3422 N 318.892 -4.72477 -5.19336 0
M  V30 3423 H 323.732 -2.73703 -1.17858 0
M  V30 3424 H 321.269 -1.35568 -0.570949 0
M  V30 3425 H 323.227 -2.1349 -3.58438 0
M  V30 3426 H 321.857 -1.14375 -3.01858 0
M  V30 3427 H 320.909 -3.29244 -1.90533 0
M  V30 3428 H 322.221 -4.20314 -2.68584 0
M  V30 3429 H 321.375 -3.52113 -4.94066 0
M  V30 3430 H 320.114 -2.50823 -4.18258 0
M  V30 3431 H 319.119 -4.54201 -3.09809 0
M  V30 3432 H 320.344 -5.56775 -3.88817 0
M  V30 3433 H 318.29 -3.83924 -5.3192 0
M  V30 3434 H 318.207 -5.55927 -5.12329 0
M  V30 3435 H 319.475 -4.86613 -6.08957 0
M  V30 3436 N 323.704 0.605807 -1.45491 0
M  V30 3437 C 324.929 1.39625 -1.53361 0
M  V30 3438 C 325.354 1.87351 -0.167645 0
M  V30 3439 O 324.712 1.60243 0.848051 0
M  V30 3440 C 324.76 2.57559 -2.5238 0
M  V30 3441 O 323.864 3.58248 -2.04285 0
M  V30 3442 H 323.205 0.416771 -0.516912 0
M  V30 3443 H 325.735 0.737103 -1.90861 0
M  V30 3444 H 325.745 3.0478 -2.71244 0
M  V30 3445 H 324.42 2.22171 -3.51586 0
M  V30 3446 H 322.997 3.17664 -1.95305 0
M  V30 3447 N 325.182 1.32811 0.848464 0
M  V30 3448 C 326.43 1.23479 1.59991 0
M  V30 3449 C 326.751 -0.201853 1.93952 0
M  V30 3450 O 326.021 -1.12818 1.60153 0
M  V30 3451 H 324.601 0.454034 0.593179 0
M  V30 3452 H 327.263 1.66412 1.01455 0
M  V30 3453 H 326.359 1.82178 2.53412 0
M  V30 3454 N 326.66 -1.06551 1.16123 0
M  V30 3455 C 327.59 -2.15935 0.88851 0
M  V30 3456 C 328.571 -1.69306 -0.164135 0
M  V30 3457 O 329.756 -1.94193 -0.0167857 0
M  V30 3458 C 326.886 -3.45149 0.385942 0
M  V30 3459 C 325.84 -4.05271 1.3762 0
M  V30 3460 C 325.166 -5.29664 0.732137 0
M  V30 3461 C 326.466 -4.44355 2.74493 0
M  V30 3462 H 328.16 -2.39006 1.80323 0
M  V30 3463 H 325.706 -1.14866 0.868435 0
M  V30 3464 H 327.659 -4.21004 0.182647 0
M  V30 3465 H 326.383 -3.21689 -0.564274 0
M  V30 3466 H 325.042 -3.3147 1.56599 0
M  V30 3467 H 324.69 -5.02499 -0.224483 0
M  V30 3468 H 324.39 -5.70848 1.39307 0
M  V30 3469 H 325.914 -6.08218 0.538802 0
M  V30 3470 H 327.328 -5.11303 2.59311 0
M  V30 3471 H 325.725 -4.96515 3.37035 0
M  V30 3472 H 326.795 -3.55339 3.29943 0
M  V30 3473 N 328.138 -0.959301 -1.25041 0
M  V30 3474 C 329.085 -0.482057 -2.2571 0
M  V30 3475 C 330.055 0.467939 -1.59372 0
M  V30 3476 O 331.24 0.380159 -1.86974 0
M  V30 3477 C 328.38 0.229623 -3.44335 0
M  V30 3478 C 327.493 -0.758156 -4.25295 0
M  V30 3479 C 326.628 -0.0234403 -5.31195 0
M  V30 3480 C 325.667 -1.00184 -6.03846 0
M  V30 3481 N 324.804 -0.29769 -7.01469 0
M  V30 3482 H 329.644 -1.34538 -2.65901 0
M  V30 3483 H 327.181 -0.674592 -1.3072 0
M  V30 3484 H 329.139 0.658856 -4.11965 0
M  V30 3485 H 327.769 1.05696 -3.05005 0
M  V30 3486 H 326.821 -1.30586 -3.57284 0
M  V30 3487 H 328.133 -1.50458 -4.75567 0
M  V30 3488 H 327.287 0.464201 -6.04922 0
M  V30 3489 H 326.026 0.755741 -4.81809 0
M  V30 3490 H 325.031 -1.50044 -5.2893 0
M  V30 3491 H 326.256 -1.78133 -6.55321 0
M  V30 3492 H 324.202 0.462668 -6.54366 0
M  V30 3493 H 324.119 -0.983128 -7.4958 0
M  V30 3494 H 325.387 0.16826 -7.79318 0
M  V30 3495 N 329.616 1.39756 -0.72842 0
M  V30 3496 C 330.844 2.04948 -0.283528 0
M  V30 3497 C 331.259 1.54908 1.0793 0
M  V30 3498 O 330.616 0.711135 1.68075 0
M  V30 3499 C 330.667 3.60498 -0.268957 0
M  V30 3500 O 330.388 4.08695 -1.57798 0
M  V30 3501 C 331.889 4.4288 0.192912 0
M  V30 3502 H 329.109 0.659243 -0.125056 0
M  V30 3503 H 331.653 1.78927 -0.990226 0
M  V30 3504 H 329.808 3.85444 0.388801 0
M  V30 3505 H 330.222 5.02977 -1.48709 0
M  V30 3506 H 331.696 5.51791 0.151952 0
M  V30 3507 H 332.173 4.21418 1.23708 0
M  V30 3508 H 332.779 4.23069 -0.435039 0
M  V30 3509 N 331.094 0.475555 1.50254 0
M  V30 3510 C 332.371 -0.139685 1.95101 0
M  V30 3511 C 332.751 -1.56555 1.41611 0
M  V30 3512 O 332.099 -2.19956 0.618993 0
M  V30 3513 C 332.309 -0.0784298 3.48912 0
M  V30 3514 C 333.657 -0.265095 4.23772 0
M  V30 3515 O 334.681 -0.154808 3.55863 0
M  V30 3516 O 333.54 -0.488327 5.44314 0
M  V30 3517 H 330.634 -0.109236 0.819754 0
M  V30 3518 H 333.18 0.536276 1.61004 0
M  V30 3519 H 331.952 0.916918 3.80405 0
M  V30 3520 H 331.575 -0.795655 3.89558 0
M  V30 3521 N 332.573 -1.56217 0.208337 0
M  V30 3522 C 333.52 -2.19699 -0.707192 0
M  V30 3523 C 334.49 -1.14836 -1.20008 0
M  V30 3524 O 335.675 -1.4314 -1.26157 0
M  V30 3525 C 332.815 -2.87061 -1.91546 0
M  V30 3526 C 331.928 -4.06483 -1.46271 0
M  V30 3527 C 331.063 -4.61665 -2.62752 0
M  V30 3528 C 330.102 -5.73417 -2.14147 0
M  V30 3529 N 329.239 -6.22948 -3.23853 0
M  V30 3530 H 334.079 -2.97575 -0.159111 0
M  V30 3531 H 331.616 -1.46948 -0.0667874 0
M  V30 3532 H 333.574 -3.24294 -2.62468 0
M  V30 3533 H 332.204 -2.11725 -2.43664 0
M  V30 3534 H 331.256 -3.74825 -0.648886 0
M  V30 3535 H 332.568 -4.87271 -1.06622 0
M  V30 3536 H 331.722 -5.01272 -3.41776 0
M  V30 3537 H 330.461 -3.80013 -3.05682 0
M  V30 3538 H 329.466 -5.33326 -1.33581 0
M  V30 3539 H 330.691 -6.56897 -1.72232 0
M  V30 3540 H 328.637 -5.44213 -3.6629 0
M  V30 3541 H 328.554 -6.98823 -2.88414 0
M  V30 3542 H 329.822 -6.6721 -4.03052 0
M  V30 3543 N 334.051 0.0651679 -1.57465 0
M  V30 3544 C 335.276 0.779605 -1.9219 0
M  V30 3545 C 335.701 1.69988 -0.805333 0
M  V30 3546 O 335.059 1.79685 0.241435 0
M  V30 3547 C 335.107 1.54364 -3.2589 0
M  V30 3548 O 334.211 2.65474 -3.1559 0
M  V30 3549 H 333.552 0.212249 -0.629163 0
M  V30 3550 H 336.082 0.0314294 -2.04576 0
M  V30 3551 H 336.092 1.92146 -3.59922 0
M  V30 3552 H 334.767 0.868457 -4.06732 0
M  V30 3553 H 333.344 2.30501 -2.93128 0
M  V30 3554 N 335.529 1.53961 0.336706 0
M  V30 3555 C 336.806 1.62171 1.09361 0
M  V30 3556 C 337.186 0.447263 2.06307 0
M  V30 3557 O 336.534 -0.559802 2.21537 0
M  V30 3558 C 336.744 2.98565 1.80721 0
M  V30 3559 C 338.092 3.54157 2.34218 0
M  V30 3560 O 339.116 3.00784 1.90807 0
M  V30 3561 O 337.975 4.47528 3.13657 0
M  V30 3562 H 335.069 0.6562 0.503319 0
M  V30 3563 H 337.615 1.66307 0.33765 0
M  V30 3564 H 336.387 3.75482 1.10132 0
M  V30 3565 H 336.01 2.9805 2.63158 0
M  V30 3566 N 337.007 -0.598083 1.45811 0
M  V30 3567 C 338.232 -1.3881 1.54099 0
M  V30 3568 C 338.657 -1.8726 0.177578 0
M  V30 3569 O 338.015 -1.6069 -0.839541 0
M  V30 3570 C 338.063 -2.56217 2.53743 0
M  V30 3571 O 337.167 -3.5716 2.06182 0
M  V30 3572 H 336.508 -0.414024 0.519115 0
M  V30 3573 H 339.038 -0.726971 1.91249 0
M  V30 3574 H 339.048 -3.03337 2.72856 0
M  V30 3575 H 337.723 -2.20303 3.5276 0
M  V30 3576 H 336.3 -3.16624 1.96987 0
M  V30 3577 N 338.485 -1.33259 -0.841409 0
M  V30 3578 C 339.395 -1.25332 -1.98316 0
M  V30 3579 C 340.411 -0.164364 -1.73222 0
M  V30 3580 O 341.587 -0.387486 -1.97637 0
M  V30 3581 C 338.652 -0.990078 -3.32262 0
M  V30 3582 C 337.713 -2.16879 -3.70489 0
M  V30 3583 C 336.946 -1.91801 -4.98044 0
M  V30 3584 O 337.169 -0.867075 -5.63771 0
M  V30 3585 O 336.103 -2.78267 -5.33714 0
M  V30 3586 H 339.929 -2.21344 -2.07944 0
M  V30 3587 H 337.514 -1.1328 -0.974058 0
M  V30 3588 H 339.396 -0.860321 -4.12524 0
M  V30 3589 H 338.071 -0.0602155 -3.23644 0
M  V30 3590 H 336.978 -2.35407 -2.90748 0
M  V30 3591 H 338.311 -3.0819 -3.8377 0
M  V30 3592 N 339.963 1.05934 -1.16686 0
M  V30 3593 C 340.895 2.13468 -0.834503 0
M  V30 3594 C 341.908 1.62013 0.15984 0
M  V30 3595 O 343.097 1.7838 -0.0654228 0
M  V30 3596 C 340.197 3.3817 -0.222361 0
M  V30 3597 C 339.37 4.18928 -1.25771 0
M  V30 3598 C 338.429 5.21985 -0.664703 0
M  V30 3599 O 337.455 5.53334 -1.33453 0
M  V30 3600 N 338.657 5.77919 0.546834 0
M  V30 3601 H 341.422 2.42578 -1.75999 0
M  V30 3602 H 338.983 1.21967 -1.06469 0
M  V30 3603 H 340.975 4.04266 0.187472 0
M  V30 3604 H 339.545 3.06655 0.606758 0
M  V30 3605 H 338.765 3.48433 -1.84358 0
M  V30 3606 H 340.053 4.69687 -1.95631 0
M  V30 3607 H 339.451 5.54721 1.10912 0
M  V30 3608 H 338.008 6.45573 0.898829 0
M  V30 3609 N 341.441 0.965919 1.2453 0
M  V30 3610 C 342.687 0.62776 1.92839 0
M  V30 3611 C 343.02 -0.834694 1.75347 0
M  V30 3612 O 342.295 -1.60031 1.10546 0
M  V30 3613 C 342.578 1.00109 3.45905 0
M  V30 3614 C 342.431 2.52011 3.72573 0
M  V30 3615 C 343.75 0.53435 4.36844 0
M  V30 3616 H 340.869 0.229537 0.700344 0
M  V30 3617 H 343.511 1.2046 1.46933 0
M  V30 3618 H 341.661 0.510238 3.85135 0
M  V30 3619 H 343.333 3.08559 3.42912 0
M  V30 3620 H 341.576 2.95287 3.17786 0
M  V30 3621 H 342.247 2.73183 4.79661 0
M  V30 3622 H 344.723 0.955565 4.04979 0
M  V30 3623 H 343.599 0.824152 5.42678 0
M  V30 3624 H 343.86 -0.565589 4.38467 0
M  V30 3625 N 342.919 -1.39368 0.735821 0
M  V30 3626 C 344.147 -2.04795 0.294393 0
M  V30 3627 C 344.562 -1.55478 -1.07107 0
M  V30 3628 O 343.919 -0.720038 -1.67695 0
M  V30 3629 C 343.97 -3.6035 0.288071 0
M  V30 3630 O 343.691 -4.07852 1.59963 0
M  V30 3631 C 345.192 -4.42976 -0.169422 0
M  V30 3632 H 342.412 -0.658571 0.128551 0
M  V30 3633 H 344.956 -1.78399 0.999701 0
M  V30 3634 H 343.111 -3.85645 -0.368355 0
M  V30 3635 H 343.525 -5.02181 1.51375 0
M  V30 3636 H 344.999 -5.51864 -0.122687 0
M  V30 3637 H 345.476 -4.22068 -1.21472 0
M  V30 3638 H 346.082 -4.22832 0.457469 0
M  V30 3639 N 344.397 -0.483516 -1.5 0
M  V30 3640 C 345.327 0.293829 -2.31644 0
M  V30 3641 C 346.308 0.978864 -1.39112 0
M  V30 3642 O 347.493 0.973644 -1.68029 0
M  V30 3643 C 344.623 1.36897 -3.19181 0
M  V30 3644 C 343.577 0.804833 -4.20365 0
M  V30 3645 C 342.903 1.9792 -4.96721 0
M  V30 3646 C 344.203 -0.192313 -5.21946 0
M  V30 3647 H 345.897 -0.387616 -2.9688 0
M  V30 3648 H 343.443 -0.187856 -1.42769 0
M  V30 3649 H 345.396 1.92037 -3.751 0
M  V30 3650 H 344.12 2.07936 -2.51853 0
M  V30 3651 H 342.779 0.275319 -3.65565 0
M  V30 3652 H 342.427 2.67686 -4.25856 0
M  V30 3653 H 342.127 1.60789 -5.65173 0
M  V30 3654 H 343.651 2.53526 -5.55479 0
M  V30 3655 H 345.065 0.270333 -5.72662 0
M  V30 3656 H 343.462 -0.478543 -5.98189 0
M  V30 3657 H 344.532 -1.11409 -4.71928 0
M  V30 3658 N 345.875 1.56104 -0.216619 0
M  V30 3659 C 347.291 1.58995 0.13886 0
M  V30 3660 C 347.491 1.23333 1.59346 0
M  V30 3661 O 346.547 0.966234 2.33281 0
M  V30 3662 C 347.86 3.00143 -0.182968 0
M  V30 3663 C 349.408 3.12751 -0.124807 0
M  V30 3664 C 349.883 4.56068 -0.420241 0
M  V30 3665 N 351.374 4.61723 -0.369634 0
M  V30 3666 C 352.109 5.70542 -0.571789 0
M  V30 3667 N 351.605 6.87744 -0.835453 0
M  V30 3668 N 353.398 5.59831 -0.504563 0
M  V30 3669 H 345.549 1.77562 -1.16557 0
M  V30 3670 H 347.812 0.825091 -0.466828 0
M  V30 3671 H 347.518 3.30871 -1.19237 0
M  V30 3672 H 347.392 3.73813 0.504367 0
M  V30 3673 H 349.779 2.81822 0.875223 0
M  V30 3674 H 349.86 2.41421 -0.845544 0
M  V30 3675 H 349.504 4.87713 -1.41769 0
M  V30 3676 H 349.434 5.25617 0.321631 0
M  V30 3677 H 351.925 3.77502 -0.173338 0
M  V30 3678 H 352.238 7.66587 -0.977938 0
M  V30 3679 H 350.583 6.895 -0.872592 0
M  V30 3680 H 353.774 4.67145 -0.298842 0
M  V30 3681 H 353.947 6.44573 -0.665519 0
M  V30 3682 N 347.353 -0.0568162 1.57498 0
M  V30 3683 C 348.602 -0.752001 1.87157 0
M  V30 3684 C 348.915 -1.77978 0.811375 0
M  V30 3685 O 350.121 -2.52559 0.996293 0
M  V30 3686 C 348.577 -1.38844 3.3204 0
M  V30 3687 C 348.185 -0.398456 4.46225 0
M  V30 3688 C 349.929 -2.06512 3.70882 0
M  V30 3689 C 347.836 -1.04166 5.82154 0
M  V30 3690 H 346.766 -0.28461 0.698222 0
M  V30 3691 H 349.417 -0.00561272 1.83499 0
M  V30 3692 H 347.799 -2.1836 3.30356 0
M  V30 3693 H 348.973 0.367977 4.59328 0
M  V30 3694 H 347.288 0.174592 4.16034 0
M  V30 3695 H 349.885 -2.55437 4.6974 0
M  V30 3696 H 350.228 -2.87117 3.01445 0
M  V30 3697 H 350.761 -1.33808 3.7462 0
M  V30 3698 H 347.5 -0.275614 6.5492 0
M  V30 3699 H 347.02 -1.7786 5.72823 0
M  V30 3700 H 348.699 -1.55715 6.27982 0
M  V30 3701 N 348.832 -1.54138 -0.328536 0
M  V30 3702 C 349.782 -1.79557 -1.4051 0
M  V30 3703 C 350.766 -0.651373 -1.47126 0
M  V30 3704 O 351.958 -0.911226 -1.51742 0
M  V30 3705 C 349.087 -2.02196 -2.77438 0
M  V30 3706 C 348.173 -3.22724 -2.75155 0
M  V30 3707 N 348.564 -4.43881 -2.42494 0
M  V30 3708 C 346.862 -3.24196 -3.06289 0
M  V30 3709 C 347.563 -5.25797 -2.48822 0
M  V30 3710 N 346.539 -4.62862 -2.8506 0
M  V30 3711 H 350.341 -2.70814 -1.1418 0
M  V30 3712 H 347.855 -1.53265 -0.536991 0
M  V30 3713 H 349.852 -2.18546 -3.55026 0
M  V30 3714 H 348.512 -1.12191 -3.04702 0
M  V30 3715 H 349.523 -4.70969 -2.15428 0
M  V30 3716 H 346.2 -2.44208 -3.38627 0
M  V30 3717 H 347.59 -6.32535 -2.26603 0
M  V30 3718 N 350.31 0.590341 -1.46126 0
M  V30 3719 C 351.726 0.912917 -1.30912 0
M  V30 3720 C 351.926 1.99616 -0.274893 0
M  V30 3721 O 350.982 2.50397 0.325197 0
M  V30 3722 C 352.295 1.3375 -2.69317 0
M  V30 3723 C 353.843 1.45077 -2.77348 0
M  V30 3724 C 354.318 1.90904 -4.16317 0
M  V30 3725 N 355.809 1.9811 -4.18696 0
M  V30 3726 C 356.544 2.34828 -5.23109 0
M  V30 3727 N 356.04 2.70393 -6.37856 0
M  V30 3728 N 357.833 2.35317 -5.10473 0
M  V30 3729 H 349.984 -0.125358 -2.1203 0
M  V30 3730 H 352.247 0.00658481 -0.947977 0
M  V30 3731 H 351.953 0.615614 -3.4627 0
M  V30 3732 H 351.827 2.30058 -2.9892 0
M  V30 3733 H 354.214 2.16353 -2.00687 0
M  V30 3734 H 354.295 0.4704 -2.51438 0
M  V30 3735 H 353.939 1.20209 -4.9347 0
M  V30 3736 H 353.869 2.89886 -4.39629 0
M  V30 3737 H 356.36 1.73146 -3.359 0
M  V30 3738 H 356.673 2.97341 -7.13308 0
M  V30 3739 H 355.018 2.68048 -6.41229 0
M  V30 3740 H 358.209 2.0695 -4.19868 0
M  V30 3741 H 358.382 2.63605 -5.9196 0
M  V30 3742 N 351.788 1.33704 0.83433 0
M  V30 3743 C 352.735 1.24335 1.94447 0
M  V30 3744 C 353.705 0.120991 1.65659 0
M  V30 3745 O 354.89 0.300035 1.88426 0
M  V30 3746 C 352.03 0.993124 3.30501 0
M  V30 3747 C 351.143 2.20217 3.71657 0
M  V30 3748 C 350.278 1.88572 4.96602 0
M  V30 3749 C 349.317 3.05683 5.30306 0
M  V30 3750 N 348.454 2.73997 6.46429 0
M  V30 3751 H 353.294 2.1928 2.01792 0
M  V30 3752 H 350.831 1.09035 0.987404 0
M  V30 3753 H 352.789 0.828467 4.08892 0
M  V30 3754 H 351.419 0.0803902 3.227 0
M  V30 3755 H 350.471 2.47642 2.88752 0
M  V30 3756 H 351.783 3.07752 3.92543 0
M  V30 3757 H 350.937 1.68776 5.82752 0
M  V30 3758 H 349.676 0.982799 4.77695 0
M  V30 3759 H 348.681 3.26088 4.42659 0
M  V30 3760 H 349.906 3.96737 5.51159 0
M  V30 3761 H 347.852 1.86268 6.28999 0
M  V30 3762 H 347.769 3.55064 6.67432 0
M  V30 3763 H 349.037 2.57679 7.35678 0
M  V30 3764 N 353.266 -1.05314 1.17247 0
M  V30 3765 C 354.214 -2.15137 0.884238 0
M  V30 3766 C 355.208 -1.68729 -0.15063 0
M  V30 3767 O 356.414 -1.8 -0.00366673 0
M  V30 3768 H 352.789 -0.702471 0.2684 0
M  V30 3769 H 354.76 -2.36652 1.81764 0
M  V30 3770 C 353.509 -3.45243 0.412659 0
M  V30 3771 H 352.832 -3.81352 1.20043 0
M  V30 3772 H 354.272 -4.23263 0.249858 0
M  V30 3773 C 352.731 -3.25487 -0.86948 0
M  V30 3774 O 353.261 -3.51938 -1.93655 0
M  V30 3775 N 351.467 -2.78875 -0.817147 0
M  V30 3776 H 351.014 -2.57549 0.0514211 0
M  V30 3777 H 350.972 -2.66036 -1.67547 0
M  V30 3778 N 354.744 -0.972509 -1.24016 0
M  V30 3779 C 355.707 -0.511403 -2.23422 0
M  V30 3780 C 356.707 0.394679 -1.55881 0
M  V30 3781 O 357.897 0.189469 -1.73167 0
M  V30 3782 C 355.029 0.258769 -3.39916 0
M  V30 3783 H 356.222 -1.39024 -2.6573 0
M  V30 3784 H 353.775 -0.757585 -1.36713 0
M  V30 3785 H 354.51 1.1545 -3.03054 0
M  V30 3786 H 354.295 -0.391522 -3.9014 0
M  V30 3787 H 355.785 0.570244 -4.13688 0
M  V30 3788 N 356.222 1.38976 -0.743202 0
M  V30 3789 C 357.633 1.83123 -0.363732 0
M  V30 3790 C 357.984 1.6205 1.10609 0
M  V30 3791 O 357.109 1.11606 1.854 0
M  V30 3792 C 357.704 3.32439 -0.653408 0
M  V30 3793 C 356.263 3.74974 -0.327338 0
M  V30 3794 C 355.41 2.61878 -0.911875 0
M  V30 3795 H 358.361 1.27852 -0.940191 0
M  V30 3796 H 358.382 3.80432 0.0720031 0
M  V30 3797 H 357.894 3.47745 -1.72323 0
M  V30 3798 H 355.995 3.65252 0.736314 0
M  V30 3799 H 356.108 4.72106 -0.815631 0
M  V30 3800 H 354.472 2.52448 -0.337944 0
M  V30 3801 H 355.255 2.79987 -1.98651 0
M  V30 3802 N 357.7 0.491464 1.49741 0
M  V30 3803 C 358.663 -0.280906 2.27472 0
M  V30 3804 C 359.663 -0.902454 1.33088 0
M  V30 3805 O 360.853 -0.768465 1.56334 0
M  V30 3806 C 357.985 -1.40209 3.10732 0
M  V30 3807 H 359.178 0.401056 2.97206 0
M  V30 3808 H 356.731 0.246131 1.5435 0
M  V30 3809 H 357.466 -2.11849 2.45541 0
M  V30 3810 H 357.251 -0.961969 3.80117 0
M  V30 3811 H 358.741 -1.9464 3.69466 0
M  V30 3812 N 359.178 -1.55987 0.224894 0
M  V30 3813 C 360.426 -1.97998 -0.405099 0
M  V30 3814 C 360.747 -1.11387 -1.60056 0
M  V30 3815 O 360.017 -0.191645 -1.9496 0
M  V30 3816 H 358.597 -0.731235 -0.152658 0
M  V30 3817 H 361.259 -1.92279 0.318567 0
M  V30 3818 H 360.355 -3.03463 -0.729167 0
M  V30 3819 N 360.656 0.0484629 -1.57525 0
M  V30 3820 C 361.904 0.741657 -1.88 0
M  V30 3821 C 362.225 1.76918 -0.820054 0
M  V30 3822 O 361.495 1.95335 0.148661 0
M  V30 3823 H 360.075 0.276908 -0.69378 0
M  V30 3824 H 362.737 0.019013 -1.94891 0
M  V30 3825 H 361.833 1.24336 -2.86264 0
M  V30 3826 N 362.134 1.5431 0.320358 0
M  V30 3827 C 363.359 1.76954 1.08175 0
M  V30 3828 C 363.784 0.518193 1.80821 0
M  V30 3829 O 363.142 -0.530411 1.73368 0
M  V30 3830 C 363.19 2.96451 2.05303 0
M  V30 3831 O 362.294 2.68221 3.13259 0
M  V30 3832 H 361.635 0.586275 0.311733 0
M  V30 3833 H 364.165 2.01342 0.363676 0
M  V30 3834 H 364.175 3.23887 2.48116 0
M  V30 3835 H 362.85 3.87196 1.51829 0
M  V30 3836 H 361.427 2.51744 2.75099 0
M  V30 3837 N 363.613 -0.582584 1.46437 0
M  V30 3838 C 364.861 -1.33814 1.51453 0
M  V30 3839 C 365.182 -1.94277 0.167792 0
M  V30 3840 O 364.452 -1.78566 -0.805677 0
M  V30 3841 H 363.032 -0.496838 0.557818 0
M  V30 3842 H 365.694 -0.682281 1.82568 0
M  V30 3843 H 364.79 -2.14479 2.26728 0
M  V30 3844 N 365.091 -1.34144 -0.827227 0
M  V30 3845 C 366.024 -1.19707 -1.94282 0
M  V30 3846 C 367.002 -0.0897256 -1.62352 0
M  V30 3847 O 368.186 -0.254095 -1.8678 0
M  V30 3848 C 365.313 -0.838646 -3.28153 0
M  V30 3849 C 364.359 -1.95514 -3.79047 0
M  V30 3850 S 365.192 -3.56793 -3.99323 0
M  V30 3851 C 366.348 -3.22983 -5.36127 0
M  V30 3852 H 366.581 -2.1414 -2.06231 0
M  V30 3853 H 364.114 -1.19121 -0.982321 0
M  V30 3854 H 366.072 -0.638637 -4.05502 0
M  V30 3855 H 364.733 0.0872776 -3.13979 0
M  V30 3856 H 363.926 -1.658 -4.75948 0
M  V30 3857 H 363.528 -2.11241 -3.08631 0
M  V30 3858 H 365.82 -2.74531 -6.19386 0
M  V30 3859 H 366.763 -4.19008 -5.70822 0
M  V30 3860 H 367.171 -2.59276 -5.01434 0
M  V30 3861 N 366.569 1.04691 -1.17803 0
M  V30 3862 C 367.532 2.10724 -0.901545 0
M  V30 3863 C 368.532 1.6042 0.110437 0
M  V30 3864 O 369.722 1.7377 -0.122303 0
M  V30 3865 C 366.854 3.39084 -0.351409 0
M  V30 3866 H 368.047 2.36686 -1.84174 0
M  V30 3867 H 365.6 1.21015 -0.98919 0
M  V30 3868 H 366.335 3.18782 0.59569 0
M  V30 3869 H 366.12 3.76909 -1.08083 0
M  V30 3870 H 367.61 4.17227 -0.176451 0
M  V30 3871 N 368.047 0.979072 1.23499 0
M  V30 3872 C 369.272 0.664845 1.96455 0
M  V30 3873 C 369.697 -0.761287 1.72006 0
M  V30 3874 O 369.055 -1.51837 0.990713 0
M  V30 3875 C 369.103 0.959479 3.47601 0
M  V30 3876 O 368.207 0.0508168 4.12369 0
M  V30 3877 H 367.548 0.250185 0.615064 0
M  V30 3878 H 370.078 1.31231 1.5697 0
M  V30 3879 H 370.088 0.895642 3.98048 0
M  V30 3880 H 368.763 1.99876 3.64723 0
M  V30 3881 H 367.34 0.16895 3.72517 0
M  V30 3882 N 369.525 -1.3858 0.750561 0
M  V30 3883 C 370.488 -2.28836 0.129152 0
M  V30 3884 C 371.488 -1.47045 -0.650714 0
M  V30 3885 O 372.678 -1.6753 -0.477428 0
M  V30 3886 C 369.81 -3.30751 -0.825622 0
M  V30 3887 H 371.003 -2.85294 0.924516 0
M  V30 3888 H 368.556 -1.47489 0.517376 0
M  V30 3889 H 369.291 -2.79378 -1.64677 0
M  V30 3890 H 369.076 -3.91177 -0.268852 0
M  V30 3891 H 370.566 -3.98249 -1.2565 0
M  V30 3892 N 371.003 -0.499398 -1.49478 0
M  V30 3893 C 371.95 0.279881 -2.29097 0
M  V30 3894 C 372.92 0.961805 -1.3542 0
M  V30 3895 O 374.105 0.968777 -1.64376 0
M  V30 3896 C 371.245 1.33932 -3.18051 0
M  V30 3897 C 370.358 0.669333 -4.26783 0
M  V30 3898 C 369.493 1.70907 -5.02955 0
M  V30 3899 C 368.532 1.02087 -6.03527 0
M  V30 3900 N 367.669 2.00474 -6.7287 0
M  V30 3901 H 372.509 -0.405317 -2.95231 0
M  V30 3902 H 370.046 -0.211726 -1.45568 0
M  V30 3903 H 372.004 1.96553 -3.67998 0
M  V30 3904 H 370.634 1.9933 -2.53904 0
M  V30 3905 H 369.686 -0.0701234 -3.80335 0
M  V30 3906 H 370.998 0.127503 -4.98637 0
M  V30 3907 H 370.152 2.41037 -5.56764 0
M  V30 3908 H 368.891 2.28476 -4.30871 0
M  V30 3909 H 367.896 0.305338 -5.48951 0
M  V30 3910 H 369.121 0.451708 -6.77596 0
M  V30 3911 H 367.067 2.57007 -6.03559 0
M  V30 3912 H 366.984 1.51353 -7.40694 0
M  V30 3913 H 368.252 2.69897 -7.31284 0
M  V30 3914 N 372.481 1.55866 -0.233164 0
M  V30 3915 C 373.709 2.02998 0.399905 0
M  V30 3916 C 374.124 1.11274 1.52524 0
M  V30 3917 O 373.481 0.124528 1.82075 0
M  V30 3918 C 373.532 3.4958 0.920639 0
M  V30 3919 O 373.253 4.37808 -0.159834 0
M  V30 3920 C 374.754 4.12411 1.62578 0
M  V30 3921 H 371.974 0.664006 0.0966281 0
M  V30 3922 H 374.518 2.0143 -0.353013 0
M  V30 3923 H 372.673 3.51727 1.62379 0
M  V30 3924 H 373.087 5.23981 0.23337 0
M  V30 3925 H 374.561 5.16711 1.94201 0
M  V30 3926 H 375.038 3.5809 2.54299 0
M  V30 3927 H 375.644 4.14148 0.967553 0
M  V30 3928 N 373.959 -0.0401083 1.57549 0
M  V30 3929 C 374.906 -1.04413 2.05831 0
M  V30 3930 C 375.876 -1.36585 0.945184 0
M  V30 3931 O 377.061 -1.47112 1.21502 0
M  V30 3932 C 374.201 -2.34336 2.53339 0
M  V30 3933 C 373.314 -2.08419 3.78398 0
M  V30 3934 C 372.449 -3.32133 4.14561 0
M  V30 3935 C 371.488 -3.01721 5.3257 0
M  V30 3936 N 370.625 -4.17855 5.64218 0
M  V30 3937 H 375.465 -0.625442 2.91363 0
M  V30 3938 H 373.002 -0.297218 1.44066 0
M  V30 3939 H 374.96 -3.10234 2.78946 0
M  V30 3940 H 373.59 -2.73948 1.7074 0
M  V30 3941 H 372.642 -1.23069 3.59942 0
M  V30 3942 H 373.954 -1.81978 4.64419 0
M  V30 3943 H 373.108 -4.16406 4.41238 0
M  V30 3944 H 371.847 -3.61678 3.2717 0
M  V30 3945 H 370.852 -2.15849 5.05657 0
M  V30 3946 H 372.077 -2.73466 6.21605 0
M  V30 3947 H 370.023 -4.47372 4.79786 0
M  V30 3948 H 369.94 -3.94798 6.44725 0
M  V30 3949 H 371.208 -5.03033 5.95465 0
M  V30 3950 N 375.437 -1.54477 -0.31217 0
M  V30 3951 C 376.665 -1.77205 -1.068 0
M  V30 3952 C 377.08 -0.526114 -1.81321 0
M  V30 3953 O 376.437 0.503647 -1.75413 0
M  V30 3954 C 376.488 -2.97253 -2.05725 0
M  V30 3955 O 376.209 -4.1703 -1.34228 0
M  V30 3956 C 377.71 -3.32281 -2.93435 0
M  V30 3957 H 374.93 -0.591287 -0.317208 0
M  V30 3958 H 377.474 -2.01398 -0.354834 0
M  V30 3959 H 375.629 -2.753 -2.72559 0
M  V30 3960 H 376.043 -4.84636 -2.00571 0
M  V30 3961 H 377.517 -4.19551 -3.58721 0
M  V30 3962 H 377.994 -2.49945 -3.61143 0
M  V30 3963 H 378.6 -3.56353 -2.32147 0
M  V30 3964 N 376.915 0.57481 -1.46744 0
M  V30 3965 C 377.865 1.67838 -1.54319 0
M  V30 3966 C 378.849 1.55759 -0.40346 0
M  V30 3967 O 380.041 1.6454 -0.652347 0
M  V30 3968 C 377.17 3.06624 -1.5439 0
M  V30 3969 C 376.256 3.23971 -2.73685 0
M  V30 3970 N 376.647 3.11447 -3.9854 0
M  V30 3971 C 374.945 3.5493 -2.70075 0
M  V30 3972 C 375.646 3.31011 -4.78337 0
M  V30 3973 N 374.622 3.56533 -4.10348 0
M  V30 3974 H 378.424 1.56698 -2.48642 0
M  V30 3975 H 375.938 0.779071 -1.42493 0
M  V30 3976 H 377.935 3.85839 -1.57905 0
M  V30 3977 H 376.595 3.1889 -0.611493 0
M  V30 3978 H 377.606 2.89145 -4.29669 0
M  V30 3979 H 374.283 3.73832 -1.85893 0
M  V30 3980 H 375.673 3.26445 -5.87268 0
M  V30 3981 N 378.394 1.34581 0.820102 0
M  V30 3982 C 379.641 1.27096 1.57648 0
M  V30 3983 C 379.969 -0.158317 1.93855 0
M  V30 3984 O 379.224 -1.12028 1.60463 0
M  V30 3985 C 379.523 2.10997 2.8847 0
M  V30 3986 C 379.189 3.59966 2.71543 0
M  V30 3987 C 377.851 4.00575 2.66634 0
M  V30 3988 C 380.203 4.54548 2.55021 0
M  V30 3989 C 377.531 5.33953 2.43128 0
M  V30 3990 C 379.883 5.88109 2.33047 0
M  V30 3991 C 378.547 6.27878 2.26552 0
M  V30 3992 H 377.817 0.465078 0.576874 0
M  V30 3993 H 380.464 1.6635 0.948671 0
M  V30 3994 H 378.769 1.6458 3.55557 0
M  V30 3995 H 380.466 2.0255 3.46084 0
M  V30 3996 H 377.056 3.27733 2.76205 0
M  V30 3997 H 381.24 4.24069 2.57835 0
M  V30 3998 H 376.496 5.63781 2.3656 0
M  V30 3999 H 380.67 6.60985 2.19251 0
M  V30 4000 H 378.297 7.31162 2.081 0
M  V30 4001 N 379.872 -1.04064 1.18357 0
M  V30 4002 C 381.097 -1.81454 1.00445 0
M  V30 4003 C 381.522 -1.82823 -0.442423 0
M  V30 4004 O 380.88 -1.24555 -1.31741 0
M  V30 4005 C 380.928 -3.24925 1.56384 0
M  V30 4006 O 380.032 -4.04856 0.785209 0
M  V30 4007 H 379.373 -0.560604 0.355835 0
M  V30 4008 H 381.903 -1.31059 1.57114 0
M  V30 4009 H 381.913 -3.75702 1.59097 0
M  V30 4010 H 380.588 -3.23244 2.61699 0
M  V30 4011 H 379.165 -3.63537 0.830399 0
M  V30 4012 N 381.35 -0.985608 -1.22978 0
M  V30 4013 C 382.596 -0.65836 -1.91816 0
M  V30 4014 C 382.929 0.806692 -1.76653 0
M  V30 4015 O 382.204 1.58252 -1.13078 0
M  V30 4016 C 382.487 -1.056 -3.44268 0
M  V30 4017 C 382.34 -2.57906 -3.68516 0
M  V30 4018 C 383.659 -0.603781 -4.35939 0
M  V30 4019 H 380.778 -0.24065 -0.696604 0
M  V30 4020 H 383.42 -1.22783 -1.44998 0
M  V30 4021 H 381.57 -0.571445 -3.84274 0
M  V30 4022 H 383.242 -3.13976 -3.3796 0
M  V30 4023 H 381.485 -3.00305 -3.13048 0
M  V30 4024 H 382.156 -2.80779 -4.75255 0
M  V30 4025 H 384.632 -1.01987 -4.03408 0
M  V30 4026 H 383.508 -0.910383 -5.41298 0
M  V30 4027 H 383.769 0.495761 -4.39312 0
M  V30 4028 N 382.828 1.3818 -0.7579 0
M  V30 4029 C 384.244 1.5353 -0.435972 0
M  V30 4030 C 384.444 1.71961 1.05032 0
M  V30 4031 O 383.5 1.73307 1.83633 0
M  V30 4032 C 384.813 2.73989 -1.23898 0
M  V30 4033 C 386.361 2.87841 -1.22949 0
M  V30 4034 C 386.836 4.11266 -2.01554 0
M  V30 4035 N 388.327 4.18352 -1.98837 0
M  V30 4036 C 389.062 5.12856 -2.5645 0
M  V30 4037 N 388.558 6.13005 -3.22794 0
M  V30 4038 N 390.351 5.05238 -2.46356 0
M  V30 4039 H 382.502 1.24467 -1.7211 0
M  V30 4040 H 384.765 0.604982 -0.729864 0
M  V30 4041 H 384.471 2.66789 -2.29165 0
M  V30 4042 H 384.345 3.67294 -0.858764 0
M  V30 4043 H 386.732 2.9452 -0.184854 0
M  V30 4044 H 386.813 1.95534 -1.64924 0
M  V30 4045 H 386.457 4.05349 -3.06031 0
M  V30 4046 H 386.387 5.02661 -1.5697 0
M  V30 4047 H 388.878 3.46628 -1.50524 0
M  V30 4048 H 389.191 6.81619 -3.64165 0
M  V30 4049 H 387.536 6.13325 -3.2689 0
M  V30 4050 H 390.727 4.25938 -1.9415 0
M  V30 4051 H 390.9 5.78707 -2.91552 0
M  V30 4052 N 384.306 0.507319 1.49211 0
M  V30 4053 C 385.236 -0.256939 2.32082 0
M  V30 4054 C 386.217 -0.956609 1.40652 0
M  V30 4055 O 387.402 -0.946788 1.69557 0
M  V30 4056 C 384.532 -1.31802 3.21318 0
M  V30 4057 C 383.486 -0.737855 4.21592 0
M  V30 4058 C 382.812 -1.89992 4.99807 0
M  V30 4059 C 384.112 0.275325 5.21574 0
M  V30 4060 H 385.806 0.434798 2.96226 0
M  V30 4061 H 383.352 0.210546 1.42452 0
M  V30 4062 H 385.305 -1.86045 3.78107 0
M  V30 4063 H 384.029 -2.03903 2.5513 0
M  V30 4064 H 382.688 -0.217126 3.65956 0
M  V30 4065 H 382.336 -2.60877 4.30061 0
M  V30 4066 H 382.036 -1.51777 5.6766 0
M  V30 4067 H 383.56 -2.44657 5.59442 0
M  V30 4068 H 384.974 -0.179193 5.7302 0
M  V30 4069 H 383.371 0.573649 5.97352 0
M  V30 4070 H 384.441 1.18903 4.70096 0
M  V30 4071 N 385.784 -1.5574 0.241426 0
M  V30 4072 C 386.714 -2.24133 -0.654722 0
M  V30 4073 C 387.695 -1.21974 -1.1856 0
M  V30 4074 O 388.88 -1.50612 -1.22595 0
M  V30 4075 C 386.01 -2.93659 -1.85423 0
M  V30 4076 C 384.964 -4.0246 -1.45636 0
M  V30 4077 C 384.29 -4.59383 -2.73626 0
M  V30 4078 C 385.59 -5.18468 -0.631506 0
M  V30 4079 H 387.284 -2.99281 -0.0844353 0
M  V30 4080 H 384.83 -1.43947 -0.0391707 0
M  V30 4081 H 386.783 -3.40203 -2.48676 0
M  V30 4082 H 385.507 -2.15991 -2.44981 0
M  V30 4083 H 384.166 -3.56676 -0.847202 0
M  V30 4084 H 383.814 -3.78422 -3.3137 0
M  V30 4085 H 383.514 -5.32826 -2.4773 0
M  V30 4086 H 385.038 -5.08658 -3.37786 0
M  V30 4087 H 386.452 -5.61272 -1.1682 0
M  V30 4088 H 384.849 -5.98266 -0.468831 0
M  V30 4089 H 385.919 -4.8358 0.357506 0
M  V30 4090 N 387.262 0.0317525 -1.57568 0
M  V30 4091 C 388.209 1.0332 -2.06382 0
M  V30 4092 C 389.179 1.36082 -0.952414 0
M  V30 4093 O 390.364 1.46466 -1.2228 0
M  V30 4094 C 387.504 2.32989 -2.54578 0
M  V30 4095 C 386.617 2.0641 -3.79498 0
M  V30 4096 C 385.752 3.2993 -4.16317 0
M  V30 4097 C 384.791 2.98893 -5.34162 0
M  V30 4098 N 383.928 4.14857 -5.66426 0
M  V30 4099 H 388.768 0.609982 -2.9169 0
M  V30 4100 H 386.305 0.289573 -1.44222 0
M  V30 4101 H 388.263 3.0875 -2.80587 0
M  V30 4102 H 386.893 2.73039 -1.7219 0
M  V30 4103 H 385.945 1.21158 -3.6059 0
M  V30 4104 H 387.257 1.79513 -4.65378 0
M  V30 4105 H 386.411 4.1406 -4.4344 0
M  V30 4106 H 385.15 3.59938 -3.29083 0
M  V30 4107 H 384.155 2.13164 -5.06795 0
M  V30 4108 H 385.38 2.70165 -6.23047 0
M  V30 4109 H 383.326 4.44821 -4.82151 0
M  V30 4110 H 383.243 3.91374 -6.4681 0
M  V30 4111 H 384.511 4.99868 -5.98124 0
M  V30 4112 N 388.74 1.54641 0.303973 0
M  V30 4113 C 389.987 1.7378 1.03955 0
M  V30 4114 C 390.315 0.521986 1.87365 0
M  V30 4115 O 389.57 -0.496099 1.89308 0
M  V30 4116 C 389.869 2.97753 1.97681 0
M  V30 4117 C 389.535 4.31671 1.30271 0
M  V30 4118 C 388.197 4.68075 1.11619 0
M  V30 4119 C 390.549 5.147 0.82055 0
M  V30 4120 C 387.877 5.8509 0.434304 0
M  V30 4121 C 390.229 6.32416 0.152395 0
M  V30 4122 C 388.893 6.67484 -0.0461067 0
M  V30 4123 H 388.163 0.635908 0.380398 0
M  V30 4124 H 390.81 1.88896 0.314718 0
M  V30 4125 H 389.115 2.77406 2.76682 0
M  V30 4126 H 390.812 3.09756 2.54661 0
M  V30 4127 H 387.402 4.03041 1.45795 0
M  V30 4128 H 391.586 4.87077 0.952374 0
M  V30 4129 H 386.842 6.10806 0.269495 0
M  V30 4130 H 391.016 6.96023 -0.229126 0
M  V30 4131 H 388.643 7.58011 -0.576494 0
M  V30 4132 N 390.218 -0.567019 1.47046 0
M  V30 4133 C 391.443 -1.3551 1.57009 0
M  V30 4134 C 391.868 -1.86841 0.217259 0
M  V30 4135 O 391.226 -1.62435 -0.805268 0
M  V30 4136 C 391.274 -2.50777 2.5912 0
M  V30 4137 O 390.378 -3.52706 2.13711 0
M  V30 4138 H 389.719 -0.402919 0.52778 0
M  V30 4139 H 392.249 -0.686241 1.92748 0
M  V30 4140 H 392.259 -2.97481 2.79229 0
M  V30 4141 H 390.934 -2.12771 3.57353 0
M  V30 4142 H 389.511 -3.12374 2.03659 0
M  V30 4143 N 391.696 -1.35014 -0.812953 0
M  V30 4144 C 393.112 -1.14914 -1.10757 0
M  V30 4145 C 393.312 0.0426818 -2.01455 0
M  V30 4146 O 392.368 0.715212 -2.42159 0
M  V30 4147 C 393.681 -2.44911 -1.74468 0
M  V30 4148 C 395.229 -2.5106 -1.86917 0
M  V30 4149 C 395.704 -3.81085 -2.54044 0
M  V30 4150 N 397.195 -3.82301 -2.61535 0
M  V30 4151 C 397.93 -4.79634 -3.14227 0
M  V30 4152 N 397.426 -5.87353 -3.67407 0
M  V30 4153 N 399.219 -4.67078 -3.12721 0
M  V30 4154 H 391.37 -2.1136 -0.20989 0
M  V30 4155 H 393.633 -0.935128 -0.155692 0
M  V30 4156 H 393.339 -3.32267 -1.15289 0
M  V30 4157 H 393.213 -2.58989 -2.74234 0
M  V30 4158 H 395.6 -1.64137 -2.45241 0
M  V30 4159 H 395.681 -2.40901 -0.860242 0
M  V30 4160 H 395.325 -4.68402 -1.96372 0
M  V30 4161 H 395.255 -3.88529 -3.55461 0
M  V30 4162 H 397.746 -3.04465 -2.23851 0
M  V30 4163 H 398.059 -6.57624 -4.05894 0
M  V30 4164 H 396.404 -5.91054 -3.65623 0
M  V30 4165 H 399.595 -3.82067 -2.70449 0
M  V30 4166 H 399.768 -5.43098 -3.53481 0
M  V30 4167 N 393.175 1.03435 -1.18907 0
M  V30 4168 C 394.085 2.15075 -0.937015 0
M  V30 4169 C 395.101 1.73706 0.101085 0
M  V30 4170 O 396.277 2.01232 -0.0822948 0
M  V30 4171 C 393.342 3.43458 -0.473057 0
M  V30 4172 C 392.403 3.99172 -1.57989 0
M  V30 4173 C 391.636 5.21427 -1.13797 0
M  V30 4174 O 391.859 5.704 0.000725941 0
M  V30 4175 O 390.793 5.69837 -1.9383 0
M  V30 4176 H 394.619 2.39198 -1.87131 0
M  V30 4177 H 392.204 1.13506 -0.971427 0
M  V30 4178 H 394.086 4.20811 -0.222702 0
M  V30 4179 H 392.761 3.20793 0.432869 0
M  V30 4180 H 391.668 3.23178 -1.88433 0
M  V30 4181 H 393.001 4.2619 -2.46217 0
M  V30 4182 N 394.653 0.992116 1.22453 0
M  V30 4183 C 395.6 0.541731 2.24352 0
M  V30 4184 C 396.57 -0.425519 1.60557 0
M  V30 4185 O 397.755 -0.330453 1.87917 0
M  V30 4186 C 394.895 -0.138248 3.44823 0
M  V30 4187 C 394.008 0.870649 4.23136 0
M  V30 4188 C 393.143 0.164269 5.30946 0
M  V30 4189 C 392.182 1.16159 6.00977 0
M  V30 4190 N 391.319 0.483568 7.00433 0
M  V30 4191 H 396.159 1.41541 2.62241 0
M  V30 4192 H 393.696 0.709013 1.28885 0
M  V30 4193 H 395.654 -0.5494 4.13567 0
M  V30 4194 H 394.284 -0.975721 3.077 0
M  V30 4195 H 393.336 1.40013 3.53696 0
M  V30 4196 H 394.648 1.63014 4.7141 0
M  V30 4197 H 393.802 -0.303653 6.0594 0
M  V30 4198 H 392.541 -0.627733 4.83643 0
M  V30 4199 H 391.546 1.64015 5.24766 0
M  V30 4200 H 392.771 1.95445 6.50368 0
M  V30 4201 H 390.717 -0.289012 6.55363 0
M  V30 4202 H 390.634 1.18152 7.4671 0
M  V30 4203 H 391.902 0.0384219 7.79491 0
M  V30 4204 N 396.131 -1.37776 0.765217 0
M  V30 4205 C 397.078 -2.30342 0.145274 0
M  V30 4206 C 398.048 -1.5077 -0.696971 0
M  V30 4207 O 399.233 -1.79362 -0.650689 0
M  V30 4208 C 396.373 -3.37227 -0.732939 0
M  V30 4209 C 395.486 -4.31819 0.125199 0
M  V30 4210 C 394.621 -5.25777 -0.757107 0
M  V30 4211 C 393.66 -6.12012 0.103963 0
M  V30 4212 N 392.797 -6.98232 -0.735953 0
M  V30 4213 H 397.637 -2.8278 0.940195 0
M  V30 4214 H 395.174 -1.39211 0.475255 0
M  V30 4215 H 397.132 -3.97818 -1.25686 0
M  V30 4216 H 395.762 -2.86171 -1.49353 0
M  V30 4217 H 394.814 -3.7259 0.766865 0
M  V30 4218 H 396.126 -4.92509 0.789683 0
M  V30 4219 H 395.28 -5.91541 -1.34776 0
M  V30 4220 H 394.019 -4.65481 -1.45529 0
M  V30 4221 H 393.024 -5.45233 0.707197 0
M  V30 4222 H 394.249 -6.74379 0.799381 0
M  V30 4223 H 392.195 -6.40472 -1.41887 0
M  V30 4224 H 392.112 -7.55891 -0.128624 0
M  V30 4225 H 393.38 -7.68393 -1.31121 0
M  V30 4226 N 397.609 -0.515225 -1.4894 0
M  V30 4227 C 398.572 0.244681 -2.2789 0
M  V30 4228 C 399.572 0.881166 -1.34507 0
M  V30 4229 O 400.762 0.743497 -1.57537 0
M  V30 4230 C 397.894 1.35247 -3.12923 0
M  V30 4231 H 399.087 -0.448289 -2.96531 0
M  V30 4232 H 396.64 -0.270656 -1.53939 0
M  V30 4233 H 397.375 2.07916 -2.48881 0
M  V30 4234 H 397.16 0.901374 -3.81599 0
M  V30 4235 H 398.65 1.88737 -3.72516 0
M  V30 4236 N 399.087 1.5561 -0.249682 0
M  V30 4237 C 400.05 2.20217 0.635394 0
M  V30 4238 C 401.05 1.17227 1.10066 0
M  V30 4239 O 402.24 1.42292 1.00492 0
M  V30 4240 C 399.372 2.84794 1.87363 0
M  V30 4241 H 400.565 2.99814 0.0716752 0
M  V30 4242 H 398.118 1.563 -0.000153234 0
M  V30 4243 H 398.853 2.09142 2.47851 0
M  V30 4244 H 398.638 3.60241 1.5482 0
M  V30 4245 H 400.128 3.3423 2.5036 0
M  V30 4246 N 400.565 -0.0233959 1.57583 0
M  V30 4247 C 401.512 -1.02224 2.06927 0
M  V30 4248 C 402.482 -1.35575 0.959617 0
M  V30 4249 O 403.667 -1.45815 1.23055 0
M  V30 4250 C 400.807 -2.31636 2.5581 0
M  V30 4251 C 399.92 -2.04394 3.80588 0
M  V30 4252 C 399.055 -3.27717 4.18061 0
M  V30 4253 C 398.094 -2.96056 5.3574 0
M  V30 4254 N 397.231 -4.11847 5.68618 0
M  V30 4255 H 402.071 -0.594504 2.9201 0
M  V30 4256 H 399.608 -0.281921 1.44373 0
M  V30 4257 H 401.566 -3.07258 2.82221 0
M  V30 4258 H 400.196 -2.72122 1.73636 0
M  V30 4259 H 399.248 -1.19244 3.61227 0
M  V30 4260 H 400.56 -1.77042 4.66323 0
M  V30 4261 H 399.714 -4.11702 4.4563 0
M  V30 4262 H 398.453 -3.58188 3.30988 0
M  V30 4263 H 397.458 -2.10474 5.07918 0
M  V30 4264 H 398.683 -2.66857 6.24471 0
M  V30 4265 H 396.629 -4.42258 4.84504 0
M  V30 4266 H 396.546 -3.87938 6.48876 0
M  V30 4267 H 397.814 -4.96689 6.00766 0
M  V30 4268 N 402.043 -1.548 -0.295768 0
M  V30 4269 C 403.271 -1.78327 -1.04914 0
M  V30 4270 C 403.686 -0.545316 -1.80753 0
M  V30 4271 O 403.043 0.485013 -1.75937 0
M  V30 4272 C 403.094 -2.99418 -2.02561 0
M  V30 4273 O 402.815 -4.18431 -1.29798 0
M  V30 4274 C 404.316 -3.35375 -2.89895 0
M  V30 4275 H 401.536 -0.594618 -0.310918 0
M  V30 4276 H 404.08 -2.01763 -0.333454 0
M  V30 4277 H 402.235 -2.78175 -2.69624 0
M  V30 4278 H 402.649 -4.86736 -1.95419 0
M  V30 4279 H 404.123 -4.23332 -3.54251 0
M  V30 4280 H 404.6 -2.53761 -3.58472 0
M  V30 4281 H 405.206 -3.58796 -2.28355 0
M  V30 4282 N 403.521 0.559213 -1.47345 0
M  V30 4283 C 404.451 1.67622 -1.62558 0
M  V30 4284 C 405.432 1.63331 -0.475087 0
M  V30 4285 O 406.617 1.80983 -0.704182 0
M  V30 4286 C 403.747 3.0626 -1.63774 0
M  V30 4287 C 402.701 3.25397 -2.7803 0
M  V30 4288 C 402.027 4.64801 -2.64318 0
M  V30 4289 C 403.327 3.10965 -4.19641 0
M  V30 4290 H 405.021 1.55146 -2.56067 0
M  V30 4291 H 402.567 0.744961 -1.23233 0
M  V30 4292 H 404.52 3.84247 -1.73008 0
M  V30 4293 H 403.244 3.1969 -0.66825 0
M  V30 4294 H 401.903 2.49817 -2.68304 0
M  V30 4295 H 401.551 4.75028 -1.65401 0
M  V30 4296 H 401.251 4.78555 -3.40968 0
M  V30 4297 H 402.775 5.44926 -2.75478 0
M  V30 4298 H 404.189 3.78772 -4.30354 0
M  V30 4299 H 402.586 3.36229 -4.97062 0
M  V30 4300 H 403.656 2.07736 -4.38148 0
M  V30 4301 N 404.999 1.35443 0.805782 0
M  V30 4302 C 406.247 1.28507 1.55982 0
M  V30 4303 C 406.568 -0.140046 1.94496 0
M  V30 4304 O 405.838 -1.07666 1.63661 0
M  V30 4305 H 404.418 0.472676 0.578434 0
M  V30 4306 H 407.08 1.69555 0.961098 0
M  V30 4307 H 406.176 1.90148 2.47488 0
M  V30 4308 N 406.477 -1.02803 1.19454 0
M  V30 4309 C 407.726 -1.7562 0.991996 0
M  V30 4310 C 408.039 -1.89672 -0.477901 0
M  V30 4311 O 409.245 -2.59468 -0.799287 0
M  V30 4312 C 407.701 -3.15812 1.72601 0
M  V30 4313 C 407.309 -3.0981 3.23607 0
M  V30 4314 C 409.053 -3.92918 1.60674 0
M  V30 4315 C 406.96 -4.44939 3.89594 0
M  V30 4316 H 405.89 -0.658352 0.367543 0
M  V30 4317 H 408.541 -1.15044 1.42959 0
M  V30 4318 H 406.923 -3.7686 1.21624 0
M  V30 4319 H 408.097 -2.58138 3.81709 0
M  V30 4320 H 406.412 -2.46201 3.35819 0
M  V30 4321 H 409.009 -4.9287 2.07323 0
M  V30 4322 H 409.352 -4.12502 0.561025 0
M  V30 4323 H 409.885 -3.38472 2.09001 0
M  V30 4324 H 406.624 -4.30559 4.94267 0
M  V30 4325 H 406.144 -4.96664 3.36281 0
M  V30 4326 H 407.823 -5.1382 3.93189 0
M  V30 4327 N 407.956 -0.998596 -1.21925 0
M  V30 4328 C 409.202 -0.678667 -1.91107 0
M  V30 4329 C 409.535 0.78791 -1.77498 0
M  V30 4330 O 408.81 1.57043 -1.1475 0
M  V30 4331 C 409.093 -1.09245 -3.43129 0
M  V30 4332 C 408.946 -2.61801 -3.6576 0
M  V30 4333 C 410.265 -0.649984 -4.35274 0
M  V30 4334 H 407.384 -0.248025 -0.694012 0
M  V30 4335 H 410.026 -1.24314 -1.43688 0
M  V30 4336 H 408.176 -0.612171 -3.83647 0
M  V30 4337 H 409.848 -3.17543 -3.34611 0
M  V30 4338 H 408.091 -3.03609 -3.09845 0
M  V30 4339 H 408.762 -2.85804 -4.7225 0
M  V30 4340 H 411.238 -1.0626 -4.02303 0
M  V30 4341 H 410.114 -0.967743 -5.40302 0
M  V30 4342 H 410.375 0.449139 -4.39813 0
M  V30 4343 N 409.434 1.37368 -0.772513 0
M  V30 4344 C 410.68 1.99969 -0.337681 0
M  V30 4345 C 411.013 1.61184 1.08321 0
M  V30 4346 O 410.288 0.858395 1.74533 0
M  V30 4347 C 410.571 3.56858 -0.482121 0
M  V30 4348 C 410.424 4.0555 -1.94549 0
M  V30 4349 C 411.743 4.39955 0.113143 0
M  V30 4350 H 408.862 0.726464 -0.124171 0
M  V30 4351 H 411.504 1.63034 -0.975699 0
M  V30 4352 H 409.654 3.88452 0.0610361 0
M  V30 4353 H 411.326 3.84518 -2.54841 0
M  V30 4354 H 409.569 3.57715 -2.45403 0
M  V30 4355 H 410.24 5.14587 -1.9976 0
M  V30 4356 H 412.716 4.14623 -0.35031 0
M  V30 4357 H 411.592 5.48897 -0.0180514 0
M  V30 4358 H 411.853 4.25403 1.20354 0
M  V30 4359 N 410.912 0.523116 1.48665 0
M  V30 4360 C 412.16 -0.0134497 2.02096 0
M  V30 4361 C 412.481 -1.35418 1.40311 0
M  V30 4362 O 411.751 -1.87543 0.566074 0
M  V30 4363 H 410.331 -0.00795915 0.746958 0
M  V30 4364 H 412.993 0.685388 1.82451 0
M  V30 4365 H 412.089 -0.126849 3.11842 0
M  V30 4366 N 412.39 -1.55475 0.257931 0
M  V30 4367 C 413.63 -2.01112 -0.365129 0
M  V30 4368 C 413.994 -1.1423 -1.54323 0
M  V30 4369 O 415.195 -1.49371 -2.23477 0
M  V30 4370 C 413.466 -3.49353 -0.754117 0
M  V30 4371 S 415.025 -4.16992 -1.36614 0
M  V30 4372 H 411.843 -0.701737 -0.114397 0
M  V30 4373 H 414.445 -1.91855 0.375747 0
M  V30 4374 H 413.149 -4.10246 0.112441 0
M  V30 4375 H 412.68 -3.6256 -1.52689 0
M  V30 4376 H 414.695 -4.19191 -2.65505 0
M  V30 4377 N 413.868 0.0150385 -1.57593 0
M  V30 4378 C 415.115 0.703001 -1.89906 0
M  V30 4379 C 415.443 1.74604 -0.856944 0
M  V30 4380 O 414.698 1.95197 0.140287 0
M  V30 4381 C 414.997 1.39686 -3.28972 0
M  V30 4382 C 414.663 0.488457 -4.48246 0
M  V30 4383 C 413.325 0.2383 -4.8061 0
M  V30 4384 C 415.677 -0.137881 -5.21018 0
M  V30 4385 C 413.005 -0.646738 -5.83125 0
M  V30 4386 C 415.357 -1.0107 -6.24474 0
M  V30 4387 C 414.021 -1.27019 -6.55303 0
M  V30 4388 H 413.291 0.257246 -0.694914 0
M  V30 4389 H 415.938 -0.037259 -1.91464 0
M  V30 4390 H 414.243 2.21079 -3.23468 0
M  V30 4391 H 415.94 1.93495 -3.51227 0
M  V30 4392 H 412.53 0.693593 -4.22951 0
M  V30 4393 H 416.714 0.0423953 -4.96282 0
M  V30 4394 H 411.97 -0.855937 -6.05379 0
M  V30 4395 H 416.144 -1.50247 -6.79999 0
M  V30 4396 H 413.771 -1.95769 -7.3456 0
M  V30 4397 N 415.346 1.54954 0.287554 0
M  V30 4398 C 416.592 1.75132 1.02257 0
M  V30 4399 C 416.925 0.542858 1.86458 0
M  V30 4400 O 416.2 -0.459856 1.88986 0
M  V30 4401 C 416.483 3.04812 1.91733 0
M  V30 4402 C 416.336 4.35985 1.10622 0
M  V30 4403 C 417.655 3.30438 2.90687 0
M  V30 4404 H 414.774 0.637194 0.370341 0
M  V30 4405 H 417.416 1.87678 0.296111 0
M  V30 4406 H 415.566 2.94247 2.53675 0
M  V30 4407 H 417.238 4.58487 0.508636 0
M  V30 4408 H 415.481 4.31865 0.409271 0
M  V30 4409 H 416.152 5.23017 1.76513 0
M  V30 4410 H 418.628 3.40701 2.38877 0
M  V30 4411 H 417.504 4.22467 3.50447 0
M  V30 4412 H 417.765 2.49377 3.65053 0
M  V30 4413 N 416.824 -0.551391 1.4764 0
M  V30 4414 C 417.754 -1.66757 1.63445 0
M  V30 4415 C 418.735 -1.63077 0.483742 0
M  V30 4416 O 419.92 -1.80607 0.71377 0
M  V30 4417 C 417.05 -3.05387 1.65396 0
M  V30 4418 C 416.004 -3.23918 2.79752 0
M  V30 4419 C 415.33 -4.63393 2.66779 0
M  V30 4420 C 416.63 -3.08735 4.21284 0
M  V30 4421 H 418.324 -1.53786 2.56886 0
M  V30 4422 H 415.87 -0.738415 1.23626 0
M  V30 4423 H 417.823 -3.83325 1.75043 0
M  V30 4424 H 416.547 -3.19332 0.685195 0
M  V30 4425 H 415.206 -2.48391 2.69625 0
M  V30 4426 H 414.854 -4.74144 1.67918 0
M  V30 4427 H 414.554 -4.7674 3.43501 0
M  V30 4428 H 416.078 -5.43458 2.78364 0
M  V30 4429 H 417.492 -3.76484 4.32357 0
M  V30 4430 H 415.889 -3.33588 4.98838 0
M  V30 4431 H 416.959 -2.0541 4.39243 0
M  V30 4432 N 418.302 -1.35869 -0.798587 0
M  V30 4433 C 419.542 -1.30961 -1.56935 0
M  V30 4434 C 419.906 0.112404 -1.91671 0
M  V30 4435 O 421.107 0.285937 -2.67275 0
M  V30 4436 C 419.378 -2.19811 -2.81811 0
M  V30 4437 S 420.937 -2.32498 -3.72143 0
M  V30 4438 H 417.755 -0.465297 -0.537606 0
M  V30 4439 H 420.357 -1.71344 -0.941346 0
M  V30 4440 H 419.061 -3.22095 -2.54329 0
M  V30 4441 H 418.592 -1.80415 -3.49591 0
M  V30 4442 H 420.607 -1.5157 -4.72484 0
M  V30 4443 N 419.78 1.02168 -1.19998 0
M  V30 4444 C 421.026 1.7606 -1.01855 0
M  V30 4445 C 421.381 1.87178 0.445222 0
M  V30 4446 O 420.674 1.3828 1.32624 0
M  V30 4447 C 420.868 3.18081 -1.62969 0
M  V30 4448 C 420.697 3.20809 -3.15137 0
M  V30 4449 C 419.467 3.28342 -3.84083 0
M  V30 4450 C 421.665 3.07268 -4.1242 0
M  V30 4451 N 419.647 3.2052 -5.23584 0
M  V30 4452 C 421.018 3.0716 -5.38566 0
M  V30 4453 C 423.073 2.91448 -4.03686 0
M  V30 4454 C 421.776 2.92853 -6.56985 0
M  V30 4455 C 423.802 2.78494 -5.21723 0
M  V30 4456 C 423.164 2.79046 -6.46771 0
M  V30 4457 H 419.263 0.655192 -0.426905 0
M  V30 4458 H 421.847 1.21564 -1.52087 0
M  V30 4459 H 420.018 3.70882 -1.15329 0
M  V30 4460 H 421.75 3.80375 -1.38192 0
M  V30 4461 H 418.505 3.34859 -3.34913 0
M  V30 4462 H 418.929 3.19997 -5.96599 0
M  V30 4463 H 423.571 2.89838 -3.07821 0
M  V30 4464 H 421.289 2.93213 -7.53028 0
M  V30 4465 H 424.875 2.67278 -5.16773 0
M  V30 4466 H 423.755 2.69134 -7.36571 0
M  V30 4467 N 421.258 1.00505 1.21394 0
M  V30 4468 C 422.188 0.585684 2.26035 0
M  V30 4469 C 423.169 -0.393525 1.65485 0
M  V30 4470 O 424.354 -0.281497 1.92149 0
M  V30 4471 C 421.484 -0.0884283 3.47187 0
M  V30 4472 C 420.438 0.810567 4.20254 0
M  V30 4473 C 419.764 0.00286382 5.347 0
M  V30 4474 C 421.064 2.1132 4.77641 0
M  V30 4475 H 422.758 1.46039 2.61368 0
M  V30 4476 H 420.304 0.703648 1.25638 0
M  V30 4477 H 422.257 -0.393286 4.19561 0
M  V30 4478 H 420.981 -0.997766 3.10986 0
M  V30 4479 H 419.64 1.09925 3.49731 0
M  V30 4480 H 419.288 -0.907765 4.94741 0
M  V30 4481 H 418.988 0.601444 5.84514 0
M  V30 4482 H 420.512 -0.295808 6.09883 0
M  V30 4483 H 421.926 1.87148 5.41893 0
M  V30 4484 H 420.323 2.66164 5.37845 0
M  V30 4485 H 421.393 2.78393 3.9702 0
M  V30 4486 N 422.737 -1.36956 0.779787 0
M  V30 4487 C 424.148 -1.82094 0.412156 0
M  V30 4488 C 424.499 -1.64926 -1.06273 0
M  V30 4489 O 423.624 -1.16483 -1.82375 0
M  V30 4490 C 424.219 -3.3059 0.741319 0
M  V30 4491 C 422.778 -3.73974 0.426641 0
M  V30 4492 C 421.925 -2.59368 0.980987 0
M  V30 4493 H 424.876 -1.25314 0.973758 0
M  V30 4494 H 424.897 -3.80489 0.028887 0
M  V30 4495 H 424.409 -3.43054 1.81482 0
M  V30 4496 H 422.51 -3.67076 -0.639215 0
M  V30 4497 H 422.623 -4.69778 0.940515 0
M  V30 4498 H 420.987 -2.51463 0.404757 0
M  V30 4499 H 421.77 -2.74621 2.06005 0
M  V30 4500 N 424.215 -0.530993 -1.48385 0
M  V30 4501 C 425.462 0.0027373 -2.025 0
M  V30 4502 C 425.79 1.34186 -1.40799 0
M  V30 4503 O 425.045 1.88 -0.543544 0
M  V30 4504 C 425.344 0.172742 -3.56982 0
M  V30 4505 C 425.01 -1.09215 -4.37473 0
M  V30 4506 C 423.672 -1.43881 -4.59186 0
M  V30 4507 C 426.024 -1.93153 -4.84088 0
M  V30 4508 C 423.352 -2.62381 -5.2476 0
M  V30 4509 C 425.704 -3.10833 -5.50968 0
M  V30 4510 C 424.368 -3.45843 -5.70919 0
M  V30 4511 H 423.638 0.00100165 -0.740999 0
M  V30 4512 H 426.285 -0.697219 -1.78357 0
M  V30 4513 H 424.59 0.955473 -3.79971 0
M  V30 4514 H 426.287 0.600642 -3.96476 0
M  V30 4515 H 422.877 -0.812177 -4.20834 0
M  V30 4516 H 427.061 -1.67683 -4.67115 0
M  V30 4517 H 422.317 -2.89707 -5.38405 0
M  V30 4518 H 426.491 -3.7618 -5.86056 0
M  V30 4519 H 424.118 -4.37764 -6.21503 0
M  V30 4520 N 425.693 1.55336 -0.266172 0
M  V30 4521 C 426.94 1.99397 0.353158 0
M  V30 4522 C 427.268 1.15451 1.56529 0
M  V30 4523 O 426.523 0.209974 1.9457 0
M  V30 4524 C 426.822 3.48606 0.787957 0
M  V30 4525 C 426.488 4.49773 -0.318541 0
M  V30 4526 C 425.15 4.77158 -0.62239 0
M  V30 4527 C 427.502 5.10212 -1.06459 0
M  V30 4528 C 424.83 5.62251 -1.67602 0
M  V30 4529 C 427.182 5.96449 -2.10788 0
M  V30 4530 C 425.846 6.22158 -2.41817 0
M  V30 4531 H 425.116 0.729644 0.12923 0
M  V30 4532 H 427.763 1.87732 -0.37802 0
M  V30 4533 H 426.068 3.57701 1.59866 0
M  V30 4534 H 427.765 3.80098 1.27775 0
M  V30 4535 H 424.355 4.2854 -0.0715925 0
M  V30 4536 H 428.539 4.89086 -0.843098 0
M  V30 4537 H 423.795 5.80419 -1.92155 0
M  V30 4538 H 427.969 6.42317 -2.69076 0
M  V30 4539 H 425.596 6.87888 -3.23596 0
M  V30 4540 N 427.171 -0.0066808 1.57599 0
M  V30 4541 C 428.101 -0.999296 2.11036 0
M  V30 4542 C 429.082 -1.36278 1.01795 0
M  V30 4543 O 430.267 -1.4477 1.29442 0
M  V30 4544 C 427.397 -2.29328 2.60818 0
M  V30 4545 C 426.351 -2.07159 3.74525 0
M  V30 4546 C 425.677 -3.42512 4.10596 0
M  V30 4547 C 426.977 -1.43959 5.02069 0
M  V30 4548 H 428.671 -0.554382 2.94223 0
M  V30 4549 H 426.217 -0.265221 1.41536 0
M  V30 4550 H 428.17 -2.99117 2.96828 0
M  V30 4551 H 426.894 -2.7592 1.74745 0
M  V30 4552 H 425.553 -1.39797 3.38899 0
M  V30 4553 H 425.201 -3.86795 3.21556 0
M  V30 4554 H 424.901 -3.28498 4.87199 0
M  V30 4555 H 426.425 -4.13628 4.4916 0
M  V30 4556 H 427.839 -2.03696 5.35893 0
M  V30 4557 H 426.236 -1.40452 5.83432 0
M  V30 4558 H 427.306 -0.407992 4.83181 0
M  V30 4559 N 428.649 -1.55105 -0.279332 0
M  V30 4560 C 429.895 -1.75672 -1.01327 0
M  V30 4561 C 430.228 -0.552739 -1.86168 0
M  V30 4562 O 429.503 0.449827 -1.89227 0
M  V30 4563 C 429.786 -3.05825 -1.90114 0
M  V30 4564 C 429.639 -4.36565 -1.08309 0
M  V30 4565 C 430.958 -3.31975 -2.8893 0
M  V30 4566 H 428.077 -0.639149 -0.366957 0
M  V30 4567 H 430.719 -1.87833 -0.286154 0
M  V30 4568 H 428.869 -2.95588 -2.52111 0
M  V30 4569 H 430.541 -4.58751 -0.484314 0
M  V30 4570 H 428.784 -4.32076 -0.386362 0
M  V30 4571 H 429.455 -5.23946 -1.73737 0
M  V30 4572 H 431.931 -3.41963 -2.37067 0
M  V30 4573 H 430.807 -4.2432 -3.48201 0
M  V30 4574 H 431.068 -2.51309 -3.63725 0
M  V30 4575 N 430.127 0.543554 -1.4793 0
M  V30 4576 C 431.06 1.66556 -1.55995 0
M  V30 4577 C 432.038 1.57315 -0.411205 0
M  V30 4578 O 433.222 1.7798 -0.620922 0
M  V30 4579 C 430.349 3.04883 -1.47527 0
M  V30 4580 C 429.395 3.32526 -2.67074 0
M  V30 4581 S 430.228 3.20282 -4.29162 0
M  V30 4582 C 431.384 4.61079 -4.23269 0
M  V30 4583 H 431.617 1.59462 -2.50917 0
M  V30 4584 H 429.15 0.725456 -1.36296 0
M  V30 4585 H 431.108 3.84665 -1.43328 0
M  V30 4586 H 429.769 3.09429 -0.539665 0
M  V30 4587 H 428.962 4.33403 -2.5725 0
M  V30 4588 H 428.564 2.60389 -2.68466 0
M  V30 4589 H 430.856 5.52318 -3.92365 0
M  V30 4590 H 431.799 4.75959 -5.24279 0
M  V30 4591 H 432.207 4.39766 -3.5393 0
M  V30 4592 N 431.605 1.3629 0.791371 0
M  V30 4593 C 433.016 1.27225 1.36641 0
M  V30 4594 C 433.367 -0.0887968 1.95999 0
M  V30 4595 O 432.492 -0.990207 1.92416 0
M  V30 4596 C 433.087 2.30375 2.48421 0
M  V30 4597 C 431.646 2.25004 3.01746 0
M  V30 4598 C 430.793 2.15259 1.7481 0
M  V30 4599 H 433.744 1.47198 0.593173 0
M  V30 4600 H 433.765 1.93905 3.27385 0
M  V30 4601 H 433.277 3.29422 2.05189 0
M  V30 4602 H 431.378 1.29417 3.49403 0
M  V30 4603 H 431.491 3.1761 3.58693 0
M  V30 4604 H 429.855 1.61482 1.96966 0
M  V30 4605 H 430.638 3.16191 1.33709 0
M  V30 4606 N 433.083 -1.0153 1.20538 0
M  V30 4607 C 434.332 -1.74558 1.01057 0
M  V30 4608 C 434.645 -1.90168 -0.457756 0
M  V30 4609 O 435.851 -2.60301 -0.771722 0
M  V30 4610 C 434.307 -3.13963 1.75941 0
M  V30 4611 C 433.915 -3.06361 3.26875 0
M  V30 4612 C 435.659 -3.91191 1.64832 0
M  V30 4613 C 433.566 -4.40782 3.94291 0
M  V30 4614 H 432.496 -0.654417 0.374505 0
M  V30 4615 H 435.147 -1.13521 1.44171 0
M  V30 4616 H 433.529 -3.75549 1.25614 0
M  V30 4617 H 434.703 -2.54074 3.84425 0
M  V30 4618 H 433.018 -2.42625 3.38411 0
M  V30 4619 H 435.615 -4.90644 2.12539 0
M  V30 4620 H 435.958 -4.11884 0.604745 0
M  V30 4621 H 436.491 -3.36236 2.12579 0
M  V30 4622 H 433.23 -4.25292 4.98805 0
M  V30 4623 H 432.75 -4.9307 3.41529 0
M  V30 4624 H 434.429 -5.09621 3.98617 0
M  V30 4625 N 434.561 -1.01147 -1.20859 0
M  V30 4626 C 435.809 -0.696486 -1.89719 0
M  V30 4627 C 436.13 0.775788 -1.78904 0
M  V30 4628 O 435.4 1.55759 -1.18811 0
M  V30 4629 H 433.98 -0.254628 -0.702263 0
M  V30 4630 H 436.642 -1.28197 -1.46804 0
M  V30 4631 H 435.738 -0.975357 -2.96468 0
M  V30 4632 N 436.039 1.36541 -0.78704 0
M  V30 4633 C 437.264 2.0409 -0.369053 0
M  V30 4634 C 437.689 1.58957 1.00569 0
M  V30 4635 O 437.047 0.756926 1.64743 0
M  V30 4636 C 437.095 3.57924 -0.438466 0
M  V30 4637 O 436.199 4.08642 0.555479 0
M  V30 4638 H 435.54 0.645142 -0.157122 0
M  V30 4639 H 438.07 1.74545 -1.06749 0
M  V30 4640 H 438.08 4.06887 -0.301218 0
M  V30 4641 H 436.755 3.90127 -1.44132 0
M  V30 4642 H 435.332 3.70958 0.380088 0
M  V30 4643 N 437.518 0.538854 1.48102 0
M  V30 4644 C 438.765 0.0080018 2.02498 0
M  V30 4645 C 439.093 -1.33437 1.41509 0
M  V30 4646 O 438.348 -1.87709 0.553507 0
M  V30 4647 C 438.647 -0.153808 3.57069 0
M  V30 4648 C 438.313 1.11533 4.36888 0
M  V30 4649 C 436.975 1.46314 4.58417 0
M  V30 4650 C 439.327 1.95718 4.83057 0
M  V30 4651 C 436.655 2.6516 5.23361 0
M  V30 4652 C 439.007 3.13751 5.49312 0
M  V30 4653 C 437.671 3.48866 5.69077 0
M  V30 4654 H 436.941 0.00292807 0.740994 0
M  V30 4655 H 439.588 0.706668 1.77984 0
M  V30 4656 H 437.893 -0.935309 3.80472 0
M  V30 4657 H 439.59 -0.579607 3.96789 0
M  V30 4658 H 436.18 0.834484 4.20398 0
M  V30 4659 H 440.364 1.70158 4.66219 0
M  V30 4660 H 435.62 2.92558 5.36861 0
M  V30 4661 H 439.794 3.79282 5.84053 0
M  V30 4662 H 437.421 4.41054 6.19173 0
M  V30 4663 N 438.996 -1.55193 0.274407 0
M  V30 4664 C 440.243 -1.99581 -0.342579 0
M  V30 4665 C 440.571 -1.1628 -1.55914 0
M  V30 4666 O 439.826 -0.22029 -1.94456 0
M  V30 4667 C 440.125 -3.49019 -0.769458 0
M  V30 4668 C 439.791 -4.49598 0.342389 0
M  V30 4669 C 438.453 -4.76821 0.647686 0
M  V30 4670 C 440.805 -5.0964 1.09163 0
M  V30 4671 C 438.133 -5.61354 1.70581 0
M  V30 4672 C 440.485 -5.95323 2.13948 0
M  V30 4673 C 439.149 -6.20867 2.45113 0
M  V30 4674 H 438.419 -0.730319 -0.125358 0
M  V30 4675 H 441.066 -1.87529 0.387971 0
M  V30 4676 H 439.371 -3.58544 -1.57967 0
M  V30 4677 H 441.068 -3.8077 -1.25757 0
M  V30 4678 H 437.658 -4.28496 0.094318 0
M  V30 4679 H 441.842 -4.88632 0.869024 0
M  V30 4680 H 437.098 -5.79392 1.9523 0
M  V30 4681 H 441.272 -6.40881 2.72478 0
M  V30 4682 H 438.899 -6.86162 3.27239 0
M  V30 4683 N 440.474 -0.00167713 -1.576 0
M  V30 4684 C 441.885 0.54091 -1.78693 0
M  V30 4685 C 442.236 1.7386 -0.909247 0
M  V30 4686 O 441.361 2.16109 -0.112176 0
M  V30 4687 C 441.956 0.98806 -3.24072 0
M  V30 4688 C 440.515 1.47594 -3.46256 0
M  V30 4689 C 439.662 0.42792 -2.73978 0
M  V30 4690 H 442.613 -0.22784 -1.57056 0
M  V30 4691 H 442.634 1.85398 -3.32277 0
M  V30 4692 H 442.146 0.116164 -3.87926 0
M  V30 4693 H 440.247 2.36868 -2.87618 0
M  V30 4694 H 440.36 1.50225 -4.54939 0
M  V30 4695 H 438.724 0.889934 -2.38647 0
M  V30 4696 H 439.507 -0.435038 -3.40532 0
M  V30 4697 N 441.952 1.55251 0.271103 0
M  V30 4698 C 443.229 1.66664 1.02384 0
M  V30 4699 C 443.609 0.534363 2.04225 0
M  V30 4700 O 442.957 -0.465337 2.23712 0
M  V30 4701 C 443.167 3.05961 1.67895 0
M  V30 4702 C 444.515 3.63772 2.18986 0
M  V30 4703 O 445.539 3.08606 1.77878 0
M  V30 4704 O 444.398 4.60429 2.94393 0
M  V30 4705 H 441.492 0.676957 0.475035 0
M  V30 4706 H 444.038 1.67589 0.26681 0
M  V30 4707 H 442.81 3.79815 0.941071 0
M  V30 4708 H 442.433 3.08943 2.5028 0
M  V30 4709 N 443.43 -0.535701 1.48216 0
M  V30 4710 C 444.677 -1.29183 1.55942 0
M  V30 4711 C 445.005 -1.93125 0.230857 0
M  V30 4712 O 444.26 -1.79556 -0.778331 0
M  V30 4713 C 444.559 -2.4068 2.64212 0
M  V30 4714 C 444.225 -1.94428 4.06827 0
M  V30 4715 C 442.887 -1.81532 4.45645 0
M  V30 4716 C 445.239 -1.59405 4.96225 0
M  V30 4717 C 442.567 -1.31939 5.71672 0
M  V30 4718 C 444.919 -1.11276 6.22736 0
M  V30 4719 C 443.583 -0.969924 6.60416 0
M  V30 4720 H 442.853 -0.472715 0.570632 0
M  V30 4721 H 445.5 -0.598437 1.81909 0
M  V30 4722 H 443.805 -3.15666 2.32083 0
M  V30 4723 H 445.502 -2.98822 2.67407 0
M  V30 4724 H 442.092 -2.05415 3.76168 0
M  V30 4725 H 446.276 -1.68231 4.66917 0
M  V30 4726 H 441.532 -1.19562 5.99596 0
M  V30 4727 H 445.706 -0.832453 6.91407 0
M  V30 4728 H 443.333 -0.583436 7.57958 0
M  V30 4729 N 444.908 -1.36708 -0.784132 0
M  V30 4730 C 445.855 -1.31466 -1.89698 0
M  V30 4731 C 446.825 -0.18239 -1.65096 0
M  V30 4732 O 448.01 -0.369762 -1.87183 0
M  V30 4733 C 445.15 -1.1151 -3.26588 0
M  V30 4734 C 444.263 -2.33859 -3.63227 0
M  V30 4735 C 443.398 -2.06873 -4.89262 0
M  V30 4736 C 442.437 -3.25154 -5.18595 0
M  V30 4737 N 441.574 -2.978 -6.35814 0
M  V30 4738 H 446.414 -2.26619 -1.93515 0
M  V30 4739 H 443.951 -1.12625 -0.946256 0
M  V30 4740 H 445.909 -0.979653 -4.05535 0
M  V30 4741 H 444.539 -0.200103 -3.22179 0
M  V30 4742 H 443.591 -2.58188 -2.79362 0
M  V30 4743 H 444.903 -3.22109 -3.8085 0
M  V30 4744 H 444.057 -1.90289 -5.76086 0
M  V30 4745 H 442.796 -1.15942 -4.73718 0
M  V30 4746 H 441.801 -3.42292 -4.30251 0
M  V30 4747 H 443.026 -4.1692 -5.36055 0
M  V30 4748 H 440.972 -2.09485 -6.21653 0
M  V30 4749 H 440.889 -3.7959 -6.53794 0
M  V30 4750 H 442.157 -2.84805 -7.25607 0
M  V30 4751 N 446.386 1.0089 -1.21074 0
M  V30 4752 C 447.797 1.56056 -1.02486 0
M  V30 4753 C 448.148 1.91728 0.416506 0
M  V30 4754 O 447.273 1.73066 1.29912 0
M  V30 4755 C 447.868 2.83563 -1.85411 0
M  V30 4756 C 446.427 3.3523 -1.71166 0
M  V30 4757 C 445.574 2.0846 -1.82865 0
M  V30 4758 H 448.525 0.831818 -1.35154 0
M  V30 4759 H 448.546 3.55286 -1.36205 0
M  V30 4760 H 448.058 2.57569 -2.9031 0
M  V30 4761 H 446.159 3.66167 -0.689361 0
M  V30 4762 H 446.272 4.06913 -2.52901 0
M  V30 4763 H 444.636 2.21275 -1.26132 0
M  V30 4764 H 445.419 1.84883 -2.89263 0
M  V30 4765 N 447.864 1.01787 1.20321 0
M  V30 4766 C 449.089 0.727009 1.9424 0
M  V30 4767 C 449.514 -0.706179 1.74341 0
M  V30 4768 O 448.872 -1.48609 1.03852 0
M  V30 4769 C 448.92 1.06958 3.44372 0
M  V30 4770 O 448.024 0.181983 4.11998 0
M  V30 4771 H 447.365 0.269626 0.606793 0
M  V30 4772 H 449.895 1.36158 1.52716 0
M  V30 4773 H 449.905 1.02182 3.94997 0
M  V30 4774 H 448.58 2.11378 3.58179 0
M  V30 4775 H 447.157 0.287378 3.71791 0
M  V30 4776 N 449.342 -1.36122 0.79427 0
M  V30 4777 C 450.252 -2.33769 0.197296 0
M  V30 4778 C 451.268 -1.61276 -0.653153 0
M  V30 4779 O 452.444 -1.9323 -0.5678 0
M  V30 4780 C 449.509 -3.40474 -0.654098 0
M  V30 4781 C 448.57 -4.28759 0.215411 0
M  V30 4782 C 447.803 -5.30368 -0.595443 0
M  V30 4783 O 448.026 -5.40211 -1.83107 0
M  V30 4784 O 446.96 -6.019 0.00721351 0
M  V30 4785 H 450.786 -2.86597 1.00478 0
M  V30 4786 H 448.371 -1.38676 0.555818 0
M  V30 4787 H 450.253 -4.05703 -1.13944 0
M  V30 4788 H 448.928 -2.89937 -1.43938 0
M  V30 4789 H 447.835 -3.66554 0.747615 0
M  V30 4790 H 449.168 -4.82661 0.964332 0
M  V30 4791 N 450.82 -0.546701 -1.47814 0
M  V30 4792 C 452.048 -0.0232857 -2.06887 0
M  V30 4793 C 452.463 1.26571 -1.4009 0
M  V30 4794 O 451.82 1.7569 -0.493906 0
M  V30 4795 C 451.871 0.186975 -3.61016 0
M  V30 4796 O 451.592 -1.05097 -4.25307 0
M  V30 4797 C 453.093 0.748872 -4.36929 0
M  V30 4798 H 450.313 -0.0410763 -0.669742 0
M  V30 4799 H 452.857 -0.757117 -1.89968 0
M  V30 4800 H 451.012 0.870903 -3.77484 0
M  V30 4801 H 451.426 -0.842121 -5.17695 0
M  V30 4802 H 452.9 0.845334 -5.45489 0
M  V30 4803 H 453.377 1.75772 -4.02493 0
M  V30 4804 H 453.983 0.100979 -4.2518 0
M  V30 4805 N 452.299 1.55045 -0.282633 0
M  V30 4806 C 453.545 2.00056 0.332481 0
M  V30 4807 C 453.878 1.1708 1.54939 0
M  V30 4808 O 453.153 0.2427 1.9298 0
M  V30 4809 C 453.436 3.53086 0.70725 0
M  V30 4810 C 453.289 4.46813 -0.517521 0
M  V30 4811 C 454.608 4.12245 1.54084 0
M  V30 4812 H 451.727 0.727268 0.119373 0
M  V30 4813 H 454.369 1.85932 -0.391076 0
M  V30 4814 H 452.519 3.65253 1.32372 0
M  V30 4815 H 454.191 4.46579 -1.15607 0
M  V30 4816 H 452.434 4.18163 -1.1542 0
M  V30 4817 H 453.105 5.51595 -0.211426 0
M  V30 4818 H 455.581 4.03401 1.02013 0
M  V30 4819 H 454.457 5.19515 1.77186 0
M  V30 4820 H 454.718 3.62951 2.52427 0
M  V30 4821 N 453.777 0.010035 1.57597 0
M  V30 4822 C 455.024 -0.6727 1.91 0
M  V30 4823 C 455.352 -1.73219 0.884614 0
M  V30 4824 O 454.607 -1.95395 -0.109215 0
M  V30 4825 C 454.906 -1.34434 3.31153 0
M  V30 4826 C 454.572 -0.417083 4.48967 0
M  V30 4827 C 453.234 -0.161809 4.80928 0
M  V30 4828 C 455.586 0.220753 5.20732 0
M  V30 4829 C 452.914 0.739426 5.82022 0
M  V30 4830 C 455.266 1.10993 6.22787 0
M  V30 4831 C 453.93 1.37428 6.532 0
M  V30 4832 H 453.2 -0.246158 0.698918 0
M  V30 4833 H 455.847 0.0677145 1.9138 0
M  V30 4834 H 454.152 -2.15905 3.26944 0
M  V30 4835 H 455.849 -1.87883 3.54261 0
M  V30 4836 H 452.439 -0.626217 4.24001 0
M  V30 4837 H 456.623 0.0365643 4.96287 0
M  V30 4838 H 451.879 0.952139 6.03941 0
M  V30 4839 H 456.053 1.61046 6.77523 0
M  V30 4840 H 453.68 2.0743 7.31353 0
M  V30 4841 N 455.255 -1.55392 -0.262866 0
M  V30 4842 C 456.202 -1.88966 -1.32516 0
M  V30 4843 C 457.172 -0.742187 -1.48596 0
M  V30 4844 O 458.357 -0.99439 -1.62839 0
M  V30 4845 C 455.497 -2.17592 -2.67858 0
M  V30 4846 C 454.61 -3.45061 -2.59917 0
M  V30 4847 C 453.745 -3.63336 -3.87505 0
M  V30 4848 C 452.784 -4.84462 -3.74116 0
M  V30 4849 N 451.921 -4.99342 -4.93561 0
M  V30 4850 H 456.761 -2.79566 -1.03184 0
M  V30 4851 H 454.298 -1.38404 -0.498285 0
M  V30 4852 H 456.256 -2.3219 -3.46617 0
M  V30 4853 H 454.886 -1.30215 -2.95371 0
M  V30 4854 H 453.938 -3.38881 -1.72812 0
M  V30 4855 H 455.25 -4.3396 -2.45926 0
M  V30 4856 H 454.404 -3.77807 -4.74707 0
M  V30 4857 H 453.143 -2.72641 -4.04374 0
M  V30 4858 H 452.148 -4.69985 -2.85297 0
M  V30 4859 H 453.373 -5.76603 -3.58757 0
M  V30 4860 H 451.319 -4.1158 -5.10821 0
M  V30 4861 H 451.236 -5.82303 -4.82141 0
M  V30 4862 H 452.504 -5.18208 -5.82306 0
M  V30 4863 N 456.733 0.527833 -1.48498 0
M  V30 4864 C 457.982 1.28003 -1.55878 0
M  V30 4865 C 458.295 1.9414 -0.238577 0
M  V30 4866 O 459.501 2.7083 -0.190643 0
M  V30 4867 C 457.957 2.32272 -2.74914 0
M  V30 4868 C 457.565 1.72196 -4.13585 0
M  V30 4869 C 459.309 3.08488 -2.91608 0
M  V30 4870 C 457.216 2.74417 -5.23879 0
M  V30 4871 H 456.146 0.481413 -0.580308 0
M  V30 4872 H 458.797 0.557195 -1.74836 0
M  V30 4873 H 457.179 3.07601 -2.49395 0
M  V30 4874 H 458.353 1.03041 -4.49132 0
M  V30 4875 H 456.668 1.08464 -4.02025 0
M  V30 4876 H 459.265 3.84879 -3.71177 0
M  V30 4877 H 459.608 3.64481 -2.01145 0
M  V30 4878 H 460.141 2.40274 -3.17038 0
M  V30 4879 H 456.88 2.23242 -6.16314 0
M  V30 4880 H 456.4 3.41893 -4.92818 0
M  V30 4881 H 458.079 3.37362 -5.52083 0
M  V30 4882 N 458.211 1.37122 0.776871 0
M  V30 4883 C 459.457 1.32243 1.53752 0
M  V30 4884 C 459.79 -0.0944745 1.9397 0
M  V30 4885 O 459.065 -1.05068 1.6368 0
M  V30 4886 C 459.348 2.25681 2.80607 0
M  V30 4887 C 459.201 3.76127 2.46676 0
M  V30 4888 C 460.52 2.17657 3.82509 0
M  V30 4889 H 457.639 0.481704 0.557791 0
M  V30 4890 H 460.281 1.6778 0.891612 0
M  V30 4891 H 458.431 1.95505 3.35723 0
M  V30 4892 H 460.103 4.16877 1.97513 0
M  V30 4893 H 458.346 3.94946 1.79443 0
M  V30 4894 H 459.017 4.36933 3.37333 0
M  V30 4895 H 461.493 2.44245 3.36873 0
M  V30 4896 H 460.369 2.85185 4.69 0
M  V30 4897 H 460.63 1.16785 4.26396 0
M  V30 4898 N 459.689 -1.00246 1.21608 0
M  V30 4899 C 460.936 -1.74061 1.03485 0
M  V30 4900 C 461.264 -1.89658 -0.431308 0
M  V30 4901 O 460.519 -1.42976 -1.33627 0
M  V30 4902 C 460.818 -3.15448 1.68009 0
M  V30 4903 C 460.484 -3.19792 3.17874 0
M  V30 4904 C 459.146 -3.20685 3.58768 0
M  V30 4905 C 461.498 -3.16835 4.13842 0
M  V30 4906 C 458.826 -3.16309 4.94131 0
M  V30 4907 C 461.178 -3.14001 5.49169 0
M  V30 4908 C 459.842 -3.13204 5.89457 0
M  V30 4909 H 459.112 -0.636934 0.378677 0
M  V30 4910 H 461.759 -1.17473 1.51236 0
M  V30 4911 H 460.064 -3.75284 1.12557 0
M  V30 4912 H 461.761 -3.71285 1.51487 0
M  V30 4913 H 458.351 -3.19842 2.85305 0
M  V30 4914 H 462.535 -3.15303 3.83272 0
M  V30 4915 H 457.791 -3.14032 5.24589 0
M  V30 4916 H 461.965 -3.10667 6.23265 0
M  V30 4917 H 459.592 -3.09568 6.94314 0
M  V30 4918 N 461.167 -1.02423 -1.1978 0
M  V30 4919 C 462.413 -0.72878 -1.89896 0
M  V30 4920 C 462.768 0.734248 -1.77839 0
M  V30 4921 O 462.061 1.52733 -1.15685 0
M  V30 4922 C 462.255 -1.1088 -3.39765 0
M  V30 4923 C 462.084 -2.60722 -3.66407 0
M  V30 4924 C 460.854 -3.27623 -3.84696 0
M  V30 4925 C 463.052 -3.58924 -3.68345 0
M  V30 4926 N 461.034 -4.66617 -3.98926 0
M  V30 4927 C 462.405 -4.83514 -3.8809 0
M  V30 4928 C 464.46 -3.52788 -3.51347 0
M  V30 4929 C 463.163 -6.0271 -3.92598 0
M  V30 4930 C 465.189 -4.71394 -3.5713 0
M  V30 4931 C 464.551 -5.94796 -3.77356 0
M  V30 4932 H 460.65 -0.318473 -0.714212 0
M  V30 4933 H 463.234 -1.3106 -1.43984 0
M  V30 4934 H 461.405 -0.555233 -3.84411 0
M  V30 4935 H 463.137 -0.766082 -3.97383 0
M  V30 4936 H 459.892 -2.7804 -3.83393 0
M  V30 4937 H 460.316 -5.38805 -4.099 0
M  V30 4938 H 464.958 -2.58372 -3.3467 0
M  V30 4939 H 462.676 -6.97499 -4.08069 0
M  V30 4940 H 466.262 -4.6827 -3.45275 0
M  V30 4941 H 465.142 -6.85037 -3.81699 0
M  V30 4942 N 462.645 1.35699 -0.801477 0
M  V30 4943 C 463.575 2.32436 -0.222658 0
M  V30 4944 C 464.556 1.5723 0.649057 0
M  V30 4945 O 465.741 1.85324 0.580387 0
M  V30 4946 C 462.871 3.41469 0.633719 0
M  V30 4947 C 461.825 4.27774 -0.139083 0
M  V30 4948 C 461.151 5.28082 0.838666 0
M  V30 4949 C 462.451 5.04946 -1.33517 0
M  V30 4950 H 464.145 2.81094 -1.03086 0
M  V30 4951 H 461.691 1.35146 -0.497155 0
M  V30 4952 H 463.644 4.08143 1.04868 0
M  V30 4953 H 462.368 2.91408 1.47475 0
M  V30 4954 H 461.027 3.62673 -0.535156 0
M  V30 4955 H 460.675 4.7429 1.67506 0
M  V30 4956 H 460.375 5.86695 0.32594 0
M  V30 4957 H 461.899 5.97628 1.25194 0
M  V30 4958 H 463.313 5.64593 -0.995349 0
M  V30 4959 H 461.71 5.7303 -1.78202 0
M  V30 4960 H 462.78 4.35886 -2.12442 0
M  V30 4961 N 464.123 0.554532 1.47522 0
M  V30 4962 C 465.371 0.0294208 2.02079 0
M  V30 4963 C 465.692 -1.32411 1.43151 0
M  V30 4964 O 464.962 -1.863 0.605728 0
M  V30 4965 H 463.542 0.00788672 0.746958 0
M  V30 4966 H 466.204 0.723934 1.80956 0
M  V30 4967 H 465.3 -0.0606745 3.12041 0
M  V30 4968 N 465.601 -1.54893 0.290851 0
M  V30 4969 C 466.831 -2.04047 -0.323818 0
M  V30 4970 C 467.239 -1.16809 -1.48837 0
M  V30 4971 O 466.582 -0.184145 -1.82775 0
M  V30 4972 C 466.644 -3.49248 -0.852395 0
M  V30 4973 C 466.308 -4.56623 0.185557 0
M  V30 4974 C 467.305 -5.09985 1.01053 0
M  V30 4975 C 464.99 -5.01252 0.324332 0
M  V30 4976 C 466.984 -6.06507 1.96031 0
M  V30 4977 C 464.671 -5.97596 1.27757 0
M  V30 4978 C 465.669 -6.50107 2.09405 0
M  V30 4979 O 465.357 -7.44565 3.03114 0
M  V30 4980 H 465.089 -0.671735 -0.0758129 0
M  V30 4981 H 467.643 -2.00947 0.425393 0
M  V30 4982 H 465.873 -3.49639 -1.65195 0
M  V30 4983 H 467.562 -3.81654 -1.38185 0
M  V30 4984 H 468.328 -4.76307 0.914129 0
M  V30 4985 H 464.207 -4.60015 -0.301213 0
M  V30 4986 H 467.751 -6.47418 2.598 0
M  V30 4987 H 463.648 -6.30691 1.37473 0
M  V30 4988 H 464.416 -7.62334 2.97976 0
M  V30 4989 N 467.08 -0.0183926 -1.57589 0
M  V30 4990 C 468.01 0.965596 -2.12599 0
M  V30 4991 C 468.991 1.34641 -1.0395 0
M  V30 4992 O 470.176 1.42693 -1.31729 0
M  V30 4993 C 467.306 2.25149 -2.64434 0
M  V30 4994 C 466.26 2.01175 -3.77773 0
M  V30 4995 C 465.586 3.35937 -4.15994 0
M  V30 4996 C 466.886 1.35953 -5.04296 0
M  V30 4997 H 468.58 0.507504 -2.95067 0
M  V30 4998 H 466.126 0.242671 -1.41941 0
M  V30 4999 H 468.079 2.94357 -3.01549 0
M  V30 5000 H 466.803 2.73105 -1.79112 0
M  V30 5001 H 465.462 1.34388 -3.4108 0
M  V30 5002 H 465.11 3.81631 -3.27669 0
M  V30 5003 H 464.81 3.20705 -4.92364 0
M  V30 5004 H 466.334 4.0643 -4.55683 0
M  V30 5005 H 467.748 1.95144 -5.39065 0
M  V30 5006 H 466.145 1.31152 -5.85593 0
M  V30 5007 H 467.215 0.331071 -4.83768 0
M  V30 5008 N 468.558 1.5553 0.254621 0
M  V30 5009 C 469.506 1.9048 1.33492 0
M  V30 5010 C 470.5 0.78304 1.50216 0
M  V30 5011 O 471.706 0.967582 1.51782 0
M  V30 5012 H 468.081 0.604846 0.44684 0
M  V30 5013 H 470.052 2.80688 1.01275 0
M  V30 5014 C 468.801 2.20928 2.68489 0
M  V30 5015 H 468.124 3.06742 2.56417 0
M  V30 5016 H 469.564 2.49291 3.42972 0
M  V30 5017 C 468.023 1.023 3.20993 0
M  V30 5018 O 468.553 0.267027 4.00811 0
M  V30 5019 N 466.759 0.815714 2.78917 0
M  V30 5020 H 466.306 1.43217 2.14119 0
M  V30 5021 H 466.264 0.0236532 3.14391 0
M  V30 5022 N 470.036 -0.519951 1.48776 0
M  V30 5023 C 471.261 -1.30447 1.6124 0
M  V30 5024 C 471.686 -1.86055 0.276591 0
M  V30 5025 O 471.044 -1.64915 -0.753183 0
M  V30 5026 C 471.092 -2.42406 2.66967 0
M  V30 5027 O 470.196 -3.45728 2.24824 0
M  V30 5028 H 469.537 -0.385924 0.540332 0
M  V30 5029 H 472.067 -0.624572 1.94834 0
M  V30 5030 H 472.077 -2.88447 2.88552 0
M  V30 5031 H 470.752 -2.01294 3.63941 0
M  V30 5032 H 469.329 -3.05737 2.13494 0
M  V30 5033 N 471.514 -1.37532 -0.769588 0
M  V30 5034 C 472.754 -1.34261 -1.54122 0
M  V30 5035 C 473.118 0.0717222 -1.91866 0
M  V30 5036 O 474.319 0.22918 -2.67821 0
M  V30 5037 C 472.59 -2.2574 -2.77086 0
M  V30 5038 S 474.149 -2.40339 -3.67127 0
M  V30 5039 H 470.967 -0.476595 -0.527615 0
M  V30 5040 H 473.569 -1.73303 -0.90479 0
M  V30 5041 H 472.273 -3.27417 -2.4744 0
M  V30 5042 H 471.804 -1.87789 -3.45686 0
M  V30 5043 H 473.819 -1.61558 -4.69163 0
M  V30 5044 N 472.992 0.995999 -1.22138 0
M  V30 5045 C 474.241 1.72928 -1.03821 0
M  V30 5046 C 474.554 1.90872 0.427444 0
M  V30 5047 O 475.76 2.61496 0.730212 0
M  V30 5048 C 474.216 3.11124 -1.80913 0
M  V30 5049 C 473.824 3.01122 -3.31707 0
M  V30 5050 C 475.568 3.8852 -1.71035 0
M  V30 5051 C 473.475 4.34453 -4.01253 0
M  V30 5052 H 472.405 0.648376 -0.384869 0
M  V30 5053 H 475.056 1.11213 -1.45959 0
M  V30 5054 H 473.438 3.73503 -1.31573 0
M  V30 5055 H 474.612 2.47926 -3.88419 0
M  V30 5056 H 472.927 2.3721 -3.42228 0
M  V30 5057 H 475.524 4.872 -2.20318 0
M  V30 5058 H 475.867 4.1087 -0.670196 0
M  V30 5059 H 476.4 3.32812 -2.17902 0
M  V30 5060 H 473.139 4.17303 -5.05508 0
M  V30 5061 H 472.659 4.87574 -3.49331 0
M  V30 5062 H 474.338 5.03215 -4.06674 0
M  V30 5063 N 474.47 1.03057 1.19235 0
M  V30 5064 C 475.418 0.606391 2.24557 0
M  V30 5065 C 476.412 -0.361826 1.65491 0
M  V30 5066 O 477.618 -0.23022 1.78522 0
M  V30 5067 H 473.993 0.177838 0.730669 0
M  V30 5068 H 475.964 1.50529 2.5765 0
M  V30 5069 C 474.713 -0.0252127 3.47691 0
M  V30 5070 H 474.036 0.710838 3.9343 0
M  V30 5071 H 475.476 -0.284931 4.23042 0
M  V30 5072 C 473.935 -1.27229 3.11953 0
M  V30 5073 O 474.465 -2.36416 3.24762 0
M  V30 5074 N 472.671 -1.16169 2.6637 0
M  V30 5075 H 472.218 -0.273189 2.56147 0
M  V30 5076 H 472.176 -1.99703 2.42829 0
M  V30 5077 N 475.948 -1.35272 0.808662 0
M  V30 5078 C 477.359 -1.81179 0.450688 0
M  V30 5079 C 477.71 -1.67143 -1.02751 0
M  V30 5080 O 476.835 -1.20325 -1.79864 0
M  V30 5081 C 477.43 -3.28943 0.811275 0
M  V30 5082 C 475.989 -3.72985 0.505871 0
M  V30 5083 C 475.136 -2.57229 1.03578 0
M  V30 5084 H 478.087 -1.2322 1.00012 0
M  V30 5085 H 478.108 -3.80342 0.109588 0
M  V30 5086 H 477.62 -3.39127 1.88718 0
M  V30 5087 H 475.721 -3.68349 -0.561209 0
M  V30 5088 H 475.834 -4.67677 1.03995 0
M  V30 5089 H 474.198 -2.50548 0.458005 0
M  V30 5090 H 474.981 -2.7019 2.11784 0
M  V30 5091 N 477.426 -0.562348 -1.47226 0
M  V30 5092 C 478.675 -0.038041 -2.01664 0
M  V30 5093 C 478.988 1.32199 -1.44162 0
M  V30 5094 O 480.194 1.9365 -1.90294 0
M  V30 5095 C 478.65 -0.0174958 -3.59896 0
M  V30 5096 C 478.258 -1.3746 -4.2639 0
M  V30 5097 C 480.002 0.453934 -4.22066 0
M  V30 5098 C 477.909 -1.31289 -5.76643 0
M  V30 5099 H 476.839 -0.0104511 -0.753928 0
M  V30 5100 H 479.49 -0.710966 -1.69167 0
M  V30 5101 H 477.872 0.721182 -3.89378 0
M  V30 5102 H 479.046 -2.1314 -4.08544 0
M  V30 5103 H 477.361 -1.78438 -3.7623 0
M  V30 5104 H 479.958 0.518584 -5.32179 0
M  V30 5105 H 480.301 1.46706 -3.89594 0
M  V30 5106 H 480.834 -0.230044 -3.97134 0
M  V30 5107 H 477.573 -2.30217 -6.13743 0
M  V30 5108 H 477.093 -0.597973 -5.96812 0
M  V30 5109 H 478.772 -1.01713 -6.38955 0
M  V30 5110 N 478.904 1.54736 -0.299062 0
M  V30 5111 C 480.153 1.99279 0.311549 0
M  V30 5112 C 480.466 1.19107 1.55154 0
M  V30 5113 O 481.672 1.53908 2.23662 0
M  V30 5114 C 480.128 3.54768 0.605632 0
M  V30 5115 C 479.736 4.43746 -0.615914 0
M  V30 5116 C 481.48 4.07841 1.17754 0
M  V30 5117 C 479.387 5.90663 -0.29509 0
M  V30 5118 H 478.317 0.744359 0.120187 0
M  V30 5119 H 480.968 1.78919 -0.407464 0
M  V30 5120 H 479.35 3.71021 1.38419 0
M  V30 5121 H 480.524 4.39267 -1.39218 0
M  V30 5122 H 478.839 4.01434 -1.10633 0
M  V30 5123 H 481.436 5.15174 1.43179 0
M  V30 5124 H 481.779 3.58324 2.11918 0
M  V30 5125 H 482.312 3.95123 0.460739 0
M  V30 5126 H 479.051 6.44325 -1.20524 0
M  V30 5127 H 478.571 5.98155 0.44394 0
M  V30 5128 H 480.25 6.46916 0.104048 0
M  V30 5129 N 480.382 0.0267497 1.57577 0
M  V30 5130 C 481.612 -0.6617 1.95717 0
M  V30 5131 C 482.02 -1.66331 0.901706 0
M  V30 5132 O 481.363 -1.83273 -0.125241 0
M  V30 5133 C 481.425 -1.42649 3.29987 0
M  V30 5134 C 481.089 -0.583482 4.5326 0
M  V30 5135 C 482.086 0.140221 5.19711 0
M  V30 5136 C 479.771 -0.521581 4.99585 0
M  V30 5137 C 481.765 0.914523 6.30805 0
M  V30 5138 C 479.452 0.256428 6.10562 0
M  V30 5139 C 480.45 0.973189 6.76031 0
M  V30 5140 O 480.138 1.73845 7.84878 0
M  V30 5141 H 479.87 -0.187483 0.649481 0
M  V30 5142 H 482.424 0.0820847 2.05236 0
M  V30 5143 H 480.654 -2.21536 3.16952 0
M  V30 5144 H 482.343 -2.00282 3.53047 0
M  V30 5145 H 483.109 0.101716 4.84893 0
M  V30 5146 H 478.988 -1.06904 4.48433 0
M  V30 5147 H 482.532 1.4745 6.81839 0
M  V30 5148 H 478.429 0.296657 6.44818 0
M  V30 5149 H 479.197 1.65797 8.01532 0
M  V30 5150 N 481.861 -1.55662 -0.24637 0
M  V30 5151 C 483.272 -1.67953 -0.81539 0
M  V30 5152 C 483.623 -0.624302 -1.86002 0
M  V30 5153 O 482.748 0.229328 -2.15181 0
M  V30 5154 C 483.343 -3.04484 -1.48576 0
M  V30 5155 C 481.902 -3.18713 -2.00248 0
M  V30 5156 C 481.049 -2.6383 -0.853766 0
M  V30 5157 H 484 -1.58685 -0.0221692 0
M  V30 5158 H 484.021 -2.98959 -2.3538 0
M  V30 5159 H 483.533 -3.81264 -0.725222 0
M  V30 5160 H 481.634 -2.46757 -2.79181 0
M  V30 5161 H 481.747 -4.25628 -2.1995 0
M  V30 5162 H 480.111 -2.21667 -1.25442 0
M  V30 5163 H 480.894 -3.43135 -0.106302 0
M  V30 5164 N 483.339 0.512053 -1.4905 0
M  V30 5165 C 484.579 1.27715 -1.59588 0
M  V30 5166 C 484.943 1.90071 -0.271502 0
M  V30 5167 O 486.144 2.67616 -0.251987 0
M  V30 5168 C 484.415 2.32399 -2.71524 0
M  V30 5169 S 485.974 3.18396 -3.01943 0
M  V30 5170 H 482.792 0.43419 -0.563027 0
M  V30 5171 H 485.394 0.581315 -1.86657 0
M  V30 5172 H 484.098 1.85101 -3.66287 0
M  V30 5173 H 483.629 3.06667 -2.46412 0
M  V30 5174 H 485.644 4.32842 -2.42616 0
M  V30 5175 N 484.817 1.37938 0.762283 0
M  V30 5176 C 486.042 1.37059 1.55659 0
M  V30 5177 C 486.467 -0.0396123 1.88058 0
M  V30 5178 O 485.825 -1.01929 1.49934 0
M  V30 5179 C 485.873 2.22494 2.83776 0
M  V30 5180 O 484.977 1.63607 3.78559 0
M  V30 5181 H 484.318 0.467892 0.47114 0
M  V30 5182 H 486.848 1.81587 0.942725 0
M  V30 5183 H 486.858 2.36045 3.32786 0
M  V30 5184 H 485.533 3.24993 2.59524 0
M  V30 5185 H 484.11 1.5915 3.37233 0
M  V30 5186 N 486.295 -0.989507 1.22664 0
M  V30 5187 C 487.52 -1.77031 1.08051 0
M  V30 5188 C 487.945 -1.84535 -0.364483 0
M  V30 5189 O 487.303 -1.3003 -1.2634 0
M  V30 5190 C 487.351 -3.18 1.70024 0
M  V30 5191 O 486.455 -4.01161 0.956216 0
M  V30 5192 H 485.796 -0.545008 0.379292 0
M  V30 5193 H 488.326 -1.24277 1.62531 0
M  V30 5194 H 488.336 -3.68616 1.74888 0
M  V30 5195 H 487.011 -3.11853 2.75174 0
M  V30 5196 H 485.588 -3.59687 0.98384 0
M  V30 5197 N 487.773 -1.03688 -1.18687 0
M  V30 5198 C 488.705 -0.582696 -2.21669 0
M  V30 5199 C 489.718 0.345656 -1.59088 0
M  V30 5200 O 490.907 0.140776 -1.77944 0
M  V30 5201 C 488.007 0.169204 -3.38477 0
M  V30 5202 C 487.18 -0.766079 -4.30639 0
M  V30 5203 C 486.239 -0.0581541 -5.26168 0
M  V30 5204 O 485.265 -0.687346 -5.65035 0
M  V30 5205 N 486.467 1.20981 -5.67753 0
M  V30 5206 H 489.232 -1.46843 -2.61261 0
M  V30 5207 H 486.793 -0.916896 -1.33434 0
M  V30 5208 H 488.785 0.652543 -3.99405 0
M  V30 5209 H 487.355 0.956435 -2.97609 0
M  V30 5210 H 486.575 -1.42935 -3.67373 0
M  V30 5211 H 487.863 -1.40146 -4.89118 0
M  V30 5212 H 487.261 1.74159 -5.38224 0
M  V30 5213 H 485.818 1.6375 -6.30896 0
M  V30 5214 N 489.251 1.34841 -0.815825 0
M  V30 5215 C 490.161 2.33425 -0.234462 0
M  V30 5216 C 491.177 1.62295 0.627413 0
M  V30 5217 O 492.353 1.94109 0.536987 0
M  V30 5218 C 489.418 3.41471 0.599849 0
M  V30 5219 C 488.479 4.28362 -0.283596 0
M  V30 5220 C 487.712 5.31248 0.51099 0
M  V30 5221 O 487.935 5.43056 1.7449 0
M  V30 5222 O 486.869 6.01812 -0.10297 0
M  V30 5223 H 490.695 2.84962 -1.05024 0
M  V30 5224 H 488.28 1.37774 -0.577809 0
M  V30 5225 H 490.162 4.07464 1.07475 0
M  V30 5226 H 488.837 2.9219 1.39308 0
M  V30 5227 H 487.744 3.65318 -0.805836 0
M  V30 5228 H 489.077 4.81066 -1.041 0
M  V30 5229 N 490.729 0.570148 1.46925 0
M  V30 5230 C 491.976 0.0509529 2.02436 0
M  V30 5231 C 492.304 -1.30405 1.44308 0
M  V30 5232 O 491.559 -1.86493 0.593198 0
M  V30 5233 C 491.858 -0.0780336 3.57315 0
M  V30 5234 C 491.524 1.20775 4.34424 0
M  V30 5235 C 490.186 1.56004 4.5521 0
M  V30 5236 C 492.538 2.0592 4.78797 0
M  V30 5237 C 489.866 2.76201 5.17619 0
M  V30 5238 C 492.218 3.25332 5.42533 0
M  V30 5239 C 490.882 3.60859 5.61549 0
M  V30 5240 H 490.152 0.018645 0.740765 0
M  V30 5241 H 492.799 0.744262 1.76445 0
M  V30 5242 H 491.104 -0.854394 3.82371 0
M  V30 5243 H 492.801 -0.495312 3.97929 0
M  V30 5244 H 489.391 0.923469 4.18533 0
M  V30 5245 H 493.575 1.80008 4.62505 0
M  V30 5246 H 488.831 3.0388 5.30535 0
M  V30 5247 H 493.005 3.91586 5.75876 0
M  V30 5248 H 490.632 4.54088 6.09678 0
M  V30 5249 N 492.207 -1.54576 0.307264 0
M  V30 5250 C 493.154 -2.23751 -0.56604 0
M  V30 5251 C 494.124 -1.22235 -1.12462 0
M  V30 5252 O 495.309 -1.50873 -1.16799 0
M  V30 5253 C 492.449 -2.98661 -1.72903 0
M  V30 5254 C 491.562 -4.14963 -1.20124 0
M  V30 5255 C 490.697 -4.77441 -2.3286 0
M  V30 5256 C 489.736 -5.85875 -1.77247 0
M  V30 5257 N 488.873 -6.42282 -2.8358 0
M  V30 5258 H 493.713 -2.97984 0.0304578 0
M  V30 5259 H 491.25 -1.47076 0.0268015 0
M  V30 5260 H 493.208 -3.40329 -2.41313 0
M  V30 5261 H 491.838 -2.26793 -2.29706 0
M  V30 5262 H 490.89 -3.78193 -0.409198 0
M  V30 5263 H 492.202 -4.93066 -0.754171 0
M  V30 5264 H 491.356 -5.21993 -3.09205 0
M  V30 5265 H 490.095 -3.98684 -2.80896 0
M  V30 5266 H 489.1 -5.40741 -0.993926 0
M  V30 5267 H 490.325 -6.6652 -1.30107 0
M  V30 5268 H 488.271 -5.66406 -3.30939 0
M  V30 5269 H 488.188 -7.1575 -2.43388 0
M  V30 5270 H 489.456 -6.91492 -3.59804 0
M  V30 5271 N 493.685 -0.035106 -1.57561 0
M  V30 5272 C 494.632 0.94474 -2.10578 0
M  V30 5273 C 495.602 1.3192 -1.00927 0
M  V30 5274 O 496.787 1.41147 -1.28382 0
M  V30 5275 C 493.927 2.21982 -2.64231 0
M  V30 5276 C 493.04 1.90128 -3.87911 0
M  V30 5277 C 492.175 3.11975 -4.29936 0
M  V30 5278 C 491.214 2.75968 -5.46359 0
M  V30 5279 N 490.351 3.90459 -5.83512 0
M  V30 5280 H 495.191 0.485717 -2.94015 0
M  V30 5281 H 492.728 0.228143 -1.4532 0
M  V30 5282 H 494.686 2.96572 -2.9343 0
M  V30 5283 H 493.316 2.6549 -1.83616 0
M  V30 5284 H 492.368 1.05755 -3.65404 0
M  V30 5285 H 493.68 1.59613 -4.72573 0
M  V30 5286 H 492.834 3.9488 -4.60603 0
M  V30 5287 H 491.573 3.45657 -3.44053 0
M  V30 5288 H 490.578 1.91478 -5.1538 0
M  V30 5289 H 491.803 2.43497 -6.33945 0
M  V30 5290 H 489.749 4.23971 -5.00584 0
M  V30 5291 H 489.666 3.63588 -6.62827 0
M  V30 5292 H 490.934 4.7405 -6.18787 0
M  V30 5293 N 495.163 1.55791 0.238111 0
M  V30 5294 C 496.126 1.90239 1.27835 0
M  V30 5295 C 497.126 0.779552 1.4064 0
M  V30 5296 O 498.316 1.04747 1.3919 0
M  V30 5297 C 495.448 2.13859 2.65475 0
M  V30 5298 H 496.641 2.83262 0.985034 0
M  V30 5299 H 494.194 1.48818 0.477799 0
M  V30 5300 H 494.929 1.23334 2.99932 0
M  V30 5301 H 494.714 2.95643 2.57561 0
M  V30 5302 H 496.204 2.41664 3.40571 0
M  V30 5303 N 496.642 -0.504142 1.49319 0
M  V30 5304 C 497.889 -1.25846 1.58647 0
M  V30 5305 C 498.217 -1.92592 0.27177 0
M  V30 5306 O 497.472 -1.81167 -0.74007 0
M  V30 5307 C 497.771 -2.35021 2.69258 0
M  V30 5308 C 497.437 -1.85755 4.1086 0
M  V30 5309 C 496.099 -1.72038 4.49395 0
M  V30 5310 C 498.451 -1.48844 4.99495 0
M  V30 5311 C 495.779 -1.19783 5.74342 0
M  V30 5312 C 498.131 -0.980422 6.24956 0
M  V30 5313 C 496.795 -0.829622 6.62324 0
M  V30 5314 H 496.065 -0.460505 0.580531 0
M  V30 5315 H 498.712 -0.559716 1.83138 0
M  V30 5316 H 497.017 -3.10672 2.38726 0
M  V30 5317 H 498.714 -2.93083 2.73685 0
M  V30 5318 H 495.304 -1.9739 3.80441 0
M  V30 5319 H 499.488 -1.5829 4.70381 0
M  V30 5320 H 494.744 -1.06817 6.01997 0
M  V30 5321 H 498.918 -0.685608 6.93017 0
M  V30 5322 H 496.545 -0.42253 7.59025 0
M  V30 5323 N 498.12 -1.38341 -0.754957 0
M  V30 5324 C 499.052 -1.31347 -1.87831 0
M  V30 5325 C 500.065 -0.225955 -1.61224 0
M  V30 5326 O 501.254 -0.48341 -1.7183 0
M  V30 5327 C 498.354 -1.01201 -3.23437 0
M  V30 5328 C 497.527 -2.20834 -3.77559 0
M  V30 5329 C 496.586 -1.87454 -4.91678 0
M  V30 5330 O 495.612 -2.59934 -5.06382 0
M  V30 5331 N 496.814 -0.828682 -5.74555 0
M  V30 5332 H 499.579 -2.28147 -1.94342 0
M  V30 5333 H 497.14 -1.32184 -0.934828 0
M  V30 5334 H 499.132 -0.769249 -3.97322 0
M  V30 5335 H 497.702 -0.132011 -3.12321 0
M  V30 5336 H 496.922 -2.61184 -2.95256 0
M  V30 5337 H 498.21 -3.00678 -4.10451 0
M  V30 5338 H 497.608 -0.227591 -5.65242 0
M  V30 5339 H 496.165 -0.645802 -6.48593 0
M  V30 5340 N 499.598 0.982988 -1.23187 0
M  V30 5341 C 500.546 2.09616 -1.00817 0
M  V30 5342 C 501.54 1.6932 0.0519995 0
M  V30 5343 O 502.746 1.79715 -0.101284 0
M  V30 5344 H 499.121 0.685628 -0.308899 0
M  V30 5345 H 501.092 2.25652 -1.95253 0
M  V30 5346 C 499.841 3.42249 -0.613243 0
M  V30 5347 H 499.164 3.73705 -1.42073 0
M  V30 5348 H 500.604 4.21086 -0.496208 0
M  V30 5349 C 499.063 3.30002 0.678233 0
M  V30 5350 O 499.593 3.6263 1.72807 0
M  V30 5351 N 497.799 2.83164 0.653165 0
M  V30 5352 H 497.346 2.56811 -0.201492 0
M  V30 5353 H 497.304 2.75352 1.51752 0
M  V30 5354 N 501.076 1.04316 1.18135 0
M  V30 5355 C 502.322 0.749128 1.88457 0
M  V30 5356 C 502.655 -0.72149 1.803 0
M  V30 5357 O 501.93 -1.52676 1.205 0
M  V30 5358 C 502.213 1.21905 3.38838 0
M  V30 5359 C 502.066 2.75195 3.55792 0
M  V30 5360 C 503.385 0.811085 4.32561 0
M  V30 5361 H 500.504 0.273611 0.684329 0
M  V30 5362 H 503.146 1.29561 1.38975 0
M  V30 5363 H 501.296 0.754137 3.8111 0
M  V30 5364 H 502.968 3.29743 3.22595 0
M  V30 5365 H 501.211 3.14899 2.98364 0
M  V30 5366 H 501.882 3.03135 4.61317 0
M  V30 5367 H 504.358 1.21118 3.98082 0
M  V30 5368 H 503.234 1.16761 5.36338 0
M  V30 5369 H 503.495 -0.285596 4.41177 0
M  V30 5370 N 502.554 -1.34406 0.822964 0
M  V30 5371 C 503.484 -2.32052 0.259608 0
M  V30 5372 C 504.465 -1.58243 -0.623961 0
M  V30 5373 O 505.65 -1.86224 -0.55083 0
M  V30 5374 C 502.78 -3.42434 -0.579314 0
M  V30 5375 C 501.734 -4.27499 0.20712 0
M  V30 5376 C 501.06 -5.29349 -0.754547 0
M  V30 5377 C 502.36 -5.02758 1.41533 0
M  V30 5378 H 504.054 -2.79418 1.07545 0
M  V30 5379 H 501.6 -1.34338 0.518593 0
M  V30 5380 H 503.553 -4.0976 -0.983612 0
M  V30 5381 H 502.277 -2.93717 -1.4282 0
M  V30 5382 H 500.936 -3.61776 0.592787 0
M  V30 5383 H 500.584 -4.76895 -1.59939 0
M  V30 5384 H 500.284 -5.8714 -0.232561 0
M  V30 5385 H 501.808 -5.99544 -1.1567 0
M  V30 5386 H 503.222 -5.62938 1.08504 0
M  V30 5387 H 501.619 -5.70123 1.87296 0
M  V30 5388 H 502.689 -4.32451 2.1935 0
M  V30 5389 N 504.032 -0.577932 -1.46621 0
M  V30 5390 C 505.448 -0.239242 -1.57797 0
M  V30 5391 C 505.648 1.25843 -1.57371 0
M  V30 5392 O 504.704 2.03988 -1.48813 0
M  V30 5393 C 506.017 -0.884227 -2.87405 0
M  V30 5394 C 507.565 -0.857373 -3.01028 0
M  V30 5395 C 508.04 -1.48181 -4.33366 0
M  V30 5396 N 509.531 -1.44593 -4.40053 0
M  V30 5397 C 510.266 -1.89852 -5.41058 0
M  V30 5398 N 509.762 -2.43062 -6.48762 0
M  V30 5399 N 511.555 -1.80797 -5.3223 0
M  V30 5400 H 503.706 -1.55073 -1.45142 0
M  V30 5401 H 505.969 -0.647903 -0.692044 0
M  V30 5402 H 505.675 -1.93759 -2.93514 0
M  V30 5403 H 505.549 -0.389585 -3.75183 0
M  V30 5404 H 507.936 0.187357 -2.94505 0
M  V30 5405 H 508.017 -1.38999 -2.14739 0
M  V30 5406 H 507.661 -2.52572 -4.40647 0
M  V30 5407 H 507.591 -0.924464 -5.18422 0
M  V30 5408 H 510.082 -1.05694 -3.62819 0
M  V30 5409 H 510.395 -2.75466 -7.22038 0
M  V30 5410 H 508.74 -2.47085 -6.49595 0
M  V30 5411 H 511.931 -1.38989 -4.46989 0
M  V30 5412 H 512.104 -2.16385 -6.10804 0
M  V30 5413 N 505.51 1.54411 -0.315457 0
M  V30 5414 C 506.759 1.99599 0.290395 0
M  V30 5415 C 507.072 1.20746 1.53882 0
M  V30 5416 O 508.278 1.56272 2.22017 0
M  V30 5417 C 506.734 3.5539 0.56797 0
M  V30 5418 C 506.342 4.43068 -0.662945 0
M  V30 5419 C 508.086 4.09067 1.13422 0
M  V30 5420 C 505.993 5.90317 -0.357722 0
M  V30 5421 H 504.923 0.745592 0.112286 0
M  V30 5422 H 507.574 1.78477 -0.426418 0
M  V30 5423 H 505.956 3.72468 1.34476 0
M  V30 5424 H 507.13 4.37765 -1.43869 0
M  V30 5425 H 505.445 4.00238 -1.14884 0
M  V30 5426 H 508.042 5.16663 1.37707 0
M  V30 5427 H 508.385 3.60552 2.08106 0
M  V30 5428 H 508.918 3.95589 0.418805 0
M  V30 5429 H 505.657 6.4301 -1.27351 0
M  V30 5430 H 505.177 5.98592 0.380472 0
M  V30 5431 H 506.856 6.4699 0.0354284 0
M  V30 5432 N 506.988 0.0434614 1.5754 0
M  V30 5433 C 507.92 -0.962586 2.08007 0
M  V30 5434 C 508.933 -1.27972 1.00634 0
M  V30 5435 O 510.122 -1.24186 1.28219 0
M  V30 5436 C 507.222 -2.28621 2.50171 0
M  V30 5437 C 506.395 -2.15214 3.80791 0
M  V30 5438 C 505.454 -3.30633 4.09351 0
M  V30 5439 O 504.48 -3.0688 4.79388 0
M  V30 5440 N 505.682 -4.54873 3.60654 0
M  V30 5441 H 508.447 -0.531891 2.94942 0
M  V30 5442 H 506.008 -0.142965 1.61268 0
M  V30 5443 H 508 -3.04689 2.66359 0
M  V30 5444 H 506.57 -2.63283 1.68525 0
M  V30 5445 H 505.79 -1.23785 3.74261 0
M  V30 5446 H 507.078 -2.03475 4.66343 0
M  V30 5447 H 506.476 -4.77063 3.04019 0
M  V30 5448 H 505.033 -5.2806 3.82094 0
M  V30 5449 N 508.466 -1.55915 -0.229846 0
M  V30 5450 C 509.706 -1.80314 -0.962614 0
M  V30 5451 C 510.07 -0.61568 -1.81861 0
M  V30 5452 O 511.271 -0.738795 -2.58448 0
M  V30 5453 C 509.542 -3.0956 -1.78627 0
M  V30 5454 S 511.101 -3.55243 -2.57581 0
M  V30 5455 H 507.919 -0.633142 -0.323499 0
M  V30 5456 H 510.521 -1.94155 -0.228919 0
M  V30 5457 H 509.225 -3.94033 -1.14742 0
M  V30 5458 H 508.756 -2.98503 -2.56241 0
M  V30 5459 H 510.771 -3.17924 -3.80971 0
M  V30 5460 N 509.944 0.496216 -1.49584 0
M  V30 5461 C 510.874 1.60576 -1.69521 0
M  V30 5462 C 511.855 1.61169 -0.543933 0
M  V30 5463 O 513.04 1.77834 -0.78031 0
M  V30 5464 C 510.17 2.99038 -1.76616 0
M  V30 5465 C 509.124 3.13312 -2.91581 0
M  V30 5466 C 508.45 4.53172 -2.83794 0
M  V30 5467 C 509.75 2.92886 -4.32452 0
M  V30 5468 H 511.444 1.44146 -2.62416 0
M  V30 5469 H 508.99 0.692024 -1.26282 0
M  V30 5470 H 510.943 3.76564 -1.8915 0
M  V30 5471 H 509.667 3.16568 -0.80324 0
M  V30 5472 H 508.326 2.38213 -2.78658 0
M  V30 5473 H 507.974 4.67585 -1.854 0
M  V30 5474 H 507.674 4.63662 -3.60958 0
M  V30 5475 H 509.198 5.32752 -2.98342 0
M  V30 5476 H 510.612 3.60178 -4.46032 0
M  V30 5477 H 509.009 3.14844 -5.10875 0
M  V30 5478 H 510.079 1.88966 -4.46565 0
M  V30 5479 N 511.423 1.38739 0.74761 0
M  V30 5480 C 512.663 1.36695 1.51966 0
M  V30 5481 C 513.027 -0.0411889 1.91956 0
M  V30 5482 O 514.228 -0.186543 2.68152 0
M  V30 5483 C 512.499 2.30119 2.73459 0
M  V30 5484 S 514.058 2.4615 3.63257 0
M  V30 5485 H 510.876 0.484929 0.519966 0
M  V30 5486 H 513.478 1.7472 0.877104 0
M  V30 5487 H 512.182 3.31312 2.422 0
M  V30 5488 H 511.713 1.93265 3.42655 0
M  V30 5489 H 513.728 1.69001 4.66533 0
M  V30 5490 N 512.901 -0.976442 1.23707 0
M  V30 5491 C 514.317 -1.24341 1.00058 0
M  V30 5492 C 514.517 -1.99315 -0.295932 0
M  V30 5493 O 513.573 -2.3123 -1.01435 0
M  V30 5494 C 514.886 -2.03909 2.21001 0
M  V30 5495 C 516.434 -2.17034 2.25534 0
M  V30 5496 C 516.909 -2.99994 3.46075 0
M  V30 5497 N 518.4 -3.07578 3.46338 0
M  V30 5498 C 519.135 -3.72104 4.36264 0
M  V30 5499 N 518.631 -4.3842 5.36432 0
M  V30 5500 N 520.424 -3.69029 4.23998 0
M  V30 5501 H 512.575 -0.47428 2.07037 0
M  V30 5502 H 514.838 -0.272167 0.908091 0
M  V30 5503 H 514.544 -1.56198 3.15111 0
M  V30 5504 H 514.418 -3.04654 2.22409 0
M  V30 5505 H 516.805 -2.63951 1.31961 0
M  V30 5506 H 516.886 -1.15664 2.28156 0
M  V30 5507 H 516.53 -2.53772 4.39957 0
M  V30 5508 H 516.46 -4.01541 3.40694 0
M  V30 5509 H 518.951 -2.60397 2.73865 0
M  V30 5510 H 519.264 -4.85447 6.013 0
M  V30 5511 H 517.609 -4.37116 5.40328 0
M  V30 5512 H 520.8 -3.16392 3.44984 0
M  V30 5513 H 520.973 -4.19034 4.94282 0
M  V30 5514 N 514.379 -1.04941 -1.1758 0
M  V30 5515 C 515.326 -0.648155 -2.21512 0
M  V30 5516 C 516.296 0.348431 -1.62404 0
M  V30 5517 O 517.481 0.240419 -1.89279 0
M  V30 5518 C 514.621 -0.0264291 -3.4509 0
M  V30 5519 C 513.734 -1.07154 -4.185 0
M  V30 5520 C 512.869 -0.417403 -5.29558 0
M  V30 5521 C 511.908 -1.447 -5.94751 0
M  V30 5522 N 511.045 -0.817203 -6.97328 0
M  V30 5523 H 515.885 -1.53891 -2.55189 0
M  V30 5524 H 513.422 -0.769699 -1.25356 0
M  V30 5525 H 515.38 0.351456 -4.15717 0
M  V30 5526 H 514.01 0.827802 -3.12005 0
M  V30 5527 H 513.062 -1.56728 -3.46613 0
M  V30 5528 H 514.374 -1.8532 -4.63096 0
M  V30 5529 H 513.528 0.0142061 -6.06698 0
M  V30 5530 H 512.267 0.396265 -4.86087 0
M  V30 5531 H 511.272 -1.88865 -5.16343 0
M  V30 5532 H 512.497 -2.26252 -6.40302 0
M  V30 5533 H 510.443 -0.0239995 -6.55996 0
M  V30 5534 H 510.36 -1.53644 -7.40223 0
M  V30 5535 H 511.628 -0.410283 -7.7842 0
M  V30 5536 N 515.857 1.33968 -0.830081 0
M  V30 5537 C 516.789 2.28194 -0.21448 0
M  V30 5538 C 517.802 1.5135 0.599752 0
M  V30 5539 O 518.991 1.73286 0.42826 0
M  V30 5540 C 516.091 3.31221 0.717356 0
M  V30 5541 C 515.264 4.37365 -0.055613 0
M  V30 5542 C 514.323 5.2011 0.798231 0
M  V30 5543 O 513.349 5.68691 0.240616 0
M  V30 5544 N 514.551 5.40523 2.11695 0
M  V30 5545 H 517.316 2.81662 -1.02405 0
M  V30 5546 H 514.877 1.46568 -0.687713 0
M  V30 5547 H 516.869 3.83477 1.29334 0
M  V30 5548 H 515.439 2.78095 1.42765 0
M  V30 5549 H 514.659 3.85727 -0.812936 0
M  V30 5550 H 515.947 5.05397 -0.587444 0
M  V30 5551 H 515.345 5.0274 2.59363 0
M  V30 5552 H 513.902 5.95871 2.64162 0
M  V30 5553 N 517.335 0.585699 1.46312 0
M  V30 5554 C 518.56 0.0762461 2.0726 0
M  V30 5555 C 518.985 -1.22071 1.43109 0
M  V30 5556 O 518.343 -1.73804 0.515942 0
M  V30 5557 C 518.391 -0.0729404 3.60526 0
M  V30 5558 O 517.495 -1.1287 3.96654 0
M  V30 5559 H 516.836 0.0641558 0.660893 0
M  V30 5560 H 519.366 0.809492 1.87905 0
M  V30 5561 H 519.376 -0.278158 4.07051 0
M  V30 5562 H 518.051 0.874188 4.06609 0
M  V30 5563 H 516.628 -0.901703 3.61834 0
M  V30 5564 N 518.813 -1.54241 0.323641 0
M  V30 5565 C 520.038 -2.05452 -0.283605 0
M  V30 5566 C 520.463 -1.19823 -1.44997 0
M  V30 5567 O 519.821 -0.207358 -1.8011 0
M  V30 5568 C 519.869 -3.53823 -0.695795 0
M  V30 5569 O 518.973 -3.71134 -1.79815 0
M  V30 5570 H 518.314 -0.662024 -0.0511917 0
M  V30 5571 H 520.844 -1.99079 0.472073 0
M  V30 5572 H 520.854 -3.96094 -0.978434 0
M  V30 5573 H 519.529 -4.15602 0.157287 0
M  V30 5574 H 518.106 -3.40768 -1.51431 0
M  V30 5575 N 520.291 -0.0518155 -1.57515 0
M  V30 5576 C 521.238 0.922352 -2.11569 0
M  V30 5577 C 522.208 1.30842 -1.02321 0
M  V30 5578 O 523.393 1.39778 -1.29872 0
M  V30 5579 C 520.533 2.19167 -2.6657 0
M  V30 5580 C 519.646 1.86003 -3.89906 0
M  V30 5581 C 518.781 3.07398 -4.33221 0
M  V30 5582 C 517.82 2.70158 -5.49255 0
M  V30 5583 N 516.957 3.84248 -5.8762 0
M  V30 5584 H 521.797 0.454506 -2.94514 0
M  V30 5585 H 519.334 0.212718 -1.45554 0
M  V30 5586 H 521.292 2.93443 -2.96559 0
M  V30 5587 H 519.922 2.63528 -1.86421 0
M  V30 5588 H 518.974 1.01874 -3.66505 0
M  V30 5589 H 520.286 1.54592 -4.74239 0
M  V30 5590 H 519.44 3.89972 -4.64765 0
M  V30 5591 H 518.179 3.41988 -3.477 0
M  V30 5592 H 517.184 1.86001 -5.17382 0
M  V30 5593 H 518.409 2.36759 -6.36492 0
M  V30 5594 H 516.355 4.18638 -5.05053 0
M  V30 5595 H 516.272 3.56538 -6.66646 0
M  V30 5596 H 517.54 4.6746 -6.2378 0
M  V30 5597 N 521.769 1.56035 0.221574 0
M  V30 5598 C 522.719 1.8881 1.27807 0
M  V30 5599 C 523.703 0.751177 1.42289 0
M  V30 5600 O 524.895 1.01359 1.45104 0
M  V30 5601 C 522.024 2.20828 2.6285 0
M  V30 5602 C 521.11 3.40912 2.52269 0
M  V30 5603 N 521.501 4.59531 2.1134 0
M  V30 5604 C 519.799 3.44526 2.83228 0
M  V30 5605 C 520.5 5.41689 2.1201 0
M  V30 5606 N 519.476 4.814 2.52497 0
M  V30 5607 H 523.278 2.78036 0.952529 0
M  V30 5608 H 520.792 1.566 0.430134 0
M  V30 5609 H 522.789 2.42483 3.39127 0
M  V30 5610 H 521.449 1.32914 2.9625 0
M  V30 5611 H 522.46 4.8469 1.82472 0
M  V30 5612 H 519.137 2.66956 3.21 0
M  V30 5613 H 520.527 6.46643 1.82491 0
M  V30 5614 N 523.247 -0.488276 1.49845 0
M  V30 5615 C 524.21 -1.57069 1.66919 0
M  V30 5616 C 525.21 -1.51445 0.540479 0
M  V30 5617 O 526.4 -1.5437 0.807188 0
M  V30 5618 C 523.532 -2.96718 1.67844 0
M  V30 5619 H 524.725 -1.43254 2.63474 0
M  V30 5620 H 522.278 -0.713435 1.39068 0
M  V30 5621 H 523.013 -3.15996 0.7292 0
M  V30 5622 H 522.798 -3.02208 2.49826 0
M  V30 5623 H 524.288 -3.75335 1.83066 0
M  V30 5624 N 524.725 -1.39134 -0.740242 0
M  V30 5625 C 525.655 -1.40165 -1.86751 0
M  V30 5626 C 526.636 -0.265708 -1.68012 0
M  V30 5627 O 527.821 -0.47076 -1.88408 0
M  V30 5628 C 524.951 -1.2392 -3.2444 0
M  V30 5629 C 523.905 -2.34858 -3.57807 0
M  V30 5630 C 523.231 -2.03707 -4.94376 0
M  V30 5631 C 524.531 -3.77159 -3.61315 0
M  V30 5632 H 526.225 -2.345 -1.86145 0
M  V30 5633 H 523.771 -1.12875 -0.89416 0
M  V30 5634 H 525.724 -1.23263 -4.02969 0
M  V30 5635 H 524.448 -0.26051 -3.25559 0
M  V30 5636 H 523.107 -2.34723 -2.81604 0
M  V30 5637 H 522.755 -1.04289 -4.9207 0
M  V30 5638 H 522.455 -2.78016 -5.17669 0
M  V30 5639 H 523.979 -2.04691 -5.75268 0
M  V30 5640 H 525.393 -3.79252 -4.29931 0
M  V30 5641 H 523.79 -4.50784 -3.96124 0
M  V30 5642 H 524.86 -4.08513 -2.61238 0
M  V30 5643 N 526.204 0.969867 -1.24223 0
M  V30 5644 C 527.452 1.70918 -1.0785 0
M  V30 5645 C 527.773 1.91186 0.383763 0
M  V30 5646 O 527.043 1.48806 1.27411 0
M  V30 5647 H 525.623 0.633334 -0.396103 0
M  V30 5648 H 528.285 1.16689 -1.56108 0
M  V30 5649 H 527.381 2.69455 -1.57482 0
M  V30 5650 N 527.682 1.05563 1.17022 0
M  V30 5651 C 528.912 0.787307 1.91011 0
M  V30 5652 C 529.32 -0.661256 1.77268 0
M  V30 5653 O 528.663 -1.46379 1.10991 0
M  V30 5654 C 528.725 1.09313 3.42478 0
M  V30 5655 C 528.389 2.53863 3.80004 0
M  V30 5656 C 529.386 3.52081 3.82538 0
M  V30 5657 C 527.071 2.88969 4.10855 0
M  V30 5658 C 529.065 4.83449 4.15399 0
M  V30 5659 C 526.752 4.2054 4.43384 0
M  V30 5660 C 527.75 5.17589 4.45635 0
M  V30 5661 O 527.438 6.46799 4.77395 0
M  V30 5662 H 527.17 0.285463 0.61277 0
M  V30 5663 H 529.724 1.41051 1.49311 0
M  V30 5664 H 527.954 0.412833 3.8449 0
M  V30 5665 H 529.643 0.810224 3.97731 0
M  V30 5666 H 530.409 3.26299 3.58823 0
M  V30 5667 H 526.288 2.1409 4.08272 0
M  V30 5668 H 529.832 5.59194 4.1707 0
M  V30 5669 H 525.729 4.46083 4.66563 0
M  V30 5670 H 526.497 6.51677 4.95237 0
M  V30 5671 N 529.16 -1.33526 0.837174 0
M  V30 5672 C 530.388 -2.02047 0.445494 0
M  V30 5673 C 530.803 -1.62995 -0.952788 0
M  V30 5674 O 530.16 -0.842447 -1.61892 0
M  V30 5675 C 530.211 -3.57221 0.554577 0
M  V30 5676 O 529.932 -3.94863 1.89776 0
M  V30 5677 C 531.433 -4.43012 0.159634 0
M  V30 5678 H 528.653 -0.647221 0.177048 0
M  V30 5679 H 531.197 -1.70492 1.12928 0
M  V30 5680 H 529.352 -3.87315 -0.0812781 0
M  V30 5681 H 529.766 -4.89569 1.88208 0
M  V30 5682 H 531.24 -5.51253 0.28701 0
M  V30 5683 H 531.717 -4.29916 -0.898289 0
M  V30 5684 H 532.323 -4.18274 0.769855 0
M  V30 5685 N 530.638 -0.59345 -1.46 0
M  V30 5686 C 531.568 0.121192 -2.33185 0
M  V30 5687 C 532.549 0.872977 -1.4599 0
M  V30 5688 O 533.734 0.846321 -1.74789 0
M  V30 5689 C 530.864 1.12844 -3.28456 0
M  V30 5690 C 529.818 0.4908 -4.25177 0
M  V30 5691 C 529.144 1.60529 -5.10034 0
M  V30 5692 C 530.444 -0.578949 -5.19081 0
M  V30 5693 H 532.138 -0.606767 -2.93187 0
M  V30 5694 H 529.684 -0.293242 -1.40983 0
M  V30 5695 H 531.637 1.63684 -3.88311 0
M  V30 5696 H 530.361 1.88681 -2.66584 0
M  V30 5697 H 529.02 0.00339328 -3.666 0
M  V30 5698 H 528.668 2.35359 -4.44539 0
M  V30 5699 H 528.368 1.18422 -5.75543 0
M  V30 5700 H 529.892 2.11623 -5.72755 0
M  V30 5701 H 531.306 -0.155199 -5.7309 0
M  V30 5702 H 529.703 -0.920947 -5.92991 0
M  V30 5703 H 530.773 -1.46109 -4.62364 0
M  V30 5704 N 532.116 1.54067 -0.331816 0
M  V30 5705 C 533.066 2.21363 0.546101 0
M  V30 5706 C 534.05 1.19698 1.07523 0
M  V30 5707 O 535.242 1.45293 1.01088 0
M  V30 5708 C 532.371 2.98115 1.70242 0
M  V30 5709 C 531.457 4.07127 1.18779 0
M  V30 5710 N 531.848 5.04267 0.393465 0
M  V30 5711 C 530.146 4.21226 1.46576 0
M  V30 5712 C 530.847 5.81585 0.115572 0
M  V30 5713 N 529.823 5.39022 0.703987 0
M  V30 5714 H 533.625 2.93821 -0.0679751 0
M  V30 5715 H 531.139 1.61812 -0.138085 0
M  V30 5716 H 533.136 3.44818 2.34321 0
M  V30 5717 H 531.796 2.27181 2.31989 0
M  V30 5718 H 532.807 5.17888 0.0355757 0
M  V30 5719 H 529.484 3.61509 2.08848 0
M  V30 5720 H 530.874 6.6985 -0.524426 0
M  V30 5721 N 533.594 0.0601682 1.57485 0
M  V30 5722 C 535.005 -0.474217 1.80577 0
M  V30 5723 C 535.356 -1.70365 0.973147 0
M  V30 5724 O 534.481 -2.15544 0.192306 0
M  V30 5725 C 535.076 -0.867102 3.27516 0
M  V30 5726 C 533.635 -1.34642 3.51495 0
M  V30 5727 C 532.782 -0.32594 2.75378 0
M  V30 5728 H 535.733 0.285973 1.56102 0
M  V30 5729 H 535.754 -1.72938 3.38929 0
M  V30 5730 H 535.266 0.0278927 3.8809 0
M  V30 5731 H 533.367 -2.2603 2.96212 0
M  V30 5732 H 533.48 -1.33237 4.60201 0
M  V30 5733 H 531.844 -0.800749 2.41785 0
M  V30 5734 H 532.627 0.561125 3.38683 0
M  V30 5735 N 535.072 -1.5615 -0.213296 0
M  V30 5736 C 536.483 -1.69645 -0.779582 0
M  V30 5737 C 536.834 -0.663615 -1.84636 0
M  V30 5738 O 535.959 0.183633 -2.15619 0
M  V30 5739 C 536.554 -3.07567 -1.42084 0
M  V30 5740 C 535.113 -3.22889 -1.93442 0
M  V30 5741 C 534.26 -2.65581 -0.797612 0
M  V30 5742 H 537.211 -1.58696 0.0114951 0
M  V30 5743 H 537.232 -3.03884 -2.28986 0
M  V30 5744 H 536.744 -3.82716 -0.644187 0
M  V30 5745 H 534.845 -2.52623 -2.73884 0
M  V30 5746 H 534.958 -4.30197 -2.10872 0
M  V30 5747 H 533.322 -2.24278 -1.20712 0
M  V30 5748 H 534.105 -3.43284 -0.033494 0
M  V30 5749 N 536.55 0.480323 -1.50102 0
M  V30 5750 C 537.775 1.26126 -1.64642 0
M  V30 5751 C 538.2 1.85257 -0.325823 0
M  V30 5752 O 537.558 1.66854 0.709194 0
M  V30 5753 C 537.606 2.35243 -2.73301 0
M  V30 5754 O 536.71 3.39646 -2.33911 0
M  V30 5755 H 536.051 0.371463 -0.550374 0
M  V30 5756 H 538.581 0.572696 -1.96421 0
M  V30 5757 H 538.591 2.80695 -2.96098 0
M  V30 5758 H 537.266 1.91574 -3.6915 0
M  V30 5759 H 535.843 2.99969 -2.21525 0
M  V30 5760 N 538.028 1.39524 0.732853 0
M  V30 5761 C 538.96 1.34318 1.85718 0
M  V30 5762 C 539.973 0.251576 1.60844 0
M  V30 5763 O 541.162 0.510685 1.71039 0
M  V30 5764 C 538.262 1.06334 3.21786 0
M  V30 5765 C 537.435 2.26813 3.73998 0
M  V30 5766 C 536.494 1.95253 4.88634 0
M  V30 5767 O 535.52 2.67957 5.02183 0
M  V30 5768 N 536.722 0.919984 5.73164 0
M  V30 5769 H 539.487 2.3121 1.90688 0
M  V30 5770 H 537.048 1.33654 0.91368 0
M  V30 5771 H 539.04 0.832363 3.96048 0
M  V30 5772 H 537.61 0.181682 3.12072 0
M  V30 5773 H 536.83 2.65849 2.91064 0
M  V30 5774 H 538.118 3.0717 4.05616 0
M  V30 5775 H 537.516 0.317487 5.64808 0
M  V30 5776 H 536.073 0.748905 6.47483 0
M  V30 5777 N 539.506 -0.963266 1.24736 0
M  V30 5778 C 540.469 -2.04013 1.04457 0
M  V30 5779 C 541.469 -1.608 0.000335555 0
M  V30 5780 O 542.659 -1.72515 0.241719 0
M  V30 5781 C 539.791 -3.35858 0.584162 0
M  V30 5782 H 540.984 -2.23436 2.00041 0
M  V30 5783 H 538.537 -1.13914 1.07021 0
M  V30 5784 H 539.272 -3.22128 -0.374673 0
M  V30 5785 H 539.057 -3.68568 1.3379 0
M  V30 5786 H 540.547 -4.1502 0.463451 0
M  V30 5787 N 540.985 -1.06182 -1.16461 0
M  V30 5788 C 542.231 -0.779015 -1.87241 0
M  V30 5789 C 542.564 0.692715 -1.81425 0
M  V30 5790 O 541.839 1.5074 -1.22913 0
M  V30 5791 C 542.122 -1.2728 -3.36856 0
M  V30 5792 C 541.975 -2.80821 -3.51368 0
M  V30 5793 C 543.294 -0.879799 -4.31216 0
M  V30 5794 H 540.413 -0.284464 -0.679889 0
M  V30 5795 H 543.055 -1.31755 -1.36896 0
M  V30 5796 H 541.205 -0.814673 -3.79862 0
M  V30 5797 H 542.877 -3.34833 -3.17308 0
M  V30 5798 H 541.12 -3.19606 -2.93316 0
M  V30 5799 H 541.791 -3.10435 -4.56436 0
M  V30 5800 H 544.267 -1.27436 -3.96105 0
M  V30 5801 H 543.143 -1.25278 -5.34412 0
M  V30 5802 H 543.404 0.215372 -4.41575 0
M  V30 5803 N 542.463 1.3308 -0.844243 0
M  V30 5804 C 543.373 2.32876 -0.283922 0
M  V30 5805 C 544.389 1.63589 0.592846 0
M  V30 5806 O 545.565 1.95205 0.495693 0
M  V30 5807 C 542.63 3.42667 0.527283 0
M  V30 5808 C 541.691 4.27664 -0.374394 0
M  V30 5809 C 540.924 5.32212 0.39819 0
M  V30 5810 O 541.147 5.46635 1.62932 0
M  V30 5811 O 540.081 6.01458 -0.2306 0
M  V30 5812 H 543.907 2.82671 -1.11045 0
M  V30 5813 H 541.492 1.36518 -0.606903 0
M  V30 5814 H 543.374 4.09652 0.988078 0
M  V30 5815 H 542.049 2.95079 1.33078 0
M  V30 5816 H 540.956 3.63526 -0.883144 0
M  V30 5817 H 542.289 4.78749 -1.1428 0
M  V30 5818 N 543.941 0.601185 1.45683 0
M  V30 5819 C 545.189 0.0936957 2.01883 0
M  V30 5820 C 545.51 -1.2779 1.47291 0
M  V30 5821 O 544.78 -1.84279 0.664691 0
M  V30 5822 H 543.36 0.0316466 0.746329 0
M  V30 5823 H 546.022 0.781137 1.78562 0
M  V30 5824 H 545.118 0.0386297 3.12076 0
M  V30 5825 N 545.419 -1.53889 0.339982 0
M  V30 5826 C 546.351 -2.22435 -0.55275 0
M  V30 5827 C 547.364 -1.22975 -1.06681 0
M  V30 5828 O 548.553 -1.49351 -0.977575 0
M  V30 5829 C 545.653 -2.8882 -1.77302 0
M  V30 5830 C 544.826 -4.14563 -1.39486 0
M  V30 5831 C 543.885 -4.64391 -2.47442 0
M  V30 5832 O 542.911 -5.28687 -2.10899 0
M  V30 5833 N 544.113 -4.40015 -3.78639 0
M  V30 5834 H 546.878 -2.9968 0.0342669 0
M  V30 5835 H 544.439 -1.61068 0.16394 0
M  V30 5836 H 546.431 -3.19072 -2.48948 0
M  V30 5837 H 545.001 -2.15182 -2.26749 0
M  V30 5838 H 544.221 -3.90896 -0.509321 0
M  V30 5839 H 545.509 -4.96362 -1.11813 0
M  V30 5840 H 544.907 -3.88586 -4.11118 0
M  V30 5841 H 543.464 -4.74881 -4.46465 0
M  V30 5842 N 546.897 -0.0685191 -1.57451 0
M  V30 5843 C 547.847 0.909895 -2.09057 0
M  V30 5844 C 548.831 1.26088 -0.999528 0
M  V30 5845 O 550.023 1.24041 -1.26265 0
M  V30 5846 C 547.152 2.17863 -2.65312 0
M  V30 5847 C 546.238 1.85427 -3.81415 0
M  V30 5848 N 546.629 1.23426 -4.9051 0
M  V30 5849 C 544.927 2.15196 -3.90649 0
M  V30 5850 C 545.628 1.09008 -5.71395 0
M  V30 5851 N 544.604 1.59871 -5.1956 0
M  V30 5852 H 548.406 0.426145 -2.90794 0
M  V30 5853 H 545.92 0.135462 -1.61834 0
M  V30 5854 H 547.917 2.88872 -3.00597 0
M  V30 5855 H 546.577 2.66829 -1.85021 0
M  V30 5856 H 547.588 0.904305 -5.09944 0
M  V30 5857 H 544.265 2.66562 -3.21327 0
M  V30 5858 H 545.655 0.607305 -6.6915 0
M  V30 5859 N 548.375 1.56261 0.205012 0
M  V30 5860 C 549.322 1.93754 1.25411 0
M  V30 5861 C 550.292 0.796826 1.45739 0
M  V30 5862 O 551.477 1.05414 1.59036 0
M  V30 5863 C 548.617 2.27383 2.59598 0
M  V30 5864 C 547.73 3.5447 2.46931 0
M  V30 5865 C 546.865 3.77468 3.73753 0
M  V30 5866 C 545.904 4.98014 3.55877 0
M  V30 5867 N 545.041 5.17316 4.74688 0
M  V30 5868 H 549.881 2.83203 0.92737 0
M  V30 5869 H 547.418 1.40158 0.446574 0
M  V30 5870 H 549.376 2.44895 3.37761 0
M  V30 5871 H 548.006 1.41088 2.90335 0
M  V30 5872 H 547.058 3.45061 1.60116 0
M  V30 5873 H 548.37 4.42789 2.29651 0
M  V30 5874 H 547.524 3.95165 4.60358 0
M  V30 5875 H 546.263 2.87461 3.93976 0
M  V30 5876 H 545.268 4.80249 2.67657 0
M  V30 5877 H 546.493 5.8952 3.37109 0
M  V30 5878 H 544.439 4.30255 4.95194 0
M  V30 5879 H 544.356 5.99796 4.60197 0
M  V30 5880 H 545.624 5.39463 5.62672 0
M  V30 5881 N 549.853 -0.472356 1.50355 0
M  V30 5882 C 551.13 -1.23356 1.51798 0
M  V30 5883 C 551.51 -2.09469 0.26193 0
M  V30 5884 O 550.858 -2.15677 -0.754691 0
M  V30 5885 C 551.068 -2.06568 2.81302 0
M  V30 5886 C 552.416 -2.648 3.31913 0
M  V30 5887 O 553.44 -2.16812 2.82614 0
M  V30 5888 O 552.299 -3.52231 4.17846 0
M  V30 5889 H 549.393 -0.559707 0.608816 0
M  V30 5890 H 551.939 -0.48428 1.62643 0
M  V30 5891 H 550.711 -1.43103 3.64194 0
M  V30 5892 H 550.334 -2.88633 2.73454 0
M  V30 5893 N 551.331 -1.39911 -0.725443 0
M  V30 5894 C 552.264 -1.33788 -1.84867 0
M  V30 5895 C 553.242 -0.209907 -1.61239 0
M  V30 5896 O 554.426 -0.391943 -1.8438 0
M  V30 5897 C 551.553 -1.07975 -3.21028 0
M  V30 5898 C 550.599 -2.23092 -3.635 0
M  V30 5899 S 551.432 -3.85431 -3.71757 0
M  V30 5900 C 552.588 -3.61862 -5.10692 0
M  V30 5901 H 552.821 -2.28848 -1.89779 0
M  V30 5902 H 550.354 -1.26079 -0.891254 0
M  V30 5903 H 552.312 -0.937669 -3.99647 0
M  V30 5904 H 550.973 -0.145865 -3.13761 0
M  V30 5905 H 550.166 -2.00647 -4.62338 0
M  V30 5906 H 549.768 -2.33553 -2.92112 0
M  V30 5907 H 552.06 -3.19719 -5.97316 0
M  V30 5908 H 553.003 -4.60196 -5.38169 0
M  V30 5909 H 553.411 -2.95757 -4.8082 0
M  V30 5910 N 552.809 0.956637 -1.25245 0
M  V30 5911 C 554.055 1.70352 -1.10036 0
M  V30 5912 C 554.388 1.90869 0.358156 0
M  V30 5913 O 553.663 1.47819 1.26411 0
M  V30 5914 C 553.946 3.08766 -1.85298 0
M  V30 5915 C 553.799 2.95672 -3.38966 0
M  V30 5916 C 555.118 4.08622 -1.63451 0
M  V30 5917 H 552.237 0.618279 -0.401123 0
M  V30 5918 H 554.879 1.11212 -1.54051 0
M  V30 5919 H 553.029 3.59252 -1.47887 0
M  V30 5920 H 554.701 2.52527 -3.86041 0
M  V30 5921 H 552.944 2.31634 -3.6678 0
M  V30 5922 H 553.615 3.93776 -3.86839 0
M  V30 5923 H 556.091 3.67038 -1.96015 0
M  V30 5924 H 554.967 5.03514 -2.18551 0
M  V30 5925 H 555.228 4.3834 -0.575357 0
M  V30 5926 N 554.287 1.06798 1.15896 0
M  V30 5927 C 555.703 0.792423 1.38538 0
M  V30 5928 C 555.903 -0.60592 1.92174 0
M  V30 5929 O 554.959 -1.36561 2.12385 0
M  V30 5930 C 556.272 1.86157 2.36149 0
M  V30 5931 C 557.82 1.88567 2.49823 0
M  V30 5932 C 558.295 2.9455 3.5072 0
M  V30 5933 N 559.786 2.93616 3.58251 0
M  V30 5934 C 560.521 3.72267 4.36125 0
M  V30 5935 N 560.017 4.60751 5.17379 0
M  V30 5936 N 561.81 3.60637 4.31158 0
M  V30 5937 H 553.961 1.96993 0.794198 0
M  V30 5938 H 556.224 0.853942 0.411688 0
M  V30 5939 H 555.93 2.86603 2.03843 0
M  V30 5940 H 555.804 1.71692 3.3586 0
M  V30 5941 H 558.191 0.887765 2.8143 0
M  V30 5942 H 558.272 2.0711 1.5013 0
M  V30 5943 H 557.916 3.94537 3.19849 0
M  V30 5944 H 557.846 2.73255 4.50155 0
M  V30 5945 H 560.337 2.29472 3.00252 0
M  V30 5946 H 560.65 5.17408 5.74028 0
M  V30 5947 H 558.995 4.64803 5.16704 0
M  V30 5948 H 562.186 2.90892 3.66742 0
M  V30 5949 H 562.359 4.22176 4.91601 0
M  V30 5950 N 555.766 -1.3263 0.851289 0
M  V30 5951 C 557.015 -1.96633 0.449267 0
M  V30 5952 C 557.328 -1.68131 -0.999562 0
M  V30 5953 O 558.534 -2.25845 -1.50685 0
M  V30 5954 C 556.99 -3.51946 0.752446 0
M  V30 5955 C 556.598 -3.89311 2.21678 0
M  V30 5956 C 558.342 -4.22437 0.417983 0
M  V30 5957 C 556.249 -5.37655 2.46336 0
M  V30 5958 H 555.179 -0.735888 0.164269 0
M  V30 5959 H 557.83 -1.51073 1.0416 0
M  V30 5960 H 556.212 -3.95899 0.0895858 0
M  V30 5961 H 557.386 -3.56378 2.92115 0
M  V30 5962 H 555.701 -3.31836 2.51543 0
M  V30 5963 H 558.298 -5.31549 0.579674 0
M  V30 5964 H 558.641 -4.11349 -0.640115 0
M  V30 5965 H 559.174 -3.84057 1.03659 0
M  V30 5966 H 555.913 -5.5376 3.50757 0
M  V30 5967 H 555.433 -5.72005 1.80473 0
M  V30 5968 H 557.112 -6.04695 2.30115 0
M  V30 5969 N 557.244 -0.608902 -1.45362 0
M  V30 5970 C 558.655 -0.189511 -1.85736 0
M  V30 5971 C 559.006 1.2539 -1.50903 0
M  V30 5972 O 558.131 1.95094 -0.936347 0
M  V30 5973 C 558.726 -0.33716 -3.37118 0
M  V30 5974 C 557.285 0.0275487 -3.7639 0
M  V30 5975 C 556.432 -0.660983 -2.69307 0
M  V30 5976 H 559.383 -0.815499 -1.36144 0
M  V30 5977 H 559.404 0.430257 -3.7806 0
M  V30 5978 H 558.916 -1.38779 -3.62439 0
M  V30 5979 H 557.017 1.0773 -3.56686 0
M  V30 5980 H 557.13 -0.367018 -4.77692 0
M  V30 5981 H 555.494 -0.0984958 -2.54509 0
M  V30 5982 H 556.277 -1.71377 -2.97464 0
M  V30 5983 N 558.722 1.53707 -0.348139 0
M  V30 5984 C 559.968 2.01286 0.247332 0
M  V30 5985 C 560.301 1.23546 1.49834 0
M  V30 5986 O 559.576 0.324331 1.91777 0
M  V30 5987 C 559.859 3.55768 0.556858 0
M  V30 5988 C 559.712 4.44216 -0.706564 0
M  V30 5989 C 561.031 4.1841 1.3646 0
M  V30 5990 H 558.15 0.731677 0.0884201 0
M  V30 5991 H 560.792 1.84106 -0.469584 0
M  V30 5992 H 558.942 3.70539 1.16761 0
M  V30 5993 H 560.614 4.41274 -1.34444 0
M  V30 5994 H 558.857 4.12892 -1.33052 0
M  V30 5995 H 559.528 5.50202 -0.445186 0
M  V30 5996 H 562.004 4.07365 0.848113 0
M  V30 5997 H 560.88 5.26563 1.54992 0
M  V30 5998 H 561.141 3.7333 2.36805 0
M  V30 5999 N 560.2 0.0768682 1.57412 0
M  V30 6000 C 561.448 -0.589918 1.93299 0
M  V30 6001 C 561.769 -1.69842 0.958049 0
M  V30 6002 O 561.039 -1.95899 0.00703261 0
M  V30 6003 H 559.619 -0.220901 0.713591 0
M  V30 6004 H 562.281 0.135917 1.94425 0
M  V30 6005 H 561.377 -1.01195 2.95239 0
M  V30 6006 N 561.678 -1.56367 -0.196722 0
M  V30 6007 C 562.903 -1.84991 -0.937714 0
M  V30 6008 C 563.328 -0.660244 -1.76132 0
M  V30 6009 O 562.686 0.390967 -1.77034 0
M  V30 6010 C 562.734 -3.11828 -1.81096 0
M  V30 6011 O 561.838 -2.92266 -2.90955 0
M  V30 6012 H 561.179 -0.609193 -0.264159 0
M  V30 6013 H 563.709 -2.03595 -0.202529 0
M  V30 6014 H 563.719 -3.42579 -2.21594 0
M  V30 6015 H 562.394 -3.98037 -1.2058 0
M  V30 6016 H 560.971 -2.72809 -2.54224 0
M  V30 6017 N 563.156 0.464375 -1.50603 0
M  V30 6018 C 564.572 0.798684 -1.38178 0
M  V30 6019 C 564.772 1.96568 -0.44308 0
M  V30 6020 O 563.828 2.52252 0.111814 0
M  V30 6021 C 565.141 1.10444 -2.79683 0
M  V30 6022 C 566.689 1.2105 -2.88645 0
M  V30 6023 C 567.164 1.54934 -4.30998 0
M  V30 6024 N 568.655 1.61913 -4.3398 0
M  V30 6025 C 569.39 1.8965 -5.41129 0
M  V30 6026 N 568.886 2.15361 -6.58477 0
M  V30 6027 N 570.679 1.91207 -5.28579 0
M  V30 6028 H 562.83 -0.304603 -2.10204 0
M  V30 6029 H 565.093 -0.0737804 -0.945125 0
M  V30 6030 H 564.799 0.319934 -3.50242 0
M  V30 6031 H 564.673 2.03896 -3.17342 0
M  V30 6032 H 567.06 1.98567 -2.18301 0
M  V30 6033 H 567.141 0.255613 -2.5452 0
M  V30 6034 H 566.785 0.779549 -5.01882 0
M  V30 6035 H 566.715 2.51584 -4.62615 0
M  V30 6036 H 569.206 1.44055 -3.49366 0
M  V30 6037 H 569.519 2.35818 -7.35941 0
M  V30 6038 H 567.864 2.1274 -6.6164 0
M  V30 6039 H 571.055 1.70622 -4.35897 0
M  V30 6040 H 571.228 2.12488 -6.12171 0
M  V30 6041 N 564.634 1.40294 0.718013 0
M  V30 6042 C 565.544 1.42678 1.86226 0
M  V30 6043 C 566.56 0.319655 1.71039 0
M  V30 6044 O 567.736 0.563852 1.93346 0
M  V30 6045 C 564.801 1.2852 3.21999 0
M  V30 6046 C 563.862 2.49354 3.49458 0
M  V30 6047 C 563.095 2.35863 4.78753 0
M  V30 6048 O 563.318 1.37114 5.53675 0
M  V30 6049 O 562.252 3.25189 5.06494 0
M  V30 6050 H 566.078 2.39167 1.87171 0
M  V30 6051 H 563.663 1.2159 0.868112 0
M  V30 6052 H 565.545 1.22824 4.03103 0
M  V30 6053 H 564.22 0.351359 3.21787 0
M  V30 6054 H 563.127 2.60628 2.68373 0
M  V30 6055 H 564.46 3.41491 3.54464 0
M  V30 6056 N 566.112 -0.949982 1.2575 0
M  V30 6057 C 567.34 -1.72972 1.13527 0
M  V30 6058 C 567.755 -1.8623 -0.310453 0
M  V30 6059 O 567.112 -1.36336 -1.2132 0
M  V30 6060 C 567.163 -3.14108 1.78936 0
M  V30 6061 O 566.884 -3.01493 3.17858 0
M  V30 6062 C 568.385 -4.08338 1.72554 0
M  V30 6063 H 565.605 -0.541864 0.395758 0
M  V30 6064 H 568.149 -1.19151 1.66202 0
M  V30 6065 H 566.304 -3.64858 1.30221 0
M  V30 6066 H 566.718 -3.90559 3.50092 0
M  V30 6067 H 568.192 -5.04963 2.22973 0
M  V30 6068 H 568.669 -4.33742 0.690251 0
M  V30 6069 H 569.275 -3.63506 2.2078 0
M  V30 6070 N 567.59 -1.07411 -1.15328 0
M  V30 6071 C 568.837 -0.797649 -1.86128 0
M  V30 6072 C 569.165 0.676298 -1.82364 0
M  V30 6073 O 568.42 1.51223 -1.24218 0
M  V30 6074 C 568.719 -1.25191 -3.34757 0
M  V30 6075 C 568.385 -2.73191 -3.58716 0
M  V30 6076 C 567.047 -3.13616 -3.64964 0
M  V30 6077 C 569.399 -3.68718 -3.6837 0
M  V30 6078 C 566.727 -4.48383 -3.78377 0
M  V30 6079 C 569.079 -5.03248 -3.83306 0
M  V30 6080 C 567.743 -5.43293 -3.878 0
M  V30 6081 H 567.013 -0.29188 -0.681092 0
M  V30 6082 H 569.66 -1.34524 -1.36292 0
M  V30 6083 H 567.965 -0.623712 -3.86804 0
M  V30 6084 H 569.662 -1.01489 -3.87945 0
M  V30 6085 H 566.252 -2.40898 -3.54494 0
M  V30 6086 H 570.436 -3.38614 -3.62842 0
M  V30 6087 H 565.692 -4.78877 -3.80114 0
M  V30 6088 H 569.866 -5.77142 -3.89718 0
M  V30 6089 H 567.493 -6.47721 -3.97946 0
M  V30 6090 N 569.068 1.32177 -0.85831 0
M  V30 6091 C 570.298 2.01021 -0.476889 0
M  V30 6092 C 570.706 1.64653 0.931995 0
M  V30 6093 O 570.049 0.865713 1.62022 0
M  V30 6094 C 570.111 3.55413 -0.540528 0
M  V30 6095 C 569.775 4.1522 -1.90895 0
M  V30 6096 C 570.772 4.3318 -2.87491 0
M  V30 6097 C 568.457 4.51212 -2.20709 0
M  V30 6098 C 570.451 4.86306 -4.1205 0
M  V30 6099 C 568.138 5.04042 -3.45521 0
M  V30 6100 C 569.136 5.21538 -4.41007 0
M  V30 6101 O 568.824 5.73238 -5.63608 0
M  V30 6102 H 568.556 0.650059 -0.18547 0
M  V30 6103 H 571.11 1.69648 -1.15796 0
M  V30 6104 H 569.34 3.86196 0.19741 0
M  V30 6105 H 571.029 4.05526 -0.174191 0
M  V30 6106 H 571.795 4.05704 -2.65762 0
M  V30 6107 H 567.674 4.36878 -1.4717 0
M  V30 6108 H 571.218 4.99877 -4.86589 0
M  V30 6109 H 567.115 5.30952 -3.67098 0
M  V30 6110 H 567.883 5.91625 -5.65617 0
M  V30 6111 N 570.547 0.616602 1.45037 0
M  V30 6112 C 571.963 0.280994 1.57107 0
M  V30 6113 C 572.163 -1.21627 1.60653 0
M  V30 6114 O 571.219 -1.9997 1.54169 0
M  V30 6115 C 572.532 0.960116 2.8496 0
M  V30 6116 C 574.08 0.936884 2.98649 0
M  V30 6117 C 574.555 1.59619 4.29285 0
M  V30 6118 N 576.046 1.5621 4.36065 0
M  V30 6119 C 576.781 2.04131 5.35834 0
M  V30 6120 N 576.277 2.60177 6.4209 0
M  V30 6121 N 578.07 1.94845 5.27249 0
M  V30 6122 H 570.221 1.58867 1.40979 0
M  V30 6123 H 572.484 0.666024 0.674623 0
M  V30 6124 H 572.19 2.01473 2.88273 0
M  V30 6125 H 572.064 0.488921 3.74018 0
M  V30 6126 H 574.451 -0.109209 2.94898 0
M  V30 6127 H 574.532 1.44643 2.10979 0
M  V30 6128 H 574.176 2.64166 4.33796 0
M  V30 6129 H 574.106 1.06159 5.15789 0
M  V30 6130 H 576.597 1.15276 3.59889 0
M  V30 6131 H 576.91 2.94513 7.1448 0
M  V30 6132 H 575.255 2.64221 6.42816 0
M  V30 6133 H 578.446 1.50792 4.43147 0
M  V30 6134 H 578.619 2.32504 6.04852 0
M  V30 6135 N 572.025 -1.5352 0.356285 0
M  V30 6136 C 573.274 -2.00298 -0.237373 0
M  V30 6137 C 573.587 -1.24784 -1.50627 0
M  V30 6138 O 574.793 -1.62103 -2.17795 0
M  V30 6139 C 573.249 -3.56771 -0.473545 0
M  V30 6140 C 572.857 -4.41154 0.780183 0
M  V30 6141 C 574.601 -4.1193 -1.02537 0
M  V30 6142 C 572.508 -5.89161 0.514108 0
M  V30 6143 H 571.438 -0.748307 -0.092478 0
M  V30 6144 H 574.089 -1.77283 0.473588 0
M  V30 6145 H 572.471 -3.75902 -1.24553 0
M  V30 6146 H 573.645 -4.33797 1.55425 0
M  V30 6147 H 571.96 -3.97052 1.25455 0
M  V30 6148 H 574.557 -5.20133 -1.2396 0
M  V30 6149 H 574.9 -3.65943 -1.98473 0
M  V30 6150 H 575.433 -3.96561 -0.313775 0
M  V30 6151 H 572.172 -6.39408 1.44355 0
M  V30 6152 H 571.692 -5.9939 -0.221632 0
M  V30 6153 H 573.371 -6.46857 0.136122 0
M  V30 6154 N 573.503 -0.0852151 -1.57369 0
M  V30 6155 C 574.728 0.592872 -1.98746 0
M  V30 6156 C 575.153 1.61538 -0.963689 0
M  V30 6157 O 574.511 1.81168 0.069071 0
M  V30 6158 C 574.559 1.22599 -3.39119 0
M  V30 6159 O 573.663 2.34185 -3.39457 0
M  V30 6160 H 573.004 0.151314 -0.646529 0
M  V30 6161 H 575.534 -0.163703 -2.03944 0
M  V30 6162 H 575.544 1.56965 -3.76598 0
M  V30 6163 H 574.219 0.476831 -4.13158 0
M  V30 6164 H 572.796 2.01512 -3.13763 0
M  V30 6165 N 574.981 1.5647 0.188427 0
M  V30 6166 C 575.928 1.95073 1.23349 0
M  V30 6167 C 576.898 0.812238 1.44886 0
M  V30 6168 O 578.083 1.07095 1.57909 0
M  V30 6169 C 575.223 2.30124 2.57171 0
M  V30 6170 C 574.336 3.57069 2.43157 0
M  V30 6171 C 573.471 3.81411 3.69729 0
M  V30 6172 C 572.51 5.0176 3.50575 0
M  V30 6173 N 571.647 5.22321 4.69175 0
M  V30 6174 H 576.487 2.84171 0.89728 0
M  V30 6175 H 574.024 1.40623 0.431683 0
M  V30 6176 H 575.982 2.48463 3.35145 0
M  V30 6177 H 574.612 1.44159 2.88822 0
M  V30 6178 H 573.664 3.4674 1.56447 0
M  V30 6179 H 574.976 4.452 2.24942 0
M  V30 6180 H 574.13 4.00026 4.56141 0
M  V30 6181 H 572.869 2.91624 3.90905 0
M  V30 6182 H 571.874 4.83061 2.62549 0
M  V30 6183 H 573.099 5.93063 3.30837 0
M  V30 6184 H 571.045 4.35483 4.90602 0
M  V30 6185 H 570.962 6.04643 4.53809 0
M  V30 6186 H 572.23 5.45401 5.56919 0
M  V30 6187 N 576.459 -0.456382 1.50847 0
M  V30 6188 C 577.687 -1.23026 1.66349 0
M  V30 6189 C 578.102 -1.85473 0.352868 0
M  V30 6190 O 577.459 -1.69885 -0.666739 0
M  V30 6191 C 577.51 -2.32827 2.76539 0
M  V30 6192 O 577.231 -1.72938 4.02522 0
M  V30 6193 C 578.732 -3.23448 3.03144 0
M  V30 6194 H 575.952 -0.371527 0.558756 0
M  V30 6195 H 578.496 -0.543082 1.97157 0
M  V30 6196 H 576.651 -2.97294 2.48384 0
M  V30 6197 H 577.065 -2.45357 4.63573 0
M  V30 6198 H 578.539 -3.96669 3.83872 0
M  V30 6199 H 579.016 -3.83094 2.14793 0
M  V30 6200 H 579.622 -2.64702 3.32886 0
M  V30 6201 N 577.937 -1.40673 -0.710563 0
M  V30 6202 C 579.214 -1.29718 -1.46398 0
M  V30 6203 C 579.594 0.082177 -2.1094 0
M  V30 6204 O 578.942 1.09536 -2.00534 0
M  V30 6205 C 579.152 -2.43967 -2.49562 0
M  V30 6206 C 580.5 -2.84436 -3.15248 0
M  V30 6207 O 581.524 -2.43597 -2.59883 0
M  V30 6208 O 580.383 -3.55008 -4.1549 0
M  V30 6209 H 577.477 -0.509697 -0.651258 0
M  V30 6210 H 580.023 -1.52603 -0.742312 0
M  V30 6211 H 578.795 -3.36076 -2.0042 0
M  V30 6212 H 578.418 -2.22879 -3.29258 0
M  V30 6213 N 579.415 0.9433 -1.26252 0
M  V30 6214 C 580.663 1.68592 -1.11451 0
M  V30 6215 C 580.984 1.91957 0.343123 0
M  V30 6216 O 580.254 1.51475 1.24226 0
M  V30 6217 H 578.834 0.624789 -0.409448 0
M  V30 6218 H 581.496 1.13351 -1.58548 0
M  V30 6219 H 580.592 2.66054 -1.63162 0
M  V30 6220 N 580.893 1.08022 1.14757 0
M  V30 6221 C 582.139 0.808705 1.85978 0
M  V30 6222 C 582.472 -0.663764 1.82504 0
M  V30 6223 O 581.747 -1.48765 1.25296 0
M  V30 6224 C 582.03 1.32623 3.34788 0
M  V30 6225 C 581.883 2.86375 3.46856 0
M  V30 6226 C 583.202 0.948291 4.29762 0
M  V30 6227 H 580.321 0.295244 0.675278 0
M  V30 6228 H 582.963 1.33917 1.34783 0
M  V30 6229 H 581.113 0.875002 3.78518 0
M  V30 6230 H 582.785 3.39839 3.11941 0
M  V30 6231 H 581.028 3.24232 2.88194 0
M  V30 6232 H 581.699 3.17658 4.51439 0
M  V30 6233 H 584.175 1.33722 3.94028 0
M  V30 6234 H 583.051 1.33765 5.32352 0
M  V30 6235 H 583.312 -0.145094 4.41862 0
M  V30 6236 N 582.371 -1.3172 0.865308 0
M  V30 6237 C 583.611 -1.98675 0.480365 0
M  V30 6238 C 583.975 -1.66929 -0.948621 0
M  V30 6239 O 585.176 -2.27059 -1.43867 0
M  V30 6240 C 583.447 -3.49972 0.724858 0
M  V30 6241 S 585.006 -4.36598 0.439078 0
M  V30 6242 H 581.824 -0.687967 0.179506 0
M  V30 6243 H 584.426 -1.60215 1.12033 0
M  V30 6244 H 583.13 -3.70567 1.76375 0
M  V30 6245 H 582.661 -3.93335 0.0717173 0
M  V30 6246 H 584.676 -4.90792 -0.730564 0
M  V30 6247 N 583.85 -0.624285 -1.44708 0
M  V30 6248 C 584.76 0.0861083 -2.34442 0
M  V30 6249 C 585.776 0.84291 -1.5222 0
M  V30 6250 O 586.952 0.796723 -1.84971 0
M  V30 6251 C 584.017 1.05999 -3.30099 0
M  V30 6252 C 583.077 0.303316 -4.28227 0
M  V30 6253 C 582.311 1.23081 -5.19314 0
M  V30 6254 O 582.534 2.46929 -5.14181 0
M  V30 6255 O 581.468 0.71883 -5.97592 0
M  V30 6256 H 585.293 -0.651756 -2.96624 0
M  V30 6257 H 582.879 -0.384493 -1.44368 0
M  V30 6258 H 584.76 1.62046 -3.88997 0
M  V30 6259 H 583.436 1.77859 -2.70459 0
M  V30 6260 H 582.343 -0.300033 -3.72895 0
M  V30 6261 H 583.676 -0.375123 -4.90768 0
M  V30 6262 N 585.328 1.53329 -0.364422 0
M  V30 6263 C 586.574 2.02222 0.21855 0
M  V30 6264 C 586.929 1.24702 1.46517 0
M  V30 6265 O 586.222 0.331969 1.88702 0
M  V30 6266 C 586.416 3.52911 0.564661 0
M  V30 6267 C 586.245 4.45023 -0.646862 0
M  V30 6268 C 585.015 4.91838 -1.15858 0
M  V30 6269 C 587.213 4.91581 -1.51172 0
M  V30 6270 N 585.195 5.67955 -2.33025 0
M  V30 6271 C 586.566 5.66028 -2.53006 0
M  V30 6272 C 588.621 4.73656 -1.53473 0
M  V30 6273 C 587.324 6.24457 -3.56996 0
M  V30 6274 C 589.35 5.3295 -2.56356 0
M  V30 6275 C 588.712 6.07282 -3.56914 0
M  V30 6276 H 584.811 0.780832 0.0427199 0
M  V30 6277 H 587.395 1.87937 -0.508704 0
M  V30 6278 H 585.566 3.6736 1.26099 0
M  V30 6279 H 587.298 3.88528 1.13262 0
M  V30 6280 H 584.053 4.68043 -0.723393 0
M  V30 6281 H 584.477 6.10675 -2.92241 0
M  V30 6282 H 589.119 4.15714 -0.770842 0
M  V30 6283 H 586.837 6.81496 -4.34268 0
M  V30 6284 H 590.423 5.20976 -2.58989 0
M  V30 6285 H 589.303 6.52345 -4.35218 0
M  V30 6286 N 586.806 0.0935595 1.57322 0
M  V30 6287 C 587.753 -0.865935 2.1394 0
M  V30 6288 C 588.723 -1.28083 1.05754 0
M  V30 6289 O 589.908 -1.36285 1.33533 0
M  V30 6290 C 587.048 -2.12023 2.72287 0
M  V30 6291 C 586.161 -1.756 3.94701 0
M  V30 6292 C 585.296 -2.95804 4.41218 0
M  V30 6293 C 584.335 -2.555 5.56225 0
M  V30 6294 N 583.472 -3.68534 5.97601 0
M  V30 6295 H 588.312 -0.376261 2.95615 0
M  V30 6296 H 585.849 -0.174052 1.46067 0
M  V30 6297 H 587.807 -2.85477 3.04235 0
M  V30 6298 H 586.437 -2.58492 1.93343 0
M  V30 6299 H 585.489 -0.921208 3.69077 0
M  V30 6300 H 586.801 -1.41964 4.78171 0
M  V30 6301 H 585.955 -3.77513 4.74941 0
M  V30 6302 H 584.694 -3.32649 3.56645 0
M  V30 6303 H 583.699 -1.72218 5.22131 0
M  V30 6304 H 584.924 -2.19801 6.42545 0
M  V30 6305 H 582.87 -4.051 5.15974 0
M  V30 6306 H 582.787 -3.38737 6.75865 0
M  V30 6307 H 584.055 -4.50757 6.35955 0
M  V30 6308 N 588.284 -1.56567 -0.180126 0
M  V30 6309 C 589.531 -1.81492 -0.898167 0
M  V30 6310 C 589.859 -0.669225 -1.82624 0
M  V30 6311 O 589.114 0.344096 -1.92651 0
M  V30 6312 C 589.413 -3.1252 -1.73395 0
M  V30 6313 C 589.079 -4.40658 -0.955567 0
M  V30 6314 C 587.741 -4.75465 -0.740707 0
M  V30 6315 C 590.093 -5.19593 -0.408948 0
M  V30 6316 C 587.421 -5.86691 0.0320128 0
M  V30 6317 C 589.773 -6.31627 0.350638 0
M  V30 6318 C 588.437 -6.65007 0.576378 0
M  V30 6319 H 587.707 -0.664125 -0.328662 0
M  V30 6320 H 590.354 -1.908 -0.163616 0
M  V30 6321 H 588.659 -2.98515 -2.53763 0
M  V30 6322 H 590.356 -3.29013 -2.29241 0
M  V30 6323 H 586.946 -4.13352 -1.13306 0
M  V30 6324 H 591.13 -4.93104 -0.562307 0
M  V30 6325 H 586.386 -6.11016 0.216735 0
M  V30 6326 H 590.56 -6.92001 0.781497 0
M  V30 6327 H 588.187 -7.51033 1.17703 0
M  V30 6328 N 589.762 0.448376 -1.51087 0
M  V30 6329 C 591.009 1.19872 -1.63209 0
M  V30 6330 C 591.337 1.91451 -0.343062 0
M  V30 6331 O 590.592 1.83789 0.672321 0
M  V30 6332 C 590.891 2.24866 -2.77795 0
M  V30 6333 C 590.557 1.70378 -4.17471 0
M  V30 6334 C 589.219 1.55241 -4.55471 0
M  V30 6335 C 591.571 1.30203 -5.04675 0
M  V30 6336 C 588.899 0.983844 -5.78392 0
M  V30 6337 C 591.251 0.747798 -6.28165 0
M  V30 6338 C 589.915 0.583233 -6.64947 0
M  V30 6339 H 589.185 0.438642 -0.597222 0
M  V30 6340 H 591.832 0.49136 -1.85089 0
M  V30 6341 H 590.137 3.01598 -2.50092 0
M  V30 6342 H 591.834 2.82723 -2.84374 0
M  V30 6343 H 588.424 1.83134 -3.87505 0
M  V30 6344 H 592.608 1.40723 -4.75932 0
M  V30 6345 H 587.864 0.844007 -6.05546 0
M  V30 6346 H 592.038 0.427927 -6.95084 0
M  V30 6347 H 589.665 0.140532 -7.6007 0
M  V30 6348 N 591.24 1.41047 0.703093 0
M  V30 6349 C 592.465 1.43537 1.49706 0
M  V30 6350 C 592.89 0.0401853 1.88057 0
M  V30 6351 O 592.248 -0.954785 1.54122 0
M  V30 6352 C 592.296 2.3433 2.74084 0
M  V30 6353 O 591.4 1.79515 3.71279 0
M  V30 6354 H 590.741 0.487454 0.450871 0
M  V30 6355 H 593.271 1.85422 0.86486 0
M  V30 6356 H 593.281 2.49947 3.22476 0
M  V30 6357 H 591.956 3.35708 2.45506 0
M  V30 6358 H 590.533 1.7331 3.30179 0
M  V30 6359 N 592.718 -0.936591 1.26751 0
M  V30 6360 C 593.943 -1.72288 1.15462 0
M  V30 6361 C 594.368 -1.85915 -0.285887 0
M  V30 6362 O 593.726 -1.35272 -1.20711 0
M  V30 6363 C 593.774 -3.10503 1.83359 0
M  V30 6364 O 592.878 -3.96745 1.1255 0
M  V30 6365 H 592.219 -0.52843 0.402067 0
M  V30 6366 H 594.749 -1.17271 1.67656 0
M  V30 6367 H 594.759 -3.60867 1.90365 0
M  V30 6368 H 593.434 -2.99901 2.88153 0
M  V30 6369 H 592.011 -3.55191 1.13551 0
M  V30 6370 N 594.196 -1.08629 -1.14182 0
M  V30 6371 C 595.129 -0.662329 -2.18377 0
M  V30 6372 C 596.107 0.327054 -1.59277 0
M  V30 6373 O 597.291 0.230376 -1.87087 0
M  V30 6374 C 594.418 0.0254765 -3.3869 0
M  V30 6375 C 593.464 -0.924414 -4.16361 0
M  V30 6376 S 594.297 -2.43226 -4.77076 0
M  V30 6377 C 595.453 -1.75663 -6.00744 0
M  V30 6378 H 595.686 -1.54501 -2.54001 0
M  V30 6379 H 593.219 -0.901484 -1.2535 0
M  V30 6380 H 595.177 0.416032 -4.08386 0
M  V30 6381 H 593.838 0.884689 -3.01384 0
M  V30 6382 H 593.031 -0.390099 -5.02488 0
M  V30 6383 H 592.633 -1.25598 -3.5228 0
M  V30 6384 H 594.925 -1.07589 -6.68903 0
M  V30 6385 H 595.868 -2.59673 -6.58768 0
M  V30 6386 H 596.276 -1.22903 -5.50958 0
M  V30 6387 N 595.674 1.31259 -0.872281 0
M  V30 6388 C 597.085 1.78822 -0.536617 0
M  V30 6389 C 597.436 1.71855 0.946594 0
M  V30 6390 O 596.561 1.28769 1.73918 0
M  V30 6391 C 597.156 3.24698 -0.967294 0
M  V30 6392 C 595.715 3.70147 -0.683251 0
M  V30 6393 C 594.862 2.51994 -1.15733 0
M  V30 6394 H 597.813 1.18308 -1.05777 0
M  V30 6395 H 597.834 3.79386 -0.290929 0
M  V30 6396 H 597.346 3.29737 -2.04683 0
M  V30 6397 H 595.447 3.70607 0.384825 0
M  V30 6398 H 595.56 4.62183 -1.2619 0
M  V30 6399 H 593.924 2.48078 -0.577024 0
M  V30 6400 H 594.707 2.59778 -2.24434 0
M  V30 6401 N 597.152 0.631951 1.44375 0
M  V30 6402 C 598.568 0.297642 1.568 0
M  V30 6403 C 598.768 -1.19916 1.61934 0
M  V30 6404 O 597.824 -1.98324 1.56281 0
M  V30 6405 C 599.137 0.990286 2.83926 0
M  V30 6406 C 600.685 0.968507 2.97639 0
M  V30 6407 C 601.16 1.64163 4.27568 0
M  V30 6408 N 602.651 1.60826 4.34384 0
M  V30 6409 C 603.386 2.09802 5.33639 0
M  V30 6410 N 602.882 2.66973 6.39294 0
M  V30 6411 N 604.675 2.00426 5.25153 0
M  V30 6412 H 596.826 1.60353 1.39286 0
M  V30 6413 H 599.089 0.673142 0.667521 0
M  V30 6414 H 598.795 2.04519 2.8612 0
M  V30 6415 H 598.669 0.528563 3.73478 0
M  V30 6416 H 601.056 -0.0779247 2.94997 0
M  V30 6417 H 601.137 1.46873 2.09433 0
M  V30 6418 H 600.781 2.68752 4.3097 0
M  V30 6419 H 600.711 1.11624 5.14634 0
M  V30 6420 H 603.202 1.19087 3.58646 0
M  V30 6421 H 603.515 3.02074 7.11316 0
M  V30 6422 H 601.86 2.71024 6.39977 0
M  V30 6423 H 605.051 1.55483 4.41523 0
M  V30 6424 H 605.224 2.38906 6.02352 0
M  V30 6425 N 598.631 -1.53133 0.372548 0
M  V30 6426 C 599.879 -2.00958 -0.214534 0
M  V30 6427 C 600.2 -1.26135 -1.48711 0
M  V30 6428 O 599.47 -0.376597 -1.92246 0
M  V30 6429 H 598.05 -0.742456 -0.0822664 0
M  V30 6430 H 600.712 -1.88367 0.500385 0
M  V30 6431 H 599.808 -3.09031 -0.436605 0
M  V30 6432 N 600.109 -0.101901 -1.5727 0
M  V30 6433 C 601.334 0.571759 -1.99363 0
M  V30 6434 C 601.759 1.60507 -0.980768 0
M  V30 6435 O 601.117 1.81231 0.0498517 0
M  V30 6436 C 601.165 1.18996 -3.404 0
M  V30 6437 O 600.269 2.30572 -3.41922 0
M  V30 6438 H 599.61 0.144449 -0.648098 0
M  V30 6439 H 602.14 -0.185325 -2.03759 0
M  V30 6440 H 602.15 1.52962 -3.78241 0
M  V30 6441 H 600.825 0.432984 -4.1364 0
M  V30 6442 H 599.402 1.98173 -3.15883 0
M  V30 6443 N 601.587 1.56661 0.17182 0
M  V30 6444 C 602.55 1.9549 1.19651 0
M  V30 6445 C 603.55 0.838501 1.37207 0
M  V30 6446 O 604.74 1.10556 1.34622 0
M  V30 6447 C 601.872 2.24927 2.56166 0
M  V30 6448 H 603.065 2.87184 0.864007 0
M  V30 6449 H 600.618 1.50711 0.41425 0
M  V30 6450 H 601.353 1.35944 2.94431 0
M  V30 6451 H 601.138 3.06301 2.4479 0
M  V30 6452 H 602.628 2.55891 3.30014 0
M  V30 6453 N 603.065 -0.440357 1.51323 0
M  V30 6454 C 604.481 -0.7766 1.39431 0
M  V30 6455 C 604.681 -1.95838 0.474296 0
M  V30 6456 O 603.737 -2.52398 -0.0716692 0
M  V30 6457 C 605.05 -1.05981 2.81405 0
M  V30 6458 C 606.598 -1.16442 2.90534 0
M  V30 6459 C 607.073 -1.48058 4.33408 0
M  V30 6460 N 608.564 -1.54988 4.36501 0
M  V30 6461 C 609.299 -1.81017 5.44078 0
M  V30 6462 N 608.795 -2.04858 6.61819 0
M  V30 6463 N 610.588 -1.82774 5.31554 0
M  V30 6464 H 602.739 0.338006 2.09693 0
M  V30 6465 H 605.002 0.0888072 0.943831 0
M  V30 6466 H 604.708 -0.264173 3.50706 0
M  V30 6467 H 604.582 -1.98822 3.20546 0
M  V30 6468 H 606.969 -1.95068 2.21432 0
M  V30 6469 H 607.05 -0.215088 2.54894 0
M  V30 6470 H 606.694 -0.699605 5.03059 0
M  V30 6471 H 606.624 -2.44192 4.66559 0
M  V30 6472 H 609.115 -1.38479 3.51613 0
M  V30 6473 H 609.428 -2.2408 7.396 0
M  V30 6474 H 607.773 -2.02187 6.6494 0
M  V30 6475 H 610.964 -1.63665 4.38556 0
M  V30 6476 H 611.137 -2.02722 6.15474 0
M  V30 6477 N 604.543 -1.41418 -0.695603 0
M  V30 6478 C 605.792 -1.40073 -1.4513 0
M  V30 6479 C 606.105 -0.0130439 -1.95596 0
M  V30 6480 O 607.311 0.123032 -2.71221 0
M  V30 6481 C 605.767 -2.46286 -2.62433 0
M  V30 6482 C 605.375 -3.90962 -2.18753 0
M  V30 6483 C 607.119 -2.54077 -3.40066 0
M  V30 6484 C 605.026 -4.88728 -3.33015 0
M  V30 6485 H 603.956 -0.520903 -0.545138 0
M  V30 6486 H 606.607 -1.67242 -0.75515 0
M  V30 6487 H 604.989 -2.12248 -3.34315 0
M  V30 6488 H 606.163 -4.34248 -1.54161 0
M  V30 6489 H 604.478 -3.86831 -1.54114 0
M  V30 6490 H 607.075 -3.24303 -4.25125 0
M  V30 6491 H 607.418 -1.5776 -3.8525 0
M  V30 6492 H 607.951 -2.87206 -2.75241 0
M  V30 6493 H 604.69 -5.86449 -2.92844 0
M  V30 6494 H 604.21 -4.50091 -3.96457 0
M  V30 6495 H 605.889 -5.09483 -3.98793 0
M  V30 6496 N 606.021 0.929856 -1.27246 0
M  V30 6497 C 607.249 1.71144 -1.16265 0
M  V30 6498 C 607.664 1.867 0.280786 0
M  V30 6499 O 607.021 1.38249 1.19136 0
M  V30 6500 C 607.072 3.11222 -1.83911 0
M  V30 6501 O 606.793 2.96398 -3.22614 0
M  V30 6502 C 608.294 4.05541 -1.79028 0
M  V30 6503 H 605.514 0.535499 -0.404328 0
M  V30 6504 H 608.058 1.16492 -1.68077 0
M  V30 6505 H 606.213 3.6274 -1.36009 0
M  V30 6506 H 606.627 3.8494 -3.56261 0
M  V30 6507 H 608.101 5.01351 -2.30978 0
M  V30 6508 H 608.578 4.32589 -0.759168 0
M  V30 6509 H 609.184 3.59947 -2.26535 0
M  V30 6510 N 607.499 1.09233 1.13605 0
M  V30 6511 C 608.745 0.828385 1.8511 0
M  V30 6512 C 609.078 -0.64437 1.83198 0
M  V30 6513 O 608.353 -1.47428 1.26867 0
M  V30 6514 C 608.636 1.36167 3.33363 0
M  V30 6515 C 608.489 2.90038 3.438 0
M  V30 6516 C 609.808 0.993819 4.28732 0
M  V30 6517 H 606.927 0.30239 0.672108 0
M  V30 6518 H 609.569 1.35339 1.33355 0
M  V30 6519 H 607.719 0.9151 3.77569 0
M  V30 6520 H 609.391 3.43128 3.08319 0
M  V30 6521 H 607.634 3.27271 2.84739 0
M  V30 6522 H 608.305 3.22428 4.48045 0
M  V30 6523 H 610.781 1.37893 3.92587 0
M  V30 6524 H 609.657 1.39403 5.30903 0
M  V30 6525 H 609.918 -0.0982206 4.41991 0
M  V30 6526 N 608.977 -1.30795 0.87923 0
M  V30 6527 C 610.202 -2.01063 0.508769 0
M  V30 6528 C 610.627 -1.65508 -0.893803 0
M  V30 6529 O 609.985 -0.868616 -1.59138 0
M  V30 6530 C 610.033 -3.54054 0.683991 0
M  V30 6531 O 609.137 -4.11498 -0.272654 0
M  V30 6532 H 608.478 -0.632786 0.201191 0
M  V30 6533 H 611.008 -1.66776 1.18519 0
M  V30 6534 H 611.018 -4.03845 0.580798 0
M  V30 6535 H 609.693 -3.79271 1.70665 0
M  V30 6536 H 608.27 -3.72695 -0.12364 0
M  V30 6537 N 610.455 -0.639598 -1.44038 0
M  V30 6538 C 611.402 0.0602458 -2.30721 0
M  V30 6539 C 612.372 0.828352 -1.43971 0
M  V30 6540 O 613.557 0.807693 -1.72861 0
M  V30 6541 C 610.697 1.03008 -3.29368 0
M  V30 6542 C 609.81 0.259502 -4.3122 0
M  V30 6543 C 608.945 1.22191 -5.16955 0
M  V30 6544 C 607.984 0.440978 -6.10509 0
M  V30 6545 N 607.121 1.35428 -6.88915 0
M  V30 6546 H 611.961 -0.684867 -2.90023 0
M  V30 6547 H 609.498 -0.349509 -1.42888 0
M  V30 6548 H 611.456 1.60583 -3.85057 0
M  V30 6549 H 610.086 1.74222 -2.71747 0
M  V30 6550 H 609.138 -0.432317 -3.77935 0
M  V30 6551 H 610.45 -0.348347 -4.97582 0
M  V30 6552 H 609.604 1.86873 -5.77203 0
M  V30 6553 H 608.343 1.86367 -4.50687 0
M  V30 6554 H 607.348 -0.219279 -5.49363 0
M  V30 6555 H 608.573 -0.196192 -6.78817 0
M  V30 6556 H 606.519 1.9831 -6.25307 0
M  V30 6557 H 606.436 0.800657 -7.51748 0
M  V30 6558 H 607.704 1.98967 -7.53679 0
M  V30 6559 N 611.933 1.52934 -0.380664 0
M  V30 6560 C 613.21 1.93845 0.261417 0
M  V30 6561 C 613.59 1.31544 1.65104 0
M  V30 6562 O 612.938 0.480234 2.23397 0
M  V30 6563 C 613.148 3.47739 0.296466 0
M  V30 6564 C 614.496 4.21284 0.529578 0
M  V30 6565 O 615.52 3.54199 0.377041 0
M  V30 6566 O 614.379 5.40195 0.827753 0
M  V30 6567 H 611.473 0.811318 0.160285 0
M  V30 6568 H 614.019 1.64042 -0.434544 0
M  V30 6569 H 612.791 3.85395 -0.67724 0
M  V30 6570 H 612.414 3.8382 1.0377 0
M  V30 6571 N 613.412 0.11024 1.57214 0
M  V30 6572 C 614.344 -0.873497 2.11902 0
M  V30 6573 C 615.357 -1.23588 1.05971 0
M  V30 6574 O 616.546 -1.18636 1.33371 0
M  V30 6575 C 613.646 -2.17805 2.59643 0
M  V30 6576 C 612.819 -1.98869 3.89576 0
M  V30 6577 C 611.878 -3.12974 4.23006 0
M  V30 6578 O 610.904 -2.86272 4.91973 0
M  V30 6579 N 612.106 -4.39167 3.79622 0
M  V30 6580 H 614.871 -0.406317 2.96933 0
M  V30 6581 H 612.432 -0.074437 1.61729 0
M  V30 6582 H 614.424 -2.93117 2.79042 0
M  V30 6583 H 612.994 -2.55899 1.7954 0
M  V30 6584 H 612.214 -1.078 3.79174 0
M  V30 6585 H 613.502 -1.83512 4.74553 0
M  V30 6586 H 612.9 -4.63739 3.2398 0
M  V30 6587 H 611.457 -5.11379 4.04147 0
M  V30 6588 N 614.89 -1.56749 -0.16351 0
M  V30 6589 C 616.115 -1.86938 -0.898264 0
M  V30 6590 C 616.54 -0.697456 -1.74692 0
M  V30 6591 O 615.898 0.353327 -1.77824 0
M  V30 6592 C 615.946 -3.15599 -1.74441 0
M  V30 6593 O 615.05 -2.98371 -2.8469 0
M  V30 6594 H 614.391 -0.614659 -0.251178 0
M  V30 6595 H 616.921 -2.03979 -0.159298 0
M  V30 6596 H 616.931 -3.47202 -2.14277 0
M  V30 6597 H 615.606 -4.00505 -1.1211 0
M  V30 6598 H 614.183 -2.7814 -2.4838 0
M  V30 6599 N 616.368 0.432326 -1.51554 0
M  V30 6600 C 617.593 1.20824 -1.68571 0
M  V30 6601 C 618.018 1.84126 -0.384596 0
M  V30 6602 O 617.376 1.69025 0.655751 0
M  V30 6603 C 617.424 2.26429 -2.80646 0
M  V30 6604 O 616.528 3.32032 -2.44598 0
M  V30 6605 H 615.869 0.353765 -0.561913 0
M  V30 6606 H 618.399 0.509916 -1.98144 0
M  V30 6607 H 618.409 2.71133 -3.04878 0
M  V30 6608 H 617.084 1.79733 -3.75058 0
M  V30 6609 H 615.661 2.92769 -2.30956 0
M  V30 6610 N 617.846 1.41785 0.688094 0
M  V30 6611 C 619.086 1.43018 1.46032 0
M  V30 6612 C 619.45 0.0402632 1.91958 0
M  V30 6613 O 620.651 -0.0726425 2.68702 0
M  V30 6614 C 618.922 2.4151 2.63453 0
M  V30 6615 S 620.481 2.61335 3.5249 0
M  V30 6616 H 617.299 0.506546 0.498931 0
M  V30 6617 H 619.901 1.78283 0.80221 0
M  V30 6618 H 618.605 3.41286 2.27929 0
M  V30 6619 H 618.136 2.07624 3.34149 0
M  V30 6620 H 620.151 1.88637 4.58945 0
M  V30 6621 N 619.324 -0.923095 1.27737 0
M  V30 6622 C 620.552 -1.70525 1.17171 0
M  V30 6623 C 620.967 -1.86847 -0.270881 0
M  V30 6624 O 620.324 -1.38879 -1.18401 0
M  V30 6625 C 620.375 -3.10242 1.85559 0
M  V30 6626 O 620.096 -2.94683 3.24182 0
M  V30 6627 C 621.597 -4.04586 1.81176 0
M  V30 6628 H 618.817 -0.533347 0.407163 0
M  V30 6629 H 621.361 -1.15599 1.68692 0
M  V30 6630 H 619.516 -3.62014 1.3793 0
M  V30 6631 H 619.93 -3.83045 3.58297 0
M  V30 6632 H 621.404 -5.00119 2.33633 0
M  V30 6633 H 621.881 -4.3218 0.782099 0
M  V30 6634 H 622.487 -3.58741 2.2844 0
M  V30 6635 N 620.802 -1.09834 -1.13024 0
M  V30 6636 C 622.03 -0.858902 -1.8823 0
M  V30 6637 C 622.445 0.590164 -1.79339 0
M  V30 6638 O 621.802 1.4065 -1.16292 0
M  V30 6639 C 621.853 -1.29066 -3.37675 0
M  V30 6640 O 621.574 -2.6829 -3.46341 0
M  V30 6641 C 623.075 -1.08421 -4.29837 0
M  V30 6642 H 620.295 -0.308713 -0.595766 0
M  V30 6643 H 622.839 -1.4614 -1.4305 0
M  V30 6644 H 620.994 -0.731961 -3.80422 0
M  V30 6645 H 621.408 -2.86598 -4.39274 0
M  V30 6646 H 622.882 -1.43553 -5.33007 0
M  V30 6647 H 623.359 -0.0223315 -4.39194 0
M  V30 6648 H 623.965 -1.62907 -3.92863 0
M  V30 6649 N 622.28 1.30327 -0.886154 0
M  V30 6650 C 623.243 2.26376 -0.358687 0
M  V30 6651 C 624.243 1.52845 0.499498 0
M  V30 6652 O 625.433 1.71483 0.306485 0
M  V30 6653 C 622.565 3.37379 0.488726 0
M  V30 6654 H 623.758 2.74547 -1.20681 0
M  V30 6655 H 621.311 1.41536 -0.663113 0
M  V30 6656 H 622.046 2.94526 1.35739 0
M  V30 6657 H 621.831 3.91897 -0.126003 0
M  V30 6658 H 623.321 4.08868 0.84952 0
M  V30 6659 N 623.758 0.647228 1.43697 0
M  V30 6660 C 625.174 0.314256 1.56476 0
M  V30 6661 C 625.374 -1.18191 1.63196 0
M  V30 6662 O 624.43 -1.96655 1.58376 0
M  V30 6663 C 625.743 1.02034 2.82859 0
M  V30 6664 C 627.291 1.00002 2.96595 0
M  V30 6665 C 627.766 1.68689 4.25803 0
M  V30 6666 N 629.257 1.65424 4.32654 0
M  V30 6667 C 629.992 2.1545 5.31384 0
M  V30 6668 N 629.488 2.73738 6.36427 0
M  V30 6669 N 631.281 2.05985 5.22998 0
M  V30 6670 H 623.432 1.61821 1.37578 0
M  V30 6671 H 625.695 0.680184 0.660344 0
M  V30 6672 H 625.401 2.07542 2.83935 0
M  V30 6673 H 625.275 0.568146 3.72897 0
M  V30 6674 H 627.662 -0.0466319 2.95063 0
M  V30 6675 H 627.743 1.49086 2.07863 0
M  V30 6676 H 627.387 2.73308 4.28095 0
M  V30 6677 H 627.317 1.17076 5.13421 0
M  V30 6678 H 629.808 1.22884 3.57363 0
M  V30 6679 H 630.121 3.09602 7.08072 0
M  V30 6680 H 628.466 2.77796 6.37067 0
M  V30 6681 H 631.657 1.60157 4.39849 0
M  V30 6682 H 631.83 2.45281 5.99784 0
M  V30 6683 N 625.236 -1.5273 0.388769 0
M  V30 6684 C 626.482 -2.01871 -0.193877 0
M  V30 6685 C 626.815 -1.27475 -1.46505 0
M  V30 6686 O 626.09 -0.375063 -1.90849 0
M  V30 6687 C 626.373 -3.5712 -0.462336 0
M  V30 6688 C 626.226 -4.42186 0.824091 0
M  V30 6689 C 627.545 -4.21881 -1.25319 0
M  V30 6690 H 624.664 -0.733764 -0.0689899 0
M  V30 6691 H 627.306 -1.82796 0.518231 0
M  V30 6692 H 625.456 -3.73504 -1.06896 0
M  V30 6693 H 627.128 -4.37554 1.46096 0
M  V30 6694 H 625.371 -4.09219 1.43952 0
M  V30 6695 H 626.042 -5.48828 0.590905 0
M  V30 6696 H 628.518 -4.0947 -0.73981 0
M  V30 6697 H 627.394 -5.30487 -1.40977 0
M  V30 6698 H 627.655 -3.79478 -2.26824 0
M  V30 6699 N 626.714 -0.118576 -1.57153 0
M  V30 6700 C 628.13 0.238014 -1.57815 0
M  V30 6701 C 628.33 1.66747 -1.13127 0
M  V30 6702 O 627.386 2.38867 -0.818462 0
M  V30 6703 C 628.699 0.00508207 -3.007 0
M  V30 6704 C 630.247 0.0710139 -3.12919 0
M  V30 6705 C 630.722 -0.13422 -4.57803 0
M  V30 6706 N 632.213 -0.0801755 -4.63131 0
M  V30 6707 C 632.948 -0.213885 -5.73001 0
M  V30 6708 N 632.444 -0.403742 -6.91623 0
M  V30 6709 N 634.237 -0.15349 -5.6189 0
M  V30 6710 H 626.388 -1.05226 -1.84503 0
M  V30 6711 H 628.651 -0.414318 -0.852669 0
M  V30 6712 H 628.357 -0.983125 -3.3768 0
M  V30 6713 H 628.231 0.73714 -3.69927 0
M  V30 6714 H 630.618 1.04975 -2.75798 0
M  V30 6715 H 630.699 -0.692918 -2.46236 0
M  V30 6716 H 630.343 -1.10992 -4.95624 0
M  V30 6717 H 630.273 0.649692 -5.22577 0
M  V30 6718 H 632.764 0.0630689 -3.77847 0
M  V30 6719 H 633.077 -0.496645 -7.71202 0
M  V30 6720 H 631.422 -0.43971 -6.93608 0
M  V30 6721 H 634.613 -0.00613174 -4.681 0
M  V30 6722 H 634.786 -0.261138 -6.47474 0
M  V30 6723 N 628.193 1.56834 0.155195 0
M  V30 6724 C 629.418 1.87412 0.888337 0
M  V30 6725 C 629.843 0.70671 1.74319 0
M  V30 6726 O 629.201 -0.343892 1.78009 0
M  V30 6727 C 629.249 3.1652 1.72765 0
M  V30 6728 O 628.353 2.99877 2.83103 0
M  V30 6729 H 627.694 0.615983 0.247914 0
M  V30 6730 H 630.224 2.04061 0.148478 0
M  V30 6731 H 630.234 3.48334 2.12433 0
M  V30 6732 H 628.909 4.01094 1.09985 0
M  V30 6733 H 627.486 2.79453 2.46902 0
M  V30 6734 N 629.671 -0.424282 1.51781 0
M  V30 6735 C 630.618 -1.51591 1.74037 0
M  V30 6736 C 631.588 -1.55556 0.582358 0
M  V30 6737 O 632.773 -1.72364 0.818245 0
M  V30 6738 C 629.913 -2.89188 1.8832 0
M  V30 6739 C 629.026 -2.9465 3.1592 0
M  V30 6740 C 628.161 -4.23452 3.20721 0
M  V30 6741 C 627.2 -4.22831 4.42584 0
M  V30 6742 N 626.337 -5.43178 4.44862 0
M  V30 6743 H 631.177 -1.31917 2.67212 0
M  V30 6744 H 628.714 -0.640599 1.32419 0
M  V30 6745 H 630.672 -3.69044 1.94583 0
M  V30 6746 H 629.302 -3.07392 0.985402 0
M  V30 6747 H 628.354 -2.07378 3.18902 0
M  V30 6748 H 629.666 -2.90055 4.05795 0
M  V30 6749 H 628.82 -5.1169 3.25973 0
M  V30 6750 H 627.559 -4.30722 2.28757 0
M  V30 6751 H 626.564 -3.32984 4.37495 0
M  V30 6752 H 627.789 -4.17213 5.35826 0
M  V30 6753 H 625.735 -5.51145 3.55775 0
M  V30 6754 H 625.652 -5.40515 5.28563 0
M  V30 6755 H 626.92 -6.33412 4.54324 0
M  V30 6756 N 631.149 -1.42148 -0.680565 0
M  V30 6757 C 632.374 -1.45901 -1.47403 0
M  V30 6758 C 632.799 -0.0700985 -1.87969 0
M  V30 6759 O 632.157 0.930145 -1.55621 0
M  V30 6760 C 632.205 -2.38661 -2.70321 0
M  V30 6761 O 631.309 -1.85399 -3.68376 0
M  V30 6762 H 630.65 -0.494565 -0.443059 0
M  V30 6763 H 633.18 -1.86774 -0.835251 0
M  V30 6764 H 633.19 -2.55046 -3.18458 0
M  V30 6765 H 631.865 -3.39571 -2.40134 0
M  V30 6766 H 630.442 -1.78541 -3.2738 0
M  V30 6767 N 632.627 0.916307 -1.28225 0
M  V30 6768 C 633.874 1.66518 -1.1523 0
M  V30 6769 C 634.202 1.92178 0.299632 0
M  V30 6770 O 633.457 1.51842 1.2346 0
M  V30 6771 C 633.756 3.03125 -1.8934 0
M  V30 6772 C 633.422 2.97135 -3.39148 0
M  V30 6773 C 632.084 2.95208 -3.80007 0
M  V30 6774 C 634.436 2.87574 -4.34685 0
M  V30 6775 C 631.764 2.81518 -5.14747 0
M  V30 6776 C 634.116 2.75424 -5.69495 0
M  V30 6777 C 632.78 2.71854 -6.09632 0
M  V30 6778 H 632.05 0.609334 -0.421655 0
M  V30 6779 H 634.697 1.06776 -1.58969 0
M  V30 6780 H 633.002 3.66639 -1.38143 0
M  V30 6781 H 634.699 3.59968 -1.76704 0
M  V30 6782 H 631.289 2.99428 -3.06661 0
M  V30 6783 H 635.473 2.88152 -4.04082 0
M  V30 6784 H 630.729 2.77148 -5.44976 0
M  V30 6785 H 634.903 2.66993 -6.43185 0
M  V30 6786 H 632.53 2.61003 -7.1399 0
M  V30 6787 N 634.105 1.10431 1.1244 0
M  V30 6788 C 635.035 0.775143 2.20258 0
M  V30 6789 C 636.016 -0.25186 1.68225 0
M  V30 6790 O 637.201 -0.117637 1.93843 0
M  V30 6791 C 634.331 0.206133 3.46688 0
M  V30 6792 C 633.285 1.16382 4.11873 0
M  V30 6793 C 632.611 0.456014 5.32752 0
M  V30 6794 C 633.911 2.5104 4.58013 0
M  V30 6795 H 635.605 1.67665 2.4805 0
M  V30 6796 H 633.151 0.807595 1.19222 0
M  V30 6797 H 635.104 -0.036291 4.21384 0
M  V30 6798 H 633.828 -0.730614 3.18323 0
M  V30 6799 H 632.487 1.39169 3.39157 0
M  V30 6800 H 632.135 -0.485203 5.00654 0
M  V30 6801 H 631.835 1.09466 5.77314 0
M  V30 6802 H 633.359 0.222135 6.10196 0
M  V30 6803 H 634.773 2.32401 5.24083 0
M  V30 6804 H 633.17 3.10789 5.13352 0
M  V30 6805 H 634.24 3.11039 3.71998 0
M  V30 6806 N 635.583 -1.29855 0.893053 0
M  V30 6807 C 636.515 -2.26911 0.32311 0
M  V30 6808 C 637.528 -1.54039 -0.526858 0
M  V30 6809 O 638.717 -1.75132 -0.345095 0
M  V30 6810 C 635.817 -3.34266 -0.558509 0
M  V30 6811 C 634.99 -4.36601 0.264222 0
M  V30 6812 C 634.049 -5.23326 -0.549171 0
M  V30 6813 O 633.075 -5.69192 0.0309883 0
M  V30 6814 N 634.277 -5.50008 -1.85664 0
M  V30 6815 H 637.042 -2.76455 1.15726 0
M  V30 6816 H 634.603 -1.4312 0.756859 0
M  V30 6817 H 636.595 -3.89211 -1.1089 0
M  V30 6818 H 635.165 -2.8459 -1.29334 0
M  V30 6819 H 634.385 -3.81409 0.996046 0
M  V30 6820 H 635.673 -5.02019 0.827906 0
M  V30 6821 H 635.071 -5.14542 -2.35081 0
M  V30 6822 H 633.628 -6.07796 -2.35431 0
M  V30 6823 N 637.061 -0.65484 -1.43351 0
M  V30 6824 C 638.307 -0.169142 -2.02093 0
M  V30 6825 C 638.64 1.21431 -1.51553 0
M  V30 6826 O 637.915 1.81105 -0.709317 0
M  V30 6827 C 638.198 -0.181775 -3.59641 0
M  V30 6828 C 638.051 -1.59926 -4.20409 0
M  V30 6829 C 639.37 0.480945 -4.37464 0
M  V30 6830 H 636.489 -0.0629371 -0.734308 0
M  V30 6831 H 639.131 -0.835833 -1.70628 0
M  V30 6832 H 637.281 0.385918 -3.86578 0
M  V30 6833 H 638.953 -2.21766 -4.04497 0
M  V30 6834 H 637.196 -2.14605 -3.76998 0
M  V30 6835 H 637.867 -1.55994 -5.295 0
M  V30 6836 H 640.343 -0.00208273 -4.161 0
M  V30 6837 H 639.219 0.441384 -5.47122 0
M  V30 6838 H 639.48 1.55533 -4.13838 0
M  V30 6839 N 638.539 1.52521 -0.396863 0
M  V30 6840 C 639.779 2.03583 0.182578 0
M  V30 6841 C 640.143 1.2766 1.43412 0
M  V30 6842 O 641.344 1.68884 2.09121 0
M  V30 6843 C 639.615 3.54724 0.436519 0
M  V30 6844 S 641.174 4.27598 0.985163 0
M  V30 6845 H 637.992 0.709186 0.0507529 0
M  V30 6846 H 640.594 1.87693 -0.546955 0
M  V30 6847 H 639.298 4.07567 -0.481343 0
M  V30 6848 H 638.829 3.74834 1.19427 0
M  V30 6849 H 640.844 4.41393 2.26686 0
M  V30 6850 N 640.017 0.126909 1.57088 0
M  V30 6851 C 641.257 -0.53216 1.97351 0
M  V30 6852 C 641.621 -1.63342 1.00913 0
M  V30 6853 O 642.822 -2.35194 1.30144 0
M  V30 6854 C 641.093 -1.04385 3.41817 0
M  V30 6855 S 642.652 -1.71033 4.04095 0
M  V30 6856 H 639.47 -0.172724 0.689701 0
M  V30 6857 H 642.072 0.213865 1.94327 0
M  V30 6858 H 640.776 -0.231289 4.09748 0
M  V30 6859 H 640.307 -1.82496 3.48509 0
M  V30 6860 H 642.322 -2.99656 3.95501 0
M  V30 6861 N 641.495 -1.56914 -0.146875 0
M  V30 6862 C 642.735 -1.85163 -0.86568 0
M  V30 6863 C 643.099 -0.711215 -1.78342 0
M  V30 6864 O 644.3 -0.874754 -2.54168 0
M  V30 6865 C 642.571 -3.18593 -1.61967 0
M  V30 6866 S 644.13 -3.68397 -2.38388 0
M  V30 6867 H 640.948 -0.6494 -0.289483 0
M  V30 6868 H 643.55 -1.95096 -0.125679 0
M  V30 6869 H 642.254 -3.99562 -0.93694 0
M  V30 6870 H 641.785 -3.11666 -2.40058 0
M  V30 6871 H 643.8 -3.37672 -3.63582 0
M  V30 6872 N 642.974 0.416227 -1.52004 0
M  V30 6873 C 644.22 1.16555 -1.6596 0
M  V30 6874 C 644.553 1.90347 -0.384906 0
M  V30 6875 O 643.828 1.84474 0.616405 0
M  V30 6876 C 644.111 2.1657 -2.87696 0
M  V30 6877 C 643.964 1.46722 -4.25197 0
M  V30 6878 C 645.283 3.17321 -3.04951 0
M  V30 6879 H 642.402 0.422369 -0.603965 0
M  V30 6880 H 645.044 0.452141 -1.84542 0
M  V30 6881 H 643.194 2.77411 -2.71985 0
M  V30 6882 H 644.866 0.89056 -4.52622 0
M  V30 6883 H 643.109 0.769263 -4.26925 0
M  V30 6884 H 643.78 2.19665 -5.0641 0
M  V30 6885 H 646.256 2.66552 -3.19514 0
M  V30 6886 H 645.132 3.84573 -3.91656 0
M  V30 6887 H 645.393 3.84643 -2.17951 0
M  V30 6888 N 644.452 1.42507 0.673017 0
M  V30 6889 C 645.7 1.42789 1.43023 0
M  V30 6890 C 646.021 0.0459738 1.94946 0
M  V30 6891 O 645.291 -0.915765 1.73178 0
M  V30 6892 H 643.871 0.525657 0.530748 0
M  V30 6893 H 646.533 1.77944 0.795113 0
M  V30 6894 H 645.629 2.12872 2.28237 0
M  V30 6895 N 645.93 -0.909495 1.28709 0
M  V30 6896 C 647.341 -1.47419 1.14563 0
M  V30 6897 C 647.692 -1.94432 -0.262832 0
M  V30 6898 O 646.817 -1.82842 -1.15748 0
M  V30 6899 C 647.412 -2.67933 2.07358 0
M  V30 6900 C 645.971 -3.20568 1.97264 0
M  V30 6901 C 645.118 -1.93269 1.98852 0
M  V30 6902 H 648.069 -0.721787 1.41336 0
M  V30 6903 H 648.09 -3.43339 1.64007 0
M  V30 6904 H 647.602 -2.33685 3.09859 0
M  V30 6905 H 645.703 -3.59531 0.978157 0
M  V30 6906 H 645.816 -3.85529 2.84436 0
M  V30 6907 H 644.18 -2.10553 1.43317 0
M  V30 6908 H 644.963 -1.61312 3.0304 0
M  V30 6909 N 647.408 -1.11026 -1.11852 0
M  V30 6910 C 648.633 -0.879064 -1.87849 0
M  V30 6911 C 649.058 0.565406 -1.79401 0
M  V30 6912 O 648.416 1.39886 -1.15333 0
M  V30 6913 C 648.464 -1.33985 -3.34784 0
M  V30 6914 O 647.568 -0.508803 -4.09249 0
M  V30 6915 H 646.909 -0.316992 -0.583448 0
M  V30 6916 H 649.439 -1.47863 -1.41413 0
M  V30 6917 H 649.449 -1.33248 -3.85628 0
M  V30 6918 H 648.124 -2.39172 -3.40249 0
M  V30 6919 H 646.701 -0.581913 -3.68332 0
M  V30 6920 N 648.886 1.2938 -0.899927 0
M  V30 6921 C 650.114 1.99691 -0.541386 0
M  V30 6922 C 650.529 1.67355 0.873936 0
M  V30 6923 O 649.886 0.918728 1.57688 0
M  V30 6924 C 649.937 3.54168 -0.72438 0
M  V30 6925 O 649.658 3.85359 -2.08399 0
M  V30 6926 C 651.159 4.41746 -0.370819 0
M  V30 6927 H 648.379 0.638037 -0.207726 0
M  V30 6928 H 650.923 1.6491 -1.20934 0
M  V30 6929 H 649.078 3.87261 -0.103607 0
M  V30 6930 H 649.492 4.80032 -2.11352 0
M  V30 6931 H 650.966 5.49256 -0.549693 0
M  V30 6932 H 651.443 4.33712 0.692148 0
M  V30 6933 H 652.049 4.14125 -0.968543 0
M  V30 6934 N 650.364 0.662433 1.43002 0
M  V30 6935 C 651.775 0.258315 1.84904 0
M  V30 6936 C 652.126 -1.19703 1.55453 0
M  V30 6937 O 651.251 -1.91484 1.00811 0
M  V30 6938 C 651.846 0.462047 3.35635 0
M  V30 6939 C 650.405 0.112165 3.76233 0
M  V30 6940 C 649.552 0.760479 2.66668 0
M  V30 6941 H 652.503 0.865467 1.33024 0
M  V30 6942 H 652.524 -0.289646 3.79396 0
M  V30 6943 H 652.036 1.52135 3.57039 0
M  V30 6944 H 650.137 -0.944179 3.60439 0
M  V30 6945 H 650.25 0.544058 4.76001 0
M  V30 6946 H 648.614 0.192887 2.53969 0
M  V30 6947 H 649.397 1.82299 2.90898 0
M  V30 6948 N 651.842 -1.52309 0.404946 0
M  V30 6949 C 653.067 -2.06666 -0.1743 0
M  V30 6950 C 653.492 -1.27341 -1.38441 0
M  V30 6951 O 652.85 -0.302539 -1.78758 0
M  V30 6952 C 652.898 -3.57014 -0.507262 0
M  V30 6953 O 652.002 -3.80144 -1.59889 0
M  V30 6954 H 651.343 -0.663807 -0.0160273 0
M  V30 6955 H 653.873 -1.96297 0.576937 0
M  V30 6956 H 653.883 -4.00724 -0.767098 0
M  V30 6957 H 652.558 -4.14184 0.377368 0
M  V30 6958 H 651.135 -3.48316 -1.33155 0
M  V30 6959 N 653.32 -0.135238 -1.57019 0
M  V30 6960 C 654.25 0.805235 -2.19176 0
M  V30 6961 C 655.231 1.2656 -1.13651 0
M  V30 6962 O 656.416 1.32528 -1.4195 0
M  V30 6963 C 653.546 2.04914 -2.80406 0
M  V30 6964 C 652.5 1.72598 -3.91655 0
M  V30 6965 C 651.826 3.04154 -4.39766 0
M  V30 6966 C 653.126 0.981709 -5.12991 0
M  V30 6967 H 654.82 0.287232 -2.98019 0
M  V30 6968 H 652.366 0.136714 -1.4335 0
M  V30 6969 H 654.319 2.71178 -3.22553 0
M  V30 6970 H 653.043 2.59067 -1.98877 0
M  V30 6971 H 651.702 1.08717 -3.50109 0
M  V30 6972 H 651.35 3.56274 -3.55075 0
M  V30 6973 H 651.05 2.83299 -5.14796 0
M  V30 6974 H 652.574 3.71509 -4.84576 0
M  V30 6975 H 653.988 1.5462 -5.52056 0
M  V30 6976 H 652.385 0.873533 -5.93708 0
M  V30 6977 H 653.455 -0.0286887 -4.84892 0
M  V30 6978 N 654.798 1.5699 0.138552 0
M  V30 6979 C 656.075 1.74741 0.87891 0
M  V30 6980 C 656.455 0.705522 1.98961 0
M  V30 6981 O 655.803 -0.274066 2.2685 0
M  V30 6982 C 656.013 3.1909 1.4136 0
M  V30 6983 C 657.361 3.81023 1.87368 0
M  V30 6984 O 658.385 3.22571 1.51084 0
M  V30 6985 O 657.244 4.83722 2.54312 0
M  V30 6986 H 654.338 0.714781 0.415953 0
M  V30 6987 H 656.884 1.69248 0.123817 0
M  V30 6988 H 655.656 3.86424 0.61579 0
M  V30 6989 H 655.279 3.29043 2.23196 0
M  V30 6990 N 656.276 -0.40816 1.52223 0
M  V30 6991 C 657.223 -1.49737 1.75635 0
M  V30 6992 C 658.193 -1.5493 0.598824 0
M  V30 6993 O 659.378 -1.71487 0.83648 0
M  V30 6994 C 656.518 -2.87174 1.91376 0
M  V30 6995 C 655.631 -2.91283 3.19027 0
M  V30 6996 C 654.766 -4.20026 3.25195 0
M  V30 6997 C 653.805 -4.18113 4.47044 0
M  V30 6998 N 652.942 -5.38429 4.50598 0
M  V30 6999 H 657.782 -1.29075 2.68596 0
M  V30 7000 H 655.319 -0.626518 1.33091 0
M  V30 7001 H 657.277 -3.66959 1.98486 0
M  V30 7002 H 655.907 -3.06329 1.01795 0
M  V30 7003 H 654.959 -2.03984 3.21084 0
M  V30 7004 H 656.271 -2.85734 4.08849 0
M  V30 7005 H 655.425 -5.08204 3.31382 0
M  V30 7006 H 654.164 -4.28271 2.33313 0
M  V30 7007 H 653.169 -3.28325 4.41002 0
M  V30 7008 H 654.394 -4.11507 5.40221 0
M  V30 7009 H 652.34 -5.4734 3.616 0
M  V30 7010 H 652.257 -5.34879 5.34266 0
M  V30 7011 H 653.525 -6.28557 4.61016 0
M  V30 7012 N 657.755 -1.42862 -0.66545 0
M  V30 7013 C 658.703 -1.47319 -1.8 0
M  V30 7014 C 659.697 -0.347963 -1.65788 0
M  V30 7015 O 660.903 -0.521406 -1.72283 0
M  V30 7016 H 657.278 -0.461588 -0.593667 0
M  V30 7017 H 659.249 -2.42876 -1.7336 0
M  V30 7018 C 657.998 -1.40152 -3.18203 0
M  V30 7019 H 657.321 -2.26035 -3.2977 0
M  V30 7020 H 658.761 -1.47331 -3.9758 0
M  V30 7021 C 657.22 -0.117493 -3.36695 0
M  V30 7022 O 657.75 0.826058 -3.93115 0
M  V30 7023 N 655.956 -0.0316218 -2.90583 0
M  V30 7024 H 655.503 -0.800247 -2.44855 0
M  V30 7025 H 655.461 0.826835 -3.03333 0
M  V30 7026 N 659.233 0.902656 -1.29189 0
M  V30 7027 C 660.183 1.99326 -1.10695 0
M  V30 7028 C 661.167 1.60877 -0.0272521 0
M  V30 7029 O 662.359 1.75245 -0.248635 0
M  V30 7030 C 659.488 3.34265 -0.78244 0
M  V30 7031 C 658.574 3.79081 -1.90153 0
M  V30 7032 N 658.965 3.96162 -3.14466 0
M  V30 7033 C 657.263 4.08333 -1.79389 0
M  V30 7034 C 657.964 4.3388 -3.87458 0
M  V30 7035 N 656.94 4.42759 -3.15381 0
M  V30 7036 H 660.742 2.10597 -2.05003 0
M  V30 7037 H 658.256 1.09127 -1.20271 0
M  V30 7038 H 660.253 4.12097 -0.630996 0
M  V30 7039 H 658.913 3.2434 0.152754 0
M  V30 7040 H 659.924 3.81775 -3.49954 0
M  V30 7041 H 656.601 4.06982 -0.931217 0
M  V30 7042 H 657.991 4.54965 -4.94425 0
M  V30 7043 N 660.711 1.11618 1.11262 0
M  V30 7044 C 661.643 0.734015 2.17129 0
M  V30 7045 C 662.656 -0.235243 1.61091 0
M  V30 7046 O 663.845 -0.0178597 1.78491 0
M  V30 7047 C 660.945 0.0643682 3.38839 0
M  V30 7048 C 660.118 1.06092 4.24339 0
M  V30 7049 C 659.177 0.420482 5.24517 0
M  V30 7050 O 658.203 1.07495 5.58957 0
M  V30 7051 N 659.405 -0.815828 5.74739 0
M  V30 7052 H 662.17 1.64492 2.50524 0
M  V30 7053 H 659.731 1.00664 1.26801 0
M  V30 7054 H 661.723 -0.375851 4.02951 0
M  V30 7055 H 660.293 -0.749147 3.03491 0
M  V30 7056 H 659.513 1.67903 3.56654 0
M  V30 7057 H 660.801 1.73507 4.78302 0
M  V30 7058 H 660.199 -1.36668 5.48943 0
M  V30 7059 H 658.756 -1.199 6.40677 0
M  V30 7060 N 662.189 -1.289 0.906776 0
M  V30 7061 C 663.435 -1.95558 0.53712 0
M  V30 7062 C 663.768 -1.71262 -0.915582 0
M  V30 7063 O 663.043 -1.02961 -1.65013 0
M  V30 7064 C 663.326 -3.50198 0.838645 0
M  V30 7065 C 663.179 -3.83923 2.34357 0
M  V30 7066 C 664.498 -4.38861 0.329988 0
M  V30 7067 H 661.617 -0.710289 0.196617 0
M  V30 7068 H 664.259 -1.52392 1.13475 0
M  V30 7069 H 662.409 -3.87096 0.330024 0
M  V30 7070 H 664.081 -3.56933 2.92227 0
M  V30 7071 H 662.324 -3.31215 2.80141 0
M  V30 7072 H 662.995 -4.91883 2.5051 0
M  V30 7073 H 665.471 -4.08996 0.765609 0
M  V30 7074 H 664.347 -5.45931 0.570105 0
M  V30 7075 H 664.608 -4.35352 -0.769511 0
M  V30 7076 N 663.667 -0.670007 -1.42649 0
M  V30 7077 C 665.078 -0.268118 -1.84765 0
M  V30 7078 C 665.429 1.18877 -1.56086 0
M  V30 7079 O 664.554 1.90947 -1.01825 0
M  V30 7080 C 665.149 -0.47984 -3.35385 0
M  V30 7081 C 663.708 -0.132116 -3.76168 0
M  V30 7082 C 662.855 -0.774611 -2.66261 0
M  V30 7083 H 665.806 -0.872509 -1.32563 0
M  V30 7084 H 665.827 0.269522 -3.79544 0
M  V30 7085 H 665.339 -1.54026 -3.56227 0
M  V30 7086 H 663.44 0.92505 -3.60934 0
M  V30 7087 H 663.553 -0.569294 -4.75706 0
M  V30 7088 H 661.917 -0.206353 -2.53863 0
M  V30 7089 H 662.7 -1.83839 -2.89928 0
M  V30 7090 N 665.145 1.52092 -0.413018 0
M  V30 7091 C 666.373 2.06274 0.160881 0
M  V30 7092 C 666.788 1.28273 1.38533 0
M  V30 7093 O 666.145 0.33563 1.79387 0
M  V30 7094 C 666.196 3.57921 0.507443 0
M  V30 7095 O 665.917 4.32971 -0.668388 0
M  V30 7096 C 667.418 4.28533 1.13465 0
M  V30 7097 H 664.638 0.67074 0.0186759 0
M  V30 7098 H 667.182 1.95951 -0.585092 0
M  V30 7099 H 665.337 3.68238 1.20331 0
M  V30 7100 H 665.751 5.23135 -0.378169 0
M  V30 7101 H 667.225 5.35804 1.32732 0
M  V30 7102 H 667.702 3.85258 2.10886 0
M  V30 7103 H 668.308 4.22595 0.478876 0
M  V30 7104 N 666.623 0.143563 1.56945 0
M  V30 7105 C 667.872 -0.50835 1.95189 0
M  V30 7106 C 668.185 -1.66239 1.03073 0
M  V30 7107 O 669.391 -2.3787 1.30882 0
M  V30 7108 C 667.847 -0.955735 3.46978 0
M  V30 7109 C 667.455 0.171183 4.47673 0
M  V30 7110 C 669.199 -1.57763 3.94095 0
M  V30 7111 C 667.106 -0.294279 5.90667 0
M  V30 7112 H 666.036 -0.193679 0.728701 0
M  V30 7113 H 668.687 0.227357 1.82086 0
M  V30 7114 H 667.069 -1.7466 3.55401 0
M  V30 7115 H 668.243 0.948049 4.50942 0
M  V30 7116 H 666.558 0.701273 4.10452 0
M  V30 7117 H 669.155 -1.93745 4.98364 0
M  V30 7118 H 669.498 -2.46531 3.35452 0
M  V30 7119 H 670.031 -0.851728 3.88575 0
M  V30 7120 H 666.77 0.557939 6.53121 0
M  V30 7121 H 666.29 -1.0371 5.90766 0
M  V30 7122 H 667.969 -0.747426 6.42668 0
M  V30 7123 N 668.101 -1.57061 -0.130224 0
M  V30 7124 C 669.048 -1.99517 -1.16024 0
M  V30 7125 C 670.018 -0.865452 -1.41771 0
M  V30 7126 O 671.203 -1.12882 -1.53826 0
M  V30 7127 C 668.343 -2.3951 -2.48453 0
M  V30 7128 C 667.456 -3.65848 -2.29737 0
M  V30 7129 C 666.591 -3.9487 -3.55318 0
M  V30 7130 C 665.63 -5.14426 -3.31711 0
M  V30 7131 N 664.767 -5.39375 -4.49466 0
M  V30 7132 H 669.607 -2.87305 -0.791194 0
M  V30 7133 H 667.144 -1.42129 -0.379195 0
M  V30 7134 H 669.102 -2.60731 -3.25692 0
M  V30 7135 H 667.732 -1.54779 -2.83272 0
M  V30 7136 H 666.784 -3.52307 -1.4347 0
M  V30 7137 H 668.096 -4.53241 -2.08263 0
M  V30 7138 H 667.25 -4.16679 -4.4098 0
M  V30 7139 H 665.989 -3.05931 -3.79813 0
M  V30 7140 H 664.994 -4.92473 -2.44439 0
M  V30 7141 H 666.219 -6.04933 -3.08598 0
M  V30 7142 H 664.165 -4.53391 -4.74102 0
M  V30 7143 H 664.082 -6.21069 -4.31055 0
M  V30 7144 H 665.35 -5.65694 -5.36293 0
M  V30 7145 N 669.579 0.400081 -1.52437 0
M  V30 7146 C 670.825 1.14788 -1.67187 0
M  V30 7147 C 671.158 1.89928 -0.405074 0
M  V30 7148 O 670.433 1.85118 0.596804 0
M  V30 7149 C 670.716 2.13507 -2.89977 0
M  V30 7150 C 670.569 1.42204 -4.2673 0
M  V30 7151 C 671.888 3.14069 -3.083 0
M  V30 7152 H 669.007 0.415939 -0.608411 0
M  V30 7153 H 671.649 0.432542 -1.85011 0
M  V30 7154 H 669.799 2.7451 -2.74912 0
M  V30 7155 H 671.471 0.842503 -4.53541 0
M  V30 7156 H 669.714 0.723939 -4.27717 0
M  V30 7157 H 670.385 2.14281 -5.08712 0
M  V30 7158 H 672.861 2.63148 -3.22323 0
M  V30 7159 H 671.737 3.80398 -3.95713 0
M  V30 7160 H 671.998 3.82309 -2.22018 0
M  V30 7161 N 671.057 1.43213 0.657864 0
M  V30 7162 C 672.007 1.44459 1.76396 0
M  V30 7163 C 672.991 0.313641 1.57814 0
M  V30 7164 O 674.183 0.557094 1.68004 0
M  V30 7165 C 671.312 1.36586 3.14959 0
M  V30 7166 C 670.398 2.54692 3.39106 0
M  V30 7167 N 670.789 3.80059 3.33749 0
M  V30 7168 C 669.087 2.49316 3.69807 0
M  V30 7169 C 669.788 4.58606 3.57849 0
M  V30 7170 N 668.764 3.89267 3.79437 0
M  V30 7171 H 672.566 2.39265 1.70673 0
M  V30 7172 H 670.08 1.378 0.859357 0
M  V30 7173 H 672.077 1.35561 3.94245 0
M  V30 7174 H 670.737 0.427956 3.21867 0
M  V30 7175 H 671.748 4.12414 3.13266 0
M  V30 7176 H 668.425 1.6419 3.83859 0
M  V30 7177 H 669.815 5.67619 3.59525 0
M  V30 7178 N 672.536 -0.895792 1.29666 0
M  V30 7179 C 673.764 -1.68001 1.20761 0
M  V30 7180 C 674.179 -1.87379 -0.231187 0
M  V30 7181 O 673.536 -1.41359 -1.15429 0
M  V30 7182 C 673.587 -3.06236 1.92098 0
M  V30 7183 O 673.308 -2.8774 3.30359 0
M  V30 7184 C 674.809 -4.00652 1.89717 0
M  V30 7185 H 672.029 -0.524591 0.418384 0
M  V30 7186 H 674.573 -1.11995 1.71106 0
M  V30 7187 H 672.728 -3.59007 1.45578 0
M  V30 7188 H 673.142 -3.75359 3.66342 0
M  V30 7189 H 674.616 -4.95051 2.44189 0
M  V30 7190 H 675.093 -4.30424 0.873595 0
M  V30 7191 H 675.699 -3.53815 2.35998 0
M  V30 7192 N 674.014 -1.12206 -1.10668 0
M  V30 7193 C 675.263 -0.870595 -1.81944 0
M  V30 7194 C 675.576 0.605447 -1.85994 0
M  V30 7195 O 676.782 0.973433 -2.53449 0
M  V30 7196 C 675.238 -1.50783 -3.26791 0
M  V30 7197 C 674.846 -3.01849 -3.31046 0
M  V30 7198 C 676.59 -1.33653 -4.02911 0
M  V30 7199 C 674.497 -3.58518 -4.70339 0
M  V30 7200 H 673.427 -0.322043 -0.681765 0
M  V30 7201 H 676.078 -1.34827 -1.24475 0
M  V30 7202 H 674.46 -0.957825 -3.84242 0
M  V30 7203 H 675.634 -3.63321 -2.83433 0
M  V30 7204 H 673.949 -3.18346 -2.68411 0
M  V30 7205 H 676.546 -1.73416 -5.05797 0
M  V30 7206 H 676.889 -0.279949 -4.15358 0
M  V30 7207 H 677.422 -1.85562 -3.51868 0
M  V30 7208 H 674.161 -4.63925 -4.63091 0
M  V30 7209 H 673.681 -3.01819 -5.18329 0
M  V30 7210 H 675.36 -3.57434 -5.39305 0
M  V30 7211 N 675.492 1.28418 -0.913599 0
M  V30 7212 C 676.717 1.99643 -0.561899 0
M  V30 7213 C 677.142 1.67819 0.849608 0
M  V30 7214 O 676.5 0.910503 1.56779 0
M  V30 7215 C 676.548 3.52116 -0.777622 0
M  V30 7216 O 675.652 4.12076 0.163457 0
M  V30 7217 H 674.993 0.627229 -0.217898 0
M  V30 7218 H 677.523 1.63575 -1.229 0
M  V30 7219 H 677.533 4.02163 -0.687666 0
M  V30 7220 H 676.208 3.74613 -1.8066 0
M  V30 7221 H 674.785 3.72892 0.0247827 0
M  V30 7222 N 676.97 0.677563 1.42291 0
M  V30 7223 C 677.9 0.014968 2.33495 0
M  V30 7224 C 678.881 -0.786376 1.50831 0
M  V30 7225 O 680.066 -0.742975 1.79426 0
M  V30 7226 C 677.196 -0.935023 3.34477 0
M  V30 7227 C 676.15 -0.242074 4.27315 0
M  V30 7228 C 675.476 -1.30519 5.18526 0
M  V30 7229 C 676.776 0.880604 5.14823 0
M  V30 7230 H 678.47 0.776671 2.89151 0
M  V30 7231 H 676.016 0.37494 1.39033 0
M  V30 7232 H 677.969 -1.40766 3.97194 0
M  V30 7233 H 676.693 -1.72818 2.77131 0
M  V30 7234 H 675.352 0.210351 3.65996 0
M  V30 7235 H 675 -2.09041 4.57505 0
M  V30 7236 H 674.7 -0.846652 5.81468 0
M  V30 7237 H 676.224 -1.7787 5.84119 0
M  V30 7238 H 677.638 0.489062 5.7121 0
M  V30 7239 H 676.035 1.26511 5.86613 0
M  V30 7240 H 677.105 1.72818 4.53059 0
M  V30 7241 N 678.448 -1.51871 0.421078 0
M  V30 7242 C 679.673 -2.0684 -0.152371 0
M  V30 7243 C 680.098 -1.28802 -1.37083 0
M  V30 7244 O 679.456 -0.321482 -1.78427 0
M  V30 7245 C 679.504 -3.57532 -0.469368 0
M  V30 7246 O 678.608 -3.81818 -1.55848 0
M  V30 7247 H 677.949 -0.663939 -0.00898586 0
M  V30 7248 H 680.479 -1.95674 0.597724 0
M  V30 7249 H 680.489 -4.01515 -0.724553 0
M  V30 7250 H 679.164 -4.13761 0.421276 0
M  V30 7251 H 677.741 -3.49709 -1.29453 0
M  V30 7252 N 679.926 -0.151884 -1.56866 0
M  V30 7253 C 680.836 0.798876 -2.20579 0
M  V30 7254 C 681.852 1.268 -1.19154 0
M  V30 7255 O 683.028 1.32418 -1.51748 0
M  V30 7256 C 680.093 2.01861 -2.81874 0
M  V30 7257 C 679.154 1.59825 -3.9844 0
M  V30 7258 C 678.387 2.75984 -4.56802 0
M  V30 7259 O 678.61 3.92331 -4.14044 0
M  V30 7260 O 677.544 2.51175 -5.46987 0
M  V30 7261 H 681.37 0.2865 -3.02346 0
M  V30 7262 H 678.955 0.0753806 -1.4921 0
M  V30 7263 H 680.837 2.73235 -3.20813 0
M  V30 7264 H 679.512 2.52042 -2.03117 0
M  V30 7265 H 678.419 0.854601 -3.64208 0
M  V30 7266 H 679.752 1.14355 -4.78731 0
M  V30 7267 N 681.404 1.57128 0.121893 0
M  V30 7268 C 682.352 2.01109 1.16868 0
M  V30 7269 C 683.346 0.907532 1.43039 0
M  V30 7270 O 684.552 1.09274 1.43036 0
M  V30 7271 H 680.927 0.640539 0.393971 0
M  V30 7272 H 682.898 2.88261 0.771224 0
M  V30 7273 C 681.647 2.42887 2.48799 0
M  V30 7274 H 680.97 3.2737 2.29498 0
M  V30 7275 H 682.41 2.77461 3.20611 0
M  V30 7276 C 680.869 1.29137 3.11168 0
M  V30 7277 O 681.399 0.605756 3.97106 0
M  V30 7278 N 679.605 1.04916 2.71 0
M  V30 7279 H 679.152 1.60848 2.01211 0
M  V30 7280 H 679.11 0.290016 3.1306 0
M  V30 7281 N 682.882 -0.391992 1.52647 0
M  V30 7282 C 684.13 -1.13507 1.67214 0
M  V30 7283 C 684.451 -1.90575 0.41304 0
M  V30 7284 O 683.721 -1.87348 -0.572498 0
M  V30 7285 H 682.301 -0.422013 0.616372 0
M  V30 7286 H 684.963 -0.44502 1.89751 0
M  V30 7287 H 684.059 -1.83964 2.52118 0
M  V30 7288 N 684.36 -1.4356 -0.65026 0
M  V30 7289 C 685.27 -1.514 -1.79207 0
M  V30 7290 C 686.286 -0.400895 -1.69319 0
M  V30 7291 O 687.462 -0.655458 -1.90436 0
M  V30 7292 C 684.527 -1.43737 -3.155 0
M  V30 7293 C 683.588 -2.65743 -3.37163 0
M  V30 7294 C 682.821 -2.58436 -4.66954 0
M  V30 7295 O 683.044 -1.63374 -5.46503 0
M  V30 7296 O 681.978 -3.48984 -4.90402 0
M  V30 7297 H 685.804 -2.47825 -1.75547 0
M  V30 7298 H 683.389 -1.25594 -0.809111 0
M  V30 7299 H 685.271 -1.41916 -3.96784 0
M  V30 7300 H 683.946 -0.504488 -3.19745 0
M  V30 7301 H 682.853 -2.73136 -2.55632 0
M  V30 7302 H 684.186 -3.58014 -3.37768 0
M  V30 7303 N 685.838 0.888903 -1.30139 0
M  V30 7304 C 686.748 2.02705 -1.18101 0
M  V30 7305 C 687.764 1.73702 -0.101809 0
M  V30 7306 O 688.94 1.98906 -0.315984 0
M  V30 7307 C 686.005 3.35616 -0.869651 0
M  V30 7308 C 685.066 3.78067 -2.03381 0
M  V30 7309 C 684.299 5.04635 -1.73721 0
M  V30 7310 O 684.522 5.66531 -0.663267 0
M  V30 7311 O 683.456 5.43399 -2.58845 0
M  V30 7312 H 687.282 2.15788 -2.13704 0
M  V30 7313 H 684.867 1.01426 -1.09695 0
M  V30 7314 H 686.749 4.15358 -0.711043 0
M  V30 7315 H 685.424 3.23651 0.0565002 0
M  V30 7316 H 684.331 2.99046 -2.24772 0
M  V30 7317 H 685.664 3.94631 -2.94155 0
M  V30 7318 N 687.317 1.12792 1.10072 0
M  V30 7319 C 688.563 0.886857 1.82381 0
M  V30 7320 C 688.896 -0.58576 1.85155 0
M  V30 7321 O 688.171 -1.43317 1.31493 0
M  V30 7322 C 688.454 1.46703 3.28862 0
M  V30 7323 C 688.307 3.00829 3.34398 0
M  V30 7324 C 689.626 1.12971 4.25353 0
M  V30 7325 H 686.745 0.32362 0.662148 0
M  V30 7326 H 689.387 1.39513 1.28982 0
M  V30 7327 H 687.537 1.03476 3.74466 0
M  V30 7328 H 689.209 3.52764 2.97247 0
M  V30 7329 H 687.452 3.36164 2.74183 0
M  V30 7330 H 688.123 3.36519 4.3756 0
M  V30 7331 H 690.599 1.50313 3.88001 0
M  V30 7332 H 689.475 1.56223 5.26199 0
M  V30 7333 H 689.736 0.0424452 4.4208 0
M  V30 7334 O 688.834 -1.22539 1.05197 0
M  V30 7335 H 689.525 -1.79492 0.728171 0
M  V30 END ATOM
M  V30 BEGIN BOND
M  V30 END BOND
M  V30 END CTAB
M  END
$$$$
