drugbank_target|P13995 Bifunctional methylenetetrahydrofolate dehydrogenase/cyclohydrolase, mitochondrial (DB00116; DB00157)
 OpenBabel12092119283D

  0  0  0     0  0            999 V3000
M  V30 BEGIN CTAB
M  V30 COUNTS 5422 5465 0 0 0
M  V30 BEGIN ATOM
M  V30 1 H -0.908 1.98254 -0.117106 0
M  V30 2 N 0 1.576 0 0
M  V30 3 C 0.933 2.03868 1.02534 0
M  V30 4 C 1.911 0.928543 1.3348 0
M  V30 5 O 3.095 1.19667 1.45644 0
M  V30 6 C 0.222 2.43627 2.35294 0
M  V30 7 C -0.732 3.65373 2.2001 0
M  V30 8 S 0.101 5.13292 1.52614 0
M  V30 9 C 1.257 5.56322 2.86805 0
M  V30 10 H 1.49 2.90518 0.631377 0
M  V30 11 H -0.977 1.52953 0.210867 0
M  V30 12 H 0.981 2.67203 3.11629 0
M  V30 13 H -0.358 1.57376 2.7183 0
M  V30 14 H -1.165 3.90944 3.18086 0
M  V30 15 H -1.563 3.418 1.51819 0
M  V30 16 H 0.729 5.58782 3.83104 0
M  V30 17 H 1.672 6.56266 2.65933 0
M  V30 18 H 2.08 4.83886 2.90714 0
M  V30 19 N 1.4781 -0.272755 1.55222 0
M  V30 20 C 2.4411 -1.32041 1.87344 0
M  V30 21 C 3.4411 -1.42342 0.74803 0
M  V30 22 O 4.6311 -1.41488 1.0162 0
M  V30 23 C 1.7631 -2.70173 2.07893 0
M  V30 24 H 2.9561 -1.04789 2.80997 0
M  V30 25 H 0.5091 -0.51083 1.47717 0
M  V30 26 H 1.2441 -3.02605 1.16622 0
M  V30 27 H 1.0291 -2.64082 2.89833 0
M  V30 28 H 2.5191 -3.45869 2.34017 0
M  V30 29 N 2.9562 -1.48159 -0.537278 0
M  V30 30 C 3.9192 -1.61665 -1.62472 0
M  V30 31 C 4.9192 -0.490395 -1.5314 0
M  V30 32 O 6.1092 -0.755998 -1.5694 0
M  V30 33 C 3.2412 -1.57997 -3.02076 0
M  V30 34 H 4.4342 -2.58621 -1.51839 0
M  V30 35 H 1.9872 -1.36647 -0.758771 0
M  V30 36 H 2.7222 -0.624913 -3.18222 0
M  V30 37 H 2.5072 -2.39755 -3.10258 0
M  V30 38 H 3.9972 -1.70627 -3.81151 0
M  V30 39 N 4.4343 0.785586 -1.36625 0
M  V30 40 C 5.6623 1.57448 -1.3423 0
M  V30 41 C 6.0773 1.88649 0.0755653 0
M  V30 42 O 5.4343 1.50414 1.03354 0
M  V30 43 C 5.4853 2.89316 -2.16745 0
M  V30 44 O 5.2063 2.59459 -3.53005 0
M  V30 45 C 6.7073 3.83606 -2.22174 0
M  V30 46 H 3.9273 0.488226 -0.4603 0
M  V30 47 H 6.4713 0.974733 -1.79775 0
M  V30 48 H 4.6263 3.4575 -1.74745 0
M  V30 49 H 5.0403 3.43804 -3.96105 0
M  V30 50 H 6.5143 4.73181 -2.8426 0
M  V30 51 H 6.9913 4.21734 -1.22627 0
M  V30 52 H 7.5973 3.33104 -2.64427 0
M  V30 53 N 5.9124 1.20967 1.01018 0
M  V30 54 C 7.1374 1.0503 1.78839 0
M  V30 55 C 7.5624 -0.395752 1.8389 0
M  V30 56 O 6.9204 -1.28529 1.27867 0
M  V30 57 C 6.9684 1.64602 3.2084 0
M  V30 58 O 6.0724 0.887988 4.02726 0
M  V30 59 H 5.4134 0.369987 0.551367 0
M  V30 60 H 7.9434 1.60399 1.27018 0
M  V30 61 H 7.9534 1.68607 3.71532 0
M  V30 62 H 6.6284 2.69841 3.16479 0
M  V30 63 H 5.2054 0.922648 3.61305 0
M  V30 64 N 7.3905 -1.2043 1.01659 0
M  V30 65 C 8.3205 -2.25466 0.607226 0
M  V30 66 C 9.3015 -1.65853 -0.377716 0
M  V30 67 O 10.4865 -1.92409 -0.263149 0
M  V30 68 C 7.6165 -3.47256 -0.0552949 0
M  V30 69 C 6.5705 -4.19462 0.850632 0
M  V30 70 C 5.8965 -5.34673 0.0538859 0
M  V30 71 C 7.1965 -4.75603 2.15868 0
M  V30 72 H 8.8905 -2.59962 1.48526 0
M  V30 73 H 6.4365 -1.2496 0.715605 0
M  V30 74 H 8.3895 -4.19917 -0.353233 0
M  V30 75 H 7.1135 -3.11924 -0.968045 0
M  V30 76 H 5.7725 -3.48667 1.13257 0
M  V30 77 H 5.4205 -4.95585 -0.860514 0
M  V30 78 H 5.1205 -5.83913 0.657192 0
M  V30 79 H 6.6445 -6.10138 -0.237598 0
M  V30 80 H 8.0585 -5.40083 1.92311 0
M  V30 81 H 6.4555 -5.3528 2.71284 0
M  V30 82 H 7.5255 -3.94346 2.82169 0
M  V30 83 N 8.8686 -0.792821 -1.36206 0
M  V30 84 C 9.8016 -0.139422 -2.27774 0
M  V30 85 C 10.7796 0.68649 -1.47398 0
M  V30 86 O 11.9636 0.656738 -1.7669 0
M  V30 87 C 9.0906 0.807947 -3.28922 0
M  V30 88 C 8.1366 0.0633999 -4.26453 0
M  V30 89 S 8.9696 -1.26319 -5.20388 0
M  V30 90 C 10.1256 -0.31991 -6.25082 0
M  V30 91 H 10.3586 -0.915809 -2.82843 0
M  V30 92 H 7.8916 -0.587203 -1.42798 0
M  V30 93 H 9.8496 1.34908 -3.87699 0
M  V30 94 H 8.5106 1.55761 -2.72759 0
M  V30 95 H 7.7036 0.782386 -4.9789 0
M  V30 96 H 7.3056 -0.407352 -3.71775 0
M  V30 97 H 9.5976 0.499985 -6.75653 0
M  V30 98 H 10.5406 -1.00307 -7.00959 0
M  V30 99 H 10.9486 0.0782694 -5.64446 0
M  V30 100 N 10.3467 1.47872 -0.545128 0
M  V30 101 C 11.5717 2.07391 -0.0190611 0
M  V30 102 C 11.9967 1.39688 1.25971 0
M  V30 103 O 11.3547 0.467816 1.7516 0
M  V30 104 C 11.4027 3.60188 0.172335 0
M  V30 105 O 10.5067 3.9339 1.23766 0
M  V30 106 H 9.8477 0.662411 -0.0459059 0
M  V30 107 H 12.3777 1.90066 -0.757365 0
M  V30 108 H 12.3877 4.06129 0.390305 0
M  V30 109 H 11.0627 4.08865 -0.761725 0
M  V30 110 H 9.6397 3.5921 1.00114 0
M  V30 111 N 11.8248 0.280983 1.55075 0
M  V30 112 C 12.7878 -0.590896 2.21452 0
M  V30 113 C 13.7878 -1.07682 1.19421 0
M  V30 114 O 14.9778 -0.97605 1.44288 0
M  V30 115 C 12.1098 -1.81587 2.88511 0
M  V30 116 H 13.3028 -0.0112554 2.99898 0
M  V30 117 H 10.8558 0.0316438 1.56268 0
M  V30 118 H 11.5908 -2.43587 2.14093 0
M  V30 119 H 11.3758 -1.4753 3.63287 0
M  V30 120 H 12.8658 -2.43575 3.39206 0
M  V30 121 N 13.3029 -1.57598 0.00835791 0
M  V30 122 C 14.2329 -2.1198 -0.979113 0
M  V30 123 C 15.2139 -1.03091 -1.35301 0
M  V30 124 O 16.3989 -1.30818 -1.43528 0
M  V30 125 C 13.5289 -2.62995 -2.26828 0
M  V30 126 C 12.4829 -3.76485 -2.03576 0
M  V30 127 C 11.8089 -4.13846 -3.38579 0
M  V30 128 C 13.1089 -5.0342 -1.39161 0
M  V30 129 H 14.8029 -2.94738 -0.526281 0
M  V30 130 H 12.3489 -1.41783 -0.251704 0
M  V30 131 H 14.3019 -2.99669 -2.96271 0
M  V30 132 H 13.0259 -1.7737 -2.7424 0
M  V30 133 H 11.6849 -3.40217 -1.36557 0
M  V30 134 H 11.3329 -3.25232 -3.83709 0
M  V30 135 H 11.0329 -4.90312 -3.23834 0
M  V30 136 H 12.5569 -4.53086 -4.09323 0
M  V30 137 H 13.9709 -5.37812 -1.98573 0
M  V30 138 H 12.3679 -5.84746 -1.34878 0
M  V30 139 H 13.4379 -4.83548 -0.361868 0
M  V30 140 N 14.781 0.264519 -1.55364 0
M  V30 141 C 15.744 1.31046 -1.88042 0
M  V30 142 C 16.744 1.41943 -0.755569 0
M  V30 143 O 17.934 1.40947 -1.02369 0
M  V30 144 C 15.066 2.69067 -2.09323 0
M  V30 145 H 16.259 1.03297 -2.81549 0
M  V30 146 H 13.812 0.502989 -1.47986 0
M  V30 147 H 14.547 3.01982 -1.18226 0
M  V30 148 H 14.332 2.62542 -2.91229 0
M  V30 149 H 15.822 3.44623 -2.35848 0
M  V30 150 N 16.2591 1.48442 0.529413 0
M  V30 151 C 17.2221 1.62524 1.61612 0
M  V30 152 C 18.2221 0.498509 1.52877 0
M  V30 153 O 19.4121 0.76431 1.56537 0
M  V30 154 C 16.5441 1.59597 3.01233 0
M  V30 155 H 17.7371 2.59423 1.50465 0
M  V30 156 H 15.2901 1.37047 0.751514 0
M  V30 157 H 16.0251 0.641781 3.17886 0
M  V30 158 H 15.8101 2.41397 3.08982 0
M  V30 159 H 17.3001 1.72646 3.80241 0
M  V30 160 N 17.7372 -0.778329 1.37039 0
M  V30 161 C 19.1532 -1.07796 1.17695 0
M  V30 162 C 19.3532 -2.01498 0.00860115 0
M  V30 163 O 18.4092 -2.43901 -0.653352 0
M  V30 164 C 19.7222 -1.68178 2.49272 0
M  V30 165 C 21.2702 -1.80467 2.55735 0
M  V30 166 C 21.7452 -2.44263 3.87427 0
M  V30 167 N 23.2362 -2.51721 3.88833 0
M  V30 168 C 23.9712 -3.01919 4.87476 0
M  V30 169 N 23.4672 -3.5234 5.96513 0
M  V30 170 N 25.2602 -3.00733 4.74885 0
M  V30 171 H 17.4112 -0.156032 2.11826 0
M  V30 172 H 19.6742 -0.131844 0.938787 0
M  V30 173 H 19.3802 -1.06796 3.35093 0
M  V30 174 H 19.2542 -2.67554 2.65885 0
M  V30 175 H 21.6412 -2.40984 1.70325 0
M  V30 176 H 21.7222 -0.798656 2.43013 0
M  V30 177 H 21.3662 -1.84388 4.73248 0
M  V30 178 H 21.2962 -3.45458 3.9745 0
M  V30 179 H 23.7872 -2.1603 3.10063 0
M  V30 180 H 24.1002 -3.89027 6.67741 0
M  V30 181 H 22.4452 -3.50462 6.00168 0
M  V30 182 H 25.6362 -2.60638 3.88826 0
M  V30 183 H 25.8092 -3.39545 5.51918 0
M  V30 184 N 19.2153 -1.21501 -1.00376 0
M  V30 185 C 20.1453 -0.999478 -2.11028 0
M  V30 186 C 21.1263 0.0759671 -1.6993 0
M  V30 187 O 22.3113 -0.0841106 -1.94018 0
M  V30 188 C 19.4413 -0.564709 -3.42678 0
M  V30 189 C 18.3953 -1.58486 -3.97576 0
M  V30 190 C 17.7213 -1.00628 -5.25146 0
M  V30 191 C 19.0213 -2.97204 -4.29496 0
M  V30 192 H 20.7153 -1.92495 -2.29317 0
M  V30 193 H 18.2613 -0.92693 -1.102 0
M  V30 194 H 20.2143 -0.401091 -4.19487 0
M  V30 195 H 18.9383 0.396411 -3.24185 0
M  V30 196 H 17.5973 -1.73606 -3.22888 0
M  V30 197 H 17.2453 -0.0368439 -5.02987 0
M  V30 198 H 16.9453 -1.68771 -5.62841 0
M  V30 199 H 18.4693 -0.854015 -6.04598 0
M  V30 200 H 19.8833 -2.8552 -4.97143 0
M  V30 201 H 18.2803 -3.62372 -4.78338 0
M  V30 202 H 19.3503 -3.47956 -3.3772 0
M  V30 203 N 20.6934 1.19889 -1.02296 0
M  V30 204 C 21.6234 2.25141 -0.619174 0
M  V30 205 C 22.6044 1.66051 0.368915 0
M  V30 206 O 23.7894 1.92546 0.252941 0
M  V30 207 C 20.9194 3.4728 0.0368783 0
M  V30 208 C 19.8734 4.19005 -0.872865 0
M  V30 209 C 19.1994 5.34637 -0.0822402 0
M  V30 210 C 20.4994 4.74452 -2.18387 0
M  V30 211 H 22.1934 2.59171 -1.49903 0
M  V30 212 H 19.7394 1.24579 -0.722222 0
M  V30 213 H 21.6924 4.20098 0.330958 0
M  V30 214 H 20.4164 3.12433 0.95149 0
M  V30 215 H 19.0754 3.48061 -1.15105 0
M  V30 216 H 18.7234 4.96034 0.83422 0
M  V30 217 H 18.4234 5.83557 -0.688149 0
M  V30 218 H 19.9474 6.10255 0.205238 0
M  V30 219 H 21.3614 5.39055 -1.95172 0
M  V30 220 H 19.7584 5.33834 -2.74119 0
M  V30 221 H 20.8284 3.92844 -2.84257 0
M  V30 222 N 22.1715 0.800033 1.35784 0
M  V30 223 C 23.1035 0.163596 2.28615 0
M  V30 224 C 24.1165 -0.633317 1.49976 0
M  V30 225 O 25.3055 -0.466754 1.72289 0
M  V30 226 C 22.4055 -0.790958 3.29541 0
M  V30 227 C 21.5785 -0.0418255 4.3738 0
M  V30 228 C 20.6375 -0.91389 5.18203 0
M  V30 229 O 19.6635 -0.367234 5.68014 0
M  V30 230 N 20.8655 -2.23682 5.35674 0
M  V30 231 H 23.6305 0.96105 2.83873 0
M  V30 232 H 21.1915 0.654894 1.48063 0
M  V30 233 H 23.1835 -1.37844 3.80501 0
M  V30 234 H 21.7535 -1.48925 2.74846 0
M  V30 235 H 20.9735 0.726813 3.87442 0
M  V30 236 H 22.2615 0.474719 5.06581 0
M  V30 237 H 21.6595 -2.70497 4.96838 0
M  V30 238 H 20.2165 -2.77369 5.89839 0
M  V30 239 N 23.6496 -1.47581 0.552962 0
M  V30 240 C 25.0606 -1.86324 0.118463 0
M  V30 241 C 25.4116 -1.46006 -1.3106 0
M  V30 242 O 24.5366 -0.861182 -1.98526 0
M  V30 243 C 25.1316 -3.3816 0.20821 0
M  V30 244 C 23.6906 -3.7601 -0.171226 0
M  V30 245 C 22.8376 -2.71634 0.557686 0
M  V30 246 H 25.7886 -1.39159 0.762928 0
M  V30 247 H 25.8096 -3.76141 -0.574278 0
M  V30 248 H 25.3216 -3.67473 1.24841 0
M  V30 249 H 23.4226 -3.52313 -1.21269 0
M  V30 250 H 23.5356 -4.78745 0.184379 0
M  V30 251 H 21.8996 -2.547 0.00125792 0
M  V30 252 H 22.6826 -3.0379 1.59896 0
M  V30 253 N 25.1277 -0.289203 -1.54924 0
M  V30 254 C 26.0907 0.579144 -2.21762 0
M  V30 255 C 27.0907 1.07047 -1.1999 0
M  V30 256 O 28.2807 0.968384 -1.44803 0
M  V30 257 C 25.4127 1.80055 -2.8947 0
M  V30 258 H 26.6057 -0.00464908 -2.999 0
M  V30 259 H 24.1587 -0.0399306 -1.56249 0
M  V30 260 H 24.8937 2.42449 -2.15381 0
M  V30 261 H 24.6787 1.45602 -3.64064 0
M  V30 262 H 26.1687 2.41773 -3.40493 0
M  V30 263 N 26.6058 1.57591 -0.0167156 0
M  V30 264 C 27.5558 2.05953 0.978137 0
M  V30 265 C 28.5398 0.957532 1.29306 0
M  V30 266 O 29.7318 1.22119 1.28125 0
M  V30 267 C 26.8608 2.58006 2.26468 0
M  V30 268 C 25.9468 3.75113 1.97867 0
M  V30 269 N 26.3378 4.86187 1.39486 0
M  V30 270 C 24.6358 3.83363 2.27924 0
M  V30 271 C 25.3368 5.67502 1.27735 0
M  V30 272 N 24.3128 5.14023 1.76866 0
M  V30 273 H 28.1148 2.89236 0.521522 0
M  V30 274 H 25.6288 1.61301 0.188596 0
M  V30 275 H 27.6258 2.90937 2.98599 0
M  V30 276 H 26.2858 1.76148 2.72767 0
M  V30 277 H 27.2968 5.06695 1.07147 0
M  V30 278 H 23.9738 3.1239 2.76982 0
M  V30 279 H 25.3638 6.66791 0.826978 0
M  V30 280 N 28.0839 -0.256276 1.55502 0
M  V30 281 C 29.3089 -1.00766 1.81276 0
M  V30 282 C 29.7339 -1.78524 0.59252 0
M  V30 283 O 29.0919 -1.75413 -0.45827 0
M  V30 284 C 29.1399 -1.92869 3.04687 0
M  V30 285 O 28.2439 -3.019 2.80945 0
M  V30 286 H 27.5849 -0.287224 0.598664 0
M  V30 287 H 30.1149 -0.280109 2.02674 0
M  V30 288 H 30.1249 -2.34511 3.33869 0
M  V30 289 H 28.7999 -1.35689 3.93143 0
M  V30 290 H 27.3769 -2.64454 2.62904 0
M  V30 291 N 29.562 -1.4872 -0.521534 0
M  V30 292 C 30.802 -1.58771 -1.28729 0
M  V30 293 C 31.166 -0.259394 -1.9024 0
M  V30 294 O 32.367 -0.234942 -2.67771 0
M  V30 295 C 30.638 -2.70039 -2.34124 0
M  V30 296 S 32.197 -2.9991 -3.20312 0
M  V30 297 H 29.015 -0.560251 -0.437767 0
M  V30 298 H 31.617 -1.86283 -0.593188 0
M  V30 299 H 30.321 -3.65101 -1.87429 0
M  V30 300 H 29.852 -2.44455 -3.08229 0
M  V30 301 H 31.867 -2.39855 -4.34378 0
M  V30 302 N 31.0401 0.771051 -1.3745 0
M  V30 303 C 32.2651 1.56529 -1.36065 0
M  V30 304 C 32.6901 1.88029 0.0515859 0
M  V30 305 O 32.0481 1.49282 1.02882 0
M  V30 306 C 32.0961 2.85187 -2.20683 0
M  V30 307 O 31.2001 3.79593 -1.61193 0
M  V30 308 H 30.5411 0.47411 -0.464883 0
M  V30 309 H 33.0711 0.954269 -1.80983 0
M  V30 310 H 33.0811 3.34283 -2.33921 0
M  V30 311 H 31.7561 2.61588 -3.23334 0
M  V30 312 H 30.3331 3.38239 -1.56999 0
M  V30 313 N 32.5182 1.22032 0.997298 0
M  V30 314 C 33.4482 1.01065 2.10495 0
M  V30 315 C 34.4292 -0.0669542 1.69968 0
M  V30 316 O 35.6142 0.0943987 1.9397 0
M  V30 317 C 32.7442 0.582874 3.42374 0
M  V30 318 C 31.6982 1.60592 3.96729 0
M  V30 319 C 31.0242 1.03412 5.24605 0
M  V30 320 C 32.3242 2.99478 4.27914 0
M  V30 321 H 34.0182 1.93708 2.28292 0
M  V30 322 H 31.5642 0.932761 1.09707 0
M  V30 323 H 33.5172 0.423332 4.19268 0
M  V30 324 H 32.2412 -0.379213 3.24391 0
M  V30 325 H 30.9002 1.75316 3.21963 0
M  V30 326 H 30.5482 0.063518 5.0296 0
M  V30 327 H 30.2482 1.71754 5.61938 0
M  V30 328 H 31.7722 0.886066 6.04137 0
M  V30 329 H 33.1862 2.88153 4.95622 0
M  V30 330 H 31.5832 3.64903 4.76409 0
M  V30 331 H 32.6532 3.49742 3.3587 0
M  V30 332 N 33.9963 -1.19345 1.0293 0
M  V30 333 C 35.4123 -1.41069 0.746446 0
M  V30 334 C 35.6123 -1.90078 -0.668776 0
M  V30 335 O 34.6683 -2.0778 -1.4347 0
M  V30 336 C 35.9813 -2.42141 1.78292 0
M  V30 337 C 37.5293 -2.55887 1.80252 0
M  V30 338 C 38.0043 -3.60214 2.8286 0
M  V30 339 N 39.4953 -3.67711 2.81679 0
M  V30 340 C 40.2303 -4.48128 3.57727 0
M  V30 341 N 39.7263 -5.32248 4.43491 0
M  V30 342 N 41.5193 -4.42782 3.46267 0
M  V30 343 H 33.6703 -0.858536 1.94275 0
M  V30 344 H 35.9333 -0.439541 0.839945 0
M  V30 345 H 35.6393 -2.13155 2.79746 0
M  V30 346 H 35.5133 -3.41323 1.60557 0
M  V30 347 H 37.9003 -2.84196 0.794757 0
M  V30 348 H 37.9813 -1.56858 2.02062 0
M  V30 349 H 37.6253 -3.32647 3.83807 0
M  V30 350 H 37.5553 -4.58895 2.58307 0
M  V30 351 H 40.0463 -3.07634 2.19476 0
M  V30 352 H 40.3593 -5.90729 4.98256 0
M  V30 353 H 38.7043 -5.31707 4.47564 0
M  V30 354 H 41.8953 -3.76107 2.78677 0
M  V30 355 H 42.0683 -5.05215 4.05785 0
M  V30 356 N 35.4744 -0.807222 -1.35358 0
M  V30 357 C 36.4044 -0.232509 -2.3234 0
M  V30 358 C 37.3854 0.642386 -1.57504 0
M  V30 359 O 38.5704 0.572526 -1.85569 0
M  V30 360 C 35.7004 0.619238 -3.41735 0
M  V30 361 C 34.6544 -0.157215 -4.27711 0
M  V30 362 C 33.9804 0.816273 -5.28433 0
M  V30 363 C 35.2804 -1.35656 -5.04376 0
M  V30 364 H 36.9744 -1.04276 -2.80654 0
M  V30 365 H 34.5204 -0.50288 -1.34934 0
M  V30 366 H 36.4734 1.03137 -4.08584 0
M  V30 367 H 35.1974 1.46239 -2.92031 0
M  V30 368 H 33.8564 -0.550525 -3.62443 0
M  V30 369 H 33.5044 1.65494 -4.74996 0
M  V30 370 H 33.2044 0.301067 -5.86828 0
M  V30 371 H 34.7284 1.22659 -5.98153 0
M  V30 372 H 36.1424 -1.01927 -5.64166 0
M  V30 373 H 34.5394 -1.8063 -5.7227 0
M  V30 374 H 35.6094 -2.14288 -4.34981 0
M  V30 375 N 36.9525 1.47285 -0.560781 0
M  V30 376 C 38.3685 1.58065 -0.22081 0
M  V30 377 C 38.5685 1.55892 1.27671 0
M  V30 378 O 37.6245 1.46422 2.0571 0
M  V30 379 C 38.9375 2.88418 -0.850625 0
M  V30 380 C 40.4855 3.02009 -0.822184 0
M  V30 381 C 40.9605 4.35066 -1.43113 0
M  V30 382 N 42.4515 4.41711 -1.39448 0
M  V30 383 C 43.1865 5.43237 -1.83525 0
M  V30 384 N 42.6825 6.51555 -2.35474 0
M  V30 385 N 44.4755 5.34304 -1.74574 0
M  V30 386 H 36.6265 1.46941 -1.53369 0
M  V30 387 H 38.8895 0.699558 -0.639783 0
M  V30 388 H 38.5955 2.95755 -1.9032 0
M  V30 389 H 38.4695 3.75612 -0.345773 0
M  V30 390 H 40.8565 2.94266 0.221714 0
M  V30 391 H 40.9375 2.16347 -1.36483 0
M  V30 392 H 40.5815 4.43565 -2.47412 0
M  V30 393 H 40.5115 5.19465 -0.863899 0
M  V30 394 H 43.0025 3.64027 -1.01452 0
M  V30 395 H 43.3155 7.25203 -2.67021 0
M  V30 396 H 41.6605 6.52435 -2.39487 0
M  V30 397 H 44.8515 4.48581 -1.33763 0
M  V30 398 H 45.0245 6.13288 -2.09242 0
M  V30 399 N 38.4306 0.297415 1.54768 0
M  V30 400 C 39.8416 -0.195947 1.85669 0
M  V30 401 C 40.1926 -1.53707 1.21937 0
M  V30 402 O 39.3176 -2.10164 0.515754 0
M  V30 403 C 39.9126 -0.362318 3.36857 0
M  V30 404 C 38.4716 -0.799901 3.67802 0
M  V30 405 C 37.6186 0.0938578 2.77141 0
M  V30 406 H 40.5696 0.518538 1.4999 0
M  V30 407 H 40.5906 -1.19745 3.61167 0
M  V30 408 H 40.1026 0.613921 3.83214 0
M  V30 409 H 38.2036 -1.78682 3.26961 0
M  V30 410 H 38.3166 -0.621773 4.75048 0
M  V30 411 H 36.6806 -0.426254 2.51108 0
M  V30 412 H 37.4636 1.06639 3.26318 0
M  V30 413 N 39.9087 -1.5758 0.0250728 0
M  V30 414 C 41.1557 -1.91633 -0.654444 0
M  V30 415 C 41.4837 -0.901103 -1.72367 0
M  V30 416 O 40.7387 0.0905647 -1.9549 0
M  V30 417 C 41.0377 -3.32421 -1.31268 0
M  V30 418 C 40.7037 -4.49344 -0.374223 0
M  V30 419 C 39.3657 -4.8106 -0.115911 0
M  V30 420 C 41.7177 -5.20498 0.270432 0
M  V30 421 C 39.0457 -5.8129 0.79493 0
M  V30 422 C 41.3977 -6.21699 1.1693 0
M  V30 423 C 40.0617 -6.51859 1.43655 0
M  V30 424 H 39.3317 -0.701236 -0.239478 0
M  V30 425 H 41.9787 -1.91307 0.0859734 0
M  V30 426 H 40.2837 -3.28989 -2.12775 0
M  V30 427 H 41.9807 -3.56038 -1.84494 0
M  V30 428 H 38.5707 -4.24579 -0.58573 0
M  V30 429 H 42.7547 -4.96229 0.0839194 0
M  V30 430 H 38.0107 -6.03005 1.00973 0
M  V30 431 H 42.1847 -6.75955 1.67504 0
M  V30 432 H 39.8117 -7.2934 2.144 0
M  V30 433 N 41.3868 0.248026 -1.55636 0
M  V30 434 C 42.3368 1.30994 -1.86614 0
M  V30 435 C 43.3208 1.43543 -0.726918 0
M  V30 436 O 44.5128 1.46804 -0.988818 0
M  V30 437 C 41.6418 2.6656 -2.16335 0
M  V30 438 C 40.7278 2.58019 -3.36581 0
M  V30 439 N 41.1188 2.1911 -4.55878 0
M  V30 440 C 39.4168 2.89035 -3.39669 0
M  V30 441 C 40.1178 2.21174 -5.38012 0
M  V30 442 N 39.0938 2.60632 -4.77045 0
M  V30 443 H 42.8958 0.999583 -2.76379 0
M  V30 444 H 40.4098 0.456652 -1.55848 0
M  V30 445 H 42.4068 3.43194 -2.36692 0
M  V30 446 H 41.0668 2.98463 -1.27867 0
M  V30 447 H 42.0778 1.90672 -4.81523 0
M  V30 448 H 38.7548 3.25485 -2.61469 0
M  V30 449 H 40.1448 1.9344 -6.43452 0
M  V30 450 N 42.8649 1.48995 0.513639 0
M  V30 451 C 43.7949 1.67636 1.62544 0
M  V30 452 C 44.7759 0.525087 1.61793 0
M  V30 453 O 45.9609 0.759502 1.78732 0
M  V30 454 C 43.0909 1.73114 3.01079 0
M  V30 455 C 42.0449 2.87905 3.16693 0
M  V30 456 C 41.3709 2.78486 4.56453 0
M  V30 457 C 42.6709 4.29005 2.97913 0
M  V30 458 H 44.3649 2.60716 1.47198 0
M  V30 459 H 41.9109 1.25465 0.706714 0
M  V30 460 H 43.8639 1.84742 3.78746 0
M  V30 461 H 42.5879 0.766241 3.17484 0
M  V30 462 H 41.2469 2.75859 2.41448 0
M  V30 463 H 40.8949 1.7993 4.69717 0
M  V30 464 H 40.5949 3.55523 4.67843 0
M  V30 465 H 42.1189 2.92104 5.36197 0
M  V30 466 H 43.5329 4.41798 3.65359 0
M  V30 467 H 41.9299 5.07166 3.20785 0
M  V30 468 H 42.9999 4.44329 1.94165 0
M  V30 469 N 44.343 -0.763751 1.37857 0
M  V30 470 C 45.306 -1.85889 1.34081 0
M  V30 471 C 46.306 -1.58949 0.243277 0
M  V30 472 O 47.496 -1.66882 0.499589 0
M  V30 473 C 44.628 -3.23176 1.08489 0
M  V30 474 H 45.821 -1.90648 2.31502 0
M  V30 475 H 43.374 -0.964367 1.23003 0
M  V30 476 H 44.109 -3.24091 0.116318 0
M  V30 477 H 43.894 -3.44124 1.8794 0
M  V30 478 H 45.384 -4.03254 1.08517 0
M  V30 479 N 45.8211 -1.22559 -0.990812 0
M  V30 480 C 46.7841 -0.998863 -2.0629 0
M  V30 481 C 47.7841 0.0354834 -1.60761 0
M  V30 482 O 48.9741 -0.203231 -1.7301 0
M  V30 483 C 46.1061 -0.509203 -3.37076 0
M  V30 484 H 47.2991 -1.95014 -2.27837 0
M  V30 485 H 44.8521 -1.04456 -1.16269 0
M  V30 486 H 45.5871 0.446335 -3.21214 0
M  V30 487 H 45.3721 -1.25547 -3.71457 0
M  V30 488 H 46.8621 -0.370888 -4.1595 0
M  V30 489 N 47.2992 1.18797 -1.03562 0
M  V30 490 C 48.5452 1.8893 -0.737113 0
M  V30 491 C 48.8782 1.79837 0.732956 0
M  V30 492 O 48.1532 1.19525 1.5344 0
M  V30 493 C 48.4362 3.39607 -1.19745 0
M  V30 494 C 48.2892 3.57537 -2.72924 0
M  V30 495 C 49.6082 4.33069 -0.783526 0
M  V30 496 H 46.7272 0.686057 -0.269249 0
M  V30 497 H 49.3692 1.39797 -1.28673 0
M  V30 498 H 47.5192 3.81583 -0.729855 0
M  V30 499 H 49.1912 3.24688 -3.27682 0
M  V30 500 H 47.4342 3.00363 -3.12993 0
M  V30 501 H 48.1052 4.63238 -3.00191 0
M  V30 502 H 50.5812 3.98846 -1.18581 0
M  V30 503 H 49.4572 5.3707 -1.13343 0
M  V30 504 H 49.7182 4.40986 0.313681 0
M  V30 505 N 48.7773 0.814389 1.34928 0
M  V30 506 C 50.1933 0.499084 1.51596 0
M  V30 507 C 50.3933 -0.978319 1.76157 0
M  V30 508 O 49.4493 -1.76309 1.80752 0
M  V30 509 C 50.7623 1.35121 2.68631 0
M  V30 510 C 52.3103 1.34746 2.82511 0
M  V30 511 C 52.7853 2.18388 4.0258 0
M  V30 512 N 54.2763 2.15966 4.09772 0
M  V30 513 C 55.0113 2.77437 5.01813 0
M  V30 514 N 54.5073 3.47866 5.99134 0
M  V30 515 N 56.3003 2.67037 4.94619 0
M  V30 516 H 48.4513 1.7711 1.17243 0
M  V30 517 H 50.7143 0.754256 0.574284 0
M  V30 518 H 50.4203 2.40001 2.57085 0
M  V30 519 H 50.2943 1.00991 3.63429 0
M  V30 520 H 52.6813 0.30648 2.93504 0
M  V30 521 H 52.7623 1.72869 1.88547 0
M  V30 522 H 52.4063 3.2253 3.92347 0
M  V30 523 H 52.3363 1.77621 4.9574 0
M  V30 524 H 54.8273 1.64729 3.40107 0
M  V30 525 H 55.1403 3.92038 6.65977 0
M  V30 526 H 53.4853 3.51972 5.99284 0
M  V30 527 H 56.6763 2.11597 4.17546 0
M  V30 528 H 56.8493 3.15232 5.66156 0
M  V30 529 N 50.2554 -1.46986 0.568584 0
M  V30 530 C 51.2034 -2.31858 -0.185649 0
M  V30 531 C 52.1974 -1.43624 -0.898249 0
M  V30 532 O 53.4034 -1.60327 -0.818242 0
M  V30 533 H 49.7784 -0.747866 -0.0787399 0
M  V30 534 H 51.7494 -2.93303 0.549191 0
M  V30 535 C 50.4984 -3.26513 -1.19519 0
M  V30 536 H 49.8214 -3.94377 -0.656285 0
M  V30 537 H 51.2614 -3.88707 -1.6936 0
M  V30 538 C 49.7204 -2.50847 -2.24894 0
M  V30 539 O 50.2504 -2.26119 -3.32014 0
M  V30 540 N 48.4564 -2.11656 -1.99124 0
M  V30 541 H 48.0034 -2.31966 -1.12024 0
M  V30 542 H 47.9614 -1.61347 -2.69842 0
M  V30 543 N 51.7335 -0.305618 -1.54608 0
M  V30 544 C 52.6435 0.57778 -2.27374 0
M  V30 545 C 53.6595 1.14451 -1.31061 0
M  V30 546 O 54.8355 1.16831 -1.6405 0
M  V30 547 C 51.9005 1.73123 -3.00382 0
M  V30 548 C 50.9615 1.19812 -4.12242 0
M  V30 549 C 50.1945 2.2966 -4.81759 0
M  V30 550 O 50.4175 3.49651 -4.50666 0
M  V30 551 O 49.3515 1.96091 -5.69062 0
M  V30 552 H 53.1775 -0.012624 -3.03697 0
M  V30 553 H 50.7625 -0.0719184 -1.49227 0
M  V30 554 H 52.6445 2.40315 -3.4616 0
M  V30 555 H 51.3195 2.30815 -2.26949 0
M  V30 556 H 50.2265 0.491798 -3.70853 0
M  V30 557 H 51.5595 0.666566 -4.87666 0
M  V30 558 N 53.2116 1.57565 -0.0334293 0
M  V30 559 C 54.1746 2.09393 0.932048 0
M  V30 560 C 55.1746 1.00986 1.25134 0
M  V30 561 O 56.3646 1.27129 1.19096 0
M  V30 562 C 53.4966 2.56338 2.2473 0
M  V30 563 H 54.6896 2.95984 0.483085 0
M  V30 564 H 52.2426 1.54819 0.21468 0
M  V30 565 H 52.9776 1.7309 2.74245 0
M  V30 566 H 52.7626 3.35542 2.02865 0
M  V30 567 H 54.2526 2.96646 2.93923 0
M  V30 568 N 54.6897 -0.239769 1.55765 0
M  V30 569 C 55.9357 -0.968234 1.78194 0
M  V30 570 C 56.2687 -1.84701 0.599938 0
M  V30 571 O 55.5437 -1.9031 -0.401524 0
M  V30 572 C 55.8267 -1.8227 3.10564 0
M  V30 573 C 55.6797 -0.971633 4.3918 0
M  V30 574 C 56.9987 -2.80388 3.39221 0
M  V30 575 H 54.1177 -0.350572 0.648281 0
M  V30 576 H 56.7597 -0.238259 1.885 0
M  V30 577 H 54.9097 -2.44507 3.01908 0
M  V30 578 H 56.5817 -0.367408 4.59835 0
M  V30 579 H 54.8247 -0.276276 4.32919 0
M  V30 580 H 55.4957 -1.60346 5.28198 0
M  V30 581 H 57.9717 -2.28287 3.47885 0
M  V30 582 H 56.8477 -3.3729 4.33044 0
M  V30 583 H 57.1087 -3.57212 2.60484 0
M  V30 584 N 56.1678 -1.49265 -0.50573 0
M  V30 585 C 57.4138 -1.58748 -1.26202 0
M  V30 586 C 57.7468 -0.271227 -1.92297 0
M  V30 587 O 57.0218 0.724831 -1.80489 0
M  V30 588 C 57.3048 -2.74332 -2.33268 0
M  V30 589 C 57.1578 -4.15737 -1.71705 0
M  V30 590 C 58.4768 -2.85576 -3.34865 0
M  V30 591 H 55.5958 -0.577826 -0.457478 0
M  V30 592 H 58.2378 -1.81532 -0.560897 0
M  V30 593 H 56.3878 -2.55036 -2.93068 0
M  V30 594 H 58.0598 -4.46537 -1.15769 0
M  V30 595 H 56.3028 -4.21605 -1.02135 0
M  V30 596 H 56.9738 -4.92477 -2.49341 0
M  V30 597 H 59.4498 -3.03127 -2.8505 0
M  V30 598 H 58.3258 -3.68135 -4.07146 0
M  V30 599 H 58.5868 -1.94732 -3.96903 0
M  V30 600 N 57.6459 0.756429 -1.3826 0
M  V30 601 C 58.8949 1.51082 -1.3363 0
M  V30 602 C 59.2079 1.95467 0.0720068 0
M  V30 603 O 60.4139 2.7043 0.240834 0
M  V30 604 C 58.8699 2.72893 -2.34644 0
M  V30 605 C 58.4779 2.35544 -3.81081 0
M  V30 606 C 60.2219 3.50791 -2.39052 0
M  V30 607 C 58.1289 3.53948 -4.73787 0
M  V30 608 H 57.0589 0.56727 -0.49671 0
M  V30 609 H 59.7099 0.827147 -1.638 0
M  V30 610 H 58.0919 3.43227 -1.97513 0
M  V30 611 H 59.2659 1.72894 -4.27135 0
M  V30 612 H 57.5809 1.70786 -3.79764 0
M  V30 613 H 60.1779 4.38823 -3.05513 0
M  V30 614 H 60.5209 3.91745 -1.40861 0
M  V30 615 H 61.0539 2.87467 -2.74968 0
M  V30 616 H 57.7929 3.18064 -5.73163 0
M  V30 617 H 57.3129 4.15651 -4.32428 0
M  V30 618 H 58.9919 4.20566 -4.91663 0
M  V30 619 N 59.124 1.23083 0.984299 0
M  V30 620 C 60.349 1.088 1.76571 0
M  V30 621 C 60.774 -0.356657 1.84688 0
M  V30 622 O 60.132 -1.25788 1.30565 0
M  V30 623 C 60.18 1.71371 3.17277 0
M  V30 624 O 59.284 0.973213 4.00752 0
M  V30 625 H 58.625 0.381599 0.543395 0
M  V30 626 H 61.155 1.63057 1.23587 0
M  V30 627 H 61.165 1.76449 3.67872 0
M  V30 628 H 59.84 2.76493 3.10684 0
M  V30 629 H 58.417 0.999078 3.59267 0
M  V30 630 N 60.6021 -1.18246 1.0419 0
M  V30 631 C 61.8501 -1.87886 0.744543 0
M  V30 632 C 62.1711 -1.8082 -0.730006 0
M  V30 633 O 61.4411 -1.22736 -1.52685 0
M  V30 634 H 60.0211 -0.695556 0.272417 0
M  V30 635 H 62.6831 -1.43494 1.31892 0
M  V30 636 H 61.7791 -2.9389 1.05049 0
M  V30 637 N 62.0802 -0.821533 -1.34494 0
M  V30 638 C 63.4962 -0.507117 -1.51329 0
M  V30 639 C 63.6962 0.968964 -1.76673 0
M  V30 640 O 62.7522 1.75348 -1.81685 0
M  V30 641 C 64.0652 -1.36544 -2.67911 0
M  V30 642 C 65.6132 -1.36242 -2.81793 0
M  V30 643 C 66.0882 -2.2052 -4.01416 0
M  V30 644 N 67.5792 -2.18136 -4.08621 0
M  V30 645 C 68.3142 -2.80095 -5.00334 0
M  V30 646 N 67.8102 -3.51039 -5.9728 0
M  V30 647 N 69.6032 -2.69656 -4.93196 0
M  V30 648 H 61.7542 -1.77729 -1.16302 0
M  V30 649 H 64.0172 -0.757291 -0.570276 0
M  V30 650 H 63.7232 -2.41361 -2.55808 0
M  V30 651 H 63.5972 -1.02917 -3.62888 0
M  V30 652 H 65.9842 -0.322041 -2.93338 0
M  V30 653 H 66.0652 -1.73866 -1.87628 0
M  V30 654 H 65.7092 -3.24607 -3.90631 0
M  V30 655 H 65.6392 -1.80247 -4.94791 0
M  V30 656 H 68.1302 -1.6653 -3.39229 0
M  V30 657 H 68.4432 -3.95565 -6.63889 0
M  V30 658 H 66.7882 -3.55145 -5.97409 0
M  V30 659 H 69.9792 -2.13808 -4.16418 0
M  V30 660 H 70.1522 -3.1823 -5.64476 0
M  V30 661 N 63.5583 1.46682 -0.576371 0
M  V30 662 C 64.5053 2.30241 0.160499 0
M  V30 663 C 65.4753 1.40233 0.890162 0
M  V30 664 O 66.6603 1.69186 0.882084 0
M  V30 665 C 63.8003 3.24578 1.1723 0
M  V30 666 C 62.9133 4.29684 0.446736 0
M  V30 667 C 62.0483 5.11154 1.44551 0
M  V30 668 C 61.0873 6.08015 0.70599 0
M  V30 669 N 60.2243 6.82376 1.65251 0
M  V30 670 H 65.0643 2.92727 -0.558127 0
M  V30 671 H 62.6013 1.44272 -0.287056 0
M  V30 672 H 64.5593 3.77711 1.77172 0
M  V30 673 H 63.1893 2.63916 1.85872 0
M  V30 674 H 62.2413 3.79458 -0.267594 0
M  V30 675 H 63.5533 4.98626 -0.131686 0
M  V30 676 H 62.7073 5.68533 2.11791 0
M  V30 677 H 61.4463 4.42158 2.05786 0
M  V30 678 H 60.4513 5.49796 0.0197725 0
M  V30 679 H 61.6763 6.79028 0.09912 0
M  V30 680 H 59.6223 6.16094 2.25308 0
M  V30 681 H 59.5393 7.47556 1.12673 0
M  V30 682 H 60.8073 7.44316 2.31546 0
M  V30 683 N 65.0364 0.313813 1.54444 0
M  V30 684 C 65.9664 -0.549454 2.26943 0
M  V30 685 C 66.9474 -1.12741 1.27372 0
M  V30 686 O 68.1324 -1.15436 1.56167 0
M  V30 687 C 65.2624 -1.71523 3.01989 0
M  V30 688 C 64.2164 -1.26703 4.08816 0
M  V30 689 C 63.5424 -2.51898 4.71647 0
M  V30 690 C 64.8424 -0.388962 5.2085 0
M  V30 691 H 66.5364 0.0552661 2.99349 0
M  V30 692 H 64.0824 0.0280207 1.43973 0
M  V30 693 H 66.0354 -2.32535 3.51433 0
M  V30 694 H 64.7594 -2.34639 2.27183 0
M  V30 695 H 63.4184 -0.679896 3.6024 0
M  V30 696 H 63.0664 -3.13356 3.93468 0
M  V30 697 H 62.7664 -2.22605 5.43802 0
M  V30 698 H 64.2904 -3.1369 5.23861 0
M  V30 699 H 65.7044 -0.905107 5.6611 0
M  V30 700 H 64.1014 -0.18924 5.99802 0
M  V30 701 H 65.1714 0.582699 4.81386 0
M  V30 702 N 66.5145 -1.57545 0.0417849 0
M  V30 703 C 67.4775 -2.09885 -0.92093 0
M  V30 704 C 68.4775 -1.01648 -1.24596 0
M  V30 705 O 69.6675 -1.27759 -1.1842 0
M  V30 706 C 66.7995 -2.57527 -2.23367 0
M  V30 707 H 67.9925 -2.96236 -0.467382 0
M  V30 708 H 65.5455 -1.5493 -0.206467 0
M  V30 709 H 66.2805 -1.74542 -2.73323 0
M  V30 710 H 66.0655 -3.36613 -2.01083 0
M  V30 711 H 67.5555 -2.98201 -2.92346 0
M  V30 712 N 67.9926 0.231505 -1.5589 0
M  V30 713 C 68.9246 1.31006 -1.8807 0
M  V30 714 C 69.9376 1.43539 -0.768145 0
M  V30 715 O 71.1266 1.44614 -1.04638 0
M  V30 716 C 68.2266 2.68688 -2.06543 0
M  V30 717 C 67.3996 2.78228 -3.37502 0
M  V30 718 C 66.4586 3.96857 -3.4553 0
M  V30 719 O 65.4846 3.85662 -4.18633 0
M  V30 720 N 66.6866 5.1072 -2.75944 0
M  V30 721 H 69.4516 1.03731 -2.81176 0
M  V30 722 H 67.0126 0.421573 -1.56315 0
M  V30 723 H 69.0046 3.46412 -2.09239 0
M  V30 724 H 67.5746 2.88605 -1.20109 0
M  V30 725 H 66.7946 1.87059 -3.46991 0
M  V30 726 H 68.0826 2.81564 -4.23791 0
M  V30 727 H 67.4806 5.2271 -2.16311 0
M  V30 728 H 66.0376 5.86523 -2.84314 0
M  V30 729 N 69.4707 1.49531 0.497807 0
M  V30 730 C 70.4027 1.62559 1.61578 0
M  V30 731 C 71.4157 0.508134 1.54667 0
M  V30 732 O 72.6047 0.780309 1.60541 0
M  V30 733 C 69.7047 1.56925 3.00379 0
M  V30 734 C 68.8777 2.84257 3.3244 0
M  V30 735 C 67.9367 2.71632 4.50669 0
M  V30 736 O 66.9627 3.4557 4.52294 0
M  V30 737 N 68.1647 1.83391 5.5077 0
M  V30 738 H 70.9297 2.58981 1.50828 0
M  V30 739 H 68.4907 1.4666 0.685743 0
M  V30 740 H 70.4827 1.46129 3.77397 0
M  V30 741 H 69.0527 0.683483 3.05037 0
M  V30 742 H 68.2727 3.09381 2.44289 0
M  V30 743 H 69.5607 3.68666 3.5066 0
M  V30 744 H 68.9587 1.22583 5.52259 0
M  V30 745 H 67.5157 1.78515 6.26878 0
M  V30 746 N 70.9488 -0.749086 1.3866 0
M  V30 747 C 72.1978 -1.50371 1.3443 0
M  V30 748 C 72.5108 -1.95503 -0.0616397 0
M  V30 749 O 73.7168 -2.70554 -0.226489 0
M  V30 750 C 72.1728 -2.71644 2.36088 0
M  V30 751 C 71.7808 -2.3352 3.82325 0
M  V30 752 C 73.5248 -3.49518 2.40909 0
M  V30 753 C 71.4318 -3.51431 4.75658 0
M  V30 754 H 70.3618 -0.564628 0.499712 0
M  V30 755 H 73.0128 -0.818449 1.64237 0
M  V30 756 H 71.3948 -3.42175 1.9933 0
M  V30 757 H 72.5688 -1.70627 4.28046 0
M  V30 758 H 70.8838 -1.6877 3.80665 0
M  V30 759 H 73.4808 -4.37197 3.07836 0
M  V30 760 H 73.8238 -3.90992 1.42937 0
M  V30 761 H 74.3568 -2.86005 2.76489 0
M  V30 762 H 71.0958 -3.15019 5.74842 0
M  V30 763 H 70.6158 -4.13352 4.34627 0
M  V30 764 H 72.2948 -4.17953 4.93887 0
M  V30 765 N 72.4269 -1.23603 -0.977757 0
M  V30 766 C 73.3739 -1.01954 -2.07061 0
M  V30 767 C 74.3439 0.0638697 -1.65977 0
M  V30 768 O 75.5289 -0.0887624 -1.90593 0
M  V30 769 C 72.6689 -0.619658 -3.39491 0
M  V30 770 C 71.7819 -1.77547 -3.93829 0
M  V30 771 C 70.9169 -1.32212 -5.14484 0
M  V30 772 C 69.9559 -2.44852 -5.60994 0
M  V30 773 N 69.0929 -2.00456 -6.72876 0
M  V30 774 H 73.9329 -1.95495 -2.24913 0
M  V30 775 H 71.4699 -0.973861 -1.10247 0
M  V30 776 H 73.4279 -0.368898 -4.15566 0
M  V30 777 H 72.0579 0.278752 -3.21594 0
M  V30 778 H 71.1099 -2.14016 -3.14486 0
M  V30 779 H 72.4219 -2.62219 -4.24314 0
M  V30 780 H 71.5759 -1.02965 -5.97899 0
M  V30 781 H 70.3149 -0.445808 -4.85658 0
M  V30 782 H 69.3199 -2.74871 -4.76157 0
M  V30 783 H 70.5449 -3.33024 -5.91837 0
M  V30 784 H 68.4909 -1.15208 -6.45804 0
M  V30 785 H 68.4079 -2.78687 -7.02759 0
M  V30 786 H 69.6759 -1.7432 -7.59758 0
M  V30 787 N 73.905 1.17692 -1.04816 0
M  V30 788 C 74.837 2.21103 -0.603822 0
M  V30 789 C 75.85 1.59411 0.33046 0
M  V30 790 O 77.039 1.7807 0.12379 0
M  V30 791 C 74.139 3.38623 0.136898 0
M  V30 792 C 73.312 4.29888 -0.807137 0
M  V30 793 C 72.371 5.26088 -0.10836 0
M  V30 794 O 71.397 5.64353 -0.741232 0
M  V30 795 N 72.599 5.68882 1.15558 0
M  V30 796 H 75.364 2.59848 -1.49329 0
M  V30 797 H 72.925 1.32553 -0.929587 0
M  V30 798 H 74.917 4.00009 0.614401 0
M  V30 799 H 73.487 2.98508 0.927993 0
M  V30 800 H 72.707 3.65993 -1.46434 0
M  V30 801 H 73.995 4.87759 -1.44807 0
M  V30 802 H 73.393 5.39861 1.69015 0
M  V30 803 H 71.95 6.32429 1.57722 0
M  V30 804 N 75.3831 0.828654 1.34056 0
M  V30 805 C 76.2931 0.256725 2.33191 0
M  V30 806 C 77.3091 -0.611898 1.62886 0
M  V30 807 O 78.4851 -0.51844 1.94613 0
M  V30 808 C 75.5501 -0.567238 3.42028 0
M  V30 809 C 74.6111 0.324458 4.28072 0
M  V30 810 C 73.8441 -0.460274 5.31712 0
M  V30 811 O 74.0671 -1.693 5.44696 0
M  V30 812 O 73.0011 0.160391 6.01686 0
M  V30 813 H 76.8271 1.07739 2.83947 0
M  V30 814 H 74.4121 0.59093 1.37217 0
M  V30 815 H 76.2941 -1.03582 4.08471 0
M  V30 816 H 74.9691 -1.36513 2.93506 0
M  V30 817 H 73.8761 0.840659 3.64532 0
M  V30 818 H 75.2091 1.08685 4.8005 0
M  V30 819 N 76.8612 -1.46375 0.584142 0
M  V30 820 C 78.1072 -2.02678 0.0703716 0
M  V30 821 C 78.4402 -1.4545 -1.28678 0
M  V30 822 O 77.7152 -0.62014 -1.84349 0
M  V30 823 C 77.9982 -3.60099 0.00614674 0
M  V30 824 C 77.8512 -4.27709 1.3923 0
M  V30 825 C 79.1702 -4.34598 -0.693742 0
M  V30 826 H 76.2892 -0.736504 0.027047 0
M  V30 827 H 78.9312 -1.74501 0.751615 0
M  V30 828 H 77.0812 -3.84236 -0.574009 0
M  V30 829 H 78.7532 -4.14832 2.01773 0
M  V30 830 H 76.9962 -3.87016 1.95962 0
M  V30 831 H 77.6672 -5.36478 1.29982 0
M  V30 832 H 80.1432 -4.15615 -0.200869 0
M  V30 833 H 79.0192 -5.44318 -0.707714 0
M  V30 834 H 79.2802 -4.05759 -1.75533 0
M  V30 835 N 78.3393 -0.321999 -1.54275 0
M  V30 836 C 79.7553 0.0306999 -1.5957 0
M  V30 837 C 79.9553 1.50614 -1.33857 0
M  V30 838 O 79.0113 2.2619 -1.12223 0
M  V30 839 C 80.3243 -0.386122 -2.98211 0
M  V30 840 C 81.8723 -0.336647 -3.11184 0
M  V30 841 C 82.3473 -0.728607 -4.52167 0
M  V30 842 N 83.8383 -0.681952 -4.58152 0
M  V30 843 C 84.5733 -0.957449 -5.6535 0
M  V30 844 N 84.0693 -1.3 -6.80494 0
M  V30 845 N 85.8623 -0.883113 -5.55119 0
M  V30 846 H 78.0133 -1.28332 -1.69247 0
M  V30 847 H 80.2763 -0.521716 -0.791528 0
M  V30 848 H 79.9823 -1.41404 -3.22022 0
M  V30 849 H 79.8563 0.249662 -3.76373 0
M  V30 850 H 82.2433 0.682058 -2.8711 0
M  V30 851 H 82.3243 -1.00734 -2.3513 0
M  V30 852 H 81.9683 -1.74522 -4.76974 0
M  V30 853 H 81.8983 -0.0356152 -5.26588 0
M  V30 854 H 84.3893 -0.428985 -3.75457 0
M  V30 855 H 84.7023 -1.49563 -7.58189 0
M  V30 856 H 83.0473 -1.33824 -6.81994 0
M  V30 857 H 86.2383 -0.615001 -4.64042 0
M  V30 858 H 86.4113 -1.10118 -6.38575 0
M  V30 859 N 79.8174 1.5752 -0.0501392 0
M  V30 860 C 80.7494 2.08413 0.95376 0
M  V30 861 C 81.7624 1.01175 1.27544 0
M  V30 862 O 82.9514 1.28744 1.23641 0
M  V30 863 C 80.0514 2.51138 2.27559 0
M  V30 864 C 79.2244 3.817 2.13598 0
M  V30 865 C 78.2834 4.10749 3.28895 0
M  V30 866 O 77.3094 4.80685 3.04845 0
M  V30 867 N 78.5114 3.62579 4.5334 0
M  V30 868 H 81.2764 2.95165 0.519383 0
M  V30 869 H 78.8374 1.61327 0.136127 0
M  V30 870 H 80.8294 2.67648 3.03557 0
M  V30 871 H 79.3994 1.6964 2.62567 0
M  V30 872 H 78.6194 3.74782 1.22197 0
M  V30 873 H 79.9074 4.67201 2.01496 0
M  V30 874 H 79.3054 3.06039 4.75769 0
M  V30 875 H 77.8624 3.84329 5.26436 0
M  V30 876 N 81.2955 -0.223234 1.56011 0
M  V30 877 C 82.2055 -1.29766 1.95443 0
M  V30 878 C 83.2215 -1.51373 0.858028 0
M  V30 879 O 84.3975 -1.64536 1.16146 0
M  V30 880 C 81.4625 -2.62772 2.26167 0
M  V30 881 C 80.5235 -2.49482 3.49367 0
M  V30 882 C 79.7565 -3.76145 3.78616 0
M  V30 883 O 79.9795 -4.79087 3.09568 0
M  V30 884 O 78.9135 -3.73358 4.72109 0
M  V30 885 H 82.7395 -0.99309 2.87004 0
M  V30 886 H 80.3245 -0.425958 1.43199 0
M  V30 887 H 82.2065 -3.41327 2.47131 0
M  V30 888 H 80.8815 -2.92913 1.37781 0
M  V30 889 H 79.7885 -1.69133 3.33684 0
M  V30 890 H 81.1215 -2.2428 4.38131 0
M  V30 891 N 82.7736 -1.49793 -0.48987 0
M  V30 892 C 84.0196 -1.60078 -1.24511 0
M  V30 893 C 84.3526 -0.291608 -1.91998 0
M  V30 894 O 83.6276 0.705647 -1.81248 0
M  V30 895 C 83.9106 -2.76791 -2.30345 0
M  V30 896 C 83.7636 -4.17535 -1.67286 0
M  V30 897 C 85.0826 -2.89111 -3.31817 0
M  V30 898 H 82.2016 -0.582645 -0.451324 0
M  V30 899 H 84.8436 -1.82117 -0.541612 0
M  V30 900 H 82.9936 -2.5813 -2.90346 0
M  V30 901 H 84.6656 -4.4774 -1.11026 0
M  V30 902 H 82.9086 -4.22665 -0.976577 0
M  V30 903 H 83.5796 -4.95094 -2.44103 0
M  V30 904 H 86.0556 -3.06133 -2.81819 0
M  V30 905 H 84.9316 -3.72433 -4.03219 0
M  V30 906 H 85.1926 -1.9893 -3.94815 0
M  V30 907 N 84.2517 0.741722 -1.39055 0
M  V30 908 C 85.1617 1.88621 -1.39496 0
M  V30 909 C 86.1777 1.71557 -0.290578 0
M  V30 910 O 87.3537 1.94275 -0.530954 0
M  V30 911 C 84.4187 3.24134 -1.23037 0
M  V30 912 C 83.4797 3.5364 -2.43387 0
M  V30 913 C 82.7127 4.82687 -2.27703 0
M  V30 914 O 82.9357 5.55922 -1.27696 0
M  V30 915 O 81.8697 5.1194 -3.16545 0
M  V30 916 H 85.6957 1.91203 -2.35956 0
M  V30 917 H 83.2807 0.888625 -1.20099 0
M  V30 918 H 85.1627 4.0513 -1.15964 0
M  V30 919 H 83.8377 3.22337 -0.296691 0
M  V30 920 H 82.7447 2.72758 -2.56035 0
M  V30 921 H 84.0777 3.60209 -3.35425 0
M  V30 922 N 85.7298 1.2412 0.971189 0
M  V30 923 C 86.6398 1.04747 2.09917 0
M  V30 924 C 87.6558 -0.0107162 1.73997 0
M  V30 925 O 88.8318 0.186714 2.00533 0
M  V30 926 C 85.8968 0.650828 3.40537 0
M  V30 927 C 84.9578 1.7851 3.90426 0
M  V30 928 C 84.1908 1.40729 5.14812 0
M  V30 929 O 84.4138 0.29557 5.69634 0
M  V30 930 O 83.3478 2.23168 5.58999 0
M  V30 931 H 87.1738 1.99304 2.29154 0
M  V30 932 H 84.7588 1.02908 1.08307 0
M  V30 933 H 86.6408 0.440992 4.19086 0
M  V30 934 H 85.3158 -0.265649 3.22608 0
M  V30 935 H 84.2228 2.04966 3.12953 0
M  V30 936 H 85.5558 2.68023 4.12825 0
M  V30 937 N 87.2079 -1.17134 1.05439 0
M  V30 938 C 88.4539 -1.87979 0.776872 0
M  V30 939 C 88.8089 -1.7965 -0.688751 0
M  V30 940 O 88.1019 -1.19535 -1.4974 0
M  V30 941 C 88.2959 -3.36833 1.19491 0
M  V30 942 C 88.1249 -3.59653 2.69963 0
M  V30 943 C 86.8949 -3.76234 3.37307 0
M  V30 944 C 89.0929 -3.59091 3.68182 0
M  V30 945 N 87.0749 -3.86922 4.76618 0
M  V30 946 C 88.4459 -3.75659 4.93235 0
M  V30 947 C 90.5009 -3.42255 3.61616 0
M  V30 948 C 89.2039 -3.77133 6.12506 0
M  V30 949 C 91.2299 -3.45018 4.8033 0
M  V30 950 C 90.5919 -3.62096 6.04207 0
M  V30 951 H 86.6909 -0.705876 0.336546 0
M  V30 952 H 89.2749 -1.40602 1.34682 0
M  V30 953 H 87.4459 -3.82873 0.652884 0
M  V30 954 H 89.1779 -3.95305 0.866966 0
M  V30 955 H 85.9329 -3.76193 2.87708 0
M  V30 956 H 86.3569 -3.96055 5.49062 0
M  V30 957 H 90.9989 -3.27986 2.66805 0
M  V30 958 H 88.7169 -3.90186 7.07659 0
M  V30 959 H 92.3029 -3.33246 4.76905 0
M  V30 960 H 91.1829 -3.64142 6.94529 0
M  V30 961 N 88.686 -0.835752 -1.33615 0
M  V30 962 C 89.932 -0.430596 -1.98176 0
M  V30 963 C 90.265 1.00684 -1.66061 0
M  V30 964 O 89.54 1.70339 -0.938877 0
M  V30 965 C 89.823 -0.648065 -3.5422 0
M  V30 966 C 89.676 -2.13255 -3.96033 0
M  V30 967 C 90.995 -0.0922113 -4.40003 0
M  V30 968 H 88.114 -0.157924 -0.719881 0
M  V30 969 H 90.756 -1.05069 -1.58305 0
M  V30 970 H 88.906 -0.120237 -3.88314 0
M  V30 971 H 90.578 -2.725 -3.72211 0
M  V30 972 H 88.821 -2.61823 -3.45878 0
M  V30 973 H 89.492 -2.23547 -5.04708 0
M  V30 974 H 91.968 -0.543343 -4.12537 0
M  V30 975 H 90.844 -0.274083 -5.48215 0
M  V30 976 H 91.105 1.00378 -4.30554 0
M  V30 977 N 90.1641 1.46063 -0.591896 0
M  V30 978 C 91.1271 2.28854 0.125973 0
M  V30 979 C 92.1271 1.38903 0.810107 0
M  V30 980 O 93.3171 1.61186 0.66066 0
M  V30 981 C 90.4491 3.19526 1.1881 0
M  V30 982 H 91.6421 2.93802 -0.601717 0
M  V30 983 H 89.1951 1.52325 -0.350254 0
M  V30 984 H 89.9301 2.59345 1.94707 0
M  V30 985 H 89.7151 3.85766 0.701936 0
M  V30 986 H 91.2051 3.81817 1.69132 0
M  V30 987 N 91.6422 0.330177 1.54103 0
M  V30 988 C 92.8672 -0.274893 2.0557 0
M  V30 989 C 93.2922 -1.44487 1.20437 0
M  V30 990 O 92.6502 -1.80021 0.214991 0
M  V30 991 C 92.6982 -0.68079 3.54115 0
M  V30 992 O 91.8022 -1.7824 3.71893 0
M  V30 993 H 91.1432 -0.0483849 0.662235 0
M  V30 994 H 93.6732 0.480508 1.98878 0
M  V30 995 H 93.6832 -0.961635 3.96505 0
M  V30 996 H 92.3582 0.174903 4.15532 0
M  V30 997 H 90.9352 -1.49985 3.41407 0
M  V30 998 N 93.1203 -1.57491 0.0584922 0
M  V30 999 C 94.3683 -1.92597 -0.612436 0
M  V30 1000 C 94.6893 -0.938162 -1.70949 0
M  V30 1001 O 93.9593 0.0158301 -1.95894 0
M  V30 1002 H 92.5393 -0.710964 -0.229214 0
M  V30 1003 H 95.2013 -1.94571 0.113218 0
M  V30 1004 H 94.2973 -2.94038 -1.04633 0
M  V30 1005 N 94.5984 0.214957 -1.56127 0
M  V30 1006 C 95.5464 1.28601 -1.93816 0
M  V30 1007 C 96.5404 1.48175 -0.821016 0
M  V30 1008 O 97.7464 1.49271 -1.0059 0
M  V30 1009 H 94.1214 0.431302 -0.616022 0
M  V30 1010 H 96.0924 0.940991 -2.83175 0
M  V30 1011 C 94.8414 2.62779 -2.27689 0
M  V30 1012 H 94.1644 2.48527 -3.13168 0
M  V30 1013 H 95.6044 3.36517 -2.57939 0
M  V30 1014 C 94.0634 3.18285 -1.10436 0
M  V30 1015 O 94.5934 4.00002 -0.368945 0
M  V30 1016 N 92.7994 2.7675 -0.886433 0
M  V30 1017 H 92.3464 2.10404 -1.48619 0
M  V30 1018 H 92.3044 3.14229 -0.103656 0
M  V30 1019 N 96.0765 1.50051 0.48192 0
M  V30 1020 C 97.0235 1.68122 1.58125 0
M  V30 1021 C 97.9935 0.522545 1.57666 0
M  V30 1022 O 99.1785 0.751844 1.75362 0
M  V30 1023 C 96.3185 1.77142 2.96167 0
M  V30 1024 C 95.4315 3.0444 3.06497 0
M  V30 1025 C 94.5665 3.04321 4.35387 0
M  V30 1026 C 93.6055 4.26118 4.3942 0
M  V30 1027 N 92.7425 4.238 5.59766 0
M  V30 1028 H 97.5825 2.6198 1.42022 0
M  V30 1029 H 95.1195 1.29877 0.690687 0
M  V30 1030 H 97.0775 1.80352 3.76203 0
M  V30 1031 H 95.7075 0.867329 3.1093 0
M  V30 1032 H 94.7595 3.10752 2.19402 0
M  V30 1033 H 96.0715 3.94426 3.05336 0
M  V30 1034 H 95.2255 3.062 5.23762 0
M  V30 1035 H 93.9645 2.12147 4.39141 0
M  V30 1036 H 92.9695 4.24463 3.49444 0
M  V30 1037 H 94.1945 5.19507 4.37366 0
M  V30 1038 H 92.1405 3.34474 5.64326 0
M  V30 1039 H 92.0575 5.07542 5.60301 0
M  V30 1040 H 93.3255 4.2981 6.50295 0
M  V30 1041 N 97.5546 -0.734337 1.39446 0
M  V30 1042 C 98.9706 -1.03997 1.21065 0
M  V30 1043 C 99.1706 -2.01369 0.0727019 0
M  V30 1044 O 98.2266 -2.45856 -0.575426 0
M  V30 1045 C 99.5396 -1.60163 2.54496 0
M  V30 1046 C 101.088 -1.7224 2.61347 0
M  V30 1047 C 101.563 -2.31814 3.95002 0
M  V30 1048 N 103.054 -2.39223 3.96644 0
M  V30 1049 C 103.789 -2.86258 4.96834 0
M  V30 1050 N 103.285 -3.33184 6.07421 0
M  V30 1051 N 105.078 -2.85473 4.84213 0
M  V30 1052 H 97.2286 -0.0885624 2.12215 0
M  V30 1053 H 99.4916 -0.10191 0.942506 0
M  V30 1054 H 99.1976 -0.960811 3.38321 0
M  V30 1055 H 99.0716 -2.5896 2.74262 0
M  V30 1056 H 101.459 -2.35443 1.77906 0
M  V30 1057 H 101.54 -0.720939 2.4543 0
M  V30 1058 H 101.184 -1.69238 4.78875 0
M  V30 1059 H 101.114 -3.32638 4.08239 0
M  V30 1060 H 103.605 -2.06057 3.16779 0
M  V30 1061 H 103.918 -3.67586 6.7978 0
M  V30 1062 H 102.263 -3.31191 6.11013 0
M  V30 1063 H 105.454 -2.48136 3.96921 0
M  V30 1064 H 105.627 -3.21814 5.62441 0
M  V30 1065 N 99.0327 -1.24633 -0.964593 0
M  V30 1066 C 100.444 -1.08045 -1.5226 0
M  V30 1067 C 100.795 0.347116 -1.93105 0
M  V30 1068 O 99.9197 1.23588 -1.77637 0
M  V30 1069 C 100.515 -1.95514 -2.76695 0
M  V30 1070 C 99.0737 -1.8314 -3.28841 0
M  V30 1071 C 98.2207 -1.90262 -2.01732 0
M  V30 1072 H 101.172 -1.38064 -0.782553 0
M  V30 1073 H 101.193 -1.48925 -3.50145 0
M  V30 1074 H 100.705 -2.99407 -2.46936 0
M  V30 1075 H 98.8057 -0.82092 -3.63444 0
M  V30 1076 H 98.9187 -2.67406 -3.97531 0
M  V30 1077 H 97.2827 -1.34027 -2.16584 0
M  V30 1078 H 98.0657 -2.9574 -1.74334 0
M  V30 1079 N 100.511 1.16574 -1.06058 0
M  V30 1080 C 101.461 2.18854 -0.63929 0
M  V30 1081 C 102.445 1.57505 0.328798 0
M  V30 1082 O 103.637 1.76408 0.144623 0
M  V30 1083 C 100.766 3.43291 -0.0247203 0
M  V30 1084 C 99.8518 4.11722 -1.01716 0
M  V30 1085 N 100.243 4.55841 -2.19186 0
M  V30 1086 C 98.5408 4.37872 -0.847569 0
M  V30 1087 C 99.2418 5.08751 -2.82042 0
M  V30 1088 N 98.2178 5.01489 -2.09784 0
M  V30 1089 H 102.02 2.5068 -1.53417 0
M  V30 1090 H 99.5338 1.32999 -0.931935 0
M  V30 1091 H 101.531 4.15856 0.294915 0
M  V30 1092 H 100.191 3.12954 0.865448 0
M  V30 1093 H 101.202 4.49649 -2.56975 0
M  V30 1094 H 97.8788 4.17499 -0.00918848 0
M  V30 1095 H 99.2688 5.52944 -3.81709 0
M  V30 1096 N 101.989 0.842826 1.3317 0
M  V30 1097 C 102.919 0.294028 2.31641 0
M  V30 1098 C 103.9 -0.600401 1.59151 0
M  V30 1099 O 105.085 -0.523124 1.87022 0
M  V30 1100 C 102.215 -0.528416 3.43257 0
M  V30 1101 C 101.169 0.27056 4.27144 0
M  V30 1102 C 100.495 -0.675881 5.30411 0
M  V30 1103 C 101.795 1.48981 5.00602 0
M  V30 1104 H 103.489 1.11681 2.77791 0
M  V30 1105 H 101.035 0.538478 1.33553 0
M  V30 1106 H 102.988 -0.922674 4.11175 0
M  V30 1107 H 101.712 -1.38445 2.95805 0
M  V30 1108 H 100.371 0.646427 3.60856 0
M  V30 1109 H 100.019 -1.52842 4.79216 0
M  V30 1110 H 99.7189 -0.145374 5.8742 0
M  V30 1111 H 101.243 -1.06757 6.01195 0
M  V30 1112 H 102.657 1.16849 5.61266 0
M  V30 1113 H 101.054 1.95739 5.6728 0
M  V30 1114 H 102.124 2.25746 4.29147 0
M  V30 1115 N 103.467 -1.45747 0.599634 0
M  V30 1116 C 104.692 -2.07178 0.0960198 0
M  V30 1117 C 105.117 -1.44268 -1.207 0
M  V30 1118 O 104.475 -0.532503 -1.73303 0
M  V30 1119 C 104.523 -3.60579 -0.0385348 0
M  V30 1120 O 103.627 -3.97713 -1.0908 0
M  V30 1121 H 102.968 -0.660251 0.0704593 0
M  V30 1122 H 105.498 -1.87124 0.827385 0
M  V30 1123 H 105.508 -4.07298 -0.239304 0
M  V30 1124 H 104.183 -4.05756 0.912947 0
M  V30 1125 H 102.76 -3.62678 -0.867135 0
M  V30 1126 N 104.945 -0.338344 -1.53925 0
M  V30 1127 C 106.191 0.260143 -2.01125 0
M  V30 1128 C 106.524 1.50617 -1.22589 0
M  V30 1129 O 105.799 1.91979 -0.312113 0
M  V30 1130 C 106.082 0.579499 -3.55407 0
M  V30 1131 C 105.935 -0.678264 -4.44657 0
M  V30 1132 C 107.254 1.39122 -4.17532 0
M  V30 1133 H 104.373 0.0930772 -0.731099 0
M  V30 1134 H 107.015 -0.457852 -1.84401 0
M  V30 1135 H 105.165 1.19118 -3.69788 0
M  V30 1136 H 106.837 -1.31631 -4.42121 0
M  V30 1137 H 105.08 -1.3042 -4.13731 0
M  V30 1138 H 105.751 -0.410143 -5.50474 0
M  V30 1139 H 108.227 0.874035 -4.06817 0
M  V30 1140 H 107.103 1.58342 -5.25565 0
M  V30 1141 H 107.364 2.39178 -3.71815 0
M  V30 1142 N 106.423 1.57458 -0.0668435 0
M  V30 1143 C 107.672 1.92477 0.602947 0
M  V30 1144 C 107.985 0.948419 1.71068 0
M  V30 1145 O 109.191 1.19124 2.43971 0
M  V30 1146 C 107.647 3.41903 1.12383 0
M  V30 1147 C 107.255 4.47975 0.04737 0
M  V30 1148 C 108.999 3.85931 1.76797 0
M  V30 1149 C 106.906 5.88529 0.582022 0
M  V30 1150 H 105.836 0.718387 0.22899 0
M  V30 1151 H 108.487 1.82978 -0.138276 0
M  V30 1152 H 106.869 3.46459 1.91787 0
M  V30 1153 H 108.043 4.55029 -0.726978 0
M  V30 1154 H 106.358 4.13384 -0.500243 0
M  V30 1155 H 108.955 4.88322 2.17821 0
M  V30 1156 H 109.298 3.23029 2.62599 0
M  V30 1157 H 109.831 3.83958 1.04024 0
M  V30 1158 H 106.57 6.55065 -0.238721 0
M  V30 1159 H 106.09 5.85004 1.324 0
M  V30 1160 H 107.769 6.38258 1.05999 0
M  V30 1161 N 107.901 -0.206675 1.56239 0
M  V30 1162 C 108.831 -1.25909 1.96645 0
M  V30 1163 C 109.812 -1.48097 0.836734 0
M  V30 1164 O 110.997 -1.6003 1.10019 0
M  V30 1165 C 108.127 -2.6058 2.29599 0
M  V30 1166 C 107.081 -2.53024 3.452 0
M  V30 1167 C 106.407 -3.91861 3.63798 0
M  V30 1168 C 107.707 -2.06524 4.79734 0
M  V30 1169 H 109.401 -0.923369 2.84806 0
M  V30 1170 H 106.947 -0.442735 1.37025 0
M  V30 1171 H 108.9 -3.34375 2.56459 0
M  V30 1172 H 107.624 -2.95869 1.38307 0
M  V30 1173 H 106.283 -1.81684 3.18412 0
M  V30 1174 H 105.931 -4.24483 2.69857 0
M  V30 1175 H 105.631 -3.87683 4.4156 0
M  V30 1176 H 107.155 -4.67296 3.93022 0
M  V30 1177 H 108.569 -2.70072 5.05702 0
M  V30 1178 H 106.966 -2.13374 5.60885 0
M  V30 1179 H 108.036 -1.01802 4.74093 0
M  V30 1180 N 109.379 -1.50304 -0.473955 0
M  V30 1181 C 110.625 -1.61389 -1.22806 0
M  V30 1182 C 110.958 -0.311955 -1.91678 0
M  V30 1183 O 110.233 0.686384 -1.81986 0
M  V30 1184 C 110.516 -2.79219 -2.27396 0
M  V30 1185 C 110.369 -4.19286 -1.62848 0
M  V30 1186 C 111.688 -2.92614 -3.28732 0
M  V30 1187 H 108.807 -0.587399 -0.445119 0
M  V30 1188 H 111.449 -1.82681 -0.522265 0
M  V30 1189 H 109.599 -2.61195 -2.87592 0
M  V30 1190 H 111.271 -4.48892 -1.06271 0
M  V30 1191 H 109.514 -4.23677 -0.931693 0
M  V30 1192 H 110.185 -4.97655 -2.38838 0
M  V30 1193 H 112.661 -3.09105 -2.78556 0
M  V30 1194 H 111.537 -3.76688 -3.99246 0
M  V30 1195 H 111.798 -2.03107 -3.92683 0
M  V30 1196 N 110.857 0.726932 -1.39834 0
M  V30 1197 C 112.105 1.4837 -1.37225 0
M  V30 1198 C 112.426 1.94979 0.0284857 0
M  V30 1199 O 111.696 1.69555 0.981213 0
M  V30 1200 H 110.276 0.55043 -0.505011 0
M  V30 1201 H 112.938 0.862468 -1.74778 0
M  V30 1202 H 112.034 2.36198 -2.04003 0
M  V30 1203 N 112.336 1.25143 0.95797 0
M  V30 1204 C 113.246 1.06968 2.08794 0
M  V30 1205 C 114.262 0.00773911 1.73998 0
M  V30 1206 O 115.438 0.207972 2.00323 0
M  V30 1207 C 112.503 0.68691 3.39827 0
M  V30 1208 C 111.564 1.82641 3.88511 0
M  V30 1209 C 110.797 1.46181 5.1329 0
M  V30 1210 O 111.02 0.355971 5.69288 0
M  V30 1211 O 109.954 2.29085 5.566 0
M  V30 1212 H 113.78 2.01723 2.27027 0
M  V30 1213 H 111.365 1.04051 1.07209 0
M  V30 1214 H 113.247 0.485417 4.18595 0
M  V30 1215 H 111.922 -0.231417 3.22872 0
M  V30 1216 H 110.829 2.08274 3.10762 0
M  V30 1217 H 112.162 2.72386 4.09959 0
M  V30 1218 N 113.814 -1.1601 1.06675 0
M  V30 1219 C 114.762 -2.22586 0.675157 0
M  V30 1220 C 115.756 -1.66525 -0.310766 0
M  V30 1221 O 116.962 -1.79145 -0.175215 0
M  V30 1222 H 113.337 -0.724855 0.200223 0
M  V30 1223 H 115.308 -2.52899 1.58381 0
M  V30 1224 C 114.057 -3.47604 0.0817162 0
M  V30 1225 H 113.38 -3.91058 0.831484 0
M  V30 1226 H 114.82 -4.23718 -0.154708 0
M  V30 1227 C 113.279 -3.15718 -1.17576 0
M  V30 1228 O 113.809 -3.31878 -2.26318 0
M  V30 1229 N 112.015 -2.69816 -1.07923 0
M  V30 1230 H 111.562 -2.56866 -0.194293 0
M  V30 1231 H 111.52 -2.48855 -1.92141 0
M  V30 1232 N 115.292 -0.849877 -1.32721 0
M  V30 1233 C 116.703 -0.506188 -1.79707 0
M  V30 1234 C 117.054 0.975627 -1.70223 0
M  V30 1235 O 116.179 1.76078 -1.25799 0
M  V30 1236 C 116.774 -0.912044 -3.26293 0
M  V30 1237 C 115.333 -0.620326 -3.71253 0
M  V30 1238 C 114.48 -1.11439 -2.53922 0
M  V30 1239 H 117.431 -1.03754 -1.20087 0
M  V30 1240 H 117.452 -0.226493 -3.79825 0
M  V30 1241 H 116.964 -1.99057 -3.33164 0
M  V30 1242 H 115.065 0.447674 -3.69901 0
M  V30 1243 H 115.178 -1.18327 -4.64258 0
M  V30 1244 H 113.542 -0.534834 -2.49021 0
M  V30 1245 H 114.325 -2.19992 -2.6355 0
M  V30 1246 N 116.77 1.45427 -0.607355 0
M  V30 1247 C 117.733 2.28974 0.101693 0
M  V30 1248 C 118.733 1.39754 0.795329 0
M  V30 1249 O 119.923 1.61878 0.643527 0
M  V30 1250 C 117.055 3.20768 1.15414 0
M  V30 1251 H 118.248 2.93147 -0.632844 0
M  V30 1252 H 115.801 1.51945 -0.366391 0
M  V30 1253 H 116.536 2.61395 1.91945 0
M  V30 1254 H 116.321 3.86489 0.66098 0
M  V30 1255 H 117.811 3.83589 1.65073 0
M  V30 1256 N 118.248 0.346503 1.53744 0
M  V30 1257 C 119.473 -0.253074 2.0585 0
M  V30 1258 C 119.898 -1.43202 1.21962 0
M  V30 1259 O 119.256 -1.79783 0.234073 0
M  V30 1260 C 119.304 -0.643193 3.54817 0
M  V30 1261 O 118.408 -1.74286 3.73762 0
M  V30 1262 H 117.749 -0.0413583 0.662711 0
M  V30 1263 H 120.279 0.501574 1.98357 0
M  V30 1264 H 120.289 -0.919526 3.97503 0
M  V30 1265 H 118.964 0.218966 4.15323 0
M  V30 1266 H 117.541 -1.46356 3.42979 0
M  V30 1267 N 119.726 -1.57421 0.075193 0
M  V30 1268 C 120.676 -2.09441 -0.901025 0
M  V30 1269 C 121.66 -1.00486 -1.25663 0
M  V30 1270 O 122.852 -1.2679 -1.23504 0
M  V30 1271 C 119.981 -2.66233 -2.16737 0
M  V30 1272 C 119.067 -3.82198 -1.83808 0
M  V30 1273 N 119.458 -4.91028 -1.21345 0
M  V30 1274 C 117.756 -3.91558 -2.13538 0
M  V30 1275 C 118.457 -5.71852 -1.06585 0
M  V30 1276 N 117.433 -5.20233 -1.57667 0
M  V30 1277 H 121.235 -2.90972 -0.413815 0
M  V30 1278 H 118.749 -1.6189 -0.128601 0
M  V30 1279 H 120.746 -3.01819 -2.87595 0
M  V30 1280 H 119.406 -1.8615 -2.66042 0
M  V30 1281 H 120.417 -5.10323 -0.88268 0
M  V30 1282 H 117.094 -3.22454 -2.65197 0
M  V30 1283 H 118.484 -6.69401 -0.578933 0
M  V30 1284 N 121.204 0.198386 -1.56346 0
M  V30 1285 C 122.429 0.939682 -1.84891 0
M  V30 1286 C 122.854 1.76202 -0.658369 0
M  V30 1287 O 122.212 1.76993 0.392851 0
M  V30 1288 C 122.26 1.81428 -3.11635 0
M  V30 1289 O 121.364 2.91265 -2.91956 0
M  V30 1290 H 120.705 0.264807 -0.608912 0
M  V30 1291 H 123.235 0.204695 -2.03573 0
M  V30 1292 H 123.245 2.21958 -3.42343 0
M  V30 1293 H 121.92 1.21004 -3.97908 0
M  V30 1294 H 120.497 2.54514 -2.72538 0
M  V30 1295 N 122.682 1.50554 0.465978 0
M  V30 1296 C 123.912 1.65323 1.23903 0
M  V30 1297 C 124.32 0.338051 1.86155 0
M  V30 1298 O 123.663 -0.690518 1.70228 0
M  V30 1299 C 123.725 2.69048 2.3844 0
M  V30 1300 C 123.389 4.12462 1.96784 0
M  V30 1301 C 124.386 4.98168 1.48745 0
M  V30 1302 C 122.071 4.58407 2.05349 0
M  V30 1303 C 124.065 6.27868 1.0982 0
M  V30 1304 C 121.752 5.88112 1.66035 0
M  V30 1305 C 122.75 6.72668 1.18349 0
M  V30 1306 O 122.438 7.99951 0.795825 0
M  V30 1307 H 122.17 0.558629 0.38067 0
M  V30 1308 H 124.724 1.97561 0.562022 0
M  V30 1309 H 122.954 2.32062 3.09328 0
M  V30 1310 H 124.643 2.72985 3.0039 0
M  V30 1311 H 125.409 4.63885 1.41546 0
M  V30 1312 H 121.288 3.92735 2.41414 0
M  V30 1313 H 124.832 6.93819 0.725293 0
M  V30 1314 H 120.729 6.21914 1.72895 0
M  V30 1315 H 121.497 8.13265 0.924222 0
M  V30 1316 N 124.16 -0.719506 1.40217 0
M  V30 1317 C 125.406 -1.48152 1.38488 0
M  V30 1318 C 125.739 -1.94195 -0.0141867 0
M  V30 1319 O 125.014 -1.67884 -0.982096 0
M  V30 1320 C 125.297 -2.71035 2.37091 0
M  V30 1321 C 125.15 -2.30912 3.86005 0
M  V30 1322 C 126.469 -3.73182 2.33288 0
M  V30 1323 H 123.588 -0.537395 0.504357 0
M  V30 1324 H 126.23 -0.821472 1.71324 0
M  V30 1325 H 124.38 -3.27352 2.0922 0
M  V30 1326 H 126.052 -1.80107 4.24687 0
M  V30 1327 H 124.295 -1.62958 4.02029 0
M  V30 1328 H 124.966 -3.18978 4.50508 0
M  V30 1329 H 127.442 -3.26485 2.57966 0
M  V30 1330 H 126.318 -4.56806 3.04334 0
M  V30 1331 H 126.579 -4.21202 1.34317 0
M  V30 1332 N 125.638 -1.25649 -0.95132 0
M  V30 1333 C 126.568 -1.08808 -2.06599 0
M  V30 1334 C 127.549 0.00382547 -1.701 0
M  V30 1335 O 128.734 -0.166325 -1.93486 0
M  V30 1336 C 125.864 -0.709542 -3.39975 0
M  V30 1337 C 124.818 -1.75206 -3.90496 0
M  V30 1338 C 124.144 -1.22811 -5.20405 0
M  V30 1339 C 125.444 -3.15153 -4.16504 0
M  V30 1340 H 127.138 -2.02048 -2.20946 0
M  V30 1341 H 124.684 -0.972835 -1.06169 0
M  V30 1342 H 126.637 -0.578649 -4.17408 0
M  V30 1343 H 125.361 0.258556 -3.25575 0
M  V30 1344 H 124.02 -1.87145 -3.15234 0
M  V30 1345 H 123.668 -0.250145 -5.02378 0
M  V30 1346 H 123.368 -1.92492 -5.55176 0
M  V30 1347 H 124.892 -1.10968 -6.00432 0
M  V30 1348 H 126.306 -3.06349 -4.84586 0
M  V30 1349 H 124.703 -3.82333 -4.62538 0
M  V30 1350 H 125.773 -3.61966 -3.22658 0
M  V30 1351 N 127.117 1.15442 -1.07289 0
M  V30 1352 C 128.065 2.22225 -0.686952 0
M  V30 1353 C 129.059 1.66688 0.30193 0
M  V30 1354 O 130.265 1.79236 0.165712 0
M  V30 1355 H 126.64 0.723783 -0.204064 0
M  V30 1356 H 128.611 2.52056 -1.5972 0
M  V30 1357 C 127.36 3.47556 -0.100149 0
M  V30 1358 H 126.683 3.90612 -0.852211 0
M  V30 1359 H 128.123 4.23794 0.132235 0
M  V30 1360 C 126.582 3.16337 1.159 0
M  V30 1361 O 127.112 3.33074 2.24555 0
M  V30 1362 N 125.318 2.70385 1.06491 0
M  V30 1363 H 124.865 2.56966 0.180668 0
M  V30 1364 H 124.823 2.49871 1.90819 0
M  V30 1365 N 128.595 0.856903 1.32268 0
M  V30 1366 C 129.542 0.301172 2.28827 0
M  V30 1367 C 130.512 -0.593104 1.5515 0
M  V30 1368 O 131.697 -0.527537 1.83362 0
M  V30 1369 C 128.837 -0.502523 3.41422 0
M  V30 1370 C 127.95 0.417797 4.29975 0
M  V30 1371 C 127.085 -0.398749 5.29701 0
M  V30 1372 C 126.124 0.518827 6.09897 0
M  V30 1373 N 125.261 -0.260674 7.01616 0
M  V30 1374 H 130.101 1.12983 2.75751 0
M  V30 1375 H 127.638 0.568582 1.35667 0
M  V30 1376 H 129.596 -0.984141 4.05426 0
M  V30 1377 H 128.226 -1.29599 2.95642 0
M  V30 1378 H 127.278 1.01781 3.66531 0
M  V30 1379 H 128.59 1.12191 4.86019 0
M  V30 1380 H 127.744 -0.943435 5.9932 0
M  V30 1381 H 126.483 -1.13622 4.7428 0
M  V30 1382 H 125.488 1.07538 5.39181 0
M  V30 1383 H 126.713 1.25495 6.67404 0
M  V30 1384 H 124.659 -0.981198 6.4862 0
M  V30 1385 H 124.576 0.384364 7.55022 0
M  V30 1386 H 125.844 -0.787014 7.75517 0
M  V30 1387 N 130.073 -1.45103 0.615059 0
M  V30 1388 C 131.301 -2.06553 0.11977 0
M  V30 1389 C 131.716 -1.45842 -1.19898 0
M  V30 1390 O 131.073 -0.575325 -1.73194 0
M  V30 1391 C 131.124 -3.61495 -0.018364 0
M  V30 1392 O 130.845 -4.19942 1.24822 0
M  V30 1393 C 132.346 -4.39947 -0.544237 0
M  V30 1394 H 129.566 -0.667096 0.0722739 0
M  V30 1395 H 132.11 -1.8623 0.84491 0
M  V30 1396 H 130.265 -3.81135 -0.693865 0
M  V30 1397 H 130.679 -5.13204 1.0827 0
M  V30 1398 H 132.153 -5.48838 -0.589953 0
M  V30 1399 H 132.63 -4.10255 -1.56805 0
M  V30 1400 H 133.236 -4.25188 0.0974703 0
M  V30 1401 N 131.551 -0.354651 -1.53558 0
M  V30 1402 C 132.967 -0.00315426 -1.596 0
M  V30 1403 C 133.167 1.47741 -1.37021 0
M  V30 1404 O 132.223 2.23759 -1.16996 0
M  V30 1405 C 133.536 -0.44929 -2.97325 0
M  V30 1406 C 135.084 -0.402578 -3.104 0
M  V30 1407 C 135.559 -0.824355 -4.5052 0
M  V30 1408 N 137.05 -0.778979 -4.56603 0
M  V30 1409 C 137.785 -1.07715 -5.63192 0
M  V30 1410 N 137.281 -1.44405 -6.77583 0
M  V30 1411 N 139.074 -1.00066 -5.53121 0
M  V30 1412 H 131.225 -1.31893 -1.66487 0
M  V30 1413 H 133.488 -0.538388 -0.780284 0
M  V30 1414 H 133.194 -1.48202 -3.1895 0
M  V30 1415 H 133.068 0.169772 -3.76818 0
M  V30 1416 H 135.455 0.621004 -2.88492 0
M  V30 1417 H 135.536 -1.05699 -2.32941 0
M  V30 1418 H 135.18 -1.846 -4.73165 0
M  V30 1419 H 135.11 -0.147304 -5.26394 0
M  V30 1420 H 137.601 -0.508528 -3.74463 0
M  V30 1421 H 137.914 -1.65612 -7.54846 0
M  V30 1422 H 136.259 -1.4826 -6.79002 0
M  V30 1423 H 139.45 -0.713293 -4.62633 0
M  V30 1424 H 139.623 -1.23638 -6.36096 0
M  V30 1425 N 133.029 1.57378 -0.0835403 0
M  V30 1426 C 133.992 2.12252 0.864959 0
M  V30 1427 C 134.992 1.04916 1.21858 0
M  V30 1428 O 136.182 1.30853 1.14991 0
M  V30 1429 C 133.314 2.63358 2.16461 0
M  V30 1430 H 134.507 2.97371 0.388676 0
M  V30 1431 H 132.06 1.55423 0.165317 0
M  V30 1432 H 132.795 1.81727 2.686 0
M  V30 1433 H 132.58 3.41826 1.92087 0
M  V30 1434 H 134.07 3.05847 2.84337 0
M  V30 1435 N 134.507 -0.190092 1.56449 0
M  V30 1436 C 135.47 -1.21925 1.9408 0
M  V30 1437 C 136.47 -1.38176 0.822431 0
M  V30 1438 O 137.66 -1.35903 1.08977 0
M  V30 1439 C 134.792 -2.58773 2.21922 0
M  V30 1440 H 135.985 -0.897464 2.86157 0
M  V30 1441 H 133.538 -0.43181 1.50217 0
M  V30 1442 H 134.273 -2.95998 1.32499 0
M  V30 1443 H 134.058 -2.48348 3.03424 0
M  V30 1444 H 135.548 -3.32978 2.52022 0
M  V30 1445 N 135.985 -1.50799 -0.457987 0
M  V30 1446 C 136.948 -1.7005 -1.53674 0
M  V30 1447 C 137.948 -0.570881 -1.50325 0
M  V30 1448 O 139.138 -0.838126 -1.52712 0
M  V30 1449 C 136.27 -1.73788 -2.93276 0
M  V30 1450 H 137.463 -2.66306 -1.37917 0
M  V30 1451 H 135.016 -1.40477 -0.685271 0
M  V30 1452 H 135.751 -0.792717 -3.14462 0
M  V30 1453 H 135.536 -2.55864 -2.97113 0
M  V30 1454 H 137.026 -1.90591 -3.71571 0
M  V30 1455 N 137.463 0.71206 -1.40597 0
M  V30 1456 C 138.709 1.47416 -1.39271 0
M  V30 1457 C 139.042 1.942 0.00388791 0
M  V30 1458 O 138.317 1.68403 0.973179 0
M  V30 1459 C 138.6 2.69774 -2.38525 0
M  V30 1460 C 138.453 2.28861 -3.87224 0
M  V30 1461 C 139.772 3.71939 -2.35264 0
M  V30 1462 H 136.891 0.534713 -0.5072 0
M  V30 1463 H 139.533 0.812375 -1.71757 0
M  V30 1464 H 137.683 3.26238 -2.10953 0
M  V30 1465 H 139.355 1.77852 -4.25636 0
M  V30 1466 H 137.598 1.60824 -4.02887 0
M  V30 1467 H 138.269 3.16584 -4.52193 0
M  V30 1468 H 140.745 3.25113 -2.59694 0
M  V30 1469 H 139.621 4.55186 -3.06753 0
M  V30 1470 H 139.882 4.20484 -1.36549 0
M  V30 1471 N 138.941 1.26152 0.944643 0
M  V30 1472 C 140.187 1.11657 1.69294 0
M  V30 1473 C 140.52 -0.339926 1.91202 0
M  V30 1474 O 139.795 -1.24994 1.49019 0
M  V30 1475 C 140.078 1.88236 3.06984 0
M  V30 1476 C 139.931 3.41772 2.92424 0
M  V30 1477 C 141.25 1.67343 4.07043 0
M  V30 1478 H 138.369 0.407004 0.614424 0
M  V30 1479 H 141.011 1.55106 1.09737 0
M  V30 1480 H 139.161 1.51308 3.57824 0
M  V30 1481 H 140.833 3.88433 2.48832 0
M  V30 1482 H 139.076 3.68974 2.28124 0
M  V30 1483 H 139.747 3.90579 3.90067 0
M  V30 1484 H 142.223 1.99509 3.65151 0
M  V30 1485 H 141.099 2.23346 5.01406 0
M  V30 1486 H 141.36 0.617158 4.37771 0
M  V30 1487 N 140.419 -1.14872 1.07899 0
M  V30 1488 C 141.667 -1.85422 0.803941 0
M  V30 1489 C 141.988 -1.83051 -0.67211 0
M  V30 1490 O 141.258 -1.27532 -1.48703 0
M  V30 1491 H 139.838 -0.686537 0.294408 0
M  V30 1492 H 142.5 -1.39226 1.3639 0
M  V30 1493 H 141.596 -2.90399 1.14346 0
M  V30 1494 N 141.898 -0.863906 -1.31812 0
M  V30 1495 C 143.147 -0.46801 -1.96195 0
M  V30 1496 C 143.46 0.983474 -1.69077 0
M  V30 1497 O 144.666 1.48523 -2.27273 0
M  V30 1498 C 143.122 -0.785995 -3.51212 0
M  V30 1499 C 142.73 -2.25383 -3.87178 0
M  V30 1500 C 144.474 -0.458274 -4.22019 0
M  V30 1501 C 142.381 -2.51455 -5.3528 0
M  V30 1502 H 141.311 -0.171283 -0.734287 0
M  V30 1503 H 143.962 -1.05597 -1.50072 0
M  V30 1504 H 142.344 -0.127359 -3.95795 0
M  V30 1505 H 143.518 -2.95502 -3.53575 0
M  V30 1506 H 141.833 -2.54698 -3.2942 0
M  V30 1507 H 144.43 -0.630369 -5.30971 0
M  V30 1508 H 144.773 0.600834 -4.11941 0
M  V30 1509 H 145.306 -1.07319 -3.8305 0
M  V30 1510 H 142.045 -3.56025 -5.50387 0
M  V30 1511 H 141.565 -1.85923 -5.70257 0
M  V30 1512 H 143.244 -2.35874 -6.02472 0
M  V30 1513 N 143.376 1.44774 -0.622745 0
M  V30 1514 C 144.324 2.32387 0.0994683 0
M  V30 1515 C 145.318 1.46859 0.844326 0
M  V30 1516 O 146.524 1.63254 0.758174 0
M  V30 1517 H 142.899 0.750273 0.0509291 0
M  V30 1518 H 144.87 2.91062 -0.65767 0
M  V30 1519 C 143.619 3.30723 1.07319 0
M  V30 1520 H 142.942 3.96541 0.509462 0
M  V30 1521 H 144.382 3.94725 1.54817 0
M  V30 1522 C 142.841 2.59021 2.15429 0
M  V30 1523 O 143.371 2.38286 3.23393 0
M  V30 1524 N 141.577 2.189 1.91131 0
M  V30 1525 H 141.124 2.35964 1.03337 0
M  V30 1526 H 141.082 1.71251 2.63668 0
M  V30 1527 N 144.854 0.36279 1.53368 0
M  V30 1528 C 146.079 -0.231226 2.06107 0
M  V30 1529 C 146.504 -1.419 1.23474 0
M  V30 1530 O 145.862 -1.79524 0.253128 0
M  V30 1531 C 145.91 -0.605523 3.5548 0
M  V30 1532 O 145.014 -1.70312 3.7559 0
M  V30 1533 H 144.355 -0.034327 0.663112 0
M  V30 1534 H 146.885 0.522584 1.97814 0
M  V30 1535 H 146.895 -0.877314 3.98456 0
M  V30 1536 H 145.57 0.263004 4.15068 0
M  V30 1537 H 144.147 -1.4271 3.44512 0
M  V30 1538 N 146.332 -1.57332 0.0918853 0
M  V30 1539 C 147.242 -2.17368 -0.882505 0
M  V30 1540 C 148.258 -1.14226 -1.31257 0
M  V30 1541 O 149.434 -1.46582 -1.38115 0
M  V30 1542 C 146.499 -2.73962 -2.12476 0
M  V30 1543 C 145.56 -3.92048 -1.7492 0
M  V30 1544 C 144.793 -4.45933 -2.93223 0
M  V30 1545 O 145.016 -3.98764 -4.07852 0
M  V30 1546 O 143.95 -5.36999 -2.71875 0
M  V30 1547 H 147.776 -3.01031 -0.40172 0
M  V30 1548 H 145.361 -1.48813 -0.132291 0
M  V30 1549 H 147.243 -3.10147 -2.85283 0
M  V30 1550 H 145.918 -1.93347 -2.59613 0
M  V30 1551 H 144.825 -3.6068 -0.993025 0
M  V30 1552 H 146.158 -4.74017 -1.32548 0
M  V30 1553 N 147.81 0.181792 -1.56548 0
M  V30 1554 C 149.038 0.915947 -1.85521 0
M  V30 1555 C 149.453 1.76282 -0.676016 0
M  V30 1556 O 148.81 1.79012 0.355077 0
M  V30 1557 C 148.861 1.80126 -3.13427 0
M  V30 1558 O 148.582 0.988562 -4.26801 0
M  V30 1559 C 150.083 2.64597 -3.55673 0
M  V30 1560 H 147.303 0.26661 -0.61576 0
M  V30 1561 H 149.847 0.185039 -2.03661 0
M  V30 1562 H 148.002 2.48563 -2.97145 0
M  V30 1563 H 148.416 1.59308 -4.99721 0
M  V30 1564 H 149.89 3.2235 -4.48101 0
M  V30 1565 H 150.367 3.38958 -2.79292 0
M  V30 1566 H 150.973 2.0151 -3.74532 0
M  V30 1567 N 149.288 1.51039 0.449983 0
M  V30 1568 C 150.537 1.62317 1.19733 0
M  V30 1569 C 150.85 0.339101 1.92638 0
M  V30 1570 O 152.056 0.331069 2.69474 0
M  V30 1571 C 150.512 2.86608 2.17678 0
M  V30 1572 C 150.12 4.21972 1.50479 0
M  V30 1573 C 151.864 3.07239 2.92924 0
M  V30 1574 C 149.771 5.37426 2.46834 0
M  V30 1575 H 148.701 0.604532 0.450619 0
M  V30 1576 H 151.352 1.77494 0.465625 0
M  V30 1577 H 149.734 2.65037 2.94231 0
M  V30 1578 H 150.908 4.53878 0.795716 0
M  V30 1579 H 149.223 4.07117 0.874344 0
M  V30 1580 H 151.82 3.90668 3.65079 0
M  V30 1581 H 152.163 2.19807 3.5354 0
M  V30 1582 H 152.696 3.29091 2.23481 0
M  V30 1583 H 149.435 6.27079 1.90926 0
M  V30 1584 H 148.955 5.09912 3.15832 0
M  V30 1585 H 150.634 5.68862 3.08228 0
M  V30 1586 N 150.766 -0.704594 1.40972 0
M  V30 1587 C 151.699 -1.82861 1.36518 0
M  V30 1588 C 152.677 -1.6091 0.23382 0
M  V30 1589 O 153.861 -1.83778 0.419271 0
M  V30 1590 C 150.988 -3.1939 1.12729 0
M  V30 1591 C 150.034 -3.60148 2.28463 0
M  V30 1592 S 150.867 -3.65994 3.90907 0
M  V30 1593 C 152.023 -5.05264 3.69403 0
M  V30 1594 H 152.256 -1.86361 2.3164 0
M  V30 1595 H 149.789 -0.872439 1.27389 0
M  V30 1596 H 151.747 -3.98211 0.996893 0
M  V30 1597 H 150.408 -3.1351 0.192427 0
M  V30 1598 H 149.601 -4.59309 2.07489 0
M  V30 1599 H 149.203 -2.88612 2.37863 0
M  V30 1600 H 151.495 -5.92504 3.28551 0
M  V30 1601 H 152.438 -5.31278 4.68134 0
M  V30 1602 H 152.846 -4.76377 3.02862 0
M  V30 1603 N 152.244 -1.26651 -0.937939 0
M  V30 1604 C 153.191 -1.0849 -2.03712 0
M  V30 1605 C 154.161 0.011033 -1.66096 0
M  V30 1606 O 155.346 -0.149353 -1.90215 0
M  V30 1607 C 152.486 -0.72735 -3.37348 0
M  V30 1608 C 151.599 -1.89986 -3.87981 0
M  V30 1609 C 150.734 -1.48513 -5.10017 0
M  V30 1610 C 149.773 -2.62575 -5.5292 0
M  V30 1611 N 148.91 -2.21762 -6.66158 0
M  V30 1612 H 153.75 -2.02551 -2.18579 0
M  V30 1613 H 151.287 -1.00844 -1.07093 0
M  V30 1614 H 153.245 -0.50092 -4.14182 0
M  V30 1615 H 151.875 0.176298 -3.22318 0
M  V30 1616 H 150.927 -2.23913 -3.07518 0
M  V30 1617 H 152.239 -2.75586 -4.15757 0
M  V30 1618 H 151.393 -1.21934 -5.94321 0
M  V30 1619 H 150.132 -0.60009 -4.83994 0
M  V30 1620 H 149.137 -2.8988 -4.67172 0
M  V30 1621 H 150.362 -3.51685 -5.80943 0
M  V30 1622 H 148.308 -1.35696 -6.41812 0
M  V30 1623 H 148.225 -3.00903 -6.93537 0
M  V30 1624 H 149.493 -1.98403 -7.53828 0
M  V30 1625 N 153.722 1.14298 -1.08507 0
M  V30 1626 C 155.133 1.66926 -0.836227 0
M  V30 1627 C 155.484 1.85576 0.63686 0
M  V30 1628 O 154.609 1.56767 1.49175 0
M  V30 1629 C 155.204 3.03219 -1.51142 0
M  V30 1630 C 153.763 3.52876 -1.30979 0
M  V30 1631 C 152.91 2.2833 -1.57356 0
M  V30 1632 H 155.861 0.983491 -1.24552 0
M  V30 1633 H 155.882 3.68726 -0.939211 0
M  V30 1634 H 155.394 2.89612 -2.58353 0
M  V30 1635 H 153.495 3.71703 -0.258429 0
M  V30 1636 H 153.608 4.33586 -2.03814 0
M  V30 1637 H 151.972 2.34454 -0.995164 0
M  V30 1638 H 152.755 2.17298 -2.65775 0
M  V30 1639 N 155.201 0.870884 1.31352 0
M  V30 1640 C 156.164 0.332243 2.26779 0
M  V30 1641 C 157.164 -0.517302 1.52252 0
M  V30 1642 O 158.354 -0.326477 1.71113 0
M  V30 1643 C 155.486 -0.528066 3.36785 0
M  V30 1644 H 156.679 1.17469 2.75937 0
M  V30 1645 H 154.232 0.64655 1.423 0
M  V30 1646 H 154.967 -1.39167 2.92922 0
M  V30 1647 H 154.752 0.0802582 3.92018 0
M  V30 1648 H 156.242 -0.897179 4.07849 0
M  V30 1649 N 156.679 -1.44442 0.630414 0
M  V30 1650 C 157.904 -2.06927 0.139944 0
M  V30 1651 C 158.329 -1.46795 -1.17613 0
M  V30 1652 O 157.687 -0.569144 -1.72135 0
M  V30 1653 C 157.735 -3.6058 0.0379581 0
M  V30 1654 O 156.839 -3.99937 -1.0062 0
M  V30 1655 H 156.18 -0.658608 0.0844483 0
M  V30 1656 H 158.71 -1.85327 0.866891 0
M  V30 1657 H 158.72 -4.07714 -0.152856 0
M  V30 1658 H 157.395 -4.03728 0.998809 0
M  V30 1659 H 155.972 -3.64436 -0.79001 0
M  V30 1660 N 158.157 -0.370918 -1.53173 0
M  V30 1661 C 159.406 0.218249 -2.00516 0
M  V30 1662 C 159.719 1.49429 -1.26215 0
M  V30 1663 O 160.925 2.16239 -1.64174 0
M  V30 1664 C 159.381 0.43948 -3.57207 0
M  V30 1665 C 158.989 -0.822244 -4.4039 0
M  V30 1666 C 160.733 0.986012 -4.1289 0
M  V30 1667 C 158.64 -0.570304 -5.88644 0
M  V30 1668 H 157.57 0.0853333 -0.749156 0
M  V30 1669 H 160.221 -0.490483 -1.76823 0
M  V30 1670 H 158.603 1.20961 -3.77074 0
M  V30 1671 H 159.777 -1.59557 -4.32294 0
M  V30 1672 H 158.092 -1.29238 -3.95836 0
M  V30 1673 H 160.689 1.18991 -5.21292 0
M  V30 1674 H 161.032 1.94972 -3.6782 0
M  V30 1675 H 161.565 0.27592 -3.96842 0
M  V30 1676 H 158.304 -1.50449 -6.38001 0
M  V30 1677 H 157.824 0.164427 -5.99575 0
M  V30 1678 H 159.503 -0.19784 -6.46697 0
M  V30 1679 N 159.635 1.57281 -0.100228 0
M  V30 1680 C 160.86 1.99302 0.573881 0
M  V30 1681 C 161.285 0.979059 1.60611 0
M  V30 1682 O 160.643 -0.0517803 1.81226 0
M  V30 1683 C 160.691 3.40274 1.19358 0
M  V30 1684 O 159.795 3.41676 2.30935 0
M  V30 1685 H 159.136 0.647944 0.145138 0
M  V30 1686 H 161.666 2.03779 -0.183156 0
M  V30 1687 H 161.676 3.78078 1.53365 0
M  V30 1688 H 160.351 4.13594 0.437385 0
M  V30 1689 H 158.928 3.15672 1.98509 0
M  V30 1690 N 161.113 -0.173488 1.56642 0
M  V30 1691 C 162.023 -1.23482 1.99473 0
M  V30 1692 C 163.039 -1.48567 0.905752 0
M  V30 1693 O 164.215 -1.60758 1.21321 0
M  V30 1694 C 161.28 -2.55444 2.34413 0
M  V30 1695 C 160.341 -2.38241 3.57127 0
M  V30 1696 C 159.574 -3.63909 3.90392 0
M  V30 1697 O 159.797 -4.68996 3.24653 0
M  V30 1698 O 158.731 -3.58149 4.83749 0
M  V30 1699 H 162.557 -0.901279 2.90018 0
M  V30 1700 H 160.142 -0.380185 1.44482 0
M  V30 1701 H 162.024 -3.33292 2.57865 0
M  V30 1702 H 160.699 -2.88382 1.4703 0
M  V30 1703 H 159.606 -1.58431 3.38896 0
M  V30 1704 H 160.939 -2.10228 4.45045 0
M  V30 1705 N 162.591 -1.51276 -0.441967 0
M  V30 1706 C 163.501 -1.75092 -1.56141 0
M  V30 1707 C 164.517 -0.634963 -1.62001 0
M  V30 1708 O 165.693 -0.916686 -1.79329 0
M  V30 1709 C 162.758 -1.86666 -2.92158 0
M  V30 1710 C 161.819 -3.10506 -2.96453 0
M  V30 1711 C 161.052 -3.21519 -4.25982 0
M  V30 1712 O 161.275 -2.38586 -5.18105 0
M  V30 1713 O 160.209 -4.14465 -4.36466 0
M  V30 1714 H 164.035 -2.70044 -1.38961 0
M  V30 1715 H 161.62 -1.35722 -0.624499 0
M  V30 1716 H 163.502 -1.96292 -3.72891 0
M  V30 1717 H 162.177 -0.949014 -3.09476 0
M  V30 1718 H 161.084 -3.06363 -2.14692 0
M  V30 1719 H 162.417 -4.01945 -2.84079 0
M  V30 1720 N 164.069 0.697108 -1.41344 0
M  V30 1721 C 164.979 1.84088 -1.45427 0
M  V30 1722 C 165.995 1.70545 -0.34501 0
M  V30 1723 O 167.171 1.92488 -0.592492 0
M  V30 1724 C 164.236 3.20056 -1.33286 0
M  V30 1725 C 163.297 3.45718 -2.54514 0
M  V30 1726 C 162.53 4.75199 -2.42944 0
M  V30 1727 O 162.753 5.51579 -1.45318 0
M  V30 1728 O 161.687 5.0161 -3.32672 0
M  V30 1729 H 165.513 1.836 -2.41919 0
M  V30 1730 H 163.098 0.849966 -1.22866 0
M  V30 1731 H 164.98 4.01236 -1.28794 0
M  V30 1732 H 163.655 3.2123 -0.39909 0
M  V30 1733 H 162.562 2.64474 -2.64583 0
M  V30 1734 H 163.895 3.49356 -3.46715 0
M  V30 1735 N 165.547 1.27147 0.931209 0
M  V30 1736 C 166.477 1.12081 2.04842 0
M  V30 1737 C 167.458 0.0232364 1.70084 0
M  V30 1738 O 168.643 0.197085 1.93197 0
M  V30 1739 C 165.773 0.76354 3.38803 0
M  V30 1740 C 164.727 1.81396 3.87659 0
M  V30 1741 C 164.053 1.31075 5.18385 0
M  V30 1742 C 165.353 3.21739 4.11438 0
M  V30 1743 H 167.047 2.05537 2.17703 0
M  V30 1744 H 164.593 0.989603 1.04608 0
M  V30 1745 H 166.546 0.644982 4.16435 0
M  V30 1746 H 165.27 -0.206727 3.25945 0
M  V30 1747 H 163.929 1.92136 3.12217 0
M  V30 1748 H 163.577 0.330037 5.01916 0
M  V30 1749 H 163.277 2.013 5.52044 0
M  V30 1750 H 164.801 1.20506 5.98591 0
M  V30 1751 H 166.215 3.14019 4.79651 0
M  V30 1752 H 164.612 3.89644 4.56397 0
M  V30 1753 H 165.682 3.67054 3.16859 0
M  V30 1754 N 167.025 -1.13721 1.09112 0
M  V30 1755 C 167.955 -2.21148 0.749385 0
M  V30 1756 C 168.936 -1.6792 -0.271475 0
M  V30 1757 O 170.121 -1.93693 -0.140251 0
M  V30 1758 C 167.251 -3.46905 0.165659 0
M  V30 1759 C 166.205 -4.13203 1.11567 0
M  V30 1760 C 165.531 -5.33248 0.393809 0
M  V30 1761 C 166.831 -4.60912 2.45678 0
M  V30 1762 H 168.525 -2.4999 1.64758 0
M  V30 1763 H 166.071 -1.20156 0.793626 0
M  V30 1764 H 168.024 -4.21313 -0.085466 0
M  V30 1765 H 166.748 -3.17449 -0.767714 0
M  V30 1766 H 165.407 -3.40758 1.35202 0
M  V30 1767 H 165.055 -5.00054 -0.543599 0
M  V30 1768 H 164.755 -5.78552 1.02721 0
M  V30 1769 H 166.279 -6.10413 0.150908 0
M  V30 1770 H 167.693 -5.26759 2.26269 0
M  V30 1771 H 166.09 -5.16944 3.04776 0
M  V30 1772 H 167.16 -3.75603 3.06677 0
M  V30 1773 N 168.503 -0.877838 -1.30888 0
M  V30 1774 C 169.451 -0.328662 -2.30266 0
M  V30 1775 C 170.445 0.560496 -1.59859 0
M  V30 1776 O 171.651 0.445722 -1.74394 0
M  V30 1777 H 168.026 -0.0876142 -0.746879 0
M  V30 1778 H 169.997 -1.18061 -2.74051 0
M  V30 1779 C 168.746 0.448071 -3.44801 0
M  V30 1780 H 168.069 -0.226859 -3.99156 0
M  V30 1781 H 169.509 0.797541 -4.16432 0
M  V30 1782 C 167.968 1.64239 -2.94155 0
M  V30 1783 O 168.498 2.74175 -2.93583 0
M  V30 1784 N 166.704 1.47716 -2.50256 0
M  V30 1785 H 166.251 0.582821 -2.5092 0
M  V30 1786 H 166.209 2.27765 -2.16727 0
M  V30 1787 N 169.982 1.44106 -0.638065 0
M  V30 1788 C 170.912 2.33448 0.0494287 0
M  V30 1789 C 171.893 1.48606 0.827672 0
M  V30 1790 O 173.078 1.77308 0.792173 0
M  V30 1791 C 170.208 3.31771 1.02691 0
M  V30 1792 C 169.162 4.26485 0.359823 0
M  V30 1793 C 168.488 5.14729 1.44769 0
M  V30 1794 C 169.788 5.17056 -0.738296 0
M  V30 1795 H 171.482 2.91183 -0.696636 0
M  V30 1796 H 169.028 1.40014 -0.336456 0
M  V30 1797 H 170.981 3.93161 1.51666 0
M  V30 1798 H 169.705 2.7226 1.80395 0
M  V30 1799 H 168.364 3.66437 -0.10934 0
M  V30 1800 H 168.012 4.51566 2.21578 0
M  V30 1801 H 167.712 5.78913 1.00668 0
M  V30 1802 H 169.236 5.78991 1.93911 0
M  V30 1803 H 170.65 5.72342 -0.331354 0
M  V30 1804 H 169.047 5.89879 -1.10286 0
M  V30 1805 H 170.117 4.57652 -1.60258 0
M  V30 1806 N 171.46 0.379036 1.52974 0
M  V30 1807 C 172.709 -0.207612 2.00629 0
M  V30 1808 C 173.022 -1.48758 1.27006 0
M  V30 1809 O 174.228 -2.15365 1.65318 0
M  V30 1810 C 172.684 -0.42053 3.57435 0
M  V30 1811 C 172.292 0.845587 4.39948 0
M  V30 1812 C 174.036 -0.964102 4.13407 0
M  V30 1813 C 171.943 0.601513 5.88333 0
M  V30 1814 H 170.873 -0.0813591 0.749598 0
M  V30 1815 H 173.524 0.499853 1.76561 0
M  V30 1816 H 171.906 -1.18959 3.7771 0
M  V30 1817 H 173.08 1.61848 4.31442 0
M  V30 1818 H 171.395 1.31336 3.95145 0
M  V30 1819 H 173.992 -1.16225 5.21916 0
M  V30 1820 H 174.335 -1.93019 3.68849 0
M  V30 1821 H 174.868 -0.25487 3.96983 0
M  V30 1822 H 171.607 1.53831 6.37194 0
M  V30 1823 H 171.127 -0.132628 5.99653 0
M  V30 1824 H 172.806 0.232134 6.46583 0
M  V30 1825 N 172.938 -1.57226 0.108567 0
M  V30 1826 C 173.886 -2.16002 -0.862885 0
M  V30 1827 C 174.88 -1.10644 -1.28274 0
M  V30 1828 O 176.086 -1.28966 -1.2557 0
M  V30 1829 H 172.461 -0.691148 -0.296342 0
M  V30 1830 H 174.432 -2.96427 -0.342575 0
M  V30 1831 C 173.181 -2.76576 -2.10716 0
M  V30 1832 H 172.504 -3.5734 -1.793 0
M  V30 1833 H 173.944 -3.21253 -2.76717 0
M  V30 1834 C 172.403 -1.73137 -2.89007 0
M  V30 1835 O 172.933 -1.17842 -3.84026 0
M  V30 1836 N 171.139 -1.43317 -2.52801 0
M  V30 1837 H 170.686 -1.88473 -1.75601 0
M  V30 1838 H 170.644 -0.743485 -3.05483 0
M  V30 1839 N 174.416 0.165178 -1.56732 0
M  V30 1840 C 175.363 1.2044 -1.96883 0
M  V30 1841 C 176.333 1.43664 -0.833657 0
M  V30 1842 O 177.518 1.56302 -1.09427 0
M  V30 1843 C 174.658 2.53727 -2.33916 0
M  V30 1844 C 173.771 2.3783 -3.6064 0
M  V30 1845 C 172.906 3.64026 -3.86857 0
M  V30 1846 C 171.945 3.43088 -5.06909 0
M  V30 1847 N 171.082 4.61369 -5.29229 0
M  V30 1848 H 175.922 0.854996 -2.85471 0
M  V30 1849 H 173.459 0.41076 -1.41249 0
M  V30 1850 H 175.417 3.31419 -2.53411 0
M  V30 1851 H 174.047 2.8665 -1.48431 0
M  V30 1852 H 173.099 1.51282 -3.49024 0
M  V30 1853 H 174.411 2.18308 -4.4849 0
M  V30 1854 H 173.565 4.50152 -4.06753 0
M  V30 1855 H 172.304 3.86533 -2.97394 0
M  V30 1856 H 171.309 2.55349 -4.86906 0
M  V30 1857 H 172.534 3.21997 -5.97909 0
M  V30 1858 H 170.48 4.84084 -4.42718 0
M  V30 1859 H 170.397 4.44783 -6.11313 0
M  V30 1860 H 171.665 5.48761 -5.53608 0
M  V30 1861 N 175.894 1.51508 0.433938 0
M  V30 1862 C 176.824 1.76016 1.53429 0
M  V30 1863 C 177.805 0.610112 1.58782 0
M  V30 1864 O 178.99 0.853177 1.74455 0
M  V30 1865 C 176.12 1.88831 2.9148 0
M  V30 1866 C 175.074 3.04288 3.00987 0
M  V30 1867 C 174.4 3.0229 4.4105 0
M  V30 1868 C 175.7 4.44193 2.74754 0
M  V30 1869 H 177.394 2.68152 1.33171 0
M  V30 1870 H 174.94 1.29035 0.639214 0
M  V30 1871 H 176.893 2.04559 3.6842 0
M  V30 1872 H 175.617 0.933455 3.12976 0
M  V30 1873 H 174.276 2.8827 2.26486 0
M  V30 1874 H 173.924 2.04576 4.59519 0
M  V30 1875 H 173.624 3.79822 4.4834 0
M  V30 1876 H 175.148 3.20116 5.1996 0
M  V30 1877 H 176.562 4.60544 3.41426 0
M  V30 1878 H 174.959 5.23457 2.9345 0
M  V30 1879 H 176.029 4.53996 1.70339 0
M  V30 1880 N 177.372 -0.689602 1.41712 0
M  V30 1881 C 178.32 -1.82475 1.44242 0
M  V30 1882 C 179.314 -1.66354 0.319774 0
M  V30 1883 O 180.52 -1.73143 0.492089 0
M  V30 1884 H 176.895 -0.601416 0.451445 0
M  V30 1885 H 178.866 -1.77458 2.39899 0
M  V30 1886 C 177.615 -3.20535 1.3473 0
M  V30 1887 H 176.938 -3.33559 2.20405 0
M  V30 1888 H 178.378 -4.00023 1.40562 0
M  V30 1889 C 176.837 -3.36846 0.0603281 0
M  V30 1890 O 177.367 -3.91656 -0.892663 0
M  V30 1891 N 175.573 -2.90595 -0.0177039 0
M  V30 1892 H 175.12 -2.46178 0.758572 0
M  V30 1893 H 175.078 -3.01886 -0.878201 0
M  V30 1894 N 178.85 -1.27639 -0.924453 0
M  V30 1895 C 179.798 -1.10485 -2.04685 0
M  V30 1896 C 180.792 -0.0270421 -1.69378 0
M  V30 1897 O 181.998 -0.185008 -1.79047 0
M  V30 1898 H 178.373 -0.340546 -0.670472 0
M  V30 1899 H 180.344 -2.05566 -2.16298 0
M  V30 1900 C 179.093 -0.772229 -3.39016 0
M  V30 1901 H 178.416 -1.59351 -3.66671 0
M  V30 1902 H 179.856 -0.692097 -4.18313 0
M  V30 1903 C 178.315 0.523554 -3.32807 0
M  V30 1904 O 178.845 1.55702 -3.70297 0
M  V30 1905 N 177.051 0.520363 -2.85903 0
M  V30 1906 H 176.598 -0.32107 -2.55591 0
M  V30 1907 H 176.556 1.38742 -2.82131 0
M  V30 1908 N 180.328 1.1314 -1.09713 0
M  V30 1909 C 181.605 1.80762 -0.747302 0
M  V30 1910 C 181.985 1.96663 0.767265 0
M  V30 1911 O 181.333 1.53706 1.69076 0
M  V30 1912 C 181.543 3.15606 -1.48975 0
M  V30 1913 C 182.891 3.90914 -1.65746 0
M  V30 1914 O 183.915 3.25239 -1.45251 0
M  V30 1915 O 182.774 5.08718 -1.9967 0
M  V30 1916 H 179.868 0.782103 -0.268782 0
M  V30 1917 H 182.414 1.20041 -1.19951 0
M  V30 1918 H 181.186 2.99278 -2.52088 0
M  V30 1919 H 180.809 3.84029 -1.02991 0
M  V30 1920 N 181.806 0.884767 1.30421 0
M  V30 1921 C 183.083 0.423185 1.90967 0
M  V30 1922 C 183.463 -1.09605 1.80416 0
M  V30 1923 O 182.811 -1.93126 1.22125 0
M  V30 1924 C 183.021 0.921056 3.36627 0
M  V30 1925 C 184.369 0.955903 4.137 0
M  V30 1926 O 185.393 0.867706 3.4547 0
M  V30 1927 O 184.252 1.08614 5.35598 0
M  V30 1928 H 181.346 0.129369 0.816819 0
M  V30 1929 H 183.892 0.973653 1.3899 0
M  V30 1930 H 182.664 1.96489 3.3839 0
M  V30 1931 H 182.287 0.349741 3.96059 0
M  V30 1932 N 183.284 -1.43765 0.645699 0
M  V30 1933 C 184.232 -2.32516 -0.0624849 0
M  V30 1934 C 185.226 -1.48183 -0.820855 0
M  V30 1935 O 186.432 -1.64439 -0.732106 0
M  V30 1936 H 182.807 -0.750989 -0.0389864 0
M  V30 1937 H 184.778 -2.89979 0.703892 0
M  V30 1938 C 183.527 -3.32389 -1.02044 0
M  V30 1939 H 182.85 -3.97301 -0.446312 0
M  V30 1940 H 184.29 -3.97138 -1.48517 0
M  V30 1941 C 182.749 -2.62416 -2.11281 0
M  V30 1942 O 183.279 -2.434 -3.19561 0
M  V30 1943 N 181.485 -2.21913 -1.87624 0
M  V30 1944 H 181.032 -2.37578 -0.995703 0
M  V30 1945 H 180.99 -1.75424 -2.6091 0
M  V30 1946 N 184.763 -0.387143 -1.52771 0
M  V30 1947 C 186.009 0.196025 -2.0185 0
M  V30 1948 C 186.342 1.46641 -1.27319 0
M  V30 1949 O 185.617 1.90889 -0.373032 0
M  V30 1950 C 185.9 0.466136 -3.5707 0
M  V30 1951 C 185.753 -0.819385 -4.42274 0
M  V30 1952 C 187.072 1.25768 -4.21747 0
M  V30 1953 H 184.191 0.0697708 -0.73369 0
M  V30 1954 H 186.833 -0.516286 -1.82851 0
M  V30 1955 H 184.983 1.07293 -3.7339 0
M  V30 1956 H 186.655 -1.4563 -4.37709 0
M  V30 1957 H 184.898 -1.43517 -4.09372 0
M  V30 1958 H 185.569 -0.585065 -5.48891 0
M  V30 1959 H 188.045 0.744167 -4.09391 0
M  V30 1960 H 186.921 1.41541 -5.30337 0
M  V30 1961 H 187.182 2.27228 -3.79236 0
M  V30 1962 N 186.241 1.57166 -0.116904 0
M  V30 1963 C 187.518 1.86645 0.585049 0
M  V30 1964 C 187.898 1.0177 1.84949 0
M  V30 1965 O 187.246 0.0960379 2.28298 0
M  V30 1966 C 187.456 3.37736 0.879507 0
M  V30 1967 C 188.804 4.06289 1.23348 0
M  V30 1968 O 189.828 3.42743 0.969836 0
M  V30 1969 O 188.687 5.18455 1.7282 0
M  V30 1970 H 185.781 0.772593 0.295007 0
M  V30 1971 H 188.327 1.69025 -0.151249 0
M  V30 1972 H 187.099 3.91296 -0.0166136 0
M  V30 1973 H 186.722 3.6078 1.67103 0
M  V30 1974 N 187.719 -0.156864 1.56817 0
M  V30 1975 C 188.967 -0.869404 1.82444 0
M  V30 1976 C 189.288 -1.82147 0.69623 0
M  V30 1977 O 188.558 -1.93847 -0.28287 0
M  V30 1978 H 187.138 -0.324043 0.673056 0
M  V30 1979 H 189.8 -0.153224 1.94297 0
M  V30 1980 H 188.896 -1.43761 2.77019 0
M  V30 1981 N 189.197 -1.51736 -0.425897 0
M  V30 1982 C 190.127 -1.76827 -1.52494 0
M  V30 1983 C 191.108 -0.618524 -1.58456 0
M  V30 1984 O 192.293 -0.862416 -1.74 0
M  V30 1985 C 189.423 -1.90374 -2.90474 0
M  V30 1986 C 188.377 -3.0588 -2.99369 0
M  V30 1987 C 187.703 -3.04625 -4.3944 0
M  V30 1988 C 189.003 -4.45644 -2.72394 0
M  V30 1989 H 190.697 -2.68855 -1.31748 0
M  V30 1990 H 188.243 -1.29372 -0.632362 0
M  V30 1991 H 190.196 -2.0651 -3.6733 0
M  V30 1992 H 188.92 -0.95004 -3.12477 0
M  V30 1993 H 187.579 -2.89467 -2.24954 0
M  V30 1994 H 187.227 -2.0701 -4.58428 0
M  V30 1995 H 186.927 -3.82195 -4.46319 0
M  V30 1996 H 188.451 -3.22869 -5.18255 0
M  V30 1997 H 189.865 -4.62348 -3.38979 0
M  V30 1998 H 188.262 -5.25006 -2.9067 0
M  V30 1999 H 189.332 -4.54893 -1.67929 0
M  V30 2000 N 190.675 0.682077 -1.42076 0
M  V30 2001 C 191.605 1.80796 -1.47767 0
M  V30 2002 C 192.586 1.6677 -0.334954 0
M  V30 2003 O 193.771 1.863 -0.548264 0
M  V30 2004 C 190.901 3.19038 -1.37229 0
M  V30 2005 C 189.855 3.47789 -2.49453 0
M  V30 2006 C 189.181 4.8553 -2.23975 0
M  V30 2007 C 190.481 3.45411 -3.91776 0
M  V30 2008 H 192.175 1.7629 -2.41997 0
M  V30 2009 H 189.721 0.846721 -1.16476 0
M  V30 2010 H 191.674 3.97528 -1.39821 0
M  V30 2011 H 190.398 3.24204 -0.394907 0
M  V30 2012 H 189.057 2.71657 -2.46166 0
M  V30 2013 H 188.705 4.87337 -1.24547 0
M  V30 2014 H 188.405 5.0573 -2.99184 0
M  V30 2015 H 189.929 5.66312 -2.28304 0
M  V30 2016 H 191.343 4.13882 -3.96705 0
M  V30 2017 H 189.74 3.77145 -4.66778 0
M  V30 2018 H 190.81 2.44122 -4.18966 0
M  V30 2019 N 192.153 1.28127 0.917671 0
M  V30 2020 C 193.399 1.15223 1.66888 0
M  V30 2021 C 193.732 -0.299293 1.9188 0
M  V30 2022 O 193.007 -1.21805 1.51637 0
M  V30 2023 C 193.29 1.94706 3.02922 0
M  V30 2024 C 193.143 3.47898 2.85109 0
M  V30 2025 C 194.462 1.75939 4.03402 0
M  V30 2026 H 191.581 0.419946 0.605652 0
M  V30 2027 H 194.223 1.57398 1.06423 0
M  V30 2028 H 192.373 1.58864 3.54534 0
M  V30 2029 H 194.045 3.93624 2.40537 0
M  V30 2030 H 192.288 3.7373 2.20246 0
M  V30 2031 H 192.959 3.98765 3.81694 0
M  V30 2032 H 195.435 2.07209 3.60837 0
M  V30 2033 H 194.311 2.33931 4.96556 0
M  V30 2034 H 194.572 0.709877 4.36364 0
M  V30 2035 N 193.631 -1.12557 1.10312 0
M  V30 2036 C 194.563 -2.17971 0.708625 0
M  V30 2037 C 195.576 -1.60806 -0.254027 0
M  V30 2038 O 196.765 -1.78458 -0.0386891 0
M  V30 2039 C 193.865 -3.38891 0.0248198 0
M  V30 2040 C 193.038 -4.25548 1.01132 0
M  V30 2041 C 192.097 -5.24972 0.35924 0
M  V30 2042 O 191.123 -5.60174 1.00965 0
M  V30 2043 N 192.325 -5.73747 -0.882847 0
M  V30 2044 H 195.09 -2.52427 1.61557 0
M  V30 2045 H 192.651 -1.27967 0.991771 0
M  V30 2046 H 194.643 -4.02485 -0.422852 0
M  V30 2047 H 193.213 -3.02596 -0.784514 0
M  V30 2048 H 192.433 -3.58589 1.6373 0
M  V30 2049 H 193.721 -4.80294 1.67914 0
M  V30 2050 H 193.119 -5.4731 -1.43065 0
M  V30 2051 H 191.676 -6.39234 -1.27369 0
M  V30 2052 N 195.109 -0.891671 -1.2995 0
M  V30 2053 C 196.039 -0.379797 -2.30391 0
M  V30 2054 C 197.02 0.540919 -1.6127 0
M  V30 2055 O 198.205 0.453352 -1.88834 0
M  V30 2056 C 195.335 0.400654 -3.44981 0
M  V30 2057 C 194.289 -0.428905 -4.25846 0
M  V30 2058 C 193.615 0.478557 -5.32554 0
M  V30 2059 C 194.915 -1.67458 -4.94727 0
M  V30 2060 H 196.609 -1.21914 -2.73454 0
M  V30 2061 H 194.155 -0.587675 -1.31462 0
M  V30 2062 H 196.108 0.769434 -4.14316 0
M  V30 2063 H 194.832 1.27371 -3.0074 0
M  V30 2064 H 193.491 -0.779911 -3.58208 0
M  V30 2065 H 193.139 1.34951 -4.84559 0
M  V30 2066 H 192.839 -0.0727433 -5.87555 0
M  V30 2067 H 194.363 0.843705 -6.04743 0
M  V30 2068 H 195.777 -1.376 -5.56542 0
M  V30 2069 H 194.174 -2.16659 -5.59624 0
M  V30 2070 H 195.244 -2.41518 -4.20473 0
M  V30 2071 N 196.587 1.43421 -0.653314 0
M  V30 2072 C 197.998 1.85065 -0.246537 0
M  V30 2073 C 198.349 1.54688 1.2069 0
M  V30 2074 O 197.474 0.995896 1.92122 0
M  V30 2075 C 198.069 3.35922 -0.440666 0
M  V30 2076 C 196.628 3.76297 -0.0882064 0
M  V30 2077 C 195.775 2.67147 -0.743484 0
M  V30 2078 H 198.726 1.33572 -0.856979 0
M  V30 2079 H 198.747 3.79204 0.313798 0
M  V30 2080 H 198.259 3.58 -1.49858 0
M  V30 2081 H 196.36 3.5983 0.96711 0
M  V30 2082 H 196.473 4.76338 -0.513738 0
M  V30 2083 H 194.837 2.54086 -0.176712 0
M  V30 2084 H 195.62 2.92053 -1.80443 0
M  V30 2085 N 198.065 0.39524 1.52563 0
M  V30 2086 C 198.995 -0.428384 2.29537 0
M  V30 2087 C 199.976 -1.05831 1.33169 0
M  V30 2088 O 201.161 -1.06995 1.62067 0
M  V30 2089 C 198.291 -1.55274 3.10656 0
M  V30 2090 C 197.245 -1.04855 4.14957 0
M  V30 2091 C 196.571 -2.26543 4.84337 0
M  V30 2092 C 197.871 -0.112324 5.22179 0
M  V30 2093 H 199.565 0.213867 2.98635 0
M  V30 2094 H 197.111 0.104298 1.43622 0
M  V30 2095 H 199.064 -2.1358 3.63265 0
M  V30 2096 H 197.788 -2.22266 2.39302 0
M  V30 2097 H 196.447 -0.487985 3.63338 0
M  V30 2098 H 196.095 -2.92059 4.09525 0
M  V30 2099 H 195.795 -1.93466 5.54837 0
M  V30 2100 H 197.319 -2.85481 5.39753 0
M  V30 2101 H 198.733 -0.603752 5.70112 0
M  V30 2102 H 197.13 0.128968 5.99961 0
M  V30 2103 H 198.2 0.837052 4.77621 0
M  V30 2104 N 199.544 -1.57102 0.125237 0
M  V30 2105 C 200.955 -1.82384 -0.399142 0
M  V30 2106 C 201.306 -1.04276 -1.66195 0
M  V30 2107 O 200.431 -0.281269 -2.14564 0
M  V30 2108 C 201.026 -3.30821 -0.730932 0
M  V30 2109 C 199.585 -3.56762 -1.19992 0
M  V30 2110 C 198.732 -2.7649 -0.211792 0
M  V30 2111 H 201.683 -1.54786 0.350277 0
M  V30 2112 H 201.704 -3.4579 -1.58775 0
M  V30 2113 H 201.216 -3.87643 0.188345 0
M  V30 2114 H 199.317 -3.05305 -2.13588 0
M  V30 2115 H 199.43 -4.65317 -1.14093 0
M  V30 2116 H 197.794 -2.4489 -0.700085 0
M  V30 2117 H 198.577 -3.36073 0.700691 0
M  V30 2118 N 201.022 0.148545 -1.56898 0
M  V30 2119 C 201.932 1.20293 -2.01412 0
M  V30 2120 C 202.948 1.47107 -0.929273 0
M  V30 2121 O 204.124 1.58807 -1.23863 0
M  V30 2122 C 201.189 2.51682 -2.38447 0
M  V30 2123 C 200.25 2.32529 -3.60872 0
M  V30 2124 C 199.483 3.57653 -3.96132 0
M  V30 2125 O 199.706 4.63771 -3.32073 0
M  V30 2126 O 198.64 3.50408 -4.89385 0
M  V30 2127 H 202.466 0.855025 -2.91416 0
M  V30 2128 H 200.051 0.357151 -1.45068 0
M  V30 2129 H 201.933 3.29147 -2.63135 0
M  V30 2130 H 200.608 2.86006 -1.51599 0
M  V30 2131 H 199.515 1.53019 -3.41373 0
M  V30 2132 H 200.848 2.03121 -4.48333 0
M  V30 2133 N 202.5 1.5196 0.417844 0
M  V30 2134 C 203.45 1.7106 1.5074 0
M  V30 2135 C 204.434 0.564487 1.50673 0
M  V30 2136 O 205.626 0.821206 1.56797 0
M  V30 2137 C 202.755 1.85677 2.88754 0
M  V30 2138 C 201.841 3.06133 2.93502 0
M  V30 2139 N 202.232 4.28987 2.67962 0
M  V30 2140 C 200.53 3.05787 3.24669 0
M  V30 2141 C 201.231 5.10395 2.79055 0
M  V30 2142 N 200.207 4.45455 3.11561 0
M  V30 2143 H 204.009 2.63696 1.29775 0
M  V30 2144 H 201.523 1.49873 0.625436 0
M  V30 2145 H 203.52 1.97475 3.67164 0
M  V30 2146 H 202.18 0.942348 3.10725 0
M  V30 2147 H 203.191 4.57607 2.4252 0
M  V30 2148 H 199.868 2.2405 3.52289 0
M  V30 2149 H 201.258 6.18247 2.63097 0
M  V30 2150 N 203.978 -0.674533 1.42435 0
M  V30 2151 C 205.227 -1.43034 1.42212 0
M  V30 2152 C 205.54 -1.95555 0.0420788 0
M  V30 2153 O 206.746 -2.71374 -0.0827558 0
M  V30 2154 C 205.202 -2.58748 2.50155 0
M  V30 2155 C 204.81 -2.12925 3.94166 0
M  V30 2156 C 206.554 -3.36257 2.59098 0
M  V30 2157 C 204.461 -3.25723 4.93618 0
M  V30 2158 H 203.391 -0.537345 0.528939 0
M  V30 2159 H 206.042 -0.73024 1.68344 0
M  V30 2160 H 204.424 -3.31128 2.17188 0
M  V30 2161 H 205.598 -1.47697 4.36488 0
M  V30 2162 H 203.913 -1.48354 3.89076 0
M  V30 2163 H 206.51 -4.20264 3.30578 0
M  V30 2164 H 206.853 -3.82866 1.63461 0
M  V30 2165 H 207.386 -2.70947 2.9126 0
M  V30 2166 H 204.125 -2.84105 5.90732 0
M  V30 2167 H 203.645 -3.89732 4.55926 0
M  V30 2168 H 205.324 -3.91186 5.15347 0
M  V30 2169 N 205.456 -1.28612 -0.910864 0
M  V30 2170 C 206.733 -1.06632 -1.63979 0
M  V30 2171 C 207.113 0.393351 -2.07403 0
M  V30 2172 O 206.461 1.37999 -1.82122 0
M  V30 2173 C 206.671 -2.0436 -2.8291 0
M  V30 2174 C 208.019 -2.34666 -3.5386 0
M  V30 2175 O 209.043 -2.02467 -2.93062 0
M  V30 2176 O 207.902 -2.89631 -4.63439 0
M  V30 2177 H 204.996 -0.407737 -0.7195 0
M  V30 2178 H 207.542 -1.39942 -0.959914 0
M  V30 2179 H 206.314 -3.02727 -2.47936 0
M  V30 2180 H 205.937 -1.71714 -3.58609 0
M  V30 2181 N 206.934 1.1197 -1.10907 0
M  V30 2182 C 207.844 2.21433 -0.774896 0
M  V30 2183 C 208.86 1.72478 0.229657 0
M  V30 2184 O 210.036 2.01288 0.0672008 0
M  V30 2185 C 207.101 3.4602 -0.216986 0
M  V30 2186 C 206.162 4.09791 -1.27944 0
M  V30 2187 C 205.395 5.28431 -0.748055 0
M  V30 2188 O 205.618 5.68823 0.423833 0
M  V30 2189 O 204.552 5.82644 -1.51027 0
M  V30 2190 H 208.378 2.5242 -1.68873 0
M  V30 2191 H 205.963 1.20399 -0.884555 0
M  V30 2192 H 207.845 4.21304 0.090059 0
M  V30 2193 H 206.52 3.16698 0.669633 0
M  V30 2194 H 205.427 3.36265 -1.63941 0
M  V30 2195 H 206.76 4.4328 -2.13925 0
M  V30 2196 N 208.412 0.89855 1.29475 0
M  V30 2197 C 209.828 0.594483 1.48115 0
M  V30 2198 C 210.028 -0.86431 1.82022 0
M  V30 2199 O 209.084 -1.64457 1.91599 0
M  V30 2200 C 210.397 1.51932 2.59494 0
M  V30 2201 C 211.945 1.5244 2.7337 0
M  V30 2202 C 212.42 2.43548 3.87877 0
M  V30 2203 N 213.911 2.41589 3.95208 0
M  V30 2204 C 214.646 3.08789 4.83153 0
M  V30 2205 N 214.142 3.85265 5.75798 0
M  V30 2206 N 215.935 2.97952 4.76635 0
M  V30 2207 H 208.086 1.84207 1.05742 0
M  V30 2208 H 210.349 0.789251 0.525154 0
M  V30 2209 H 210.055 2.55865 2.41301 0
M  V30 2210 H 209.929 1.23899 3.56271 0
M  V30 2211 H 212.316 0.492518 2.90961 0
M  V30 2212 H 212.397 1.8451 1.77172 0
M  V30 2213 H 212.041 3.46829 3.71041 0
M  V30 2214 H 211.971 2.08788 4.83441 0
M  V30 2215 H 214.462 1.86025 3.28943 0
M  V30 2216 H 214.775 4.33598 6.39697 0
M  V30 2217 H 213.12 3.89371 5.75687 0
M  V30 2218 H 216.311 2.37723 4.03244 0
M  V30 2219 H 216.484 3.50599 5.44962 0
M  V30 2220 N 209.89 -1.43072 0.660911 0
M  V30 2221 C 211.306 -1.56169 0.329173 0
M  V30 2222 C 211.506 -1.64317 -1.16629 0
M  V30 2223 O 210.562 -1.60245 -1.95135 0
M  V30 2224 C 211.875 -2.81873 1.04729 0
M  V30 2225 C 213.423 -2.95627 1.02828 0
M  V30 2226 C 213.898 -4.24174 1.72744 0
M  V30 2227 N 215.389 -4.31055 1.69545 0
M  V30 2228 C 216.124 -5.29304 2.20511 0
M  V30 2229 N 215.62 -6.33786 2.79799 0
M  V30 2230 N 217.413 -5.21008 2.10966 0
M  V30 2231 H 209.564 -1.36027 1.63127 0
M  V30 2232 H 211.827 -0.653823 0.686454 0
M  V30 2233 H 211.533 -2.81942 2.10242 0
M  V30 2234 H 211.407 -3.72338 0.603702 0
M  V30 2235 H 213.794 -2.95094 -0.0184742 0
M  V30 2236 H 213.875 -2.06431 1.51063 0
M  V30 2237 H 213.519 -4.25467 2.7738 0
M  V30 2238 H 213.449 -5.1228 1.2197 0
M  V30 2239 H 215.94 -3.56174 1.26288 0
M  V30 2240 H 216.253 -7.05086 3.16344 0
M  V30 2241 H 214.598 -6.34387 2.83863 0
M  V30 2242 H 217.789 -4.38301 1.64347 0
M  V30 2243 H 217.962 -5.97416 2.50993 0
M  V30 2244 N 211.368 -0.403325 -1.52352 0
M  V30 2245 C 212.617 0.175668 -2.00934 0
M  V30 2246 C 212.93 1.46718 -1.29356 0
M  V30 2247 O 214.136 2.12708 -1.68724 0
M  V30 2248 C 212.592 0.363612 -3.58058 0
M  V30 2249 C 212.2 -0.915472 -4.38547 0
M  V30 2250 C 213.944 0.89821 -4.14888 0
M  V30 2251 C 211.851 -0.695035 -5.87302 0
M  V30 2252 H 210.781 0.0694234 -0.750797 0
M  V30 2253 H 213.432 -0.527879 -1.75743 0
M  V30 2254 H 211.814 1.12935 -3.79555 0
M  V30 2255 H 212.988 -1.68691 -4.28812 0
M  V30 2256 H 211.303 -1.37606 -3.93006 0
M  V30 2257 H 213.9 1.07907 -5.23699 0
M  V30 2258 H 214.243 1.87126 -3.71873 0
M  V30 2259 H 214.776 0.191681 -3.97338 0
M  V30 2260 H 211.515 -1.63948 -6.34666 0
M  V30 2261 H 211.035 0.0372116 -5.99788 0
M  V30 2262 H 212.714 -0.33497 -6.46132 0
M  V30 2263 N 212.846 1.57033 -0.133567 0
M  V30 2264 C 214.086 1.97575 0.523789 0
M  V30 2265 C 214.45 1.01605 1.62912 0
M  V30 2266 O 215.651 1.3114 2.3464 0
M  V30 2267 C 213.922 3.42256 1.02935 0
M  V30 2268 S 215.481 4.04817 1.69319 0
M  V30 2269 H 212.299 0.690427 0.169799 0
M  V30 2270 H 214.901 1.94234 -0.222101 0
M  V30 2271 H 213.605 4.09842 0.213917 0
M  V30 2272 H 213.136 3.4928 1.81017 0
M  V30 2273 H 215.151 3.96767 2.97977 0
M  V30 2274 N 214.325 -0.140222 1.56975 0
M  V30 2275 C 215.273 -1.19207 1.99731 0
M  V30 2276 C 216.267 -1.44089 0.890777 0
M  V30 2277 O 217.473 -1.44301 1.07597 0
M  V30 2278 H 213.848 -0.40142 0.635898 0
M  V30 2279 H 215.819 -0.804813 2.87342 0
M  V30 2280 C 214.568 -2.51617 2.39967 0
M  V30 2281 H 213.891 -2.33303 3.24669 0
M  V30 2282 H 215.331 -3.23827 2.73701 0
M  V30 2283 C 213.79 -3.12654 1.25496 0
M  V30 2284 O 214.32 -3.97786 0.559371 0
M  V30 2285 N 212.526 -2.72206 1.01746 0
M  V30 2286 H 212.073 -2.03074 1.58489 0
M  V30 2287 H 212.031 -3.13377 0.253461 0
M  V30 2288 N 215.803 -1.52179 -0.40978 0
M  V30 2289 C 216.766 -1.74853 -1.48186 0
M  V30 2290 C 217.766 -0.618417 -1.48433 0
M  V30 2291 O 218.956 -0.886286 -1.49969 0
M  V30 2292 C 216.088 -1.8303 -2.87598 0
M  V30 2293 H 217.281 -2.70559 -1.29374 0
M  V30 2294 H 214.834 -1.42586 -0.640233 0
M  V30 2295 H 215.569 -0.89236 -3.11781 0
M  V30 2296 H 215.354 -2.65187 -2.88822 0
M  V30 2297 H 216.844 -2.02316 -3.65319 0
M  V30 2298 N 217.281 0.66697 -1.42791 0
M  V30 2299 C 218.527 1.4291 -1.43891 0
M  V30 2300 C 218.86 1.94114 -0.0578972 0
M  V30 2301 O 218.135 1.71414 0.91911 0
M  V30 2302 C 218.418 2.62049 -2.46987 0
M  V30 2303 C 218.271 2.16426 -3.94309 0
M  V30 2304 C 219.59 3.64266 -2.46978 0
M  V30 2305 H 216.709 0.518306 -0.523954 0
M  V30 2306 H 219.351 0.757321 -1.74255 0
M  V30 2307 H 217.501 3.19361 -2.21225 0
M  V30 2308 H 219.173 1.64221 -4.31079 0
M  V30 2309 H 217.416 1.47925 -4.078 0
M  V30 2310 H 218.087 3.02038 -4.62036 0
M  V30 2311 H 220.563 3.16686 -2.69906 0
M  V30 2312 H 219.439 4.45196 -3.21079 0
M  V30 2313 H 219.7 4.15927 -1.49857 0
M  V30 2314 N 218.759 1.29093 0.90403 0
M  V30 2315 C 219.984 1.19809 1.69294 0
M  V30 2316 C 220.409 -0.238481 1.86582 0
M  V30 2317 O 219.767 -1.1723 1.383 0
M  V30 2318 C 219.815 1.91202 3.05736 0
M  V30 2319 O 218.919 1.22611 3.93752 0
M  V30 2320 H 218.26 0.415385 0.518027 0
M  V30 2321 H 220.79 1.70586 1.12967 0
M  V30 2322 H 220.8 1.99487 3.55906 0
M  V30 2323 H 219.475 2.95692 2.92471 0
M  V30 2324 H 218.052 1.22554 3.52186 0
M  V30 2325 N 220.237 -1.11381 1.11499 0
M  V30 2326 C 221.648 -1.6465 0.880191 0
M  V30 2327 C 221.999 -1.87199 -0.587434 0
M  V30 2328 O 221.124 -1.60667 -1.44966 0
M  V30 2329 C 221.719 -2.99105 1.59128 0
M  V30 2330 C 220.278 -3.49279 1.40289 0
M  V30 2331 C 219.425 -2.24077 1.63354 0
M  V30 2332 H 222.376 -0.950123 1.27116 0
M  V30 2333 H 222.397 -3.66107 1.03664 0
M  V30 2334 H 221.909 -2.82661 2.65941 0
M  V30 2335 H 220.01 -3.70887 0.356888 0
M  V30 2336 H 220.123 -4.2803 2.15238 0
M  V30 2337 H 218.487 -2.31733 1.05698 0
M  V30 2338 H 219.27 -2.10175 2.71443 0
M  V30 2339 N 221.715 -0.905404 -1.28997 0
M  V30 2340 C 222.992 -0.453513 -1.9027 0
M  V30 2341 C 223.372 1.06721 -1.82137 0
M  V30 2342 O 222.72 1.91159 -1.25182 0
M  V30 2343 C 222.93 -0.974494 -3.35119 0
M  V30 2344 C 224.278 -1.0216 -4.12127 0
M  V30 2345 O 225.302 -0.922557 -3.44046 0
M  V30 2346 O 224.161 -1.17121 -5.33802 0
M  V30 2347 H 221.255 -0.142347 -0.814657 0
M  V30 2348 H 223.801 -0.995642 -1.37423 0
M  V30 2349 H 222.573 -2.01848 -3.35221 0
M  V30 2350 H 222.196 -0.412706 -3.95452 0
M  V30 2351 N 223.193 1.4272 -0.668489 0
M  V30 2352 C 224.14 2.30796 0.0137489 0
M  V30 2353 C 225.11 1.4561 0.799177 0
M  V30 2354 O 226.295 1.74453 0.772702 0
M  V30 2355 C 223.435 3.31377 0.963507 0
M  V30 2356 C 222.548 4.31655 0.172569 0
M  V30 2357 C 221.683 5.19312 1.1175 0
M  V30 2358 C 220.722 6.11274 0.317886 0
M  V30 2359 N 219.859 6.91504 1.2152 0
M  V30 2360 H 224.699 2.88585 -0.743161 0
M  V30 2361 H 222.236 1.42154 -0.378226 0
M  V30 2362 H 224.194 3.88214 1.52792 0
M  V30 2363 H 222.824 2.75202 1.68712 0
M  V30 2364 H 221.876 3.76988 -0.508374 0
M  V30 2365 H 223.188 4.96779 -0.448527 0
M  V30 2366 H 222.342 5.80851 1.75206 0
M  V30 2367 H 221.081 4.5435 1.77249 0
M  V30 2368 H 220.086 5.48809 -0.329918 0
M  V30 2369 H 221.311 6.78283 -0.332917 0
M  V30 2370 H 219.257 6.29176 1.85671 0
M  V30 2371 H 219.174 7.53209 0.649036 0
M  V30 2372 H 220.442 7.57535 1.83742 0
M  V30 2373 N 224.671 0.411399 1.52136 0
M  V30 2374 C 225.948 -0.222308 1.94333 0
M  V30 2375 C 226.328 -1.6242 1.34844 0
M  V30 2376 O 225.676 -2.22384 0.525145 0
M  V30 2377 C 225.886 -0.226345 3.48265 0
M  V30 2378 C 227.234 -0.444592 4.22266 0
M  V30 2379 O 228.258 -0.305602 3.54887 0
M  V30 2380 O 227.117 -0.718749 5.41753 0
M  V30 2381 H 224.211 -0.143907 0.814383 0
M  V30 2382 H 226.757 0.467506 1.63133 0
M  V30 2383 H 225.529 0.75475 3.83952 0
M  V30 2384 H 225.152 -0.960163 3.85832 0
M  V30 2385 N 226.149 -1.5696 0.141893 0
M  V30 2386 C 227.395 -1.9625 -0.511248 0
M  V30 2387 C 227.728 -1.02654 -1.64851 0
M  V30 2388 O 227.003 -0.0679676 -1.94381 0
M  V30 2389 C 227.286 -3.45285 -1.02227 0
M  V30 2390 C 227.139 -4.49658 0.113138 0
M  V30 2391 C 228.458 -3.96698 -1.90574 0
M  V30 2392 H 225.577 -0.713567 -0.184367 0
M  V30 2393 H 228.219 -1.88698 0.222087 0
M  V30 2394 H 226.369 -3.51852 -1.64719 0
M  V30 2395 H 228.041 -4.55174 0.749302 0
M  V30 2396 H 226.284 -4.26857 0.773026 0
M  V30 2397 H 226.955 -5.51258 -0.286053 0
M  V30 2398 H 229.431 -3.92578 -1.37918 0
M  V30 2399 H 228.307 -5.01453 -2.2324 0
M  V30 2400 H 228.568 -3.3875 -2.84079 0
M  V30 2401 N 227.627 0.131896 -1.57047 0
M  V30 2402 C 228.904 0.871495 -1.75112 0
M  V30 2403 C 229.284 1.9866 -0.713949 0
M  V30 2404 O 228.632 2.26965 0.264447 0
M  V30 2405 C 228.842 1.40007 -3.19686 0
M  V30 2406 C 230.19 1.85752 -3.81813 0
M  V30 2407 O 231.214 1.49715 -3.23209 0
M  V30 2408 O 230.073 2.5226 -4.84796 0
M  V30 2409 H 227.167 0.412919 -0.716538 0
M  V30 2410 H 229.713 0.116641 -1.69299 0
M  V30 2411 H 228.485 0.599404 -3.86682 0
M  V30 2412 H 228.108 2.218 -3.29986 0
M  V30 2413 N 229.106 1.52395 0.401703 0
M  V30 2414 C 230.354 1.66488 1.14569 0
M  V30 2415 C 230.675 0.400897 1.90835 0
M  V30 2416 O 229.945 -0.584415 1.8698 0
M  V30 2417 H 228.525 0.613672 0.425929 0
M  V30 2418 H 231.187 1.89464 0.457093 0
M  V30 2419 H 230.283 2.50942 1.85566 0
M  V30 2420 N 230.584 -0.659388 1.43143 0
M  V30 2421 C 231.831 -1.41935 1.44433 0
M  V30 2422 C 232.159 -1.94387 0.0663522 0
M  V30 2423 O 231.414 -1.72314 -0.927706 0
M  V30 2424 C 231.713 -2.62206 2.42864 0
M  V30 2425 C 231.379 -2.28208 3.88886 0
M  V30 2426 C 230.041 -2.18647 4.28657 0
M  V30 2427 C 232.393 -2.00887 4.8093 0
M  V30 2428 C 229.721 -1.79914 5.58433 0
M  V30 2429 C 232.073 -1.63653 6.11065 0
M  V30 2430 C 230.737 -1.52614 6.49819 0
M  V30 2431 H 230.007 -0.519376 0.528517 0
M  V30 2432 H 232.654 -0.750453 1.76183 0
M  V30 2433 H 230.959 -3.34199 2.04495 0
M  V30 2434 H 232.656 -3.2041 2.41119 0
M  V30 2435 H 229.246 -2.36557 3.57406 0
M  V30 2436 H 233.43 -2.07198 4.5098 0
M  V30 2437 H 228.686 -1.69948 5.87305 0
M  V30 2438 H 232.86 -1.41543 6.81864 0
M  V30 2439 H 230.487 -1.22371 7.50286 0
M  V30 2440 N 232.062 -1.29571 -0.897171 0
M  V30 2441 C 233.012 -1.11539 -1.98855 0
M  V30 2442 C 233.996 -0.0340716 -1.60864 0
M  V30 2443 O 235.188 -0.256062 -1.75138 0
M  V30 2444 C 232.317 -0.796603 -3.3393 0
M  V30 2445 C 231.403 -1.91758 -3.78272 0
M  V30 2446 N 231.794 -3.16143 -3.94826 0
M  V30 2447 C 230.092 -1.81119 -4.07568 0
M  V30 2448 C 230.793 -3.89293 -4.32233 0
M  V30 2449 N 229.769 -3.17255 -4.41419 0
M  V30 2450 H 233.571 -2.05894 -2.09726 0
M  V30 2451 H 231.085 -1.20732 -1.08616 0
M  V30 2452 H 233.082 -0.648459 -4.11826 0
M  V30 2453 H 231.742 0.139003 -3.24402 0
M  V30 2454 H 232.753 -3.5157 -3.80288 0
M  V30 2455 H 229.43 -0.948461 -4.06584 0
M  V30 2456 H 230.82 -4.9635 -4.52865 0
M  V30 2457 N 233.54 1.10788 -1.12088 0
M  V30 2458 C 234.786 1.82942 -0.875226 0
M  V30 2459 C 235.119 1.84779 0.597538 0
M  V30 2460 O 234.394 1.30578 1.44152 0
M  V30 2461 C 234.677 3.29789 -1.44606 0
M  V30 2462 C 234.53 3.36307 -2.98693 0
M  V30 2463 C 235.849 4.26064 -1.10261 0
M  V30 2464 H 232.968 0.664195 -0.319397 0
M  V30 2465 H 235.61 1.29867 -1.38689 0
M  V30 2466 H 233.76 3.75118 -1.01089 0
M  V30 2467 H 235.432 2.99487 -3.50864 0
M  V30 2468 H 233.675 2.76318 -3.34411 0
M  V30 2469 H 234.346 4.39694 -3.33726 0
M  V30 2470 H 236.822 3.88951 -1.4784 0
M  V30 2471 H 235.698 5.27183 -1.52869 0
M  V30 2472 H 235.959 4.42098 -0.0142953 0
M  V30 2473 N 235.018 0.912232 1.28515 0
M  V30 2474 C 236.267 0.540504 1.94323 0
M  V30 2475 C 236.58 -0.920044 1.72611 0
M  V30 2476 O 237.786 -1.39986 2.32629 0
M  V30 2477 C 236.242 0.915803 3.48053 0
M  V30 2478 C 235.85 2.39598 3.78546 0
M  V30 2479 C 237.594 0.614588 4.20027 0
M  V30 2480 C 235.501 2.71148 5.25578 0
M  V30 2481 H 234.431 0.198418 0.727424 0
M  V30 2482 H 237.082 1.11094 1.46049 0
M  V30 2483 H 235.464 0.274168 3.9505 0
M  V30 2484 H 236.638 3.08422 3.42364 0
M  V30 2485 H 234.953 2.66749 3.1974 0
M  V30 2486 H 237.55 0.827002 5.28266 0
M  V30 2487 H 237.893 -0.447531 4.13887 0
M  V30 2488 H 238.426 1.21462 3.78803 0
M  V30 2489 H 235.165 3.76207 5.36794 0
M  V30 2490 H 234.685 2.0696 5.62963 0
M  V30 2491 H 236.364 2.58072 5.93302 0
M  V30 2492 N 236.496 -1.42363 0.676048 0
M  V30 2493 C 237.444 -2.32596 -0.0131507 0
M  V30 2494 C 238.438 -1.49891 -0.789238 0
M  V30 2495 O 239.644 -1.65955 -0.697061 0
M  V30 2496 H 236.019 -0.751647 -0.0230481 0
M  V30 2497 H 237.99 -2.88421 0.765243 0
M  V30 2498 C 236.739 -3.34479 -0.949702 0
M  V30 2499 H 236.062 -3.98158 -0.361938 0
M  V30 2500 H 237.502 -4.00199 -1.4006 0
M  V30 2501 C 235.961 -2.66838 -2.05667 0
M  V30 2502 O 236.491 -2.50124 -3.14326 0
M  V30 2503 N 234.697 -2.25843 -1.82875 0
M  V30 2504 H 234.244 -2.39637 -0.945085 0
M  V30 2505 H 234.202 -1.80918 -2.5713 0
M  V30 2506 N 237.974 -0.419461 -1.51915 0
M  V30 2507 C 239.22 0.153166 -2.02221 0
M  V30 2508 C 239.553 1.43907 -1.30401 0
M  V30 2509 O 238.828 1.90055 -0.413438 0
M  V30 2510 C 239.111 0.390291 -3.57979 0
M  V30 2511 C 238.964 -0.913014 -4.40436 0
M  V30 2512 C 240.283 1.16794 -4.2432 0
M  V30 2513 H 237.402 0.0541924 -0.735005 0
M  V30 2514 H 240.044 -0.554955 -1.81715 0
M  V30 2515 H 238.194 0.993491 -3.75582 0
M  V30 2516 H 239.866 -1.54882 -4.34522 0
M  V30 2517 H 238.109 -1.52168 -4.06236 0
M  V30 2518 H 238.78 -0.701361 -5.47526 0
M  V30 2519 H 241.256 0.657161 -4.10878 0
M  V30 2520 H 240.132 1.3026 -5.3322 0
M  V30 2521 H 240.393 2.19132 -3.83971 0
M  V30 2522 N 239.452 1.56882 -0.150215 0
M  V30 2523 C 240.7 1.9584 0.499105 0
M  V30 2524 C 241.021 1.03623 1.65188 0
M  V30 2525 O 240.291 0.0984084 1.95653 0
M  V30 2526 H 238.871 0.723119 0.187373 0
M  V30 2527 H 241.533 1.9358 -0.226466 0
M  V30 2528 H 240.629 2.99638 0.873122 0
M  V30 2529 N 240.93 -0.123565 1.57115 0
M  V30 2530 C 242.346 -0.476961 1.52306 0
M  V30 2531 C 242.546 -1.82109 0.86248 0
M  V30 2532 O 241.602 -2.48586 0.442884 0
M  V30 2533 C 242.915 -0.465661 2.97073 0
M  V30 2534 C 244.463 -0.549534 3.08138 0
M  V30 2535 C 244.938 -0.568669 4.54456 0
M  V30 2536 N 246.429 -0.630237 4.58892 0
M  V30 2537 C 247.164 -0.666415 5.69514 0
M  V30 2538 N 246.66 -0.660514 6.89644 0
M  V30 2539 N 248.453 -0.709077 5.5761 0
M  V30 2540 H 240.604 0.757198 1.98445 0
M  V30 2541 H 242.867 0.278808 0.906074 0
M  V30 2542 H 242.573 0.454232 3.48754 0
M  V30 2543 H 242.447 -1.29513 3.54269 0
M  V30 2544 H 244.834 -1.45985 2.56461 0
M  V30 2545 H 244.915 0.307532 2.53945 0
M  V30 2546 H 244.559 0.337581 5.06777 0
M  V30 2547 H 244.489 -1.44256 5.06456 0
M  V30 2548 H 246.98 -0.641146 3.72421 0
M  V30 2549 H 247.293 -0.690616 7.69708 0
M  V30 2550 H 245.638 -0.628012 6.92157 0
M  V30 2551 H 248.829 -0.711019 4.62668 0
M  V30 2552 H 249.002 -0.733804 6.43832 0
M  V30 2553 N 242.408 -1.52605 -0.393616 0
M  V30 2554 C 243.341 -1.71798 -1.50202 0
M  V30 2555 C 244.319 -0.565743 -1.52441 0
M  V30 2556 O 245.503 -0.794987 -1.70916 0
M  V30 2557 C 242.63 -1.7714 -2.88685 0
M  V30 2558 C 241.676 -2.98845 -3.04292 0
M  V30 2559 S 242.509 -4.58909 -2.75976 0
M  V30 2560 C 243.665 -4.6706 -4.1666 0
M  V30 2561 H 243.898 -2.65542 -1.33696 0
M  V30 2562 H 241.431 -1.42839 -0.586195 0
M  V30 2563 H 243.389 -1.80903 -3.68489 0
M  V30 2564 H 242.05 -0.844969 -3.02521 0
M  V30 2565 H 241.243 -2.99111 -4.05646 0
M  V30 2566 H 240.845 -2.9305 -2.32374 0
M  V30 2567 H 243.137 -4.45391 -5.10523 0
M  V30 2568 H 244.08 -5.6905 -4.21412 0
M  V30 2569 H 244.488 -3.95944 -4.02354 0
M  V30 2570 N 243.887 0.651787 -1.4349 0
M  V30 2571 C 245.127 1.42345 -1.46688 0
M  V30 2572 C 245.491 1.91793 -0.0891023 0
M  V30 2573 O 246.692 2.688 0.00423594 0
M  V30 2574 C 244.963 2.57221 -2.48137 0
M  V30 2575 S 246.522 3.45725 -2.70221 0
M  V30 2576 H 243.34 0.485878 -0.51908 0
M  V30 2577 H 245.942 0.756578 -1.80267 0
M  V30 2578 H 244.646 2.1917 -3.46976 0
M  V30 2579 H 244.177 3.28757 -2.16061 0
M  V30 2580 H 246.192 4.53996 -2.00255 0
M  V30 2581 N 245.365 1.30045 0.890287 0
M  V30 2582 C 246.295 1.18541 2.01172 0
M  V30 2583 C 247.276 0.0773356 1.69924 0
M  V30 2584 O 248.461 0.25845 1.92473 0
M  V30 2585 C 245.591 0.870941 3.36202 0
M  V30 2586 C 244.545 1.93637 3.81692 0
M  V30 2587 C 243.871 1.475 5.13953 0
M  V30 2588 C 245.171 3.34666 4.00994 0
M  V30 2589 H 246.865 2.12359 2.11054 0
M  V30 2590 H 244.411 1.02238 1.01407 0
M  V30 2591 H 246.364 0.777141 4.14172 0
M  V30 2592 H 245.088 -0.102926 3.26438 0
M  V30 2593 H 243.747 2.01972 3.05946 0
M  V30 2594 H 243.395 0.489551 5.00612 0
M  V30 2595 H 243.095 2.1876 5.4536 0
M  V30 2596 H 244.619 1.39489 5.94454 0
M  V30 2597 H 246.033 3.2912 4.69417 0
M  V30 2598 H 244.43 4.03966 4.43769 0
M  V30 2599 H 245.5 3.76949 3.05021 0
M  V30 2600 N 246.843 -1.10192 1.12674 0
M  V30 2601 C 248.12 -1.78717 0.794965 0
M  V30 2602 C 248.5 -1.98628 -0.714853 0
M  V30 2603 O 247.848 -1.58135 -1.64941 0
M  V30 2604 C 248.058 -3.11546 1.5729 0
M  V30 2605 C 249.406 -3.86382 1.76052 0
M  V30 2606 O 250.43 -3.21274 1.53823 0
M  V30 2607 O 249.289 -5.03246 2.13087 0
M  V30 2608 H 246.383 -0.774702 0.289423 0
M  V30 2609 H 248.929 -1.16819 1.23091 0
M  V30 2610 H 247.701 -2.92489 2.59935 0
M  V30 2611 H 247.324 -3.81164 1.13137 0
M  V30 2612 N 248.321 -0.919034 -1.28029 0
M  V30 2613 C 249.253 -0.368762 -2.26214 0
M  V30 2614 C 250.266 0.495716 -1.55069 0
M  V30 2615 O 251.455 0.30974 -1.75792 0
M  V30 2616 C 248.555 0.491049 -3.35324 0
M  V30 2617 C 247.728 -0.352133 -4.3598 0
M  V30 2618 C 246.787 0.443622 -5.24327 0
M  V30 2619 O 245.813 -0.14566 -5.69014 0
M  V30 2620 N 247.015 1.74545 -5.53637 0
M  V30 2621 H 249.78 -1.21273 -2.74068 0
M  V30 2622 H 247.341 -0.785541 -1.41566 0
M  V30 2623 H 249.333 1.03026 -3.91366 0
M  V30 2624 H 247.903 1.23574 -2.87138 0
M  V30 2625 H 247.123 -1.07269 -3.79324 0
M  V30 2626 H 248.411 -0.928883 -5.00249 0
M  V30 2627 H 247.809 2.24666 -5.19174 0
M  V30 2628 H 246.366 2.23138 -6.12416 0
M  V30 2629 N 249.799 1.42003 -0.683588 0
M  V30 2630 C 251.029 2.05448 -0.217866 0
M  V30 2631 C 251.437 1.51491 1.13346 0
M  V30 2632 O 250.78 0.653048 1.717 0
M  V30 2633 C 250.842 3.59399 -0.0850118 0
M  V30 2634 C 250.506 4.36093 -1.36645 0
M  V30 2635 C 251.503 4.66169 -2.30179 0
M  V30 2636 C 249.188 4.75578 -1.61649 0
M  V30 2637 C 251.182 5.34676 -3.46988 0
M  V30 2638 C 248.869 5.43824 -2.78745 0
M  V30 2639 C 249.867 5.73299 -3.71238 0
M  V30 2640 O 249.555 6.40142 -4.86285 0
M  V30 2641 H 249.287 0.668344 -0.101454 0
M  V30 2642 H 251.841 1.82974 -0.933248 0
M  V30 2643 H 250.071 3.80566 0.686031 0
M  V30 2644 H 251.76 4.04457 0.341973 0
M  V30 2645 H 252.526 4.36156 -2.12115 0
M  V30 2646 H 248.405 4.52025 -0.905243 0
M  V30 2647 H 251.949 5.57599 -4.19201 0
M  V30 2648 H 247.846 5.73254 -2.96732 0
M  V30 2649 H 248.614 6.58636 -4.85944 0
M  V30 2650 N 251.277 0.427512 1.51691 0
M  V30 2651 C 252.502 -0.143601 2.06902 0
M  V30 2652 C 252.927 -1.36536 1.29382 0
M  V30 2653 O 252.285 -1.78289 0.329043 0
M  V30 2654 C 252.333 -0.454207 3.57728 0
M  V30 2655 O 251.437 -1.54228 3.82475 0
M  V30 2656 H 250.778 -0.00617128 0.663971 0
M  V30 2657 H 253.308 0.606014 1.95419 0
M  V30 2658 H 253.318 -0.707525 4.01818 0
M  V30 2659 H 251.993 0.438812 4.13579 0
M  V30 2660 H 250.57 -1.2797 3.50254 0
M  V30 2661 N 252.755 -1.56801 0.158532 0
M  V30 2662 C 253.688 -2.13148 -0.815065 0
M  V30 2663 C 254.666 -1.0581 -1.23462 0
M  V30 2664 O 255.85 -1.3371 -1.32868 0
M  V30 2665 C 252.977 -2.6606 -2.09594 0
M  V30 2666 C 252.023 -3.85651 -1.82141 0
M  V30 2667 S 252.856 -5.26041 -1.00207 0
M  V30 2668 C 254.012 -5.8235 -2.29389 0
M  V30 2669 H 254.245 -2.95396 -0.335937 0
M  V30 2670 H 251.778 -1.54299 -0.0559391 0
M  V30 2671 H 253.736 -2.97195 -2.8317 0
M  V30 2672 H 252.397 -1.83921 -2.54621 0
M  V30 2673 H 251.59 -4.20958 -2.77147 0
M  V30 2674 H 251.192 -3.55338 -1.16667 0
M  V30 2675 H 253.484 -5.94485 -3.24952 0
M  V30 2676 H 254.427 -6.79688 -1.9857 0
M  V30 2677 H 254.835 -5.10675 -2.40564 0
M  V30 2678 N 254.233 0.115231 -1.57178 0
M  V30 2679 C 255.163 1.1423 -2.03651 0
M  V30 2680 C 256.144 1.42967 -0.921655 0
M  V30 2681 O 257.329 1.53343 -1.19162 0
M  V30 2682 C 254.459 2.4675 -2.44401 0
M  V30 2683 C 253.413 2.32467 -3.59365 0
M  V30 2684 C 252.739 3.69984 -3.86026 0
M  V30 2685 C 254.039 1.78203 -4.90959 0
M  V30 2686 H 255.733 0.755749 -2.89705 0
M  V30 2687 H 253.279 0.362093 -1.39373 0
M  V30 2688 H 255.232 3.18854 -2.75517 0
M  V30 2689 H 253.956 2.87302 -1.55322 0
M  V30 2690 H 252.615 1.62811 -3.28463 0
M  V30 2691 H 252.263 4.08028 -2.94147 0
M  V30 2692 H 251.963 3.61279 -4.63412 0
M  V30 2693 H 253.487 4.43587 -4.19599 0
M  V30 2694 H 254.901 2.40128 -5.20587 0
M  V30 2695 H 253.298 1.8031 -5.72371 0
M  V30 2696 H 254.368 0.739876 -4.79222 0
M  V30 2697 N 255.711 1.52812 0.385517 0
M  V30 2698 C 257.122 1.5993 0.963293 0
M  V30 2699 C 257.473 0.454302 1.90868 0
M  V30 2700 O 256.598 -0.422132 2.12243 0
M  V30 2701 C 257.193 2.89871 1.75387 0
M  V30 2702 C 255.752 2.99389 2.28129 0
M  V30 2703 C 254.899 2.55071 1.08783 0
M  V30 2704 H 257.85 1.5784 0.164948 0
M  V30 2705 H 257.871 2.76553 2.61341 0
M  V30 2706 H 257.383 3.73186 1.06554 0
M  V30 2707 H 255.484 2.20619 3.00263 0
M  V30 2708 H 255.597 4.04096 2.57377 0
M  V30 2709 H 253.961 2.09473 1.4489 0
M  V30 2710 H 254.744 3.40785 0.414807 0
M  V30 2711 N 257.189 -0.644168 1.43834 0
M  V30 2712 C 258.152 -1.73857 1.49353 0
M  V30 2713 C 259.152 -1.56315 0.377112 0
M  V30 2714 O 260.342 -1.62048 0.639226 0
M  V30 2715 C 257.474 -3.12819 1.35488 0
M  V30 2716 H 258.667 -1.70342 2.46827 0
M  V30 2717 H 256.22 -0.856652 1.30733 0
M  V30 2718 H 256.955 -3.2194 0.390569 0
M  V30 2719 H 256.74 -3.26958 2.16428 0
M  V30 2720 H 258.23 -3.92606 1.42302 0
M  V30 2721 N 258.668 -1.30515 -0.883378 0
M  V30 2722 C 259.896 -1.22359 -1.66841 0
M  V30 2723 C 260.311 0.213296 -1.87591 0
M  V30 2724 O 259.668 1.14075 -1.42454 0
M  V30 2725 C 259.719 -1.95011 -3.04389 0
M  V30 2726 O 259.44 -3.3309 -2.84575 0
M  V30 2727 C 260.941 -1.93532 -3.98824 0
M  V30 2728 H 258.161 -0.423371 -0.520575 0
M  V30 2729 H 260.705 -1.72167 -1.10357 0
M  V30 2730 H 258.86 -1.48997 -3.57601 0
M  V30 2731 H 259.274 -3.69907 -3.71846 0
M  V30 2732 H 260.748 -2.48902 -4.92699 0
M  V30 2733 H 261.225 -0.914627 -4.29571 0
M  V30 2734 H 261.831 -2.39364 -3.51547 0
M  V30 2735 N 260.146 1.09593 -1.13257 0
M  V30 2736 C 261.557 1.63229 -0.906274 0
M  V30 2737 C 261.908 1.8811 0.557578 0
M  V30 2738 O 261.033 1.62953 1.42391 0
M  V30 2739 C 261.628 2.96535 -1.63867 0
M  V30 2740 C 260.187 3.47003 -1.45828 0
M  V30 2741 C 259.334 2.2145 -1.66898 0
M  V30 2742 H 262.285 0.92978 -1.28611 0
M  V30 2743 H 262.306 3.64411 -1.09476 0
M  V30 2744 H 261.818 2.78394 -2.70404 0
M  V30 2745 H 259.919 3.70272 -0.415848 0
M  V30 2746 H 260.032 4.24551 -2.2202 0
M  V30 2747 H 258.396 2.30022 -1.09371 0
M  V30 2748 H 259.179 2.0583 -2.74752 0
M  V30 2749 N 261.624 0.925811 1.2754 0
M  V30 2750 C 262.87 0.575575 1.95086 0
M  V30 2751 C 263.225 -0.873246 1.71441 0
M  V30 2752 O 262.518 -1.61443 1.03183 0
M  V30 2753 C 262.712 0.835296 3.47502 0
M  V30 2754 C 262.541 2.30781 3.85967 0
M  V30 2755 C 261.311 2.96017 4.09514 0
M  V30 2756 C 263.509 3.28519 3.95702 0
M  V30 2757 N 261.491 4.3344 4.34744 0
M  V30 2758 C 262.862 4.51146 4.25285 0
M  V30 2759 C 264.917 3.23753 3.7827 0
M  V30 2760 C 263.62 5.69606 4.39251 0
M  V30 2761 C 265.646 4.41523 3.9346 0
M  V30 2762 C 265.008 5.62928 4.23428 0
M  V30 2763 H 261.107 0.260711 0.737261 0
M  V30 2764 H 263.691 1.19204 1.53943 0
M  V30 2765 H 261.862 0.248005 3.87607 0
M  V30 2766 H 263.594 0.447878 4.02214 0
M  V30 2767 H 260.349 2.46695 4.04275 0
M  V30 2768 H 260.773 5.04528 4.5142 0
M  V30 2769 H 265.415 2.3096 3.54143 0
M  V30 2770 H 263.133 6.62866 4.62205 0
M  V30 2771 H 266.719 4.39351 3.81394 0
M  V30 2772 H 265.599 6.52538 4.34929 0
M  V30 2773 N 263.102 -1.41638 0.69111 0
M  V30 2774 C 264.35 -2.00902 0.219758 0
M  V30 2775 C 264.671 -1.54994 -1.18329 0
M  V30 2776 O 263.941 -0.778628 -1.79762 0
M  V30 2777 H 262.521 -0.74289 0.0782558 0
M  V30 2778 H 265.183 -1.73327 0.891271 0
M  V30 2779 H 264.279 -3.11224 0.233708 0
M  V30 2780 N 264.58 -0.43555 -1.51462 0
M  V30 2781 C 265.826 0.131709 -2.02372 0
M  V30 2782 C 266.159 1.42516 -1.3192 0
M  V30 2783 O 265.434 1.89606 -0.433573 0
M  V30 2784 C 265.717 0.352301 -3.58373 0
M  V30 2785 C 265.57 -0.959676 -4.39443 0
M  V30 2786 C 266.889 1.12286 -4.25535 0
M  V30 2787 H 264.008 0.0463936 -0.735538 0
M  V30 2788 H 266.65 -0.574197 -1.81116 0
M  V30 2789 H 264.8 0.9536 -3.76615 0
M  V30 2790 H 266.472 -1.59482 -4.32855 0
M  V30 2791 H 264.715 -1.56468 -4.04599 0
M  V30 2792 H 265.386 -0.759394 -5.46752 0
M  V30 2793 H 267.862 0.613545 -4.11552 0
M  V30 2794 H 266.738 1.24598 -5.34571 0
M  V30 2795 H 266.999 2.15048 -3.86273 0
M  V30 2796 N 266.058 1.56714 -0.166846 0
M  V30 2797 C 267.304 1.97813 0.473473 0
M  V30 2798 C 267.659 1.05095 1.61161 0
M  V30 2799 O 266.952 0.0897541 1.9139 0
M  V30 2800 C 267.146 3.42889 1.00806 0
M  V30 2801 C 266.975 4.49635 -0.0767392 0
M  V30 2802 C 265.745 5.02566 -0.524894 0
M  V30 2803 C 267.943 5.06793 -0.875504 0
M  V30 2804 N 265.925 5.9294 -1.59047 0
M  V30 2805 C 267.296 5.93565 -1.79111 0
M  V30 2806 C 269.351 4.89306 -0.921083 0
M  V30 2807 C 268.054 6.64721 -2.74843 0
M  V30 2808 C 270.08 5.61179 -1.86633 0
M  V30 2809 C 269.442 6.47675 -2.76942 0
M  V30 2810 H 265.541 0.769093 0.141489 0
M  V30 2811 H 268.125 1.92874 -0.266031 0
M  V30 2812 H 266.296 3.48382 1.7171 0
M  V30 2813 H 268.028 3.71008 1.61664 0
M  V30 2814 H 264.783 4.73439 -0.123432 0
M  V30 2815 H 265.207 6.42831 -2.12361 0
M  V30 2816 H 269.849 4.22136 -0.23692 0
M  V30 2817 H 267.567 7.31107 -3.44249 0
M  V30 2818 H 271.153 5.49636 -1.90764 0
M  V30 2819 H 270.033 7.02313 -3.48893 0
M  V30 2820 N 267.536 -0.106894 1.57237 0
M  V30 2821 C 268.446 -1.14911 2.0453 0
M  V30 2822 C 269.462 -1.44592 0.96795 0
M  V30 2823 O 270.638 -1.55468 1.2803 0
M  V30 2824 C 267.703 -2.45272 2.45036 0
M  V30 2825 C 266.764 -2.22879 3.66911 0
M  V30 2826 C 265.997 -3.47024 4.05475 0
M  V30 2827 O 266.22 -4.54804 3.44252 0
M  V30 2828 O 265.154 -3.3731 4.98504 0
M  V30 2829 H 268.98 -0.777461 2.9358 0
M  V30 2830 H 266.565 -0.318563 1.45964 0
M  V30 2831 H 268.447 -3.22055 2.71769 0
M  V30 2832 H 267.122 -2.81886 1.59129 0
M  V30 2833 H 266.029 -1.43915 3.45311 0
M  V30 2834 H 267.362 -1.91163 4.53561 0
M  V30 2835 N 269.014 -1.53014 -0.377408 0
M  V30 2836 C 270.263 -1.67845 -1.11853 0
M  V30 2837 C 270.576 -0.430625 -1.90801 0
M  V30 2838 O 271.782 -0.459261 -2.67587 0
M  V30 2839 C 270.238 -2.96668 -2.03756 0
M  V30 2840 C 269.846 -4.28671 -1.30175 0
M  V30 2841 C 271.59 -3.20865 -2.77932 0
M  V30 2842 C 269.497 -5.48591 -2.20911 0
M  V30 2843 H 268.427 -0.625343 -0.421263 0
M  V30 2844 H 271.078 -1.79514 -0.380409 0
M  V30 2845 H 269.46 -2.78773 -2.8125 0
M  V30 2846 H 270.634 -4.57157 -0.578259 0
M  V30 2847 H 268.949 -4.10825 -0.679108 0
M  V30 2848 H 271.546 -4.07642 -3.46024 0
M  V30 2849 H 271.889 -2.36424 -3.4265 0
M  V30 2850 H 272.422 -3.39379 -2.07525 0
M  V30 2851 H 269.161 -6.35474 -1.6079 0
M  V30 2852 H 268.681 -5.244 -2.91144 0
M  V30 2853 H 270.36 -5.8292 -2.80736 0
M  V30 2854 N 270.492 0.636531 -1.44174 0
M  V30 2855 C 271.741 1.39213 -1.45954 0
M  V30 2856 C 272.054 1.95374 -0.0939119 0
M  V30 2857 O 273.26 2.71498 0.0107767 0
M  V30 2858 C 271.716 2.52025 -2.56927 0
M  V30 2859 C 271.324 2.024 -3.99673 0
M  V30 2860 C 273.068 3.29269 -2.67922 0
M  V30 2861 C 270.975 3.12521 -5.0208 0
M  V30 2862 H 269.905 0.523132 -0.542999 0
M  V30 2863 H 272.556 0.685349 -1.70221 0
M  V30 2864 H 270.938 3.25253 -2.25891 0
M  V30 2865 H 272.112 1.36073 -4.40251 0
M  V30 2866 H 270.427 1.37987 -3.92872 0
M  V30 2867 H 273.024 4.11352 -3.41605 0
M  V30 2868 H 273.367 3.78397 -1.73555 0
M  V30 2869 H 273.9 2.63129 -2.98342 0
M  V30 2870 H 270.639 2.68343 -5.98057 0
M  V30 2871 H 270.159 3.77507 -4.66099 0
M  V30 2872 H 271.838 3.77385 -5.25538 0
M  V30 2873 N 271.97 1.30982 0.876444 0
M  V30 2874 C 272.917 1.18085 1.98304 0
M  V30 2875 C 273.887 0.0682263 1.6596 0
M  V30 2876 O 275.072 0.239937 1.89285 0
M  V30 2877 C 272.212 0.887475 3.33493 0
M  V30 2878 C 271.325 2.08281 3.78475 0
M  V30 2879 C 270.46 1.72678 5.0235 0
M  V30 2880 C 269.499 2.88657 5.39762 0
M  V30 2881 N 268.636 2.53292 6.54819 0
M  V30 2882 H 273.476 2.1275 2.08666 0
M  V30 2883 H 271.013 1.05839 1.02159 0
M  V30 2884 H 272.971 0.697961 4.1132 0
M  V30 2885 H 271.601 -0.022315 3.22792 0
M  V30 2886 H 270.653 2.3833 2.96484 0
M  V30 2887 H 271.965 2.95108 4.02135 0
M  V30 2888 H 271.119 1.50151 5.87826 0
M  V30 2889 H 269.858 0.830327 4.8058 0
M  V30 2890 H 268.863 3.1184 4.52809 0
M  V30 2891 H 270.088 3.79002 5.63502 0
M  V30 2892 H 268.034 1.66163 6.34607 0
M  V30 2893 H 267.951 3.3365 6.7839 0
M  V30 2894 H 269.219 2.34143 7.43503 0
M  V30 2895 N 273.449 -1.08991 1.13837 0
M  V30 2896 C 274.865 -1.33312 0.877506 0
M  V30 2897 C 275.065 -1.95587 -0.48456 0
M  V30 2898 O 274.121 -2.20509 -1.23013 0
M  V30 2899 C 275.434 -2.24045 2.0056 0
M  V30 2900 C 276.982 -2.37542 2.03821 0
M  V30 2901 C 277.457 -3.31614 3.15905 0
M  V30 2902 N 278.948 -3.39189 3.15445 0
M  V30 2903 C 279.683 -4.11992 3.98811 0
M  V30 2904 N 279.179 -4.87553 4.92203 0
M  V30 2905 N 280.972 -4.07762 3.86894 0
M  V30 2906 H 273.123 -0.669456 2.01574 0
M  V30 2907 H 275.386 -0.357482 0.878015 0
M  V30 2908 H 275.092 -1.85521 2.98789 0
M  V30 2909 H 274.966 -3.24466 1.92359 0
M  V30 2910 H 277.353 -2.75327 1.06202 0
M  V30 2911 H 277.434 -1.36884 2.16093 0
M  V30 2912 H 277.078 -2.94551 4.13766 0
M  V30 2913 H 277.008 -4.32186 3.0087 0
M  V30 2914 H 279.499 -2.85314 2.47799 0
M  V30 2915 H 279.812 -5.40549 5.52292 0
M  V30 2916 H 278.157 -4.86627 4.96205 0
M  V30 2917 H 281.348 -3.47833 3.13257 0
M  V30 2918 H 281.521 -4.64238 4.52092 0
M  V30 2919 N 274.927 -0.932562 -1.27047 0
M  V30 2920 C 276.155 -0.592031 -1.98249 0
M  V30 2921 C 276.57 0.831062 -1.69525 0
M  V30 2922 O 275.927 1.55299 -0.958561 0
M  V30 2923 C 275.978 -0.814279 -3.5221 0
M  V30 2924 O 275.699 -2.18139 -3.7993 0
M  V30 2925 C 277.2 -0.483121 -4.4066 0
M  V30 2926 H 274.42 -0.223896 -0.632544 0
M  V30 2927 H 276.964 -1.25091 -1.61779 0
M  V30 2928 H 275.119 -0.20213 -3.86872 0
M  V30 2929 H 275.533 -2.235 -4.74498 0
M  V30 2930 H 277.007 -0.689298 -5.47679 0
M  V30 2931 H 277.484 0.581546 -4.35333 0
M  V30 2932 H 278.09 -1.07362 -4.11526 0
M  V30 2933 N 276.405 1.4127 -0.698611 0
M  V30 2934 C 277.653 2.00782 -0.230409 0
M  V30 2935 C 277.974 1.5562 1.17505 0
M  V30 2936 O 277.244 0.78815 1.79346 0
M  V30 2937 H 275.824 0.742464 -0.0821944 0
M  V30 2938 H 278.486 1.72852 -0.90045 0
M  V30 2939 H 277.582 3.11095 -0.25021 0
M  V30 2940 N 277.883 0.443576 1.51229 0
M  V30 2941 C 279.132 -0.122332 2.01329 0
M  V30 2942 C 279.445 -1.43237 1.33201 0
M  V30 2943 O 280.651 -2.0816 1.74304 0
M  V30 2944 C 279.107 -0.268551 3.58897 0
M  V30 2945 C 278.715 1.03142 4.35965 0
M  V30 2946 C 280.459 -0.787894 4.17124 0
M  V30 2947 C 278.366 0.850504 5.85252 0
M  V30 2948 H 277.296 -0.0494929 0.752374 0
M  V30 2949 H 279.947 0.574289 1.74282 0
M  V30 2950 H 278.329 -1.02832 3.82415 0
M  V30 2951 H 279.503 1.80001 4.24189 0
M  V30 2952 H 277.818 1.47977 3.89219 0
M  V30 2953 H 280.415 -0.939841 5.26375 0
M  V30 2954 H 280.758 -1.77201 3.76703 0
M  V30 2955 H 281.291 -0.0862669 3.97706 0
M  V30 2956 H 278.03 1.80718 6.30096 0
M  V30 2957 H 277.55 0.121825 5.99676 0
M  V30 2958 H 279.229 0.506163 6.45017 0
M  V30 2959 N 279.361 -1.56624 0.175154 0
M  V30 2960 C 280.772 -1.83561 -0.340916 0
M  V30 2961 C 281.123 -1.09511 -1.62794 0
M  V30 2962 O 280.248 -0.349389 -2.13561 0
M  V30 2963 C 280.843 -3.32979 -0.625313 0
M  V30 2964 C 279.402 -3.60399 -1.08581 0
M  V30 2965 C 278.549 -2.77024 -0.123722 0
M  V30 2966 H 281.5 -1.53593 0.399344 0
M  V30 2967 H 281.521 -3.50666 -1.47694 0
M  V30 2968 H 281.033 -3.86847 0.311575 0
M  V30 2969 H 279.134 -3.11945 -2.03767 0
M  V30 2970 H 279.247 -4.68711 -0.992317 0
M  V30 2971 H 277.611 -2.46993 -0.621821 0
M  V30 2972 H 278.394 -3.33674 0.807256 0
M  V30 2973 N 280.839 0.0985539 -1.57292 0
M  V30 2974 C 282.067 0.816318 -1.90115 0
M  V30 2975 C 282.482 1.72451 -0.768509 0
M  V30 2976 O 281.839 1.80643 0.259687 0
M  V30 2977 C 281.89 1.63259 -3.22535 0
M  V30 2978 O 281.611 0.760934 -4.31441 0
M  V30 2979 C 283.112 2.45372 -3.69199 0
M  V30 2980 H 280.332 0.233595 -0.629027 0
M  V30 2981 H 282.876 0.0768229 -2.04356 0
M  V30 2982 H 281.031 2.32463 -3.09903 0
M  V30 2983 H 281.445 1.32595 -5.07463 0
M  V30 2984 H 282.919 2.98144 -4.64558 0
M  V30 2985 H 283.396 3.23677 -2.96867 0
M  V30 2986 H 284.002 1.81373 -3.84687 0
M  V30 2987 N 282.317 1.53212 0.369288 0
M  V30 2988 C 283.247 1.82365 1.45826 0
M  V30 2989 C 284.228 0.676907 1.56051 0
M  V30 2990 O 285.413 0.926401 1.70679 0
M  V30 2991 C 282.543 2.01023 2.83208 0
M  V30 2992 C 281.497 3.1678 2.8781 0
M  V30 2993 C 280.823 3.20724 4.27832 0
M  V30 2994 C 282.123 4.55447 2.55667 0
M  V30 2995 H 283.817 2.73559 1.21678 0
M  V30 2996 H 281.363 1.3163 0.583911 0
M  V30 2997 H 283.316 2.20001 3.59413 0
M  V30 2998 H 282.04 1.06536 3.08736 0
M  V30 2999 H 280.699 2.97616 2.14056 0
M  V30 3000 H 280.347 2.23882 4.50429 0
M  V30 3001 H 280.047 3.98496 4.31827 0
M  V30 3002 H 281.571 3.41881 5.05915 0
M  V30 3003 H 282.985 4.74611 3.21586 0
M  V30 3004 H 281.382 5.35432 2.70984 0
M  V30 3005 H 282.452 4.60812 1.5093 0
M  V30 3006 N 283.795 -0.628877 1.44509 0
M  V30 3007 C 285.043 -1.38565 1.4712 0
M  V30 3008 C 285.364 -1.94712 0.105899 0
M  V30 3009 O 284.634 -1.75912 -0.862079 0
M  V30 3010 H 283.214 -0.514333 0.541729 0
M  V30 3011 H 285.876 -0.740018 1.80305 0
M  V30 3012 H 284.972 -2.21583 2.19789 0
M  V30 3013 N 285.273 -1.31445 -0.869486 0
M  V30 3014 C 286.22 -1.19135 -1.97675 0
M  V30 3015 C 287.19 -0.0770266 -1.65921 0
M  V30 3016 O 288.375 -0.249972 -1.89155 0
M  V30 3017 C 285.515 -0.905149 -3.33018 0
M  V30 3018 C 284.628 -2.10285 -3.77365 0
M  V30 3019 C 283.763 -1.75339 -5.01427 0
M  V30 3020 C 282.802 -2.91515 -5.38224 0
M  V30 3021 N 281.939 -2.56762 -6.53466 0
M  V30 3022 H 286.779 -2.13853 -2.07535 0
M  V30 3023 H 284.316 -1.06379 -1.01597 0
M  V30 3024 H 286.274 -0.719765 -4.10944 0
M  V30 3025 H 284.904 0.00519624 -3.228 0
M  V30 3026 H 283.956 -2.39899 -2.95216 0
M  V30 3027 H 285.268 -2.97237 -4.00564 0
M  V30 3028 H 284.422 -1.53266 -5.87022 0
M  V30 3029 H 283.161 -0.855801 -4.80133 0
M  V30 3030 H 282.166 -3.14237 -4.51149 0
M  V30 3031 H 283.391 -3.81985 -5.61484 0
M  V30 3032 H 281.337 -1.69526 -6.33717 0
M  V30 3033 H 281.254 -3.37243 -6.76612 0
M  V30 3034 H 282.522 -2.38083 -7.42251 0
M  V30 3035 N 286.751 1.08385 -1.14413 0
M  V30 3036 C 287.699 2.17406 -0.826888 0
M  V30 3037 C 288.693 1.6827 0.195312 0
M  V30 3038 O 289.899 1.79927 0.0513892 0
M  V30 3039 H 286.274 0.70934 -0.249681 0
M  V30 3040 H 288.245 2.41388 -1.75426 0
M  V30 3041 C 286.994 3.46215 -0.320979 0
M  V30 3042 H 286.317 3.84401 -1.0989 0
M  V30 3043 H 287.757 4.23777 -0.137549 0
M  V30 3044 C 286.216 3.23067 0.955472 0
M  V30 3045 O 286.746 3.4668 2.02918 0
M  V30 3046 N 284.952 2.7661 0.890798 0
M  V30 3047 H 284.499 2.57594 0.0168815 0
M  V30 3048 H 284.457 2.61501 1.74542 0
M  V30 3049 N 288.23 0.939286 1.26551 0
M  V30 3050 C 289.476 0.586715 1.94128 0
M  V30 3051 C 289.809 -0.8717 1.73537 0
M  V30 3052 O 289.084 -1.62339 1.07127 0
M  V30 3053 C 289.367 0.927497 3.4795 0
M  V30 3054 C 289.22 2.44052 3.77834 0
M  V30 3055 C 290.539 0.441569 4.37879 0
M  V30 3056 H 287.658 0.21463 0.705055 0
M  V30 3057 H 290.3 1.17316 1.49455 0
M  V30 3058 H 288.45 0.428431 3.8613 0
M  V30 3059 H 290.122 3.01216 3.4938 0
M  V30 3060 H 288.365 2.8848 3.23978 0
M  V30 3061 H 289.036 2.62947 4.85348 0
M  V30 3062 H 291.512 0.869448 4.06915 0
M  V30 3063 H 290.388 0.708856 5.44304 0
M  V30 3064 H 290.649 -0.658467 4.37169 0
M  V30 3065 N 289.708 -1.40897 0.706093 0
M  V30 3066 C 290.954 -2.01352 0.241889 0
M  V30 3067 C 291.287 -1.55832 -1.15888 0
M  V30 3068 O 290.562 -0.774145 -1.7843 0
M  V30 3069 C 290.845 -3.58752 0.311311 0
M  V30 3070 C 290.698 -4.1437 1.74978 0
M  V30 3071 C 292.017 -4.38914 -0.322922 0
M  V30 3072 H 289.136 -0.731562 0.0893687 0
M  V30 3073 H 291.778 -1.67504 0.896802 0
M  V30 3074 H 289.928 -3.87718 -0.246302 0
M  V30 3075 H 291.6 -3.96239 2.36205 0
M  V30 3076 H 289.843 -3.69016 2.28057 0
M  V30 3077 H 290.514 -5.23532 1.74981 0
M  V30 3078 H 292.99 -4.15822 0.152089 0
M  V30 3079 H 291.866 -5.48358 -0.243855 0
M  V30 3080 H 292.127 -4.19176 -1.40513 0
M  V30 3081 N 291.186 -0.45159 -1.50991 0
M  V30 3082 C 292.432 0.110237 -2.025 0
M  V30 3083 C 292.765 1.41109 -1.33424 0
M  V30 3084 O 292.04 1.89135 -0.453659 0
M  V30 3085 C 292.323 0.314271 -3.58726 0
M  V30 3086 C 292.176 -1.00623 -4.38401 0
M  V30 3087 C 293.495 1.07767 -4.26702 0
M  V30 3088 H 290.614 0.0385897 -0.735989 0
M  V30 3089 H 293.256 -0.593374 -1.80497 0
M  V30 3090 H 291.406 0.913601 -3.77605 0
M  V30 3091 H 293.078 -1.64064 -4.31139 0
M  V30 3092 H 291.321 -1.6075 -4.02917 0
M  V30 3093 H 291.992 -0.817341 -5.45915 0
M  V30 3094 H 294.468 0.56986 -4.12179 0
M  V30 3095 H 293.344 1.18921 -5.35863 0
M  V30 3096 H 293.605 2.10939 -3.88532 0
M  V30 3097 N 292.664 1.56529 -0.183458 0
M  V30 3098 C 293.627 2.17324 0.728223 0
M  V30 3099 C 294.627 1.12453 1.14939 0
M  V30 3100 O 295.817 1.37902 1.06437 0
M  V30 3101 C 292.949 2.76591 1.99274 0
M  V30 3102 H 294.142 2.99241 0.198772 0
M  V30 3103 H 291.695 1.5616 0.0661391 0
M  V30 3104 H 292.43 1.98441 2.56499 0
M  V30 3105 H 292.215 3.5335 1.69959 0
M  V30 3106 H 293.705 3.23311 2.6431 0
M  V30 3107 N 294.142 -0.090211 1.57342 0
M  V30 3108 C 295.39 -0.791241 1.85967 0
M  V30 3109 C 295.711 -1.7903 0.772859 0
M  V30 3110 O 294.981 -1.94872 -0.200398 0
M  V30 3111 H 293.561 -0.295205 0.686195 0
M  V30 3112 H 296.223 -0.0706782 1.94772 0
M  V30 3113 H 295.319 -1.31882 2.82867 0
M  V30 3114 N 295.62 -1.53406 -0.361157 0
M  V30 3115 C 297.036 -1.43277 -0.703124 0
M  V30 3116 C 297.236 -0.575384 -1.9311 0
M  V30 3117 O 296.292 -0.0595362 -2.5243 0
M  V30 3118 C 297.605 -2.8653 -0.9122 0
M  V30 3119 C 299.153 -2.96191 -1.01193 0
M  V30 3120 C 299.628 -4.40514 -1.25345 0
M  V30 3121 N 301.119 -4.43962 -1.32105 0
M  V30 3122 C 301.854 -5.52746 -1.5251 0
M  V30 3123 N 301.35 -6.71567 -1.70203 0
M  V30 3124 N 303.143 -5.40331 -1.54916 0
M  V30 3125 H 295.294 -2.07654 0.446475 0
M  V30 3126 H 297.557 -0.937944 0.137715 0
M  V30 3127 H 297.263 -3.51605 -0.0816414 0
M  V30 3128 H 297.137 -3.30441 -1.81903 0
M  V30 3129 H 299.524 -2.31266 -1.83303 0
M  V30 3130 H 299.605 -2.55667 -0.0823929 0
M  V30 3131 H 299.249 -5.06014 -0.437346 0
M  V30 3132 H 299.179 -4.78614 -2.19627 0
M  V30 3133 H 301.67 -3.58332 -1.20028 0
M  V30 3134 H 301.983 -7.50241 -1.85359 0
M  V30 3135 H 300.328 -6.74545 -1.67373 0
M  V30 3136 H 303.519 -4.46465 -1.40663 0
M  V30 3137 H 303.692 -6.25173 -1.70477 0
M  V30 3138 N 297.098 0.621204 -1.44841 0
M  V30 3139 C 298.323 1.41244 -1.51871 0
M  V30 3140 C 298.748 1.87519 -0.147764 0
M  V30 3141 O 298.106 1.59334 0.865 0
M  V30 3142 C 298.154 2.60221 -2.49634 0
M  V30 3143 O 297.258 3.60395 -2.00473 0
M  V30 3144 H 296.599 0.42223 -0.512463 0
M  V30 3145 H 299.129 0.757305 -1.90069 0
M  V30 3146 H 299.139 3.0764 -2.67996 0
M  V30 3147 H 297.814 2.25887 -3.4921 0
M  V30 3148 H 296.391 3.19717 -1.91925 0
M  V30 3149 N 298.576 1.31904 0.862503 0
M  V30 3150 C 299.523 1.20182 1.9704 0
M  V30 3151 C 300.493 0.0858247 1.65878 0
M  V30 3152 O 301.678 0.26 1.8902 0
M  V30 3153 C 298.818 0.922797 3.32533 0
M  V30 3154 C 297.931 2.12284 3.76244 0
M  V30 3155 C 297.066 1.77996 5.00491 0
M  V30 3156 C 296.105 2.94366 5.36671 0
M  V30 3157 N 295.242 2.60223 6.52095 0
M  V30 3158 H 300.082 2.14951 2.06398 0
M  V30 3159 H 297.619 1.06917 1.01031 0
M  V30 3160 H 299.577 0.741548 4.10557 0
M  V30 3161 H 298.207 0.0119227 3.22798 0
M  V30 3162 H 297.259 2.41461 2.9394 0
M  V30 3163 H 298.571 2.99357 3.98982 0
M  V30 3164 H 297.725 1.56377 5.862 0
M  V30 3165 H 296.464 0.881252 4.79672 0
M  V30 3166 H 295.469 3.16625 4.49476 0
M  V30 3167 H 296.694 3.84957 5.59451 0
M  V30 3168 H 294.64 1.72884 6.32809 0
M  V30 3169 H 294.557 3.40827 6.74814 0
M  V30 3170 H 295.825 2.42016 7.40978 0
M  V30 3171 N 300.054 -1.07777 1.14986 0
M  V30 3172 C 301.002 -2.16964 0.838406 0
M  V30 3173 C 301.996 -1.68372 -0.186386 0
M  V30 3174 O 303.202 -1.79951 -0.0418465 0
M  V30 3175 H 299.577 -0.708006 0.253439 0
M  V30 3176 H 301.548 -2.40454 1.76704 0
M  V30 3177 C 300.297 -3.4604 0.339335 0
M  V30 3178 H 299.62 -3.83813 1.11927 0
M  V30 3179 H 301.06 -4.23698 0.160021 0
M  V30 3180 C 299.519 -3.23569 -0.938325 0
M  V30 3181 O 300.049 -3.47752 -2.01077 0
M  V30 3182 N 298.255 -2.77079 -0.876117 0
M  V30 3183 H 297.802 -2.576 -0.00322037 0
M  V30 3184 H 297.76 -2.62422 -1.73153 0
M  V30 3185 N 301.532 -0.945985 -1.26051 0
M  V30 3186 C 302.778 -0.597002 -1.93814 0
M  V30 3187 C 303.111 0.862484 -1.73997 0
M  V30 3188 O 302.386 1.61769 -1.07986 0
M  V30 3189 C 302.669 -0.945937 -3.47454 0
M  V30 3190 C 302.522 -2.46052 -3.76535 0
M  V30 3191 C 303.841 -0.464785 -4.37639 0
M  V30 3192 H 300.96 -0.218366 -0.703907 0
M  V30 3193 H 303.602 -1.18107 -1.48831 0
M  V30 3194 H 301.752 -0.448902 -3.85898 0
M  V30 3195 H 303.424 -3.03065 -3.47778 0
M  V30 3196 H 301.667 -2.90194 -3.22444 0
M  V30 3197 H 302.338 -2.65517 -4.83947 0
M  V30 3198 H 304.814 -0.891016 -4.06448 0
M  V30 3199 H 303.69 -0.737712 -5.4392 0
M  V30 3200 H 303.951 0.635274 -4.37512 0
M  V30 3201 N 303.011 1.40521 -0.713556 0
M  V30 3202 C 304.259 2.00527 -0.251692 0
M  V30 3203 C 304.58 1.56857 1.15848 0
M  V30 3204 O 303.85 0.807127 1.785 0
M  V30 3205 H 302.43 0.741551 -0.0900646 0
M  V30 3206 H 305.092 1.71887 -0.918733 0
M  V30 3207 H 304.188 3.10813 -0.283192 0
M  V30 3208 N 304.489 0.459591 1.5075 0
M  V30 3209 C 305.422 -0.386257 2.24907 0
M  V30 3210 C 306.4 -1.006 1.27744 0
M  V30 3211 O 307.584 -1.04416 1.56938 0
M  V30 3212 C 304.711 -1.54021 3.01654 0
M  V30 3213 C 303.757 -1.03898 4.13651 0
M  V30 3214 S 304.59 0.0370501 5.35487 0
M  V30 3215 C 305.746 -1.12105 6.15779 0
M  V30 3216 H 305.979 0.243272 2.96303 0
M  V30 3217 H 303.512 0.244339 1.52454 0
M  V30 3218 H 305.47 -2.20163 3.46466 0
M  V30 3219 H 304.131 -2.14121 2.29806 0
M  V30 3220 H 303.324 -1.90254 4.66711 0
M  V30 3221 H 302.926 -0.45545 3.71216 0
M  V30 3222 H 305.218 -2.03501 6.46215 0
M  V30 3223 H 306.161 -0.62995 7.05292 0
M  V30 3224 H 306.569 -1.36967 5.47631 0
M  V30 3225 N 305.967 -1.56429 0.191757 0
M  V30 3226 C 307.378 -1.83912 -0.321428 0
M  V30 3227 C 307.729 -1.11231 -1.61623 0
M  V30 3228 O 306.854 -0.37202 -2.13178 0
M  V30 3229 C 307.449 -3.33624 -0.589961 0
M  V30 3230 C 306.008 -3.6153 -1.04753 0
M  V30 3231 C 305.155 -2.7714 -0.0943327 0
M  V30 3232 H 308.106 -1.53161 0.415612 0
M  V30 3233 H 308.127 -3.52213 -1.43966 0
M  V30 3234 H 307.639 -3.86495 0.352588 0
M  V30 3235 H 305.74 -3.14089 -2.00447 0
M  V30 3236 H 305.853 -4.69737 -0.942549 0
M  V30 3237 H 304.217 -2.47638 -0.595589 0
M  V30 3238 H 305 -3.32799 0.842601 0
M  V30 3239 N 307.445 0.0818655 -1.57387 0
M  V30 3240 C 308.694 0.781681 -1.85937 0
M  V30 3241 C 309.007 1.79246 -0.782957 0
M  V30 3242 O 310.213 2.54112 -0.955987 0
M  V30 3243 C 308.669 1.44109 -3.29789 0
M  V30 3244 C 308.277 0.469396 -4.45534 0
M  V30 3245 C 310.021 2.12386 -3.67549 0
M  V30 3246 C 307.928 1.13415 -5.80423 0
M  V30 3247 H 306.858 0.295682 -0.693605 0
M  V30 3248 H 309.509 0.0348051 -1.83467 0
M  V30 3249 H 307.891 2.23588 -3.2684 0
M  V30 3250 H 309.065 -0.294856 -4.59856 0
M  V30 3251 H 307.38 -0.108383 -4.16259 0
M  V30 3252 H 309.977 2.62878 -4.65617 0
M  V30 3253 H 310.32 2.91877 -2.96839 0
M  V30 3254 H 310.853 1.39751 -3.72444 0
M  V30 3255 H 307.592 0.379771 -6.54399 0
M  V30 3256 H 307.112 1.8695 -5.69921 0
M  V30 3257 H 308.791 1.65686 -6.25426 0
M  V30 3258 N 308.923 1.53595 0.353017 0
M  V30 3259 C 309.886 1.80232 1.41594 0
M  V30 3260 C 310.886 0.673081 1.46035 0
M  V30 3261 O 312.076 0.941335 1.46576 0
M  V30 3262 C 309.208 1.93578 2.80607 0
M  V30 3263 H 310.401 2.75174 1.19244 0
M  V30 3264 H 307.954 1.44864 0.586872 0
M  V30 3265 H 308.689 1.00746 3.08254 0
M  V30 3266 H 308.474 2.75724 2.78781 0
M  V30 3267 H 309.964 2.15735 3.57558 0
M  V30 3268 N 310.401 -0.613514 1.45168 0
M  V30 3269 C 311.334 -1.73809 1.47871 0
M  V30 3270 C 312.312 -1.59097 0.33568 0
M  V30 3271 O 313.496 -1.8074 0.535299 0
M  V30 3272 C 310.623 -3.11574 1.32813 0
M  V30 3273 C 309.669 -3.4489 2.50905 0
M  V30 3274 S 310.502 -3.40393 4.13392 0
M  V30 3275 C 311.658 -4.80749 4.00789 0
M  V30 3276 H 311.891 -1.71252 2.43023 0
M  V30 3277 H 309.424 -0.789658 1.32679 0
M  V30 3278 H 311.382 -3.91065 1.24812 0
M  V30 3279 H 310.043 -3.11652 0.391418 0
M  V30 3280 H 309.236 -4.45183 2.36279 0
M  V30 3281 H 308.838 -2.72901 2.55736 0
M  V30 3282 H 311.13 -5.7041 3.65567 0
M  V30 3283 H 312.073 -5.00431 5.00974 0
M  V30 3284 H 312.481 -4.56151 3.32545 0
M  V30 3285 N 311.879 -1.3236 -0.855495 0
M  V30 3286 C 312.809 -1.23833 -1.97958 0
M  V30 3287 C 313.79 -0.122361 -1.69659 0
M  V30 3288 O 314.975 -0.30939 -1.9172 0
M  V30 3289 C 312.105 -0.959772 -3.33775 0
M  V30 3290 C 311.059 -2.03689 -3.76424 0
M  V30 3291 C 310.385 -1.61075 -5.09862 0
M  V30 3292 C 311.685 -3.4518 -3.9198 0
M  V30 3293 H 313.379 -2.1788 -2.0535 0
M  V30 3294 H 310.925 -1.04891 -0.986605 0
M  V30 3295 H 312.878 -0.886678 -4.11966 0
M  V30 3296 H 311.602 0.0163404 -3.26596 0
M  V30 3297 H 310.261 -2.10012 -3.00484 0
M  V30 3298 H 309.909 -0.622107 -4.99138 0
M  V30 3299 H 309.609 -2.33143 -5.39368 0
M  V30 3300 H 311.133 -1.55201 -5.90546 0
M  V30 3301 H 312.547 -3.4145 -4.60526 0
M  V30 3302 H 310.944 -4.1559 -4.32903 0
M  V30 3303 H 312.014 -3.84903 -2.94919 0
M  V30 3304 N 313.357 1.07166 -1.15556 0
M  V30 3305 C 314.287 2.16403 -0.877046 0
M  V30 3306 C 315.268 1.69217 0.173111 0
M  V30 3307 O 316.453 1.94181 0.027084 0
M  V30 3308 C 313.583 3.45349 -0.367632 0
M  V30 3309 C 312.537 4.05995 -1.35468 0
M  V30 3310 C 311.863 5.30045 -0.704038 0
M  V30 3311 C 313.163 4.45804 -2.72132 0
M  V30 3312 H 314.857 2.39959 -1.79053 0
M  V30 3313 H 312.403 1.15325 -0.862331 0
M  V30 3314 H 314.356 4.21095 -0.160317 0
M  V30 3315 H 313.08 3.21385 0.581326 0
M  V30 3316 H 311.739 3.32296 -1.54839 0
M  V30 3317 H 311.387 5.02373 0.251128 0
M  V30 3318 H 311.087 5.71579 -1.36277 0
M  V30 3319 H 312.611 6.08495 -0.50654 0
M  V30 3320 H 314.025 5.12671 -2.56595 0
M  V30 3321 H 312.422 4.98296 -3.34397 0
M  V30 3322 H 313.492 3.57083 -3.28054 0
M  V30 3323 N 314.835 0.952656 1.25548 0
M  V30 3324 C 315.785 0.442033 2.23674 0
M  V30 3325 C 316.769 -0.467632 1.53955 0
M  V30 3326 O 317.961 -0.301006 1.74422 0
M  V30 3327 C 315.09 -0.280816 3.4215 0
M  V30 3328 C 314.176 0.646803 4.19139 0
M  V30 3329 N 314.567 1.77759 4.73535 0
M  V30 3330 C 312.865 0.454617 4.43677 0
M  V30 3331 C 313.566 2.35658 5.31827 0
M  V30 3332 N 312.542 1.64333 5.18166 0
M  V30 3333 H 316.344 1.30505 2.63336 0
M  V30 3334 H 313.858 0.809904 1.40763 0
M  V30 3335 H 315.855 -0.663747 4.11582 0
M  V30 3336 H 314.515 -1.14046 3.04012 0
M  V30 3337 H 315.526 2.15949 4.7073 0
M  V30 3338 H 312.203 -0.362312 4.15925 0
M  V30 3339 H 313.593 3.30998 5.84713 0
M  V30 3340 N 316.313 -1.40141 0.720998 0
M  V30 3341 C 317.541 -2.05096 0.272656 0
M  V30 3342 C 317.956 -1.54334 -1.0875 0
M  V30 3343 O 317.313 -0.702211 -1.6845 0
M  V30 3344 C 317.364 -3.60636 0.249835 0
M  V30 3345 O 317.085 -4.09526 1.55629 0
M  V30 3346 C 318.586 -4.42772 -0.216396 0
M  V30 3347 H 315.806 -0.659897 0.121558 0
M  V30 3348 H 318.35 -1.79449 0.980723 0
M  V30 3349 H 316.505 -3.85232 -0.409237 0
M  V30 3350 H 316.919 -5.03758 1.4604 0
M  V30 3351 H 318.393 -5.51702 -0.181212 0
M  V30 3352 H 318.87 -4.20756 -1.25941 0
M  V30 3353 H 319.476 -4.23294 0.412596 0
M  V30 3354 N 317.792 -0.46758 -1.50504 0
M  V30 3355 C 319.069 0.15003 -1.95024 0
M  V30 3356 C 319.449 1.57304 -1.40779 0
M  V30 3357 O 318.797 2.20281 -0.607319 0
M  V30 3358 C 319.007 0.0969324 -3.48865 0
M  V30 3359 C 320.355 0.287565 -4.23625 0
M  V30 3360 O 321.379 0.173678 -3.55776 0
M  V30 3361 O 320.238 0.517186 -5.44047 0
M  V30 3362 H 317.332 0.113582 -0.819163 0
M  V30 3363 H 319.878 -0.52773 -1.61286 0
M  V30 3364 H 318.65 -0.896732 -3.80886 0
M  V30 3365 H 318.273 0.816303 -3.8913 0
M  V30 3366 N 319.27 1.56325 -0.20005 0
M  V30 3367 C 320.518 1.97329 0.436547 0
M  V30 3368 C 320.839 1.08826 1.61808 0
M  V30 3369 O 320.109 0.160604 1.95241 0
M  V30 3370 H 318.689 0.728714 0.164272 0
M  V30 3371 H 321.351 1.92761 -0.287937 0
M  V30 3372 H 320.447 3.02264 0.777353 0
M  V30 3373 N 320.748 -0.0735177 1.57428 0
M  V30 3374 C 321.711 -1.07192 2.02589 0
M  V30 3375 C 322.711 -1.31695 0.922661 0
M  V30 3376 O 323.901 -1.27445 1.18758 0
M  V30 3377 C 321.033 -2.41599 2.40506 0
M  V30 3378 H 322.226 -0.682727 2.92025 0
M  V30 3379 H 319.779 -0.319193 1.53006 0
M  V30 3380 H 320.514 -2.85354 1.5409 0
M  V30 3381 H 320.299 -2.25156 3.21009 0
M  V30 3382 H 321.789 -3.13367 2.76027 0
M  V30 3383 N 322.226 -1.5378 -0.344866 0
M  V30 3384 C 323.176 -1.78057 -1.42407 0
M  V30 3385 C 324.16 -0.635732 -1.47808 0
M  V30 3386 O 325.352 -0.89508 -1.527 0
M  V30 3387 C 322.481 -1.99242 -2.79566 0
M  V30 3388 C 321.567 -3.19787 -2.78562 0
M  V30 3389 N 321.958 -4.41284 -2.47189 0
M  V30 3390 C 320.256 -3.2093 -3.0971 0
M  V30 3391 C 320.957 -5.23128 -2.54385 0
M  V30 3392 N 319.933 -4.59813 -2.89953 0
M  V30 3393 H 323.735 -2.69588 -1.17046 0
M  V30 3394 H 321.249 -1.52687 -0.553217 0
M  V30 3395 H 323.246 -2.14768 -3.57324 0
M  V30 3396 H 321.906 -1.08953 -3.05875 0
M  V30 3397 H 322.917 -4.68657 -2.20411 0
M  V30 3398 H 319.594 -2.40603 -3.41199 0
M  V30 3399 H 320.984 -6.30096 -2.333 0
M  V30 3400 N 323.704 0.605807 -1.45491 0
M  V30 3401 C 324.614 1.74466 -1.56839 0
M  V30 3402 C 325.63 1.68006 -0.452772 0
M  V30 3403 O 326.806 1.8833 -0.713708 0
M  V30 3404 C 323.871 3.10931 -1.53371 0
M  V30 3405 C 322.932 3.28832 -2.75986 0
M  V30 3406 C 322.165 4.58787 -2.72673 0
M  V30 3407 O 322.388 5.4122 -1.80102 0
M  V30 3408 O 321.322 4.79438 -3.63899 0
M  V30 3409 H 325.148 1.67843 -2.53106 0
M  V30 3410 H 322.733 0.770108 -1.28022 0
M  V30 3411 H 324.615 3.92233 -1.54051 0
M  V30 3412 H 323.29 3.18042 -0.602572 0
M  V30 3413 H 322.197 2.47112 -2.80867 0
M  V30 3414 H 323.53 3.26599 -3.68231 0
M  V30 3415 N 325.182 1.32811 0.848464 0
M  V30 3416 C 326.598 1.11937 1.13764 0
M  V30 3417 C 326.798 -0.0960789 2.01271 0
M  V30 3418 O 325.854 -0.779165 2.40178 0
M  V30 3419 C 327.167 2.402 1.809 0
M  V30 3420 C 328.715 2.46016 1.93508 0
M  V30 3421 C 329.19 3.74215 2.64059 0
M  V30 3422 N 330.681 3.75232 2.71579 0
M  V30 3423 C 331.416 4.71134 3.26833 0
M  V30 3424 N 330.912 5.77406 3.8285 0
M  V30 3425 N 332.705 4.58623 3.24995 0
M  V30 3426 H 324.856 2.1073 0.265855 0
M  V30 3427 H 327.119 0.930671 0.180431 0
M  V30 3428 H 326.825 3.29093 1.24058 0
M  V30 3429 H 326.699 2.51628 2.81004 0
M  V30 3430 H 329.086 1.57577 2.49506 0
M  V30 3431 H 329.167 2.38536 0.923811 0
M  V30 3432 H 328.811 4.63031 2.08722 0
M  V30 3433 H 328.741 3.78968 3.65637 0
M  V30 3434 H 331.232 2.98423 2.31845 0
M  V30 3435 H 331.545 6.46632 4.23187 0
M  V30 3436 H 329.89 5.81152 3.81165 0
M  V30 3437 H 333.081 3.74762 2.80484 0
M  V30 3438 H 333.254 5.33535 3.67756 0
M  V30 3439 N 326.66 -1.06551 1.16123 0
M  V30 3440 C 328.071 -1.60768 0.949232 0
M  V30 3441 C 328.422 -1.89523 -0.507508 0
M  V30 3442 O 327.547 -1.66671 -1.38021 0
M  V30 3443 C 328.142 -2.92086 1.71671 0
M  V30 3444 C 326.701 -3.43015 1.54977 0
M  V30 3445 C 325.848 -2.16947 1.72711 0
M  V30 3446 H 328.799 -0.895354 1.31031 0
M  V30 3447 H 328.82 -3.6138 1.19099 0
M  V30 3448 H 328.332 -2.71127 2.7769 0
M  V30 3449 H 326.433 -3.69039 0.513873 0
M  V30 3450 H 326.546 -4.18516 2.33198 0
M  V30 3451 H 324.91 -2.27041 1.15431 0
M  V30 3452 H 325.693 -1.98473 2.80113 0
M  V30 3453 N 328.138 -0.959301 -1.25041 0
M  V30 3454 C 329.386 -0.615393 -1.92503 0
M  V30 3455 C 329.707 0.850969 -1.75452 0
M  V30 3456 O 328.977 1.60658 -1.12098 0
M  V30 3457 H 327.557 -0.224613 -0.712431 0
M  V30 3458 H 330.219 -1.21855 -1.5211 0
M  V30 3459 H 329.315 -0.848738 -3.00338 0
M  V30 3460 N 329.616 1.39756 -0.72842 0
M  V30 3461 C 330.864 2.00248 -0.272946 0
M  V30 3462 C 331.185 1.58077 1.14178 0
M  V30 3463 O 330.455 0.826014 1.77634 0
M  V30 3464 H 329.035 0.740554 -0.0979247 0
M  V30 3465 H 331.697 1.70903 -0.936912 0
M  V30 3466 H 330.793 3.10495 -0.316142 0
M  V30 3467 N 331.094 0.475555 1.50254 0
M  V30 3468 C 332.371 -0.139685 1.95101 0
M  V30 3469 C 332.751 -1.56555 1.41611 0
M  V30 3470 O 332.099 -2.19956 0.618993 0
M  V30 3471 C 332.309 -0.0784298 3.48912 0
M  V30 3472 C 333.657 -0.265095 4.23772 0
M  V30 3473 O 334.681 -0.154808 3.55863 0
M  V30 3474 O 333.54 -0.488327 5.44314 0
M  V30 3475 H 330.634 -0.109236 0.819754 0
M  V30 3476 H 333.18 0.536276 1.61004 0
M  V30 3477 H 331.952 0.916918 3.80405 0
M  V30 3478 H 331.575 -0.795655 3.89558 0
M  V30 3479 N 332.573 -1.56217 0.208337 0
M  V30 3480 C 333.536 -2.18455 -0.693557 0
M  V30 3481 C 334.536 -1.14268 -1.13135 0
M  V30 3482 O 335.726 -1.39577 -1.0423 0
M  V30 3483 C 332.858 -2.79727 -1.94848 0
M  V30 3484 H 334.051 -2.99519 -0.15114 0
M  V30 3485 H 331.604 -1.56245 -0.041287 0
M  V30 3486 H 332.339 -2.02497 -2.53309 0
M  V30 3487 H 332.124 -3.56009 -1.64316 0
M  V30 3488 H 333.614 -3.27475 -2.59133 0
M  V30 3489 N 334.051 0.0651679 -1.57465 0
M  V30 3490 C 335.279 0.775808 -1.91804 0
M  V30 3491 C 335.694 1.70782 -0.804916 0
M  V30 3492 O 335.051 1.81153 0.221311 0
M  V30 3493 C 335.102 1.56381 -3.25925 0
M  V30 3494 O 334.823 0.669248 -4.32958 0
M  V30 3495 C 336.324 2.37485 -3.7432 0
M  V30 3496 H 333.544 0.2202 -0.63384 0
M  V30 3497 H 336.088 0.0334587 -2.04473 0
M  V30 3498 H 334.243 2.25837 -3.14764 0
M  V30 3499 H 334.657 1.21801 -5.10162 0
M  V30 3500 H 336.131 2.88223 -4.70778 0
M  V30 3501 H 336.608 3.17307 -3.03666 0
M  V30 3502 H 337.214 1.73173 -3.88447 0
M  V30 3503 N 335.529 1.53961 0.336706 0
M  V30 3504 C 336.775 1.7179 1.07777 0
M  V30 3505 C 337.108 0.483263 1.88091 0
M  V30 3506 O 336.383 -0.519747 1.87427 0
M  V30 3507 C 336.666 2.98558 2.01334 0
M  V30 3508 C 336.519 4.32245 1.24437 0
M  V30 3509 C 337.838 3.21023 3.01052 0
M  V30 3510 H 334.957 0.625089 0.390426 0
M  V30 3511 H 337.599 1.86641 0.35567 0
M  V30 3512 H 335.749 2.86028 2.62908 0
M  V30 3513 H 337.421 4.56637 0.654243 0
M  V30 3514 H 335.664 4.30344 0.546458 0
M  V30 3515 H 336.335 5.17137 1.93063 0
M  V30 3516 H 338.811 3.32929 2.49595 0
M  V30 3517 H 337.687 4.11104 3.6371 0
M  V30 3518 H 337.948 2.37637 3.72802 0
M  V30 3519 N 337.007 -0.598083 1.45811 0
M  V30 3520 C 338.235 -1.38322 1.53866 0
M  V30 3521 C 338.65 -1.87992 0.174479 0
M  V30 3522 O 338.007 -1.62756 -0.825627 0
M  V30 3523 C 338.058 -2.58125 2.53089 0
M  V30 3524 O 337.779 -2.10516 3.84206 0
M  V30 3525 C 339.28 -3.50869 2.70935 0
M  V30 3526 H 336.5 -0.423093 0.520801 0
M  V30 3527 H 339.044 -0.728527 1.91083 0
M  V30 3528 H 337.199 -3.19615 2.18917 0
M  V30 3529 H 337.613 -2.88425 4.38077 0
M  V30 3530 H 339.087 -4.31451 3.44317 0
M  V30 3531 H 339.564 -4.01822 1.77301 0
M  V30 3532 H 340.17 -2.95225 3.06141 0
M  V30 3533 N 338.485 -1.33259 -0.841409 0
M  V30 3534 C 339.734 -1.23921 -1.59143 0
M  V30 3535 C 340.047 0.1941 -1.94635 0
M  V30 3536 O 341.253 0.409474 -2.68394 0
M  V30 3537 C 339.709 -2.17119 -2.87032 0
M  V30 3538 C 339.317 -3.65606 -2.58914 0
M  V30 3539 C 341.061 -2.16648 -3.65053 0
M  V30 3540 C 338.968 -4.50726 -3.82884 0
M  V30 3541 H 337.898 -0.460264 -0.597221 0
M  V30 3542 H 340.549 -1.58307 -0.927959 0
M  V30 3543 H 338.931 -1.75663 -3.54906 0
M  V30 3544 H 340.105 -4.15487 -1.99267 0
M  V30 3545 H 338.42 -3.68341 -1.942 0
M  V30 3546 H 341.017 -2.77474 -4.57069 0
M  V30 3547 H 341.36 -1.16088 -3.99787 0
M  V30 3548 H 341.893 -2.56453 -3.041 0
M  V30 3549 H 338.632 -5.52151 -3.53283 0
M  V30 3550 H 338.152 -4.0559 -4.41879 0
M  V30 3551 H 339.831 -4.64401 -4.50489 0
M  V30 3552 N 339.963 1.05934 -1.16686 0
M  V30 3553 C 341.188 1.83029 -0.975455 0
M  V30 3554 C 341.613 1.82096 0.471452 0
M  V30 3555 O 340.971 1.22443 1.33706 0
M  V30 3556 C 341.019 3.27372 -1.51195 0
M  V30 3557 O 340.123 4.06054 -0.720701 0
M  V30 3558 H 339.464 0.566194 -0.346872 0
M  V30 3559 H 341.994 1.33541 -1.55009 0
M  V30 3560 H 342.004 3.78186 -1.53099 0
M  V30 3561 H 340.679 3.27366 -2.56523 0
M  V30 3562 H 339.256 3.64812 -0.772458 0
M  V30 3563 N 341.441 0.965919 1.2453 0
M  V30 3564 C 342.391 0.465731 2.23193 0
M  V30 3565 C 343.375 -0.451277 1.54442 0
M  V30 3566 O 344.567 -0.282489 1.74731 0
M  V30 3567 C 341.696 -0.244511 3.42428 0
M  V30 3568 C 340.782 0.691222 4.18429 0
M  V30 3569 N 341.173 1.82771 4.71623 0
M  V30 3570 C 339.471 0.501649 4.4317 0
M  V30 3571 C 340.172 2.41285 5.29298 0
M  V30 3572 N 339.148 1.69819 5.16394 0
M  V30 3573 H 342.95 1.33291 2.61937 0
M  V30 3574 H 340.464 0.824789 1.39896 0
M  V30 3575 H 342.461 -0.620056 4.12263 0
M  V30 3576 H 341.121 -1.10815 3.05205 0
M  V30 3577 H 342.132 2.20929 4.68413 0
M  V30 3578 H 338.809 -0.318177 4.16286 0
M  V30 3579 H 340.199 3.37181 5.8117 0
M  V30 3580 N 342.919 -1.39368 0.735821 0
M  V30 3581 C 344.335 -1.54204 0.411492 0
M  V30 3582 C 344.535 -1.70268 -1.07755 0
M  V30 3583 O 343.591 -1.70364 -1.86366 0
M  V30 3584 C 344.904 -2.75925 1.19523 0
M  V30 3585 C 346.452 -2.89761 1.18354 0
M  V30 3586 C 346.927 -4.14421 1.94986 0
M  V30 3587 N 348.418 -4.21462 1.92156 0
M  V30 3588 C 349.153 -5.16871 2.48258 0
M  V30 3589 N 348.649 -6.18063 3.13001 0
M  V30 3590 N 350.442 -5.09093 2.38287 0
M  V30 3591 H 342.593 -1.27189 1.70108 0
M  V30 3592 H 344.856 -0.616517 0.720147 0
M  V30 3593 H 344.562 -2.70401 2.24892 0
M  V30 3594 H 344.436 -3.68614 0.800222 0
M  V30 3595 H 346.823 -2.94777 0.137975 0
M  V30 3596 H 346.904 -1.98133 1.61793 0
M  V30 3597 H 346.548 -4.10166 2.99543 0
M  V30 3598 H 346.478 -5.05095 1.48953 0
M  V30 3599 H 348.969 -3.48979 1.44991 0
M  V30 3600 H 349.282 -6.87326 3.53275 0
M  V30 3601 H 347.627 -6.18448 3.17091 0
M  V30 3602 H 350.818 -4.28973 1.8735 0
M  V30 3603 H 350.991 -5.83272 2.82308 0
M  V30 3604 N 344.397 -0.483516 -1.5 0
M  V30 3605 C 345.627 0.0643896 -2.065 0
M  V30 3606 C 346.035 1.32949 -1.34615 0
M  V30 3607 O 345.378 1.79003 -0.412756 0
M  V30 3608 C 345.44 0.405983 -3.572 0
M  V30 3609 C 345.104 -0.758875 -4.50655 0
M  V30 3610 C 346.101 -1.64445 -4.93208 0
M  V30 3611 C 343.786 -0.952725 -4.93182 0
M  V30 3612 C 345.78 -2.70818 -5.77006 0
M  V30 3613 C 343.467 -2.01966 -5.76761 0
M  V30 3614 C 344.465 -2.89574 -6.18576 0
M  V30 3615 O 344.153 -3.94429 -7.00486 0
M  V30 3616 H 343.885 -0.00934786 -0.675935 0
M  V30 3617 H 346.439 -0.674959 -1.93993 0
M  V30 3618 H 344.669 1.19869 -3.67652 0
M  V30 3619 H 346.358 0.890433 -3.96013 0
M  V30 3620 H 347.124 -1.50643 -4.61012 0
M  V30 3621 H 343.003 -0.280247 -4.60147 0
M  V30 3622 H 346.547 -3.3923 -6.09565 0
M  V30 3623 H 342.444 -2.1577 -6.0837 0
M  V30 3624 H 343.212 -3.91568 -7.1876 0
M  V30 3625 N 345.875 1.56104 -0.216619 0
M  V30 3626 C 347.103 2.02563 0.421413 0
M  V30 3627 C 347.518 1.0965 1.53695 0
M  V30 3628 O 346.875 0.10521 1.82196 0
M  V30 3629 C 346.926 3.48584 0.957665 0
M  V30 3630 O 346.647 4.37953 -0.113389 0
M  V30 3631 C 348.148 4.10664 1.66943 0
M  V30 3632 H 345.368 0.662944 0.103665 0
M  V30 3633 H 347.912 2.01793 -0.331629 0
M  V30 3634 H 346.067 3.49985 1.661 0
M  V30 3635 H 346.481 5.23704 0.288932 0
M  V30 3636 H 347.955 5.14622 1.99671 0
M  V30 3637 H 348.432 3.55373 2.58083 0
M  V30 3638 H 349.038 4.13098 1.01142 0
M  V30 3639 N 347.353 -0.0568162 1.57498 0
M  V30 3640 C 348.764 -0.606858 1.76562 0
M  V30 3641 C 349.115 -1.77114 0.844094 0
M  V30 3642 O 348.24 -2.16376 0.0318911 0
M  V30 3643 C 348.835 -1.10766 3.20182 0
M  V30 3644 C 347.394 -1.60344 3.40539 0
M  V30 3645 C 346.541 -0.529311 2.72201 0
M  V30 3646 H 349.492 0.169393 1.57793 0
M  V30 3647 H 349.513 -1.97602 3.25167 0
M  V30 3648 H 349.025 -0.26006 3.87228 0
M  V30 3649 H 347.126 -2.47379 2.78629 0
M  V30 3650 H 347.239 -1.67006 4.4905 0
M  V30 3651 H 345.603 -0.977893 2.35179 0
M  V30 3652 H 346.386 0.308352 3.41912 0
M  V30 3653 N 348.832 -1.54138 -0.328536 0
M  V30 3654 C 349.779 -1.83176 -1.40411 0
M  V30 3655 C 350.749 -0.678494 -1.5161 0
M  V30 3656 O 351.934 -0.92443 -1.6691 0
M  V30 3657 C 349.074 -2.06035 -2.76846 0
M  V30 3658 C 348.187 -3.33727 -2.74318 0
M  V30 3659 C 347.322 -3.46574 -4.02567 0
M  V30 3660 C 346.361 -4.68159 -3.94327 0
M  V30 3661 N 345.498 -4.77959 -5.14296 0
M  V30 3662 H 350.338 -2.74938 -1.14948 0
M  V30 3663 H 347.875 -1.36166 -0.556538 0
M  V30 3664 H 349.833 -2.1728 -3.56153 0
M  V30 3665 H 348.463 -1.1757 -3.00628 0
M  V30 3666 H 347.515 -3.31246 -1.8703 0
M  V30 3667 H 348.827 -4.23139 -2.64111 0
M  V30 3668 H 347.981 -3.57333 -4.90304 0
M  V30 3669 H 346.72 -2.55245 -4.15574 0
M  V30 3670 H 345.725 -4.57461 -3.04974 0
M  V30 3671 H 346.95 -5.60868 -3.82889 0
M  V30 3672 H 344.896 -3.89544 -5.27818 0
M  V30 3673 H 344.813 -5.6133 -5.06404 0
M  V30 3674 H 346.081 -4.93044 -6.03761 0
M  V30 3675 N 350.31 0.590341 -1.46126 0
M  V30 3676 C 351.22 1.72793 -1.58681 0
M  V30 3677 C 352.236 1.67516 -0.470566 0
M  V30 3678 O 353.412 1.87562 -0.733642 0
M  V30 3679 C 350.477 3.09287 -1.5666 0
M  V30 3680 C 349.538 3.25886 -2.79458 0
M  V30 3681 C 348.771 4.55869 -2.77524 0
M  V30 3682 O 348.994 5.3928 -1.85832 0
M  V30 3683 O 347.928 4.75552 -3.68964 0
M  V30 3684 H 351.754 1.65149 -2.54872 0
M  V30 3685 H 349.339 0.756486 -1.28832 0
M  V30 3686 H 351.221 3.90577 -1.58202 0
M  V30 3687 H 349.896 3.17385 -0.636271 0
M  V30 3688 H 348.803 2.44119 -2.83472 0
M  V30 3689 H 350.136 3.22675 -3.71674 0
M  V30 3690 N 351.788 1.33704 0.83433 0
M  V30 3691 C 352.72 1.20172 1.9517 0
M  V30 3692 C 353.733 0.131572 1.62267 0
M  V30 3693 O 354.922 0.382406 1.74356 0
M  V30 3694 C 352.022 0.821716 3.28787 0
M  V30 3695 C 351.195 1.98446 3.89792 0
M  V30 3696 C 350.254 1.58469 5.01771 0
M  V30 3697 O 349.28 2.29968 5.20676 0
M  V30 3698 N 350.482 0.492291 5.78409 0
M  V30 3699 H 353.247 2.16429 2.07313 0
M  V30 3700 H 350.808 1.26509 1.0103 0
M  V30 3701 H 352.8 0.536291 4.01131 0
M  V30 3702 H 351.37 -0.0503058 3.1256 0
M  V30 3703 H 350.59 2.43526 3.09982 0
M  V30 3704 H 351.878 2.76236 4.27283 0
M  V30 3705 H 351.276 -0.102349 5.65607 0
M  V30 3706 H 349.833 0.266555 6.51255 0
M  V30 3707 N 353.266 -1.05314 1.17247 0
M  V30 3708 C 354.196 -2.1498 0.911362 0
M  V30 3709 C 355.177 -1.69471 -0.146169 0
M  V30 3710 O 356.362 -1.942 0.003812 0
M  V30 3711 C 353.492 -3.4472 0.422528 0
M  V30 3712 C 352.446 -4.03789 1.4191 0
M  V30 3713 C 351.772 -5.28858 0.788274 0
M  V30 3714 C 353.072 -4.41418 2.7919 0
M  V30 3715 H 354.766 -2.3708 1.82848 0
M  V30 3716 H 352.312 -1.13938 0.880569 0
M  V30 3717 H 354.265 -4.20787 0.227289 0
M  V30 3718 H 352.989 -3.22269 -0.530123 0
M  V30 3719 H 351.648 -3.2979 1.60106 0
M  V30 3720 H 351.296 -5.02709 -0.171173 0
M  V30 3721 H 350.996 -5.69338 1.45353 0
M  V30 3722 H 352.52 -6.07612 0.603282 0
M  V30 3723 H 353.934 -5.08524 2.64719 0
M  V30 3724 H 352.331 -4.92913 3.42282 0
M  V30 3725 H 353.401 -3.51819 3.33693 0
M  V30 3726 N 354.744 -0.972509 -1.24016 0
M  V30 3727 C 355.691 -0.505969 -2.25186 0
M  V30 3728 C 356.661 0.451009 -1.5986 0
M  V30 3729 O 357.846 0.360307 -1.87367 0
M  V30 3730 C 354.986 0.193089 -3.44559 0
M  V30 3731 C 354.099 -0.803222 -4.24467 0
M  V30 3732 C 353.234 -0.0797793 -5.3114 0
M  V30 3733 C 352.273 -1.06583 -6.02749 0
M  V30 3734 N 351.41 -0.372074 -7.01113 0
M  V30 3735 H 356.25 -1.37351 -2.64459 0
M  V30 3736 H 353.787 -0.688419 -1.29997 0
M  V30 3737 H 355.745 0.615125 -4.1264 0
M  V30 3738 H 354.375 1.02455 -3.06109 0
M  V30 3739 H 353.427 -1.34368 -3.55878 0
M  V30 3740 H 354.739 -1.55494 -4.73944 0
M  V30 3741 H 353.893 0.400015 -6.0538 0
M  V30 3742 H 352.632 0.704597 -4.82583 0
M  V30 3743 H 351.637 -1.55645 -5.27309 0
M  V30 3744 H 352.862 -1.85074 -6.53395 0
M  V30 3745 H 350.808 0.393238 -6.5482 0
M  V30 3746 H 350.725 -1.06258 -7.48495 0
M  V30 3747 H 351.993 0.0855932 -7.79453 0
M  V30 3748 N 356.222 1.38976 -0.743202 0
M  V30 3749 C 357.169 2.30544 -0.10861 0
M  V30 3750 C 358.139 1.49642 0.720869 0
M  V30 3751 O 359.324 1.78304 0.679142 0
M  V30 3752 C 356.464 3.36018 0.786496 0
M  V30 3753 C 355.577 4.31963 -0.0564849 0
M  V30 3754 C 354.712 5.24506 0.840657 0
M  V30 3755 C 353.751 6.121 -0.00658363 0
M  V30 3756 N 352.888 6.96973 0.846943 0
M  V30 3757 H 357.728 2.8424 -0.895088 0
M  V30 3758 H 355.265 1.3995 -0.453048 0
M  V30 3759 H 357.223 3.95768 1.31999 0
M  V30 3760 H 355.853 2.83758 1.53887 0
M  V30 3761 H 354.905 3.73763 -0.707492 0
M  V30 3762 H 356.217 4.93703 -0.711229 0
M  V30 3763 H 355.371 5.89322 1.4417 0
M  V30 3764 H 354.11 4.63107 1.52916 0
M  V30 3765 H 353.115 5.46289 -0.620366 0
M  V30 3766 H 354.34 6.75565 -0.691992 0
M  V30 3767 H 352.286 6.38133 1.52059 0
M  V30 3768 H 352.203 7.5559 0.248864 0
M  V30 3769 H 353.471 7.6621 1.43328 0
M  V30 3770 N 357.7 0.491464 1.49741 0
M  V30 3771 C 358.65 -0.311086 2.25868 0
M  V30 3772 C 359.634 -0.943857 1.30308 0
M  V30 3773 O 360.826 -0.853035 1.55088 0
M  V30 3774 C 357.955 -1.38059 3.14316 0
M  V30 3775 C 357.041 -0.754541 4.17334 0
M  V30 3776 N 357.432 0.137216 5.05614 0
M  V30 3777 C 355.73 -1.01621 4.34269 0
M  V30 3778 C 356.431 0.494614 5.79593 0
M  V30 3779 N 355.407 -0.135169 5.43432 0
M  V30 3780 H 359.209 0.37555 2.91491 0
M  V30 3781 H 356.723 0.306917 1.59473 0
M  V30 3782 H 358.72 -1.96891 3.67477 0
M  V30 3783 H 357.38 -2.06901 2.50244 0
M  V30 3784 H 358.391 0.50741 5.15408 0
M  V30 3785 H 355.068 -1.69808 3.81407 0
M  V30 3786 H 356.458 1.2236 6.60665 0
M  V30 3787 N 359.178 -1.55987 0.224894 0
M  V30 3788 C 360.406 -2.02784 -0.410665 0
M  V30 3789 C 360.821 -1.10464 -1.53112 0
M  V30 3790 O 360.178 -0.114871 -1.82138 0
M  V30 3791 C 360.229 -3.49087 -0.939165 0
M  V30 3792 O 359.95 -4.37887 0.136614 0
M  V30 3793 C 361.451 -4.11543 -1.64763 0
M  V30 3794 H 358.671 -0.663484 -0.100148 0
M  V30 3795 H 361.215 -2.01614 0.342326 0
M  V30 3796 H 359.37 -3.50861 -1.64242 0
M  V30 3797 H 359.784 -5.23849 -0.261155 0
M  V30 3798 H 361.258 -5.15673 -1.96939 0
M  V30 3799 H 361.735 -3.56736 -2.56195 0
M  V30 3800 H 362.341 -4.13629 -0.989503 0
M  V30 3801 N 360.656 0.0484629 -1.57525 0
M  V30 3802 C 361.905 0.742065 -1.87553 0
M  V30 3803 C 362.218 1.77545 -0.820802 0
M  V30 3804 O 363.424 2.52027 -1.00967 0
M  V30 3805 C 361.88 1.37081 -3.32771 0
M  V30 3806 C 361.488 0.374786 -4.4643 0
M  V30 3807 C 363.232 2.04542 -3.71972 0
M  V30 3808 C 361.139 1.01077 -5.82698 0
M  V30 3809 H 360.069 0.280903 -0.699721 0
M  V30 3810 H 362.72 -0.00411877 -1.835 0
M  V30 3811 H 361.102 2.16605 -3.31509 0
M  V30 3812 H 362.276 -0.392331 -4.59127 0
M  V30 3813 H 360.591 -0.196653 -4.15935 0
M  V30 3814 H 363.188 2.52943 -4.71088 0
M  V30 3815 H 363.531 2.85515 -3.02964 0
M  V30 3816 H 364.064 1.31819 -3.75325 0
M  V30 3817 H 360.803 0.240878 -6.55057 0
M  V30 3818 H 360.323 1.74819 -5.73758 0
M  V30 3819 H 362.002 1.52383 -6.28799 0
M  V30 3820 N 362.134 1.5431 0.320358 0
M  V30 3821 C 363.064 1.86912 1.3995 0
M  V30 3822 C 364.045 0.726211 1.53819 0
M  V30 3823 O 365.23 0.980233 1.67646 0
M  V30 3824 C 362.36 2.09932 2.7667 0
M  V30 3825 C 361.314 3.25776 2.77586 0
M  V30 3826 C 360.64 3.34173 4.17412 0
M  V30 3827 C 361.94 4.6335 2.41048 0
M  V30 3828 H 363.634 2.77292 1.12914 0
M  V30 3829 H 361.18 1.33421 0.541738 0
M  V30 3830 H 363.133 2.31324 3.52232 0
M  V30 3831 H 361.857 1.16304 3.0519 0
M  V30 3832 H 360.516 3.04276 2.04479 0
M  V30 3833 H 360.164 2.38098 4.43078 0
M  V30 3834 H 359.864 4.12033 4.18931 0
M  V30 3835 H 361.388 3.57803 4.94782 0
M  V30 3836 H 362.802 4.84602 3.06324 0
M  V30 3837 H 361.199 5.43782 2.53813 0
M  V30 3838 H 362.269 4.65381 1.36193 0
M  V30 3839 N 363.613 -0.582584 1.46437 0
M  V30 3840 C 364.576 -1.67366 1.56592 0
M  V30 3841 C 365.576 -1.54575 0.443072 0
M  V30 3842 O 366.766 -1.59191 0.707381 0
M  V30 3843 C 363.898 -3.06791 1.48634 0
M  V30 3844 H 365.091 -1.5972 2.5383 0
M  V30 3845 H 362.644 -0.800432 1.34249 0
M  V30 3846 H 363.379 -3.19993 0.526763 0
M  V30 3847 H 363.164 -3.17484 2.30101 0
M  V30 3848 H 364.654 -3.86218 1.58826 0
M  V30 3849 N 365.091 -1.34144 -0.827227 0
M  V30 3850 C 366.368 -1.16844 -1.56865 0
M  V30 3851 C 366.748 0.260654 -2.09485 0
M  V30 3852 O 366.096 1.26138 -1.9053 0
M  V30 3853 C 366.306 -2.21939 -2.6934 0
M  V30 3854 C 367.654 -2.56695 -3.3822 0
M  V30 3855 O 368.678 -2.20695 -2.79593 0
M  V30 3856 O 367.537 -3.18518 -4.44082 0
M  V30 3857 H 364.631 -0.452669 -0.692112 0
M  V30 3858 H 367.177 -1.45763 -0.868973 0
M  V30 3859 H 365.949 -3.17882 -2.28182 0
M  V30 3860 H 365.572 -1.94172 -3.46962 0
M  V30 3861 N 366.569 1.04691 -1.17803 0
M  V30 3862 C 367.818 1.77176 -0.963931 0
M  V30 3863 C 368.131 1.88888 0.508015 0
M  V30 3864 O 369.337 2.58164 0.840465 0
M  V30 3865 C 367.793 3.18518 -1.67555 0
M  V30 3866 C 367.401 3.14919 -3.18637 0
M  V30 3867 C 369.145 3.95424 -1.54402 0
M  V30 3868 C 367.052 4.51081 -3.82466 0
M  V30 3869 H 365.982 0.664116 -0.357023 0
M  V30 3870 H 368.633 1.17303 -1.4111 0
M  V30 3871 H 367.015 3.78748 -1.15613 0
M  V30 3872 H 368.189 2.64178 -3.77554 0
M  V30 3873 H 366.504 2.51512 -3.31859 0
M  V30 3874 H 369.101 4.96106 -1.99456 0
M  V30 3875 H 369.444 4.13343 -0.495329 0
M  V30 3876 H 369.977 3.41754 -2.0359 0
M  V30 3877 H 366.716 4.38368 -4.87354 0
M  V30 3878 H 366.236 5.01951 -3.28337 0
M  V30 3879 H 367.915 5.2001 -3.84965 0
M  V30 3880 N 368.047 0.979072 1.23499 0
M  V30 3881 C 369.293 0.648178 1.92163 0
M  V30 3882 C 369.626 -0.816049 1.76222 0
M  V30 3883 O 368.901 -1.58849 1.12237 0
M  V30 3884 C 369.184 1.03773 3.44824 0
M  V30 3885 C 369.037 2.55948 3.69879 0
M  V30 3886 C 370.356 0.580653 4.36253 0
M  V30 3887 H 367.475 0.236952 0.69787 0
M  V30 3888 H 370.117 1.22012 1.45647 0
M  V30 3889 H 368.267 0.551058 3.84572 0
M  V30 3890 H 369.939 3.12179 3.3962 0
M  V30 3891 H 368.182 2.98641 3.14636 0
M  V30 3892 H 368.853 2.78255 4.76737 0
M  V30 3893 H 371.329 0.998465 4.03943 0
M  V30 3894 H 370.205 0.881663 5.41773 0
M  V30 3895 H 370.466 -0.519052 4.39042 0
M  V30 3896 N 369.525 -1.3858 0.750561 0
M  V30 3897 C 370.774 -1.99424 0.302172 0
M  V30 3898 C 371.087 -1.60254 -1.12152 0
M  V30 3899 O 372.293 -2.14046 -1.67023 0
M  V30 3900 C 370.749 -3.56558 0.489307 0
M  V30 3901 C 370.357 -4.04682 1.92189 0
M  V30 3902 C 372.101 -4.24374 0.103478 0
M  V30 3903 C 370.008 -5.54446 2.05775 0
M  V30 3904 H 368.938 -0.746046 0.10923 0
M  V30 3905 H 371.589 -1.58383 0.92667 0
M  V30 3906 H 369.971 -3.95472 -0.204329 0
M  V30 3907 H 371.145 -3.77065 2.64875 0
M  V30 3908 H 369.46 -3.4958 2.26236 0
M  V30 3909 H 372.057 -5.34384 0.183787 0
M  V30 3910 H 372.4 -4.05468 -0.943481 0
M  V30 3911 H 372.933 -3.90688 0.748854 0
M  V30 3912 H 369.672 -5.78252 3.08714 0
M  V30 3913 H 369.192 -5.83816 1.37546 0
M  V30 3914 H 370.871 -6.20099 1.84626 0
M  V30 3915 N 371.003 -0.499398 -1.49478 0
M  V30 3916 C 372.228 0.044722 -2.07352 0
M  V30 3917 C 372.653 1.30207 -1.35749 0
M  V30 3918 O 372.011 1.76516 -0.413732 0
M  V30 3919 C 372.059 0.283013 -3.59488 0
M  V30 3920 O 371.163 1.35804 -3.89398 0
M  V30 3921 H 370.504 -0.0255147 -0.66351 0
M  V30 3922 H 373.034 -0.698561 -1.92305 0
M  V30 3923 H 373.044 0.515007 -4.04737 0
M  V30 3924 H 371.719 -0.635636 -4.11014 0
M  V30 3925 H 370.296 1.11113 -3.55961 0
M  V30 3926 N 372.481 1.55866 -0.233164 0
M  V30 3927 C 373.444 2.1953 0.658715 0
M  V30 3928 C 374.444 1.16053 1.11303 0
M  V30 3929 O 375.634 1.41218 1.01996 0
M  V30 3930 C 372.766 2.82791 1.90373 0
M  V30 3931 H 373.959 2.99721 0.10347 0
M  V30 3932 H 371.512 1.56291 0.0164245 0
M  V30 3933 H 372.247 2.06501 2.50056 0
M  V30 3934 H 372.032 3.58578 1.58632 0
M  V30 3935 H 373.522 3.31556 2.53891 0
M  V30 3936 N 373.959 -0.0401083 1.57549 0
M  V30 3937 C 374.922 -1.02871 2.04817 0
M  V30 3938 C 375.922 -1.29708 0.950388 0
M  V30 3939 O 377.112 -1.24897 1.21435 0
M  V30 3940 C 374.244 -2.36443 2.45576 0
M  V30 3941 H 375.437 -0.620631 2.93408 0
M  V30 3942 H 372.99 -0.286667 1.53649 0
M  V30 3943 H 373.725 -2.82021 1.60108 0
M  V30 3944 H 373.51 -2.18296 3.25713 0
M  V30 3945 H 375 -3.07441 2.82612 0
M  V30 3946 N 375.437 -1.54477 -0.31217 0
M  V30 3947 C 376.685 -1.72884 -1.04668 0
M  V30 3948 C 377.006 -0.511477 -1.88173 0
M  V30 3949 O 376.276 0.474407 -1.90069 0
M  V30 3950 H 374.856 -0.637461 -0.389425 0
M  V30 3951 H 377.518 -1.91807 -0.345852 0
M  V30 3952 H 376.614 -2.61334 -1.70619 0
M  V30 3953 N 376.915 0.57481 -1.46744 0
M  V30 3954 C 378.164 1.32898 -1.51727 0
M  V30 3955 C 378.477 1.948 -0.176692 0
M  V30 3956 O 379.683 2.71299 -0.104385 0
M  V30 3957 C 378.139 2.40901 -2.67385 0
M  V30 3958 C 377.747 1.85266 -4.07898 0
M  V30 3959 C 379.491 3.17609 -2.81646 0
M  V30 3960 C 377.398 2.90945 -5.14883 0
M  V30 3961 H 376.328 0.499631 -0.564699 0
M  V30 3962 H 378.979 0.612536 -1.72975 0
M  V30 3963 H 377.361 3.15379 -2.39483 0
M  V30 3964 H 378.535 1.17278 -4.45626 0
M  V30 3965 H 376.85 1.21199 -3.98371 0
M  V30 3966 H 379.447 3.96493 -3.58744 0
M  V30 3967 H 379.79 3.70696 -1.89448 0
M  V30 3968 H 380.323 2.50239 -3.09233 0
M  V30 3969 H 377.062 2.42736 -6.089 0
M  V30 3970 H 376.582 3.57398 -4.81691 0
M  V30 3971 H 378.261 3.54755 -5.41071 0
M  V30 3972 N 378.394 1.34581 0.820102 0
M  V30 3973 C 379.805 1.24298 1.39309 0
M  V30 3974 C 380.156 -0.130351 1.95767 0
M  V30 3975 O 379.281 -1.0308 1.90272 0
M  V30 3976 C 379.876 2.25054 2.53251 0
M  V30 3977 C 378.435 2.18552 3.0645 0
M  V30 3978 C 377.582 2.11503 1.79337 0
M  V30 3979 H 380.533 1.45906 0.624262 0
M  V30 3980 H 380.554 1.86917 3.31425 0
M  V30 3981 H 380.066 3.24996 2.1213 0
M  V30 3982 H 378.167 1.21976 3.52069 0
M  V30 3983 H 378.28 3.0993 3.65349 0
M  V30 3984 H 376.644 1.57268 2.00347 0
M  V30 3985 H 377.427 3.13284 1.40386 0
M  V30 3986 N 379.872 -1.04064 1.18357 0
M  V30 3987 C 380.82 -2.14187 0.907007 0
M  V30 3988 C 381.814 -1.68879 -0.132725 0
M  V30 3989 O 383.02 -1.79993 0.0154248 0
M  V30 3990 H 379.395 -0.699585 0.275835 0
M  V30 3991 H 381.366 -2.34711 1.84264 0
M  V30 3992 C 380.115 -3.44785 0.449254 0
M  V30 3993 H 379.438 -3.80058 1.24081 0
M  V30 3994 H 380.878 -4.22974 0.294737 0
M  V30 3995 C 379.337 -3.26391 -0.834909 0
M  V30 3996 O 379.867 -3.53973 -1.89911 0
M  V30 3997 N 378.073 -2.79726 -0.787523 0
M  V30 3998 H 377.62 -2.5748 0.0787347 0
M  V30 3999 H 377.578 -2.67798 -1.64716 0
M  V30 4000 N 381.35 -0.985608 -1.22978 0
M  V30 4001 C 382.28 -0.549649 -2.26939 0
M  V30 4002 C 383.261 0.419803 -1.64838 0
M  V30 4003 O 384.446 0.31203 -1.91677 0
M  V30 4004 C 381.576 0.143652 -3.47003 0
M  V30 4005 C 380.53 -0.743606 -4.21491 0
M  V30 4006 C 379.856 0.0822027 -5.34637 0
M  V30 4007 C 381.156 -2.03694 -4.80943 0
M  V30 4008 H 382.85 -1.41862 -2.63658 0
M  V30 4009 H 380.396 -0.683571 -1.26741 0
M  V30 4010 H 382.349 0.459985 -4.18882 0
M  V30 4011 H 381.073 1.04711 -3.09359 0
M  V30 4012 H 379.732 -1.04347 -3.51436 0
M  V30 4013 H 379.38 0.986359 -4.93234 0
M  V30 4014 H 379.08 -0.508377 -5.85397 0
M  V30 4015 H 380.604 0.392797 -6.09335 0
M  V30 4016 H 382.018 -1.78504 -5.44802 0
M  V30 4017 H 380.415 -2.57573 -5.42011 0
M  V30 4018 H 381.485 -2.72042 -4.01399 0
M  V30 4019 N 382.828 1.3818 -0.7579 0
M  V30 4020 C 384.077 1.99261 -0.312744 0
M  V30 4021 C 384.39 1.60846 1.11301 0
M  V30 4022 O 385.596 2.14929 1.65885 0
M  V30 4023 C 384.052 3.56294 -0.50821 0
M  V30 4024 C 383.66 4.03657 -1.94333 0
M  V30 4025 C 385.404 4.24313 -0.125982 0
M  V30 4026 C 383.311 5.53347 -2.08712 0
M  V30 4027 H 382.241 0.745456 -0.113185 0
M  V30 4028 H 384.892 1.57889 -0.935056 0
M  V30 4029 H 383.274 3.95575 0.183353 0
M  V30 4030 H 384.448 3.75655 -2.66871 0
M  V30 4031 H 382.763 3.48376 -2.28086 0
M  V30 4032 H 385.36 5.34279 -0.212125 0
M  V30 4033 H 385.703 4.05962 0.921964 0
M  V30 4034 H 386.236 3.90285 -0.769563 0
M  V30 4035 H 382.975 5.76607 -3.11777 0
M  V30 4036 H 382.495 5.83078 -1.4064 0
M  V30 4037 H 384.174 6.19111 -1.87912 0
M  V30 4038 N 384.306 0.507319 1.49211 0
M  V30 4039 C 385.534 -0.0315749 2.06876 0
M  V30 4040 C 385.949 -1.30241 1.36685 0
M  V30 4041 O 385.306 -1.76937 0.447152 0
M  V30 4042 C 385.357 -0.282627 3.60393 0
M  V30 4043 O 385.078 0.937835 4.27944 0
M  V30 4044 C 386.579 -0.864453 4.3479 0
M  V30 4045 H 383.799 0.0233048 0.670595 0
M  V30 4046 H 386.343 0.706484 1.91909 0
M  V30 4047 H 384.498 -0.97068 3.75042 0
M  V30 4048 H 384.912 0.704567 5.19746 0
M  V30 4049 H 386.386 -0.989664 5.43056 0
M  V30 4050 H 386.863 -1.86382 3.97692 0
M  V30 4051 H 387.469 -0.213672 4.24763 0
M  V30 4052 N 385.784 -1.5574 0.241426 0
M  V30 4053 C 386.747 -2.19877 -0.647063 0
M  V30 4054 C 387.747 -1.16642 -1.10686 0
M  V30 4055 O 388.937 -1.41757 -1.01245 0
M  V30 4056 C 386.069 -2.83797 -1.88871 0
M  V30 4057 H 387.262 -2.99772 -0.087574 0
M  V30 4058 H 384.815 -1.56298 -0.00813574 0
M  V30 4059 H 385.55 -2.07824 -2.48957 0
M  V30 4060 H 385.335 -3.59414 -1.56728 0
M  V30 4061 H 386.825 -3.32898 -2.52129 0
M  V30 4062 N 387.262 0.0317525 -1.57568 0
M  V30 4063 C 388.539 0.758366 -1.803 0
M  V30 4064 C 388.919 1.93718 -0.838845 0
M  V30 4065 O 388.267 2.28187 0.119571 0
M  V30 4066 C 388.477 1.19392 -3.27943 0
M  V30 4067 C 389.825 1.61094 -3.92854 0
M  V30 4068 O 390.849 1.28857 -3.32076 0
M  V30 4069 O 389.708 2.20918 -4.99858 0
M  V30 4070 H 386.802 0.366514 -0.741348 0
M  V30 4071 H 389.348 0.00873765 -1.69698 0
M  V30 4072 H 388.12 0.352275 -3.89711 0
M  V30 4073 H 387.743 2.00365 -3.43424 0
M  V30 4074 N 388.74 1.54641 0.303973 0
M  V30 4075 C 389.673 1.80263 1.3993 0
M  V30 4076 C 390.651 0.653657 1.48883 0
M  V30 4077 O 391.835 0.893284 1.6599 0
M  V30 4078 C 388.962 1.9367 2.77866 0
M  V30 4079 C 388.008 3.16078 2.86351 0
M  V30 4080 S 388.841 4.74219 2.4875 0
M  V30 4081 C 389.997 4.90558 3.88721 0
M  V30 4082 H 390.23 2.72886 1.17986 0
M  V30 4083 H 387.763 1.46014 0.501918 0
M  V30 4084 H 389.721 2.0208 3.57315 0
M  V30 4085 H 388.382 1.01991 2.9708 0
M  V30 4086 H 387.575 3.22252 3.87517 0
M  V30 4087 H 387.177 3.06099 2.14893 0
M  V30 4088 H 389.469 4.74398 4.83687 0
M  V30 4089 H 390.412 5.92651 3.87518 0
M  V30 4090 H 390.82 4.18728 3.78585 0
M  V30 4091 N 390.218 -0.567019 1.47046 0
M  V30 4092 C 391.467 -1.32091 1.5243 0
M  V30 4093 C 391.78 -1.94704 0.187021 0
M  V30 4094 O 392.986 -2.7124 0.118771 0
M  V30 4095 C 391.442 -2.39479 2.68659 0
M  V30 4096 C 391.05 -1.831 4.08874 0
M  V30 4097 C 392.794 -3.16111 2.83327 0
M  V30 4098 C 390.701 -2.8821 5.16419 0
M  V30 4099 H 389.631 -0.496629 0.56734 0
M  V30 4100 H 392.282 -0.603354 1.73297 0
M  V30 4101 H 390.664 -3.14105 2.41152 0
M  V30 4102 H 391.838 -1.14913 4.46242 0
M  V30 4103 H 390.153 -1.19085 3.99008 0
M  V30 4104 H 392.75 -3.94585 3.60842 0
M  V30 4105 H 393.093 -3.69686 1.91411 0
M  V30 4106 H 393.626 -2.48595 3.10556 0
M  V30 4107 H 390.365 -2.39504 6.10179 0
M  V30 4108 H 389.885 -3.54839 4.8358 0
M  V30 4109 H 391.564 -3.51881 5.42945 0
M  V30 4110 N 391.696 -1.35014 -0.812953 0
M  V30 4111 C 392.643 -1.27412 -1.92444 0
M  V30 4112 C 393.613 -0.14733 -1.65445 0
M  V30 4113 O 394.798 -0.329974 -1.87925 0
M  V30 4114 C 391.938 -1.04558 -3.28879 0
M  V30 4115 C 391.051 -2.26101 -3.68106 0
M  V30 4116 C 390.186 -1.96449 -4.9354 0
M  V30 4117 C 389.225 -3.14081 -5.25376 0
M  V30 4118 N 388.362 -2.84246 -6.41988 0
M  V30 4119 H 393.202 -2.22463 -1.98278 0
M  V30 4120 H 390.739 -1.10593 -0.969933 0
M  V30 4121 H 392.697 -0.893413 -4.07522 0
M  V30 4122 H 391.327 -0.131719 -3.22531 0
M  V30 4123 H 390.379 -2.52204 -2.84775 0
M  V30 4124 H 391.691 -3.13959 -3.87597 0
M  V30 4125 H 390.845 -1.78026 -5.79993 0
M  V30 4126 H 389.584 -1.05867 -4.76071 0
M  V30 4127 H 388.589 -3.33089 -4.37415 0
M  V30 4128 H 389.814 -4.05455 -5.44778 0
M  V30 4129 H 387.76 -1.96252 -6.25956 0
M  V30 4130 H 387.677 -3.65637 -6.61699 0
M  V30 4131 H 388.945 -2.6935 -7.31485 0
M  V30 4132 N 393.175 1.03435 -1.18907 0
M  V30 4133 C 394.085 2.15075 -0.937015 0
M  V30 4134 C 395.101 1.73706 0.101085 0
M  V30 4135 O 396.277 2.01232 -0.0822948 0
M  V30 4136 C 393.342 3.43458 -0.473057 0
M  V30 4137 C 392.403 3.99172 -1.57989 0
M  V30 4138 C 391.636 5.21427 -1.13797 0
M  V30 4139 O 391.859 5.704 0.000725941 0
M  V30 4140 O 390.793 5.69837 -1.9383 0
M  V30 4141 H 394.619 2.39198 -1.87131 0
M  V30 4142 H 392.204 1.13506 -0.971427 0
M  V30 4143 H 394.086 4.20811 -0.222702 0
M  V30 4144 H 392.761 3.20793 0.432869 0
M  V30 4145 H 391.668 3.23178 -1.88433 0
M  V30 4146 H 393.001 4.2619 -2.46217 0
M  V30 4147 N 394.653 0.992116 1.22453 0
M  V30 4148 C 395.901 0.666215 1.90804 0
M  V30 4149 C 396.222 -0.804152 1.77647 0
M  V30 4150 O 395.492 -1.57629 1.16318 0
M  V30 4151 H 394.072 0.243423 0.706225 0
M  V30 4152 H 396.734 1.25845 1.48825 0
M  V30 4153 H 395.83 0.928069 2.97982 0
M  V30 4154 N 396.131 -1.37776 0.765217 0
M  V30 4155 C 397.094 -2.28686 0.153416 0
M  V30 4156 C 398.094 -1.47727 -0.635081 0
M  V30 4157 O 399.284 -1.68027 -0.459632 0
M  V30 4158 C 396.416 -3.31608 -0.790495 0
M  V30 4159 H 397.609 -2.84297 0.954723 0
M  V30 4160 H 395.162 -1.46932 0.53299 0
M  V30 4161 H 395.897 -2.81109 -1.61705 0
M  V30 4162 H 395.682 -3.9144 -0.227348 0
M  V30 4163 H 397.172 -3.99559 -1.21419 0
M  V30 4164 N 397.609 -0.515225 -1.4894 0
M  V30 4165 C 398.572 0.244681 -2.2789 0
M  V30 4166 C 399.572 0.881166 -1.34507 0
M  V30 4167 O 400.762 0.743497 -1.57537 0
M  V30 4168 C 397.894 1.35247 -3.12923 0
M  V30 4169 H 399.087 -0.448289 -2.96531 0
M  V30 4170 H 396.64 -0.270656 -1.53939 0
M  V30 4171 H 397.375 2.07916 -2.48881 0
M  V30 4172 H 397.16 0.901374 -3.81599 0
M  V30 4173 H 398.65 1.88737 -3.72516 0
M  V30 4174 N 399.087 1.5561 -0.249682 0
M  V30 4175 C 400.333 1.99306 0.374841 0
M  V30 4176 C 400.666 1.13767 1.57387 0
M  V30 4177 O 399.941 0.201711 1.93451 0
M  V30 4178 C 400.224 3.51507 0.781986 0
M  V30 4179 C 400.077 4.4781 -0.422629 0
M  V30 4180 C 401.396 4.08884 1.62793 0
M  V30 4181 H 398.515 0.724572 0.134773 0
M  V30 4182 H 401.157 1.86719 -0.351549 0
M  V30 4183 H 399.307 3.62363 1.4009 0
M  V30 4184 H 400.979 4.48931 -1.06108 0
M  V30 4185 H 399.222 4.20518 -1.06524 0
M  V30 4186 H 399.893 5.51919 -0.0943766 0
M  V30 4187 H 402.369 4.01147 1.10547 0
M  V30 4188 H 401.245 5.1564 1.88166 0
M  V30 4189 H 401.506 3.57515 2.60068 0
M  V30 4190 N 400.565 -0.0233959 1.57583 0
M  V30 4191 C 401.814 -0.712133 1.8871 0
M  V30 4192 C 402.127 -1.76217 0.848944 0
M  V30 4193 O 403.333 -2.50389 1.04964 0
M  V30 4194 C 401.789 -1.3177 3.3491 0
M  V30 4195 C 401.397 -0.303715 4.46969 0
M  V30 4196 C 403.141 -1.98598 3.75179 0
M  V30 4197 C 401.048 -0.917945 5.84233 0
M  V30 4198 H 399.978 -0.269735 0.704101 0
M  V30 4199 H 402.629 0.0333114 1.8347 0
M  V30 4200 H 401.011 -2.11304 3.34913 0
M  V30 4201 H 402.185 0.465325 4.58445 0
M  V30 4202 H 400.5 0.2628 4.1557 0
M  V30 4203 H 403.097 -2.45416 4.75053 0
M  V30 4204 H 403.44 -2.80659 3.07468 0
M  V30 4205 H 403.973 -1.25831 3.77374 0
M  V30 4206 H 400.712 -0.136633 6.55358 0
M  V30 4207 H 400.232 -1.65669 5.76467 0
M  V30 4208 H 401.911 -1.4236 6.31144 0
M  V30 4209 N 402.043 -1.548 -0.295768 0
M  V30 4210 C 403.32 -1.65014 -1.05023 0
M  V30 4211 C 403.7 -0.501805 -2.05049 0
M  V30 4212 O 403.048 0.500869 -2.22943 0
M  V30 4213 C 403.258 -3.03252 -1.72741 0
M  V30 4214 C 404.606 -3.60242 -2.24746 0
M  V30 4215 O 405.63 -3.05737 -1.82765 0
M  V30 4216 O 404.489 -4.55687 -3.01681 0
M  V30 4217 H 401.583 -0.669314 -0.485744 0
M  V30 4218 H 404.129 -1.67144 -0.293438 0
M  V30 4219 H 402.901 -3.7827 -1.00138 0
M  V30 4220 H 402.524 -3.04922 -2.55163 0
M  V30 4221 N 403.521 0.559213 -1.47345 0
M  V30 4222 C 404.767 1.31843 -1.54095 0
M  V30 4223 C 405.1 1.93149 -0.201726 0
M  V30 4224 O 404.375 1.77759 0.789428 0
M  V30 4225 C 404.658 2.43006 -2.65744 0
M  V30 4226 C 404.511 1.86581 -4.09277 0
M  V30 4227 C 405.83 3.44943 -2.73318 0
M  V30 4228 H 402.949 0.478012 -0.560957 0
M  V30 4229 H 405.591 0.625977 -1.79392 0
M  V30 4230 H 403.741 3.02072 -2.44305 0
M  V30 4231 H 405.413 1.31792 -4.42073 0
M  V30 4232 H 403.656 1.17268 -4.17649 0
M  V30 4233 H 404.327 2.66933 -4.83168 0
M  V30 4234 H 406.803 2.95793 -2.92653 0
M  V30 4235 H 405.679 4.20153 -3.53218 0
M  V30 4236 H 405.94 4.03665 -1.80296 0
M  V30 4237 N 404.999 1.35443 0.805782 0
M  V30 4238 C 406.247 1.28507 1.55982 0
M  V30 4239 C 406.568 -0.140046 1.94496 0
M  V30 4240 O 405.838 -1.07666 1.63661 0
M  V30 4241 H 404.418 0.472676 0.578434 0
M  V30 4242 H 407.08 1.69555 0.961098 0
M  V30 4243 H 406.176 1.90148 2.47488 0
M  V30 4244 N 406.477 -1.02803 1.19454 0
M  V30 4245 C 407.726 -1.7562 0.991996 0
M  V30 4246 C 408.039 -1.89672 -0.477901 0
M  V30 4247 O 409.245 -2.59468 -0.799287 0
M  V30 4248 C 407.701 -3.15812 1.72601 0
M  V30 4249 C 407.309 -3.0981 3.23607 0
M  V30 4250 C 409.053 -3.92918 1.60674 0
M  V30 4251 C 406.96 -4.44939 3.89594 0
M  V30 4252 H 405.89 -0.658352 0.367543 0
M  V30 4253 H 408.541 -1.15044 1.42959 0
M  V30 4254 H 406.923 -3.7686 1.21624 0
M  V30 4255 H 408.097 -2.58138 3.81709 0
M  V30 4256 H 406.412 -2.46201 3.35819 0
M  V30 4257 H 409.009 -4.9287 2.07323 0
M  V30 4258 H 409.352 -4.12502 0.561025 0
M  V30 4259 H 409.885 -3.38472 2.09001 0
M  V30 4260 H 406.624 -4.30559 4.94267 0
M  V30 4261 H 406.144 -4.96664 3.36281 0
M  V30 4262 H 407.823 -5.1382 3.93189 0
M  V30 4263 N 407.956 -0.998596 -1.21925 0
M  V30 4264 C 408.904 -0.546641 -2.26085 0
M  V30 4265 C 409.898 0.405576 -1.64473 0
M  V30 4266 O 411.104 0.277471 -1.77849 0
M  V30 4267 H 407.479 -0.158403 -0.735127 0
M  V30 4268 H 409.45 -1.43645 -2.61551 0
M  V30 4269 C 408.199 0.117388 -3.47502 0
M  V30 4270 H 407.522 -0.606277 -3.95176 0
M  V30 4271 H 408.962 0.396993 -4.22137 0
M  V30 4272 C 407.421 1.35455 -3.0847 0
M  V30 4273 O 407.951 2.44944 -3.18379 0
M  V30 4274 N 406.157 1.23191 -2.63196 0
M  V30 4275 H 405.704 0.341006 -2.55333 0
M  V30 4276 H 405.662 2.06071 -2.37449 0
M  V30 4277 N 409.434 1.37368 -0.772513 0
M  V30 4278 C 410.85 1.53059 -0.452231 0
M  V30 4279 C 411.05 1.73065 1.03203 0
M  V30 4280 O 410.106 1.75245 1.81784 0
M  V30 4281 C 411.419 2.72659 -1.26797 0
M  V30 4282 C 412.967 2.86521 -1.25995 0
M  V30 4283 C 413.442 4.09105 -2.05905 0
M  V30 4284 N 414.933 4.16219 -2.03263 0
M  V30 4285 C 415.668 5.10107 -2.61875 0
M  V30 4286 N 415.164 6.09547 -3.29278 0
M  V30 4287 N 416.957 5.02596 -2.51701 0
M  V30 4288 H 409.108 1.22634 -1.7342 0
M  V30 4289 H 411.371 0.597206 -0.736239 0
M  V30 4290 H 411.077 2.64343 -2.31982 0
M  V30 4291 H 410.951 3.66363 -0.897672 0
M  V30 4292 H 413.338 2.94308 -0.216081 0
M  V30 4293 H 413.419 1.93774 -1.66989 0
M  V30 4294 H 413.063 4.0208 -3.10313 0
M  V30 4295 H 412.993 5.00968 -1.62292 0
M  V30 4296 H 415.484 3.45012 -1.54192 0
M  V30 4297 H 415.797 6.77718 -3.71374 0
M  V30 4298 H 414.142 6.09824 -3.33377 0
M  V30 4299 H 417.333 4.23855 -1.98657 0
M  V30 4300 H 417.506 5.75582 -2.97673 0
M  V30 4301 N 410.912 0.523116 1.48665 0
M  V30 4302 C 412.158 -0.0134963 2.02796 0
M  V30 4303 C 412.491 -1.34582 1.40004 0
M  V30 4304 O 411.766 -1.86756 0.543381 0
M  V30 4305 C 412.049 -0.14276 3.59817 0
M  V30 4306 C 411.902 1.21425 4.331 0
M  V30 4307 C 413.221 -0.872856 4.31357 0
M  V30 4308 H 410.34 -0.00343074 0.736992 0
M  V30 4309 H 412.982 0.678816 1.7746 0
M  V30 4310 H 411.132 -0.732401 3.81534 0
M  V30 4311 H 412.804 1.84447 4.2282 0
M  V30 4312 H 411.047 1.79791 3.94788 0
M  V30 4313 H 411.718 1.07687 5.41394 0
M  V30 4314 H 414.194 -0.372555 4.14429 0
M  V30 4315 H 413.07 -0.932185 5.40927 0
M  V30 4316 H 413.331 -1.92161 3.98154 0
M  V30 4317 N 412.39 -1.55475 0.257931 0
M  V30 4318 C 413.34 -2.18506 -0.651094 0
M  V30 4319 C 414.324 -1.14431 -1.13112 0
M  V30 4320 O 415.516 -1.40305 -1.07905 0
M  V30 4321 C 412.645 -2.89653 -1.84272 0
M  V30 4322 C 411.731 -4.00996 -1.38068 0
M  V30 4323 N 412.122 -5.01816 -0.633609 0
M  V30 4324 C 410.42 -4.13753 -1.66506 0
M  V30 4325 C 411.121 -5.80371 -0.392922 0
M  V30 4326 N 410.097 -5.3505 -0.960359 0
M  V30 4327 H 413.899 -2.93811 -0.0722883 0
M  V30 4328 H 411.413 -1.62286 0.0607256 0
M  V30 4329 H 413.41 -3.33245 -2.50506 0
M  V30 4330 H 412.07 -2.15854 -2.42564 0
M  V30 4331 H 413.081 -5.17128 -0.282626 0
M  V30 4332 H 409.758 -3.51133 -2.25858 0
M  V30 4333 H 411.148 -6.7159 0.204235 0
M  V30 4334 N 413.868 0.0150385 -1.57593 0
M  V30 4335 C 415.145 0.7392 -1.81094 0
M  V30 4336 C 415.525 1.92817 -0.859344 0
M  V30 4337 O 414.873 2.28301 0.095362 0
M  V30 4338 C 415.083 1.15907 -3.29191 0
M  V30 4339 C 416.431 1.56918 -3.9454 0
M  V30 4340 O 417.455 1.25328 -3.33424 0
M  V30 4341 O 416.314 2.15604 -5.02173 0
M  V30 4342 H 413.408 0.358631 -0.745193 0
M  V30 4343 H 415.954 -0.00926156 -1.69697 0
M  V30 4344 H 414.726 0.310921 -3.90063 0
M  V30 4345 H 414.349 1.96711 -3.45529 0
M  V30 4346 N 415.346 1.54954 0.287554 0
M  V30 4347 C 416.757 1.65732 0.859634 0
M  V30 4348 C 417.108 0.574767 1.87592 0
M  V30 4349 O 416.233 -0.286299 2.14498 0
M  V30 4350 C 416.828 3.00438 1.56597 0
M  V30 4351 C 415.387 3.13292 2.08627 0
M  V30 4352 C 414.534 2.61473 0.923416 0
M  V30 4353 H 417.485 1.5857 0.0642338 0
M  V30 4354 H 417.506 2.92613 2.43224 0
M  V30 4355 H 417.018 3.79207 0.826053 0
M  V30 4356 H 415.119 2.39268 2.85625 0
M  V30 4357 H 415.232 4.19647 2.31157 0
M  V30 4358 H 413.596 2.18264 1.31275 0
M  V30 4359 H 414.379 3.42733 0.197241 0
M  V30 4360 N 416.824 -0.551391 1.4764 0
M  V30 4361 C 418.07 -1.31024 1.54792 0
M  V30 4362 C 418.403 -1.9304 0.211967 0
M  V30 4363 O 417.678 -1.78175 -0.77999 0
M  V30 4364 C 417.961 -2.41593 2.67029 0
M  V30 4365 C 417.814 -1.84408 4.10261 0
M  V30 4366 C 419.133 -3.43488 2.75143 0
M  V30 4367 H 416.252 -0.475031 0.563485 0
M  V30 4368 H 418.894 -0.616454 1.79722 0
M  V30 4369 H 417.044 -3.00772 2.45904 0
M  V30 4370 H 418.716 -1.29445 4.42766 0
M  V30 4371 H 416.959 -1.15051 4.18265 0
M  V30 4372 H 417.63 -2.64367 4.84576 0
M  V30 4373 H 420.106 -2.94236 2.94218 0
M  V30 4374 H 418.982 -4.18274 3.55441 0
M  V30 4375 H 419.243 -4.02703 1.82435 0
M  V30 4376 N 418.302 -1.35869 -0.798587 0
M  V30 4377 C 419.53 -1.32722 -1.58722 0
M  V30 4378 C 419.945 0.0935631 -1.88568 0
M  V30 4379 O 419.302 1.04784 -1.49421 0
M  V30 4380 C 419.353 -2.13974 -2.91371 0
M  V30 4381 O 419.074 -3.50514 -2.62815 0
M  V30 4382 C 420.575 -2.18504 -3.85708 0
M  V30 4383 H 417.795 -0.45562 -0.492596 0
M  V30 4384 H 420.339 -1.78837 -0.991843 0
M  V30 4385 H 418.494 -1.71438 -3.47402 0
M  V30 4386 H 418.908 -3.92806 -3.47568 0
M  V30 4387 H 420.382 -2.79732 -4.75872 0
M  V30 4388 H 420.859 -1.18597 -4.22885 0
M  V30 4389 H 421.465 -2.61236 -3.35612 0
M  V30 4390 N 419.78 1.02168 -1.19998 0
M  V30 4391 C 420.743 2.08765 -0.94604 0
M  V30 4392 C 421.743 1.60618 0.0763846 0
M  V30 4393 O 422.933 1.73472 -0.159135 0
M  V30 4394 C 420.065 3.38262 -0.423255 0
M  V30 4395 H 421.258 2.32726 -1.89153 0
M  V30 4396 H 418.811 1.1889 -1.01464 0
M  V30 4397 H 419.546 3.19974 0.527938 0
M  V30 4398 H 419.331 3.74532 -1.16053 0
M  V30 4399 H 420.821 4.16759 -0.264911 0
M  V30 4400 N 421.258 1.00505 1.21394 0
M  V30 4401 C 422.205 0.565496 2.23765 0
M  V30 4402 C 423.175 -0.408466 1.60999 0
M  V30 4403 O 424.36 -0.310503 1.88257 0
M  V30 4404 C 421.5 -0.101667 3.4495 0
M  V30 4405 C 420.613 0.915479 4.22188 0
M  V30 4406 C 419.748 0.220574 5.30742 0
M  V30 4407 C 418.787 1.22527 5.99711 0
M  V30 4408 N 417.924 0.557831 6.9988 0
M  V30 4409 H 422.764 1.44314 2.60725 0
M  V30 4410 H 420.301 0.722643 1.28126 0
M  V30 4411 H 422.259 -0.505504 4.14126 0
M  V30 4412 H 420.889 -0.94303 3.08718 0
M  V30 4413 H 419.941 1.43756 3.52191 0
M  V30 4414 H 421.253 1.68005 4.69655 0
M  V30 4415 H 420.407 -0.239368 6.06228 0
M  V30 4416 H 419.146 -0.576401 4.84282 0
M  V30 4417 H 418.151 1.69571 5.22997 0
M  V30 4418 H 419.376 2.02332 6.48258 0
M  V30 4419 H 417.322 -0.219486 6.55633 0
M  V30 4420 H 417.239 1.26065 7.45415 0
M  V30 4421 H 418.507 0.121095 7.79406 0
M  V30 4422 N 422.737 -1.36956 0.779787 0
M  V30 4423 C 424.148 -1.82094 0.412156 0
M  V30 4424 C 424.499 -1.64926 -1.06273 0
M  V30 4425 O 423.624 -1.16483 -1.82375 0
M  V30 4426 C 424.219 -3.3059 0.741319 0
M  V30 4427 C 422.778 -3.73974 0.426641 0
M  V30 4428 C 421.925 -2.59368 0.980987 0
M  V30 4429 H 424.876 -1.25314 0.973758 0
M  V30 4430 H 424.897 -3.80489 0.028887 0
M  V30 4431 H 424.409 -3.43054 1.81482 0
M  V30 4432 H 422.51 -3.67076 -0.639215 0
M  V30 4433 H 422.623 -4.69778 0.940515 0
M  V30 4434 H 420.987 -2.51463 0.404757 0
M  V30 4435 H 421.77 -2.74621 2.06005 0
M  V30 4436 N 424.215 -0.530993 -1.48385 0
M  V30 4437 C 425.162 0.231223 -2.29639 0
M  V30 4438 C 426.132 0.932864 -1.37429 0
M  V30 4439 O 427.317 0.933692 -1.66394 0
M  V30 4440 C 424.457 1.27155 -3.2082 0
M  V30 4441 C 423.57 0.578655 -4.28107 0
M  V30 4442 C 422.705 1.602 -5.06467 0
M  V30 4443 C 421.744 0.892625 -6.05556 0
M  V30 4444 N 420.881 1.86157 -6.76971 0
M  V30 4445 H 425.721 -0.467848 -2.94305 0
M  V30 4446 H 423.258 -0.242556 -1.45086 0
M  V30 4447 H 425.216 1.88703 -3.72085 0
M  V30 4448 H 423.846 1.939 -2.58075 0
M  V30 4449 H 422.898 -0.150782 -3.80101 0
M  V30 4450 H 424.21 0.0217065 -4.98795 0
M  V30 4451 H 423.364 2.29173 -5.61751 0
M  V30 4452 H 422.103 2.19285 -4.35621 0
M  V30 4453 H 421.108 0.188829 -5.49476 0
M  V30 4454 H 422.333 0.307878 -6.78402 0
M  V30 4455 H 420.279 2.44147 -6.08875 0
M  V30 4456 H 420.196 1.35608 -7.43738 0
M  V30 4457 H 421.464 2.54325 -7.36844 0
M  V30 4458 N 425.693 1.55336 -0.266172 0
M  V30 4459 C 426.623 2.25146 0.618981 0
M  V30 4460 C 427.604 1.23845 1.16604 0
M  V30 4461 O 428.789 1.52544 1.20183 0
M  V30 4462 C 425.919 2.96572 1.80728 0
M  V30 4463 C 424.873 4.04726 1.39215 0
M  V30 4464 C 424.199 4.63678 2.66283 0
M  V30 4465 C 425.499 5.19407 0.548942 0
M  V30 4466 H 427.193 2.99377 0.0368116 0
M  V30 4467 H 424.739 1.43991 0.0162651 0
M  V30 4468 H 426.692 3.44116 2.43232 0
M  V30 4469 H 425.416 2.19861 2.41514 0
M  V30 4470 H 424.075 3.57979 0.790351 0
M  V30 4471 H 423.723 3.83646 3.25308 0
M  V30 4472 H 423.423 5.367 2.39222 0
M  V30 4473 H 424.947 5.13967 3.29651 0
M  V30 4474 H 426.361 5.63059 1.07876 0
M  V30 4475 H 424.758 5.98936 0.373593 0
M  V30 4476 H 425.828 4.8295 -0.434394 0
M  V30 4477 N 427.171 -0.0066808 1.57599 0
M  V30 4478 C 428.417 -0.693947 1.90558 0
M  V30 4479 C 428.75 -1.73792 0.866594 0
M  V30 4480 O 428.025 -1.94156 -0.115548 0
M  V30 4481 C 428.308 -1.34317 3.34112 0
M  V30 4482 C 428.161 -0.311189 4.48722 0
M  V30 4483 C 429.48 -2.27116 3.7697 0
M  V30 4484 H 426.599 -0.250803 0.693013 0
M  V30 4485 H 429.241 0.043242 1.89951 0
M  V30 4486 H 427.391 -1.9715 3.3476 0
M  V30 4487 H 429.063 0.316944 4.6021 0
M  V30 4488 H 427.306 0.367253 4.32243 0
M  V30 4489 H 427.977 -0.804366 5.46108 0
M  V30 4490 H 430.453 -1.74306 3.77831 0
M  V30 4491 H 429.329 -2.69511 4.78179 0
M  V30 4492 H 429.59 -3.14743 3.10466 0
M  V30 4493 N 428.649 -1.55105 -0.279332 0
M  V30 4494 C 429.897 -1.75066 -1.00977 0
M  V30 4495 C 430.218 -0.551276 -1.87045 0
M  V30 4496 O 429.488 0.433984 -1.91032 0
M  V30 4497 H 428.068 -0.645578 -0.375816 0
M  V30 4498 H 430.73 -1.92497 -0.305089 0
M  V30 4499 H 429.826 -2.64894 -1.65038 0
M  V30 4500 N 430.127 0.543554 -1.4793 0
M  V30 4501 C 431.404 1.30458 -1.4574 0
M  V30 4502 C 431.784 2.1048 -0.161692 0
M  V30 4503 O 431.132 2.11831 0.856734 0
M  V30 4504 C 431.342 2.19754 -2.71126 0
M  V30 4505 C 432.69 2.80334 -3.18901 0
M  V30 4506 O 433.714 2.30049 -2.71948 0
M  V30 4507 O 432.573 3.71766 -4.00565 0
M  V30 4508 H 429.667 0.588117 -0.581418 0
M  V30 4509 H 432.213 0.561328 -1.60147 0
M  V30 4510 H 430.985 1.60316 -3.56952 0
M  V30 4511 H 430.608 3.01351 -2.59371 0
M  V30 4512 N 431.605 1.3629 0.791371 0
M  V30 4513 C 432.851 1.30605 1.55146 0
M  V30 4514 C 433.184 -0.115042 1.93859 0
M  V30 4515 O 432.459 -1.06798 1.62556 0
M  V30 4516 C 432.742 2.22692 2.82985 0
M  V30 4517 C 432.595 3.73489 2.50651 0
M  V30 4518 C 433.914 2.13588 3.84796 0
M  V30 4519 H 431.033 0.475761 0.562868 0
M  V30 4520 H 433.675 1.66825 0.909358 0
M  V30 4521 H 431.825 1.91933 3.37778 0
M  V30 4522 H 433.497 4.14758 2.01924 0
M  V30 4523 H 431.74 3.93021 1.83622 0
M  V30 4524 H 432.411 4.3333 3.41949 0
M  V30 4525 H 434.887 2.40659 3.39445 0
M  V30 4526 H 433.763 2.80195 4.71998 0
M  V30 4527 H 434.024 1.12256 4.27611 0
M  V30 4528 N 433.083 -1.0153 1.20538 0
M  V30 4529 C 434.36 -1.72327 0.925343 0
M  V30 4530 C 434.74 -2.03383 -0.565547 0
M  V30 4531 O 434.088 -1.69934 -1.52757 0
M  V30 4532 C 434.298 -2.9902 1.79967 0
M  V30 4533 C 435.646 -3.72258 2.04228 0
M  V30 4534 O 436.67 -3.08979 1.77231 0
M  V30 4535 O 435.529 -4.86053 2.4983 0
M  V30 4536 H 432.623 -0.751099 0.346092 0
M  V30 4537 H 435.169 -1.07366 1.31417 0
M  V30 4538 H 433.941 -2.72402 2.80915 0
M  V30 4539 H 433.564 -3.71721 1.41099 0
M  V30 4540 N 434.561 -1.01147 -1.20859 0
M  V30 4541 C 435.808 -0.697865 -1.90095 0
M  V30 4542 C 436.136 0.772014 -1.78522 0
M  V30 4543 O 435.391 1.57595 -1.16027 0
M  V30 4544 C 435.69 -1.0727 -3.40922 0
M  V30 4545 C 435.356 -2.53792 -3.72693 0
M  V30 4546 C 434.018 -2.93829 -3.81075 0
M  V30 4547 C 436.37 -3.48674 -3.87397 0
M  V30 4548 C 433.698 -4.27696 -4.01613 0
M  V30 4549 C 436.05 -4.82223 -4.09444 0
M  V30 4550 C 434.714 -5.21973 -4.16054 0
M  V30 4551 H 433.984 -0.255367 -0.695607 0
M  V30 4552 H 436.631 -1.27111 -1.43231 0
M  V30 4553 H 434.936 -0.417799 -3.89566 0
M  V30 4554 H 436.633 -0.807818 -3.92779 0
M  V30 4555 H 433.223 -2.21768 -3.66765 0
M  V30 4556 H 437.407 -3.18904 -3.80281 0
M  V30 4557 H 432.663 -4.58055 -4.04964 0
M  V30 4558 H 436.837 -5.55672 -4.19763 0
M  V30 4559 H 434.464 -6.25717 -4.31721 0
M  V30 4560 N 436.039 1.36541 -0.78704 0
M  V30 4561 C 436.949 2.3387 -0.184896 0
M  V30 4562 C 437.965 1.60927 0.661697 0
M  V30 4563 O 439.141 1.92927 0.57804 0
M  V30 4564 C 436.206 3.40122 0.672145 0
M  V30 4565 C 435.267 4.28867 -0.19267 0
M  V30 4566 C 434.5 5.30045 0.623561 0
M  V30 4567 O 434.723 5.39232 1.8597 0
M  V30 4568 O 433.657 6.01895 0.0247068 0
M  V30 4569 H 437.483 2.87126 -0.989562 0
M  V30 4570 H 435.068 1.38969 -0.548455 0
M  V30 4571 H 436.95 4.05093 1.16094 0
M  V30 4572 H 435.625 2.89169 1.45474 0
M  V30 4573 H 434.532 3.66945 -0.728166 0
M  V30 4574 H 435.865 4.83165 -0.938722 0
M  V30 4575 N 437.518 0.538854 1.48102 0
M  V30 4576 C 438.766 0.00798599 2.02098 0
M  V30 4577 C 439.087 -1.33922 1.41739 0
M  V30 4578 O 438.357 -1.86932 0.585934 0
M  V30 4579 H 436.937 -3.62179e-05 0.747 0
M  V30 4580 H 439.599 0.7047 1.81714 0
M  V30 4581 H 438.695 -0.0937672 3.11959 0
M  V30 4582 N 438.996 -1.55193 0.274407 0
M  V30 4583 C 440.242 -1.99877 -0.343086 0
M  V30 4584 C 440.575 -1.16256 -1.55558 0
M  V30 4585 O 439.85 -0.232462 -1.93106 0
M  V30 4586 C 440.133 -3.52706 -0.725965 0
M  V30 4587 C 439.986 -4.47081 0.493818 0
M  V30 4588 C 441.305 -4.11422 -1.56268 0
M  V30 4589 H 438.424 -0.726625 -0.123229 0
M  V30 4590 H 441.066 -1.86136 0.38121 0
M  V30 4591 H 439.216 -3.64546 -1.34307 0
M  V30 4592 H 440.888 -4.47186 1.13237 0
M  V30 4593 H 439.131 -4.1877 1.13201 0
M  V30 4594 H 439.802 -5.51699 0.18217 0
M  V30 4595 H 442.278 -4.02855 -1.04151 0
M  V30 4596 H 441.154 -5.18568 -1.79939 0
M  V30 4597 H 441.415 -3.61607 -2.54348 0
M  V30 4598 N 440.474 -0.00167713 -1.576 0
M  V30 4599 C 441.89 0.354422 -1.55615 0
M  V30 4600 C 442.09 1.74679 -1.00447 0
M  V30 4601 O 441.146 2.4428 -0.639022 0
M  V30 4602 C 442.459 0.22812 -2.99833 0
M  V30 4603 C 444.007 0.302934 -3.11531 0
M  V30 4604 C 444.482 0.205737 -4.57538 0
M  V30 4605 N 445.973 0.263584 -4.62449 0
M  V30 4606 C 446.708 0.211742 -5.73009 0
M  V30 4607 N 446.204 0.110399 -6.92712 0
M  V30 4608 N 447.997 0.263729 -5.61481 0
M  V30 4609 H 440.148 -0.912498 -1.918 0
M  V30 4610 H 442.411 -0.349928 -0.881053 0
M  V30 4611 H 442.117 -0.729934 -3.44042 0
M  V30 4612 H 441.991 1.00951 -3.6344 0
M  V30 4613 H 444.378 1.25143 -2.67251 0
M  V30 4614 H 444.459 -0.508357 -2.50698 0
M  V30 4615 H 444.103 -0.739225 -5.02492 0
M  V30 4616 H 444.033 1.03554 -5.16318 0
M  V30 4617 H 446.524 0.343173 -3.76339 0
M  V30 4618 H 446.837 0.0767828 -7.72762 0
M  V30 4619 H 445.182 0.0760025 -6.94958 0
M  V30 4620 H 448.373 0.34111 -4.66855 0
M  V30 4621 H 448.546 0.219862 -6.47627 0
M  V30 4622 N 441.952 1.55251 0.271103 0
M  V30 4623 C 442.884 1.84675 1.35749 0
M  V30 4624 C 443.897 0.731366 1.45447 0
M  V30 4625 O 445.086 1.00924 1.4723 0
M  V30 4626 C 442.186 1.99638 2.73857 0
M  V30 4627 C 441.359 3.30312 2.86727 0
M  V30 4628 C 440.418 3.35318 4.05522 0
M  V30 4629 O 439.444 4.08682 3.96191 0
M  V30 4630 N 440.646 2.62857 5.17577 0
M  V30 4631 H 443.411 2.78445 1.10853 0
M  V30 4632 H 440.972 1.55191 0.461218 0
M  V30 4633 H 442.964 2.00355 3.51625 0
M  V30 4634 H 441.534 1.12725 2.91568 0
M  V30 4635 H 440.754 3.42118 1.95829 0
M  V30 4636 H 442.042 4.16488 2.92258 0
M  V30 4637 H 441.44 2.02939 5.28046 0
M  V30 4638 H 439.997 2.69295 5.93568 0
M  V30 4639 N 443.43 -0.535701 1.48216 0
M  V30 4640 C 444.377 -1.64083 1.62312 0
M  V30 4641 C 445.347 -1.59448 0.465365 0
M  V30 4642 O 446.532 -1.77959 0.688135 0
M  V30 4643 C 443.672 -3.0236 1.66349 0
M  V30 4644 C 442.785 -3.17273 2.93193 0
M  V30 4645 C 441.92 -4.46075 2.88427 0
M  V30 4646 C 440.959 -4.54496 4.1 0
M  V30 4647 N 440.096 -5.7468 4.03345 0
M  V30 4648 H 444.936 -1.51374 2.5669 0
M  V30 4649 H 442.473 -0.737059 1.27302 0
M  V30 4650 H 444.431 -3.82461 1.66672 0
M  V30 4651 H 443.061 -3.13854 0.754672 0
M  V30 4652 H 442.113 -2.30462 3.02641 0
M  V30 4653 H 443.425 -3.19357 3.83162 0
M  V30 4654 H 442.579 -5.3446 2.87119 0
M  V30 4655 H 441.318 -4.46504 1.96177 0
M  V30 4656 H 440.323 -3.64519 4.11589 0
M  V30 4657 H 441.548 -4.5581 5.03402 0
M  V30 4658 H 439.494 -5.76017 3.13912 0
M  V30 4659 H 439.411 -5.78234 4.87013 0
M  V30 4660 H 440.679 -6.65367 4.06087 0
M  V30 4661 N 444.908 -1.36708 -0.784132 0
M  V30 4662 C 445.871 -1.31307 -1.87859 0
M  V30 4663 C 446.871 -0.219654 -1.59293 0
M  V30 4664 O 448.061 -0.47476 -1.67606 0
M  V30 4665 C 445.193 -1.03679 -3.24751 0
M  V30 4666 H 446.386 -2.28647 -1.94064 0
M  V30 4667 H 443.939 -1.21558 -0.98252 0
M  V30 4668 H 444.674 -0.0681936 -3.24228 0
M  V30 4669 H 444.459 -1.82811 -3.46876 0
M  V30 4670 H 445.949 -1.02518 -4.04821 0
M  V30 4671 N 446.386 1.0089 -1.21074 0
M  V30 4672 C 447.634 1.74262 -1.02358 0
M  V30 4673 C 447.955 1.89869 0.444393 0
M  V30 4674 O 447.225 1.44677 1.32081 0
M  V30 4675 H 445.805 0.645615 -0.375754 0
M  V30 4676 H 448.467 1.21596 -1.52317 0
M  V30 4677 H 447.563 2.74328 -1.4883 0
M  V30 4678 N 447.864 1.01787 1.20321 0
M  V30 4679 C 449.094 0.72614 1.93419 0
M  V30 4680 C 449.502 -0.717317 1.75075 0
M  V30 4681 O 448.845 -1.49836 1.06278 0
M  V30 4682 C 448.907 0.983621 3.45782 0
M  V30 4683 C 448.571 2.41645 3.87888 0
M  V30 4684 C 449.568 3.39732 3.93545 0
M  V30 4685 C 447.253 2.75752 4.19841 0
M  V30 4686 C 449.247 4.69988 4.30569 0
M  V30 4687 C 446.934 4.06221 4.56539 0
M  V30 4688 C 447.932 5.0315 4.61876 0
M  V30 4689 O 447.62 6.31284 4.97731 0
M  V30 4690 H 447.352 0.265824 0.621541 0
M  V30 4691 H 449.906 1.3623 1.53722 0
M  V30 4692 H 448.136 0.290301 3.85609 0
M  V30 4693 H 449.825 0.683279 4.00108 0
M  V30 4694 H 450.591 3.14718 3.69022 0
M  V30 4695 H 446.47 2.00993 4.14877 0
M  V30 4696 H 450.014 5.45642 4.3465 0
M  V30 4697 H 445.911 4.31013 4.80518 0
M  V30 4698 H 446.679 6.35591 5.15719 0
M  V30 4699 N 449.342 -1.36122 0.79427 0
M  V30 4700 C 450.591 -1.98361 0.365464 0
M  V30 4701 C 450.904 -1.6374 -1.06997 0
M  V30 4702 O 452.11 -2.19251 -1.60129 0
M  V30 4703 C 450.566 -3.54821 0.602496 0
M  V30 4704 C 450.174 -3.98362 2.04967 0
M  V30 4705 C 451.918 -4.2383 0.238437 0
M  V30 4706 C 449.825 -5.47619 2.2331 0
M  V30 4707 H 448.755 -0.742193 0.13291 0
M  V30 4708 H 451.406 -1.55354 0.976589 0
M  V30 4709 H 449.788 -3.95922 -0.078409 0
M  V30 4710 H 450.962 -3.68447 2.76737 0
M  V30 4711 H 449.277 -3.42206 2.37243 0
M  V30 4712 H 451.874 -5.33529 0.353705 0
M  V30 4713 H 452.217 -4.08264 -0.814006 0
M  V30 4714 H 452.75 -3.88108 0.872769 0
M  V30 4715 H 449.489 -5.68138 3.26955 0
M  V30 4716 H 449.009 -5.79145 1.5605 0
M  V30 4717 H 450.688 -6.13911 2.0426 0
M  V30 4718 N 450.82 -0.546701 -1.47814 0
M  V30 4719 C 452.048 -0.0232857 -2.06887 0
M  V30 4720 C 452.463 1.26571 -1.4009 0
M  V30 4721 O 451.82 1.7569 -0.493906 0
M  V30 4722 C 451.871 0.186975 -3.61016 0
M  V30 4723 O 451.592 -1.05097 -4.25307 0
M  V30 4724 C 453.093 0.748872 -4.36929 0
M  V30 4725 H 450.313 -0.0410763 -0.669742 0
M  V30 4726 H 452.857 -0.757117 -1.89968 0
M  V30 4727 H 451.012 0.870903 -3.77484 0
M  V30 4728 H 451.426 -0.842121 -5.17695 0
M  V30 4729 H 452.9 0.845334 -5.45489 0
M  V30 4730 H 453.377 1.75772 -4.02493 0
M  V30 4731 H 453.983 0.100979 -4.2518 0
M  V30 4732 N 452.299 1.55045 -0.282633 0
M  V30 4733 C 453.71 1.85473 0.213655 0
M  V30 4734 C 454.061 1.20465 1.54863 0
M  V30 4735 O 453.186 0.495676 2.10647 0
M  V30 4736 C 453.781 3.36496 0.394445 0
M  V30 4737 C 452.34 3.67022 0.834961 0
M  V30 4738 C 451.487 2.77218 -0.0674081 0
M  V30 4739 H 454.438 1.50478 -0.504202 0
M  V30 4740 H 454.459 3.60007 1.23186 0
M  V30 4741 H 453.971 3.83782 -0.577326 0
M  V30 4742 H 452.072 3.25241 1.81794 0
M  V30 4743 H 452.185 4.74433 0.667075 0
M  V30 4744 H 450.549 2.5069 0.450196 0
M  V30 4745 H 451.332 3.2732 -1.0352 0
M  V30 4746 N 453.777 0.010035 1.57597 0
M  V30 4747 C 455.023 -0.673697 1.91283 0
M  V30 4748 C 455.356 -1.72863 0.884979 0
M  V30 4749 O 454.631 -1.94268 -0.0949487 0
M  V30 4750 C 454.914 -1.30766 3.35518 0
M  V30 4751 C 454.767 -0.263578 4.49027 0
M  V30 4752 C 456.086 -2.23105 3.79358 0
M  V30 4753 H 453.205 -0.243439 0.695634 0
M  V30 4754 H 455.847 0.0633864 1.89894 0
M  V30 4755 H 453.997 -1.93588 3.36832 0
M  V30 4756 H 455.669 0.365738 4.59848 0
M  V30 4757 H 453.912 0.413077 4.31829 0
M  V30 4758 H 454.583 -0.746398 5.4693 0
M  V30 4759 H 457.059 -1.70289 3.79659 0
M  V30 4760 H 455.935 -2.64424 4.81011 0
M  V30 4761 H 456.196 -3.11433 3.13787 0
M  V30 4762 N 455.255 -1.55392 -0.262866 0
M  V30 4763 C 456.666 -1.67079 -0.833158 0
M  V30 4764 C 457.017 -0.604539 -1.86654 0
M  V30 4765 O 456.142 0.252138 -2.14926 0
M  V30 4766 C 456.737 -3.02891 -1.51797 0
M  V30 4767 C 455.296 -3.16571 -2.03617 0
M  V30 4768 C 454.443 -2.62909 -0.881701 0
M  V30 4769 H 457.394 -1.58652 -0.0389986 0
M  V30 4770 H 457.415 -2.96445 -2.38538 0
M  V30 4771 H 456.927 -3.80473 -0.765619 0
M  V30 4772 H 455.028 -2.43782 -2.81782 0
M  V30 4773 H 455.141 -4.23271 -2.24452 0
M  V30 4774 H 453.505 -2.20324 -1.27786 0
M  V30 4775 H 454.288 -3.43003 -0.14269 0
M  V30 4776 N 456.733 0.527833 -1.48498 0
M  V30 4777 C 457.981 1.28101 -1.56316 0
M  V30 4778 C 458.302 1.9352 -0.239781 0
M  V30 4779 O 457.572 1.81433 0.738849 0
M  V30 4780 H 456.152 0.475793 -0.575873 0
M  V30 4781 H 458.814 0.614052 -1.84974 0
M  V30 4782 H 457.91 2.05916 -2.34532 0
M  V30 4783 N 458.211 1.37122 0.776871 0
M  V30 4784 C 459.459 1.31787 1.53221 0
M  V30 4785 C 459.78 -0.0987589 1.9475 0
M  V30 4786 O 459.05 -1.0417 1.65908 0
M  V30 4787 H 457.63 0.484839 0.568278 0
M  V30 4788 H 460.292 1.71556 0.924917 0
M  V30 4789 H 459.388 1.95355 2.43398 0
M  V30 4790 N 459.689 -1.00246 1.21608 0
M  V30 4791 C 460.935 -1.74319 1.03638 0
M  V30 4792 C 461.268 -1.89408 -0.428749 0
M  V30 4793 O 460.543 -1.43026 -1.3181 0
M  V30 4794 C 460.826 -3.15431 1.73711 0
M  V30 4795 C 460.679 -3.08049 3.27759 0
M  V30 4796 C 461.998 -4.14407 1.48173 0
M  V30 4797 H 459.117 -0.632741 0.377899 0
M  V30 4798 H 461.759 -1.16853 1.49818 0
M  V30 4799 H 459.909 -3.64493 1.34452 0
M  V30 4800 H 461.581 -2.66681 3.76403 0
M  V30 4801 H 459.824 -2.45088 3.57931 0
M  V30 4802 H 460.495 -4.07862 3.71958 0
M  V30 4803 H 462.971 -3.74061 1.82258 0
M  V30 4804 H 461.847 -5.11279 1.99713 0
M  V30 4805 H 462.108 -4.40174 0.412273 0
M  V30 4806 N 461.167 -1.02423 -1.1978 0
M  V30 4807 C 462.415 -0.716569 -1.8897 0
M  V30 4808 C 462.736 0.756769 -1.79716 0
M  V30 4809 O 462.006 1.5449 -1.20456 0
M  V30 4810 H 460.586 -0.262062 -0.699523 0
M  V30 4811 H 463.248 -1.29747 -1.45436 0
M  V30 4812 H 462.344 -1.00675 -2.95417 0
M  V30 4813 N 462.645 1.35699 -0.801477 0
M  V30 4814 C 464.056 1.81415 -0.441073 0
M  V30 4815 C 464.407 1.66595 1.03636 0
M  V30 4816 O 463.532 1.19369 1.80499 0
M  V30 4817 C 464.127 3.29369 -0.793819 0
M  V30 4818 C 462.686 3.73248 -0.486083 0
M  V30 4819 C 461.833 2.57775 -1.02213 0
M  V30 4820 H 464.784 1.23749 -0.993572 0
M  V30 4821 H 464.805 3.80395 -0.0894158 0
M  V30 4822 H 464.317 3.40123 -1.86917 0
M  V30 4823 H 462.418 3.68046 0.580735 0
M  V30 4824 H 462.531 4.68222 -1.01513 0
M  V30 4825 H 460.895 2.50788 -0.444712 0
M  V30 4826 H 461.678 2.71309 -2.10348 0
M  V30 4827 N 464.123 0.554532 1.47522 0
M  V30 4828 C 465.056 -0.242442 2.26908 0
M  V30 4829 C 466.034 -0.922722 1.33883 0
M  V30 4830 O 467.218 -0.942244 1.63261 0
M  V30 4831 C 464.345 -1.34525 3.10839 0
M  V30 4832 C 463.391 -0.773805 4.19422 0
M  V30 4833 S 464.224 0.377525 5.34168 0
M  V30 4834 C 465.38 -0.727164 6.21662 0
M  V30 4835 H 465.613 0.431218 2.94156 0
M  V30 4836 H 463.146 0.3408 1.50592 0
M  V30 4837 H 465.104 -1.97683 3.59766 0
M  V30 4838 H 463.765 -1.99073 2.42958 0
M  V30 4839 H 462.958 -1.60187 4.77866 0
M  V30 4840 H 462.56 -0.218448 3.73361 0
M  V30 4841 H 464.852 -1.61992 6.57849 0
M  V30 4842 H 465.795 -0.180135 7.07871 0
M  V30 4843 H 466.203 -1.01863 5.55233 0
M  V30 4844 N 465.601 -1.54893 0.290851 0
M  V30 4845 C 466.829 -2.04343 -0.324288 0
M  V30 4846 C 467.244 -1.16859 -1.48289 0
M  V30 4847 O 466.601 -0.192018 -1.81487 0
M  V30 4848 C 466.652 -3.52756 -0.79026 0
M  V30 4849 O 466.373 -4.36913 0.322213 0
M  V30 4850 C 467.874 -4.18161 -1.4716 0
M  V30 4851 H 465.094 -0.667135 -0.0719173 0
M  V30 4852 H 467.638 -1.99981 0.427529 0
M  V30 4853 H 465.793 -3.57511 -1.49213 0
M  V30 4854 H 466.207 -5.24486 -0.0387372 0
M  V30 4855 H 467.681 -5.23562 -1.7489 0
M  V30 4856 H 468.158 -3.67282 -2.40834 0
M  V30 4857 H 468.764 -4.17454 -0.813178 0
M  V30 4858 N 467.08 -0.0183926 -1.57589 0
M  V30 4859 C 468.326 0.663543 -1.91638 0
M  V30 4860 C 468.659 1.72392 -0.894134 0
M  V30 4861 O 467.934 1.94316 0.0846449 0
M  V30 4862 C 468.217 1.28984 -3.36207 0
M  V30 4863 C 468.07 0.239761 -4.49161 0
M  V30 4864 C 469.389 2.2109 -3.80536 0
M  V30 4865 H 466.508 0.239746 -0.696915 0
M  V30 4866 H 469.15 -0.073456 -1.89858 0
M  V30 4867 H 467.3 1.91799 -3.37854 0
M  V30 4868 H 468.972 -0.390119 -4.59647 0
M  V30 4869 H 467.215 -0.435972 -4.31604 0
M  V30 4870 H 467.886 0.717383 -5.47319 0
M  V30 4871 H 470.362 1.68273 -3.80557 0
M  V30 4872 H 469.238 2.61869 -4.82406 0
M  V30 4873 H 469.499 3.09764 -3.15434 0
M  V30 4874 N 468.558 1.5553 0.254621 0
M  V30 4875 C 469.521 1.88872 1.29846 0
M  V30 4876 C 470.521 0.764591 1.41459 0
M  V30 4877 O 471.711 1.03265 1.40293 0
M  V30 4878 C 468.843 2.11032 2.67728 0
M  V30 4879 H 470.036 2.82201 1.01502 0
M  V30 4880 H 467.589 1.48303 0.493556 0
M  V30 4881 H 468.324 1.20146 3.01223 0
M  V30 4882 H 468.109 2.92895 2.60682 0
M  V30 4883 H 469.599 2.38038 3.43115 0
M  V30 4884 N 470.036 -0.519951 1.48776 0
M  V30 4885 C 470.969 -1.64053 1.58625 0
M  V30 4886 C 471.947 -1.5664 0.43618 0
M  V30 4887 O 473.131 -1.76969 0.649159 0
M  V30 4888 C 470.258 -3.02497 1.52359 0
M  V30 4889 C 469.304 -3.28235 2.72331 0
M  V30 4890 S 470.137 -3.13414 4.34203 0
M  V30 4891 C 471.293 -4.54287 4.30551 0
M  V30 4892 H 471.526 -1.5545 2.53422 0
M  V30 4893 H 469.059 -0.703681 1.37433 0
M  V30 4894 H 471.017 -3.82336 1.4943 0
M  V30 4895 H 469.678 -3.08531 0.588824 0
M  V30 4896 H 468.871 -4.29256 2.64113 0
M  V30 4897 H 468.473 -2.56085 2.72574 0
M  V30 4898 H 470.765 -5.46006 4.01103 0
M  V30 4899 H 471.708 -4.67558 5.31785 0
M  V30 4900 H 472.116 -4.34079 3.60881 0
M  V30 4901 N 471.514 -1.37532 -0.769588 0
M  V30 4902 C 472.444 -1.36172 -1.89682 0
M  V30 4903 C 473.425 -0.23001 -1.68538 0
M  V30 4904 O 474.61 -0.43069 -1.89364 0
M  V30 4905 C 471.74 -1.1701 -3.26995 0
M  V30 4906 C 470.694 -2.27216 -3.62708 0
M  V30 4907 C 470.02 -1.93174 -4.98586 0
M  V30 4908 C 471.32 -3.6941 -3.69234 0
M  V30 4909 H 473.014 -2.30499 -1.91078 0
M  V30 4910 H 470.56 -1.10953 -0.917902 0
M  V30 4911 H 472.513 -1.14688 -4.05493 0
M  V30 4912 H 471.237 -0.191395 -3.26039 0
M  V30 4913 H 469.896 -2.28697 -2.86519 0
M  V30 4914 H 469.544 -0.938281 -4.94171 0
M  V30 4915 H 469.244 -2.66973 -5.23449 0
M  V30 4916 H 470.768 -1.92443 -5.79481 0
M  V30 4917 H 472.182 -3.70047 -4.37879 0
M  V30 4918 H 470.579 -4.4228 -4.05597 0
M  V30 4919 H 471.649 -4.0288 -2.69844 0
M  V30 4920 N 472.992 0.995999 -1.22138 0
M  V30 4921 C 473.925 2.08302 -0.931952 0
M  V30 4922 C 474.903 1.62127 0.123956 0
M  V30 4923 O 476.087 1.88499 -0.00696004 0
M  V30 4924 C 473.214 3.36317 -0.401068 0
M  V30 4925 C 472.26 4.01413 -1.44117 0
M  V30 4926 S 473.093 4.42664 -3.01345 0
M  V30 4927 C 474.249 5.73853 -2.49887 0
M  V30 4928 H 474.482 2.32532 -1.85246 0
M  V30 4929 H 472.015 1.13005 -1.0521 0
M  V30 4930 H 473.973 4.10375 -0.101352 0
M  V30 4931 H 472.634 3.10123 0.498272 0
M  V30 4932 H 471.827 4.9358 -1.01952 0
M  V30 4933 H 471.429 3.33668 -1.68943 0
M  V30 4934 H 473.721 6.50039 -1.90934 0
M  V30 4935 H 474.664 6.20841 -3.40532 0
M  V30 4936 H 475.072 5.31105 -1.9128 0
M  V30 4937 N 474.47 1.03057 1.19235 0
M  V30 4938 C 475.417 0.612832 2.22515 0
M  V30 4939 C 476.387 -0.374224 1.61829 0
M  V30 4940 O 477.572 -0.270501 1.88873 0
M  V30 4941 C 474.712 -0.028475 3.45088 0
M  V30 4942 C 473.825 1.00483 4.20151 0
M  V30 4943 C 472.96 0.333102 5.30155 0
M  V30 4944 C 471.999 1.3522 5.96977 0
M  V30 4945 N 471.136 0.70616 6.9854 0
M  V30 4946 H 475.976 1.49812 2.57605 0
M  V30 4947 H 473.513 0.749658 1.26564 0
M  V30 4948 H 475.471 -0.417548 4.15105 0
M  V30 4949 H 474.101 -0.877334 3.10649 0
M  V30 4950 H 473.153 1.51194 3.49062 0
M  V30 4951 H 474.465 1.77929 4.65986 0
M  V30 4952 H 473.619 -0.110725 6.06599 0
M  V30 4953 H 472.358 -0.473547 4.85396 0
M  V30 4954 H 471.363 1.80627 5.19282 0
M  V30 4955 H 472.588 2.16037 6.4382 0
M  V30 4956 H 470.534 -0.0803667 6.55951 0
M  V30 4957 H 470.451 1.41848 7.42573 0
M  V30 4958 H 471.719 0.286391 7.78974 0
M  V30 4959 N 475.948 -1.35272 0.808662 0
M  V30 4960 C 476.896 -2.31663 0.208606 0
M  V30 4961 C 477.89 -1.56731 -0.642778 0
M  V30 4962 O 479.096 -1.71843 -0.53571 0
M  V30 4963 H 475.471 -0.750421 0.0486993 0
M  V30 4964 H 477.442 -2.79814 1.03666 0
M  V30 4965 C 476.191 -3.42008 -0.626573 0
M  V30 4966 H 475.514 -3.99795 0.0192103 0
M  V30 4967 H 476.954 -4.11727 -1.01278 0
M  V30 4968 C 475.413 -2.85226 -1.79298 0
M  V30 4969 O 475.943 -2.78945 -2.89055 0
M  V30 4970 N 474.149 -2.42245 -1.60516 0
M  V30 4971 H 473.696 -2.47554 -0.712375 0
M  V30 4972 H 473.654 -2.04603 -2.38715 0
M  V30 4973 N 477.426 -0.562348 -1.47226 0
M  V30 4974 C 478.654 -0.0452275 -2.06851 0
M  V30 4975 C 479.069 1.25078 -1.41424 0
M  V30 4976 O 478.426 1.75156 -0.512513 0
M  V30 4977 C 478.477 0.148674 -3.61194 0
M  V30 4978 O 478.198 -1.09602 -4.24169 0
M  V30 4979 C 479.699 0.702488 -4.37699 0
M  V30 4980 H 476.919 -0.0481775 -0.669268 0
M  V30 4981 H 479.463 -0.777223 -1.89155 0
M  V30 4982 H 477.618 0.830817 -3.78386 0
M  V30 4983 H 478.032 -0.896982 -5.16773 0
M  V30 4984 H 479.506 0.78743 -5.46355 0
M  V30 4985 H 479.983 1.71493 -4.04335 0
M  V30 4986 H 480.589 0.0558772 -4.25263 0
M  V30 4987 N 478.904 1.54736 -0.299062 0
M  V30 4988 C 480.153 1.99279 0.311549 0
M  V30 4989 C 480.466 1.19107 1.55154 0
M  V30 4990 O 481.672 1.53908 2.23662 0
M  V30 4991 C 480.128 3.54768 0.605632 0
M  V30 4992 C 479.736 4.43746 -0.615914 0
M  V30 4993 C 481.48 4.07841 1.17754 0
M  V30 4994 C 479.387 5.90663 -0.29509 0
M  V30 4995 H 478.317 0.744359 0.120187 0
M  V30 4996 H 480.968 1.78919 -0.407464 0
M  V30 4997 H 479.35 3.71021 1.38419 0
M  V30 4998 H 480.524 4.39267 -1.39218 0
M  V30 4999 H 478.839 4.01434 -1.10633 0
M  V30 5000 H 481.436 5.15174 1.43179 0
M  V30 5001 H 481.779 3.58324 2.11918 0
M  V30 5002 H 482.312 3.95123 0.460739 0
M  V30 5003 H 479.051 6.44325 -1.20524 0
M  V30 5004 H 478.571 5.98155 0.44394 0
M  V30 5005 H 480.25 6.46916 0.104048 0
M  V30 5006 N 480.382 0.0267497 1.57577 0
M  V30 5007 C 481.631 -0.651736 1.9088 0
M  V30 5008 C 481.944 -1.73427 0.904576 0
M  V30 5009 O 483.15 -2.46923 1.12877 0
M  V30 5010 C 481.606 -1.21048 3.38933 0
M  V30 5011 C 481.214 -0.161362 4.47709 0
M  V30 5012 C 482.958 -1.86562 3.81307 0
M  V30 5013 C 480.865 -0.731611 5.86857 0
M  V30 5014 H 479.795 -0.247198 0.712326 0
M  V30 5015 H 482.446 0.0916641 1.83271 0
M  V30 5016 H 480.828 -2.00542 3.41466 0
M  V30 5017 H 482.002 0.61094 4.56732 0
M  V30 5018 H 480.317 0.394877 4.14523 0
M  V30 5019 H 482.914 -2.30178 4.8262 0
M  V30 5020 H 483.257 -2.70735 3.16241 0
M  V30 5021 H 483.79 -1.13762 3.81186 0
M  V30 5022 H 480.529 0.0719329 6.55461 0
M  V30 5023 H 480.049 -1.47245 5.81445 0
M  V30 5024 H 481.728 -1.22208 6.35354 0
M  V30 5025 N 481.861 -1.55662 -0.24637 0
M  V30 5026 C 482.824 -1.89558 -1.28842 0
M  V30 5027 C 483.824 -0.772082 -1.41052 0
M  V30 5028 O 485.014 -1.04007 -1.39743 0
M  V30 5029 C 482.146 -2.12449 -2.66605 0
M  V30 5030 H 483.339 -2.82735 -1.00004 0
M  V30 5031 H 480.892 -1.48562 -0.485684 0
M  V30 5032 H 481.627 -1.21742 -3.00582 0
M  V30 5033 H 481.412 -2.94273 -2.59125 0
M  V30 5034 H 482.902 -2.39854 -3.41847 0
M  V30 5035 N 483.339 0.512053 -1.4905 0
M  V30 5036 C 484.302 1.59704 -1.64399 0
M  V30 5037 C 485.302 1.52285 -0.516317 0
M  V30 5038 O 486.492 1.55635 -0.782527 0
M  V30 5039 C 483.624 2.9935 -1.63102 0
M  V30 5040 H 484.817 1.47428 -2.61161 0
M  V30 5041 H 482.37 0.735469 -1.37915 0
M  V30 5042 H 483.105 3.17116 -0.678836 0
M  V30 5043 H 482.89 3.06144 -2.44986 0
M  V30 5044 H 484.38 3.782 -1.77072 0
M  V30 5045 N 484.817 1.37938 0.762283 0
M  V30 5046 C 485.764 1.34467 1.87583 0
M  V30 5047 C 486.734 0.208633 1.64785 0
M  V30 5048 O 487.919 0.399494 1.86571 0
M  V30 5049 C 485.059 1.16692 3.24772 0
M  V30 5050 C 484.172 2.39608 3.59461 0
M  V30 5051 C 483.307 2.14631 4.85908 0
M  V30 5052 C 482.346 3.33364 5.13357 0
M  V30 5053 N 481.483 3.07877 6.30996 0
M  V30 5054 H 486.323 2.29669 1.89885 0
M  V30 5055 H 483.86 1.14116 0.928219 0
M  V30 5056 H 485.818 1.04405 4.03925 0
M  V30 5057 H 484.448 0.251333 3.2182 0
M  V30 5058 H 483.5 2.626 2.75219 0
M  V30 5059 H 484.812 3.28128 3.75678 0
M  V30 5060 H 483.966 1.99429 5.72986 0
M  V30 5061 H 482.705 1.23463 4.71814 0
M  V30 5062 H 481.71 3.49094 4.24751 0
M  V30 5063 H 482.935 4.25395 5.29354 0
M  V30 5064 H 480.881 2.19348 6.18241 0
M  V30 5065 H 480.798 3.89944 6.47673 0
M  V30 5066 H 482.066 2.96313 7.20985 0
M  V30 5067 N 486.295 -0.989507 1.22664 0
M  V30 5068 C 487.242 -2.08024 0.999733 0
M  V30 5069 C 488.212 -1.65909 -0.0797047 0
M  V30 5070 O 489.397 -1.90669 0.0705715 0
M  V30 5071 C 486.537 -3.40067 0.587234 0
M  V30 5072 C 485.65 -3.95505 1.73781 0
M  V30 5073 C 484.785 -5.15722 1.27297 0
M  V30 5074 C 483.824 -5.63305 2.39488 0
M  V30 5075 N 482.961 -6.74758 1.94026 0
M  V30 5076 H 487.801 -2.26768 1.9334 0
M  V30 5077 H 485.338 -1.11171 0.963297 0
M  V30 5078 H 487.296 -4.15899 0.329227 0
M  V30 5079 H 485.926 -3.21314 -0.309426 0
M  V30 5080 H 484.978 -3.16513 2.11006 0
M  V30 5081 H 486.29 -4.26797 2.58158 0
M  V30 5082 H 485.444 -5.98854 0.972546 0
M  V30 5083 H 484.183 -4.86061 0.399445 0
M  V30 5084 H 483.188 -4.78759 2.70315 0
M  V30 5085 H 484.413 -5.94988 3.27362 0
M  V30 5086 H 482.359 -6.46874 1.09041 0
M  V30 5087 H 482.276 -7.05386 2.71968 0
M  V30 5088 H 483.544 -7.61387 1.67062 0
M  V30 5089 N 487.773 -1.03688 -1.18687 0
M  V30 5090 C 489.019 -0.739123 -1.88851 0
M  V30 5091 C 489.352 0.731042 -1.79915 0
M  V30 5092 O 488.627 1.53313 -1.19688 0
M  V30 5093 C 488.91 -1.20106 -3.3948 0
M  V30 5094 C 488.763 -2.73304 -3.57246 0
M  V30 5095 C 490.082 -0.788134 -4.32986 0
M  V30 5096 H 487.201 -0.269978 -0.68577 0
M  V30 5097 H 489.843 -1.28822 -1.3966 0
M  V30 5098 H 487.993 -0.733915 -3.81505 0
M  V30 5099 H 489.665 -3.28027 -3.24339 0
M  V30 5100 H 487.908 -3.13313 -3.00029 0
M  V30 5101 H 488.579 -3.00684 -4.62918 0
M  V30 5102 H 491.055 -1.19005 -3.98719 0
M  V30 5103 H 489.931 -1.13915 -5.36949 0
M  V30 5104 H 490.192 0.308988 -4.41019 0
M  V30 5105 N 489.251 1.34841 -0.815825 0
M  V30 5106 C 490.181 2.32187 -0.247298 0
M  V30 5107 C 491.162 1.5791 0.632344 0
M  V30 5108 O 492.347 1.8593 0.560698 0
M  V30 5109 C 489.477 3.42122 0.597466 0
M  V30 5110 C 488.431 4.27602 -0.184446 0
M  V30 5111 C 487.757 5.28942 0.782609 0
M  V30 5112 C 489.057 5.03502 -1.38865 0
M  V30 5113 H 490.751 2.79985 -1.06061 0
M  V30 5114 H 488.297 1.34611 -0.511461 0
M  V30 5115 H 490.25 4.09232 1.00533 0
M  V30 5116 H 488.974 2.92956 1.44376 0
M  V30 5117 H 487.633 3.62085 -0.573592 0
M  V30 5118 H 487.281 4.7604 1.62466 0
M  V30 5119 H 486.981 5.87008 0.263695 0
M  V30 5120 H 488.505 5.98922 1.18848 0
M  V30 5121 H 489.919 5.63506 -1.05518 0
M  V30 5122 H 488.316 5.71108 -1.8427 0
M  V30 5123 H 489.386 4.33608 -2.17054 0
M  V30 5124 N 490.729 0.570148 1.46925 0
M  V30 5125 C 492.145 0.23087 1.57921 0
M  V30 5126 C 492.345 -1.26676 1.56702 0
M  V30 5127 O 491.401 -2.04774 1.47729 0
M  V30 5128 C 492.714 0.868973 2.8787 0
M  V30 5129 C 494.262 0.841397 3.01479 0
M  V30 5130 C 494.737 1.45881 4.34146 0
M  V30 5131 N 496.228 1.42258 4.40814 0
M  V30 5132 C 496.963 1.8698 5.42057 0
M  V30 5133 N 496.459 2.39618 6.50042 0
M  V30 5134 N 498.252 1.77972 5.33181 0
M  V30 5135 H 490.403 1.54301 1.45962 0
M  V30 5136 H 492.666 0.644224 0.69547 0
M  V30 5137 H 492.372 1.922 2.94537 0
M  V30 5138 H 492.246 0.369682 3.75384 0
M  V30 5139 H 494.633 -0.202973 2.94401 0
M  V30 5140 H 494.714 1.37858 2.15474 0
M  V30 5141 H 494.358 2.50231 4.4198 0
M  V30 5142 H 494.288 0.896958 5.18905 0
M  V30 5143 H 496.779 1.03768 3.63374 0
M  V30 5144 H 497.092 2.71633 7.23488 0
M  V30 5145 H 495.437 2.43636 6.50897 0
M  V30 5146 H 498.628 1.36617 4.4772 0
M  V30 5147 H 498.801 2.13143 6.11943 0
M  V30 5148 N 492.207 -1.54576 0.307264 0
M  V30 5149 C 493.137 -2.26708 -0.55907 0
M  V30 5150 C 494.118 -1.26893 -1.1328 0
M  V30 5151 O 495.303 -1.55677 -1.16097 0
M  V30 5152 C 492.433 -3.01259 -1.72801 0
M  V30 5153 C 491.387 -4.08275 -1.28435 0
M  V30 5154 C 490.713 -4.70575 -2.53895 0
M  V30 5155 C 492.013 -5.2068 -0.411038 0
M  V30 5156 H 493.707 -2.9937 0.042576 0
M  V30 5157 H 491.253 -1.43983 0.0219173 0
M  V30 5158 H 493.206 -3.50444 -2.34023 0
M  V30 5159 H 491.93 -2.26187 -2.356 0
M  V30 5160 H 490.589 -3.59949 -0.695161 0
M  V30 5161 H 490.237 -3.92136 -3.15021 0
M  V30 5162 H 489.937 -5.42854 -2.24908 0
M  V30 5163 H 491.461 -5.22527 -3.15908 0
M  V30 5164 H 492.875 -5.65721 -0.929097 0
M  V30 5165 H 491.272 -5.99716 -0.214664 0
M  V30 5166 H 492.342 -4.81629 0.562287 0
M  V30 5167 N 493.685 -0.035106 -1.57561 0
M  V30 5168 C 494.595 0.960295 -2.14046 0
M  V30 5169 C 495.611 1.3529 -1.0942 0
M  V30 5170 O 496.787 1.43309 -1.41508 0
M  V30 5171 C 493.852 2.22214 -2.66124 0
M  V30 5172 C 492.913 1.8894 -3.85487 0
M  V30 5173 C 492.146 3.09109 -4.35072 0
M  V30 5174 O 492.369 4.21963 -3.83802 0
M  V30 5175 O 491.303 2.91058 -5.26848 0
M  V30 5176 H 495.129 0.509983 -2.99387 0
M  V30 5177 H 492.714 0.185853 -1.48239 0
M  V30 5178 H 494.596 2.96279 -2.99661 0
M  V30 5179 H 493.271 2.66414 -1.83862 0
M  V30 5180 H 492.178 1.12241 -3.56865 0
M  V30 5181 H 493.511 1.49551 -4.6893 0
M  V30 5182 N 495.163 1.55791 0.238111 0
M  V30 5183 C 496.073 1.94196 1.31625 0
M  V30 5184 C 497.089 0.843545 1.52185 0
M  V30 5185 O 498.265 1.1457 1.65637 0
M  V30 5186 C 495.33 2.2365 2.64918 0
M  V30 5187 C 494.391 3.46971 2.52804 0
M  V30 5188 C 493.624 3.7501 3.79741 0
M  V30 5189 O 493.847 3.04982 4.82019 0
M  V30 5190 O 492.781 4.68525 3.77846 0
M  V30 5191 H 496.607 2.86044 1.02043 0
M  V30 5192 H 494.192 1.42786 0.439603 0
M  V30 5193 H 496.074 2.43863 3.4367 0
M  V30 5194 H 494.749 1.34979 2.94215 0
M  V30 5195 H 493.656 3.32055 1.72309 0
M  V30 5196 H 494.989 4.35971 2.28451 0
M  V30 5197 N 496.642 -0.504142 1.49319 0
M  V30 5198 C 498.058 -0.835039 1.36012 0
M  V30 5199 C 498.258 -1.97674 0.390808 0
M  V30 5200 O 497.314 -2.51867 -0.178655 0
M  V30 5201 C 498.627 -1.17821 2.76656 0
M  V30 5202 C 500.175 -1.2866 2.85334 0
M  V30 5203 C 500.65 -1.66307 4.26739 0
M  V30 5204 N 502.141 -1.73362 4.29534 0
M  V30 5205 C 502.876 -2.0393 5.35911 0
M  V30 5206 N 502.372 -2.32744 6.52535 0
M  V30 5207 N 504.165 -2.05155 5.23324 0
M  V30 5208 H 496.316 0.248764 2.10938 0
M  V30 5209 H 498.579 0.0486962 0.946748 0
M  V30 5210 H 498.285 -0.412682 3.4927 0
M  V30 5211 H 498.159 -2.12239 3.11825 0
M  V30 5212 H 500.546 -2.04285 2.1296 0
M  V30 5213 H 500.627 -0.323004 2.53752 0
M  V30 5214 H 500.271 -0.91234 4.99639 0
M  V30 5215 H 500.201 -2.63761 4.55782 0
M  V30 5216 H 502.692 -1.53268 3.45424 0
M  V30 5217 H 503.005 -2.55248 7.2943 0
M  V30 5218 H 501.35 -2.30207 6.55767 0
M  V30 5219 H 504.541 -1.82119 4.3122 0
M  V30 5220 H 504.714 -2.28644 6.06322 0
M  V30 5221 N 498.12 -1.38341 -0.754957 0
M  V30 5222 C 499.03 -1.3769 -1.89944 0
M  V30 5223 C 500.046 -0.274194 -1.71826 0
M  V30 5224 O 501.222 -0.512391 -1.94773 0
M  V30 5225 C 498.287 -1.19938 -3.25293 0
M  V30 5226 C 497.348 -2.40001 -3.55946 0
M  V30 5227 C 496.581 -2.23087 -4.84838 0
M  V30 5228 O 496.804 -1.22386 -5.57116 0
M  V30 5229 O 495.738 -3.11646 -5.14937 0
M  V30 5230 H 499.564 -2.3412 -1.93446 0
M  V30 5231 H 497.149 -1.19246 -0.900044 0
M  V30 5232 H 499.031 -1.12093 -4.06218 0
M  V30 5233 H 497.706 -0.265919 -3.22606 0
M  V30 5234 H 496.613 -2.53421 -2.75188 0
M  V30 5235 H 497.946 -3.31973 -3.63394 0
M  V30 5236 N 499.598 0.982988 -1.23187 0
M  V30 5237 C 500.844 1.72648 -1.06398 0
M  V30 5238 C 501.177 1.90066 0.398561 0
M  V30 5239 O 500.452 1.45105 1.29518 0
M  V30 5240 C 500.735 3.12627 -1.78707 0
M  V30 5241 C 500.588 3.02795 -3.32618 0
M  V30 5242 C 501.907 4.11997 -1.54747 0
M  V30 5243 H 499.026 0.626649 -0.387918 0
M  V30 5244 H 501.668 1.14455 -1.51658 0
M  V30 5245 H 499.818 3.62308 -1.40234 0
M  V30 5246 H 501.49 2.60659 -3.80598 0
M  V30 5247 H 499.733 2.39362 -3.61785 0
M  V30 5248 H 500.404 4.01893 -3.78399 0
M  V30 5249 H 502.88 3.71114 -1.88186 0
M  V30 5250 H 501.756 5.08037 -2.07821 0
M  V30 5251 H 502.017 4.39462 -0.482249 0
M  V30 5252 N 501.076 1.04316 1.18135 0
M  V30 5253 C 502.006 0.657299 2.24058 0
M  V30 5254 C 502.987 -0.340678 1.66654 0
M  V30 5255 O 504.172 -0.220223 1.92947 0
M  V30 5256 C 501.302 0.0220715 3.47293 0
M  V30 5257 C 500.256 0.943857 4.17463 0
M  V30 5258 C 499.582 0.172973 5.3442 0
M  V30 5259 C 500.882 2.26409 4.70677 0
M  V30 5260 H 502.576 1.5428 2.56589 0
M  V30 5261 H 500.122 0.743263 1.23335 0
M  V30 5262 H 502.075 -0.259607 4.206 0
M  V30 5263 H 500.799 -0.898323 3.14003 0
M  V30 5264 H 499.458 1.20996 3.46057 0
M  V30 5265 H 499.106 -0.749907 4.97379 0
M  V30 5266 H 498.806 0.787098 5.82304 0
M  V30 5267 H 500.33 -0.101628 6.10515 0
M  V30 5268 H 501.744 2.04294 5.35665 0
M  V30 5269 H 500.141 2.8314 5.29105 0
M  V30 5270 H 501.211 2.90883 3.87962 0
M  V30 5271 N 502.554 -1.34406 0.822964 0
M  V30 5272 C 503.501 -2.29519 0.24284 0
M  V30 5273 C 504.471 -1.5359 -0.632397 0
M  V30 5274 O 505.656 -1.8196 -0.57403 0
M  V30 5275 C 502.796 -3.40032 -0.58925 0
M  V30 5276 C 501.909 -4.30899 0.308236 0
M  V30 5277 C 501.044 -5.28515 -0.533425 0
M  V30 5278 C 500.083 -6.1102 0.363444 0
M  V30 5279 N 499.22 -7.00725 -0.439147 0
M  V30 5280 H 504.06 -2.78537 1.05929 0
M  V30 5281 H 501.597 -1.3707 0.533872 0
M  V30 5282 H 503.555 -4.0279 -1.087 0
M  V30 5283 H 502.185 -2.92248 -1.37081 0
M  V30 5284 H 501.237 -3.69002 0.924203 0
M  V30 5285 H 502.549 -4.88717 0.997862 0
M  V30 5286 H 501.703 -5.96725 -1.09565 0
M  V30 5287 H 500.442 -4.71235 -1.25656 0
M  V30 5288 H 499.447 -5.41743 0.937812 0
M  V30 5289 H 500.672 -6.70381 1.08469 0
M  V30 5290 H 498.618 -6.45913 -1.14595 0
M  V30 5291 H 498.535 -7.55756 0.19209 0
M  V30 5292 H 499.803 -7.73263 -0.984124 0
M  V30 5293 N 504.032 -0.577932 -1.46621 0
M  V30 5294 C 505.257 -0.0652536 -2.07297 0
M  V30 5295 C 505.682 1.22828 -1.4246 0
M  V30 5296 O 505.04 1.74075 -0.506718 0
M  V30 5297 C 505.088 0.0920589 -3.60482 0
M  V30 5298 O 504.192 1.14972 -3.96049 0
M  V30 5299 H 503.533 -0.06065 -0.661224 0
M  V30 5300 H 506.063 -0.799515 -1.88332 0
M  V30 5301 H 506.073 0.299741 -4.06897 0
M  V30 5302 H 504.748 -0.852612 -4.07067 0
M  V30 5303 H 503.325 0.920879 -3.61351 0
M  V30 5304 N 505.51 1.54411 -0.315457 0
M  V30 5305 C 506.457 2.24048 0.554166 0
M  V30 5306 C 507.427 1.2283 1.11812 0
M  V30 5307 O 508.612 1.51491 1.15997 0
M  V30 5308 C 505.752 2.99574 1.71316 0
M  V30 5309 C 504.865 4.15594 1.17922 0
M  V30 5310 C 504 4.78669 2.30324 0
M  V30 5311 C 503.039 5.86807 1.74137 0
M  V30 5312 N 502.176 6.43777 2.8017 0
M  V30 5313 H 507.016 2.97964 -0.0462602 0
M  V30 5314 H 504.553 1.47059 -0.0346009 0
M  V30 5315 H 506.511 3.41604 2.39505 0
M  V30 5316 H 505.141 2.28008 2.285 0
M  V30 5317 H 504.193 3.78404 0.389136 0
M  V30 5318 H 505.505 4.93459 0.728012 0
M  V30 5319 H 504.659 5.23626 3.06433 0
M  V30 5320 H 503.398 4.00168 2.78778 0
M  V30 5321 H 502.403 5.41261 0.965236 0
M  V30 5322 H 503.628 6.67201 1.2657 0
M  V30 5323 H 501.574 5.68153 3.2793 0
M  V30 5324 H 501.491 7.17031 2.39588 0
M  V30 5325 H 502.759 6.9339 3.56132 0
M  V30 5326 N 506.988 0.0434614 1.5754 0
M  V30 5327 C 507.898 -0.94893 2.14552 0
M  V30 5328 C 508.914 -1.34707 1.10136 0
M  V30 5329 O 510.09 -1.42557 1.42266 0
M  V30 5330 C 507.155 -2.208 2.67298 0
M  V30 5331 C 506.216 -1.86893 3.86484 0
M  V30 5332 C 505.449 -3.06797 4.36705 0
M  V30 5333 O 505.672 -4.19921 3.86034 0
M  V30 5334 O 504.606 -2.8826 5.28384 0
M  V30 5335 H 508.432 -0.494099 2.99654 0
M  V30 5336 H 506.017 -0.177989 1.48336 0
M  V30 5337 H 507.899 -2.94686 3.01228 0
M  V30 5338 H 506.574 -2.65436 1.85272 0
M  V30 5339 H 505.481 -1.10347 3.57455 0
M  V30 5340 H 506.814 -1.47062 4.69716 0
M  V30 5341 N 508.466 -1.55915 -0.229846 0
M  V30 5342 C 509.396 -1.94754 -1.28815 0
M  V30 5343 C 510.377 -0.814657 -1.49323 0
M  V30 5344 O 511.562 -1.07631 -1.61645 0
M  V30 5345 C 508.692 -2.25705 -2.63959 0
M  V30 5346 C 507.646 -3.41406 -2.5812 0
M  V30 5347 C 506.972 -3.57941 -3.97218 0
M  V30 5348 C 508.272 -4.76616 -2.13623 0
M  V30 5349 H 509.966 -2.83404 -0.965547 0
M  V30 5350 H 507.512 -1.36353 -0.463028 0
M  V30 5351 H 509.465 -2.51467 -3.38146 0
M  V30 5352 H 508.189 -1.339 -2.9789 0
M  V30 5353 H 506.848 -3.1568 -1.86391 0
M  V30 5354 H 506.496 -2.63526 -4.28443 0
M  V30 5355 H 506.196 -4.35757 -3.94195 0
M  V30 5356 H 507.72 -3.86042 -4.73079 0
M  V30 5357 H 509.134 -5.01637 -2.77549 0
M  V30 5358 H 507.531 -5.57655 -2.21677 0
M  V30 5359 H 508.601 -4.7253 -1.08829 0
M  V30 5360 N 509.944 0.496216 -1.49584 0
M  V30 5361 C 511.192 1.24756 -1.58998 0
M  V30 5362 C 511.513 1.92968 -0.280775 0
M  V30 5363 O 510.783 1.82959 0.700198 0
M  V30 5364 H 509.363 0.463471 -0.585836 0
M  V30 5365 H 512.025 0.574678 -1.86235 0
M  V30 5366 H 511.121 2.00895 -2.38847 0
M  V30 5367 N 511.423 1.38739 0.74761 0
M  V30 5368 C 512.669 1.35475 1.50912 0
M  V30 5369 C 513.002 -0.0533093 1.94127 0
M  V30 5370 O 512.277 -1.01572 1.65871 0
M  V30 5371 C 512.56 2.31582 2.75757 0
M  V30 5372 C 512.413 3.81274 2.38642 0
M  V30 5373 C 513.732 2.25722 3.77806 0
M  V30 5374 H 510.851 0.493427 0.547447 0
M  V30 5375 H 513.493 1.69634 0.855823 0
M  V30 5376 H 511.643 2.02582 3.31501 0
M  V30 5377 H 513.315 4.20972 1.88626 0
M  V30 5378 H 511.558 3.98664 1.71025 0
M  V30 5379 H 512.229 4.4399 3.27989 0
M  V30 5380 H 514.705 2.51336 3.31616 0
M  V30 5381 H 513.581 2.95069 4.62845 0
M  V30 5382 H 513.842 1.25803 4.23823 0
M  V30 5383 N 512.901 -0.976442 1.23707 0
M  V30 5384 C 513.864 -2.0511 1.02287 0
M  V30 5385 C 514.864 -1.60791 -0.0167195 0
M  V30 5386 O 516.054 -1.72761 0.223408 0
M  V30 5387 C 513.186 -3.36458 0.548507 0
M  V30 5388 H 514.379 -2.25545 1.9766 0
M  V30 5389 H 511.932 -1.15042 1.05806 0
M  V30 5390 H 512.667 -3.21713 -0.408818 0
M  V30 5391 H 512.452 -3.69967 1.29874 0
M  V30 5392 H 513.942 -4.15489 0.419406 0
M  V30 5393 N 514.379 -1.04941 -1.1758 0
M  V30 5394 C 515.607 -0.778294 -1.91703 0
M  V30 5395 C 516.022 0.665697 -1.76675 0
M  V30 5396 O 515.379 1.45456 -1.10222 0
M  V30 5397 C 515.43 -1.14628 -3.42845 0
M  V30 5398 O 515.151 -2.53359 -3.57409 0
M  V30 5399 C 516.652 -0.900931 -4.34049 0
M  V30 5400 H 513.872 -0.283167 -0.608323 0
M  V30 5401 H 516.416 -1.39942 -1.49119 0
M  V30 5402 H 514.571 -0.569953 -3.83184 0
M  V30 5403 H 514.985 -2.67709 -4.51035 0
M  V30 5404 H 516.459 -1.20817 -5.38616 0
M  V30 5405 H 516.936 0.163966 -4.38894 0
M  V30 5406 H 517.542 -1.46097 -3.99419 0
M  V30 5407 N 515.857 1.33968 -0.830081 0
M  V30 5408 C 516.805 2.31301 -0.245435 0
M  V30 5409 C 517.799 1.57734 0.617762 0
M  V30 5410 O 519.005 1.72674 0.508303 0
M  V30 5411 H 515.38 0.749552 -0.0606316 0
M  V30 5412 H 517.351 2.78129 -1.08105 0
M  V30 5413 C 516.1 3.42961 0.572084 0
M  V30 5414 H 515.423 3.99714 -0.0828118 0
M  V30 5415 H 516.863 4.13286 0.94715 0
M  V30 5416 C 515.322 2.88043 1.74737 0
M  V30 5417 O 515.852 2.83508 2.8458 0
M  V30 5418 N 514.058 2.44768 1.56642 0
M  V30 5419 H 513.605 2.48656 0.672901 0
M  V30 5420 H 513.563 2.08375 2.3543 0
M  V30 5421 O 517.374 0.726383 1.44243 0
M  V30 5422 H 518.065 0.275111 1.91736 0
M  V30 END ATOM
M  V30 BEGIN BOND
M  V30 END BOND
M  V30 END CTAB
M  END
$$$$
