drugbank_target|P06493 Cyclin-dependent kinase 1 (DB02052; DB02116; DB02950; DB03428; DB03496; DB04014; DB06195; DB08142; DB12010)
 OpenBabel12092119473D

  0  0  0     0  0            999 V3000
M  V30 BEGIN CTAB
M  V30 COUNTS 4851 4906 0 0 0
M  V30 BEGIN ATOM
M  V30 1 H -0.908 1.98254 -0.117106 0
M  V30 2 N 0 1.576 0 0
M  V30 3 C 0.933 2.03868 1.02534 0
M  V30 4 C 1.911 0.928543 1.3348 0
M  V30 5 O 3.095 1.19667 1.45644 0
M  V30 6 C 0.222 2.43627 2.35294 0
M  V30 7 C -0.732 3.65373 2.2001 0
M  V30 8 S 0.101 5.13292 1.52614 0
M  V30 9 C 1.257 5.56322 2.86805 0
M  V30 10 H 1.49 2.90518 0.631377 0
M  V30 11 H -0.977 1.52953 0.210867 0
M  V30 12 H 0.981 2.67203 3.11629 0
M  V30 13 H -0.358 1.57376 2.7183 0
M  V30 14 H -1.165 3.90944 3.18086 0
M  V30 15 H -1.563 3.418 1.51819 0
M  V30 16 H 0.729 5.58782 3.83104 0
M  V30 17 H 1.672 6.56266 2.65933 0
M  V30 18 H 2.08 4.83886 2.90714 0
M  V30 19 N 1.4781 -0.272755 1.55222 0
M  V30 20 C 2.3881 -1.35918 1.91216 0
M  V30 21 C 3.4041 -1.54026 0.809436 0
M  V30 22 O 4.5801 -1.68148 1.10852 0
M  V30 23 C 1.6451 -2.69834 2.17693 0
M  V30 24 C 0.7061 -2.6047 3.41253 0
M  V30 25 C -0.0609 -3.88 3.66458 0
M  V30 26 O 0.1621 -4.88693 2.94169 0
M  V30 27 O -0.9039 -3.88189 4.59992 0
M  V30 28 H 2.9221 -1.0839 2.83699 0
M  V30 29 H 0.5071 -0.471301 1.41771 0
M  V30 30 H 2.3891 -3.49017 2.36147 0
M  V30 31 H 1.0641 -2.97148 1.28392 0
M  V30 32 H -0.0289 -1.79663 3.28134 0
M  V30 33 H 1.3041 -2.38106 4.30774 0
M  V30 34 N 2.9562 -1.48159 -0.537278 0
M  V30 35 C 4.2332 -1.46291 -1.29839 0
M  V30 36 C 4.6132 -0.170613 -2.10409 0
M  V30 37 O 3.9612 0.847746 -2.12192 0
M  V30 38 C 4.1712 -2.72055 -2.18603 0
M  V30 39 C 5.5192 -3.20087 -2.7898 0
M  V30 40 O 6.5432 -2.72921 -2.28894 0
M  V30 41 O 5.4022 -4.02138 -3.70064 0
M  V30 42 H 2.4962 -0.583906 -0.585647 0
M  V30 43 H 5.0422 -1.60384 -0.554534 0
M  V30 44 H 3.8142 -3.57628 -1.58801 0
M  V30 45 H 3.4372 -2.60646 -3.00249 0
M  V30 46 N 4.4343 0.785586 -1.36625 0
M  V30 47 C 5.6643 1.5722 -1.34036 0
M  V30 48 C 6.0723 1.89033 0.0795062 0
M  V30 49 O 5.4153 1.50881 1.04789 0
M  V30 50 C 5.4773 2.91759 -2.10041 0
M  V30 51 C 5.1413 2.82654 -3.59104 0
M  V30 52 C 6.1383 2.54634 -4.53274 0
M  V30 53 C 3.8233 3.01111 -4.02042 0
M  V30 54 C 5.8173 2.45177 -5.88359 0
M  V30 55 C 3.5043 2.91276 -5.37216 0
M  V30 56 C 4.5023 2.63348 -6.30188 0
M  V30 57 O 4.1903 2.53514 -7.6288 0
M  V30 58 H 3.9223 0.494177 -0.461265 0
M  V30 59 H 6.4763 0.982632 -1.8037 0
M  V30 60 H 4.7063 3.52781 -1.58375 0
M  V30 61 H 6.3953 3.53059 -2.00261 0
M  V30 62 H 7.1613 2.40073 -4.21414 0
M  V30 63 H 3.0403 3.21854 -3.30047 0
M  V30 64 H 6.5843 2.23299 -6.60896 0
M  V30 65 H 2.4813 3.054 -5.68684 0
M  V30 66 H 3.2493 2.68967 -7.73045 0
M  V30 67 N 5.9124 1.20967 1.01018 0
M  V30 68 C 7.1404 1.04956 1.78303 0
M  V30 69 C 7.5554 -0.400915 1.84494 0
M  V30 70 O 6.9124 -1.27826 1.30257 0
M  V30 71 C 6.9634 1.63403 3.22462 0
M  V30 72 O 6.6844 3.02775 3.16637 0
M  V30 73 C 8.1854 1.52432 4.16268 0
M  V30 74 H 5.4054 0.368858 0.560522 0
M  V30 75 H 7.9494 1.60193 1.27116 0
M  V30 76 H 6.1044 1.1227 3.70775 0
M  V30 77 H 6.5184 3.30626 4.07169 0
M  V30 78 H 7.9924 1.98078 5.15237 0
M  V30 79 H 8.4694 0.477875 4.36592 0
M  V30 80 H 9.0754 2.02787 3.73841 0
M  V30 81 N 7.3905 -1.2043 1.01659 0
M  V30 82 C 8.3375 -2.23215 0.586822 0
M  V30 83 C 9.3075 -1.61382 -0.393085 0
M  V30 84 O 10.4925 -1.88544 -0.292525 0
M  V30 85 C 7.6325 -3.45032 -0.0687464 0
M  V30 86 C 6.7455 -4.21296 0.955724 0
M  V30 87 C 5.8805 -5.30507 0.271208 0
M  V30 88 C 4.9195 -5.98515 1.28244 0
M  V30 89 N 4.0565 -6.99316 0.62459 0
M  V30 90 H 8.8965 -2.59336 1.46796 0
M  V30 91 H 6.4335 -1.27431 0.734836 0
M  V30 92 H 8.3915 -4.1459 -0.465965 0
M  V30 93 H 7.0215 -3.09604 -0.913529 0
M  V30 94 H 6.0735 -3.50803 1.4711 0
M  V30 95 H 7.3855 -4.6803 1.72479 0
M  V30 96 H 6.5395 -6.06428 -0.18151 0
M  V30 97 H 5.2785 -4.8481 -0.530163 0
M  V30 98 H 4.2835 -5.21355 1.74554 0
M  V30 99 H 5.5085 -6.46298 2.08509 0
M  V30 100 H 3.4545 -6.55812 -0.156914 0
M  V30 101 H 3.3715 -7.44178 1.33172 0
M  V30 102 H 4.6395 -7.79255 0.195462 0
M  V30 103 N 8.8686 -0.792821 -1.36206 0
M  V30 104 C 10.1176 -0.363353 -1.984 0
M  V30 105 C 10.4306 1.07172 -1.63626 0
M  V30 106 O 11.6366 1.60362 -2.19081 0
M  V30 107 C 10.0926 -0.59872 -3.54885 0
M  V30 108 C 9.7006 -2.04543 -3.9858 0
M  V30 109 C 11.4446 -0.233926 -4.23855 0
M  V30 110 C 9.3516 -2.22727 -5.47856 0
M  V30 111 H 8.2816 -0.13212 -0.742334 0
M  V30 112 H 10.9326 -0.974935 -1.55458 0
M  V30 113 H 9.3146 0.0826222 -3.95914 0
M  V30 114 H 10.4886 -2.76345 -3.68741 0
M  V30 115 H 8.8036 -2.36879 -3.42458 0
M  V30 116 H 11.4006 -0.348027 -5.33566 0
M  V30 117 H 11.7436 0.818351 -4.08177 0
M  V30 118 H 12.2766 -0.868639 -3.882 0
M  V30 119 H 9.0156 -3.2635 -5.68486 0
M  V30 120 H 8.5356 -1.55434 -5.7931 0
M  V30 121 H 10.2146 -2.03607 -6.14128 0
M  V30 122 N 10.3467 1.47872 -0.545128 0
M  V30 123 C 11.2567 2.33633 0.212746 0
M  V30 124 C 12.2727 1.4744 0.923983 0
M  V30 125 O 13.4487 1.80393 0.895572 0
M  V30 126 C 10.5137 3.23884 1.23693 0
M  V30 127 C 9.5747 4.25961 0.534417 0
M  V30 128 C 8.8077 5.11899 1.5098 0
M  V30 129 O 9.0307 5.00077 2.7437 0
M  V30 130 O 7.9647 5.92831 1.0409 0
M  V30 131 H 11.7907 2.99714 -0.490416 0
M  V30 132 H 9.3757 1.46235 -0.305871 0
M  V30 133 H 11.2577 3.79666 1.82843 0
M  V30 134 H 9.9327 2.60446 1.92222 0
M  V30 135 H 8.8397 3.73972 -0.0979679 0
M  V30 136 H 10.1727 4.92079 -0.109213 0
M  V30 137 N 11.8248 0.280983 1.55075 0
M  V30 138 C 12.7718 -0.603937 2.22758 0
M  V30 139 C 13.7418 -1.1452 1.20309 0
M  V30 140 O 14.9268 -1.19343 1.48869 0
M  V30 141 C 12.0668 -1.77947 2.95684 0
M  V30 142 C 11.1798 -1.2715 4.12864 0
M  V30 143 C 10.3148 -2.4093 4.7342 0
M  V30 144 C 9.3538 -1.87165 5.82783 0
M  V30 145 N 8.4908 -2.94441 6.37377 0
M  V30 146 H 13.3308 -0.020124 2.97993 0
M  V30 147 H 10.8678 0.00183425 1.471 0
M  V30 148 H 12.8258 -2.47055 3.36184 0
M  V30 149 H 11.4558 -2.33522 2.22861 0
M  V30 150 H 10.5078 -0.473331 3.77444 0
M  V30 151 H 11.8198 -0.837751 4.91715 0
M  V30 152 H 10.9738 -3.18021 5.1667 0
M  V30 153 H 9.7128 -2.87623 3.93859 0
M  V30 154 H 8.7178 -1.08556 5.38976 0
M  V30 155 H 9.9428 -1.41401 6.64216 0
M  V30 156 H 7.8888 -3.40505 5.60707 0
M  V30 157 H 7.8058 -2.55501 7.11516 0
M  V30 158 H 9.0738 -3.71489 6.85285 0
M  V30 159 N 13.3029 -1.57598 0.00835791 0
M  V30 160 C 14.5519 -1.90107 -0.673968 0
M  V30 161 C 14.8649 -0.884275 -1.7447 0
M  V30 162 O 16.0709 -1.09987 -2.48224 0
M  V30 163 C 14.5269 -3.37497 -1.24995 0
M  V30 164 C 14.1349 -4.47491 -0.2136 0
M  V30 165 C 15.8789 -3.79104 -1.90999 0
M  V30 166 C 13.7859 -5.85963 -0.80005 0
M  V30 167 H 12.7159 -0.709393 -0.255495 0
M  V30 168 H 15.3669 -1.83365 0.0702693 0
M  V30 169 H 13.7489 -3.39102 -2.04513 0
M  V30 170 H 14.9229 -4.57414 0.557596 0
M  V30 171 H 13.2379 -4.14956 0.346474 0
M  V30 172 H 15.8349 -4.79901 -2.35795 0
M  V30 173 H 16.1779 -3.1306 -2.74407 0
M  V30 174 H 16.7109 -3.79833 -1.18203 0
M  V30 175 H 13.4499 -6.555 -0.00456708 0
M  V30 176 H 12.9699 -5.79687 -1.54021 0
M  V30 177 H 14.6489 -6.33884 -1.29615 0
M  V30 178 N 14.781 0.264519 -1.55364 0
M  V30 179 C 16.029 0.993021 -1.76021 0
M  V30 180 C 16.35 1.86511 -0.569099 0
M  V30 181 O 15.62 1.91438 0.415735 0
M  V30 182 H 14.2 0.369639 -0.649135 0
M  V30 183 H 16.862 0.286707 -1.9278 0
M  V30 184 H 15.958 1.62502 -2.66457 0
M  V30 185 N 16.2591 1.48442 0.529413 0
M  V30 186 C 17.1691 1.6569 1.66084 0
M  V30 187 C 18.1851 0.539432 1.65427 0
M  V30 188 O 19.3611 0.810572 1.84368 0
M  V30 189 C 16.4261 1.69315 3.02545 0
M  V30 190 C 15.4871 2.92694 3.14052 0
M  V30 191 C 14.7201 2.96137 4.44003 0
M  V30 192 O 14.9431 2.07973 5.31134 0
M  V30 193 O 13.8771 3.88312 4.59888 0
M  V30 194 H 17.7031 2.61483 1.54469 0
M  V30 195 H 15.2881 1.3185 0.702567 0
M  V30 196 H 17.1701 1.74217 3.83701 0
M  V30 197 H 15.8451 0.766966 3.14483 0
M  V30 198 H 14.7521 2.93324 2.32189 0
M  V30 199 H 16.0851 3.84699 3.0703 0
M  V30 200 N 17.7372 -0.778329 1.37039 0
M  V30 201 C 18.9852 -1.53361 1.31623 0
M  V30 202 C 19.3062 -1.94739 -0.100831 0
M  V30 203 O 18.5762 -1.65797 -1.04347 0
M  V30 204 H 17.1562 -0.568794 0.484234 0
M  V30 205 H 19.8182 -0.926742 1.71457 0
M  V30 206 H 18.9142 -2.43606 1.95096 0
M  V30 207 N 19.2153 -1.21501 -1.00376 0
M  V30 208 C 20.4433 -1.059 -1.77744 0
M  V30 209 C 20.8583 0.391125 -1.84704 0
M  V30 210 O 20.2153 1.27133 -1.30933 0
M  V30 211 C 20.2663 -1.65111 -3.21591 0
M  V30 212 O 19.9873 -3.0445 -3.15027 0
M  V30 213 C 21.4883 -1.54637 -4.15454 0
M  V30 214 H 18.7083 -0.371825 -0.558558 0
M  V30 215 H 21.2523 -1.60865 -1.26264 0
M  V30 216 H 19.4073 -1.14235 -3.70175 0
M  V30 217 H 19.8213 -3.3278 -4.0541 0
M  V30 218 H 21.2953 -2.00808 -5.14179 0
M  V30 219 H 21.7723 -0.501022 -4.36333 0
M  V30 220 H 22.3783 -2.04767 -3.72761 0
M  V30 221 N 20.6934 1.19889 -1.02296 0
M  V30 222 C 21.9234 1.93109 -0.734332 0
M  V30 223 C 22.3314 1.75377 0.709889 0
M  V30 224 O 21.6744 1.06912 1.49384 0
M  V30 225 C 21.7364 3.45362 -0.99827 0
M  V30 226 C 21.4004 3.8686 -2.43287 0
M  V30 227 C 22.3974 3.92102 -3.41397 0
M  V30 228 C 20.0824 4.18668 -2.77529 0
M  V30 229 C 22.0764 4.28573 -4.71809 0
M  V30 230 C 19.7634 4.54813 -4.08153 0
M  V30 231 C 20.7614 4.59739 -5.05103 0
M  V30 232 O 20.4494 4.95051 -6.33388 0
M  V30 233 H 20.1814 0.620409 -0.268456 0
M  V30 234 H 22.7354 1.53144 -1.3688 0
M  V30 235 H 20.9654 3.85482 -0.306645 0
M  V30 236 H 22.6544 3.99814 -0.700234 0
M  V30 237 H 23.4204 3.67685 -3.1628 0
M  V30 238 H 19.2994 4.14021 -2.0275 0
M  V30 239 H 22.8434 4.32333 -5.4748 0
M  V30 240 H 18.7404 4.78687 -4.33047 0
M  V30 241 H 19.5084 5.1302 -6.37772 0
M  V30 242 N 22.1715 0.800033 1.35784 0
M  V30 243 C 23.4195 0.376597 1.9856 0
M  V30 244 C 23.7405 -1.05812 1.63795 0
M  V30 245 O 23.0105 -1.73103 0.917171 0
M  V30 246 H 21.5905 0.136261 0.734467 0
M  V30 247 H 24.2525 1.02442 1.65806 0
M  V30 248 H 23.3485 0.477002 3.08433 0
M  V30 249 N 23.6496 -1.47581 0.552962 0
M  V30 250 C 24.8956 -2.02782 0.0273648 0
M  V30 251 C 25.2286 -1.42687 -1.31734 0
M  V30 252 O 24.5036 -0.580897 -1.85623 0
M  V30 253 C 24.7866 -3.60031 -0.0702371 0
M  V30 254 C 24.6396 -4.30566 1.30126 0
M  V30 255 C 25.9586 -4.33028 -0.785771 0
M  V30 256 H 23.0776 -0.736912 0.0114185 0
M  V30 257 H 25.7196 -1.76056 0.714432 0
M  V30 258 H 23.8696 -3.82932 -0.655382 0
M  V30 259 H 25.5416 -4.19018 1.92929 0
M  V30 260 H 23.7846 -3.91086 1.87709 0
M  V30 261 H 24.4556 -5.39114 1.18573 0
M  V30 262 H 26.9316 -4.15095 -0.288982 0
M  V30 263 H 25.8076 -5.42695 -0.823013 0
M  V30 264 H 26.0686 -4.01945 -1.841 0
M  V30 265 N 25.1277 -0.289203 -1.54924 0
M  V30 266 C 26.3737 0.323998 -2.00195 0
M  V30 267 C 26.7067 1.54441 -1.17735 0
M  V30 268 O 25.9817 1.92875 -0.250878 0
M  V30 269 C 26.2647 0.692276 -3.53383 0
M  V30 270 C 26.1177 -0.536457 -4.46589 0
M  V30 271 C 27.4367 1.52335 -4.12895 0
M  V30 272 H 24.5557 0.116289 -0.727768 0
M  V30 273 H 27.1977 -0.398954 -1.85764 0
M  V30 274 H 25.3477 1.30822 -3.65811 0
M  V30 275 H 27.0197 -1.17499 -4.46085 0
M  V30 276 H 25.2627 -1.17192 -4.1767 0
M  V30 277 H 25.9337 -0.234806 -5.515 0
M  V30 278 H 28.4097 1.00302 -4.0383 0
M  V30 279 H 27.2857 1.74982 -5.20262 0
M  V30 280 H 27.5467 2.50886 -3.64018 0
M  V30 281 N 26.6058 1.57591 -0.0167156 0
M  V30 282 C 27.8358 1.95292 0.674149 0
M  V30 283 C 28.2438 0.891097 1.66901 0
M  V30 284 O 27.5868 -0.136908 1.83189 0
M  V30 285 C 27.6488 3.29072 1.44747 0
M  V30 286 C 27.3128 4.52879 0.612331 0
M  V30 287 C 28.3098 5.1979 -0.107126 0
M  V30 288 C 25.9948 4.99242 0.553381 0
M  V30 289 C 27.9888 6.31375 -0.874339 0
M  V30 290 C 25.6758 6.10713 -0.217546 0
M  V30 291 C 26.6738 6.76637 -0.930123 0
M  V30 292 O 26.3618 7.85969 -1.68844 0
M  V30 293 H 26.0938 0.648275 0.191615 0
M  V30 294 H 28.6478 2.05284 -0.0690148 0
M  V30 295 H 26.8778 3.15535 2.2355 0
M  V30 296 H 28.5668 3.51764 2.02526 0
M  V30 297 H 29.3328 4.84948 -0.0708392 0
M  V30 298 H 25.2118 4.47744 1.09757 0
M  V30 299 H 28.7558 6.82764 -1.43106 0
M  V30 300 H 24.6528 6.44994 -0.255593 0
M  V30 301 H 25.4208 8.02571 -1.6069 0
M  V30 302 N 28.0839 -0.256276 1.55502 0
M  V30 303 C 29.0309 -1.31714 1.89526 0
M  V30 304 C 30.0009 -1.4828 0.748479 0
M  V30 305 O 31.1859 -1.62416 1.00128 0
M  V30 306 C 28.3259 -2.66933 2.18725 0
M  V30 307 C 27.4389 -2.58452 3.4616 0
M  V30 308 C 26.5739 -3.85961 3.64976 0
M  V30 309 C 25.6129 -3.72059 4.86044 0
M  V30 310 N 24.7499 -4.9144 5.01429 0
M  V30 311 H 29.5899 -1.01998 2.80001 0
M  V30 312 H 27.1269 -0.492413 1.38613 0
M  V30 313 H 29.0849 -3.4563 2.33657 0
M  V30 314 H 27.7149 -2.94816 1.31466 0
M  V30 315 H 26.7669 -1.71374 3.3961 0
M  V30 316 H 28.0789 -2.44085 4.34999 0
M  V30 317 H 27.2329 -4.73101 3.79816 0
M  V30 318 H 25.9719 -4.03215 2.74353 0
M  V30 319 H 24.9769 -2.83302 4.7119 0
M  V30 320 H 26.2019 -3.56309 5.78118 0
M  V30 321 H 24.1479 -5.09072 4.13741 0
M  V30 322 H 24.0649 -4.79668 5.84341 0
M  V30 323 H 25.3329 -5.80104 5.20672 0
M  V30 324 N 29.562 -1.4872 -0.521534 0
M  V30 325 C 30.81 -1.56857 -1.27437 0
M  V30 326 C 31.131 -0.247982 -1.93417 0
M  V30 327 O 30.401 0.731151 -1.81744 0
M  V30 328 H 28.981 -0.577885 -0.473347 0
M  V30 329 H 31.643 -1.85233 -0.606205 0
M  V30 330 H 30.739 -2.35402 -2.0492 0
M  V30 331 N 31.0401 0.771051 -1.3745 0
M  V30 332 C 32.4561 1.07171 -1.18265 0
M  V30 333 C 32.6561 2.01491 -0.019287 0
M  V30 334 O 31.7121 2.44244 0.640408 0
M  V30 335 C 33.0251 1.66854 -2.50161 0
M  V30 336 C 34.5731 1.79109 -2.56689 0
M  V30 337 C 35.0481 2.42205 -3.88717 0
M  V30 338 N 36.5391 2.49655 -3.90162 0
M  V30 339 C 37.2741 2.9933 -4.8907 0
M  V30 340 N 36.7701 3.49172 -5.98374 0
M  V30 341 N 38.5631 2.9821 -4.76474 0
M  V30 342 H 30.7141 0.144796 -2.11906 0
M  V30 343 H 32.9771 0.126863 -0.939473 0
M  V30 344 H 32.6831 1.05017 -3.35655 0
M  V30 345 H 32.5571 2.6614 -2.673 0
M  V30 346 H 34.9441 2.40077 -1.71601 0
M  V30 347 H 35.0251 0.785757 -2.43433 0
M  V30 348 H 34.6691 1.81875 -4.74219 0
M  V30 349 H 34.5991 3.43345 -3.99276 0
M  V30 350 H 37.0901 2.14383 -3.11205 0
M  V30 351 H 37.4031 3.8548 -6.69795 0
M  V30 352 H 35.7481 3.47275 -6.02018 0
M  V30 353 H 38.9391 2.58572 -3.90203 0
M  V30 354 H 39.1121 3.36613 -5.53711 0
M  V30 355 N 32.5182 1.22032 0.997298 0
M  V30 356 C 33.4682 0.953838 2.07089 0
M  V30 357 C 34.4522 -0.0938669 1.60626 0
M  V30 358 O 35.6442 0.116078 1.76619 0
M  V30 359 C 32.7732 0.528726 3.39204 0
M  V30 360 C 31.8592 1.61092 3.92314 0
M  V30 361 N 32.2502 2.83768 4.18699 0
M  V30 362 C 30.5482 1.48158 4.20672 0
M  V30 363 C 31.2492 3.53715 4.61802 0
M  V30 364 N 30.2252 2.81174 4.65233 0
M  V30 365 H 34.0272 1.88577 2.25424 0
M  V30 366 H 31.5412 1.11719 1.17867 0
M  V30 367 H 33.5382 0.31915 4.15677 0
M  V30 368 H 32.1982 -0.39635 3.22272 0
M  V30 369 H 33.2092 3.20238 4.07023 0
M  V30 370 H 29.8862 0.622369 4.12835 0
M  V30 371 H 31.2762 4.58793 4.90875 0
M  V30 372 N 33.9963 -1.19345 1.0293 0
M  V30 373 C 34.9433 -2.2258 0.610464 0
M  V30 374 C 35.9133 -1.6179 -0.375946 0
M  V30 375 O 37.0983 -1.88844 -0.272511 0
M  V30 376 C 34.2383 -3.45085 -0.0321473 0
M  V30 377 C 33.3513 -4.20258 1.00035 0
M  V30 378 C 32.4863 -5.3019 0.32746 0
M  V30 379 C 31.5253 -5.97121 1.34584 0
M  V30 380 N 30.6623 -6.98615 0.698726 0
M  V30 381 H 35.5023 -2.57764 1.49538 0
M  V30 382 H 33.0393 -1.26644 0.748311 0
M  V30 383 H 34.9973 -4.15061 -0.421966 0
M  V30 384 H 33.6273 -3.10555 -0.88064 0
M  V30 385 H 32.6793 -3.49223 1.50823 0
M  V30 386 H 33.9913 -4.66175 1.77433 0
M  V30 387 H 33.1453 -6.06587 -0.11718 0
M  V30 388 H 31.8843 -4.85345 -0.478713 0
M  V30 389 H 30.8893 -5.19474 1.80074 0
M  V30 390 H 32.1143 -6.4405 2.15352 0
M  V30 391 H 30.0603 -6.55942 -0.0873471 0
M  V30 392 H 29.9773 -7.42724 1.41058 0
M  V30 393 H 31.2453 -7.79004 0.278102 0
M  V30 394 N 35.4744 -0.807222 -1.35358 0
M  V30 395 C 36.7024 -0.400377 -2.02989 0
M  V30 396 C 37.1174 0.988859 -1.60832 0
M  V30 397 O 36.4744 1.63729 -0.806175 0
M  V30 398 C 36.5254 -0.474867 -3.58368 0
M  V30 399 O 36.2464 -1.80933 -3.98992 0
M  V30 400 C 37.7474 -0.0609112 -4.43258 0
M  V30 401 H 34.9674 -0.162587 -0.651004 0
M  V30 402 H 37.5114 -1.09102 -1.72965 0
M  V30 403 H 35.6664 0.167534 -3.87038 0
M  V30 404 H 36.0804 -1.77256 -4.9364 0
M  V30 405 H 37.5544 -0.164145 -5.51756 0
M  V30 406 H 38.0314 0.993831 -4.27808 0
M  V30 407 H 38.6374 -0.676492 -4.19885 0
M  V30 408 N 36.9525 1.47285 -0.560781 0
M  V30 409 C 38.1805 2.06855 -0.0430262 0
M  V30 410 C 38.5955 1.41291 1.25229 0
M  V30 411 O 37.9525 0.510648 1.7521 0
M  V30 412 C 38.0035 3.61178 0.152518 0
M  V30 413 O 37.7245 4.24285 -1.0915 0
M  V30 414 C 39.2255 4.37624 0.707145 0
M  V30 415 H 36.4455 0.669319 -0.0474652 0
M  V30 416 H 38.9895 1.89237 -0.77521 0
M  V30 417 H 37.1445 3.78298 0.834843 0
M  V30 418 H 37.5585 5.16868 -0.891482 0
M  V30 419 H 39.0325 5.46271 0.793244 0
M  V30 420 H 39.5095 4.04152 1.71923 0
M  V30 421 H 40.1155 4.25257 0.0604027 0
M  V30 422 N 38.4306 0.297415 1.54768 0
M  V30 423 C 39.6786 -0.312295 1.99673 0
M  V30 424 C 39.9996 -1.54686 1.18732 0
M  V30 425 O 39.2696 -1.93854 0.282382 0
M  V30 426 H 37.8496 -0.118381 0.73756 0
M  V30 427 H 40.5116 0.407915 1.90583 0
M  V30 428 H 39.6076 -0.586813 3.06534 0
M  V30 429 N 39.9087 -1.5758 0.0250728 0
M  V30 430 C 40.8407 -2.06869 -0.986796 0
M  V30 431 C 41.8537 -0.991332 -1.29137 0
M  V30 432 O 43.0427 -1.26761 -1.25674 0
M  V30 433 C 40.1427 -2.47486 -2.31525 0
M  V30 434 C 39.3157 -3.78253 -2.19643 0
M  V30 435 C 38.3747 -4.05464 -3.35388 0
M  V30 436 O 37.4007 -4.75774 -3.12454 0
M  V30 437 N 38.6027 -3.55321 -4.59051 0
M  V30 438 H 41.3677 -2.94302 -0.566276 0
M  V30 439 H 38.9287 -1.6109 -0.161776 0
M  V30 440 H 40.9207 -2.62785 -3.07776 0
M  V30 441 H 39.4907 -1.65441 -2.65232 0
M  V30 442 H 38.7107 -3.7279 -1.28144 0
M  V30 443 H 39.9987 -4.63936 -2.08903 0
M  V30 444 H 39.3967 -2.98431 -4.80578 0
M  V30 445 H 37.9537 -3.75905 -5.32483 0
M  V30 446 N 41.3868 0.248026 -1.55636 0
M  V30 447 C 42.6328 0.97767 -1.77678 0
M  V30 448 C 42.9658 1.85016 -0.590135 0
M  V30 449 O 42.2408 1.90095 0.411611 0
M  V30 450 C 42.5238 1.83914 -3.09593 0
M  V30 451 C 42.3768 0.99491 -4.38659 0
M  V30 452 C 43.6958 2.82183 -3.37729 0
M  V30 453 H 40.8148 0.354005 -0.646413 0
M  V30 454 H 43.4568 0.248253 -1.88371 0
M  V30 455 H 41.6068 2.46104 -3.00608 0
M  V30 456 H 43.2788 0.391789 -4.59633 0
M  V30 457 H 41.5218 0.299231 -4.32767 0
M  V30 458 H 42.1928 1.63145 -5.2734 0
M  V30 459 H 44.6688 2.30129 -3.4667 0
M  V30 460 H 43.5448 3.39582 -4.31249 0
M  V30 461 H 43.8058 3.58588 -2.58586 0
M  V30 462 N 42.8649 1.48995 0.513639 0
M  V30 463 C 44.1109 1.58076 1.27042 0
M  V30 464 C 44.4439 0.261026 1.92438 0
M  V30 465 O 43.7189 -0.734393 1.80103 0
M  V30 466 C 44.0019 2.73091 2.34719 0
M  V30 467 C 43.8549 4.14821 1.73907 0
M  V30 468 C 45.1739 2.83796 3.36375 0
M  V30 469 H 42.2929 0.575391 0.460536 0
M  V30 470 H 44.9349 1.81232 0.570516 0
M  V30 471 H 43.0849 2.53479 2.94416 0
M  V30 472 H 44.7569 4.45917 1.18135 0
M  V30 473 H 42.9999 4.21058 1.0437 0
M  V30 474 H 43.6709 4.91147 2.51949 0
M  V30 475 H 46.1469 3.01611 2.86653 0
M  V30 476 H 45.0229 3.65971 4.09093 0
M  V30 477 H 45.2839 1.92624 3.9793 0
M  V30 478 N 44.343 -0.763751 1.37857 0
M  V30 479 C 45.306 -1.85889 1.34081 0
M  V30 480 C 46.306 -1.58949 0.243277 0
M  V30 481 O 47.496 -1.66882 0.499589 0
M  V30 482 C 44.628 -3.23176 1.08489 0
M  V30 483 H 45.821 -1.90648 2.31502 0
M  V30 484 H 43.374 -0.964367 1.23003 0
M  V30 485 H 44.109 -3.24091 0.116318 0
M  V30 486 H 43.894 -3.44124 1.8794 0
M  V30 487 H 45.384 -4.03254 1.08517 0
M  V30 488 N 45.8211 -1.22559 -0.990812 0
M  V30 489 C 46.7541 -0.940773 -2.07905 0
M  V30 490 C 47.7321 0.117082 -1.62178 0
M  V30 491 O 48.9161 -0.0149506 -1.88494 0
M  V30 492 C 46.0431 -0.415321 -3.36144 0
M  V30 493 C 45.0891 -1.45818 -4.00799 0
M  V30 494 S 45.9221 -3.03219 -4.41382 0
M  V30 495 C 47.0781 -2.52317 -5.72789 0
M  V30 496 H 47.3111 -1.8623 -2.31745 0
M  V30 497 H 44.8441 -1.05688 -1.12558 0
M  V30 498 H 46.8021 -0.118747 -4.10328 0
M  V30 499 H 45.4631 0.485121 -3.10331 0
M  V30 500 H 44.6561 -1.04044 -4.93144 0
M  V30 501 H 44.2581 -1.70356 -3.32949 0
M  V30 502 H 46.5501 -1.93688 -6.49224 0
M  V30 503 H 47.4931 -3.43161 -6.19392 0
M  V30 504 H 47.9011 -1.93529 -5.30289 0
M  V30 505 N 47.2992 1.18797 -1.03562 0
M  V30 506 C 48.2462 2.22253 -0.622259 0
M  V30 507 C 49.2162 1.61987 0.36736 0
M  V30 508 O 50.4012 1.88986 0.262492 0
M  V30 509 C 47.5412 3.45097 0.0138462 0
M  V30 510 C 46.6542 4.19722 -1.02263 0
M  V30 511 C 45.7892 5.30009 -0.355573 0
M  V30 512 C 44.8282 5.96399 -1.37749 0
M  V30 513 N 43.9652 6.98234 -0.735766 0
M  V30 514 H 48.8052 2.56968 -1.50903 0
M  V30 515 H 46.3422 1.26245 -0.755017 0
M  V30 516 H 48.3002 4.15279 0.399948 0
M  V30 517 H 46.9302 3.11018 0.864158 0
M  V30 518 H 45.9822 3.48418 -1.52673 0
M  V30 519 H 47.2942 4.65227 -1.79903 0
M  V30 520 H 46.4482 6.0664 0.0850095 0
M  V30 521 H 45.1872 4.85592 0.452967 0
M  V30 522 H 44.1922 5.18512 -1.82826 0
M  V30 523 H 45.4172 6.42899 -2.18764 0
M  V30 524 H 43.3632 6.55979 0.0525597 0
M  V30 525 H 43.2802 7.41965 -1.44995 0
M  V30 526 H 44.5482 7.78845 -0.31941 0
M  V30 527 N 48.7773 0.814389 1.34928 0
M  V30 528 C 49.7243 0.22822 2.29669 0
M  V30 529 C 50.6943 -0.642164 1.53184 0
M  V30 530 O 51.8793 -0.585605 1.81591 0
M  V30 531 C 49.0193 -0.61089 3.3965 0
M  V30 532 C 48.1323 0.280792 4.31086 0
M  V30 533 C 47.2673 -0.567067 5.28165 0
M  V30 534 C 46.3063 0.324531 6.11239 0
M  V30 535 N 45.4433 -0.483756 7.00431 0
M  V30 536 H 50.2833 1.04153 2.79206 0
M  V30 537 H 47.8203 0.525133 1.37407 0
M  V30 538 H 49.7783 -1.11263 4.0209 0
M  V30 539 H 48.4083 -1.38939 2.91369 0
M  V30 540 H 47.4603 0.900688 3.69583 0
M  V30 541 H 48.7723 0.966723 4.89342 0
M  V30 542 H 47.9263 -1.13363 5.96015 0
M  V30 543 H 46.6653 -1.28654 4.70425 0
M  V30 544 H 45.6703 0.903298 5.42329 0
M  V30 545 H 46.8953 1.04198 6.71059 0
M  V30 546 H 44.8413 -1.18706 6.45171 0
M  V30 547 H 44.7583 0.143965 7.55863 0
M  V30 548 H 46.0263 -1.03334 7.7262 0
M  V30 549 N 50.2554 -1.46986 0.568584 0
M  V30 550 C 51.5044 -2.01646 0.0465894 0
M  V30 551 C 51.8174 -1.44721 -1.31587 0
M  V30 552 O 53.0234 -1.91113 -1.92842 0
M  V30 553 C 51.4794 -3.59885 0.032752 0
M  V30 554 C 51.0874 -4.25804 1.39266 0
M  V30 555 C 52.8314 -4.22255 -0.436038 0
M  V30 556 C 50.7384 -5.76081 1.33732 0
M  V30 557 H 49.6684 -0.753876 0.013647 0
M  V30 558 H 52.3194 -1.68864 0.718131 0
M  V30 559 H 50.7014 -3.8968 -0.704669 0
M  V30 560 H 51.8754 -4.07637 2.1487 0
M  V30 561 H 50.1904 -3.7547 1.80032 0
M  V30 562 H 52.7874 -5.32394 -0.49602 0
M  V30 563 H 53.1304 -3.90212 -1.45053 0
M  V30 564 H 53.6634 -3.97033 0.246877 0
M  V30 565 H 50.4024 -6.12761 2.32817 0
M  V30 566 H 49.9224 -5.96553 0.623267 0
M  V30 567 H 51.6014 -6.38518 1.0442 0
M  V30 568 N 51.7335 -0.305618 -1.54608 0
M  V30 569 C 53.1495 0.0476228 -1.59529 0
M  V30 570 C 53.3495 1.52025 -1.32252 0
M  V30 571 O 52.4055 2.27368 -1.09818 0
M  V30 572 C 53.7185 -0.354471 -2.98603 0
M  V30 573 C 55.2665 -0.303622 -3.11524 0
M  V30 574 C 55.7415 -0.680608 -4.52915 0
M  V30 575 N 57.2325 -0.63332 -4.5885 0
M  V30 576 C 57.9675 -0.897432 -5.66334 0
M  V30 577 N 57.4635 -1.22775 -6.81834 0
M  V30 578 N 59.2565 -0.824186 -5.56025 0
M  V30 579 H 51.4075 -1.2653 -1.70599 0
M  V30 580 H 53.6705 -0.513291 -0.797017 0
M  V30 581 H 53.3765 -1.3798 -3.23503 0
M  V30 582 H 53.2505 0.289568 -3.76087 0
M  V30 583 H 55.6375 0.712472 -2.8637 0
M  V30 584 H 55.7185 -0.982348 -2.36185 0
M  V30 585 H 55.3625 -1.69453 -4.78799 0
M  V30 586 H 55.2925 0.0202385 -5.26596 0
M  V30 587 H 57.7835 -0.389138 -3.75891 0
M  V30 588 H 58.0965 -1.41513 -7.59733 0
M  V30 589 H 56.4415 -1.26583 -6.83375 0
M  V30 590 H 59.6325 -0.565748 -4.64669 0
M  V30 591 H 59.8055 -1.03338 -6.39707 0
M  V30 592 N 53.2116 1.57565 -0.0334293 0
M  V30 593 C 54.1416 2.13511 0.945265 0
M  V30 594 C 55.1226 1.05231 1.33643 0
M  V30 595 O 56.3076 1.33084 1.41429 0
M  V30 596 C 53.4376 2.6657 2.22616 0
M  V30 597 C 52.3916 3.79676 1.97561 0
M  V30 598 C 51.7176 4.1918 3.31952 0
M  V30 599 C 53.0176 5.0557 1.31135 0
M  V30 600 H 54.7116 2.95538 0.479325 0
M  V30 601 H 52.2576 1.42166 0.229115 0
M  V30 602 H 54.2106 3.04344 2.91466 0
M  V30 603 H 52.9346 1.8171 2.71384 0
M  V30 604 H 51.5936 3.42347 1.31127 0
M  V30 605 H 51.2416 3.31296 3.78487 0
M  V30 606 H 50.9416 4.95402 3.15992 0
M  V30 607 H 52.4656 4.59541 4.02063 0
M  V30 608 H 53.8796 5.40903 1.89992 0
M  V30 609 H 52.2766 5.86818 1.25559 0
M  V30 610 H 53.3466 4.84062 0.284894 0
M  V30 611 N 54.6897 -0.239769 1.55765 0
M  V30 612 C 55.5997 -1.31831 1.94056 0
M  V30 613 C 56.6157 -1.52275 0.841925 0
M  V30 614 O 57.7917 -1.65759 1.14394 0
M  V30 615 C 54.8567 -2.65156 2.23368 0
M  V30 616 C 53.9177 -2.53173 3.46701 0
M  V30 617 C 53.1507 -3.8014 3.74606 0
M  V30 618 O 53.3737 -4.82343 3.04469 0
M  V30 619 O 52.3077 -3.78344 4.68123 0
M  V30 620 H 56.1337 -1.02347 2.85935 0
M  V30 621 H 53.7187 -0.441123 1.42739 0
M  V30 622 H 55.6007 -3.43929 2.43497 0
M  V30 623 H 54.2757 -2.94358 1.34666 0
M  V30 624 H 53.1827 -1.72662 3.31871 0
M  V30 625 H 54.5157 -2.28915 4.35728 0
M  V30 626 N 56.1678 -1.49265 -0.50573 0
M  V30 627 C 57.3928 -1.62478 -1.28902 0
M  V30 628 C 57.8178 -0.294332 -1.85783 0
M  V30 629 O 57.1758 0.737412 -1.65626 0
M  V30 630 C 57.2238 -2.69268 -2.39848 0
M  V30 631 O 56.3278 -2.28113 -3.43567 0
M  V30 632 H 55.6688 -0.54399 -0.380751 0
M  V30 633 H 58.1988 -1.95421 -0.605952 0
M  V30 634 H 58.2088 -2.91291 -2.85681 0
M  V30 635 H 56.8838 -3.65846 -1.97812 0
M  V30 636 H 55.4608 -2.16401 -3.03685 0
M  V30 637 N 57.6459 0.756429 -1.3826 0
M  V30 638 C 58.5559 1.9009 -1.37488 0
M  V30 639 C 59.5719 1.71855 -0.272366 0
M  V30 640 O 60.7479 1.94827 -0.510318 0
M  V30 641 C 57.8129 3.25421 -1.19592 0
M  V30 642 C 56.8739 3.56202 -2.39622 0
M  V30 643 C 56.1069 4.85075 -2.2257 0
M  V30 644 O 56.3299 5.57246 -1.21793 0
M  V30 645 O 55.2639 5.15269 -3.11098 0
M  V30 646 H 59.0899 1.93695 -2.33914 0
M  V30 647 H 56.6749 0.901313 -1.1915 0
M  V30 648 H 58.5569 4.06337 -1.11661 0
M  V30 649 H 57.2319 3.22634 -0.262486 0
M  V30 650 H 56.1389 2.75458 -2.53128 0
M  V30 651 H 57.4719 3.63747 -3.31586 0
M  V30 652 N 59.124 1.23083 0.984299 0
M  V30 653 C 60.034 1.02515 2.11016 0
M  V30 654 C 61.05 -0.0291702 1.73976 0
M  V30 655 O 62.226 0.165434 2.00719 0
M  V30 656 C 59.291 0.614673 3.41208 0
M  V30 657 C 58.352 1.74359 3.92297 0
M  V30 658 C 57.585 1.35261 5.16275 0
M  V30 659 O 57.808 0.235136 5.69915 0
M  V30 660 O 56.742 2.17227 5.61334 0
M  V30 661 H 60.568 1.96862 2.31255 0
M  V30 662 H 58.153 1.01753 1.09392 0
M  V30 663 H 60.035 0.396518 4.1953 0
M  V30 664 H 58.71 -0.299851 3.22308 0
M  V30 665 H 57.617 2.01635 3.1511 0
M  V30 666 H 58.95 2.63629 4.15645 0
M  V30 667 N 60.6021 -1.18246 1.0419 0
M  V30 668 C 61.5121 -2.25574 0.644476 0
M  V30 669 C 62.5281 -1.70845 -0.329826 0
M  V30 670 O 63.7041 -2.00554 -0.184443 0
M  V30 671 C 60.7691 -3.46697 0.014877 0
M  V30 672 C 59.8301 -4.16554 1.03834 0
M  V30 673 C 59.0631 -5.31894 0.438692 0
M  V30 674 O 59.2861 -5.65385 -0.754752 0
M  V30 675 O 58.2201 -5.90459 1.168 0
M  V30 676 H 62.0461 -2.61836 1.53869 0
M  V30 677 H 59.6311 -1.25352 0.812854 0
M  V30 678 H 61.5131 -4.20062 -0.335538 0
M  V30 679 H 60.1881 -3.12255 -0.853138 0
M  V30 680 H 59.0951 -3.45251 1.44057 0
M  V30 681 H 60.4281 -4.54998 1.87716 0
M  V30 682 N 62.0802 -0.821533 -1.34494 0
M  V30 683 C 63.3282 -0.408139 -1.97936 0
M  V30 684 C 63.6492 1.03193 -1.65457 0
M  V30 685 O 62.9192 1.71622 -0.944595 0
M  V30 686 H 61.4992 -0.147928 -0.732206 0
M  V30 687 H 64.1612 -1.05067 -1.64155 0
M  V30 688 H 63.2572 -0.52601 -3.07635 0
M  V30 689 N 63.5583 1.46682 -0.576371 0
M  V30 690 C 64.8043 2.02712 -0.0596221 0
M  V30 691 C 65.1373 1.44765 1.29448 0
M  V30 692 O 64.4123 0.610355 1.84675 0
M  V30 693 C 64.6953 3.60098 0.0129503 0
M  V30 694 C 64.5483 4.28441 -1.3696 0
M  V30 695 C 65.8673 4.34224 0.71678 0
M  V30 696 H 62.9863 0.736637 -0.0231407 0
M  V30 697 H 65.6283 1.74898 -0.742351 0
M  V30 698 H 63.7783 3.83926 0.594378 0
M  V30 699 H 65.4503 4.15896 -1.9957 0
M  V30 700 H 63.6933 3.8805 -1.93907 0
M  V30 701 H 64.3643 5.3716 -1.27135 0
M  V30 702 H 66.8403 4.15503 0.222908 0
M  V30 703 H 65.7163 5.43936 0.73657 0
M  V30 704 H 65.9773 4.04823 1.77682 0
M  V30 705 N 65.0364 0.313813 1.54444 0
M  V30 706 C 66.4474 -0.176243 1.85866 0
M  V30 707 C 66.7984 -1.52405 1.23561 0
M  V30 708 O 65.9234 -2.09605 0.538016 0
M  V30 709 C 66.5184 -0.32657 3.37222 0
M  V30 710 C 65.0774 -0.760846 3.6863 0
M  V30 711 C 64.2244 0.123247 2.77026 0
M  V30 712 H 67.1754 0.534418 1.49431 0
M  V30 713 H 67.1964 -1.15908 3.62416 0
M  V30 714 H 66.7084 0.654531 3.82541 0
M  V30 715 H 64.8094 -1.75204 3.28838 0
M  V30 716 H 64.9224 -0.571353 4.75681 0
M  V30 717 H 63.2864 -0.399597 2.51546 0
M  V30 718 H 64.0694 1.10094 3.25168 0
M  V30 719 N 66.5145 -1.57545 0.0417849 0
M  V30 720 C 67.7395 -1.97035 -0.647455 0
M  V30 721 C 68.1645 -0.918775 -1.64135 0
M  V30 722 O 67.5225 0.119006 -1.80909 0
M  V30 723 C 67.5705 -3.35609 -1.31905 0
M  V30 724 O 66.6745 -3.3287 -2.43457 0
M  V30 725 H 66.0155 -0.64211 -0.169086 0
M  V30 726 H 68.5455 -2.04318 0.107399 0
M  V30 727 H 68.5555 -3.72126 -1.67291 0
M  V30 728 H 67.2305 -4.11685 -0.590586 0
M  V30 729 H 65.8075 -3.08087 -2.10088 0
M  V30 730 N 67.9926 0.231505 -1.5589 0
M  V30 731 C 69.2206 0.974505 -1.82513 0
M  V30 732 C 69.6356 1.78344 -0.619591 0
M  V30 733 O 68.9926 1.77792 0.411848 0
M  V30 734 C 69.0436 1.90007 -3.07538 0
M  V30 735 O 68.7646 1.12385 -4.2344 0
M  V30 736 C 70.2656 2.75779 -3.47075 0
M  V30 737 H 67.4856 0.286065 -0.606966 0
M  V30 738 H 70.0296 0.249739 -2.02969 0
M  V30 739 H 68.1846 2.57891 -2.89086 0
M  V30 740 H 68.5986 1.75125 -4.944 0
M  V30 741 H 70.0726 3.36443 -4.37619 0
M  V30 742 H 70.5496 3.47672 -2.68367 0
M  V30 743 H 71.1556 2.13323 -3.67931 0
M  V30 744 N 69.4707 1.49531 0.497807 0
M  V30 745 C 70.4337 1.65916 1.58128 0
M  V30 746 C 71.4337 0.530825 1.51786 0
M  V30 747 O 72.6237 0.797342 1.54881 0
M  V30 748 C 69.7557 1.65951 2.9778 0
M  V30 749 H 70.9487 2.62556 1.44929 0
M  V30 750 H 68.5017 1.38611 0.722275 0
M  V30 751 H 69.2367 0.709065 3.16453 0
M  V30 752 H 69.0217 2.47897 3.03792 0
M  V30 753 H 70.5117 1.80673 3.76493 0
M  V30 754 N 70.9488 -0.749086 1.3866 0
M  V30 755 C 72.1978 -1.50371 1.3443 0
M  V30 756 C 72.5108 -1.95503 -0.0616397 0
M  V30 757 O 73.7168 -2.70554 -0.226489 0
M  V30 758 C 72.1728 -2.71644 2.36088 0
M  V30 759 C 71.7808 -2.3352 3.82325 0
M  V30 760 C 73.5248 -3.49518 2.40909 0
M  V30 761 C 71.4318 -3.51431 4.75658 0
M  V30 762 H 70.3618 -0.564628 0.499712 0
M  V30 763 H 73.0128 -0.818449 1.64237 0
M  V30 764 H 71.3948 -3.42175 1.9933 0
M  V30 765 H 72.5688 -1.70627 4.28046 0
M  V30 766 H 70.8838 -1.6877 3.80665 0
M  V30 767 H 73.4808 -4.37197 3.07836 0
M  V30 768 H 73.8238 -3.90992 1.42937 0
M  V30 769 H 74.3568 -2.86005 2.76489 0
M  V30 770 H 71.0958 -3.15019 5.74842 0
M  V30 771 H 70.6158 -4.13352 4.34627 0
M  V30 772 H 72.2948 -4.17953 4.93887 0
M  V30 773 N 72.4269 -1.23603 -0.977757 0
M  V30 774 C 73.8429 -0.999251 -1.24447 0
M  V30 775 C 74.0429 0.298053 -1.99283 0
M  V30 776 O 73.0989 1.01681 -2.31122 0
M  V30 777 C 74.4119 -2.20784 -2.04144 0
M  V30 778 C 75.9599 -2.25303 -2.17273 0
M  V30 779 C 76.4349 -3.45755 -3.00362 0
M  V30 780 N 77.9259 -3.4601 -3.07947 0
M  V30 781 C 78.6609 -4.35868 -3.72568 0
M  V30 782 N 78.1569 -5.35966 -4.38991 0
M  V30 783 N 79.9499 -4.23605 -3.6948 0
M  V30 784 H 72.1009 -2.06986 -0.476483 0
M  V30 785 H 74.3639 -0.907801 -0.273134 0
M  V30 786 H 74.0699 -3.14945 -1.56533 0
M  V30 787 H 73.9439 -2.22085 -3.04891 0
M  V30 788 H 76.3309 -1.3168 -2.64092 0
M  V30 789 H 76.4119 -2.28033 -1.15907 0
M  V30 790 H 76.0559 -4.39687 -2.5424 0
M  V30 791 H 75.9859 -3.40266 -4.01904 0
M  V30 792 H 78.4769 -2.73588 -2.60688 0
M  V30 793 H 78.7899 -6.00783 -4.86086 0
M  V30 794 H 77.1349 -5.39863 -4.37691 0
M  V30 795 H 80.3259 -3.44647 -3.16759 0
M  V30 796 H 80.4989 -4.93836 -4.1956 0
M  V30 797 N 73.905 1.17692 -1.04816 0
M  V30 798 C 74.815 2.25229 -0.65643 0
M  V30 799 C 75.831 1.71018 0.320761 0
M  V30 800 O 77.007 2.00649 0.173805 0
M  V30 801 C 74.072 3.46684 -0.0332629 0
M  V30 802 C 73.133 4.15997 -1.06042 0
M  V30 803 C 72.366 5.31654 -0.466893 0
M  V30 804 O 72.589 5.65777 0.724758 0
M  V30 805 O 71.523 5.89831 -1.1993 0
M  V30 806 H 75.349 2.61016 -1.55255 0
M  V30 807 H 72.934 1.24919 -0.81949 0
M  V30 808 H 74.816 4.20234 0.313256 0
M  V30 809 H 73.491 3.12703 0.836566 0
M  V30 810 H 72.398 3.44482 -1.45886 0
M  V30 811 H 73.731 4.53996 -1.90127 0
M  V30 812 N 75.3831 0.828654 1.34056 0
M  V30 813 C 76.6321 0.415828 1.97367 0
M  V30 814 C 76.9451 -1.02796 1.6641 0
M  V30 815 O 78.1511 -1.54497 2.23255 0
M  V30 816 C 76.6071 0.692601 3.53173 0
M  V30 817 C 76.2151 2.15038 3.93017 0
M  V30 818 C 77.9591 0.346222 4.23086 0
M  V30 819 C 75.8661 2.37174 5.41758 0
M  V30 820 H 74.7961 0.151755 0.738571 0
M  V30 821 H 77.4471 1.01581 1.52819 0
M  V30 822 H 75.8291 0.0223764 3.95994 0
M  V30 823 H 77.0031 2.86024 3.61285 0
M  V30 824 H 75.3181 2.45875 3.36057 0
M  V30 825 H 77.9151 0.48937 5.32456 0
M  V30 826 H 78.2581 -0.709842 4.10204 0
M  V30 827 H 78.7911 0.971258 3.85761 0
M  V30 828 H 75.5301 3.41308 5.59633 0
M  V30 829 H 75.0501 1.70738 5.74986 0
M  V30 830 H 76.7291 2.19818 6.08514 0
M  V30 831 N 76.8612 -1.46375 0.584142 0
M  V30 832 C 78.0862 -2.07268 0.0740405 0
M  V30 833 C 78.5112 -1.42979 -1.22223 0
M  V30 834 O 77.8692 -0.514092 -1.73859 0
M  V30 835 C 77.9172 -3.60518 -0.0767769 0
M  V30 836 O 77.0212 -3.96533 -1.13292 0
M  V30 837 H 76.3622 -0.660961 0.0634524 0
M  V30 838 H 78.8922 -1.87991 0.807492 0
M  V30 839 H 78.9022 -4.07021 -0.282489 0
M  V30 840 H 77.5772 -4.06702 0.86986 0
M  V30 841 H 76.1542 -3.61738 -0.905553 0
M  V30 842 N 78.3393 -0.321999 -1.54275 0
M  V30 843 C 79.2693 0.537411 -2.27231 0
M  V30 844 C 80.2503 1.12064 -1.27968 0
M  V30 845 O 81.4353 1.14606 -1.56777 0
M  V30 846 C 78.5653 1.69919 -3.02894 0
M  V30 847 C 77.5193 1.24534 -4.09482 0
M  V30 848 C 76.8453 2.49394 -4.72977 0
M  V30 849 C 78.1453 0.361335 -5.21049 0
M  V30 850 H 79.8393 -0.0711406 -2.99315 0
M  V30 851 H 77.3853 -0.0356555 -1.43956 0
M  V30 852 H 79.3383 2.30668 -3.52662 0
M  V30 853 H 78.0623 2.33431 -2.28424 0
M  V30 854 H 76.7213 0.660782 -3.60596 0
M  V30 855 H 76.3693 3.11265 -3.95124 0
M  V30 856 H 76.0693 2.19718 -5.44975 0
M  V30 857 H 77.5933 3.10908 -5.25517 0
M  V30 858 H 79.0073 0.875072 -5.66582 0
M  V30 859 H 77.4043 0.157428 -5.99893 0
M  V30 860 H 78.4743 -0.60822 -4.8107 0
M  V30 861 N 79.8174 1.5752 -0.0501392 0
M  V30 862 C 80.7474 2.14502 0.922566 0
M  V30 863 C 81.7284 1.06642 1.3252 0
M  V30 864 O 82.9134 1.34577 1.4001 0
M  V30 865 C 80.0434 2.68916 2.19776 0
M  V30 866 C 78.9974 3.8175 1.93523 0
M  V30 867 C 78.3234 4.22677 3.27487 0
M  V30 868 C 79.6234 5.06932 1.25765 0
M  V30 869 H 81.3174 2.9603 0.447952 0
M  V30 870 H 78.8634 1.42401 0.214024 0
M  V30 871 H 80.8164 3.07419 2.88222 0
M  V30 872 H 79.5404 1.84578 2.69441 0
M  V30 873 H 78.1994 3.43718 1.27489 0
M  V30 874 H 77.8474 3.35291 3.74952 0
M  V30 875 H 77.5474 4.98725 3.1072 0
M  V30 876 H 79.0714 4.63779 3.97166 0
M  V30 877 H 80.4854 5.42888 1.84244 0
M  V30 878 H 78.8824 5.88116 1.19328 0
M  V30 879 H 79.9524 4.84337 0.233536 0
M  V30 880 N 81.2955 -0.223234 1.56011 0
M  V30 881 C 82.2425 -1.27664 1.92277 0
M  V30 882 C 83.2125 -1.46659 0.779763 0
M  V30 883 O 84.3975 -1.60256 1.03551 0
M  V30 884 C 81.5375 -2.62234 2.24338 0
M  V30 885 C 80.6505 -2.51051 3.51564 0
M  V30 886 C 79.7855 -3.78133 3.7308 0
M  V30 887 C 78.8245 -3.61665 4.93827 0
M  V30 888 N 77.9615 -4.80693 5.11741 0
M  V30 889 H 82.8015 -0.960358 2.82101 0
M  V30 890 H 80.3385 -0.462901 1.39627 0
M  V30 891 H 82.2965 -3.40596 2.40936 0
M  V30 892 H 80.9265 -2.91961 1.3769 0
M  V30 893 H 79.9785 -1.64132 3.43169 0
M  V30 894 H 81.2905 -2.34803 4.40079 0
M  V30 895 H 80.4445 -4.64938 3.89766 0
M  V30 896 H 79.1835 -3.97304 2.82844 0
M  V30 897 H 78.1885 -2.73244 4.77093 0
M  V30 898 H 79.4135 -3.43966 5.85546 0
M  V30 899 H 77.3595 -5.00181 4.24446 0
M  V30 900 H 77.2765 -4.67165 5.94384 0
M  V30 901 H 78.5445 -5.6893 5.3286 0
M  V30 902 N 82.7736 -1.49793 -0.48987 0
M  V30 903 C 83.6836 -1.70036 -1.61632 0
M  V30 904 C 84.6996 -0.583102 -1.63939 0
M  V30 905 O 85.8756 -0.859169 -1.82154 0
M  V30 906 C 82.9406 -1.77277 -2.97949 0
M  V30 907 C 82.0016 -3.00918 -3.06181 0
M  V30 908 C 81.2346 -3.07804 -4.35996 0
M  V30 909 O 81.4576 -2.21982 -5.25433 0
M  V30 910 O 80.3916 -4.00369 -4.49431 0
M  V30 911 H 84.2176 -2.65486 -1.47482 0
M  V30 912 H 81.8026 -1.33666 -0.667362 0
M  V30 913 H 83.6846 -1.84329 -3.78947 0
M  V30 914 H 82.3596 -0.850076 -3.12339 0
M  V30 915 H 81.2666 -2.99377 -2.2433 0
M  V30 916 H 82.5996 -3.92704 -2.96723 0
M  V30 917 N 84.2517 0.741722 -1.39055 0
M  V30 918 C 85.1817 1.869 -1.39966 0
M  V30 919 C 86.1627 1.6804 -0.26392 0
M  V30 920 O 87.3477 1.88458 -0.468755 0
M  V30 921 C 84.4777 3.24572 -1.23574 0
M  V30 922 C 83.4317 3.58056 -2.34477 0
M  V30 923 C 82.7577 4.94593 -2.0318 0
M  V30 924 C 84.0577 3.61716 -3.76774 0
M  V30 925 H 85.7517 1.86395 -2.34302 0
M  V30 926 H 83.2977 0.895361 -1.1278 0
M  V30 927 H 85.2507 4.031 -1.22834 0
M  V30 928 H 83.9747 3.25587 -0.257045 0
M  V30 929 H 82.6337 2.81854 -2.34423 0
M  V30 930 H 82.2817 4.92181 -1.03765 0
M  V30 931 H 81.9817 5.17964 -2.77465 0
M  V30 932 H 83.5057 5.75486 -2.04079 0
M  V30 933 H 84.9197 4.30335 -3.78794 0
M  V30 934 H 83.3167 3.96603 -4.50362 0
M  V30 935 H 84.3867 2.61672 -4.08235 0
M  V30 936 N 85.7298 1.2412 0.971189 0
M  V30 937 C 87.1458 1.00584 1.23916 0
M  V30 938 C 87.3458 -0.287481 1.99439 0
M  V30 939 O 86.4018 -1.00454 2.31658 0
M  V30 940 C 87.7148 2.21864 2.0297 0
M  V30 941 C 89.2628 2.26452 2.16076 0
M  V30 942 C 89.7378 3.47343 2.98524 0
M  V30 943 N 91.2288 3.47639 3.06107 0
M  V30 944 C 91.9638 4.37837 3.70251 0
M  V30 945 N 91.4598 5.38286 4.36142 0
M  V30 946 N 93.2528 4.25558 3.67228 0
M  V30 947 H 85.4038 2.07236 0.465499 0
M  V30 948 H 87.6668 0.909236 0.268315 0
M  V30 949 H 87.3728 3.15771 1.54861 0
M  V30 950 H 87.2468 2.23698 3.03709 0
M  V30 951 H 89.6338 1.33078 2.6339 0
M  V30 952 H 89.7148 2.28645 1.14696 0
M  V30 953 H 89.3588 4.41029 2.51905 0
M  V30 954 H 89.2888 3.42393 4.00093 0
M  V30 955 H 91.7798 2.74966 2.59233 0
M  V30 956 H 92.0928 6.03352 4.82894 0
M  V30 957 H 90.4378 5.42176 4.34822 0
M  V30 958 H 93.6288 3.46322 3.14927 0
M  V30 959 H 93.8018 4.96054 4.16935 0
M  V30 960 N 87.2079 -1.17134 1.05439 0
M  V30 961 C 88.1579 -2.1919 0.627675 0
M  V30 962 C 89.1419 -1.57328 -0.337147 0
M  V30 963 O 90.3339 -1.76329 -0.153976 0
M  V30 964 C 87.4629 -3.43299 0.00651435 0
M  V30 965 C 86.5489 -4.12255 0.995312 0
M  V30 966 N 86.9399 -4.56997 2.16765 0
M  V30 967 C 85.2379 -4.38316 0.824336 0
M  V30 968 C 85.9389 -5.10239 2.7934 0
M  V30 969 N 84.9149 -5.02595 2.07122 0
M  V30 970 H 88.7169 -2.5149 1.52086 0
M  V30 971 H 86.2309 -1.33491 0.924868 0
M  V30 972 H 88.2279 -4.15693 -0.316965 0
M  V30 973 H 86.8879 -3.1249 -0.882033 0
M  V30 974 H 87.8989 -4.51006 2.54587 0
M  V30 975 H 84.5759 -4.17498 -0.0129526 0
M  V30 976 H 85.9659 -5.54961 3.78772 0
M  V30 977 N 88.686 -0.835752 -1.33615 0
M  V30 978 C 90.097 -0.487099 -1.80234 0
M  V30 979 C 90.448 0.993627 -1.69179 0
M  V30 980 O 89.573 1.77403 -1.23924 0
M  V30 981 C 90.168 -0.877385 -3.27242 0
M  V30 982 C 88.727 -0.580915 -3.7189 0
M  V30 983 C 87.874 -1.0874 -2.5509 0
M  V30 984 H 90.825 -1.02474 -1.2118 0
M  V30 985 H 90.846 -0.186195 -3.80044 0
M  V30 986 H 90.358 -1.95512 -3.35256 0
M  V30 987 H 88.459 0.486881 -3.69405 0
M  V30 988 H 88.572 -1.13396 -4.65487 0
M  V30 989 H 86.936 -0.508392 -2.49575 0
M  V30 990 H 87.719 -2.17184 -2.65868 0
M  V30 991 N 90.1641 1.46063 -0.591896 0
M  V30 992 C 91.1121 2.32124 0.148739 0
M  V30 993 C 92.1061 1.45035 0.875286 0
M  V30 994 O 93.3121 1.61609 0.792632 0
M  V30 995 H 89.6871 0.749024 0.066832 0
M  V30 996 H 91.6581 2.92392 -0.595783 0
M  V30 997 C 90.4071 3.28373 1.1431 0
M  V30 998 H 89.7301 3.95371 0.59346 0
M  V30 999 H 91.1701 3.91352 1.63155 0
M  V30 1000 C 89.6291 2.54393 2.20875 0
M  V30 1001 O 90.1591 2.31373 3.28374 0
M  V30 1002 N 88.3651 2.14797 1.95731 0
M  V30 1003 H 87.9121 2.33719 1.08319 0
M  V30 1004 H 87.8701 1.65619 2.67241 0
M  V30 1005 N 91.6422 0.330177 1.54103 0
M  V30 1006 C 92.8912 -0.271336 1.99867 0
M  V30 1007 C 93.2042 -1.52723 1.22209 0
M  V30 1008 O 94.4102 -2.20515 1.58383 0
M  V30 1009 C 92.8662 -0.534032 3.55916 0
M  V30 1010 C 92.4742 0.705193 4.42415 0
M  V30 1011 C 94.2182 -1.09514 4.1013 0
M  V30 1012 C 92.1252 0.414035 5.89949 0
M  V30 1013 H 91.0552 -0.105166 0.74663 0
M  V30 1014 H 93.7062 0.443429 1.78062 0
M  V30 1015 H 92.0882 -1.30915 3.73734 0
M  V30 1016 H 93.2622 1.4804 4.36372 0
M  V30 1017 H 91.5772 1.18698 3.99124 0
M  V30 1018 H 94.1742 -1.3277 5.17954 0
M  V30 1019 H 94.5172 -2.04656 3.62521 0
M  V30 1020 H 95.0502 -0.381038 3.95971 0
M  V30 1021 H 91.7892 1.33481 6.41766 0
M  V30 1022 H 91.3092 -0.323336 5.98928 0
M  V30 1023 H 92.9882 0.0263105 6.46995 0
M  V30 1024 N 93.1203 -1.57491 0.0584922 0
M  V30 1025 C 94.3663 -1.93264 -0.614558 0
M  V30 1026 C 94.6993 -0.937717 -1.7006 0
M  V30 1027 O 93.9743 0.0351652 -1.94468 0
M  V30 1028 C 94.2573 -3.3938 -1.20386 0
M  V30 1029 C 94.1103 -4.49625 -0.125375 0
M  V30 1030 C 95.4293 -3.86039 -2.11334 0
M  V30 1031 H 92.5483 -0.702791 -0.221933 0
M  V30 1032 H 95.1903 -1.8961 0.12175 0
M  V30 1033 H 93.3403 -3.42626 -1.83139 0
M  V30 1034 H 95.0123 -4.58506 0.506971 0
M  V30 1035 H 93.2553 -4.30354 0.545672 0
M  V30 1036 H 93.9263 -5.48967 -0.577861 0
M  V30 1037 H 96.4023 -3.84716 -1.58534 0
M  V30 1038 H 95.2783 -4.88914 -2.49507 0
M  V30 1039 H 95.5393 -3.23215 -3.01636 0
M  V30 1040 N 94.5984 0.214957 -1.56127 0
M  V30 1041 C 95.8234 0.95924 -1.83884 0
M  V30 1042 C 96.2484 1.7689 -0.639644 0
M  V30 1043 O 95.6064 1.76566 0.411601 0
M  V30 1044 C 95.6544 1.84723 -3.09693 0
M  V30 1045 O 94.7584 2.94346 -2.8885 0
M  V30 1046 H 94.0994 0.27125 -0.606069 0
M  V30 1047 H 96.6294 0.226276 -2.03345 0
M  V30 1048 H 96.6394 2.25576 -3.39969 0
M  V30 1049 H 95.3144 1.25218 -3.96602 0
M  V30 1050 H 93.8914 2.57391 -2.69823 0
M  V30 1051 N 96.0765 1.50051 0.48192 0
M  V30 1052 C 97.0065 1.71046 1.58951 0
M  V30 1053 C 97.9875 0.559288 1.60642 0
M  V30 1054 O 99.1725 0.797243 1.77081 0
M  V30 1055 C 96.3025 1.79462 2.97339 0
M  V30 1056 C 95.2565 2.94558 3.10515 0
M  V30 1057 C 94.5825 2.88105 4.50444 0
M  V30 1058 C 95.8825 4.35227 2.88747 0
M  V30 1059 H 97.5765 2.6378 1.41635 0
M  V30 1060 H 95.1225 1.26936 0.679942 0
M  V30 1061 H 97.0755 1.92734 3.74742 0
M  V30 1062 H 95.7995 0.833412 3.15788 0
M  V30 1063 H 94.4585 2.80918 2.35543 0
M  V30 1064 H 94.1065 1.89853 4.65795 0
M  V30 1065 H 93.8065 3.65366 4.60197 0
M  V30 1066 H 95.3305 3.03412 5.29881 0
M  V30 1067 H 96.7445 4.49449 3.55905 0
M  V30 1068 H 95.1415 5.13856 3.09955 0
M  V30 1069 H 96.2115 4.48347 1.84696 0
M  V30 1070 N 97.5546 -0.734337 1.39446 0
M  V30 1071 C 98.4866 -1.85861 1.34121 0
M  V30 1072 C 99.4996 -1.60871 0.249864 0
M  V30 1073 O 100.689 -1.71093 0.508865 0
M  V30 1074 C 97.7886 -3.21899 1.05991 0
M  V30 1075 C 96.9616 -3.74239 2.26415 0
M  V30 1076 C 96.0206 -4.88841 1.94733 0
M  V30 1077 O 95.0466 -5.02468 2.67422 0
M  V30 1078 N 96.2486 -5.73261 0.913884 0
M  V30 1079 H 99.0136 -1.90934 2.31007 0
M  V30 1080 H 96.5746 -0.915102 1.33557 0
M  V30 1081 H 98.5666 -3.96136 0.828147 0
M  V30 1082 H 97.1366 -3.12091 0.178361 0
M  V30 1083 H 96.3566 -2.91347 2.65539 0
M  V30 1084 H 97.6446 -4.05942 3.06738 0
M  V30 1085 H 97.0426 -5.64842 0.311476 0
M  V30 1086 H 95.5996 -6.47563 0.742015 0
M  V30 1087 N 99.0327 -1.24633 -0.964593 0
M  V30 1088 C 100.31 -0.995809 -1.68354 0
M  V30 1089 C 100.69 0.480964 -2.05548 0
M  V30 1090 O 100.038 1.45599 -1.76105 0
M  V30 1091 C 100.248 -1.92177 -2.91323 0
M  V30 1092 C 101.596 -2.19446 -3.63495 0
M  V30 1093 O 102.62 -1.89855 -3.01386 0
M  V30 1094 O 101.479 -2.69714 -4.75307 0
M  V30 1095 H 98.5727 -0.376854 -0.736146 0
M  V30 1096 H 101.119 -1.35745 -1.0184 0
M  V30 1097 H 99.8907 -2.91938 -2.60553 0
M  V30 1098 H 99.5137 -1.56349 -3.65569 0
M  V30 1099 N 100.511 1.16574 -1.06058 0
M  V30 1100 C 101.757 1.87324 -0.777022 0
M  V30 1101 C 102.09 1.81351 0.694645 0
M  V30 1102 O 101.365 1.22753 1.50871 0
M  V30 1103 C 101.648 3.36991 -1.26922 0
M  V30 1104 C 101.501 3.51667 -2.80447 0
M  V30 1105 C 102.82 4.3131 -0.87521 0
M  V30 1106 H 99.9388 0.680191 -0.28374 0
M  V30 1107 H 102.581 1.37036 -1.3161 0
M  V30 1108 H 100.731 3.79949 -0.81063 0
M  V30 1109 H 102.403 3.17664 -3.34495 0
M  V30 1110 H 100.646 2.93656 -3.19294 0
M  V30 1111 H 101.317 4.56766 -3.0995 0
M  V30 1112 H 103.793 3.9624 -1.27014 0
M  V30 1113 H 102.669 5.34545 -1.2471 0
M  V30 1114 H 102.93 4.41552 0.220071 0
M  V30 1115 N 101.989 0.842826 1.3317 0
M  V30 1116 C 102.919 0.294028 2.31641 0
M  V30 1117 C 103.9 -0.600401 1.59151 0
M  V30 1118 O 105.085 -0.523124 1.87022 0
M  V30 1119 C 102.215 -0.528416 3.43257 0
M  V30 1120 C 101.169 0.27056 4.27144 0
M  V30 1121 C 100.495 -0.675881 5.30411 0
M  V30 1122 C 101.795 1.48981 5.00602 0
M  V30 1123 H 103.489 1.11681 2.77791 0
M  V30 1124 H 101.035 0.538478 1.33553 0
M  V30 1125 H 102.988 -0.922674 4.11175 0
M  V30 1126 H 101.712 -1.38445 2.95805 0
M  V30 1127 H 100.371 0.646427 3.60856 0
M  V30 1128 H 100.019 -1.52842 4.79216 0
M  V30 1129 H 99.7189 -0.145374 5.8742 0
M  V30 1130 H 101.243 -1.06757 6.01195 0
M  V30 1131 H 102.657 1.16849 5.61266 0
M  V30 1132 H 101.054 1.95739 5.6728 0
M  V30 1133 H 102.124 2.25746 4.29147 0
M  V30 1134 N 103.467 -1.45747 0.599634 0
M  V30 1135 C 104.4 -2.27547 -0.172552 0
M  V30 1136 C 105.378 -1.36657 -0.881116 0
M  V30 1137 O 106.562 -1.66081 -0.891595 0
M  V30 1138 C 103.689 -3.14829 -1.24903 0
M  V30 1139 C 102.735 -4.21603 -0.644465 0
M  V30 1140 S 103.568 -5.32754 0.541606 0
M  V30 1141 C 104.724 -6.23604 -0.535656 0
M  V30 1142 H 104.957 -2.92691 0.521468 0
M  V30 1143 H 102.49 -1.49473 0.386947 0
M  V30 1144 H 104.448 -3.65675 -1.86527 0
M  V30 1145 H 103.109 -2.48965 -1.91508 0
M  V30 1146 H 102.302 -4.82566 -1.45417 0
M  V30 1147 H 101.904 -3.73857 -0.103534 0
M  V30 1148 H 104.196 -6.62519 -1.41686 0
M  V30 1149 H 105.139 -7.0809 0.0376246 0
M  V30 1150 H 105.547 -5.58103 -0.84741 0
M  V30 1151 N 104.945 -0.338344 -1.53925 0
M  V30 1152 C 105.877 0.555117 -2.22376 0
M  V30 1153 C 106.89 1.06812 -1.22862 0
M  V30 1154 O 108.079 0.979163 -1.49247 0
M  V30 1155 C 105.179 1.77609 -2.88631 0
M  V30 1156 C 104.352 1.39927 -4.14414 0
M  V30 1157 C 103.411 2.47936 -4.64127 0
M  V30 1158 O 102.437 2.11461 -5.28463 0
M  V30 1159 N 103.639 3.79107 -4.39612 0
M  V30 1160 H 106.404 -0.0310778 -2.99684 0
M  V30 1161 H 103.965 -0.162226 -1.61085 0
M  V30 1162 H 105.957 2.49287 -3.18807 0
M  V30 1163 H 104.527 2.26978 -2.14941 0
M  V30 1164 H 103.747 0.513481 -3.90841 0
M  V30 1165 H 105.035 1.12341 -4.96243 0
M  V30 1166 H 104.433 4.11531 -3.88148 0
M  V30 1167 H 102.99 4.4697 -4.74406 0
M  V30 1168 N 106.423 1.57458 -0.0668435 0
M  V30 1169 C 107.7 1.8469 0.644132 0
M  V30 1170 C 108.08 0.958343 1.88093 0
M  V30 1171 O 107.428 0.0233579 2.28488 0
M  V30 1172 C 107.638 3.34767 0.986509 0
M  V30 1173 C 108.986 4.02159 1.36212 0
M  V30 1174 O 110.01 3.39484 1.07839 0
M  V30 1175 O 108.869 5.12694 1.89227 0
M  V30 1176 H 105.963 0.762816 0.319437 0
M  V30 1177 H 108.509 1.6942 -0.0973986 0
M  V30 1178 H 107.281 3.91151 0.107883 0
M  V30 1179 H 106.904 3.55281 1.78497 0
M  V30 1180 N 107.901 -0.206675 1.56239 0
M  V30 1181 C 109.126 -0.949474 1.8439 0
M  V30 1182 C 109.551 -1.76549 0.649016 0
M  V30 1183 O 108.909 -1.76782 -0.402231 0
M  V30 1184 C 108.957 -1.83078 3.10668 0
M  V30 1185 O 108.061 -2.9281 2.90407 0
M  V30 1186 H 107.402 -0.268033 0.607499 0
M  V30 1187 H 109.932 -0.215488 2.03462 0
M  V30 1188 H 109.942 -2.2377 3.41161 0
M  V30 1189 H 108.617 -1.23112 3.97261 0
M  V30 1190 H 107.194 -2.55956 2.71184 0
M  V30 1191 N 109.379 -1.50304 -0.473955 0
M  V30 1192 C 110.795 -1.37667 -0.807466 0
M  V30 1193 C 110.995 -0.430555 -1.96846 0
M  V30 1194 O 110.051 0.127874 -2.52176 0
M  V30 1195 C 111.364 -2.78974 -1.12223 0
M  V30 1196 C 112.912 -2.87868 -1.22885 0
M  V30 1197 C 113.387 -4.30003 -1.57676 0
M  V30 1198 N 114.878 -4.3294 -1.64673 0
M  V30 1199 C 115.613 -5.3991 -1.93091 0
M  V30 1200 N 115.109 -6.57092 -2.1955 0
M  V30 1201 N 116.902 -5.27351 -1.94569 0
M  V30 1202 H 109.053 -2.10394 0.291212 0
M  V30 1203 H 111.316 -0.945575 0.0677609 0
M  V30 1204 H 111.022 -3.50031 -0.342229 0
M  V30 1205 H 110.896 -3.16038 -2.05913 0
M  V30 1206 H 113.283 -2.17032 -1.99953 0
M  V30 1207 H 113.364 -2.54352 -0.271814 0
M  V30 1208 H 113.008 -5.01375 -0.81149 0
M  V30 1209 H 112.938 -4.61004 -2.54525 0
M  V30 1210 H 115.429 -3.48441 -1.46277 0
M  V30 1211 H 115.742 -7.34425 -2.405 0
M  V30 1212 H 114.087 -6.60272 -2.16948 0
M  V30 1213 H 117.278 -4.34801 -1.73394 0
M  V30 1214 H 117.451 -6.10805 -2.16381 0
M  V30 1215 N 110.857 0.726932 -1.39834 0
M  V30 1216 C 111.787 1.85405 -1.41941 0
M  V30 1217 C 112.768 1.67751 -0.281728 0
M  V30 1218 O 113.953 1.8795 -0.488717 0
M  V30 1219 C 111.083 3.23243 -1.2701 0
M  V30 1220 C 110.037 3.55549 -2.38262 0
M  V30 1221 C 109.363 4.9241 -2.08415 0
M  V30 1222 C 110.663 3.577 -3.80589 0
M  V30 1223 H 112.357 1.83899 -2.36266 0
M  V30 1224 H 109.903 0.883349 -1.13723 0
M  V30 1225 H 111.856 4.01775 -1.27103 0
M  V30 1226 H 110.58 3.25296 -0.291564 0
M  V30 1227 H 109.239 2.79351 -2.37399 0
M  V30 1228 H 108.887 4.91052 -1.0898 0
M  V30 1229 H 108.587 5.14992 -2.82943 0
M  V30 1230 H 110.111 5.73289 -2.10171 0
M  V30 1231 H 111.525 4.26293 -3.83337 0
M  V30 1232 H 109.922 3.91804 -4.54543 0
M  V30 1233 H 110.992 2.57328 -4.10987 0
M  V30 1234 N 112.336 1.25143 0.95797 0
M  V30 1235 C 113.566 1.12261 1.73439 0
M  V30 1236 C 113.974 -0.326715 1.86358 0
M  V30 1237 O 113.317 -1.2367 1.35836 0
M  V30 1238 C 113.379 1.69966 3.16784 0
M  V30 1239 C 113.043 3.18936 3.27305 0
M  V30 1240 C 114.04 4.15968 3.11877 0
M  V30 1241 C 111.725 3.59083 3.51234 0
M  V30 1242 C 113.719 5.51126 3.20217 0
M  V30 1243 C 111.406 4.9438 3.5921 0
M  V30 1244 C 112.404 5.90211 3.43716 0
M  V30 1245 O 112.092 7.23046 3.51368 0
M  V30 1246 H 111.824 0.392476 0.550399 0
M  V30 1247 H 114.378 1.65927 1.21068 0
M  V30 1248 H 112.608 1.10744 3.70503 0
M  V30 1249 H 114.297 1.52232 3.76272 0
M  V30 1250 H 115.063 3.86292 2.93264 0
M  V30 1251 H 110.942 2.84989 3.62356 0
M  V30 1252 H 114.486 6.25905 3.0804 0
M  V30 1253 H 110.383 5.23723 3.77339 0
M  V30 1254 H 111.151 7.31097 3.6802 0
M  V30 1255 N 113.814 -1.1601 1.06675 0
M  V30 1256 C 114.744 -2.22688 0.702307 0
M  V30 1257 C 115.725 -1.67306 -0.307032 0
M  V30 1258 O 116.91 -1.93352 -0.181305 0
M  V30 1259 C 114.04 -3.47178 0.092038 0
M  V30 1260 C 112.994 -4.15477 1.02777 0
M  V30 1261 C 112.32 -5.33963 0.28061 0
M  V30 1262 C 113.62 -4.66019 2.35846 0
M  V30 1263 H 115.314 -2.53429 1.59419 0
M  V30 1264 H 112.86 -1.21813 0.767961 0
M  V30 1265 H 114.813 -4.21037 -0.174814 0
M  V30 1266 H 113.537 -3.15749 -0.834877 0
M  V30 1267 H 112.196 -3.43549 1.27944 0
M  V30 1268 H 111.844 -4.98788 -0.649545 0
M  V30 1269 H 111.544 -5.806 0.904258 0
M  V30 1270 H 113.068 -6.10596 0.021396 0
M  V30 1271 H 114.482 -5.3144 2.15045 0
M  V30 1272 H 112.879 -5.23293 2.93743 0
M  V30 1273 H 113.949 -3.82023 2.98641 0
M  V30 1274 N 115.292 -0.849877 -1.32721 0
M  V30 1275 C 116.541 -0.447175 -1.96681 0
M  V30 1276 C 116.854 1.00135 -1.68025 0
M  V30 1277 O 118.06 1.50926 -2.25685 0
M  V30 1278 C 116.516 -0.7487 -3.52026 0
M  V30 1279 C 116.124 -2.21264 -3.89546 0
M  V30 1280 C 117.868 -0.413487 -4.22481 0
M  V30 1281 C 115.775 -2.45763 -5.37917 0
M  V30 1282 H 114.705 -0.163486 -0.736063 0
M  V30 1283 H 117.356 -1.03999 -1.51183 0
M  V30 1284 H 115.738 -0.0853727 -3.95908 0
M  V30 1285 H 116.912 -2.91736 -3.56689 0
M  V30 1286 H 115.227 -2.5119 -3.32103 0
M  V30 1287 H 117.824 -0.574017 -5.3161 0
M  V30 1288 H 118.167 0.644492 -4.11281 0
M  V30 1289 H 118.7 -1.03251 -3.84167 0
M  V30 1290 H 115.439 -3.50168 -5.54132 0
M  V30 1291 H 114.959 -1.79864 -5.72197 0
M  V30 1292 H 116.638 -2.29471 -6.0494 0
M  V30 1293 N 116.77 1.45427 -0.607355 0
M  V30 1294 C 118.017 2.02241 -0.102455 0
M  V30 1295 C 118.345 1.4758 1.26691 0
M  V30 1296 O 117.6 0.640468 1.84923 0
M  V30 1297 C 117.899 3.57398 -0.0129263 0
M  V30 1298 C 117.565 4.3121 -1.31792 0
M  V30 1299 C 116.227 4.51092 -1.67539 0
M  V30 1300 C 118.579 4.73401 -2.18039 0
M  V30 1301 C 115.907 5.10422 -2.89285 0
M  V30 1302 C 118.259 5.34078 -3.39034 0
M  V30 1303 C 116.923 5.52184 -3.75033 0
M  V30 1304 H 116.193 0.740051 -0.037491 0
M  V30 1305 H 118.84 1.74494 -0.788926 0
M  V30 1306 H 117.145 3.84421 0.756806 0
M  V30 1307 H 118.842 3.99061 0.393881 0
M  V30 1308 H 115.432 4.16047 -1.02968 0
M  V30 1309 H 119.616 4.57774 -1.91721 0
M  V30 1310 H 114.872 5.22629 -3.17283 0
M  V30 1311 H 119.046 5.65724 -4.06115 0
M  V30 1312 H 116.673 5.97925 -4.69457 0
M  V30 1313 N 118.248 0.346503 1.53744 0
M  V30 1314 C 119.158 -0.517293 2.28826 0
M  V30 1315 C 120.174 -1.10935 1.3405 0
M  V30 1316 O 121.35 -1.1244 1.6709 0
M  V30 1317 C 118.415 -1.65098 3.04866 0
M  V30 1318 C 117.476 -1.0884 4.15274 0
M  V30 1319 C 116.709 -2.16806 4.87679 0
M  V30 1320 O 116.932 -3.3758 4.59778 0
M  V30 1321 O 115.866 -1.80934 5.74061 0
M  V30 1322 H 119.692 0.0931396 3.03557 0
M  V30 1323 H 117.277 0.111458 1.48984 0
M  V30 1324 H 119.159 -2.31053 3.5241 0
M  V30 1325 H 117.834 -2.24717 2.32989 0
M  V30 1326 H 116.741 -0.3933 3.72027 0
M  V30 1327 H 118.074 -0.537036 4.89261 0
M  V30 1328 N 119.726 -1.57421 0.075193 0
M  V30 1329 C 120.973 -1.93618 -0.593146 0
M  V30 1330 C 121.301 -0.955484 -1.69413 0
M  V30 1331 O 120.556 0.0283251 -1.9568 0
M  V30 1332 C 120.855 -3.36428 -1.20626 0
M  V30 1333 C 120.521 -4.50307 -0.231078 0
M  V30 1334 C 119.183 -4.81186 0.0371936 0
M  V30 1335 C 121.535 -5.19374 0.435888 0
M  V30 1336 C 118.863 -5.78466 0.979461 0
M  V30 1337 C 121.215 -6.17665 1.3665 0
M  V30 1338 C 119.879 -6.46958 1.6432 0
M  V30 1339 H 119.149 -0.708499 -0.217047 0
M  V30 1340 H 121.796 -1.90937 0.146793 0
M  V30 1341 H 120.101 -3.35592 -2.02201 0
M  V30 1342 H 121.798 -3.61727 -1.73073 0
M  V30 1343 H 118.388 -4.26227 -0.450357 0
M  V30 1344 H 122.572 -4.95711 0.241748 0
M  V30 1345 H 117.828 -5.99487 1.20106 0
M  V30 1346 H 122.002 -6.70284 1.88924 0
M  V30 1347 H 119.629 -7.2215 2.37494 0
M  V30 1348 N 121.204 0.198386 -1.56346 0
M  V30 1349 C 122.134 1.24865 -1.9731 0
M  V30 1350 C 123.115 1.47651 -0.844576 0
M  V30 1351 O 124.3 1.59444 -1.10866 0
M  V30 1352 C 121.43 2.59358 -2.30977 0
M  V30 1353 C 120.384 2.5119 -3.46537 0
M  V30 1354 C 119.71 3.89926 -3.65871 0
M  V30 1355 C 121.01 2.03977 -4.80823 0
M  V30 1356 H 122.704 0.908252 -2.85291 0
M  V30 1357 H 120.25 0.435462 -1.37258 0
M  V30 1358 H 122.203 3.33011 -2.58228 0
M  V30 1359 H 120.927 2.95132 -1.39874 0
M  V30 1360 H 119.586 1.79993 -3.19371 0
M  V30 1361 H 119.234 4.23046 -2.72105 0
M  V30 1362 H 118.934 3.85336 -4.4361 0
M  V30 1363 H 120.458 4.65205 -3.95495 0
M  V30 1364 H 121.872 2.67386 -5.07127 0
M  V30 1365 H 120.269 2.10397 -5.62008 0
M  V30 1366 H 121.339 0.992861 -4.74626 0
M  V30 1367 N 122.682 1.50554 0.465978 0
M  V30 1368 C 123.907 1.65838 1.24549 0
M  V30 1369 C 124.332 0.343486 1.84937 0
M  V30 1370 O 123.69 -0.69324 1.67523 0
M  V30 1371 C 123.738 2.75533 2.32624 0
M  V30 1372 O 122.842 2.37142 3.37398 0
M  V30 1373 H 122.183 0.553893 0.366194 0
M  V30 1374 H 124.713 1.96959 0.553927 0
M  V30 1375 H 124.723 2.98763 2.77857 0
M  V30 1376 H 123.398 3.70962 1.88043 0
M  V30 1377 H 121.975 2.24377 2.97841 0
M  V30 1378 N 124.16 -0.719506 1.40217 0
M  V30 1379 C 125.093 -1.84298 1.34571 0
M  V30 1380 C 126.071 -1.61149 0.216741 0
M  V30 1381 O 127.255 -1.84212 0.399756 0
M  V30 1382 C 124.382 -3.20568 1.09335 0
M  V30 1383 C 123.428 -3.62551 2.24631 0
M  V30 1384 S 124.261 -3.7012 3.87004 0
M  V30 1385 C 125.417 -5.09154 3.64024 0
M  V30 1386 H 125.65 -1.88807 2.2965 0
M  V30 1387 H 123.183 -0.885901 1.26456 0
M  V30 1388 H 125.141 -3.99246 0.954602 0
M  V30 1389 H 123.802 -3.13696 0.159164 0
M  V30 1390 H 122.995 -4.61483 2.02606 0
M  V30 1391 H 122.597 -2.91119 2.34789 0
M  V30 1392 H 124.889 -5.95955 3.22248 0
M  V30 1393 H 125.832 -5.36213 4.62473 0
M  V30 1394 H 126.24 -4.79562 2.97793 0
M  V30 1395 N 125.638 -1.25649 -0.95132 0
M  V30 1396 C 126.915 -1.01361 -1.67288 0
M  V30 1397 C 127.295 0.459135 -2.06046 0
M  V30 1398 O 126.643 1.43723 -1.7764 0
M  V30 1399 C 126.853 -1.95256 -2.89268 0
M  V30 1400 C 128.201 -2.23289 -3.61147 0
M  V30 1401 O 129.225 -1.93041 -2.99355 0
M  V30 1402 O 128.084 -2.74741 -4.72419 0
M  V30 1403 H 125.178 -0.38464 -0.732107 0
M  V30 1404 H 127.724 -1.36817 -1.00395 0
M  V30 1405 H 126.496 -2.94685 -2.57442 0
M  V30 1406 H 126.119 -1.60218 -3.6389 0
M  V30 1407 N 127.117 1.15442 -1.07289 0
M  V30 1408 C 128.047 2.22312 -0.714107 0
M  V30 1409 C 129.028 1.67467 0.298155 0
M  V30 1410 O 130.213 1.93445 0.171048 0
M  V30 1411 C 127.343 3.47124 -0.110448 0
M  V30 1412 C 126.297 4.14926 -1.04979 0
M  V30 1413 C 125.623 5.33807 -0.308924 0
M  V30 1414 C 126.923 4.64762 -2.38314 0
M  V30 1415 H 128.617 2.5258 -1.6076 0
M  V30 1416 H 126.163 1.21404 -0.77441 0
M  V30 1417 H 128.116 4.21124 0.152482 0
M  V30 1418 H 126.84 3.16187 0.81812 0
M  V30 1419 H 125.499 3.42866 -1.29764 0
M  V30 1420 H 125.147 4.99126 0.623084 0
M  V30 1421 H 124.847 5.80113 -0.935036 0
M  V30 1422 H 126.371 6.10576 -0.0537771 0
M  V30 1423 H 127.785 5.30292 -2.1786 0
M  V30 1424 H 126.182 5.21728 -2.96514 0
M  V30 1425 H 127.252 3.80434 -3.00663 0
M  V30 1426 N 128.595 0.856903 1.32268 0
M  V30 1427 C 129.542 0.301172 2.28827 0
M  V30 1428 C 130.512 -0.593104 1.5515 0
M  V30 1429 O 131.697 -0.527537 1.83362 0
M  V30 1430 C 128.837 -0.502523 3.41422 0
M  V30 1431 C 127.95 0.417797 4.29975 0
M  V30 1432 C 127.085 -0.398749 5.29701 0
M  V30 1433 C 126.124 0.518827 6.09897 0
M  V30 1434 N 125.261 -0.260674 7.01616 0
M  V30 1435 H 130.101 1.12983 2.75751 0
M  V30 1436 H 127.638 0.568582 1.35667 0
M  V30 1437 H 129.596 -0.984141 4.05426 0
M  V30 1438 H 128.226 -1.29599 2.95642 0
M  V30 1439 H 127.278 1.01781 3.66531 0
M  V30 1440 H 128.59 1.12191 4.86019 0
M  V30 1441 H 127.744 -0.943435 5.9932 0
M  V30 1442 H 126.483 -1.13622 4.7428 0
M  V30 1443 H 125.488 1.07538 5.39181 0
M  V30 1444 H 126.713 1.25495 6.67404 0
M  V30 1445 H 124.659 -0.981198 6.4862 0
M  V30 1446 H 124.576 0.384364 7.55022 0
M  V30 1447 H 125.844 -0.787014 7.75517 0
M  V30 1448 N 130.073 -1.45103 0.615059 0
M  V30 1449 C 131.02 -2.30586 -0.0993978 0
M  V30 1450 C 131.99 -1.42544 -0.852669 0
M  V30 1451 O 133.175 -1.71465 -0.836917 0
M  V30 1452 C 130.315 -3.27572 -1.08583 0
M  V30 1453 C 129.428 -4.30717 -0.332656 0
M  V30 1454 C 128.563 -5.14807 -1.30947 0
M  V30 1455 C 127.602 -6.09673 -0.544538 0
M  V30 1456 N 126.739 -6.86517 -1.47101 0
M  V30 1457 H 131.579 -2.91144 0.635542 0
M  V30 1458 H 129.116 -1.4346 0.325206 0
M  V30 1459 H 131.074 -3.82276 -1.67095 0
M  V30 1460 H 129.704 -2.68751 -1.78809 0
M  V30 1461 H 128.756 -3.78615 0.368107 0
M  V30 1462 H 130.068 -4.98102 0.263842 0
M  V30 1463 H 129.222 -5.73948 -1.96643 0
M  V30 1464 H 127.961 -4.47458 -1.9399 0
M  V30 1465 H 126.966 -5.49656 0.126003 0
M  V30 1466 H 128.191 -6.79052 0.080947 0
M  V30 1467 H 126.137 -6.21851 -2.08895 0
M  V30 1468 H 126.054 -7.50281 -0.928137 0
M  V30 1469 H 127.322 -7.50194 -2.11731 0
M  V30 1470 N 131.551 -0.354651 -1.53558 0
M  V30 1471 C 132.781 0.239167 -2.05211 0
M  V30 1472 C 133.189 1.43879 -1.22863 0
M  V30 1473 O 132.532 1.81857 -0.259565 0
M  V30 1474 C 132.594 0.707251 -3.52474 0
M  V30 1475 C 132.258 -0.374212 -4.55465 0
M  V30 1476 C 133.255 -1.22054 -5.0537 0
M  V30 1477 C 130.94 -0.531323 -4.99482 0
M  V30 1478 C 132.934 -2.20942 -5.97882 0
M  V30 1479 C 130.621 -1.52358 -5.91802 0
M  V30 1480 C 131.619 -2.36108 -6.40892 0
M  V30 1481 O 131.307 -3.33643 -7.31394 0
M  V30 1482 H 131.039 0.0479716 -0.674296 0
M  V30 1483 H 133.593 -0.508121 -1.99016 0
M  V30 1484 H 131.823 1.50596 -3.56171 0
M  V30 1485 H 133.512 1.22285 -3.87042 0
M  V30 1486 H 134.278 -1.1103 -4.7212 0
M  V30 1487 H 130.157 0.110738 -4.60867 0
M  V30 1488 H 133.701 -2.86348 -6.36121 0
M  V30 1489 H 129.598 -1.63434 -6.24467 0
M  V30 1490 H 130.366 -3.29244 -7.4936 0
M  V30 1491 N 133.029 1.57378 -0.0835403 0
M  V30 1492 C 133.959 2.1641 0.87686 0
M  V30 1493 C 134.94 1.09429 1.30228 0
M  V30 1494 O 136.125 1.37516 1.37124 0
M  V30 1495 C 133.255 2.73517 2.14022 0
M  V30 1496 C 132.209 3.85769 1.85381 0
M  V30 1497 C 131.535 4.29529 3.18448 0
M  V30 1498 C 132.835 5.09486 1.14984 0
M  V30 1499 H 134.529 2.96914 0.385059 0
M  V30 1500 H 132.075 1.42823 0.18377 0
M  V30 1501 H 134.028 3.13463 2.81636 0
M  V30 1502 H 132.752 1.90252 2.65465 0
M  V30 1503 H 131.411 3.46345 1.20169 0
M  V30 1504 H 131.059 3.43169 3.67755 0
M  V30 1505 H 130.759 5.05204 3.00071 0
M  V30 1506 H 132.283 4.72099 3.8724 0
M  V30 1507 H 133.697 5.46674 1.72687 0
M  V30 1508 H 132.094 5.90515 1.06826 0
M  V30 1509 H 133.164 4.84724 0.130749 0
M  V30 1510 N 134.507 -0.190092 1.56449 0
M  V30 1511 C 135.784 -0.935886 1.71757 0
M  V30 1512 C 136.164 -2.01173 0.639726 0
M  V30 1513 O 135.512 -2.25827 -0.348502 0
M  V30 1514 C 135.722 -1.51775 3.1427 0
M  V30 1515 C 137.07 -1.99794 3.74656 0
M  V30 1516 O 138.094 -1.61607 3.1743 0
M  V30 1517 O 136.953 -2.70079 4.751 0
M  V30 1518 H 134.047 -0.439229 0.700719 0
M  V30 1519 H 136.593 -0.179395 1.68749 0
M  V30 1520 H 135.365 -0.742505 3.84191 0
M  V30 1521 H 134.988 -2.33894 3.21527 0
M  V30 1522 N 135.985 -1.50799 -0.457987 0
M  V30 1523 C 137.21 -1.66496 -1.23668 0
M  V30 1524 C 137.635 -0.353288 -1.84752 0
M  V30 1525 O 136.993 0.684346 -1.67888 0
M  V30 1526 C 137.041 -2.76763 -2.3116 0
M  V30 1527 O 136.145 -2.38928 -3.36136 0
M  V30 1528 H 135.486 -0.555828 -0.363252 0
M  V30 1529 H 138.016 -1.9725 -0.543474 0
M  V30 1530 H 138.026 -3.00232 -2.76269 0
M  V30 1531 H 136.701 -3.71954 -1.86073 0
M  V30 1532 H 135.278 -2.25953 -2.96647 0
M  V30 1533 N 137.463 0.71206 -1.40597 0
M  V30 1534 C 138.712 1.46754 -1.38369 0
M  V30 1535 C 139.025 1.95598 0.0097839 0
M  V30 1536 O 140.231 2.71059 0.154677 0
M  V30 1537 C 138.687 2.65289 -2.43207 0
M  V30 1538 C 138.295 2.23301 -3.88382 0
M  V30 1539 C 140.039 3.43008 -2.50091 0
M  V30 1540 C 137.946 3.38696 -4.84808 0
M  V30 1541 H 136.876 0.55118 -0.514506 0
M  V30 1542 H 139.527 0.774616 -1.66349 0
M  V30 1543 H 137.909 3.36769 -2.08332 0
M  V30 1544 H 139.083 1.59218 -4.32419 0
M  V30 1545 H 137.398 1.58618 -3.85006 0
M  V30 1546 H 139.995 4.28881 -3.1932 0
M  V30 1547 H 140.338 3.87065 -1.53253 0
M  V30 1548 H 140.871 2.78574 -2.83974 0
M  V30 1549 H 137.61 2.99668 -5.82992 0
M  V30 1550 H 137.13 4.01683 -4.45433 0
M  V30 1551 H 138.809 4.04712 -5.04794 0
M  V30 1552 N 138.941 1.26152 0.944643 0
M  V30 1553 C 140.352 1.10454 1.50522 0
M  V30 1554 C 140.703 -0.31635 1.93633 0
M  V30 1555 O 139.828 -1.20746 1.79581 0
M  V30 1556 C 140.423 1.99891 2.73549 0
M  V30 1557 C 138.982 1.88348 3.25886 0
M  V30 1558 C 138.129 1.93447 1.9868 0
M  V30 1559 H 141.08 1.39292 0.760489 0
M  V30 1560 H 141.101 1.54477 3.47732 0
M  V30 1561 H 140.613 3.03297 2.42141 0
M  V30 1562 H 138.714 0.878636 3.62092 0
M  V30 1563 H 138.827 2.73696 3.93227 0
M  V30 1564 H 137.191 1.37456 2.14425 0
M  V30 1565 H 137.974 2.98476 1.69607 0
M  V30 1566 N 140.419 -1.14872 1.07899 0
M  V30 1567 C 141.83 -1.67367 0.827363 0
M  V30 1568 C 142.181 -1.85236 -0.646693 0
M  V30 1569 O 141.306 -1.55974 -1.50004 0
M  V30 1570 C 141.901 -3.04016 1.49532 0
M  V30 1571 C 140.46 -3.53566 1.29106 0
M  V30 1572 C 139.607 -2.29161 1.56143 0
M  V30 1573 H 142.558 -0.990083 1.24028 0
M  V30 1574 H 142.579 -3.69219 0.919643 0
M  V30 1575 H 142.091 -2.90978 2.56814 0
M  V30 1576 H 140.192 -3.71835 0.238713 0
M  V30 1577 H 140.305 -4.34661 2.01511 0
M  V30 1578 H 138.669 -2.34978 0.982717 0
M  V30 1579 H 139.452 -2.18705 2.64619 0
M  V30 1580 N 141.898 -0.863906 -1.31812 0
M  V30 1581 C 143.146 -0.470904 -1.96537 0
M  V30 1582 C 143.467 0.978771 -1.68657 0
M  V30 1583 O 142.737 1.6853 -0.998717 0
M  V30 1584 H 141.317 -0.171148 -0.72713 0
M  V30 1585 H 143.979 -1.10236 -1.60729 0
M  V30 1586 H 143.075 -0.623616 -3.05806 0
M  V30 1587 N 143.376 1.44774 -0.622745 0
M  V30 1588 C 144.308 2.28856 0.125485 0
M  V30 1589 C 145.321 1.40811 0.817069 0
M  V30 1590 O 146.51 1.65044 0.679918 0
M  V30 1591 C 143.61 3.16963 1.19949 0
M  V30 1592 C 142.783 4.33374 0.592064 0
M  V30 1593 C 141.842 5.02577 1.55893 0
M  V30 1594 O 140.868 5.58873 1.07933 0
M  V30 1595 N 142.07 5.03256 2.89334 0
M  V30 1596 H 144.835 2.93713 -0.596068 0
M  V30 1597 H 142.396 1.55129 -0.463303 0
M  V30 1598 H 144.388 3.60123 1.84644 0
M  V30 1599 H 142.958 2.53913 1.82337 0
M  V30 1600 H 142.178 3.93509 -0.233322 0
M  V30 1601 H 143.466 5.08527 0.166738 0
M  V30 1602 H 142.864 4.58836 3.30887 0
M  V30 1603 H 141.421 5.50232 3.49412 0
M  V30 1604 N 144.854 0.36279 1.53368 0
M  V30 1605 C 146.084 -0.228281 2.05335 0
M  V30 1606 C 146.492 -1.43226 1.23625 0
M  V30 1607 O 145.835 -1.81717 0.269206 0
M  V30 1608 C 145.897 -0.688549 3.52845 0
M  V30 1609 C 145.561 0.398362 4.5526 0
M  V30 1610 C 146.558 1.24732 5.04716 0
M  V30 1611 C 144.243 0.557805 4.99193 0
M  V30 1612 C 146.237 2.2411 5.96702 0
M  V30 1613 C 143.924 1.55495 5.90986 0
M  V30 1614 C 144.922 2.39503 6.39631 0
M  V30 1615 O 144.61 3.37517 7.29615 0
M  V30 1616 H 144.342 -0.044395 0.674541 0
M  V30 1617 H 146.896 0.518668 1.98744 0
M  V30 1618 H 145.126 -1.48706 3.56964 0
M  V30 1619 H 146.815 -1.20231 3.87685 0
M  V30 1620 H 147.581 1.13532 4.71525 0
M  V30 1621 H 143.46 -0.0862959 4.60919 0
M  V30 1622 H 147.004 2.89718 6.34594 0
M  V30 1623 H 142.901 1.66744 6.23592 0
M  V30 1624 H 143.669 3.33213 7.47604 0
M  V30 1625 N 146.332 -1.57332 0.0918853 0
M  V30 1626 C 147.265 -2.09499 -0.904735 0
M  V30 1627 C 148.243 -1.00479 -1.27839 0
M  V30 1628 O 149.427 -1.27954 -1.38419 0
M  V30 1629 C 146.554 -2.56931 -2.2069 0
M  V30 1630 C 145.6 -3.77579 -1.98334 0
M  V30 1631 S 146.433 -5.21317 -1.22428 0
M  V30 1632 C 147.589 -5.72097 -2.53882 0
M  V30 1633 H 147.822 -2.93705 -0.460922 0
M  V30 1634 H 145.355 -1.53923 -0.121332 0
M  V30 1635 H 147.313 -2.84917 -2.95521 0
M  V30 1636 H 145.974 -1.72956 -2.62192 0
M  V30 1637 H 145.167 -4.08824 -2.94752 0
M  V30 1638 H 144.769 -3.5007 -1.31633 0
M  V30 1639 H 147.061 -5.80168 -3.49874 0
M  V30 1640 H 148.004 -6.70654 -2.27219 0
M  V30 1641 H 148.412 -5.00012 -2.62007 0
M  V30 1642 N 147.81 0.181792 -1.56548 0
M  V30 1643 C 149.087 0.926765 -1.72251 0
M  V30 1644 C 149.467 2.00831 -0.650386 0
M  V30 1645 O 148.815 2.26008 0.336521 0
M  V30 1646 C 149.025 1.50106 -3.1507 0
M  V30 1647 C 150.373 1.97805 -3.75711 0
M  V30 1648 O 151.397 1.59922 -3.18282 0
M  V30 1649 O 150.256 2.67555 -4.76525 0
M  V30 1650 H 147.35 0.435506 -0.703039 0
M  V30 1651 H 149.896 0.170443 -1.68842 0
M  V30 1652 H 148.668 0.72212 -3.84579 0
M  V30 1653 H 148.291 2.32186 -3.22763 0
M  V30 1654 N 149.288 1.51039 0.449983 0
M  V30 1655 C 150.513 1.6715 1.22783 0
M  V30 1656 C 150.938 0.363081 1.84563 0
M  V30 1657 O 150.296 -0.675433 1.68249 0
M  V30 1658 C 150.344 2.77985 2.29689 0
M  V30 1659 O 149.448 2.40707 3.34864 0
M  V30 1660 H 148.789 0.557746 0.360299 0
M  V30 1661 H 151.319 1.97535 0.533005 0
M  V30 1662 H 151.329 3.01693 2.74673 0
M  V30 1663 H 150.004 3.72935 1.84098 0
M  V30 1664 H 148.581 2.27523 2.95445 0
M  V30 1665 N 150.766 -0.704594 1.40972 0
M  V30 1666 C 151.991 -1.49858 1.43378 0
M  V30 1667 C 152.416 -1.88061 0.038184 0
M  V30 1668 O 151.774 -1.5402 -0.956425 0
M  V30 1669 C 151.822 -2.74333 2.34038 0
M  V30 1670 O 150.926 -3.7147 1.7912 0
M  V30 1671 H 150.267 -0.45139 0.486974 0
M  V30 1672 H 152.797 -0.866832 1.8533 0
M  V30 1673 H 152.807 -3.22741 2.49604 0
M  V30 1674 H 151.482 -2.45863 3.35446 0
M  V30 1675 H 150.059 -3.30363 1.72958 0
M  V30 1676 N 152.244 -1.26651 -0.937939 0
M  V30 1677 C 153.174 -1.10993 -2.05433 0
M  V30 1678 C 154.155 -0.0142161 -1.70094 0
M  V30 1679 O 155.34 -0.186837 -1.93299 0
M  V30 1680 C 152.47 -0.745561 -3.39203 0
M  V30 1681 C 151.424 -1.79337 -3.88616 0
M  V30 1682 C 150.75 -1.28324 -5.19073 0
M  V30 1683 C 152.05 -3.19553 -4.13138 0
M  V30 1684 H 153.744 -2.0438 -2.1879 0
M  V30 1685 H 151.29 -0.984041 -1.05131 0
M  V30 1686 H 153.243 -0.622888 -4.16771 0
M  V30 1687 H 151.967 0.22401 -3.25831 0
M  V30 1688 H 150.626 -1.90477 -3.13231 0
M  V30 1689 H 150.274 -0.303414 -5.02084 0
M  V30 1690 H 149.974 -1.98369 -5.53103 0
M  V30 1691 H 151.498 -1.1733 -5.99221 0
M  V30 1692 H 152.912 -3.11471 -4.81309 0
M  V30 1693 H 151.309 -3.87218 -4.58457 0
M  V30 1694 H 152.379 -3.65368 -3.18801 0
M  V30 1695 N 153.722 1.14298 -1.08507 0
M  V30 1696 C 154.968 1.85633 -0.816581 0
M  V30 1697 C 155.301 1.82784 0.656021 0
M  V30 1698 O 154.576 1.25926 1.48233 0
M  V30 1699 C 154.859 3.34223 -1.34041 0
M  V30 1700 C 154.712 3.45639 -2.87843 0
M  V30 1701 C 156.031 4.29356 -0.9665 0
M  V30 1702 H 153.15 0.67402 -0.298104 0
M  V30 1703 H 155.792 1.34214 -1.34487 0
M  V30 1704 H 153.942 3.78144 -0.89104 0
M  V30 1705 H 155.614 3.10498 -3.41158 0
M  V30 1706 H 153.857 2.86817 -3.25451 0
M  V30 1707 H 154.528 4.50089 -3.19569 0
M  V30 1708 H 157.004 3.93457 -1.35391 0
M  V30 1709 H 155.88 5.3178 -1.3602 0
M  V30 1710 H 156.141 4.41919 0.126362 0
M  V30 1711 N 155.201 0.870884 1.31352 0
M  V30 1712 C 156.148 0.325425 2.28494 0
M  V30 1713 C 157.118 -0.576615 1.5577 0
M  V30 1714 O 158.303 -0.508059 1.83911 0
M  V30 1715 C 155.443 -0.466283 3.41935 0
M  V30 1716 C 154.556 0.463378 4.29508 0
M  V30 1717 C 153.691 -0.342544 5.30094 0
M  V30 1718 C 152.73 0.583486 6.09313 0
M  V30 1719 N 151.867 -0.186244 7.01853 0
M  V30 1720 H 156.707 1.15901 2.74538 0
M  V30 1721 H 154.244 0.58294 1.35056 0
M  V30 1722 H 156.202 -0.941085 4.06447 0
M  V30 1723 H 154.832 -1.26456 2.97 0
M  V30 1724 H 153.884 1.05663 3.65431 0
M  V30 1725 H 155.196 1.1734 4.84802 0
M  V30 1726 H 154.35 -0.879816 6.00287 0
M  V30 1727 H 153.089 -1.08585 4.75458 0
M  V30 1728 H 152.094 1.13251 5.3801 0
M  V30 1729 H 153.319 1.32566 6.66035 0
M  V30 1730 H 151.265 -0.912348 6.49625 0
M  V30 1731 H 151.182 0.464422 7.54572 0
M  V30 1732 H 152.45 -0.704716 7.76308 0
M  V30 1733 N 156.679 -1.44442 0.630414 0
M  V30 1734 C 157.904 -2.06927 0.139944 0
M  V30 1735 C 158.329 -1.46795 -1.17613 0
M  V30 1736 O 157.687 -0.569144 -1.72135 0
M  V30 1737 C 157.735 -3.6058 0.0379581 0
M  V30 1738 O 156.839 -3.99937 -1.0062 0
M  V30 1739 H 156.18 -0.658608 0.0844483 0
M  V30 1740 H 158.71 -1.85327 0.866891 0
M  V30 1741 H 158.72 -4.07714 -0.152856 0
M  V30 1742 H 157.395 -4.03728 0.998809 0
M  V30 1743 H 155.972 -3.64436 -0.79001 0
M  V30 1744 N 158.157 -0.370918 -1.53173 0
M  V30 1745 C 159.387 0.217389 -2.05453 0
M  V30 1746 C 159.795 1.42568 -1.24382 0
M  V30 1747 O 159.138 1.81571 -0.278839 0
M  V30 1748 C 159.2 0.669827 -3.53205 0
M  V30 1749 C 158.864 -0.4225 -4.55043 0
M  V30 1750 C 159.861 -1.27407 -5.04047 0
M  V30 1751 C 157.546 -0.58427 -4.9889 0
M  V30 1752 C 159.54 -2.27271 -5.95505 0
M  V30 1753 C 157.227 -1.58627 -5.90153 0
M  V30 1754 C 158.225 -2.42892 -6.38351 0
M  V30 1755 O 157.913 -3.41382 -7.27814 0
M  V30 1756 H 157.645 0.0408171 -0.674767 0
M  V30 1757 H 160.199 -0.5292 -1.98466 0
M  V30 1758 H 158.429 1.4681 -3.57748 0
M  V30 1759 H 160.118 1.18173 -3.88317 0
M  V30 1760 H 160.884 -1.16031 -4.70916 0
M  V30 1761 H 156.763 0.061851 -4.60959 0
M  V30 1762 H 160.307 -2.93079 -6.33049 0
M  V30 1763 H 156.204 -1.70048 -6.22699 0
M  V30 1764 H 156.972 -3.37173 -7.45826 0
M  V30 1765 N 159.635 1.57281 -0.100228 0
M  V30 1766 C 160.565 2.17328 0.853857 0
M  V30 1767 C 161.546 1.10804 1.2906 0
M  V30 1768 O 162.731 1.38963 1.35657 0
M  V30 1769 C 159.861 2.75772 2.11109 0
M  V30 1770 C 158.815 3.87713 1.81279 0
M  V30 1771 C 158.141 4.32882 3.13874 0
M  V30 1772 C 159.441 5.10677 1.09574 0
M  V30 1773 H 161.135 2.97305 0.353545 0
M  V30 1774 H 158.681 1.43009 0.168612 0
M  V30 1775 H 160.634 3.16433 2.78296 0
M  V30 1776 H 159.358 1.93057 2.63432 0
M  V30 1777 H 158.017 3.476 1.16489 0
M  V30 1778 H 157.665 3.47051 3.64095 0
M  V30 1779 H 157.365 5.08358 2.94696 0
M  V30 1780 H 158.889 4.7618 3.82211 0
M  V30 1781 H 160.303 5.48474 1.66879 0
M  V30 1782 H 158.7 5.91615 1.00557 0
M  V30 1783 H 159.77 4.84835 0.0793299 0
M  V30 1784 N 161.113 -0.173488 1.56642 0
M  V30 1785 C 162.343 -0.904781 1.85734 0
M  V30 1786 C 162.751 -1.76431 0.68328 0
M  V30 1787 O 162.094 -1.802 -0.356865 0
M  V30 1788 C 162.156 -1.83382 3.09211 0
M  V30 1789 C 161.82 -1.15411 4.42187 0
M  V30 1790 C 162.817 -0.520609 5.17287 0
M  V30 1791 C 160.502 -1.15151 4.88923 0
M  V30 1792 C 162.496 0.106412 6.37311 0
M  V30 1793 C 160.183 -0.520664 6.08878 0
M  V30 1794 C 161.181 0.107196 6.82916 0
M  V30 1795 O 160.869 0.728102 8.00596 0
M  V30 1796 H 160.601 -0.268408 0.62043 0
M  V30 1797 H 163.155 -0.179096 2.04618 0
M  V30 1798 H 161.385 -2.59976 2.86268 0
M  V30 1799 H 163.074 -2.43476 3.24768 0
M  V30 1800 H 163.84 -0.514606 4.82262 0
M  V30 1801 H 159.719 -1.62961 4.31236 0
M  V30 1802 H 163.263 0.597081 6.9504 0
M  V30 1803 H 159.16 -0.524242 6.43368 0
M  V30 1804 H 159.928 0.627138 8.16094 0
M  V30 1805 N 162.591 -1.51276 -0.441967 0
M  V30 1806 C 163.523 -1.68444 -1.55433 0
M  V30 1807 C 164.536 -0.565187 -1.52674 0
M  V30 1808 O 165.725 -0.839356 -1.57534 0
M  V30 1809 C 162.825 -1.67966 -2.94348 0
M  V30 1810 C 161.998 -2.964 -3.21661 0
M  V30 1811 C 161.057 -2.88171 -4.40277 0
M  V30 1812 O 160.083 -3.62119 -4.39157 0
M  V30 1813 N 161.285 -2.03706 -5.43584 0
M  V30 1814 H 164.05 -2.644 -1.41112 0
M  V30 1815 H 161.611 -1.49104 -0.630838 0
M  V30 1816 H 163.603 -1.60035 -3.71713 0
M  V30 1817 H 162.173 -0.796225 -3.0229 0
M  V30 1818 H 161.393 -3.18234 -2.32638 0
M  V30 1819 H 162.681 -3.81427 -3.36736 0
M  V30 1820 H 162.079 -1.42995 -5.47329 0
M  V30 1821 H 160.636 -2.01658 -6.1982 0
M  V30 1822 N 164.069 0.697108 -1.41344 0
M  V30 1823 C 165.318 1.45279 -1.39918 0
M  V30 1824 C 165.631 1.95597 -0.0109624 0
M  V30 1825 O 166.837 2.71208 0.125919 0
M  V30 1826 C 165.293 2.62695 -2.46007 0
M  V30 1827 C 164.901 2.19169 -3.90729 0
M  V30 1828 C 166.645 3.40336 -2.53715 0
M  V30 1829 C 164.552 3.33535 -4.88373 0
M  V30 1830 H 163.482 0.545692 -0.520323 0
M  V30 1831 H 166.133 0.756929 -1.67161 0
M  V30 1832 H 164.515 3.34541 -2.11892 0
M  V30 1833 H 165.689 1.54623 -4.34083 0
M  V30 1834 H 164.004 1.54525 -3.86666 0
M  V30 1835 H 166.601 4.2547 -3.2385 0
M  V30 1836 H 166.944 3.85418 -1.5735 0
M  V30 1837 H 167.477 2.75546 -2.86913 0
M  V30 1838 H 164.216 2.93468 -5.86137 0
M  V30 1839 H 163.736 3.96936 -4.49668 0
M  V30 1840 H 165.415 3.99335 -5.09059 0
M  V30 1841 N 165.547 1.27147 0.931209 0
M  V30 1842 C 166.477 1.12081 2.04842 0
M  V30 1843 C 167.458 0.0232364 1.70084 0
M  V30 1844 O 168.643 0.197085 1.93197 0
M  V30 1845 C 165.773 0.76354 3.38803 0
M  V30 1846 C 164.727 1.81396 3.87659 0
M  V30 1847 C 164.053 1.31075 5.18385 0
M  V30 1848 C 165.353 3.21739 4.11438 0
M  V30 1849 H 167.047 2.05537 2.17703 0
M  V30 1850 H 164.593 0.989603 1.04608 0
M  V30 1851 H 166.546 0.644982 4.16435 0
M  V30 1852 H 165.27 -0.206727 3.25945 0
M  V30 1853 H 163.929 1.92136 3.12217 0
M  V30 1854 H 163.577 0.330037 5.01916 0
M  V30 1855 H 163.277 2.013 5.52044 0
M  V30 1856 H 164.801 1.20506 5.98591 0
M  V30 1857 H 166.215 3.14019 4.79651 0
M  V30 1858 H 164.612 3.89644 4.56397 0
M  V30 1859 H 165.682 3.67054 3.16859 0
M  V30 1860 N 167.025 -1.13721 1.09112 0
M  V30 1861 C 167.957 -2.1871 0.685467 0
M  V30 1862 C 168.97 -1.60527 -0.271068 0
M  V30 1863 O 170.159 -1.78407 -0.0576148 0
M  V30 1864 C 167.259 -3.38898 -0.0111255 0
M  V30 1865 C 166.432 -4.26597 0.966131 0
M  V30 1866 C 165.491 -5.25324 0.303539 0
M  V30 1867 O 164.517 -5.61213 0.950177 0
M  V30 1868 N 165.719 -5.72779 -0.943651 0
M  V30 1869 H 168.484 -2.54126 1.58871 0
M  V30 1870 H 166.045 -1.29012 0.978143 0
M  V30 1871 H 168.037 -4.02014 -0.465517 0
M  V30 1872 H 166.607 -3.01747 -0.816565 0
M  V30 1873 H 165.827 -3.60306 1.59917 0
M  V30 1874 H 167.115 -4.82048 1.6281 0
M  V30 1875 H 166.513 -5.45762 -1.48862 0
M  V30 1876 H 165.07 -6.37847 -1.34142 0
M  V30 1877 N 168.503 -0.877838 -1.30888 0
M  V30 1878 C 169.751 -0.491723 -1.96027 0
M  V30 1879 C 170.072 0.960827 -1.69685 0
M  V30 1880 O 169.342 1.67462 -1.01654 0
M  V30 1881 H 167.922 -0.17885 -0.725273 0
M  V30 1882 H 170.584 -1.11935 -1.59551 0
M  V30 1883 H 169.68 -0.656016 -3.05128 0
M  V30 1884 N 169.982 1.44106 -0.638065 0
M  V30 1885 C 171.231 2.01194 -0.142744 0
M  V30 1886 C 171.544 1.50835 1.24532 0
M  V30 1887 O 172.75 2.00096 1.83504 0
M  V30 1888 C 171.206 3.59319 -0.20442 0
M  V30 1889 C 170.814 4.18674 -1.59423 0
M  V30 1890 C 172.558 4.23854 0.234079 0
M  V30 1891 C 170.465 5.69045 -1.61065 0
M  V30 1892 H 169.395 0.752367 -0.0495998 0
M  V30 1893 H 172.046 1.65246 -0.797881 0
M  V30 1894 H 170.428 3.92598 0.517946 0
M  V30 1895 H 171.602 3.96921 -2.34074 0
M  V30 1896 H 169.917 3.66453 -1.97741 0
M  V30 1897 H 172.514 5.34155 0.241443 0
M  V30 1898 H 172.857 3.96688 1.2627 0
M  V30 1899 H 173.39 3.95403 -0.436025 0
M  V30 1900 H 170.129 6.00956 -2.61787 0
M  V30 1901 H 169.649 5.929 -0.90718 0
M  V30 1902 H 171.328 6.32809 -1.34766 0
M  V30 1903 N 171.46 0.379036 1.52974 0
M  V30 1904 C 172.706 -0.206727 2.01744 0
M  V30 1905 C 173.039 -1.47314 1.26539 0
M  V30 1906 O 172.314 -1.91084 0.362903 0
M  V30 1907 C 172.597 -0.485066 3.56818 0
M  V30 1908 C 172.45 0.795919 4.42702 0
M  V30 1909 C 173.769 -1.28003 4.21074 0
M  V30 1910 H 170.888 -0.0736607 0.73331 0
M  V30 1911 H 173.53 0.506581 1.83122 0
M  V30 1912 H 171.68 -1.09272 3.72816 0
M  V30 1913 H 173.352 1.43307 4.38476 0
M  V30 1914 H 171.595 1.41344 4.10127 0
M  V30 1915 H 172.266 0.555947 5.49193 0
M  V30 1916 H 174.742 -0.765867 4.08991 0
M  V30 1917 H 173.618 -1.44352 5.29579 0
M  V30 1918 H 173.879 -2.29236 3.78026 0
M  V30 1919 N 172.938 -1.57226 0.108567 0
M  V30 1920 C 174.185 -1.94833 -0.551943 0
M  V30 1921 C 174.513 -0.991204 -1.67348 0
M  V30 1922 O 173.768 -0.0131878 -1.95696 0
M  V30 1923 C 174.067 -3.38911 -1.13463 0
M  V30 1924 C 173.733 -4.50696 -0.135509 0
M  V30 1925 C 172.395 -4.80998 0.139252 0
M  V30 1926 C 174.747 -5.18333 0.545957 0
M  V30 1927 C 172.075 -5.76259 1.10194 0
M  V30 1928 C 174.427 -6.14627 1.49721 0
M  V30 1929 C 173.091 -6.43327 1.78006 0
M  V30 1930 H 172.361 -0.712944 -0.20197 0
M  V30 1931 H 175.008 -1.90582 0.18726 0
M  V30 1932 H 173.313 -3.39805 -1.95037 0
M  V30 1933 H 175.01 -3.65317 -1.65362 0
M  V30 1934 H 171.6 -4.27087 -0.359846 0
M  V30 1935 H 175.784 -4.95087 0.346842 0
M  V30 1936 H 171.04 -5.96804 1.32795 0
M  V30 1937 H 175.214 -6.66126 2.03099 0
M  V30 1938 H 172.841 -7.1695 2.52759 0
M  V30 1939 N 174.416 0.165178 -1.56732 0
M  V30 1940 C 175.656 0.887231 -1.8414 0
M  V30 1941 C 176.02 1.79159 -0.690353 0
M  V30 1942 O 177.221 2.55172 -0.845032 0
M  V30 1943 C 175.492 1.65674 -3.16681 0
M  V30 1944 S 177.051 2.42671 -3.6559 0
M  V30 1945 H 173.869 0.297042 -0.645978 0
M  V30 1946 H 176.471 0.148439 -1.94936 0
M  V30 1947 H 175.175 0.983507 -3.98441 0
M  V30 1948 H 174.706 2.43679 -3.08843 0
M  V30 1949 H 176.721 3.67499 -3.33406 0
M  V30 1950 N 175.894 1.51508 0.433938 0
M  V30 1951 C 176.844 1.69451 1.52546 0
M  V30 1952 C 177.828 0.548474 1.51263 0
M  V30 1953 O 179.02 0.804529 1.57659 0
M  V30 1954 C 176.149 1.82604 2.90707 0
M  V30 1955 C 175.235 3.03002 2.96733 0
M  V30 1956 N 175.626 4.26121 2.72496 0
M  V30 1957 C 173.924 3.02327 3.27894 0
M  V30 1958 C 174.625 5.07407 2.84452 0
M  V30 1959 N 173.601 4.42126 3.16269 0
M  V30 1960 H 177.403 2.62305 1.32564 0
M  V30 1961 H 174.917 1.49202 0.641297 0
M  V30 1962 H 176.914 1.93569 3.69238 0
M  V30 1963 H 175.574 0.909339 3.11707 0
M  V30 1964 H 176.585 4.55009 2.4736 0
M  V30 1965 H 173.262 2.20301 3.54646 0
M  V30 1966 H 174.652 6.15422 2.69639 0
M  V30 1967 N 177.372 -0.689602 1.41712 0
M  V30 1968 C 178.597 -1.48329 1.44959 0
M  V30 1969 C 179.022 -1.8801 0.0581283 0
M  V30 1970 O 178.38 -1.55026 -0.940035 0
M  V30 1971 C 178.428 -2.71835 2.36935 0
M  V30 1972 O 177.532 -3.69549 1.8305 0
M  V30 1973 H 176.873 -0.446199 0.491734 0
M  V30 1974 H 179.403 -0.847127 1.86239 0
M  V30 1975 H 179.413 -3.20076 2.53013 0
M  V30 1976 H 178.088 -2.42291 3.38035 0
M  V30 1977 H 176.665 -3.2851 1.76452 0
M  V30 1978 N 178.85 -1.27639 -0.924453 0
M  V30 1979 C 180.266 -1.05113 -1.20097 0
M  V30 1980 C 180.466 0.213262 -2.00368 0
M  V30 1981 O 179.522 0.91787 -2.35226 0
M  V30 1982 C 180.835 -2.29244 -1.94596 0
M  V30 1983 C 182.383 -2.34315 -2.07522 0
M  V30 1984 C 182.858 -3.58183 -2.85427 0
M  V30 1985 N 184.349 -3.5876 -2.92994 0
M  V30 1986 C 185.084 -4.51277 -3.53746 0
M  V30 1987 N 184.58 -5.54102 -4.15863 0
M  V30 1988 N 186.373 -4.38894 -3.51181 0
M  V30 1989 H 178.524 -2.08821 -0.388264 0
M  V30 1990 H 180.787 -0.918568 -0.234385 0
M  V30 1991 H 180.493 -3.21301 -1.43034 0
M  V30 1992 H 180.367 -2.34816 -2.95197 0
M  V30 1993 H 182.754 -1.42762 -2.58269 0
M  V30 1994 H 182.835 -2.32744 -1.06131 0
M  V30 1995 H 182.479 -4.50074 -2.35363 0
M  V30 1996 H 182.409 -3.57006 -3.8711 0
M  V30 1997 H 184.9 -2.84398 -2.4885 0
M  V30 1998 H 185.213 -6.20859 -4.60168 0
M  V30 1999 H 183.558 -5.57941 -4.144 0
M  V30 2000 H 186.749 -3.57772 -3.01856 0
M  V30 2001 H 186.922 -5.11186 -3.98237 0
M  V30 2002 N 180.328 1.1314 -1.09713 0
M  V30 2003 C 181.744 1.36477 -0.827423 0
M  V30 2004 C 181.944 1.93654 0.556817 0
M  V30 2005 O 181 2.15791 1.31112 0
M  V30 2006 C 182.313 2.31334 -1.92106 0
M  V30 2007 C 183.861 2.44943 -1.94864 0
M  V30 2008 C 184.336 3.4311 -3.0338 0
M  V30 2009 N 185.827 3.50662 -3.02639 0
M  V30 2010 C 186.562 4.2651 -3.83246 0
M  V30 2011 N 186.058 5.05485 -4.73768 0
M  V30 2012 N 187.851 4.2184 -3.71493 0
M  V30 2013 H 180.002 0.743807 -1.9895 0
M  V30 2014 H 182.265 0.389823 -0.864143 0
M  V30 2015 H 181.971 1.96483 -2.91698 0
M  V30 2016 H 181.845 3.31381 -1.80184 0
M  V30 2017 H 184.232 2.79079 -0.959099 0
M  V30 2018 H 184.313 1.4481 -2.10864 0
M  V30 2019 H 183.957 3.09704 -4.02549 0
M  V30 2020 H 183.887 4.43055 -2.84622 0
M  V30 2021 H 186.378 2.94315 -2.37039 0
M  V30 2022 H 186.691 5.60675 -5.3185 0
M  V30 2023 H 185.036 5.04708 -4.77802 0
M  V30 2024 H 188.227 3.5922 -3.00131 0
M  V30 2025 H 188.4 4.80697 -4.3455 0
M  V30 2026 N 181.806 0.884767 1.30421 0
M  V30 2027 C 183.052 0.503851 1.96441 0
M  V30 2028 C 183.385 -0.944518 1.69684 0
M  V30 2029 O 182.66 -1.66737 1.00145 0
M  V30 2030 C 182.943 0.779085 3.51571 0
M  V30 2031 C 182.796 2.27807 3.87846 0
M  V30 2032 C 184.115 0.255452 4.39358 0
M  V30 2033 H 181.234 0.184533 0.713524 0
M  V30 2034 H 183.876 1.10872 1.54297 0
M  V30 2035 H 182.026 0.264274 3.876 0
M  V30 2036 H 183.698 2.86127 3.61841 0
M  V30 2037 H 181.941 2.74479 3.35922 0
M  V30 2038 H 182.612 2.42125 4.96064 0
M  V30 2039 H 185.088 0.696079 4.10236 0
M  V30 2040 H 183.964 0.477361 5.4682 0
M  V30 2041 H 184.225 -0.843293 4.33983 0
M  V30 2042 N 183.284 -1.43765 0.645699 0
M  V30 2043 C 184.214 -2.33471 -0.0370477 0
M  V30 2044 C 185.195 -1.49042 -0.819779 0
M  V30 2045 O 186.38 -1.77726 -0.782758 0
M  V30 2046 C 183.51 -3.32311 -1.0093 0
M  V30 2047 C 182.464 -4.2667 -0.337201 0
M  V30 2048 C 181.79 -5.1549 -1.42037 0
M  V30 2049 C 183.09 -5.16657 0.765706 0
M  V30 2050 H 184.784 -2.90809 0.712069 0
M  V30 2051 H 182.33 -1.39834 0.343876 0
M  V30 2052 H 184.283 -3.9396 -1.49578 0
M  V30 2053 H 183.007 -2.73213 -1.78948 0
M  V30 2054 H 181.666 -3.66374 0.128771 0
M  V30 2055 H 181.314 -4.52735 -2.1918 0
M  V30 2056 H 181.014 -5.79438 -0.975966 0
M  V30 2057 H 182.538 -5.80012 -1.90838 0
M  V30 2058 H 183.952 -5.72158 0.361702 0
M  V30 2059 H 182.349 -5.89286 1.13413 0
M  V30 2060 H 183.419 -4.56796 1.62683 0
M  V30 2061 N 184.763 -0.387143 -1.52771 0
M  V30 2062 C 185.713 0.465942 -2.23188 0
M  V30 2063 C 186.697 1.03138 -1.23496 0
M  V30 2064 O 187.889 0.957845 -1.48843 0
M  V30 2065 C 185.018 1.59384 -3.04059 0
M  V30 2066 C 184.104 1.04024 -4.11144 0
M  V30 2067 N 184.495 0.211416 -5.05358 0
M  V30 2068 C 182.793 1.31295 -4.26237 0
M  V30 2069 C 183.494 -0.0941698 -5.81624 0
M  V30 2070 N 182.47 0.509207 -5.4121 0
M  V30 2071 H 186.272 -0.173856 -2.93385 0
M  V30 2072 H 183.786 -0.19633 -1.61209 0
M  V30 2073 H 185.783 2.21738 -3.53041 0
M  V30 2074 H 184.443 2.23648 -2.35397 0
M  V30 2075 H 185.454 -0.151151 -5.17679 0
M  V30 2076 H 182.131 1.95679 -3.68803 0
M  V30 2077 H 183.521 -0.765572 -6.67524 0
M  V30 2078 N 186.241 1.57166 -0.116904 0
M  V30 2079 C 187.657 1.5779 0.239693 0
M  V30 2080 C 187.857 1.1295 1.66867 0
M  V30 2081 O 186.913 0.81592 2.38954 0
M  V30 2082 C 188.226 3.00699 0.00828202 0
M  V30 2083 C 189.774 3.12912 0.0743438 0
M  V30 2084 C 190.249 4.57817 -0.129348 0
M  V30 2085 N 191.74 4.63139 -0.075247 0
M  V30 2086 C 192.475 5.73023 -0.207788 0
M  V30 2087 N 191.971 6.91665 -0.396382 0
M  V30 2088 N 193.764 5.61906 -0.14751 0
M  V30 2089 H 185.915 1.84615 -1.05029 0
M  V30 2090 H 188.178 0.85311 -0.41341 0
M  V30 2091 H 187.884 3.37784 -0.979531 0
M  V30 2092 H 187.758 3.69848 0.741077 0
M  V30 2093 H 190.145 2.75686 1.05268 0
M  V30 2094 H 190.226 2.4631 -0.690297 0
M  V30 2095 H 189.87 4.95742 -1.10465 0
M  V30 2096 H 189.8 5.22507 0.655253 0
M  V30 2097 H 192.291 3.7784 0.0670898 0
M  V30 2098 H 192.604 7.71255 -0.488437 0
M  V30 2099 H 190.949 6.93654 -0.432329 0
M  V30 2100 H 194.14 4.681 -0.00115036 0
M  V30 2101 H 194.313 6.47501 -0.254247 0
M  V30 2102 N 187.719 -0.156864 1.56817 0
M  V30 2103 C 188.996 -0.899244 1.73704 0
M  V30 2104 C 189.376 -1.99771 0.682254 0
M  V30 2105 O 188.724 -2.26515 -0.300522 0
M  V30 2106 C 188.934 -1.45075 3.17418 0
M  V30 2107 C 190.282 -1.91802 3.7881 0
M  V30 2108 O 191.306 -1.54838 3.20786 0
M  V30 2109 O 190.165 -2.5994 4.80722 0
M  V30 2110 H 187.259 -0.424267 0.709878 0
M  V30 2111 H 189.805 -0.143561 1.69092 0
M  V30 2112 H 188.577 -0.660846 3.85679 0
M  V30 2113 H 188.2 -2.27021 3.26416 0
M  V30 2114 N 189.197 -1.51736 -0.425897 0
M  V30 2115 C 190.127 -1.76827 -1.52494 0
M  V30 2116 C 191.108 -0.618524 -1.58456 0
M  V30 2117 O 192.293 -0.862416 -1.74 0
M  V30 2118 C 189.423 -1.90374 -2.90474 0
M  V30 2119 C 188.377 -3.0588 -2.99369 0
M  V30 2120 C 187.703 -3.04625 -4.3944 0
M  V30 2121 C 189.003 -4.45644 -2.72394 0
M  V30 2122 H 190.697 -2.68855 -1.31748 0
M  V30 2123 H 188.243 -1.29372 -0.632362 0
M  V30 2124 H 190.196 -2.0651 -3.6733 0
M  V30 2125 H 188.92 -0.95004 -3.12477 0
M  V30 2126 H 187.579 -2.89467 -2.24954 0
M  V30 2127 H 187.227 -2.0701 -4.58428 0
M  V30 2128 H 186.927 -3.82195 -4.46319 0
M  V30 2129 H 188.451 -3.22869 -5.18255 0
M  V30 2130 H 189.865 -4.62348 -3.38979 0
M  V30 2131 H 188.262 -5.25006 -2.9067 0
M  V30 2132 H 189.332 -4.54893 -1.67929 0
M  V30 2133 N 190.675 0.682077 -1.42076 0
M  V30 2134 C 191.622 1.79578 -1.44984 0
M  V30 2135 C 192.592 1.6332 -0.302614 0
M  V30 2136 O 193.777 1.83978 -0.505633 0
M  V30 2137 C 190.917 3.1756 -1.35091 0
M  V30 2138 C 190.03 3.45156 -2.59791 0
M  V30 2139 C 189.165 4.72826 -2.42093 0
M  V30 2140 C 188.204 4.93433 -3.62202 0
M  V30 2141 N 187.341 6.12338 -3.43491 0
M  V30 2142 H 192.181 1.76427 -2.40161 0
M  V30 2143 H 189.718 0.861376 -1.19242 0
M  V30 2144 H 191.676 3.97287 -1.27354 0
M  V30 2145 H 190.306 3.19854 -0.435133 0
M  V30 2146 H 189.358 2.59736 -2.77923 0
M  V30 2147 H 190.67 3.5628 -3.49094 0
M  V30 2148 H 189.824 5.60631 -2.319 0
M  V30 2149 H 188.563 4.63973 -1.50268 0
M  V30 2150 H 187.568 4.04073 -3.72834 0
M  V30 2151 H 188.793 5.04136 -4.54998 0
M  V30 2152 H 186.739 6.04672 -2.54377 0
M  V30 2153 H 186.656 6.2429 -4.26377 0
M  V30 2154 H 187.924 7.02841 -3.37097 0
M  V30 2155 N 192.153 1.28127 0.917671 0
M  V30 2156 C 193.564 1.13622 1.48145 0
M  V30 2157 C 193.915 -0.275207 1.9426 0
M  V30 2158 O 193.04 -1.1691 1.82102 0
M  V30 2159 C 193.635 2.05648 2.69248 0
M  V30 2160 C 192.194 1.95219 3.21818 0
M  V30 2161 C 191.341 1.97618 1.94532 0
M  V30 2162 H 194.292 1.40874 0.730772 0
M  V30 2163 H 194.313 1.61818 3.44377 0
M  V30 2164 H 193.825 3.08365 2.35653 0
M  V30 2165 H 191.926 0.955244 3.60147 0
M  V30 2166 H 192.039 2.81976 3.87333 0
M  V30 2167 H 190.403 1.41973 2.11461 0
M  V30 2168 H 191.186 3.02007 1.63238 0
M  V30 2169 N 193.631 -1.12557 1.10312 0
M  V30 2170 C 194.563 -2.17971 0.708625 0
M  V30 2171 C 195.576 -1.60806 -0.254027 0
M  V30 2172 O 196.765 -1.78458 -0.0386891 0
M  V30 2173 C 193.865 -3.38891 0.0248198 0
M  V30 2174 C 193.038 -4.25548 1.01132 0
M  V30 2175 C 192.097 -5.24972 0.35924 0
M  V30 2176 O 191.123 -5.60174 1.00965 0
M  V30 2177 N 192.325 -5.73747 -0.882847 0
M  V30 2178 H 195.09 -2.52427 1.61557 0
M  V30 2179 H 192.651 -1.27967 0.991771 0
M  V30 2180 H 194.643 -4.02485 -0.422852 0
M  V30 2181 H 193.213 -3.02596 -0.784514 0
M  V30 2182 H 192.433 -3.58589 1.6373 0
M  V30 2183 H 193.721 -4.80294 1.67914 0
M  V30 2184 H 193.119 -5.4731 -1.43065 0
M  V30 2185 H 191.676 -6.39234 -1.27369 0
M  V30 2186 N 195.109 -0.891671 -1.2995 0
M  V30 2187 C 196.057 -0.353066 -2.29905 0
M  V30 2188 C 197.051 0.543509 -1.60444 0
M  V30 2189 O 198.257 0.4272 -1.74857 0
M  V30 2190 H 194.632 -0.095531 -0.745907 0
M  V30 2191 H 196.603 -1.20961 -2.72784 0
M  V30 2192 C 195.352 0.411475 -3.45257 0
M  V30 2193 H 194.675 -0.269182 -3.98893 0
M  V30 2194 H 196.115 0.753328 -4.17254 0
M  V30 2195 C 194.574 1.6111 -2.9588 0
M  V30 2196 O 195.104 2.71045 -2.96475 0
M  V30 2197 N 193.31 1.45054 -2.51809 0
M  V30 2198 H 192.857 0.556175 -2.51524 0
M  V30 2199 H 192.815 2.25453 -2.1913 0
M  V30 2200 N 196.587 1.43421 -0.653314 0
M  V30 2201 C 197.517 2.33487 0.0246656 0
M  V30 2202 C 198.498 1.49475 0.811863 0
M  V30 2203 O 199.683 1.78139 0.773322 0
M  V30 2204 C 196.813 3.32841 0.99166 0
M  V30 2205 C 195.767 4.26842 0.314568 0
M  V30 2206 C 195.093 5.16236 1.39302 0
M  V30 2207 C 196.393 5.16243 -0.793095 0
M  V30 2208 H 198.087 2.90427 -0.727481 0
M  V30 2209 H 195.633 1.39649 -0.351287 0
M  V30 2210 H 197.586 3.94747 1.47487 0
M  V30 2211 H 196.31 2.74158 1.77497 0
M  V30 2212 H 194.969 3.663 -0.148199 0
M  V30 2213 H 194.617 4.53891 2.16776 0
M  V30 2214 H 194.317 5.79948 0.945223 0
M  V30 2215 H 195.841 5.81015 1.87759 0
M  V30 2216 H 197.255 5.71958 -0.392039 0
M  V30 2217 H 195.652 5.88676 -1.16536 0
M  V30 2218 H 196.722 4.55927 -1.65103 0
M  V30 2219 N 198.065 0.39524 1.52563 0
M  V30 2220 C 198.995 -0.428384 2.29537 0
M  V30 2221 C 199.976 -1.05831 1.33169 0
M  V30 2222 O 201.161 -1.06995 1.62067 0
M  V30 2223 C 198.291 -1.55274 3.10656 0
M  V30 2224 C 197.245 -1.04855 4.14957 0
M  V30 2225 C 196.571 -2.26543 4.84337 0
M  V30 2226 C 197.871 -0.112324 5.22179 0
M  V30 2227 H 199.565 0.213867 2.98635 0
M  V30 2228 H 197.111 0.104298 1.43622 0
M  V30 2229 H 199.064 -2.1358 3.63265 0
M  V30 2230 H 197.788 -2.22266 2.39302 0
M  V30 2231 H 196.447 -0.487985 3.63338 0
M  V30 2232 H 196.095 -2.92059 4.09525 0
M  V30 2233 H 195.795 -1.93466 5.54837 0
M  V30 2234 H 197.319 -2.85481 5.39753 0
M  V30 2235 H 198.733 -0.603752 5.70112 0
M  V30 2236 H 197.13 0.128968 5.99961 0
M  V30 2237 H 198.2 0.837052 4.77621 0
M  V30 2238 N 199.544 -1.57102 0.125237 0
M  V30 2239 C 200.793 -1.94582 -0.531095 0
M  V30 2240 C 201.106 -1.01126 -1.6743 0
M  V30 2241 O 202.312 -1.28097 -2.39381 0
M  V30 2242 C 200.768 -3.45839 -0.996164 0
M  V30 2243 C 200.376 -4.47842 0.118926 0
M  V30 2244 C 202.12 -3.92227 -1.62352 0
M  V30 2245 C 200.027 -5.90284 -0.363192 0
M  V30 2246 H 198.957 -0.726391 -0.20217 0
M  V30 2247 H 201.608 -1.82339 0.206092 0
M  V30 2248 H 199.99 -3.53338 -1.78796 0
M  V30 2249 H 201.164 -4.52018 0.895358 0
M  V30 2250 H 199.479 -4.11243 0.653324 0
M  V30 2251 H 202.076 -4.96069 -1.99548 0
M  V30 2252 H 202.419 -3.32552 -2.50429 0
M  V30 2253 H 202.952 -3.87554 -0.897019 0
M  V30 2254 H 199.691 -6.53728 0.481679 0
M  V30 2255 H 199.211 -5.89515 -1.10597 0
M  V30 2256 H 200.89 -6.41752 -0.822377 0
M  V30 2257 N 201.022 0.148545 -1.56898 0
M  V30 2258 C 202.299 0.890019 -1.74178 0
M  V30 2259 C 202.679 1.99407 -0.692839 0
M  V30 2260 O 202.027 2.26671 0.288505 0
M  V30 2261 C 202.237 1.43389 -3.18183 0
M  V30 2262 C 203.585 1.89791 -3.79822 0
M  V30 2263 O 204.609 1.53134 -3.21603 0
M  V30 2264 O 203.468 2.57387 -4.82093 0
M  V30 2265 H 200.562 0.420496 -0.712118 0
M  V30 2266 H 203.108 0.134591 -1.69165 0
M  V30 2267 H 201.88 0.640383 -3.86024 0
M  V30 2268 H 201.503 2.25287 -3.27615 0
M  V30 2269 N 202.5 1.5196 0.417844 0
M  V30 2270 C 203.777 1.56146 1.17803 0
M  V30 2271 C 204.157 0.337275 2.08388 0
M  V30 2272 O 203.505 -0.676447 2.18258 0
M  V30 2273 C 203.715 2.88566 1.96293 0
M  V30 2274 C 205.063 3.41244 2.52662 0
M  V30 2275 O 206.087 2.90247 2.06483 0
M  V30 2276 O 204.946 4.30273 3.36938 0
M  V30 2277 H 202.04 0.628598 0.537395 0
M  V30 2278 H 204.586 1.64283 0.425331 0
M  V30 2279 H 203.358 3.69116 1.2988 0
M  V30 2280 H 202.981 2.83681 2.78587 0
M  V30 2281 N 203.978 -0.674533 1.42435 0
M  V30 2282 C 204.925 -1.78807 1.45934 0
M  V30 2283 C 205.895 -1.63157 0.311271 0
M  V30 2284 O 207.08 -1.83707 0.515383 0
M  V30 2285 C 204.22 -3.16839 1.36773 0
M  V30 2286 C 203.333 -3.43774 2.61617 0
M  V30 2287 C 202.468 -4.71536 2.44597 0
M  V30 2288 C 201.507 -4.91505 3.64814 0
M  V30 2289 N 200.644 -6.10508 3.46734 0
M  V30 2290 H 205.484 -1.75151 2.41093 0
M  V30 2291 H 203.021 -0.85504 1.19697 0
M  V30 2292 H 204.979 -3.96606 1.29459 0
M  V30 2293 H 203.609 -3.19619 0.452089 0
M  V30 2294 H 202.661 -2.58259 2.79297 0
M  V30 2295 H 203.973 -3.54423 3.50978 0
M  V30 2296 H 203.127 -5.59393 2.3487 0
M  V30 2297 H 201.866 -4.6317 1.52726 0
M  V30 2298 H 200.871 -4.0209 3.74972 0
M  V30 2299 H 202.096 -5.01716 4.57665 0
M  V30 2300 H 200.042 -6.03315 2.5758 0
M  V30 2301 H 199.959 -6.2202 4.29682 0
M  V30 2302 H 201.227 -7.01044 3.40819 0
M  V30 2303 N 205.456 -1.28612 -0.910864 0
M  V30 2304 C 206.704 -1.15705 -1.65701 0
M  V30 2305 C 207.025 0.29416 -1.92769 0
M  V30 2306 O 206.295 1.20331 -1.54588 0
M  V30 2307 H 204.875 -0.425216 -0.614167 0
M  V30 2308 H 207.537 -1.61381 -1.0928 0
M  V30 2309 H 206.633 -1.6988 -2.61815 0
M  V30 2310 N 206.934 1.1197 -1.10907 0
M  V30 2311 C 208.162 1.87402 -0.876824 0
M  V30 2312 C 208.577 1.79894 0.573025 0
M  V30 2313 O 207.934 1.17629 1.39534 0
M  V30 2314 C 207.985 3.36428 -1.32282 0
M  V30 2315 O 207.706 3.43765 -2.71582 0
M  V30 2316 C 209.207 4.28783 -1.12518 0
M  V30 2317 H 206.427 0.592793 -0.314384 0
M  V30 2318 H 208.971 1.41649 -1.47499 0
M  V30 2319 H 207.126 3.79706 -0.768229 0
M  V30 2320 H 207.54 4.3652 -2.90776 0
M  V30 2321 H 209.014 5.31613 -1.48633 0
M  V30 2322 H 209.491 4.39153 -0.0642394 0
M  V30 2323 H 210.097 3.91291 -1.66648 0
M  V30 2324 N 208.412 0.89855 1.29475 0
M  V30 2325 C 209.661 0.519863 1.94885 0
M  V30 2326 C 209.974 -0.9383 1.71625 0
M  V30 2327 O 211.18 -1.42445 2.31131 0
M  V30 2328 C 209.636 0.878836 3.49005 0
M  V30 2329 C 209.244 2.35569 3.81066 0
M  V30 2330 C 210.988 0.570004 4.20656 0
M  V30 2331 C 208.895 2.65558 5.28425 0
M  V30 2332 H 207.825 0.190692 0.729488 0
M  V30 2333 H 210.476 1.09539 1.47219 0
M  V30 2334 H 208.858 0.232253 3.95318 0
M  V30 2335 H 210.032 3.04773 3.45616 0
M  V30 2336 H 208.347 2.63343 3.22552 0
M  V30 2337 H 210.944 0.770925 5.29113 0
M  V30 2338 H 211.287 -0.491404 4.1339 0
M  V30 2339 H 211.82 1.17438 3.8007 0
M  V30 2340 H 208.559 3.70493 5.40754 0
M  V30 2341 H 208.079 2.00977 5.65127 0
M  V30 2342 H 209.758 2.51765 5.96006 0
M  V30 2343 N 209.89 -1.43072 0.660911 0
M  V30 2344 C 210.837 -2.30785 -0.0259884 0
M  V30 2345 C 211.807 -1.45184 -0.806888 0
M  V30 2346 O 212.992 -1.74041 -0.781943 0
M  V30 2347 C 210.132 -3.30861 -0.981067 0
M  V30 2348 C 209.245 -4.31558 -0.195458 0
M  V30 2349 C 208.38 -5.18712 -1.14503 0
M  V30 2350 C 207.419 -6.11097 -0.350299 0
M  V30 2351 N 206.556 -6.90849 -1.25186 0
M  V30 2352 H 211.396 -2.88975 0.727846 0
M  V30 2353 H 208.933 -1.42353 0.370682 0
M  V30 2354 H 210.891 -3.87399 -1.54849 0
M  V30 2355 H 209.521 -2.74304 -1.70169 0
M  V30 2356 H 208.573 -3.77252 0.488374 0
M  V30 2357 H 209.885 -4.9701 0.422176 0
M  V30 2358 H 209.039 -5.79914 -1.78284 0
M  V30 2359 H 207.778 -4.53404 -1.79656 0
M  V30 2360 H 206.783 -5.48976 0.300808 0
M  V30 2361 H 208.008 -6.7845 0.296941 0
M  V30 2362 H 205.954 -6.28182 -1.89005 0
M  V30 2363 H 205.871 -7.52854 -0.688971 0
M  V30 2364 H 207.139 -7.5655 -1.87757 0
M  V30 2365 N 211.368 -0.403325 -1.52352 0
M  V30 2366 C 212.298 0.416205 -2.29761 0
M  V30 2367 C 213.279 1.05123 -1.33728 0
M  V30 2368 O 214.464 1.06134 -1.62632 0
M  V30 2369 C 211.594 1.53624 -3.11475 0
M  V30 2370 C 210.548 1.02653 -4.15507 0
M  V30 2371 C 209.874 2.23971 -4.85532 0
M  V30 2372 C 211.174 0.08463 -5.22231 0
M  V30 2373 H 212.868 -0.229701 -2.98518 0
M  V30 2374 H 210.414 -0.111913 -1.43564 0
M  V30 2375 H 212.367 2.1165 -3.64393 0
M  V30 2376 H 211.091 2.20994 -2.40477 0
M  V30 2377 H 209.75 0.46871 -3.63591 0
M  V30 2378 H 209.398 2.89883 -4.11068 0
M  V30 2379 H 209.098 1.90521 -5.55856 0
M  V30 2380 H 210.622 2.82614 -5.41259 0
M  V30 2381 H 212.036 0.573509 -5.70424 0
M  V30 2382 H 210.433 -0.160783 -5.99885 0
M  V30 2383 H 211.503 -0.86237 -4.7717 0
M  V30 2384 N 212.846 1.57033 -0.133567 0
M  V30 2385 C 213.809 2.14897 0.796995 0
M  V30 2386 C 214.809 1.0874 1.18458 0
M  V30 2387 O 215.999 1.34446 1.1077 0
M  V30 2388 C 213.131 2.70112 2.07973 0
M  V30 2389 H 214.324 2.98457 0.293873 0
M  V30 2390 H 211.877 1.55871 0.115787 0
M  V30 2391 H 212.612 1.9018 2.62682 0
M  V30 2392 H 212.397 3.47764 1.81115 0
M  V30 2393 H 213.887 3.14738 2.74462 0
M  V30 2394 N 214.325 -0.140222 1.56975 0
M  V30 2395 C 215.602 -0.880769 1.74648 0
M  V30 2396 C 215.982 -1.99036 0.703404 0
M  V30 2397 O 215.33 -2.26821 -0.27648 0
M  V30 2398 C 215.54 -1.417 3.18939 0
M  V30 2399 C 216.888 -1.87774 3.80823 0
M  V30 2400 O 217.912 -1.51427 3.2241 0
M  V30 2401 O 216.771 -2.54827 4.83452 0
M  V30 2402 H 213.865 -0.416713 0.714338 0
M  V30 2403 H 216.411 -0.125618 1.69234 0
M  V30 2404 H 215.183 -0.619902 3.86359 0
M  V30 2405 H 214.806 -2.23546 3.28805 0
M  V30 2406 N 215.803 -1.52179 -0.40978 0
M  V30 2407 C 217.05 -1.66206 -1.15679 0
M  V30 2408 C 217.378 -0.391674 -1.90516 0
M  V30 2409 O 216.633 0.62533 -1.8544 0
M  V30 2410 C 216.932 -2.83428 -2.17723 0
M  V30 2411 C 216.598 -4.21672 -1.59699 0
M  V30 2412 C 215.26 -4.59274 -1.43599 0
M  V30 2413 C 217.612 -5.07825 -1.17317 0
M  V30 2414 C 214.94 -5.80709 -0.836328 0
M  V30 2415 C 217.292 -6.29864 -0.587691 0
M  V30 2416 C 215.956 -6.66216 -0.413818 0
M  V30 2417 H 215.226 -0.608192 -0.423301 0
M  V30 2418 H 217.873 -1.86279 -0.444097 0
M  V30 2419 H 216.178 -2.57687 -2.95135 0
M  V30 2420 H 217.875 -2.91477 -2.75394 0
M  V30 2421 H 214.465 -3.9204 -1.73213 0
M  V30 2422 H 218.649 -4.79359 -1.28565 0
M  V30 2423 H 213.905 -6.07498 -0.689626 0
M  V30 2424 H 218.079 -6.95948 -0.250894 0
M  V30 2425 H 215.706 -7.60182 0.0529471 0
M  V30 2426 N 217.281 0.66697 -1.42791 0
M  V30 2427 C 218.529 1.42417 -1.43394 0
M  V30 2428 C 218.85 1.94925 -0.0542373 0
M  V30 2429 O 218.12 1.73564 0.908415 0
M  V30 2430 H 216.7 0.528515 -0.527902 0
M  V30 2431 H 219.362 0.787562 -1.78279 0
M  V30 2432 H 218.458 2.27333 -2.13837 0
M  V30 2433 N 218.759 1.29093 0.90403 0
M  V30 2434 C 219.689 1.16401 2.02418 0
M  V30 2435 C 220.67 0.0593085 1.69997 0
M  V30 2436 O 221.855 0.238021 1.92736 0
M  V30 2437 C 218.985 0.835233 3.37107 0
M  V30 2438 C 217.939 1.89578 3.83724 0
M  V30 2439 C 217.265 1.42041 5.15489 0
M  V30 2440 C 218.565 3.30394 4.04521 0
M  V30 2441 H 220.259 2.10109 2.13295 0
M  V30 2442 H 217.805 1.01157 1.02486 0
M  V30 2443 H 219.758 0.733169 4.14973 0
M  V30 2444 H 218.482 -0.137543 3.2631 0
M  V30 2445 H 217.141 1.98715 3.08071 0
M  V30 2446 H 216.789 0.436426 5.01103 0
M  V30 2447 H 216.489 2.12964 5.4765 0
M  V30 2448 H 218.013 1.33176 5.959 0
M  V30 2449 H 219.427 3.24123 4.72882 0
M  V30 2450 H 217.824 3.99237 4.48029 0
M  V30 2451 H 218.894 3.73692 3.09002 0
M  V30 2452 N 220.237 -1.11381 1.11499 0
M  V30 2453 C 221.2 -2.15622 0.777153 0
M  V30 2454 C 222.2 -1.59504 -0.203779 0
M  V30 2455 O 223.39 -1.74188 0.020782 0
M  V30 2456 C 220.522 -3.40556 0.153116 0
M  V30 2457 H 221.715 -2.47021 1.70061 0
M  V30 2458 H 219.268 -1.26577 0.916952 0
M  V30 2459 H 220.003 -3.14767 -0.780536 0
M  V30 2460 H 219.788 -3.8257 0.859238 0
M  V30 2461 H 221.278 -4.17546 -0.0671044 0
M  V30 2462 N 221.715 -0.905404 -1.28997 0
M  V30 2463 C 223.131 -0.60233 -1.47798 0
M  V30 2464 C 223.331 0.854645 -1.82478 0
M  V30 2465 O 222.387 1.63439 -1.92468 0
M  V30 2466 C 223.7 -1.53306 -2.58685 0
M  V30 2467 C 225.248 -1.53887 -2.72558 0
M  V30 2468 C 225.723 -2.45602 -3.86579 0
M  V30 2469 N 227.214 -2.43681 -3.93921 0
M  V30 2470 C 227.949 -3.11347 -4.81509 0
M  V30 2471 N 227.445 -3.88313 -5.73746 0
M  V30 2472 N 229.238 -3.00476 -4.75048 0
M  V30 2473 H 221.389 -1.84765 -1.04764 0
M  V30 2474 H 223.652 -0.792025 -0.520961 0
M  V30 2475 H 223.358 -2.57141 -2.39941 0
M  V30 2476 H 223.232 -1.25787 -3.55609 0
M  V30 2477 H 225.619 -0.507941 -2.90696 0
M  V30 2478 H 225.7 -1.85447 -1.76191 0
M  V30 2479 H 225.344 -3.48792 -3.69197 0
M  V30 2480 H 225.274 -2.11349 -4.82327 0
M  V30 2481 H 227.765 -1.87767 -3.27951 0
M  V30 2482 H 228.078 -4.36985 -6.37389 0
M  V30 2483 H 226.423 -3.92419 -5.73614 0
M  V30 2484 H 229.614 -2.39858 -4.01977 0
M  V30 2485 H 229.787 -3.53485 -5.43095 0
M  V30 2486 N 223.193 1.4272 -0.668489 0
M  V30 2487 C 224.156 2.292 0.00448567 0
M  V30 2488 C 225.156 1.43001 0.735339 0
M  V30 2489 O 226.346 1.64461 0.57429 0
M  V30 2490 C 223.478 3.25375 1.01705 0
M  V30 2491 H 224.671 2.90199 -0.756608 0
M  V30 2492 H 222.224 1.50254 -0.430506 0
M  V30 2493 H 222.959 2.69301 1.80686 0
M  V30 2494 H 222.744 3.88944 0.496463 0
M  V30 2495 H 224.234 3.90245 1.48655 0
M  V30 2496 N 224.671 0.411399 1.52136 0
M  V30 2497 C 225.918 -0.163645 2.01838 0
M  V30 2498 C 226.246 -1.4495 1.29691 0
M  V30 2499 O 225.501 -1.91725 0.392431 0
M  V30 2500 C 225.8 -0.455872 3.54481 0
M  V30 2501 C 225.466 0.741055 4.44769 0
M  V30 2502 C 224.128 1.06936 4.69167 0
M  V30 2503 C 226.48 1.54075 4.97906 0
M  V30 2504 C 223.808 2.19851 5.43951 0
M  V30 2505 C 226.16 2.66067 5.73926 0
M  V30 2506 C 224.824 2.99381 5.96596 0
M  V30 2507 H 224.094 -0.0598821 0.738576 0
M  V30 2508 H 226.741 0.553283 1.83333 0
M  V30 2509 H 225.046 -1.2544 3.71177 0
M  V30 2510 H 226.743 -0.913802 3.90449 0
M  V30 2511 H 223.333 0.475192 4.25958 0
M  V30 2512 H 227.517 1.30033 4.78963 0
M  V30 2513 H 222.773 2.46006 5.59724 0
M  V30 2514 H 226.947 3.28419 6.14096 0
M  V30 2515 H 224.574 3.86992 6.54325 0
M  V30 2516 N 226.149 -1.5696 0.141893 0
M  V30 2517 C 227.397 -1.95573 -0.509484 0
M  V30 2518 C 227.718 -1.02746 -1.65736 0
M  V30 2519 O 226.988 -0.0880311 -1.95702 0
M  V30 2520 H 225.568 -0.722115 -0.191205 0
M  V30 2521 H 228.23 -1.93697 0.216196 0
M  V30 2522 H 227.326 -2.99171 -0.889 0
M  V30 2523 N 227.627 0.131896 -1.57047 0
M  V30 2524 C 228.876 0.84044 -1.83356 0
M  V30 2525 C 229.189 1.81646 -0.725535 0
M  V30 2526 O 230.395 2.57025 -0.874659 0
M  V30 2527 C 228.851 1.54528 -3.25037 0
M  V30 2528 C 228.459 0.610902 -4.43815 0
M  V30 2529 C 230.203 2.23972 -3.60606 0
M  V30 2530 C 228.11 1.31823 -5.76521 0
M  V30 2531 H 227.04 0.317599 -0.683847 0
M  V30 2532 H 229.691 0.0931561 -1.83263 0
M  V30 2533 H 228.073 2.33873 -3.19561 0
M  V30 2534 H 229.247 -0.148407 -4.60561 0
M  V30 2535 H 227.562 0.0241016 -4.16393 0
M  V30 2536 H 230.159 2.77558 -4.57018 0
M  V30 2537 H 230.502 3.01173 -2.87403 0
M  V30 2538 H 231.035 1.51529 -3.6781 0
M  V30 2539 H 227.774 0.587771 -6.52859 0
M  V30 2540 H 227.294 2.04987 -5.63685 0
M  V30 2541 H 228.973 1.855 -6.19838 0
M  V30 2542 N 229.106 1.52395 0.401703 0
M  V30 2543 C 230.517 1.58899 0.980202 0
M  V30 2544 C 230.868 0.434032 1.91339 0
M  V30 2545 O 229.993 -0.444619 2.11783 0
M  V30 2546 C 230.588 2.87994 1.78451 0
M  V30 2547 C 229.147 2.96953 2.31292 0
M  V30 2548 C 228.294 2.53903 1.11483 0
M  V30 2549 H 231.245 1.57657 0.18168 0
M  V30 2550 H 231.266 2.73765 2.64259 0
M  V30 2551 H 230.778 3.72035 1.10506 0
M  V30 2552 H 228.879 2.17422 3.02586 0
M  V30 2553 H 228.992 4.01344 2.61649 0
M  V30 2554 H 227.356 2.07925 1.47104 0
M  V30 2555 H 228.139 3.40326 0.450928 0
M  V30 2556 N 230.584 -0.659388 1.43143 0
M  V30 2557 C 231.833 -1.41518 1.43721 0
M  V30 2558 C 232.146 -1.95499 0.0628176 0
M  V30 2559 O 233.352 -2.71446 -0.0539683 0
M  V30 2560 C 231.808 -2.5608 2.52885 0
M  V30 2561 C 231.416 -2.08733 3.96402 0
M  V30 2562 C 233.16 -3.3349 2.62649 0
M  V30 2563 C 231.067 -3.20469 4.97045 0
M  V30 2564 H 229.997 -0.531705 0.534608 0
M  V30 2565 H 232.648 -0.712343 1.69109 0
M  V30 2566 H 231.03 -3.28805 2.20688 0
M  V30 2567 H 232.204 -1.43059 4.3803 0
M  V30 2568 H 230.519 -1.44219 3.90627 0
M  V30 2569 H 233.116 -4.16734 3.35017 0
M  V30 2570 H 233.459 -3.8111 1.67513 0
M  V30 2571 H 233.992 -2.67842 2.94118 0
M  V30 2572 H 230.731 -2.77824 5.93712 0
M  V30 2573 H 230.251 -3.84874 4.60034 0
M  V30 2574 H 231.93 -3.85698 5.19467 0
M  V30 2575 N 232.062 -1.29571 -0.897171 0
M  V30 2576 C 233.478 -1.07637 -1.17841 0
M  V30 2577 C 233.678 0.170713 -2.00776 0
M  V30 2578 O 232.734 0.867768 -2.3712 0
M  V30 2579 C 234.047 -2.3332 -1.8969 0
M  V30 2580 C 235.595 -2.38664 -2.02505 0
M  V30 2581 C 236.07 -3.64157 -2.77765 0
M  V30 2582 N 237.561 -3.64894 -2.85318 0
M  V30 2583 C 238.296 -4.58679 -3.44094 0
M  V30 2584 N 237.792 -5.62799 -4.04017 0
M  V30 2585 N 239.585 -4.46245 -3.41793 0
M  V30 2586 H 231.736 -2.09598 -0.343883 0
M  V30 2587 H 233.999 -0.923333 -0.214848 0
M  V30 2588 H 233.705 -3.24262 -1.36187 0
M  V30 2589 H 233.579 -2.41025 -2.9015 0
M  V30 2590 H 235.966 -1.48208 -2.55183 0
M  V30 2591 H 236.047 -2.34943 -1.01171 0
M  V30 2592 H 235.691 -4.54965 -2.25763 0
M  V30 2593 H 235.621 -3.65137 -3.7945 0
M  V30 2594 H 238.112 -2.89613 -2.42761 0
M  V30 2595 H 238.425 -6.3048 -4.46895 0
M  V30 2596 H 236.77 -5.66605 -4.02472 0
M  V30 2597 H 239.961 -3.64094 -2.94199 0
M  V30 2598 H 240.134 -5.19518 -3.87304 0
M  V30 2599 N 233.54 1.10788 -1.12088 0
M  V30 2600 C 234.786 1.82942 -0.875226 0
M  V30 2601 C 235.119 1.84779 0.597538 0
M  V30 2602 O 234.394 1.30578 1.44152 0
M  V30 2603 C 234.677 3.29789 -1.44606 0
M  V30 2604 C 234.53 3.36307 -2.98693 0
M  V30 2605 C 235.849 4.26064 -1.10261 0
M  V30 2606 H 232.968 0.664195 -0.319397 0
M  V30 2607 H 235.61 1.29867 -1.38689 0
M  V30 2608 H 233.76 3.75118 -1.01089 0
M  V30 2609 H 235.432 2.99487 -3.50864 0
M  V30 2610 H 233.675 2.76318 -3.34411 0
M  V30 2611 H 234.346 4.39694 -3.33726 0
M  V30 2612 H 236.822 3.88951 -1.4784 0
M  V30 2613 H 235.698 5.27183 -1.52869 0
M  V30 2614 H 235.959 4.42098 -0.0142953 0
M  V30 2615 N 235.018 0.912232 1.28515 0
M  V30 2616 C 236.248 0.559604 1.98877 0
M  V30 2617 C 236.656 -0.863113 1.68366 0
M  V30 2618 O 235.999 -1.58304 0.931969 0
M  V30 2619 C 236.061 0.68703 3.52874 0
M  V30 2620 C 235.725 2.07901 4.06972 0
M  V30 2621 C 236.722 3.05157 4.20922 0
M  V30 2622 C 234.407 2.39178 4.417 0
M  V30 2623 C 236.401 4.31806 4.68852 0
M  V30 2624 C 234.088 3.66068 4.89324 0
M  V30 2625 C 235.086 4.62195 5.02856 0
M  V30 2626 O 234.774 5.86829 5.49442 0
M  V30 2627 H 234.506 0.212191 0.641834 0
M  V30 2628 H 237.06 1.22712 1.64715 0
M  V30 2629 H 235.29 -0.0375486 3.86682 0
M  V30 2630 H 236.979 0.341727 4.04459 0
M  V30 2631 H 237.745 2.82311 3.94367 0
M  V30 2632 H 233.624 1.65109 4.30418 0
M  V30 2633 H 237.168 5.06842 4.79329 0
M  V30 2634 H 233.065 3.88739 5.15318 0
M  V30 2635 H 233.833 5.89597 5.6773 0
M  V30 2636 N 236.496 -1.42363 0.676048 0
M  V30 2637 C 237.724 -2.05859 0.207268 0
M  V30 2638 C 238.139 -1.50796 -1.13605 0
M  V30 2639 O 237.496 -0.648265 -1.70598 0
M  V30 2640 C 237.547 -3.61248 0.134975 0
M  V30 2641 O 237.268 -4.1427 1.42521 0
M  V30 2642 C 238.769 -4.41859 -0.357151 0
M  V30 2643 H 235.989 -0.663431 0.100503 0
M  V30 2644 H 238.533 -1.82479 0.923136 0
M  V30 2645 H 236.688 -3.83735 -0.531588 0
M  V30 2646 H 237.102 -5.0815 1.29939 0
M  V30 2647 H 238.576 -5.50847 -0.356641 0
M  V30 2648 H 239.053 -4.16536 -1.39264 0
M  V30 2649 H 239.659 -4.24392 0.27772 0
M  V30 2650 N 237.974 -0.419461 -1.51915 0
M  V30 2651 C 238.924 0.418496 -2.24126 0
M  V30 2652 C 239.908 1.00495 -1.25656 0
M  V30 2653 O 241.1 0.926058 -1.50842 0
M  V30 2654 C 238.229 1.52899 -3.07371 0
M  V30 2655 C 237.315 0.952797 -4.13258 0
M  V30 2656 N 237.706 0.104175 -5.05693 0
M  V30 2657 C 236.004 1.22224 -4.28926 0
M  V30 2658 C 236.705 -0.21752 -5.81293 0
M  V30 2659 N 235.681 0.394293 -5.42168 0
M  V30 2660 H 239.483 -0.236048 -2.92951 0
M  V30 2661 H 236.997 -0.230481 -1.60756 0
M  V30 2662 H 238.994 2.14199 -3.57665 0
M  V30 2663 H 237.654 2.18605 -2.40088 0
M  V30 2664 H 238.665 -0.260924 -5.17242 0
M  V30 2665 H 235.342 1.87812 -3.72871 0
M  V30 2666 H 236.732 -0.906992 -6.6575 0
M  V30 2667 N 239.452 1.56882 -0.150215 0
M  V30 2668 C 240.362 2.20494 0.801222 0
M  V30 2669 C 241.378 1.19019 1.26927 0
M  V30 2670 O 242.554 1.51607 1.32579 0
M  V30 2671 C 239.619 2.81659 2.02161 0
M  V30 2672 C 238.68 3.9827 1.60249 0
M  V30 2673 C 237.913 4.56508 2.7647 0
M  V30 2674 O 238.136 4.13627 3.92771 0
M  V30 2675 O 237.07 5.46719 2.51757 0
M  V30 2676 H 240.896 3.02315 0.289717 0
M  V30 2677 H 238.481 1.49202 0.0769684 0
M  V30 2678 H 240.363 3.20522 2.73576 0
M  V30 2679 H 239.038 2.02849 2.52258 0
M  V30 2680 H 237.945 3.64117 0.858477 0
M  V30 2681 H 239.278 4.78609 1.14864 0
M  V30 2682 N 240.93 -0.123565 1.57115 0
M  V30 2683 C 242.176 -0.833386 1.84885 0
M  V30 2684 C 242.509 -1.79742 0.735292 0
M  V30 2685 O 241.784 -1.92764 -0.25925 0
M  V30 2686 C 242.067 -1.5873 3.23228 0
M  V30 2687 C 241.92 -0.643183 4.45178 0
M  V30 2688 C 243.239 -2.54453 3.59085 0
M  V30 2689 H 240.358 -0.301518 0.6725 0
M  V30 2690 H 243 -0.097778 1.89748 0
M  V30 2691 H 241.15 -2.21438 3.19214 0
M  V30 2692 H 242.822 -0.0253015 4.61293 0
M  V30 2693 H 241.065 0.0456139 4.33776 0
M  V30 2694 H 241.736 -1.20724 5.38637 0
M  V30 2695 H 244.212 -2.01853 3.63861 0
M  V30 2696 H 243.088 -3.04238 4.5687 0
M  V30 2697 H 243.349 -3.36906 2.86264 0
M  V30 2698 N 242.408 -1.52605 -0.393616 0
M  V30 2699 C 243.654 -1.67672 -1.14079 0
M  V30 2700 C 243.987 -0.413121 -1.89755 0
M  V30 2701 O 243.262 0.588952 -1.85369 0
M  V30 2702 C 243.545 -2.9088 -2.12276 0
M  V30 2703 C 243.398 -4.27329 -1.40394 0
M  V30 2704 C 244.717 -3.09628 -3.12759 0
M  V30 2705 H 241.836 -0.610168 -0.413356 0
M  V30 2706 H 244.478 -1.85193 -0.424696 0
M  V30 2707 H 242.628 -2.76073 -2.73342 0
M  V30 2708 H 244.3 -4.53894 -0.82327 0
M  V30 2709 H 242.543 -4.2802 -0.705801 0
M  V30 2710 H 243.214 -5.09615 -2.12123 0
M  V30 2711 H 245.69 -3.23436 -2.61779 0
M  V30 2712 H 244.566 -3.97322 -3.78717 0
M  V30 2713 H 244.827 -2.23637 -3.81365 0
M  V30 2714 N 243.887 0.651787 -1.4349 0
M  V30 2715 C 245.115 1.43937 -1.48626 0
M  V30 2716 C 245.53 1.8851 -0.104587 0
M  V30 2717 O 244.887 1.5958 0.885464 0
M  V30 2718 C 244.938 2.6734 -2.43334 0
M  V30 2719 O 244.659 2.24631 -3.76128 0
M  V30 2720 C 246.16 3.60683 -2.57726 0
M  V30 2721 H 243.38 0.44213 -0.504739 0
M  V30 2722 H 245.924 0.798944 -1.88248 0
M  V30 2723 H 244.079 3.2752 -2.06904 0
M  V30 2724 H 244.493 3.04485 -4.2707 0
M  V30 2725 H 245.967 4.43933 -3.28067 0
M  V30 2726 H 246.444 4.08126 -1.62265 0
M  V30 2727 H 247.05 3.06384 -2.94973 0
M  V30 2728 N 245.365 1.30045 0.890287 0
M  V30 2729 C 246.295 1.18541 2.01172 0
M  V30 2730 C 247.276 0.0773356 1.69924 0
M  V30 2731 O 248.461 0.25845 1.92473 0
M  V30 2732 C 245.591 0.870941 3.36202 0
M  V30 2733 C 244.545 1.93637 3.81692 0
M  V30 2734 C 243.871 1.475 5.13953 0
M  V30 2735 C 245.171 3.34666 4.00994 0
M  V30 2736 H 246.865 2.12359 2.11054 0
M  V30 2737 H 244.411 1.02238 1.01407 0
M  V30 2738 H 246.364 0.777141 4.14172 0
M  V30 2739 H 245.088 -0.102926 3.26438 0
M  V30 2740 H 243.747 2.01972 3.05946 0
M  V30 2741 H 243.395 0.489551 5.00612 0
M  V30 2742 H 243.095 2.1876 5.4536 0
M  V30 2743 H 244.619 1.39489 5.94454 0
M  V30 2744 H 246.033 3.2912 4.69417 0
M  V30 2745 H 244.43 4.03966 4.43769 0
M  V30 2746 H 245.5 3.76949 3.05021 0
M  V30 2747 N 246.843 -1.10192 1.12674 0
M  V30 2748 C 248.089 -1.82658 0.894847 0
M  V30 2749 C 248.444 -1.83666 -0.573107 0
M  V30 2750 O 247.737 -1.28816 -1.41835 0
M  V30 2751 C 247.931 -3.28552 1.4067 0
M  V30 2752 C 247.76 -3.41756 2.92289 0
M  V30 2753 C 246.53 -3.54021 3.60551 0
M  V30 2754 C 248.728 -3.34949 3.90274 0
M  V30 2755 N 246.71 -3.55827 5.0026 0
M  V30 2756 C 248.081 -3.43531 5.16127 0
M  V30 2757 C 250.136 -3.18565 3.8265 0
M  V30 2758 C 248.839 -3.37416 6.3525 0
M  V30 2759 C 250.865 -3.13772 5.01299 0
M  V30 2760 C 250.227 -3.22938 6.26012 0
M  V30 2761 H 246.326 -0.683044 0.380756 0
M  V30 2762 H 248.91 -1.31752 1.43351 0
M  V30 2763 H 247.081 -3.77946 0.895055 0
M  V30 2764 H 248.813 -3.88991 1.11661 0
M  V30 2765 H 245.568 -3.57135 3.1105 0
M  V30 2766 H 245.992 -3.60335 5.73138 0
M  V30 2767 H 250.634 -3.10354 2.87124 0
M  V30 2768 H 248.352 -3.44391 7.3104 0
M  V30 2769 H 251.938 -3.02242 4.97133 0
M  V30 2770 H 250.818 -3.19235 7.16281 0
M  V30 2771 N 248.321 -0.919034 -1.28029 0
M  V30 2772 C 249.551 -0.570143 -1.98577 0
M  V30 2773 C 249.959 0.854172 -1.68821 0
M  V30 2774 O 249.302 1.57807 -0.940351 0
M  V30 2775 C 249.364 -0.705734 -3.52505 0
M  V30 2776 C 249.028 -2.10057 -4.05863 0
M  V30 2777 C 250.025 -3.07385 -4.19298 0
M  V30 2778 C 247.71 -2.41517 -4.40426 0
M  V30 2779 C 249.704 -4.34287 -4.66555 0
M  V30 2780 C 247.391 -3.68657 -4.87376 0
M  V30 2781 C 248.389 -4.64856 -5.00398 0
M  V30 2782 O 248.077 -5.89735 -5.46322 0
M  V30 2783 H 247.809 -0.215592 -0.6407 0
M  V30 2784 H 250.363 -1.23583 -1.64062 0
M  V30 2785 H 248.593 0.0170414 -3.86696 0
M  V30 2786 H 250.282 -0.363172 -4.04272 0
M  V30 2787 H 251.048 -2.84398 -3.92865 0
M  V30 2788 H 246.927 -1.67389 -4.29537 0
M  V30 2789 H 250.471 -5.09377 -4.76635 0
M  V30 2790 H 246.368 -3.91466 -5.13249 0
M  V30 2791 H 247.136 -5.92599 -5.64596 0
M  V30 2792 N 249.799 1.42003 -0.683588 0
M  V30 2793 C 251.215 1.55625 -0.353976 0
M  V30 2794 C 251.415 1.66151 1.14 0
M  V30 2795 O 250.471 1.63329 1.92561 0
M  V30 2796 C 251.784 2.80171 -1.092 0
M  V30 2797 C 253.332 2.93954 -1.07518 0
M  V30 2798 C 253.807 4.21372 -1.79471 0
M  V30 2799 N 255.298 4.28303 -1.76381 0
M  V30 2800 C 256.033 5.25729 -2.28904 0
M  V30 2801 N 255.529 6.29254 -2.89846 0
M  V30 2802 N 257.322 5.17586 -2.19228 0
M  V30 2803 H 249.473 1.33415 -1.6527 0
M  V30 2804 H 251.736 0.64282 -0.696769 0
M  V30 2805 H 251.442 2.78561 -2.14701 0
M  V30 2806 H 251.316 3.7133 -0.662862 0
M  V30 2807 H 253.703 2.95086 -0.028475 0
M  V30 2808 H 253.784 2.04002 -1.54328 0
M  V30 2809 H 253.428 4.21001 -2.84114 0
M  V30 2810 H 253.358 5.10275 -1.30104 0
M  V30 2811 H 255.849 3.54119 -1.31939 0
M  V30 2812 H 256.162 6.99964 -3.27522 0
M  V30 2813 H 254.507 6.29791 -2.93919 0
M  V30 2814 H 257.698 4.35631 -1.71299 0
M  V30 2815 H 257.871 5.93348 -2.60466 0
M  V30 2816 N 251.277 0.427512 1.51691 0
M  V30 2817 C 252.502 -0.143601 2.06902 0
M  V30 2818 C 252.927 -1.36536 1.29382 0
M  V30 2819 O 252.285 -1.78289 0.329043 0
M  V30 2820 C 252.333 -0.454207 3.57728 0
M  V30 2821 O 251.437 -1.54228 3.82475 0
M  V30 2822 H 250.778 -0.00617128 0.663971 0
M  V30 2823 H 253.308 0.606014 1.95419 0
M  V30 2824 H 253.318 -0.707525 4.01818 0
M  V30 2825 H 251.993 0.438812 4.13579 0
M  V30 2826 H 250.57 -1.2797 3.50254 0
M  V30 2827 N 252.755 -1.56801 0.158532 0
M  V30 2828 C 254.166 -1.83189 -0.360366 0
M  V30 2829 C 254.517 -1.07778 -1.63946 0
M  V30 2830 O 253.642 -0.326718 -2.13919 0
M  V30 2831 C 254.237 -3.32297 -0.660595 0
M  V30 2832 C 252.796 -3.59227 -1.12398 0
M  V30 2833 C 251.943 -2.76877 -0.153097 0
M  V30 2834 H 254.894 -1.54008 0.383031 0
M  V30 2835 H 254.915 -3.4908 -1.51405 0
M  V30 2836 H 254.427 -3.87156 0.270527 0
M  V30 2837 H 252.528 -3.09766 -2.07064 0
M  V30 2838 H 252.641 -4.67632 -1.04197 0
M  V30 2839 H 251.005 -2.46319 -0.647983 0
M  V30 2840 H 251.788 -3.34511 0.77182 0
M  V30 2841 N 254.233 0.115231 -1.57178 0
M  V30 2842 C 255.143 1.15994 -2.03918 0
M  V30 2843 C 256.159 1.45103 -0.960268 0
M  V30 2844 O 257.335 1.56144 -1.27204 0
M  V30 2845 C 254.4 2.46568 -2.43732 0
M  V30 2846 C 253.461 2.24822 -3.65723 0
M  V30 2847 C 252.694 3.4917 -4.03629 0
M  V30 2848 O 252.917 4.56623 -3.41835 0
M  V30 2849 O 251.851 3.39949 -4.96708 0
M  V30 2850 H 255.677 0.793019 -2.93164 0
M  V30 2851 H 253.262 0.3263 -1.45793 0
M  V30 2852 H 255.144 3.23492 -2.70057 0
M  V30 2853 H 253.819 2.82726 -1.57631 0
M  V30 2854 H 252.726 1.45744 -3.44542 0
M  V30 2855 H 254.059 1.93566 -4.52541 0
M  V30 2856 N 255.711 1.52812 0.385517 0
M  V30 2857 C 256.957 1.68275 1.13188 0
M  V30 2858 C 257.29 0.423179 1.89533 0
M  V30 2859 O 256.565 -0.579113 1.85679 0
M  V30 2860 C 256.848 2.92001 2.1073 0
M  V30 2861 C 256.701 4.28067 1.38125 0
M  V30 2862 C 258.02 3.11283 3.11113 0
M  V30 2863 H 255.139 0.612352 0.410115 0
M  V30 2864 H 257.781 1.85415 0.414869 0
M  V30 2865 H 255.931 2.77519 2.71874 0
M  V30 2866 H 257.603 4.54324 0.799187 0
M  V30 2867 H 255.846 4.28388 0.683092 0
M  V30 2868 H 256.517 5.10733 2.09417 0
M  V30 2869 H 258.993 3.2482 2.6006 0
M  V30 2870 H 257.869 3.99325 3.76605 0
M  V30 2871 H 258.13 2.25656 3.80173 0
M  V30 2872 N 257.189 -0.644168 1.43834 0
M  V30 2873 C 258.119 -1.76814 1.52509 0
M  V30 2874 C 259.1 -1.65823 0.379052 0
M  V30 2875 O 260.285 -1.84781 0.597466 0
M  V30 2876 C 257.415 -3.15288 1.4564 0
M  V30 2877 C 256.369 -3.41053 2.58586 0
M  V30 2878 C 255.695 -4.79421 2.36769 0
M  V30 2879 C 256.995 -3.34902 4.00797 0
M  V30 2880 H 258.689 -1.69812 2.46586 0
M  V30 2881 H 256.235 -0.815542 1.1868 0
M  V30 2882 H 258.188 -3.93681 1.50311 0
M  V30 2883 H 256.912 -3.23043 0.480725 0
M  V30 2884 H 255.571 -2.65035 2.53282 0
M  V30 2885 H 255.219 -4.83863 1.37424 0
M  V30 2886 H 254.919 -4.9762 3.12487 0
M  V30 2887 H 256.443 -5.6006 2.43238 0
M  V30 2888 H 257.857 -4.03218 4.07539 0
M  V30 2889 H 256.254 -3.64637 4.76613 0
M  V30 2890 H 257.324 -2.32928 4.25291 0
M  V30 2891 N 258.668 -1.30515 -0.883378 0
M  V30 2892 C 259.598 -1.19607 -2.00541 0
M  V30 2893 C 260.579 -0.086346 -1.69881 0
M  V30 2894 O 261.764 -0.268654 -1.92333 0
M  V30 2895 C 258.894 -0.888758 -3.35736 0
M  V30 2896 C 257.848 -1.95659 -3.8066 0
M  V30 2897 C 257.174 -1.50224 -5.13164 0
M  V30 2898 C 258.474 -3.36788 -3.99213 0
M  V30 2899 H 260.168 -2.13476 -2.09925 0
M  V30 2900 H 257.714 -1.02775 -1.00863 0
M  V30 2901 H 259.667 -0.799094 -4.13754 0
M  V30 2902 H 258.391 0.0856125 -3.26488 0
M  V30 2903 H 257.05 -2.03591 -3.04871 0
M  V30 2904 H 256.698 -0.516092 -5.00345 0
M  V30 2905 H 256.398 -2.2165 -5.44192 0
M  V30 2906 H 257.922 -1.42639 -5.93706 0
M  V30 2907 H 259.336 -3.31605 -4.67665 0
M  V30 2908 H 257.733 -4.06314 -4.41621 0
M  V30 2909 H 258.803 -3.78561 -3.03017 0
M  V30 2910 N 260.146 1.09593 -1.13257 0
M  V30 2911 C 261.394 1.81375 -0.891492 0
M  V30 2912 C 261.715 1.86049 0.584009 0
M  V30 2913 O 260.985 1.34481 1.42449 0
M  V30 2914 H 259.565 0.671708 -0.326828 0
M  V30 2915 H 262.227 1.3256 -1.42877 0
M  V30 2916 H 261.323 2.84612 -1.28071 0
M  V30 2917 N 261.624 0.925811 1.2754 0
M  V30 2918 C 262.849 0.580924 1.99098 0
M  V30 2919 C 263.274 -0.833555 1.68622 0
M  V30 2920 O 262.632 -1.55903 0.925422 0
M  V30 2921 C 262.68 0.811186 3.51358 0
M  V30 2922 O 261.784 -0.124129 4.12213 0
M  V30 2923 H 261.125 0.223873 0.625122 0
M  V30 2924 H 263.655 1.24455 1.62395 0
M  V30 2925 H 263.665 0.72601 4.01489 0
M  V30 2926 H 262.34 1.84227 3.72872 0
M  V30 2927 H 260.917 0.0108006 3.72898 0
M  V30 2928 N 263.102 -1.41638 0.69111 0
M  V30 2929 C 264.065 -2.29178 0.0319786 0
M  V30 2930 C 265.065 -1.44153 -0.712496 0
M  V30 2931 O 266.255 -1.65354 -0.548053 0
M  V30 2932 C 263.387 -3.26952 -0.965161 0
M  V30 2933 H 264.58 -2.88959 0.802681 0
M  V30 2934 H 262.133 -1.4955 0.454356 0
M  V30 2935 H 262.868 -2.72142 -1.76378 0
M  V30 2936 H 262.653 -3.89685 -0.434522 0
M  V30 2937 H 264.143 -3.92561 -1.42428 0
M  V30 2938 N 264.58 -0.43555 -1.51462 0
M  V30 2939 C 265.996 -0.0877501 -1.59359 0
M  V30 2940 C 266.196 1.4027 -1.4466 0
M  V30 2941 O 265.252 2.17243 -1.28693 0
M  V30 2942 C 266.565 -0.606264 -2.94525 0
M  V30 2943 C 268.113 -0.566548 -3.0783 0
M  V30 2944 C 268.588 -1.06201 -4.45517 0
M  V30 2945 N 270.079 -1.01992 -4.51832 0
M  V30 2946 C 270.814 -1.37417 -5.5669 0
M  V30 2947 N 270.31 -1.80119 -6.68976 0
M  V30 2948 N 272.103 -1.29245 -5.47039 0
M  V30 2949 H 264.254 -1.40533 -1.59261 0
M  V30 2950 H 266.517 -0.578992 -0.750648 0
M  V30 2951 H 266.223 -1.64901 -3.10645 0
M  V30 2952 H 266.097 -0.0302097 -3.77188 0
M  V30 2953 H 268.484 0.467208 -2.91378 0
M  V30 2954 H 268.565 -1.17898 -2.2701 0
M  V30 2955 H 268.209 -2.09422 -4.62715 0
M  V30 2956 H 268.139 -0.426127 -5.24873 0
M  V30 2957 H 270.63 -0.706308 -3.71241 0
M  V30 2958 H 270.943 -2.05392 -7.45006 0
M  V30 2959 H 269.288 -1.84044 -6.70189 0
M  V30 2960 H 272.479 -0.957522 -4.58202 0
M  V30 2961 H 272.652 -1.57182 -6.28648 0
M  V30 2962 N 266.058 1.56714 -0.166846 0
M  V30 2963 C 267.288 2.00828 0.48494 0
M  V30 2964 C 267.696 1.04612 1.57648 0
M  V30 2965 O 267.039 0.0383201 1.8366 0
M  V30 2966 C 267.101 3.4137 1.12723 0
M  V30 2967 C 266.765 4.56654 0.177886 0
M  V30 2968 C 267.762 5.16402 -0.60207 0
M  V30 2969 C 265.447 5.02244 0.0750139 0
M  V30 2970 C 267.441 6.20167 -1.47215 0
M  V30 2971 C 265.128 6.05859 -0.798649 0
M  V30 2972 C 266.126 6.64691 -1.57082 0
M  V30 2973 O 265.814 7.66297 -2.42989 0
M  V30 2974 H 265.546 0.663587 0.128953 0
M  V30 2975 H 268.1 2.03692 -0.264365 0
M  V30 2976 H 266.33 3.35406 1.92457 0
M  V30 2977 H 268.019 3.69466 1.68076 0
M  V30 2978 H 268.785 4.82065 -0.53274 0
M  V30 2979 H 264.664 4.56167 0.665812 0
M  V30 2980 H 268.208 6.66016 -2.07531 0
M  V30 2981 H 264.105 6.39621 -0.869199 0
M  V30 2982 H 264.873 7.83601 -2.36455 0
M  V30 2983 N 267.536 -0.106894 1.57237 0
M  V30 2984 C 268.761 -0.830287 1.90055 0
M  V30 2985 C 269.186 -1.72064 0.75998 0
M  V30 2986 O 268.544 -1.78982 -0.288991 0
M  V30 2987 C 268.592 -1.6295 3.21683 0
M  V30 2988 O 267.696 -2.73748 3.08441 0
M  V30 2989 H 267.037 -0.228855 0.623315 0
M  V30 2990 H 269.567 -0.085658 2.04421 0
M  V30 2991 H 269.577 -2.01621 3.54701 0
M  V30 2992 H 268.252 -0.975989 4.04286 0
M  V30 2993 H 266.829 -2.38192 2.86913 0
M  V30 2994 N 269.014 -1.53014 -0.377408 0
M  V30 2995 C 270.242 -1.72515 -1.14219 0
M  V30 2996 C 270.657 -0.448735 -1.8339 0
M  V30 2997 O 270.014 0.577592 -1.73119 0
M  V30 2998 C 270.065 -2.8826 -2.18148 0
M  V30 2999 O 269.786 -4.10962 -1.51795 0
M  V30 3000 C 271.287 -3.19536 -3.07264 0
M  V30 3001 H 268.507 -0.577301 -0.342001 0
M  V30 3002 H 271.051 -1.99712 -0.439935 0
M  V30 3003 H 269.206 -2.63492 -2.83991 0
M  V30 3004 H 269.62 -4.75693 -2.20945 0
M  V30 3005 H 271.094 -4.03959 -3.76193 0
M  V30 3006 H 271.571 -2.34403 -3.71419 0
M  V30 3007 H 272.177 -3.46186 -2.47053 0
M  V30 3008 N 270.492 0.636531 -1.44174 0
M  V30 3009 C 271.903 1.21806 -1.41493 0
M  V30 3010 C 272.254 1.95785 -0.1275 0
M  V30 3011 O 271.379 2.02147 0.772376 0
M  V30 3012 C 271.974 2.21551 -2.56321 0
M  V30 3013 C 270.533 2.75143 -2.56853 0
M  V30 3014 C 269.68 1.50052 -2.33195 0
M  V30 3015 H 272.631 0.427531 -1.52833 0
M  V30 3016 H 272.652 3.0405 -2.28765 0
M  V30 3017 H 272.164 1.67679 -3.50008 0
M  V30 3018 H 270.265 3.33033 -1.67093 0
M  V30 3019 H 270.378 3.2155 -3.55165 0
M  V30 3020 H 268.742 1.77993 -1.82183 0
M  V30 3021 H 269.525 0.980903 -3.28988 0
M  V30 3022 N 271.97 1.30982 0.876444 0
M  V30 3023 C 273.216 1.20474 1.63138 0
M  V30 3024 C 273.549 -0.238096 1.92735 0
M  V30 3025 O 272.824 -1.1692 1.55435 0
M  V30 3026 C 273.107 2.04244 2.96574 0
M  V30 3027 C 272.96 3.56793 2.73896 0
M  V30 3028 C 274.279 1.88684 3.97601 0
M  V30 3029 H 271.398 0.439001 0.591985 0
M  V30 3030 H 274.04 1.60704 1.01361 0
M  V30 3031 H 272.19 1.70063 3.493 0
M  V30 3032 H 273.862 4.01077 2.27892 0
M  V30 3033 H 272.105 3.80548 2.08245 0
M  V30 3034 H 272.776 4.10706 3.68815 0
M  V30 3035 H 275.252 2.18584 3.54062 0
M  V30 3036 H 274.128 2.4961 4.88862 0
M  V30 3037 H 274.389 0.848343 4.33884 0
M  V30 3038 N 273.449 -1.08991 1.13837 0
M  V30 3039 C 274.726 -1.77863 0.813876 0
M  V30 3040 C 275.106 -1.99375 -0.693746 0
M  V30 3041 O 274.454 -1.59875 -1.63255 0
M  V30 3042 C 274.664 -3.0986 1.60586 0
M  V30 3043 C 276.012 -3.84493 1.8014 0
M  V30 3044 O 277.036 -3.19624 1.57222 0
M  V30 3045 O 275.895 -5.00957 2.18413 0
M  V30 3046 H 272.989 -0.771589 0.297624 0
M  V30 3047 H 275.535 -1.15507 1.24323 0
M  V30 3048 H 274.307 -2.89715 2.63022 0
M  V30 3049 H 273.93 -3.79942 1.17173 0
M  V30 3050 N 274.927 -0.932562 -1.27047 0
M  V30 3051 C 276.176 -0.571351 -1.93439 0
M  V30 3052 C 276.489 0.892467 -1.74053 0
M  V30 3053 O 277.695 1.36267 -2.34826 0
M  V30 3054 C 276.151 -0.97106 -3.46552 0
M  V30 3055 C 275.759 -2.4559 -3.74686 0
M  V30 3056 C 277.503 -0.681333 -4.18997 0
M  V30 3057 C 275.41 -2.79475 -5.21198 0
M  V30 3058 H 274.34 -0.209966 -0.724176 0
M  V30 3059 H 276.991 -1.13403 -1.44263 0
M  V30 3060 H 275.373 -0.336983 -3.94564 0
M  V30 3061 H 276.547 -3.13829 -3.37414 0
M  V30 3062 H 274.862 -2.71802 -3.15456 0
M  V30 3063 H 277.459 -0.910939 -5.26883 0
M  V30 3064 H 277.802 0.381628 -4.14547 0
M  V30 3065 H 278.335 -1.27473 -3.76823 0
M  V30 3066 H 275.074 -3.847 -5.30741 0
M  V30 3067 H 274.594 -2.1589 -5.596 0
M  V30 3068 H 276.273 -2.67478 -5.89122 0
M  V30 3069 N 276.405 1.4127 -0.698611 0
M  V30 3070 C 277.651 2.01979 -0.239972 0
M  V30 3071 C 278.006 1.54353 1.14861 0
M  V30 3072 O 277.299 0.746218 1.76471 0
M  V30 3073 C 277.493 3.56592 -0.240192 0
M  V30 3074 C 277.322 4.19226 -1.62726 0
M  V30 3075 C 276.092 4.53389 -2.23084 0
M  V30 3076 C 278.29 4.45228 -2.57443 0
M  V30 3077 N 276.272 5.01327 -3.54323 0
M  V30 3078 C 277.643 4.94973 -3.73365 0
M  V30 3079 C 279.698 4.27243 -2.55671 0
M  V30 3080 C 278.401 5.28624 -4.878 0
M  V30 3081 C 280.427 4.61985 -3.69221 0
M  V30 3082 C 279.789 5.11904 -4.83873 0
M  V30 3083 H 275.888 0.770561 -0.133269 0
M  V30 3084 H 278.472 1.71767 -0.916748 0
M  V30 3085 H 276.643 3.86271 0.406082 0
M  V30 3086 H 278.375 4.04025 0.23356 0
M  V30 3087 H 275.13 4.39946 -1.75341 0
M  V30 3088 H 275.554 5.29697 -4.21604 0
M  V30 3089 H 280.196 3.87884 -1.68243 0
M  V30 3090 H 277.914 5.66905 -5.75885 0
M  V30 3091 H 281.5 4.49725 -3.69105 0
M  V30 3092 H 280.38 5.38282 -5.70282 0
M  V30 3093 N 277.883 0.443576 1.51229 0
M  V30 3094 C 279.108 -0.121648 2.07043 0
M  V30 3095 C 279.533 -1.35156 1.30823 0
M  V30 3096 O 278.891 -1.7793 0.347934 0
M  V30 3097 C 278.939 -0.41624 3.5819 0
M  V30 3098 O 278.043 -1.50163 3.8409 0
M  V30 3099 H 277.384 0.000871367 0.663999 0
M  V30 3100 H 279.914 0.626706 1.94765 0
M  V30 3101 H 279.924 -0.664867 4.02546 0
M  V30 3102 H 278.599 0.482653 4.1309 0
M  V30 3103 H 277.176 -1.24248 3.51592 0
M  V30 3104 N 279.361 -1.56624 0.175154 0
M  V30 3105 C 280.61 -1.96173 -0.468921 0
M  V30 3106 C 280.923 -1.06401 -1.64128 0
M  V30 3107 O 282.129 -1.35648 -2.35185 0
M  V30 3108 C 280.585 -3.48833 -0.885633 0
M  V30 3109 C 280.193 -4.47237 0.261343 0
M  V30 3110 C 281.937 -3.97194 -1.49791 0
M  V30 3111 C 279.844 -5.9114 -0.175214 0
M  V30 3112 H 278.774 -0.732455 -0.178958 0
M  V30 3113 H 281.425 -1.81591 0.263997 0
M  V30 3114 H 279.807 -3.58848 -1.67464 0
M  V30 3115 H 280.981 -4.4894 1.03871 0
M  V30 3116 H 279.296 -4.08956 0.783827 0
M  V30 3117 H 281.893 -5.02167 -1.83665 0
M  V30 3118 H 282.236 -3.40351 -2.39722 0
M  V30 3119 H 282.769 -3.90212 -0.773267 0
M  V30 3120 H 279.508 -6.51865 0.689414 0
M  V30 3121 H 279.028 -5.92735 -0.91786 0
M  V30 3122 H 280.707 -6.44044 -0.617792 0
M  V30 3123 N 280.839 0.0985539 -1.57292 0
M  V30 3124 C 282.087 0.801092 -1.85545 0
M  V30 3125 C 282.408 1.79438 -0.763353 0
M  V30 3126 O 281.678 1.94763 0.21073 0
M  V30 3127 H 280.258 0.29884 -0.684619 0
M  V30 3128 H 282.92 0.0810064 -1.94732 0
M  V30 3129 H 282.016 1.3338 -2.82163 0
M  V30 3130 N 282.317 1.53212 0.369288 0
M  V30 3131 C 283.545 1.73119 1.13303 0
M  V30 3132 C 283.96 0.458455 1.83149 0
M  V30 3133 O 283.317 -0.568403 1.73423 0
M  V30 3134 C 283.368 2.89413 2.16616 0
M  V30 3135 O 283.089 4.11761 1.49614 0
M  V30 3136 C 284.59 3.21161 3.05566 0
M  V30 3137 H 281.81 0.579107 0.338934 0
M  V30 3138 H 284.354 1.99942 0.429338 0
M  V30 3139 H 282.509 2.64994 2.82589 0
M  V30 3140 H 282.923 4.76858 2.18419 0
M  V30 3141 H 284.397 4.05949 3.74045 0
M  V30 3142 H 284.874 2.36369 3.70171 0
M  V30 3143 H 285.48 3.47492 2.45213 0
M  V30 3144 N 283.795 -0.628877 1.44509 0
M  V30 3145 C 285.044 -1.38437 1.4669 0
M  V30 3146 C 285.357 -1.95322 0.104272 0
M  V30 3147 O 286.563 -2.715 0.00362163 0
M  V30 3148 C 285.019 -2.50659 2.5826 0
M  V30 3149 C 284.627 -2.00277 4.0074 0
M  V30 3150 C 286.371 -3.27844 2.69664 0
M  V30 3151 C 284.278 -3.09854 5.0373 0
M  V30 3152 H 283.208 -0.520245 0.545766 0
M  V30 3153 H 285.859 -0.676313 1.70582 0
M  V30 3154 H 284.241 -3.2405 2.27612 0
M  V30 3155 H 285.415 -1.33736 4.40966 0
M  V30 3156 H 283.73 -1.35901 3.93599 0
M  V30 3157 H 286.327 -4.09534 3.43781 0
M  V30 3158 H 286.67 -3.77471 1.75559 0
M  V30 3159 H 287.203 -2.61543 2.99733 0
M  V30 3160 H 283.942 -2.65168 5.99472 0
M  V30 3161 H 283.462 -3.7503 4.68095 0
M  V30 3162 H 285.141 -3.74592 5.27532 0
M  V30 3163 N 285.273 -1.31445 -0.869486 0
M  V30 3164 C 286.52 -1.21158 -1.62256 0
M  V30 3165 C 286.848 0.230155 -1.93133 0
M  V30 3166 O 286.103 1.17906 -1.56194 0
M  V30 3167 C 286.402 -2.00145 -2.96102 0
M  V30 3168 C 286.068 -3.4964 -2.84715 0
M  V30 3169 C 284.73 -3.90403 -2.81317 0
M  V30 3170 C 287.082 -4.44769 -2.71716 0
M  V30 3171 C 284.41 -5.24561 -2.62778 0
M  V30 3172 C 286.762 -5.79054 -2.54714 0
M  V30 3173 C 285.426 -6.19037 -2.49699 0
M  V30 3174 H 284.696 -0.443348 -0.593737 0
M  V30 3175 H 287.343 -1.62715 -1.00976 0
M  V30 3176 H 285.648 -1.5127 -3.6142 0
M  V30 3177 H 287.345 -1.89566 -3.53363 0
M  V30 3178 H 283.935 -3.17256 -2.88178 0
M  V30 3179 H 288.119 -4.14208 -2.73397 0
M  V30 3180 H 283.375 -5.54613 -2.57321 0
M  V30 3181 H 287.549 -6.52393 -2.43632 0
M  V30 3182 H 285.176 -7.22935 -2.35093 0
M  V30 3183 N 286.751 1.08385 -1.14413 0
M  V30 3184 C 287.714 2.13486 -0.834048 0
M  V30 3185 C 288.714 1.59988 0.161418 0
M  V30 3186 O 289.904 1.74071 -0.0669575 0
M  V30 3187 C 287.036 3.4003 -0.243354 0
M  V30 3188 H 288.229 2.42425 -1.7655 0
M  V30 3189 H 285.782 1.24101 -0.950189 0
M  V30 3190 H 286.517 3.16726 0.696807 0
M  V30 3191 H 286.302 3.80157 -0.960367 0
M  V30 3192 H 287.792 4.17577 -0.0436242 0
M  V30 3193 N 288.23 0.939286 1.26551 0
M  V30 3194 C 289.14 0.453432 2.30176 0
M  V30 3195 C 290.156 -0.471649 1.67486 0
M  V30 3196 O 291.332 -0.35164 1.98306 0
M  V30 3197 C 288.397 -0.275326 3.45605 0
M  V30 3198 C 287.458 0.686084 4.23782 0
M  V30 3199 C 286.691 -0.00798994 5.33699 0
M  V30 3200 O 286.914 -1.22528 5.57085 0
M  V30 3201 O 285.848 0.669746 5.98162 0
M  V30 3202 H 289.674 1.31416 2.73795 0
M  V30 3203 H 287.259 0.705095 1.31715 0
M  V30 3204 H 289.141 -0.685911 4.1578 0
M  V30 3205 H 287.816 -1.11147 3.0402 0
M  V30 3206 H 286.723 1.14658 3.56096 0
M  V30 3207 H 288.056 1.48979 4.69112 0
M  V30 3208 N 289.708 -1.40897 0.706093 0
M  V30 3209 C 290.638 -2.33418 0.0620085 0
M  V30 3210 C 291.619 -1.52385 -0.755827 0
M  V30 3211 O 292.804 -1.80886 -0.706674 0
M  V30 3212 C 289.934 -3.36293 -0.867445 0
M  V30 3213 C 288.888 -4.27716 -0.155932 0
M  V30 3214 C 288.214 -5.2105 -1.20046 0
M  V30 3215 C 289.514 -5.12944 0.984149 0
M  V30 3216 H 291.208 -2.87527 0.83477 0
M  V30 3217 H 288.754 -1.38249 0.402875 0
M  V30 3218 H 290.707 -3.99949 -1.32735 0
M  V30 3219 H 289.431 -2.80556 -1.67199 0
M  V30 3220 H 288.09 -3.65498 0.284047 0
M  V30 3221 H 287.738 -4.61624 -1.99781 0
M  V30 3222 H 287.438 -5.83056 -0.729328 0
M  V30 3223 H 288.962 -5.87584 -1.66066 0
M  V30 3224 H 290.376 -5.70109 0.604048 0
M  V30 3225 H 288.773 -5.83945 1.38304 0
M  V30 3226 H 289.843 -4.49485 1.81911 0
M  V30 3227 N 291.186 -0.45159 -1.50991 0
M  V30 3228 C 292.149 0.341117 -2.26647 0
M  V30 3229 C 293.149 0.937422 -1.30649 0
M  V30 3230 O 294.339 0.809644 -1.54241 0
M  V30 3231 C 291.471 1.48398 -3.06905 0
M  V30 3232 H 292.664 -0.322117 -2.98165 0
M  V30 3233 H 290.217 -0.205122 -1.54948 0
M  V30 3234 H 290.952 2.18284 -2.39838 0
M  V30 3235 H 290.737 1.06241 -3.77432 0
M  V30 3236 H 292.227 2.04367 -3.64176 0
M  V30 3237 N 292.664 1.56529 -0.183458 0
M  V30 3238 C 293.892 2.01623 0.464285 0
M  V30 3239 C 294.307 1.06366 1.55986 0
M  V30 3240 O 293.664 0.0665398 1.82379 0
M  V30 3241 C 293.715 3.46475 1.03139 0
M  V30 3242 O 293.436 4.38095 -0.0204675 0
M  V30 3243 C 294.937 4.0703 1.75617 0
M  V30 3244 H 292.157 0.660596 0.117704 0
M  V30 3245 H 294.701 2.02451 -0.288751 0
M  V30 3246 H 292.856 3.46383 1.73486 0
M  V30 3247 H 293.27 5.22973 0.399952 0
M  V30 3248 H 294.744 5.10271 2.10542 0
M  V30 3249 H 295.221 3.49819 2.65563 0
M  V30 3250 H 295.827 4.1086 1.09882 0
M  V30 3251 N 294.142 -0.090211 1.57342 0
M  V30 3252 C 295.089 -1.10909 2.02405 0
M  V30 3253 C 296.059 -1.39523 0.901252 0
M  V30 3254 O 297.244 -1.50903 1.1676 0
M  V30 3255 C 294.384 -2.42277 2.45755 0
M  V30 3256 C 293.497 -2.20352 3.71576 0
M  V30 3257 C 292.632 -3.45154 4.03785 0
M  V30 3258 C 291.671 -3.18512 5.22701 0
M  V30 3259 N 290.808 -4.35593 5.50639 0
M  V30 3260 H 295.648 -0.71782 2.89225 0
M  V30 3261 H 293.185 -0.342901 1.43048 0
M  V30 3262 H 295.143 -3.18951 2.68935 0
M  V30 3263 H 293.773 -2.79242 1.61938 0
M  V30 3264 H 292.825 -1.34458 3.55844 0
M  V30 3265 H 294.137 -1.96661 4.58395 0
M  V30 3266 H 293.291 -4.30233 4.27767 0
M  V30 3267 H 292.03 -3.71904 3.15498 0
M  V30 3268 H 291.035 -2.31827 4.98534 0
M  V30 3269 H 292.26 -2.93103 6.12591 0
M  V30 3270 H 290.206 -4.6241 4.6531 0
M  V30 3271 H 290.123 -4.1511 6.31838 0
M  V30 3272 H 291.391 -5.21723 5.7916 0
M  V30 3273 N 295.62 -1.53406 -0.361157 0
M  V30 3274 C 296.567 -1.80156 -1.44265 0
M  V30 3275 C 297.537 -0.646183 -1.53015 0
M  V30 3276 O 298.722 -0.888818 -1.68833 0
M  V30 3277 C 295.862 -2.00116 -2.81154 0
M  V30 3278 C 294.975 -3.27833 -2.81335 0
M  V30 3279 C 294.11 -3.37957 -4.09828 0
M  V30 3280 C 293.149 -4.59689 -4.04168 0
M  V30 3281 N 292.286 -4.66942 -5.24318 0
M  V30 3282 H 297.126 -2.72438 -1.20754 0
M  V30 3283 H 294.663 -1.34954 -0.585296 0
M  V30 3284 H 296.621 -2.09677 -3.60682 0
M  V30 3285 H 295.251 -1.11167 -3.03054 0
M  V30 3286 H 294.303 -3.27204 -1.94014 0
M  V30 3287 H 295.615 -4.17442 -2.73027 0
M  V30 3288 H 294.769 -3.46853 -4.97773 0
M  V30 3289 H 293.508 -2.46372 -4.20894 0
M  V30 3290 H 292.513 -4.50889 -3.14609 0
M  V30 3291 H 293.738 -5.5262 -3.947 0
M  V30 3292 H 291.684 -3.7826 -5.35962 0
M  V30 3293 H 291.601 -5.50462 -5.18197 0
M  V30 3294 H 292.869 -4.80127 -6.14084 0
M  V30 3295 N 297.098 0.621204 -1.44841 0
M  V30 3296 C 298.509 1.20298 -1.42777 0
M  V30 3297 C 298.86 1.95639 -0.148259 0
M  V30 3298 O 297.985 2.02955 0.750892 0
M  V30 3299 C 298.58 2.1882 -2.58657 0
M  V30 3300 C 297.139 2.72403 -2.59756 0
M  V30 3301 C 296.286 1.4757 -2.34773 0
M  V30 3302 H 299.237 0.411297 -1.53278 0
M  V30 3303 H 299.258 3.01607 -2.31977 0
M  V30 3304 H 298.77 1.63957 -3.51766 0
M  V30 3305 H 296.871 3.31242 -1.70615 0
M  V30 3306 H 296.984 3.17765 -3.58556 0
M  V30 3307 H 295.348 1.76051 -1.8406 0
M  V30 3308 H 296.131 0.945954 -3.3001 0
M  V30 3309 N 298.576 1.31904 0.862503 0
M  V30 3310 C 299.506 1.22782 1.98612 0
M  V30 3311 C 300.487 0.113362 1.69722 0
M  V30 3312 O 301.672 0.299218 1.91881 0
M  V30 3313 C 298.802 0.942058 3.34279 0
M  V30 3314 C 297.756 2.0169 3.77499 0
M  V30 3315 C 297.082 1.58369 5.10709 0
M  V30 3316 C 298.382 3.43096 3.93805 0
M  V30 3317 H 300.076 2.16788 2.06502 0
M  V30 3318 H 297.622 1.04366 0.992154 0
M  V30 3319 H 299.575 0.864818 4.1243 0
M  V30 3320 H 298.299 -0.0336603 3.26583 0
M  V30 3321 H 296.958 2.08416 3.01593 0
M  V30 3322 H 296.606 0.595628 4.99461 0
M  V30 3323 H 296.306 2.30279 5.40597 0
M  V30 3324 H 297.83 1.52067 5.91361 0
M  V30 3325 H 299.244 3.39003 4.62331 0
M  V30 3326 H 297.641 4.13288 4.35101 0
M  V30 3327 H 298.711 3.83334 2.96957 0
M  V30 3328 N 300.054 -1.07777 1.14986 0
M  V30 3329 C 301.301 -1.8029 0.922056 0
M  V30 3330 C 301.629 -1.86531 -0.55105 0
M  V30 3331 O 300.884 -1.34189 -1.42449 0
M  V30 3332 C 301.183 -3.25495 1.47608 0
M  V30 3333 C 300.849 -3.39361 2.96893 0
M  V30 3334 C 299.511 -3.42852 3.37647 0
M  V30 3335 C 301.863 -3.42512 3.92854 0
M  V30 3336 C 299.191 -3.47094 4.73015 0
M  V30 3337 C 301.543 -3.4829 5.28088 0
M  V30 3338 C 300.207 -3.50058 5.68345 0
M  V30 3339 H 299.477 -0.659727 0.337404 0
M  V30 3340 H 302.124 -1.26854 1.43459 0
M  V30 3341 H 300.429 -3.81683 0.88463 0
M  V30 3342 H 302.126 -3.80168 1.27568 0
M  V30 3343 H 298.716 -3.37339 2.64387 0
M  V30 3344 H 302.9 -3.3904 3.62444 0
M  V30 3345 H 298.156 -3.46758 5.03556 0
M  V30 3346 H 302.33 -3.49675 6.02246 0
M  V30 3347 H 299.957 -3.53097 6.73221 0
M  V30 3348 N 301.532 -0.945985 -1.26051 0
M  V30 3349 C 302.482 -0.430164 -2.23905 0
M  V30 3350 C 303.466 0.47579 -1.53704 0
M  V30 3351 O 304.658 0.310252 -1.7426 0
M  V30 3352 C 301.787 0.298957 -3.41996 0
M  V30 3353 C 300.873 -0.624566 -4.19476 0
M  V30 3354 N 301.264 -1.75245 -4.74471 0
M  V30 3355 C 299.562 -0.431082 -4.43912 0
M  V30 3356 C 300.263 -2.32834 -5.3307 0
M  V30 3357 N 299.239 -1.61583 -5.1903 0
M  V30 3358 H 303.041 -1.29107 -2.64024 0
M  V30 3359 H 300.555 -0.802428 -1.41191 0
M  V30 3360 H 302.552 0.685565 -4.11225 0
M  V30 3361 H 301.212 1.15657 -3.03403 0
M  V30 3362 H 302.223 -2.13449 -4.71868 0
M  V30 3363 H 298.9 0.384364 -4.15727 0
M  V30 3364 H 300.29 -3.27893 -5.86461 0
M  V30 3365 N 303.011 1.40521 -0.713556 0
M  V30 3366 C 304.259 2.00527 -0.251692 0
M  V30 3367 C 304.58 1.56857 1.15848 0
M  V30 3368 O 303.85 0.807127 1.785 0
M  V30 3369 H 302.43 0.741551 -0.0900646 0
M  V30 3370 H 305.092 1.71887 -0.918733 0
M  V30 3371 H 304.188 3.10813 -0.283192 0
M  V30 3372 N 304.489 0.459591 1.5075 0
M  V30 3373 C 305.766 -0.160371 1.94941 0
M  V30 3374 C 306.146 -1.58048 1.39943 0
M  V30 3375 O 305.494 -2.206 0.595629 0
M  V30 3376 C 305.704 -0.115432 3.48809 0
M  V30 3377 C 307.052 -0.310026 4.23467 0
M  V30 3378 O 308.076 -0.192543 3.55679 0
M  V30 3379 O 306.935 -0.546031 5.43765 0
M  V30 3380 H 304.029 -0.117925 0.818549 0
M  V30 3381 H 306.575 0.519169 1.61563 0
M  V30 3382 H 305.347 0.87652 3.81357 0
M  V30 3383 H 304.97 -0.836928 3.88692 0
M  V30 3384 N 305.967 -1.56429 0.191757 0
M  V30 3385 C 307.192 -2.02309 -0.456706 0
M  V30 3386 C 307.617 -1.07103 -1.5463 0
M  V30 3387 O 306.975 -0.0539677 -1.8122 0
M  V30 3388 C 307.023 -3.46654 -0.993159 0
M  V30 3389 O 306.127 -3.54559 -2.10622 0
M  V30 3390 H 305.468 -0.655303 -0.107114 0
M  V30 3391 H 307.998 -2.02364 0.301653 0
M  V30 3392 H 308.008 -3.86377 -1.31061 0
M  V30 3393 H 306.683 -4.1544 -0.195504 0
M  V30 3394 H 305.26 -3.26708 -1.79767 0
M  V30 3395 N 307.445 0.0818655 -1.57387 0
M  V30 3396 C 308.355 1.11642 -2.06333 0
M  V30 3397 C 309.371 1.43033 -0.99083 0
M  V30 3398 O 310.547 1.53411 -1.30488 0
M  V30 3399 C 307.612 2.41342 -2.48907 0
M  V30 3400 C 306.673 2.17014 -3.7041 0
M  V30 3401 C 305.906 3.4053 -4.10944 0
M  V30 3402 O 306.129 4.4927 -3.51444 0
M  V30 3403 O 305.063 3.29336 -5.03807 0
M  V30 3404 H 308.889 0.730657 -2.9478 0
M  V30 3405 H 306.474 0.295301 -1.46452 0
M  V30 3406 H 308.356 3.17691 -2.76858 0
M  V30 3407 H 307.031 2.79319 -1.63593 0
M  V30 3408 H 305.938 1.38403 -3.47556 0
M  V30 3409 H 307.271 1.83923 -4.56545 0
M  V30 3410 N 308.923 1.53595 0.353017 0
M  V30 3411 C 310.172 1.69603 1.09168 0
M  V30 3412 C 310.485 0.460925 1.90092 0
M  V30 3413 O 311.691 0.501774 2.66823 0
M  V30 3414 C 310.147 2.99872 1.9901 0
M  V30 3415 C 309.755 4.30687 1.23339 0
M  V30 3416 C 311.499 3.25246 2.72792 0
M  V30 3417 C 309.406 5.52036 2.12156 0
M  V30 3418 H 308.336 0.631966 0.411261 0
M  V30 3419 H 310.987 1.80096 0.351802 0
M  V30 3420 H 309.369 2.83212 2.7678 0
M  V30 3421 H 310.543 4.58019 0.505456 0
M  V30 3422 H 308.858 4.11853 0.613663 0
M  V30 3423 H 311.455 4.13095 3.39495 0
M  V30 3424 H 311.798 2.41846 3.38846 0
M  V30 3425 H 312.331 3.42638 2.021 0
M  V30 3426 H 309.07 6.37951 1.50659 0
M  V30 3427 H 308.59 5.28966 2.82764 0
M  V30 3428 H 310.269 5.87313 2.71427 0
M  V30 3429 N 310.401 -0.613514 1.45168 0
M  V30 3430 C 311.678 -1.37263 1.39349 0
M  V30 3431 C 312.058 -2.11012 0.0610848 0
M  V30 3432 O 311.406 -2.07502 -0.956825 0
M  V30 3433 C 311.616 -2.3244 2.60332 0
M  V30 3434 C 312.964 -2.9523 3.05163 0
M  V30 3435 O 313.988 -2.42762 2.60663 0
M  V30 3436 O 312.847 -3.90454 3.82372 0
M  V30 3437 H 309.941 -0.615188 0.552696 0
M  V30 3438 H 312.487 -0.637097 1.57287 0
M  V30 3439 H 311.259 -1.77164 3.48896 0
M  V30 3440 H 310.882 -3.13383 2.44698 0
M  V30 3441 N 311.879 -1.3236 -0.855495 0
M  V30 3442 C 312.811 -1.17052 -1.97057 0
M  V30 3443 C 313.824 -0.10574 -1.62456 0
M  V30 3444 O 315.013 -0.354619 -1.74942 0
M  V30 3445 C 312.113 -0.769305 -3.30053 0
M  V30 3446 C 311.286 -1.9222 -3.929 0
M  V30 3447 C 310.345 -1.50466 -5.04228 0
M  V30 3448 O 309.371 -2.21655 -5.24269 0
M  V30 3449 N 310.573 -0.400209 -5.79119 0
M  V30 3450 H 313.338 -2.13103 -2.1073 0
M  V30 3451 H 310.899 -1.24885 -1.0303 0
M  V30 3452 H 312.891 -0.472407 -4.01933 0
M  V30 3453 H 311.461 0.100025 -3.1244 0
M  V30 3454 H 310.681 -2.38563 -3.13817 0
M  V30 3455 H 311.969 -2.69403 -4.31624 0
M  V30 3456 H 311.367 0.192319 -5.65373 0
M  V30 3457 H 309.924 -0.162912 -6.51596 0
M  V30 3458 N 313.357 1.07166 -1.15556 0
M  V30 3459 C 314.287 2.16403 -0.877046 0
M  V30 3460 C 315.268 1.69217 0.173111 0
M  V30 3461 O 316.453 1.94181 0.027084 0
M  V30 3462 C 313.583 3.45349 -0.367632 0
M  V30 3463 C 312.537 4.05995 -1.35468 0
M  V30 3464 C 311.863 5.30045 -0.704038 0
M  V30 3465 C 313.163 4.45804 -2.72132 0
M  V30 3466 H 314.857 2.39959 -1.79053 0
M  V30 3467 H 312.403 1.15325 -0.862331 0
M  V30 3468 H 314.356 4.21095 -0.160317 0
M  V30 3469 H 313.08 3.21385 0.581326 0
M  V30 3470 H 311.739 3.32296 -1.54839 0
M  V30 3471 H 311.387 5.02373 0.251128 0
M  V30 3472 H 311.087 5.71579 -1.36277 0
M  V30 3473 H 312.611 6.08495 -0.50654 0
M  V30 3474 H 314.025 5.12671 -2.56595 0
M  V30 3475 H 312.422 4.98296 -3.34397 0
M  V30 3476 H 313.492 3.57083 -3.28054 0
M  V30 3477 N 314.835 0.952656 1.25548 0
M  V30 3478 C 316.082 0.606373 1.93208 0
M  V30 3479 C 316.41 -0.85631 1.74636 0
M  V30 3480 O 315.665 -1.62951 1.08376 0
M  V30 3481 C 315.964 0.908818 3.45652 0
M  V30 3482 C 315.63 2.35722 3.84378 0
M  V30 3483 C 314.292 2.75312 3.9466 0
M  V30 3484 C 316.644 3.29793 4.03591 0
M  V30 3485 C 313.972 4.08047 4.21562 0
M  V30 3486 C 316.324 4.62138 4.31985 0
M  V30 3487 C 314.988 5.01528 4.40484 0
M  V30 3488 H 314.258 0.221888 0.706998 0
M  V30 3489 H 316.905 1.20132 1.49133 0
M  V30 3490 H 315.21 0.231456 3.91116 0
M  V30 3491 H 316.907 0.619498 3.96186 0
M  V30 3492 H 313.497 2.04017 3.76928 0
M  V30 3493 H 317.681 3.00397 3.95064 0
M  V30 3494 H 312.937 4.38212 4.26357 0
M  V30 3495 H 317.111 5.35012 4.45797 0
M  V30 3496 H 314.738 6.04406 4.61083 0
M  V30 3497 N 316.313 -1.40141 0.720998 0
M  V30 3498 C 317.729 -1.54632 0.395113 0
M  V30 3499 C 317.929 -1.69115 -1.09555 0
M  V30 3500 O 316.985 -1.68377 -1.88163 0
M  V30 3501 C 318.298 -2.77177 1.1659 0
M  V30 3502 C 319.846 -2.91 1.15274 0
M  V30 3503 C 320.321 -4.16465 1.90579 0
M  V30 3504 N 321.812 -4.23476 1.87675 0
M  V30 3505 C 322.547 -5.19475 2.42762 0
M  V30 3506 N 322.043 -6.21348 3.06428 0
M  V30 3507 N 323.836 -5.11592 2.32874 0
M  V30 3508 H 315.987 -1.28986 1.68749 0
M  V30 3509 H 318.25 -0.62412 0.713567 0
M  V30 3510 H 317.956 -2.72771 2.22011 0
M  V30 3511 H 317.83 -3.69442 0.76108 0
M  V30 3512 H 320.217 -2.94907 0.106702 0
M  V30 3513 H 320.298 -1.99838 1.59682 0
M  V30 3514 H 319.942 -4.1332 2.95176 0
M  V30 3515 H 319.872 -5.06646 1.43587 0
M  V30 3516 H 322.363 -3.50497 1.41281 0
M  V30 3517 H 322.676 -6.91034 3.45965 0
M  V30 3518 H 321.021 -6.21777 3.10514 0
M  V30 3519 H 324.212 -4.30936 1.82789 0
M  V30 3520 H 324.385 -5.86233 2.76106 0
M  V30 3521 N 317.792 -0.46758 -1.50504 0
M  V30 3522 C 319.041 0.0902868 -2.01498 0
M  V30 3523 C 319.354 1.411 -1.35463 0
M  V30 3524 O 320.56 2.0536 -1.77594 0
M  V30 3525 C 319.016 0.21142 -3.59278 0
M  V30 3526 C 318.624 -1.10065 -4.34269 0
M  V30 3527 C 320.368 0.721433 -4.18325 0
M  V30 3528 C 318.275 -0.943505 -5.83825 0
M  V30 3529 H 317.205 0.037517 -0.753066 0
M  V30 3530 H 319.856 -0.601943 -1.73346 0
M  V30 3531 H 318.238 0.967352 -3.84003 0
M  V30 3532 H 319.412 -1.86726 -4.21272 0
M  V30 3533 H 317.727 -1.5415 -3.86816 0
M  V30 3534 H 320.324 0.85598 -5.27804 0
M  V30 3535 H 320.667 1.71186 -3.79475 0
M  V30 3536 H 321.2 0.0229843 -3.97793 0
M  V30 3537 H 317.939 -1.90719 -6.27141 0
M  V30 3538 H 317.459 -0.217213 -5.99407 0
M  V30 3539 H 319.138 -0.608715 -6.4413 0
M  V30 3540 N 319.27 1.56325 -0.20005 0
M  V30 3541 C 320.517 1.97719 0.437411 0
M  V30 3542 C 320.845 1.08709 1.61284 0
M  V30 3543 O 320.1 0.127261 1.95286 0
M  V30 3544 C 320.399 3.4495 0.935103 0
M  V30 3545 C 320.065 4.5072 -0.12749 0
M  V30 3546 C 318.727 4.79368 -0.419451 0
M  V30 3547 C 321.079 5.14268 -0.847231 0
M  V30 3548 C 318.407 5.68854 -1.43604 0
M  V30 3549 C 320.759 6.04852 -1.85301 0
M  V30 3550 C 319.423 6.31855 -2.15211 0
M  V30 3551 H 318.693 0.723507 0.16006 0
M  V30 3552 H 321.34 1.89166 -0.298056 0
M  V30 3553 H 319.645 3.50599 1.74894 0
M  V30 3554 H 321.342 3.74337 1.43781 0
M  V30 3555 H 317.932 4.28458 0.11023 0
M  V30 3556 H 322.116 4.92222 -0.634901 0
M  V30 3557 H 317.372 5.88047 -1.67364 0
M  V30 3558 H 321.546 6.53152 -2.41591 0
M  V30 3559 H 319.173 7.00994 -2.94129 0
M  V30 3560 N 320.748 -0.0735177 1.57428 0
M  V30 3561 C 322.164 -0.428264 1.53747 0
M  V30 3562 C 322.364 -1.79272 0.91998 0
M  V30 3563 O 321.42 -2.47051 0.521745 0
M  V30 3564 C 322.733 -0.370914 2.98404 0
M  V30 3565 C 324.281 -0.451224 3.0973 0
M  V30 3566 C 324.756 -0.4238 4.56035 0
M  V30 3567 N 326.247 -0.483925 4.60665 0
M  V30 3568 C 326.982 -0.484891 5.71346 0
M  V30 3569 N 326.478 -0.440775 6.91396 0
M  V30 3570 N 328.271 -0.531319 5.59583 0
M  V30 3571 H 320.422 0.819949 1.95935 0
M  V30 3572 H 322.685 0.307493 0.896745 0
M  V30 3573 H 322.391 0.564956 3.47133 0
M  V30 3574 H 322.265 -1.18176 3.5821 0
M  V30 3575 H 324.652 -1.37752 2.60976 0
M  V30 3576 H 324.733 0.388167 2.52838 0
M  V30 3577 H 324.377 0.498638 5.05446 0
M  V30 3578 H 324.307 -1.2807 5.10789 0
M  V30 3579 H 326.798 -0.522338 3.74273 0
M  V30 3580 H 327.111 -0.44539 7.71515 0
M  V30 3581 H 325.456 -0.40749 6.93804 0
M  V30 3582 H 328.647 -0.563464 4.64696 0
M  V30 3583 H 328.82 -0.528603 6.4584 0
M  V30 3584 N 322.226 -1.5378 -0.344866 0
M  V30 3585 C 323.189 -1.80981 -1.40637 0
M  V30 3586 C 324.189 -0.680816 -1.45676 0
M  V30 3587 O 325.379 -0.949095 -1.46075 0
M  V30 3588 C 322.511 -1.95063 -2.79577 0
M  V30 3589 H 323.704 -2.75803 -1.17783 0
M  V30 3590 H 321.257 -1.45173 -0.579181 0
M  V30 3591 H 321.992 -1.02379 -3.07716 0
M  V30 3592 H 321.777 -2.77198 -2.77315 0
M  V30 3593 H 323.267 -2.17629 -3.56409 0
M  V30 3594 N 323.704 0.605807 -1.45491 0
M  V30 3595 C 324.634 1.72709 -1.57143 0
M  V30 3596 C 325.615 1.6476 -0.422884 0
M  V30 3597 O 326.8 1.83132 -0.646247 0
M  V30 3598 C 323.93 3.11316 -1.53948 0
M  V30 3599 C 322.884 3.34077 -2.67537 0
M  V30 3600 C 322.21 4.72975 -2.49397 0
M  V30 3601 C 323.51 3.24158 -4.09535 0
M  V30 3602 H 325.204 1.63214 -2.51001 0
M  V30 3603 H 322.75 0.78379 -1.208 0
M  V30 3604 H 324.703 3.89557 -1.60696 0
M  V30 3605 H 323.427 3.21655 -0.566205 0
M  V30 3606 H 322.086 2.58227 -2.6022 0
M  V30 3607 H 321.734 4.8005 -1.50205 0
M  V30 3608 H 321.434 4.8916 -3.25571 0
M  V30 3609 H 322.958 5.53414 -2.58002 0
M  V30 3610 H 324.372 3.92271 -4.18086 0
M  V30 3611 H 322.769 3.51872 -4.86113 0
M  V30 3612 H 323.839 2.2157 -4.31317 0
M  V30 3613 N 325.182 1.32811 0.848464 0
M  V30 3614 C 326.43 1.23479 1.59991 0
M  V30 3615 C 326.751 -0.201853 1.93952 0
M  V30 3616 O 326.021 -1.12818 1.60153 0
M  V30 3617 H 324.601 0.454034 0.593179 0
M  V30 3618 H 327.263 1.66412 1.01455 0
M  V30 3619 H 326.359 1.82178 2.53412 0
M  V30 3620 N 326.66 -1.06551 1.16123 0
M  V30 3621 C 327.888 -1.83005 0.965237 0
M  V30 3622 C 328.303 -1.82423 -0.486542 0
M  V30 3623 O 327.66 -1.24152 -1.33763 0
M  V30 3624 C 327.711 -3.29733 1.48183 0
M  V30 3625 O 327.432 -3.30416 2.87674 0
M  V30 3626 C 328.933 -4.22926 1.32848 0
M  V30 3627 H 326.153 -0.577118 0.342309 0
M  V30 3628 H 328.697 -1.3445 1.54089 0
M  V30 3629 H 326.852 -3.75609 0.948517 0
M  V30 3630 H 327.266 -4.22149 3.11272 0
M  V30 3631 H 328.74 -5.23916 1.73827 0
M  V30 3632 H 329.217 -4.38346 0.273692 0
M  V30 3633 H 329.823 -3.82894 1.85127 0
M  V30 3634 N 328.138 -0.959301 -1.25041 0
M  V30 3635 C 329.549 -0.65667 -1.74771 0
M  V30 3636 C 329.9 0.827852 -1.77879 0
M  V30 3637 O 329.025 1.64783 -1.40269 0
M  V30 3638 C 329.62 -1.1853 -3.1739 0
M  V30 3639 C 328.179 -0.932734 -3.6466 0
M  V30 3640 C 327.326 -1.32558 -2.43564 0
M  V30 3641 H 330.277 -1.13558 -1.10862 0
M  V30 3642 H 330.298 -0.547582 -3.76539 0
M  V30 3643 H 329.81 -2.26576 -3.15095 0
M  V30 3644 H 327.911 0.13257 -3.72364 0
M  V30 3645 H 328.024 -1.57248 -4.52559 0
M  V30 3646 H 326.388 -0.743956 -2.43593 0
M  V30 3647 H 327.171 -2.41537 -2.43957 0
M  V30 3648 N 329.616 1.39756 -0.72842 0
M  V30 3649 C 330.564 2.32485 -0.0731849 0
M  V30 3650 C 331.558 1.52717 0.733063 0
M  V30 3651 O 332.764 1.68428 0.634988 0
M  V30 3652 H 329.139 0.751984 -0.00486469 0
M  V30 3653 H 331.11 2.85382 -0.871761 0
M  V30 3654 C 329.859 3.37773 0.824908 0
M  V30 3655 H 329.182 3.99227 0.213915 0
M  V30 3656 H 330.622 4.05121 1.25111 0
M  V30 3657 C 329.081 2.74287 1.95622 0
M  V30 3658 O 329.611 2.61618 3.04826 0
M  V30 3659 N 327.817 2.32475 1.74367 0
M  V30 3660 H 327.364 2.4298 0.855494 0
M  V30 3661 H 327.322 1.90337 2.50238 0
M  V30 3662 N 331.094 0.475555 1.50254 0
M  V30 3663 C 332.042 -0.330276 2.30243 0
M  V30 3664 C 333.036 -0.986306 1.37726 0
M  V30 3665 O 334.242 -0.9169 1.54897 0
M  V30 3666 H 330.617 -0.125353 0.741479 0
M  V30 3667 H 332.588 0.364702 2.96163 0
M  V30 3668 C 331.337 -1.39704 3.18399 0
M  V30 3669 H 330.66 -0.901621 3.89501 0
M  V30 3670 H 332.1 -1.93336 3.77355 0
M  V30 3671 C 330.559 -2.4014 2.36293 0
M  V30 3672 O 331.089 -3.45504 2.04914 0
M  V30 3673 N 329.295 -2.1197 1.98789 0
M  V30 3674 H 328.842 -1.2631 2.24507 0
M  V30 3675 H 328.8 -2.79403 1.44157 0
M  V30 3676 N 332.573 -1.56217 0.208337 0
M  V30 3677 C 333.483 -2.23316 -0.718836 0
M  V30 3678 C 334.499 -1.23648 -1.22422 0
M  V30 3679 O 335.675 -1.56423 -1.26861 0
M  V30 3680 C 332.74 -2.88968 -1.91568 0
M  V30 3681 C 331.801 -4.03943 -1.45357 0
M  V30 3682 C 331.034 -4.66455 -2.59337 0
M  V30 3683 O 331.257 -4.27919 -3.77149 0
M  V30 3684 O 330.191 -5.55686 -2.31293 0
M  V30 3685 H 334.017 -3.03182 -0.177315 0
M  V30 3686 H 331.602 -1.49384 -0.0215402 0
M  V30 3687 H 333.484 -3.30455 -2.61491 0
M  V30 3688 H 332.159 -2.12071 -2.44556 0
M  V30 3689 H 331.066 -3.67052 -0.722746 0
M  V30 3690 H 332.399 -4.82543 -0.970219 0
M  V30 3691 N 334.051 0.0651679 -1.57465 0
M  V30 3692 C 335.297 0.764193 -1.87851 0
M  V30 3693 C 335.63 1.76889 -0.801495 0
M  V30 3694 O 334.905 1.93594 0.187528 0
M  V30 3695 C 335.188 1.46625 -3.28897 0
M  V30 3696 C 335.041 0.477515 -4.47258 0
M  V30 3697 C 336.36 2.4095 -3.68281 0
M  V30 3698 H 333.479 0.276351 -0.683227 0
M  V30 3699 H 336.121 0.0272868 -1.8998 0
M  V30 3700 H 334.271 2.09438 -3.27212 0
M  V30 3701 H 335.943 -0.145922 -4.61069 0
M  V30 3702 H 334.186 -0.206576 -4.33308 0
M  V30 3703 H 334.857 1.0065 -5.42746 0
M  V30 3704 H 337.333 1.88209 -3.71102 0
M  V30 3705 H 336.209 2.87072 -4.67847 0
M  V30 3706 H 336.47 3.26049 -2.98571 0
M  V30 3707 N 335.529 1.53961 0.336706 0
M  V30 3708 C 336.775 1.7273 1.07406 0
M  V30 3709 C 337.13 0.488095 1.86106 0
M  V30 3710 O 336.423 -0.519379 1.84426 0
M  V30 3711 C 336.617 2.93493 2.03953 0
M  V30 3712 C 336.446 4.29039 1.34744 0
M  V30 3713 C 335.216 4.93416 1.08942 0
M  V30 3714 C 337.414 5.08501 0.770115 0
M  V30 3715 N 335.396 6.12821 0.363864 0
M  V30 3716 C 336.767 6.19752 0.175472 0
M  V30 3717 C 338.822 4.93349 0.671633 0
M  V30 3718 C 337.525 7.17503 -0.508081 0
M  V30 3719 C 339.551 5.914 0.0018076 0
M  V30 3720 C 338.913 7.01993 -0.581835 0
M  V30 3721 H 335.012 0.685026 0.377177 0
M  V30 3722 H 337.596 1.91403 0.356815 0
M  V30 3723 H 335.767 2.76308 2.72962 0
M  V30 3724 H 337.499 3.00949 2.70577 0
M  V30 3725 H 334.254 4.53099 1.37833 0
M  V30 3726 H 334.678 6.76998 0.0156092 0
M  V30 3727 H 339.32 4.08007 1.1086 0
M  V30 3728 H 337.038 8.02414 -0.956918 0
M  V30 3729 H 340.624 5.81753 -0.0738538 0
M  V30 3730 H 339.504 7.76561 -1.09192 0
M  V30 3731 N 337.007 -0.598083 1.45811 0
M  V30 3732 C 338.418 -1.18011 1.44673 0
M  V30 3733 C 338.769 -1.95378 0.179364 0
M  V30 3734 O 337.894 -2.04124 -0.718509 0
M  V30 3735 C 338.489 -2.14677 2.62105 0
M  V30 3736 C 337.048 -2.68236 2.64057 0
M  V30 3737 C 336.195 -1.43816 2.37091 0
M  V30 3738 H 339.146 -0.38686 1.53913 0
M  V30 3739 H 339.167 -2.97878 2.36746 0
M  V30 3740 H 338.679 -1.5834 3.5433 0
M  V30 3741 H 336.78 -3.28486 1.75864 0
M  V30 3742 H 336.893 -3.12021 3.63566 0
M  V30 3743 H 335.257 -1.731 1.86838 0
M  V30 3744 H 336.04 -0.893333 3.31473 0
M  V30 3745 N 338.485 -1.33259 -0.841409 0
M  V30 3746 C 339.395 -1.25332 -1.98316 0
M  V30 3747 C 340.411 -0.164364 -1.73222 0
M  V30 3748 O 341.587 -0.387486 -1.97637 0
M  V30 3749 C 338.652 -0.990078 -3.32262 0
M  V30 3750 C 337.713 -2.16879 -3.70489 0
M  V30 3751 C 336.946 -1.91801 -4.98044 0
M  V30 3752 O 337.169 -0.867075 -5.63771 0
M  V30 3753 O 336.103 -2.78267 -5.33714 0
M  V30 3754 H 339.929 -2.21344 -2.07944 0
M  V30 3755 H 337.514 -1.1328 -0.974058 0
M  V30 3756 H 339.396 -0.860321 -4.12524 0
M  V30 3757 H 338.071 -0.0602155 -3.23644 0
M  V30 3758 H 336.978 -2.35407 -2.90748 0
M  V30 3759 H 338.311 -3.0819 -3.8377 0
M  V30 3760 N 339.963 1.05934 -1.16686 0
M  V30 3761 C 341.209 1.79065 -0.95203 0
M  V30 3762 C 341.542 1.87147 0.518629 0
M  V30 3763 O 340.817 1.36574 1.38484 0
M  V30 3764 C 341.1 3.23359 -1.58464 0
M  V30 3765 C 340.953 3.23336 -3.12689 0
M  V30 3766 C 342.272 4.21004 -1.28232 0
M  V30 3767 H 339.391 0.65005 -0.34728 0
M  V30 3768 H 342.033 1.23868 -1.44072 0
M  V30 3769 H 340.183 3.70493 -1.16908 0
M  V30 3770 H 341.855 2.84336 -3.6325 0
M  V30 3771 H 340.098 2.61886 -3.4583 0
M  V30 3772 H 340.769 4.25144 -3.52075 0
M  V30 3773 H 343.245 3.8233 -1.64203 0
M  V30 3774 H 342.121 5.20225 -1.75092 0
M  V30 3775 H 342.382 4.41639 -0.201791 0
M  V30 3776 N 341.441 0.965919 1.2453 0
M  V30 3777 C 342.351 0.502154 2.29163 0
M  V30 3778 C 343.367 -0.436017 1.68448 0
M  V30 3779 O 344.543 -0.309497 1.99008 0
M  V30 3780 C 341.608 -0.201956 3.46111 0
M  V30 3781 C 340.669 0.775821 4.22232 0
M  V30 3782 C 339.902 0.105217 5.33596 0
M  V30 3783 O 340.125 -1.10683 5.59558 0
M  V30 3784 O 339.059 0.796475 5.96607 0
M  V30 3785 H 342.885 1.37194 2.70946 0
M  V30 3786 H 340.47 0.732875 1.30189 0
M  V30 3787 H 342.352 -0.597564 4.17142 0
M  V30 3788 H 341.027 -1.04673 3.06309 0
M  V30 3789 H 339.934 1.22185 3.53584 0
M  V30 3790 H 341.267 1.58896 4.65846 0
M  V30 3791 N 342.919 -1.39368 0.735821 0
M  V30 3792 C 344.144 -2.05319 0.293052 0
M  V30 3793 C 344.569 -1.55115 -1.064 0
M  V30 3794 O 343.927 -0.695261 -1.67439 0
M  V30 3795 C 343.975 -3.59305 0.305323 0
M  V30 3796 O 343.079 -4.06299 -0.706761 0
M  V30 3797 H 342.42 -0.650529 0.13307 0
M  V30 3798 H 344.95 -1.78386 1.00197 0
M  V30 3799 H 344.96 -4.07724 0.149997 0
M  V30 3800 H 343.635 -3.95207 1.29553 0
M  V30 3801 H 342.212 -3.69292 -0.517504 0
M  V30 3802 N 344.397 -0.483516 -1.5 0
M  V30 3803 C 345.327 0.293829 -2.31644 0
M  V30 3804 C 346.308 0.978864 -1.39112 0
M  V30 3805 O 347.493 0.973644 -1.68029 0
M  V30 3806 C 344.623 1.36897 -3.19181 0
M  V30 3807 C 343.577 0.804833 -4.20365 0
M  V30 3808 C 342.903 1.9792 -4.96721 0
M  V30 3809 C 344.203 -0.192313 -5.21946 0
M  V30 3810 H 345.897 -0.387616 -2.9688 0
M  V30 3811 H 343.443 -0.187856 -1.42769 0
M  V30 3812 H 345.396 1.92037 -3.751 0
M  V30 3813 H 344.12 2.07936 -2.51853 0
M  V30 3814 H 342.779 0.275319 -3.65565 0
M  V30 3815 H 342.427 2.67686 -4.25856 0
M  V30 3816 H 342.127 1.60789 -5.65173 0
M  V30 3817 H 343.651 2.53526 -5.55479 0
M  V30 3818 H 345.065 0.270333 -5.72662 0
M  V30 3819 H 343.462 -0.478543 -5.98189 0
M  V30 3820 H 344.532 -1.11409 -4.71928 0
M  V30 3821 N 345.875 1.56104 -0.216619 0
M  V30 3822 C 346.807 2.17339 0.72776 0
M  V30 3823 C 347.82 1.14109 1.16116 0
M  V30 3824 O 349.009 1.4111 1.09317 0
M  V30 3825 C 346.109 2.73818 1.99693 0
M  V30 3826 C 345.282 4.02168 1.71988 0
M  V30 3827 C 344.341 4.43259 2.83562 0
M  V30 3828 O 343.367 5.10257 2.52244 0
M  V30 3829 N 344.569 4.08535 4.12407 0
M  V30 3830 H 347.334 2.99005 0.203983 0
M  V30 3831 H 344.895 1.61861 -0.0354289 0
M  V30 3832 H 346.887 2.9828 2.73516 0
M  V30 3833 H 345.457 1.96483 2.43132 0
M  V30 3834 H 344.677 3.85612 0.818337 0
M  V30 3835 H 345.965 4.85907 1.50903 0
M  V30 3836 H 345.363 3.54687 4.40696 0
M  V30 3837 H 343.92 4.37901 4.8279 0
M  V30 3838 N 347.353 -0.0568162 1.57498 0
M  V30 3839 C 348.63 -0.786954 1.79071 0
M  V30 3840 C 349.01 -1.95028 0.80792 0
M  V30 3841 O 348.358 -2.27968 -0.155858 0
M  V30 3842 C 348.568 -1.24594 3.26002 0
M  V30 3843 C 349.916 -1.67323 3.90241 0
M  V30 3844 O 350.94 -1.34124 3.29984 0
M  V30 3845 O 349.799 -2.28842 4.9628 0
M  V30 3846 H 346.893 -0.378262 0.735423 0
M  V30 3847 H 349.439 -0.035734 1.69662 0
M  V30 3848 H 348.211 -0.41423 3.89101 0
M  V30 3849 H 347.834 -2.05803 3.40192 0
M  V30 3850 N 348.832 -1.54138 -0.328536 0
M  V30 3851 C 350.062 -1.75807 -1.08516 0
M  V30 3852 C 350.47 -0.50428 -1.82356 0
M  V30 3853 O 349.813 0.534451 -1.75754 0
M  V30 3854 C 349.875 -2.89423 -2.13248 0
M  V30 3855 C 349.539 -4.28504 -1.5885 0
M  V30 3856 C 350.536 -5.09536 -1.03289 0
M  V30 3857 C 348.221 -4.75034 -1.63243 0
M  V30 3858 C 350.215 -6.35206 -0.52845 0
M  V30 3859 C 347.902 -6.00672 -1.12411 0
M  V30 3860 C 348.9 -6.80592 -0.573062 0
M  V30 3861 O 348.588 -8.03867 -0.0723692 0
M  V30 3862 H 348.32 -0.590633 -0.328829 0
M  V30 3863 H 350.874 -2.01819 -0.381868 0
M  V30 3864 H 349.104 -2.5897 -2.87178 0
M  V30 3865 H 350.793 -2.98921 -2.74592 0
M  V30 3866 H 351.559 -4.74745 -0.99206 0
M  V30 3867 H 347.438 -4.12875 -2.05074 0
M  V30 3868 H 350.982 -6.97532 -0.0976774 0
M  V30 3869 H 346.879 -6.34955 -1.162 0
M  V30 3870 H 347.647 -8.18283 -0.188258 0
M  V30 3871 N 350.31 0.590341 -1.46126 0
M  V30 3872 C 351.257 1.69994 -1.56111 0
M  V30 3873 C 352.227 1.61065 -0.405867 0
M  V30 3874 O 353.412 1.8039 -0.621613 0
M  V30 3875 C 350.552 3.08326 -1.55013 0
M  V30 3876 C 349.665 3.27936 -2.81215 0
M  V30 3877 C 348.8 4.56473 -2.71673 0
M  V30 3878 C 347.839 4.694 -3.92849 0
M  V30 3879 N 346.976 5.89254 -3.81738 0
M  V30 3880 H 351.816 1.60797 -2.50895 0
M  V30 3881 H 349.353 0.783799 -1.24479 0
M  V30 3882 H 351.311 3.88383 -1.52362 0
M  V30 3883 H 349.941 3.16439 -0.637667 0
M  V30 3884 H 348.993 2.41536 -2.93879 0
M  V30 3885 H 350.305 3.33357 -3.71045 0
M  V30 3886 H 349.459 5.44748 -2.67085 0
M  V30 3887 H 348.198 4.53477 -1.7947 0
M  V30 3888 H 347.203 3.79544 -3.97777 0
M  V30 3889 H 348.428 4.7418 -4.86138 0
M  V30 3890 H 346.374 5.87271 -2.92317 0
M  V30 3891 H 346.291 5.95911 -4.65217 0
M  V30 3892 H 347.559 6.79981 -3.81112 0
M  V30 3893 N 351.788 1.33704 0.83433 0
M  V30 3894 C 352.736 1.24323 1.96587 0
M  V30 3895 C 353.73 0.143659 1.6879 0
M  V30 3896 O 354.936 0.30791 1.77347 0
M  V30 3897 H 351.311 0.385925 0.645419 0
M  V30 3898 H 353.282 2.19978 2.01624 0
M  V30 3899 C 352.031 1.00394 3.32891 0
M  V30 3900 H 351.354 1.84231 3.54822 0
M  V30 3901 H 352.794 0.97862 4.12552 0
M  V30 3902 C 351.253 -0.293047 3.35623 0
M  V30 3903 O 351.783 -1.29823 3.80143 0
M  V30 3904 N 349.989 -0.322174 2.88809 0
M  V30 3905 H 349.536 0.496379 2.52772 0
M  V30 3906 H 349.494 -1.18977 2.91019 0
M  V30 3907 N 353.266 -1.05314 1.17247 0
M  V30 3908 C 354.494 -1.81971 0.984593 0
M  V30 3909 C 354.909 -1.82929 -0.467166 0
M  V30 3910 O 354.266 -1.25564 -1.32438 0
M  V30 3911 C 354.317 -3.28143 1.51672 0
M  V30 3912 O 354.038 -3.27347 2.91163 0
M  V30 3913 C 355.539 -4.21493 1.37326 0
M  V30 3914 H 352.759 -0.573455 0.348411 0
M  V30 3915 H 355.303 -1.32808 1.55506 0
M  V30 3916 H 353.458 -3.74582 0.988302 0
M  V30 3917 H 353.872 -4.18824 3.15732 0
M  V30 3918 H 355.346 -5.22043 1.79375 0
M  V30 3919 H 355.823 -4.38031 0.320169 0
M  V30 3920 H 356.429 -3.80909 1.89178 0
M  V30 3921 N 354.744 -0.972509 -1.24016 0
M  V30 3922 C 355.991 -0.637034 -1.92219 0
M  V30 3923 C 356.319 0.828418 -1.75976 0
M  V30 3924 O 355.574 1.61206 -1.10955 0
M  V30 3925 C 355.873 -0.963694 -3.44162 0
M  V30 3926 C 355.539 -2.41807 -3.80579 0
M  V30 3927 C 354.201 -2.81556 -3.9023 0
M  V30 3928 C 356.553 -3.36172 -3.98293 0
M  V30 3929 C 353.881 -4.14702 -4.15017 0
M  V30 3930 C 356.233 -4.68952 -4.24578 0
M  V30 3931 C 354.897 -5.08472 -4.32449 0
M  V30 3932 H 354.167 -0.233107 -0.703379 0
M  V30 3933 H 356.814 -1.2249 -1.47202 0
M  V30 3934 H 355.119 -0.29365 -3.90698 0
M  V30 3935 H 356.816 -0.682449 -3.9515 0
M  V30 3936 H 353.406 -2.09988 -3.73635 0
M  V30 3937 H 357.59 -3.06644 -3.90234 0
M  V30 3938 H 352.846 -4.4494 -4.19331 0
M  V30 3939 H 357.02 -5.42037 -4.37229 0
M  V30 3940 H 354.647 -6.11665 -4.51409 0
M  V30 3941 N 356.222 1.38976 -0.743202 0
M  V30 3942 C 357.633 1.83123 -0.363732 0
M  V30 3943 C 357.984 1.6205 1.10609 0
M  V30 3944 O 357.109 1.11606 1.854 0
M  V30 3945 C 357.704 3.32439 -0.653408 0
M  V30 3946 C 356.263 3.74974 -0.327338 0
M  V30 3947 C 355.41 2.61878 -0.911875 0
M  V30 3948 H 358.361 1.27852 -0.940191 0
M  V30 3949 H 358.382 3.80432 0.0720031 0
M  V30 3950 H 357.894 3.47745 -1.72323 0
M  V30 3951 H 355.995 3.65252 0.736314 0
M  V30 3952 H 356.108 4.72106 -0.815631 0
M  V30 3953 H 354.472 2.52448 -0.337944 0
M  V30 3954 H 355.255 2.79987 -1.98651 0
M  V30 3955 N 357.7 0.491464 1.49741 0
M  V30 3956 C 358.647 -0.292027 2.28945 0
M  V30 3957 C 359.617 -0.968973 1.34908 0
M  V30 3958 O 360.802 -0.97748 1.6386 0
M  V30 3959 C 357.942 -1.35617 3.17336 0
M  V30 3960 C 357.055 -0.691957 4.26422 0
M  V30 3961 C 356.19 -1.73572 5.02042 0
M  V30 3962 C 355.229 -1.05286 6.02977 0
M  V30 3963 N 354.366 -2.0404 6.71798 0
M  V30 3964 H 359.206 0.389654 2.95442 0
M  V30 3965 H 356.743 0.204003 1.45679 0
M  V30 3966 H 358.701 -1.98502 3.66951 0
M  V30 3967 H 357.331 -2.00674 2.52844 0
M  V30 3968 H 356.383 0.0499523 3.80367 0
M  V30 3969 H 357.695 -0.153946 4.98562 0
M  V30 3970 H 356.849 -2.43987 5.55478 0
M  V30 3971 H 355.588 -2.30757 4.29654 0
M  V30 3972 H 354.593 -0.334446 5.48782 0
M  V30 3973 H 355.818 -0.487636 6.77347 0
M  V30 3974 H 353.764 -2.60205 6.02187 0
M  V30 3975 H 353.681 -1.55279 7.39881 0
M  V30 3976 H 354.949 -2.73772 7.29842 0
M  V30 3977 N 359.178 -1.55987 0.224894 0
M  V30 3978 C 360.424 -1.99433 -0.39973 0
M  V30 3979 C 360.779 -1.11004 -1.57149 0
M  V30 3980 O 360.072 -0.160725 -1.90925 0
M  V30 3981 C 360.266 -3.46394 -0.880106 0
M  V30 3982 C 360.095 -4.4904 0.243565 0
M  V30 3983 C 358.865 -5.00272 0.711056 0
M  V30 3984 C 361.063 -5.03195 1.06299 0
M  V30 3985 N 359.045 -5.86628 1.80944 0
M  V30 3986 C 360.416 -5.86508 2.01017 0
M  V30 3987 C 362.471 -4.8555 1.10205 0
M  V30 3988 C 361.174 -6.54062 2.99324 0
M  V30 3989 C 363.2 -5.53866 2.07332 0
M  V30 3990 C 362.562 -6.3695 3.00789 0
M  V30 3991 H 358.661 -0.773815 -0.112847 0
M  V30 3992 H 361.245 -1.91754 0.337432 0
M  V30 3993 H 359.416 -3.54515 -1.58662 0
M  V30 3994 H 361.148 -3.76752 -1.47783 0
M  V30 3995 H 357.903 -4.72655 0.29906 0
M  V30 3996 H 358.327 -6.34507 2.36073 0
M  V30 3997 H 362.969 -4.20966 0.39343 0
M  V30 3998 H 360.687 -7.17827 3.71147 0
M  V30 3999 H 364.273 -5.42178 2.11032 0
M  V30 4000 H 363.153 -6.8888 3.74718 0
M  V30 4001 N 360.656 0.0484629 -1.57525 0
M  V30 4002 C 361.603 1.05504 -2.05275 0
M  V30 4003 C 362.573 1.37084 -0.937927 0
M  V30 4004 O 363.758 1.47754 -1.2072 0
M  V30 4005 C 360.898 2.35676 -2.52093 0
M  V30 4006 C 360.011 2.10423 -3.77288 0
M  V30 4007 C 359.146 3.34327 -4.12794 0
M  V30 4008 C 358.185 3.04542 -5.30962 0
M  V30 4009 N 357.322 4.20841 -5.61994 0
M  V30 4010 H 362.162 0.640885 -2.91027 0
M  V30 4011 H 359.699 0.304854 -1.43906 0
M  V30 4012 H 361.657 3.11709 -2.77297 0
M  V30 4013 H 360.287 2.7485 -1.69285 0
M  V30 4014 H 359.339 1.24976 -3.59284 0
M  V30 4015 H 360.651 1.84438 -4.63448 0
M  V30 4016 H 359.805 4.1874 -4.39024 0
M  V30 4017 H 358.544 3.63408 -3.25247 0
M  V30 4018 H 357.549 2.18528 -5.04505 0
M  V30 4019 H 358.774 2.76758 -6.20146 0
M  V30 4020 H 356.72 4.4991 -4.77406 0
M  V30 4021 H 356.637 3.98212 -6.42622 0
M  V30 4022 H 357.905 5.06184 -5.92789 0
M  V30 4023 N 362.134 1.5431 0.320358 0
M  V30 4024 C 363.545 1.63872 0.894594 0
M  V30 4025 C 363.896 0.534847 1.88769 0
M  V30 4026 O 363.021 -0.331732 2.13842 0
M  V30 4027 C 363.616 2.97049 1.62934 0
M  V30 4028 C 362.175 3.08796 2.15226 0
M  V30 4029 C 361.322 2.59456 0.978671 0
M  V30 4030 H 364.273 1.58398 0.0978544 0
M  V30 4031 H 364.294 2.87388 2.49376 0
M  V30 4032 H 363.806 3.7737 0.906302 0
M  V30 4033 H 361.907 2.33156 2.90636 0
M  V30 4034 H 362.02 4.14649 2.40006 0
M  V30 4035 H 360.384 2.1543 1.35875 0
M  V30 4036 H 361.167 3.42237 0.269895 0
M  V30 4037 N 363.613 -0.582584 1.46437 0
M  V30 4038 C 364.861 -1.33814 1.51453 0
M  V30 4039 C 365.182 -1.94277 0.167792 0
M  V30 4040 O 364.452 -1.78566 -0.805677 0
M  V30 4041 H 363.032 -0.496838 0.557818 0
M  V30 4042 H 365.694 -0.682281 1.82568 0
M  V30 4043 H 364.79 -2.14479 2.26728 0
M  V30 4044 N 365.091 -1.34144 -0.827227 0
M  V30 4045 C 366.316 -1.29476 -1.62021 0
M  V30 4046 C 366.741 0.129292 -1.87655 0
M  V30 4047 O 366.099 1.08967 -1.449 0
M  V30 4048 C 366.147 -2.08702 -2.94068 0
M  V30 4049 O 365.251 -1.45359 -3.85933 0
M  V30 4050 H 364.592 -0.444881 -0.492927 0
M  V30 4051 H 367.122 -1.76882 -1.02829 0
M  V30 4052 H 367.132 -2.19898 -3.43669 0
M  V30 4053 H 365.807 -3.12241 -2.74734 0
M  V30 4054 H 364.384 -1.42879 -3.44442 0
M  V30 4055 N 366.569 1.04691 -1.17803 0
M  V30 4056 C 367.499 2.14494 -0.92275 0
M  V30 4057 C 368.48 1.69546 0.137179 0
M  V30 4058 O 369.665 1.94195 -0.0141108 0
M  V30 4059 C 366.795 3.44491 -0.440803 0
M  V30 4060 C 365.749 4.03031 -1.4405 0
M  V30 4061 C 365.075 5.28432 -0.81631 0
M  V30 4062 C 366.375 4.39932 -2.81527 0
M  V30 4063 H 368.069 2.36107 -1.84103 0
M  V30 4064 H 365.615 1.1347 -0.886599 0
M  V30 4065 H 367.568 4.2066 -0.249602 0
M  V30 4066 H 366.292 3.22546 0.513025 0
M  V30 4067 H 364.951 3.28937 -1.61853 0
M  V30 4068 H 364.599 5.02792 0.144511 0
M  V30 4069 H 364.299 5.68559 -1.48371 0
M  V30 4070 H 365.823 6.07284 -0.635496 0
M  V30 4071 H 367.237 5.07113 -2.67412 0
M  V30 4072 H 365.634 4.9109 -3.44892 0
M  V30 4073 H 366.704 3.50045 -3.35554 0
M  V30 4074 N 368.047 0.979072 1.23499 0
M  V30 4075 C 369.01 0.523244 2.23147 0
M  V30 4076 C 370.01 -0.386406 1.56088 0
M  V30 4077 O 371.2 -0.180283 1.73265 0
M  V30 4078 C 368.332 -0.240739 3.40049 0
M  V30 4079 H 369.525 1.40432 2.64989 0
M  V30 4080 H 367.078 0.764824 1.36309 0
M  V30 4081 H 367.813 -1.13841 3.03662 0
M  V30 4082 H 367.598 0.412207 3.89927 0
M  V30 4083 H 369.088 -0.548297 4.13985 0
M  V30 4084 N 369.525 -1.3858 0.750561 0
M  V30 4085 C 370.75 -2.04997 0.314812 0
M  V30 4086 C 371.175 -1.56235 -1.04749 0
M  V30 4087 O 370.533 -0.712981 -1.66692 0
M  V30 4088 C 370.581 -3.58961 0.343415 0
M  V30 4089 O 369.685 -4.07025 -0.663628 0
M  V30 4090 H 369.026 -0.649081 0.139962 0
M  V30 4091 H 371.556 -1.77313 1.02084 0
M  V30 4092 H 371.566 -4.07542 0.193233 0
M  V30 4093 H 370.241 -3.93811 1.33738 0
M  V30 4094 H 368.818 -3.6982 -0.478307 0
M  V30 4095 N 371.003 -0.499398 -1.49478 0
M  V30 4096 C 371.953 0.299103 -2.2603 0
M  V30 4097 C 372.937 0.936934 -1.30807 0
M  V30 4098 O 374.129 0.844798 -1.55538 0
M  V30 4099 C 371.258 1.36391 -3.15044 0
M  V30 4100 C 370.344 0.732398 -4.17728 0
M  V30 4101 N 370.735 -0.164028 -5.05534 0
M  V30 4102 C 369.033 0.993162 -4.34801 0
M  V30 4103 C 369.734 -0.525345 -5.79323 0
M  V30 4104 N 368.71 0.106348 -5.43496 0
M  V30 4105 H 372.512 -0.391003 -2.91287 0
M  V30 4106 H 370.026 -0.31537 -1.59308 0
M  V30 4107 H 372.023 1.94939 -3.68516 0
M  V30 4108 H 370.683 2.05571 -2.51338 0
M  V30 4109 H 371.694 -0.534736 -5.15132 0
M  V30 4110 H 368.371 1.67783 -3.82302 0
M  V30 4111 H 369.761 -1.25862 -6.60006 0
M  V30 4112 N 372.481 1.55866 -0.233164 0
M  V30 4113 C 373.727 1.98897 0.395959 0
M  V30 4114 C 374.06 1.12091 1.58585 0
M  V30 4115 O 373.335 0.181182 1.93654 0
M  V30 4116 C 373.618 3.50658 0.819224 0
M  V30 4117 C 373.471 4.48233 -0.375109 0
M  V30 4118 C 374.79 4.07135 1.67121 0
M  V30 4119 H 371.909 0.723102 0.142451 0
M  V30 4120 H 374.551 1.87082 -0.331725 0
M  V30 4121 H 372.701 3.60857 1.43925 0
M  V30 4122 H 374.373 4.50031 -1.01341 0
M  V30 4123 H 372.616 4.21624 -1.02058 0
M  V30 4124 H 373.287 5.51988 -0.0358328 0
M  V30 4125 H 375.763 3.99952 1.14795 0
M  V30 4126 H 374.639 5.13615 1.93625 0
M  V30 4127 H 374.9 3.54736 2.63846 0
M  V30 4128 N 373.959 -0.0401083 1.57549 0
M  V30 4129 C 374.906 -1.04413 2.05831 0
M  V30 4130 C 375.876 -1.36585 0.945184 0
M  V30 4131 O 377.061 -1.47112 1.21502 0
M  V30 4132 C 374.201 -2.34336 2.53339 0
M  V30 4133 C 373.314 -2.08419 3.78398 0
M  V30 4134 C 372.449 -3.32133 4.14561 0
M  V30 4135 C 371.488 -3.01721 5.3257 0
M  V30 4136 N 370.625 -4.17855 5.64218 0
M  V30 4137 H 375.465 -0.625442 2.91363 0
M  V30 4138 H 373.002 -0.297218 1.44066 0
M  V30 4139 H 374.96 -3.10234 2.78946 0
M  V30 4140 H 373.59 -2.73948 1.7074 0
M  V30 4141 H 372.642 -1.23069 3.59942 0
M  V30 4142 H 373.954 -1.81978 4.64419 0
M  V30 4143 H 373.108 -4.16406 4.41238 0
M  V30 4144 H 371.847 -3.61678 3.2717 0
M  V30 4145 H 370.852 -2.15849 5.05657 0
M  V30 4146 H 372.077 -2.73466 6.21605 0
M  V30 4147 H 370.023 -4.47372 4.79786 0
M  V30 4148 H 369.94 -3.94798 6.44725 0
M  V30 4149 H 371.208 -5.03033 5.95465 0
M  V30 4150 N 375.437 -1.54477 -0.31217 0
M  V30 4151 C 376.385 -1.85395 -1.40469 0
M  V30 4152 C 377.379 -0.726749 -1.53019 0
M  V30 4153 O 378.585 -0.910582 -1.55269 0
M  V30 4154 H 374.96 -0.587845 -0.46898 0
M  V30 4155 H 376.931 -2.76736 -1.11623 0
M  V30 4156 C 375.68 -2.10811 -2.76503 0
M  V30 4157 H 375.003 -2.97014 -2.67625 0
M  V30 4158 H 376.443 -2.3639 -3.51988 0
M  V30 4159 C 374.902 -0.903165 -3.24568 0
M  V30 4160 O 375.432 -0.118085 -4.01526 0
M  V30 4161 N 373.638 -0.711634 -2.81752 0
M  V30 4162 H 373.185 -1.35171 -2.19286 0
M  V30 4163 H 373.143 0.0930473 -3.14262 0
M  V30 4164 N 376.915 0.57481 -1.46744 0
M  V30 4165 C 377.845 1.69337 -1.60771 0
M  V30 4166 C 378.826 1.63825 -0.457736 0
M  V30 4167 O 380.011 1.8172 -0.684947 0
M  V30 4168 C 377.141 3.0798 -1.60517 0
M  V30 4169 C 376.095 3.28327 -2.74564 0
M  V30 4170 C 375.421 4.67578 -2.59373 0
M  V30 4171 C 376.721 3.15398 -4.16319 0
M  V30 4172 H 378.415 1.57853 -2.54407 0
M  V30 4173 H 375.961 0.75799 -1.22436 0
M  V30 4174 H 377.914 3.86061 -1.68923 0
M  V30 4175 H 376.638 3.20381 -0.634305 0
M  V30 4176 H 375.297 2.52649 -2.65639 0
M  V30 4177 H 374.945 4.76755 -1.60353 0
M  V30 4178 H 374.645 4.82144 -3.35873 0
M  V30 4179 H 376.169 5.47817 -2.69682 0
M  V30 4180 H 377.583 3.83315 -4.26313 0
M  V30 4181 H 375.98 3.41482 -4.93468 0
M  V30 4182 H 377.05 2.12372 -4.3592 0
M  V30 4183 N 378.394 1.34581 0.820102 0
M  V30 4184 C 379.671 1.17675 1.56244 0
M  V30 4185 C 380.051 -0.249541 2.0962 0
M  V30 4186 O 379.399 -1.25125 1.91196 0
M  V30 4187 C 379.609 2.23364 2.6816 0
M  V30 4188 C 380.957 2.58485 3.36854 0
M  V30 4189 O 381.981 2.22175 2.78418 0
M  V30 4190 O 380.84 3.20868 4.42386 0
M  V30 4191 H 377.934 0.456333 0.689702 0
M  V30 4192 H 380.48 1.46222 0.861231 0
M  V30 4193 H 379.252 3.19087 2.26493 0
M  V30 4194 H 378.875 1.96009 3.45928 0
M  V30 4195 N 379.872 -1.04064 1.18357 0
M  V30 4196 C 380.782 -2.15569 0.925596 0
M  V30 4197 C 381.798 -1.7365 -0.110295 0
M  V30 4198 O 382.974 -2.01273 0.0716218 0
M  V30 4199 C 380.039 -3.43704 0.454836 0
M  V30 4200 C 379.1 -4.00004 1.55869 0
M  V30 4201 C 378.333 -5.22023 1.1103 0
M  V30 4202 O 378.556 -5.70392 -0.0309756 0
M  V30 4203 O 377.49 -5.70856 1.90805 0
M  V30 4204 H 381.316 -2.40187 1.8586 0
M  V30 4205 H 378.901 -1.1402 0.965394 0
M  V30 4206 H 380.783 -4.20923 0.200382 0
M  V30 4207 H 379.458 -3.20559 -0.449876 0
M  V30 4208 H 378.365 -3.24172 1.86716 0
M  V30 4209 H 379.698 -4.2749 2.43953 0
M  V30 4210 N 381.35 -0.985608 -1.22978 0
M  V30 4211 C 382.298 -0.522631 -2.26652 0
M  V30 4212 C 383.292 0.422998 -1.64034 0
M  V30 4213 O 384.498 0.296319 -1.77544 0
M  V30 4214 H 380.873 -0.150597 -0.736766 0
M  V30 4215 H 382.844 -1.40863 -2.63059 0
M  V30 4216 C 381.593 0.154238 -3.47358 0
M  V30 4217 H 380.916 -0.564329 -3.95797 0
M  V30 4218 H 382.356 0.441744 -4.21693 0
M  V30 4219 C 380.815 1.38719 -3.07016 0
M  V30 4220 O 381.345 2.48307 -3.15764 0
M  V30 4221 N 379.551 1.25975 -2.61875 0
M  V30 4222 H 379.098 0.368068 -2.54957 0
M  V30 4223 H 379.056 2.08578 -2.3525 0
M  V30 4224 N 382.828 1.3818 -0.7579 0
M  V30 4225 C 384.076 1.99624 -0.315361 0
M  V30 4226 C 384.397 1.60464 1.10799 0
M  V30 4227 O 383.667 0.863507 1.75842 0
M  V30 4228 H 382.247 0.73831 -0.113611 0
M  V30 4229 H 384.909 1.68878 -0.972952 0
M  V30 4230 H 384.005 3.09754 -0.381931 0
M  V30 4231 N 384.306 0.507319 1.49211 0
M  V30 4232 C 385.236 -0.256939 2.32082 0
M  V30 4233 C 386.217 -0.956609 1.40652 0
M  V30 4234 O 387.402 -0.946788 1.69557 0
M  V30 4235 C 384.532 -1.31802 3.21318 0
M  V30 4236 C 383.486 -0.737855 4.21592 0
M  V30 4237 C 382.812 -1.89992 4.99807 0
M  V30 4238 C 384.112 0.275325 5.21574 0
M  V30 4239 H 385.806 0.434798 2.96226 0
M  V30 4240 H 383.352 0.210546 1.42452 0
M  V30 4241 H 385.305 -1.86045 3.78107 0
M  V30 4242 H 384.029 -2.03903 2.5513 0
M  V30 4243 H 382.688 -0.217126 3.65956 0
M  V30 4244 H 382.336 -2.60877 4.30061 0
M  V30 4245 H 382.036 -1.51777 5.6766 0
M  V30 4246 H 383.56 -2.44657 5.59442 0
M  V30 4247 H 384.974 -0.179193 5.7302 0
M  V30 4248 H 383.371 0.573649 5.97352 0
M  V30 4249 H 384.441 1.18903 4.70096 0
M  V30 4250 N 385.784 -1.5574 0.241426 0
M  V30 4251 C 387.061 -1.90704 -0.434881 0
M  V30 4252 C 387.441 -1.16145 -1.76277 0
M  V30 4253 O 386.789 -0.277152 -2.26813 0
M  V30 4254 C 386.999 -3.43657 -0.608343 0
M  V30 4255 C 388.347 -4.14806 -0.906725 0
M  V30 4256 O 389.371 -3.49366 -0.694408 0
M  V30 4257 O 388.23 -5.30548 -1.31075 0
M  V30 4258 H 385.324 -0.793592 -0.23268 0
M  V30 4259 H 387.87 -1.67288 0.285086 0
M  V30 4260 H 386.642 -3.89927 0.327505 0
M  V30 4261 H 386.265 -3.72918 -1.37906 0
M  V30 4262 N 387.262 0.0317525 -1.57568 0
M  V30 4263 C 388.192 1.03274 -2.0942 0
M  V30 4264 C 389.173 1.3788 -0.996143 0
M  V30 4265 O 390.358 1.46811 -1.27122 0
M  V30 4266 C 387.488 2.33448 -2.57137 0
M  V30 4267 C 386.442 2.13091 -3.71182 0
M  V30 4268 C 385.768 3.49001 -4.05095 0
M  V30 4269 C 387.068 1.51928 -4.99715 0
M  V30 4270 H 388.762 0.60112 -2.93303 0
M  V30 4271 H 386.308 0.287705 -1.41097 0
M  V30 4272 H 388.261 3.03802 -2.92032 0
M  V30 4273 H 386.985 2.78665 -1.70333 0
M  V30 4274 H 385.644 1.45171 -3.36632 0
M  V30 4275 H 385.292 3.91862 -3.15362 0
M  V30 4276 H 384.992 3.36207 -4.81911 0
M  V30 4277 H 386.516 4.20721 -4.42522 0
M  V30 4278 H 387.93 2.12196 -5.32584 0
M  V30 4279 H 386.327 1.49716 -5.81124 0
M  V30 4280 H 387.397 0.484811 -4.8247 0
M  V30 4281 N 388.74 1.54641 0.303973 0
M  V30 4282 C 389.67 1.88386 1.3796 0
M  V30 4283 C 390.651 0.742485 1.5304 0
M  V30 4284 O 391.836 0.997959 1.66597 0
M  V30 4285 C 388.966 2.12854 2.74427 0
M  V30 4286 C 387.92 3.28702 2.74115 0
M  V30 4287 C 387.246 3.38582 4.13844 0
M  V30 4288 C 388.546 4.65881 2.3612 0
M  V30 4289 H 390.24 2.78474 1.09966 0
M  V30 4290 H 387.786 1.33988 0.527556 0
M  V30 4291 H 389.739 2.35047 3.49758 0
M  V30 4292 H 388.463 1.19535 3.03939 0
M  V30 4293 H 387.122 3.06428 2.0124 0
M  V30 4294 H 386.77 2.42784 4.40528 0
M  V30 4295 H 386.47 4.16453 4.14537 0
M  V30 4296 H 387.994 3.63031 4.90959 0
M  V30 4297 H 389.408 4.87823 3.01167 0
M  V30 4298 H 387.805 5.46444 2.48031 0
M  V30 4299 H 388.875 4.66799 1.3125 0
M  V30 4300 N 390.218 -0.567019 1.47046 0
M  V30 4301 C 391.443 -1.3551 1.57009 0
M  V30 4302 C 391.868 -1.86841 0.217259 0
M  V30 4303 O 391.226 -1.62435 -0.805268 0
M  V30 4304 C 391.274 -2.50777 2.5912 0
M  V30 4305 O 390.378 -3.52706 2.13711 0
M  V30 4306 H 389.719 -0.402919 0.52778 0
M  V30 4307 H 392.249 -0.686241 1.92748 0
M  V30 4308 H 392.259 -2.97481 2.79229 0
M  V30 4309 H 390.934 -2.12771 3.57353 0
M  V30 4310 H 389.511 -3.12374 2.03659 0
M  V30 4311 N 391.696 -1.35014 -0.812953 0
M  V30 4312 C 392.643 -1.27412 -1.92444 0
M  V30 4313 C 393.613 -0.14733 -1.65445 0
M  V30 4314 O 394.798 -0.329974 -1.87925 0
M  V30 4315 C 391.938 -1.04558 -3.28879 0
M  V30 4316 C 391.051 -2.26101 -3.68106 0
M  V30 4317 C 390.186 -1.96449 -4.9354 0
M  V30 4318 C 389.225 -3.14081 -5.25376 0
M  V30 4319 N 388.362 -2.84246 -6.41988 0
M  V30 4320 H 393.202 -2.22463 -1.98278 0
M  V30 4321 H 390.739 -1.10593 -0.969933 0
M  V30 4322 H 392.697 -0.893413 -4.07522 0
M  V30 4323 H 391.327 -0.131719 -3.22531 0
M  V30 4324 H 390.379 -2.52204 -2.84775 0
M  V30 4325 H 391.691 -3.13959 -3.87597 0
M  V30 4326 H 390.845 -1.78026 -5.79993 0
M  V30 4327 H 389.584 -1.05867 -4.76071 0
M  V30 4328 H 388.589 -3.33089 -4.37415 0
M  V30 4329 H 389.814 -4.05455 -5.44778 0
M  V30 4330 H 387.76 -1.96252 -6.25956 0
M  V30 4331 H 387.677 -3.65637 -6.61699 0
M  V30 4332 H 388.945 -2.6935 -7.31485 0
M  V30 4333 N 393.175 1.03435 -1.18907 0
M  V30 4334 C 394.108 2.11162 -0.86521 0
M  V30 4335 C 395.086 1.6165 0.175473 0
M  V30 4336 O 396.27 1.88425 0.0530129 0
M  V30 4337 C 393.397 3.37423 -0.293868 0
M  V30 4338 C 392.443 4.05795 -1.31274 0
M  V30 4339 S 393.276 4.52027 -2.8711 0
M  V30 4340 C 394.432 5.81513 -2.31504 0
M  V30 4341 H 394.665 2.38308 -1.77754 0
M  V30 4342 H 392.198 1.16295 -1.01562 0
M  V30 4343 H 394.156 4.1049 0.0292572 0
M  V30 4344 H 392.817 3.0838 0.596682 0
M  V30 4345 H 392.01 4.96574 -0.86198 0
M  V30 4346 H 391.612 3.38874 -1.58242 0
M  V30 4347 H 393.904 6.55784 -1.70157 0
M  V30 4348 H 394.847 6.3136 -3.20608 0
M  V30 4349 H 395.255 5.36921 -1.74286 0
M  V30 4350 N 394.653 0.992116 1.22453 0
M  V30 4351 C 395.583 0.561677 2.26644 0
M  V30 4352 C 396.564 -0.411055 1.65059 0
M  V30 4353 O 397.749 -0.301861 1.9184 0
M  V30 4354 C 394.879 -0.125247 3.47074 0
M  V30 4355 C 393.833 0.765948 4.21091 0
M  V30 4356 C 393.159 -0.0538484 5.34673 0
M  V30 4357 C 394.459 2.06242 4.79856 0
M  V30 4358 H 396.153 1.43259 2.62902 0
M  V30 4359 H 393.699 0.690283 1.26377 0
M  V30 4360 H 395.652 -0.437764 4.1912 0
M  V30 4361 H 394.376 -1.03069 3.0991 0
M  V30 4362 H 393.035 1.0621 3.50878 0
M  V30 4363 H 392.683 -0.960188 4.9375 0
M  V30 4364 H 392.383 0.539415 5.85119 0
M  V30 4365 H 393.907 -0.360477 6.09535 0
M  V30 4366 H 395.321 1.8139 5.43848 0
M  V30 4367 H 393.718 2.60444 5.40638 0
M  V30 4368 H 394.788 2.74167 3.99951 0
M  V30 4369 N 396.131 -1.37776 0.765217 0
M  V30 4370 C 397.38 -1.99092 0.323307 0
M  V30 4371 C 397.693 -1.61434 -1.10446 0
M  V30 4372 O 398.899 -2.15805 -1.64743 0
M  V30 4373 C 397.355 -3.56019 0.527098 0
M  V30 4374 C 396.963 -4.0262 1.96471 0
M  V30 4375 C 398.707 -4.2424 0.148483 0
M  V30 4376 C 396.614 -5.52233 2.11644 0
M  V30 4377 H 395.544 -0.744846 0.117137 0
M  V30 4378 H 398.195 -1.57391 0.943417 0
M  V30 4379 H 396.577 -3.95667 -0.162372 0
M  V30 4380 H 397.751 -3.74234 2.68859 0
M  V30 4381 H 396.066 -3.47161 2.29931 0
M  V30 4382 H 398.663 -5.34159 0.240456 0
M  V30 4383 H 399.006 -4.06446 -0.900422 0
M  V30 4384 H 399.539 -3.89872 0.79025 0
M  V30 4385 H 396.278 -5.74945 3.1483 0
M  V30 4386 H 395.798 -5.82324 1.4373 0
M  V30 4387 H 397.477 -6.18106 1.91193 0
M  V30 4388 N 397.609 -0.515225 -1.4894 0
M  V30 4389 C 398.839 0.0205735 -2.0659 0
M  V30 4390 C 399.247 1.30064 -1.37405 0
M  V30 4391 O 398.59 1.78087 -0.450632 0
M  V30 4392 C 398.652 0.330124 -3.57981 0
M  V30 4393 C 398.316 -0.854295 -4.48944 0
M  V30 4394 C 399.313 -1.7487 -4.89609 0
M  V30 4395 C 396.998 -1.05712 -4.9105 0
M  V30 4396 C 398.992 -2.82996 -5.71132 0
M  V30 4397 C 396.679 -2.14154 -5.72347 0
M  V30 4398 C 397.677 -3.0263 -6.12294 0
M  V30 4399 O 397.365 -4.09198 -6.91962 0
M  V30 4400 H 397.097 -0.0236833 -0.675585 0
M  V30 4401 H 399.651 -0.715956 -1.92518 0
M  V30 4402 H 397.881 1.12044 -3.70112 0
M  V30 4403 H 399.57 0.806233 -3.97812 0
M  V30 4404 H 400.336 -1.60388 -4.57712 0
M  V30 4405 H 396.215 -0.377788 -4.59449 0
M  V30 4406 H 399.759 -3.52083 -6.02232 0
M  V30 4407 H 395.656 -2.28626 -6.03656 0
M  V30 4408 H 396.424 -4.06726 -7.10293 0
M  V30 4409 N 399.087 1.5561 -0.249682 0
M  V30 4410 C 400.364 1.90932 0.424761 0
M  V30 4411 C 400.744 1.17078 1.75658 0
M  V30 4412 O 400.092 0.289176 2.26663 0
M  V30 4413 C 400.302 3.43975 0.590109 0
M  V30 4414 C 401.65 4.15281 0.884714 0
M  V30 4415 O 402.674 3.49729 0.67587 0
M  V30 4416 O 401.533 5.31236 1.28259 0
M  V30 4417 H 398.627 0.794815 0.228468 0
M  V30 4418 H 401.173 1.67135 -0.293954 0
M  V30 4419 H 399.945 3.89748 -0.34818 0
M  V30 4420 H 399.568 3.73644 1.35926 0
M  V30 4421 N 400.565 -0.0233959 1.57583 0
M  V30 4422 C 401.976 -0.56927 1.77809 0
M  V30 4423 C 402.327 -1.75284 0.881472 0
M  V30 4424 O 401.452 -2.1626 0.0777805 0
M  V30 4425 C 402.047 -1.03949 3.22459 0
M  V30 4426 C 400.606 -1.53084 3.43864 0
M  V30 4427 C 399.753 -0.471454 2.73263 0
M  V30 4428 H 402.704 0.202825 1.57399 0
M  V30 4429 H 402.725 -1.90661 3.29285 0
M  V30 4430 H 402.237 -0.177865 3.87692 0
M  V30 4431 H 400.338 -2.41414 2.83814 0
M  V30 4432 H 400.451 -1.57443 4.52491 0
M  V30 4433 H 398.815 -0.927788 2.37201 0
M  V30 4434 H 399.598 0.380808 3.41181 0
M  V30 4435 N 402.043 -1.548 -0.295768 0
M  V30 4436 C 403.006 -1.85363 -1.34808 0
M  V30 4437 C 404.006 -0.726817 -1.43436 0
M  V30 4438 O 405.196 -0.995088 -1.42981 0
M  V30 4439 C 402.328 -2.03859 -2.73229 0
M  V30 4440 H 403.521 -2.7941 -1.08949 0
M  V30 4441 H 401.074 -1.46942 -0.532702 0
M  V30 4442 H 401.809 -1.12117 -3.04303 0
M  V30 4443 H 401.594 -2.8588 -2.68356 0
M  V30 4444 H 403.084 -2.28857 -3.49305 0
M  V30 4445 N 403.521 0.559213 -1.47345 0
M  V30 4446 C 404.468 1.66645 -1.59682 0
M  V30 4447 C 405.438 1.60168 -0.43994 0
M  V30 4448 O 406.623 1.79031 -0.659736 0
M  V30 4449 C 403.763 3.04969 -1.61518 0
M  V30 4450 C 402.876 3.21897 -2.88108 0
M  V30 4451 C 402.011 4.50608 -2.81294 0
M  V30 4452 C 401.05 4.60961 -4.02717 0
M  V30 4453 N 400.187 5.81024 -3.94151 0
M  V30 4454 H 405.027 1.55439 -2.54249 0
M  V30 4455 H 402.564 0.757219 -1.26113 0
M  V30 4456 H 404.522 3.85064 -1.60566 0
M  V30 4457 H 403.152 3.15015 -0.704645 0
M  V30 4458 H 402.204 2.35248 -2.98936 0
M  V30 4459 H 403.516 3.25412 -3.78032 0
M  V30 4460 H 402.67 5.3896 -2.7858 0
M  V30 4461 H 401.409 4.49568 -1.89049 0
M  V30 4462 H 400.414 3.71021 -4.05738 0
M  V30 4463 H 401.639 4.63761 -4.96087 0
M  V30 4464 H 399.585 5.80938 -3.04708 0
M  V30 4465 H 399.502 5.85909 -4.77752 0
M  V30 4466 H 400.77 6.71744 -3.9545 0
M  V30 4467 N 404.999 1.35443 0.805782 0
M  V30 4468 C 406.415 1.15499 1.10146 0
M  V30 4469 C 406.615 -0.0319975 2.01475 0
M  V30 4470 O 405.671 -0.70236 2.42535 0
M  V30 4471 C 406.984 2.45833 1.73166 0
M  V30 4472 C 408.532 2.52047 1.85583 0
M  V30 4473 C 409.007 3.82427 2.52019 0
M  V30 4474 N 410.498 3.83682 2.59504 0
M  V30 4475 C 411.233 4.81294 3.11679 0
M  V30 4476 N 410.729 5.89294 3.64287 0
M  V30 4477 N 412.522 4.6873 3.1024 0
M  V30 4478 H 404.673 2.11469 0.198678 0
M  V30 4479 H 406.936 0.93594 0.150731 0
M  V30 4480 H 406.642 3.32874 1.13526 0
M  V30 4481 H 406.516 2.6044 2.72857 0
M  V30 4482 H 408.903 1.65435 2.44367 0
M  V30 4483 H 408.984 2.41354 0.847455 0
M  V30 4484 H 408.628 4.69437 1.93885 0
M  V30 4485 H 408.558 3.90409 3.53395 0
M  V30 4486 H 411.049 3.05648 2.22234 0
M  V30 4487 H 411.362 6.59768 4.02401 0
M  V30 4488 H 409.707 5.92985 3.62483 0
M  V30 4489 H 412.898 3.83496 2.68419 0
M  V30 4490 H 413.071 5.44965 3.50596 0
M  V30 4491 N 406.477 -1.02803 1.19454 0
M  V30 4492 C 407.726 -1.7562 0.991996 0
M  V30 4493 C 408.039 -1.89672 -0.477901 0
M  V30 4494 O 409.245 -2.59468 -0.799287 0
M  V30 4495 C 407.701 -3.15812 1.72601 0
M  V30 4496 C 407.309 -3.0981 3.23607 0
M  V30 4497 C 409.053 -3.92918 1.60674 0
M  V30 4498 C 406.96 -4.44939 3.89594 0
M  V30 4499 H 405.89 -0.658352 0.367543 0
M  V30 4500 H 408.541 -1.15044 1.42959 0
M  V30 4501 H 406.923 -3.7686 1.21624 0
M  V30 4502 H 408.097 -2.58138 3.81709 0
M  V30 4503 H 406.412 -2.46201 3.35819 0
M  V30 4504 H 409.009 -4.9287 2.07323 0
M  V30 4505 H 409.352 -4.12502 0.561025 0
M  V30 4506 H 409.885 -3.38472 2.09001 0
M  V30 4507 H 406.624 -4.30559 4.94267 0
M  V30 4508 H 406.144 -4.96664 3.36281 0
M  V30 4509 H 407.823 -5.1382 3.93189 0
M  V30 4510 N 407.956 -0.998596 -1.21925 0
M  V30 4511 C 409.181 -0.696015 -1.95372 0
M  V30 4512 C 409.606 0.733826 -1.73195 0
M  V30 4513 O 408.964 1.50242 -1.01474 0
M  V30 4514 C 409.012 -1.01466 -3.4603 0
M  V30 4515 O 408.116 -0.116415 -4.12236 0
M  V30 4516 H 407.457 -0.259938 -0.611006 0
M  V30 4517 H 409.987 -1.33711 -1.54863 0
M  V30 4518 H 409.997 -0.958855 -3.96573 0
M  V30 4519 H 408.672 -2.05653 -3.61497 0
M  V30 4520 H 407.249 -0.228193 -3.72201 0
M  V30 4521 N 409.434 1.37368 -0.772513 0
M  V30 4522 C 410.682 1.99279 -0.336516 0
M  V30 4523 C 411.003 1.6163 1.09091 0
M  V30 4524 O 410.273 0.882109 1.74916 0
M  V30 4525 H 408.853 0.737063 -0.121435 0
M  V30 4526 H 411.515 1.67836 -0.990809 0
M  V30 4527 H 410.611 3.09332 -0.414763 0
M  V30 4528 N 410.912 0.523116 1.48665 0
M  V30 4529 C 411.859 -0.243398 2.29513 0
M  V30 4530 C 412.829 -0.940139 1.36933 0
M  V30 4531 O 414.014 -0.942503 1.65896 0
M  V30 4532 C 411.154 -1.28855 3.20141 0
M  V30 4533 C 410.267 -0.60135 4.27794 0
M  V30 4534 C 409.402 -1.62884 5.05611 0
M  V30 4535 C 408.441 -0.924726 6.05075 0
M  V30 4536 N 407.578 -1.89744 6.75975 0
M  V30 4537 H 412.418 0.452234 2.94549 0
M  V30 4538 H 409.955 0.234858 1.45213 0
M  V30 4539 H 411.913 -1.90674 3.71079 0
M  V30 4540 H 410.543 -1.95266 2.57043 0
M  V30 4541 H 409.595 0.130623 3.80176 0
M  V30 4542 H 410.907 -0.0481585 4.98777 0
M  V30 4543 H 410.061 -2.32149 5.60528 0
M  V30 4544 H 408.8 -2.21592 4.34452 0
M  V30 4545 H 407.805 -0.217966 5.49368 0
M  V30 4546 H 409.03 -0.343851 6.78229 0
M  V30 4547 H 406.976 -2.47373 6.07571 0
M  V30 4548 H 406.893 -1.3955 7.43009 0
M  V30 4549 H 408.161 -2.58229 7.35485 0
M  V30 4550 N 412.39 -1.55475 0.257931 0
M  V30 4551 C 413.323 -2.179 -0.677862 0
M  V30 4552 C 414.301 -1.13448 -1.16483 0
M  V30 4553 O 415.485 -1.41889 -1.24095 0
M  V30 4554 C 412.612 -2.78851 -1.92249 0
M  V30 4555 C 411.658 -3.96454 -1.57246 0
M  V30 4556 S 412.491 -5.31349 -0.665501 0
M  V30 4557 C 413.647 -5.9576 -1.91889 0
M  V30 4558 H 413.88 -2.96934 -0.147396 0
M  V30 4559 H 411.413 -1.54342 0.0423023 0
M  V30 4560 H 413.371 -3.14602 -2.63697 0
M  V30 4561 H 412.032 -1.99742 -2.42409 0
M  V30 4562 H 411.225 -4.37731 -2.49814 0
M  V30 4563 H 410.827 -3.62038 -0.938325 0
M  V30 4564 H 413.119 -6.13947 -2.86487 0
M  V30 4565 H 414.062 -6.9094 -1.54942 0
M  V30 4566 H 414.47 -5.2494 -2.076 0
M  V30 4567 N 413.868 0.0150385 -1.57593 0
M  V30 4568 C 414.831 0.995996 -2.06428 0
M  V30 4569 C 415.831 1.2818 -0.970903 0
M  V30 4570 O 417.021 1.22949 -1.23406 0
M  V30 4571 C 414.153 2.32506 -2.49307 0
M  V30 4572 H 415.346 0.573873 -2.94358 0
M  V30 4573 H 412.899 0.262186 -1.54085 0
M  V30 4574 H 413.634 2.79438 -1.64575 0
M  V30 4575 H 413.419 2.13087 -3.29145 0
M  V30 4576 H 414.909 3.02906 -2.87468 0
M  V30 4577 N 415.346 1.54954 0.287554 0
M  V30 4578 C 416.276 1.89839 1.35954 0
M  V30 4579 C 417.257 0.758675 1.52244 0
M  V30 4580 O 418.442 1.01557 1.65529 0
M  V30 4581 C 415.572 2.15753 2.72154 0
M  V30 4582 C 414.526 3.3159 2.70614 0
M  V30 4583 C 413.852 3.42952 4.10229 0
M  V30 4584 C 415.152 4.68359 2.31165 0
M  V30 4585 H 416.846 2.79625 1.07007 0
M  V30 4586 H 414.392 1.3454 0.513316 0
M  V30 4587 H 416.345 2.38743 3.47246 0
M  V30 4588 H 415.069 1.22752 3.02654 0
M  V30 4589 H 413.728 3.08545 1.97979 0
M  V30 4590 H 413.376 2.47443 4.37928 0
M  V30 4591 H 413.076 4.20826 4.10097 0
M  V30 4592 H 414.6 3.68218 4.87081 0
M  V30 4593 H 416.014 4.9099 2.95976 0
M  V30 4594 H 414.411 5.49044 2.42221 0
M  V30 4595 H 415.481 4.68165 1.26291 0
M  V30 4596 N 416.824 -0.551391 1.4764 0
M  V30 4597 C 417.772 -1.67896 1.60978 0
M  V30 4598 C 418.766 -1.62549 0.476877 0
M  V30 4599 O 419.972 -1.67664 0.654878 0
M  V30 4600 H 416.347 -0.555649 0.506713 0
M  V30 4601 H 418.318 -1.53784 2.55721 0
M  V30 4602 C 417.067 -3.06234 1.64669 0
M  V30 4603 H 416.39 -3.11033 2.51194 0
M  V30 4604 H 417.83 -3.84804 1.7805 0
M  V30 4605 C 416.289 -3.34737 0.381115 0
M  V30 4606 O 416.819 -3.98381 -0.515297 0
M  V30 4607 N 415.025 -2.8944 0.259354 0
M  V30 4608 H 414.572 -2.37827 0.98976 0
M  V30 4609 H 414.53 -3.08882 -0.586464 0
M  V30 4610 N 418.302 -1.35869 -0.798587 0
M  V30 4611 C 419.252 -1.25982 -1.90033 0
M  V30 4612 C 420.236 -0.153303 -1.60168 0
M  V30 4613 O 421.428 -0.38527 -1.72756 0
M  V30 4614 C 418.557 -1.04211 -3.27101 0
M  V30 4615 C 417.643 -2.19289 -3.63006 0
M  V30 4616 N 418.034 -3.44559 -3.70287 0
M  V30 4617 C 416.332 -2.10852 -3.93011 0
M  V30 4618 C 417.033 -4.20283 -4.02166 0
M  V30 4619 N 416.009 -3.49124 -4.16669 0
M  V30 4620 H 419.811 -2.20883 -1.93876 0
M  V30 4621 H 417.325 -1.28457 -0.993614 0
M  V30 4622 H 419.322 -0.952155 -4.05881 0
M  V30 4623 H 417.982 -0.102013 -3.2454 0
M  V30 4624 H 418.993 -3.7881 -3.53162 0
M  V30 4625 H 415.67 -1.24744 -3.98428 0
M  V30 4626 H 417.06 -5.28575 -4.14799 0
M  V30 4627 N 419.78 1.02168 -1.19998 0
M  V30 4628 C 421.191 1.57135 -1.00825 0
M  V30 4629 C 421.542 1.91276 0.436818 0
M  V30 4630 O 420.667 1.71679 1.3174 0
M  V30 4631 C 421.262 2.85514 -1.82393 0
M  V30 4632 C 419.821 3.37027 -1.67601 0
M  V30 4633 C 418.968 2.10388 -1.80644 0
M  V30 4634 H 421.919 0.846106 -1.34264 0
M  V30 4635 H 421.94 3.56711 -1.32429 0
M  V30 4636 H 421.452 2.60634 -2.87561 0
M  V30 4637 H 419.553 3.66878 -0.650485 0
M  V30 4638 H 419.666 4.09572 -2.4857 0
M  V30 4639 H 418.03 2.22601 -1.23778 0
M  V30 4640 H 418.813 1.8794 -2.87286 0
M  V30 4641 N 421.258 1.00505 1.21394 0
M  V30 4642 C 422.488 0.705584 1.94178 0
M  V30 4643 C 422.896 -0.735846 1.74304 0
M  V30 4644 O 422.239 -1.50954 1.04683 0
M  V30 4645 C 422.301 0.94689 3.46806 0
M  V30 4646 C 421.965 2.37517 3.90429 0
M  V30 4647 C 422.962 3.35539 3.97127 0
M  V30 4648 C 420.647 2.71284 4.22742 0
M  V30 4649 C 422.641 4.65395 4.3553 0
M  V30 4650 C 420.328 4.01356 4.60822 0
M  V30 4651 C 421.326 4.98223 4.67186 0
M  V30 4652 O 421.014 6.25969 5.04399 0
M  V30 4653 H 420.746 0.259216 0.624326 0
M  V30 4654 H 423.3 1.34592 1.55159 0
M  V30 4655 H 421.53 0.249386 3.85895 0
M  V30 4656 H 423.219 0.640804 4.0081 0
M  V30 4657 H 423.985 3.10786 3.7234 0
M  V30 4658 H 419.864 1.96581 4.16985 0
M  V30 4659 H 423.408 5.41002 4.40412 0
M  V30 4660 H 419.305 4.25893 4.85063 0
M  V30 4661 H 420.073 6.30085 5.22431 0
M  V30 4662 N 422.737 -1.36956 0.779787 0
M  V30 4663 C 423.984 -1.99491 0.347766 0
M  V30 4664 C 424.312 -1.61898 -1.07793 0
M  V30 4665 O 423.567 -0.86071 -1.75756 0
M  V30 4666 C 423.866 -3.54585 0.447686 0
M  V30 4667 C 423.532 -4.1197 1.83279 0
M  V30 4668 C 422.194 -4.27356 2.2118 0
M  V30 4669 C 424.546 -4.43354 2.74019 0
M  V30 4670 C 421.874 -4.71432 3.4924 0
M  V30 4671 C 424.226 -4.88858 4.01497 0
M  V30 4672 C 422.89 -5.0245 4.39432 0
M  V30 4673 H 422.16 -0.729991 0.127257 0
M  V30 4674 H 424.807 -1.63599 0.995376 0
M  V30 4675 H 423.112 -3.90773 -0.283447 0
M  V30 4676 H 424.809 -4.00888 0.0945948 0
M  V30 4677 H 421.399 -4.00428 1.52825 0
M  V30 4678 H 425.583 -4.31045 2.45995 0
M  V30 4679 H 420.839 -4.80141 3.78516 0
M  V30 4680 H 425.013 -5.12108 4.71931 0
M  V30 4681 H 422.64 -5.36362 5.38721 0
M  V30 4682 N 424.215 -0.530993 -1.48385 0
M  V30 4683 C 425.163 0.244595 -2.3131 0
M  V30 4684 C 426.157 0.93451 -1.41291 0
M  V30 4685 O 427.363 0.85878 -1.58193 0
M  V30 4686 H 423.738 0.0977472 -0.74562 0
M  V30 4687 H 425.709 -0.474369 -2.94605 0
M  V30 4688 C 424.458 1.2779 -3.23365 0
M  V30 4689 H 423.781 0.756439 -3.92579 0
M  V30 4690 H 425.221 1.79198 -3.84271 0
M  V30 4691 C 423.68 2.31205 -2.45042 0
M  V30 4692 O 424.21 3.37661 -2.17596 0
M  V30 4693 N 422.416 2.04446 -2.0652 0
M  V30 4694 H 421.963 1.17891 -2.2904 0
M  V30 4695 H 421.921 2.73861 -1.54427 0
M  V30 4696 N 425.693 1.55336 -0.266172 0
M  V30 4697 C 426.97 1.91372 0.404486 0
M  V30 4698 C 427.35 1.18935 1.74407 0
M  V30 4699 O 426.698 0.3132 2.26343 0
M  V30 4700 C 426.908 3.44581 0.553593 0
M  V30 4701 C 428.256 4.16196 0.840618 0
M  V30 4702 O 429.28 3.50426 0.638739 0
M  V30 4703 O 428.139 5.32567 1.22618 0
M  V30 4704 H 425.233 0.797194 0.220025 0
M  V30 4705 H 427.779 1.66813 -0.311664 0
M  V30 4706 H 426.551 3.89357 -0.389498 0
M  V30 4707 H 426.174 3.75065 1.31955 0
M  V30 4708 N 427.171 -0.0066808 1.57599 0
M  V30 4709 C 428.101 -0.999296 2.11036 0
M  V30 4710 C 429.082 -1.36278 1.01795 0
M  V30 4711 O 430.267 -1.4477 1.29442 0
M  V30 4712 C 427.397 -2.29328 2.60818 0
M  V30 4713 C 426.351 -2.07159 3.74525 0
M  V30 4714 C 425.677 -3.42512 4.10596 0
M  V30 4715 C 426.977 -1.43959 5.02069 0
M  V30 4716 H 428.671 -0.554382 2.94223 0
M  V30 4717 H 426.217 -0.265221 1.41536 0
M  V30 4718 H 428.17 -2.99117 2.96828 0
M  V30 4719 H 426.894 -2.7592 1.74745 0
M  V30 4720 H 425.553 -1.39797 3.38899 0
M  V30 4721 H 425.201 -3.86795 3.21556 0
M  V30 4722 H 424.901 -3.28498 4.87199 0
M  V30 4723 H 426.425 -4.13628 4.4916 0
M  V30 4724 H 427.839 -2.03696 5.35893 0
M  V30 4725 H 426.236 -1.40452 5.83432 0
M  V30 4726 H 427.306 -0.407992 4.83181 0
M  V30 4727 N 428.649 -1.55105 -0.279332 0
M  V30 4728 C 429.926 -1.66119 -1.03267 0
M  V30 4729 C 430.306 -0.523525 -2.04505 0
M  V30 4730 O 429.654 0.477194 -2.23462 0
M  V30 4731 C 429.864 -3.05067 -1.69515 0
M  V30 4732 C 431.212 -3.62606 -2.20912 0
M  V30 4733 O 432.236 -3.07659 -1.79512 0
M  V30 4734 O 431.095 -4.58861 -2.96831 0
M  V30 4735 H 428.189 -0.674429 -0.478618 0
M  V30 4736 H 430.735 -1.67446 -0.275694 0
M  V30 4737 H 429.507 -3.79311 -0.9612 0
M  V30 4738 H 429.13 -3.07611 -2.51915 0
M  V30 4739 N 430.127 0.543554 -1.4793 0
M  V30 4740 C 431.075 1.67039 -1.61866 0
M  V30 4741 C 432.069 1.62294 -0.48549 0
M  V30 4742 O 433.275 1.67315 -0.66376 0
M  V30 4743 H 429.65 0.552954 -0.509652 0
M  V30 4744 H 431.621 1.52426 -2.56533 0
M  V30 4745 C 430.37 3.05357 -1.6629 0
M  V30 4746 H 429.693 3.09696 -2.5284 0
M  V30 4747 H 431.133 3.83855 -1.80088 0
M  V30 4748 C 429.592 3.34531 -0.398861 0
M  V30 4749 O 430.122 3.98649 0.494162 0
M  V30 4750 N 428.328 2.89299 -0.2747 0
M  V30 4751 H 427.875 2.37298 -1.00236 0
M  V30 4752 H 427.833 3.09188 0.570075 0
M  V30 4753 N 431.605 1.3629 0.791371 0
M  V30 4754 C 432.537 1.26321 1.91248 0
M  V30 4755 C 433.55 0.18313 1.61767 0
M  V30 4756 O 434.739 0.437682 1.73051 0
M  V30 4757 C 431.839 0.925901 3.26007 0
M  V30 4758 C 431.012 2.10746 3.83281 0
M  V30 4759 C 430.071 1.74352 4.96475 0
M  V30 4760 O 429.097 2.46416 5.13096 0
M  V30 4761 N 430.299 0.676058 5.7655 0
M  V30 4762 H 433.064 2.22915 2.00323 0
M  V30 4763 H 430.625 1.29659 0.969546 0
M  V30 4764 H 432.617 0.663636 3.99222 0
M  V30 4765 H 431.187 0.0491581 3.12561 0
M  V30 4766 H 430.407 2.53264 3.02077 0
M  V30 4767 H 431.695 2.8969 4.18279 0
M  V30 4768 H 431.093 0.0776467 5.65647 0
M  V30 4769 H 429.65 0.473612 6.50077 0
M  V30 4770 N 433.083 -1.0153 1.20538 0
M  V30 4771 C 434.332 -1.74558 1.01057 0
M  V30 4772 C 434.645 -1.90168 -0.457756 0
M  V30 4773 O 435.851 -2.60301 -0.771722 0
M  V30 4774 C 434.307 -3.13963 1.75941 0
M  V30 4775 C 433.915 -3.06361 3.26875 0
M  V30 4776 C 435.659 -3.91191 1.64832 0
M  V30 4777 C 433.566 -4.40782 3.94291 0
M  V30 4778 H 432.496 -0.654417 0.374505 0
M  V30 4779 H 435.147 -1.13521 1.44171 0
M  V30 4780 H 433.529 -3.75549 1.25614 0
M  V30 4781 H 434.703 -2.54074 3.84425 0
M  V30 4782 H 433.018 -2.42625 3.38411 0
M  V30 4783 H 435.615 -4.90644 2.12539 0
M  V30 4784 H 435.958 -4.11884 0.604745 0
M  V30 4785 H 436.491 -3.36236 2.12579 0
M  V30 4786 H 433.23 -4.25292 4.98805 0
M  V30 4787 H 432.75 -4.9307 3.41529 0
M  V30 4788 H 434.429 -5.09621 3.98617 0
M  V30 4789 N 434.561 -1.01147 -1.20859 0
M  V30 4790 C 435.508 -0.577354 -2.23462 0
M  V30 4791 C 436.478 0.399922 -1.61214 0
M  V30 4792 O 437.663 0.300515 -1.88419 0
M  V30 4793 C 434.803 0.083372 -3.44999 0
M  V30 4794 C 433.916 -0.937856 -4.21697 0
M  V30 4795 C 433.051 -0.248717 -5.30617 0
M  V30 4796 C 432.09 -1.25705 -5.99053 0
M  V30 4797 N 431.227 -0.594939 -6.99575 0
M  V30 4798 H 436.067 -1.45695 -2.59956 0
M  V30 4799 H 433.604 -0.729428 -1.27741 0
M  V30 4800 H 435.562 0.483535 -4.14388 0
M  V30 4801 H 434.192 0.926645 -3.09214 0
M  V30 4802 H 433.244 -1.45622 -3.51423 0
M  V30 4803 H 434.556 -1.70493 -4.68757 0
M  V30 4804 H 433.71 0.207215 -6.06346 0
M  V30 4805 H 432.449 0.55071 -4.84581 0
M  V30 4806 H 431.454 -1.72343 -5.2209 0
M  V30 4807 H 432.679 -2.05767 -6.47176 0
M  V30 4808 H 430.625 0.184713 -6.5574 0
M  V30 4809 H 430.542 -1.30017 -7.44736 0
M  V30 4810 H 431.81 -0.162427 -7.79331 0
M  V30 4811 N 436.039 1.36541 -0.78704 0
M  V30 4812 C 436.986 2.30082 -0.181901 0
M  V30 4813 C 437.956 1.5186 0.672896 0
M  V30 4814 O 439.141 1.80374 0.622072 0
M  V30 4815 C 436.281 3.3835 0.679197 0
M  V30 4816 C 435.394 4.31565 -0.193882 0
M  V30 4817 C 434.529 5.26915 0.673364 0
M  V30 4818 C 433.568 6.11769 -0.201315 0
M  V30 4819 N 432.705 6.99315 0.624777 0
M  V30 4820 H 437.545 2.81248 -0.985064 0
M  V30 4821 H 435.082 1.38437 -0.497342 0
M  V30 4822 H 437.04 3.99767 1.19341 0
M  V30 4823 H 435.67 2.8851 1.44781 0
M  V30 4824 H 434.722 3.71323 -0.826044 0
M  V30 4825 H 436.034 4.91191 -0.867937 0
M  V30 4826 H 435.188 5.9361 1.25348 0
M  V30 4827 H 433.927 4.67737 1.38105 0
M  V30 4828 H 432.932 5.44039 -0.793849 0
M  V30 4829 H 434.157 6.73022 -0.906568 0
M  V30 4830 H 432.103 6.42648 1.3168 0
M  V30 4831 H 432.02 7.56 0.00835237 0
M  V30 4832 H 433.288 7.70382 1.18879 0
M  V30 4833 N 437.518 0.538854 1.48102 0
M  V30 4834 C 438.451 -0.266495 2.26639 0
M  V30 4835 C 439.429 -0.93687 1.32897 0
M  V30 4836 O 440.613 -0.959507 1.62252 0
M  V30 4837 C 437.74 -1.37814 3.09394 0
M  V30 4838 C 436.786 -0.818247 4.18577 0
M  V30 4839 S 437.619 0.320848 5.34538 0
M  V30 4840 C 438.775 -0.793059 6.20855 0
M  V30 4841 H 439.008 0.399994 2.94597 0
M  V30 4842 H 436.541 0.324808 1.50945 0
M  V30 4843 H 438.499 -2.01488 3.57649 0
M  V30 4844 H 437.16 -2.01639 2.40833 0
M  V30 4845 H 436.353 -1.65247 4.7614 0
M  V30 4846 H 435.955 -0.258036 3.73109 0
M  V30 4847 H 438.247 -1.68961 6.56093 0
M  V30 4848 H 439.19 -0.255204 7.0764 0
M  V30 4849 H 439.598 -1.07746 5.54122 0
M  V30 4850 O 439.035 -1.56041 0.416352 0
M  V30 4851 H 439.726 -1.93313 -0.122438 0
M  V30 END ATOM
M  V30 BEGIN BOND
M  V30 END BOND
M  V30 END CTAB
M  END
$$$$
