drugbank_target|Q8IJA9 Adenosine deaminase (DB11638)
 OpenBabel12092121113D

  0  0  0     0  0            999 V3000
M  V30 BEGIN CTAB
M  V30 COUNTS 5956 6018 0 0 0
M  V30 BEGIN ATOM
M  V30 1 H -0.908 1.98254 -0.117106 0
M  V30 2 N 0 1.576 0 0
M  V30 3 C 0.933 2.03868 1.02534 0
M  V30 4 C 1.911 0.928543 1.3348 0
M  V30 5 O 3.095 1.19667 1.45644 0
M  V30 6 C 0.222 2.43627 2.35294 0
M  V30 7 C -0.732 3.65373 2.2001 0
M  V30 8 S 0.101 5.13292 1.52614 0
M  V30 9 C 1.257 5.56322 2.86805 0
M  V30 10 H 1.49 2.90518 0.631377 0
M  V30 11 H -0.977 1.52953 0.210867 0
M  V30 12 H 0.981 2.67203 3.11629 0
M  V30 13 H -0.358 1.57376 2.7183 0
M  V30 14 H -1.165 3.90944 3.18086 0
M  V30 15 H -1.563 3.418 1.51819 0
M  V30 16 H 0.729 5.58782 3.83104 0
M  V30 17 H 1.672 6.56266 2.65933 0
M  V30 18 H 2.08 4.83886 2.90714 0
M  V30 19 N 1.4781 -0.272755 1.55222 0
M  V30 20 C 2.4261 -1.35705 1.88909 0
M  V30 21 C 3.4201 -1.5112 0.765456 0
M  V30 22 O 4.6261 -1.52901 0.949802 0
M  V30 23 H 1.0011 -0.453868 0.59959 0
M  V30 24 H 2.9721 -1.04544 2.79487 0
M  V30 25 C 1.7211 -2.71049 2.17779 0
M  V30 26 H 1.0441 -2.59979 3.03728 0
M  V30 27 H 2.4841 -3.45858 2.45272 0
M  V30 28 C 0.9431 -3.22165 0.985473 0
M  V30 29 O 1.4731 -4.01096 0.220233 0
M  V30 30 N -0.3209 -2.7985 0.783108 0
M  V30 31 H -0.7739 -2.15775 1.40708 0
M  V30 32 H -0.8159 -3.14397 -0.0130392 0
M  V30 33 N 2.9562 -1.48159 -0.537278 0
M  V30 34 C 4.1962 -1.57397 -1.30405 0
M  V30 35 C 4.5602 -0.239202 -1.90504 0
M  V30 36 O 5.7612 -0.206528 -2.68005 0
M  V30 37 C 4.0322 -2.6754 -2.36974 0
M  V30 38 S 5.5912 -2.96496 -3.23475 0
M  V30 39 H 2.4092 -0.555577 -0.443684 0
M  V30 40 H 5.0112 -1.85644 -0.612912 0
M  V30 41 H 3.7152 -3.63092 -1.91291 0
M  V30 42 H 3.2462 -2.41172 -3.10805 0
M  V30 43 H 5.2612 -2.35234 -4.36897 0
M  V30 44 N 4.4343 0.785586 -1.36625 0
M  V30 45 C 5.3813 1.89838 -1.31264 0
M  V30 46 C 6.3513 1.65115 -0.180633 0
M  V30 47 O 7.5363 1.87222 -0.36777 0
M  V30 48 C 4.6763 3.26706 -1.11163 0
M  V30 49 C 3.7893 3.63476 -2.33472 0
M  V30 50 C 2.9243 4.89481 -2.06353 0
M  V30 51 C 1.9633 5.18941 -3.24602 0
M  V30 52 N 1.1003 6.36131 -2.97123 0
M  V30 53 H 5.9403 1.93756 -2.26413 0
M  V30 54 H 3.4773 0.947454 -1.12524 0
M  V30 55 H 5.4353 4.05639 -0.975337 0
M  V30 56 H 4.0653 3.222 -0.196674 0
M  V30 57 H 3.1173 2.79636 -2.57891 0
M  V30 58 H 4.4293 3.81193 -3.21704 0
M  V30 59 H 3.5833 5.76288 -1.89675 0
M  V30 60 H 2.3223 4.73841 -1.15437 0
M  V30 61 H 1.3273 4.30615 -3.41834 0
M  V30 62 H 2.5523 5.36498 -4.16349 0
M  V30 63 H 0.4983 6.21875 -2.08823 0
M  V30 64 H 0.4153 6.54198 -3.78894 0
M  V30 65 H 1.6833 7.2591 -2.84033 0
M  V30 66 N 5.9124 1.20967 1.01018 0
M  V30 67 C 6.8604 0.961223 2.1181 0
M  V30 68 C 7.8544 -0.0897034 1.69162 0
M  V30 69 O 9.0604 0.0612271 1.79896 0
M  V30 70 H 5.4354 0.29355 0.692338 0
M  V30 71 H 7.4064 1.90178 2.29946 0
M  V30 72 C 6.1554 0.536854 3.4353 0
M  V30 73 H 5.4784 1.33713 3.76777 0
M  V30 74 H 6.9184 0.402286 4.22087 0
M  V30 75 C 5.3774 -0.751574 3.2841 0
M  V30 76 O 5.9074 -1.80841 3.58691 0
M  V30 77 N 4.1134 -0.716079 2.81639 0
M  V30 78 H 3.6604 0.144236 2.57196 0
M  V30 79 H 3.6184 -1.57847 2.71904 0
M  V30 80 N 7.3905 -1.2043 1.01659 0
M  V30 81 C 8.3235 -2.21924 0.531521 0
M  V30 82 C 9.3015 -1.57054 -0.421032 0
M  V30 83 O 10.4855 -1.85389 -0.341035 0
M  V30 84 C 7.6125 -3.37942 -0.226496 0
M  V30 85 C 6.6585 -4.21115 0.67561 0
M  V30 86 S 7.4915 -4.90674 2.14475 0
M  V30 87 C 8.6475 -6.10113 1.3969 0
M  V30 88 H 8.8805 -2.62725 1.3915 0
M  V30 89 H 6.4135 -1.30481 0.825479 0
M  V30 90 H 8.3715 -4.05196 -0.657738 0
M  V30 91 H 7.0325 -2.956 -1.06205 0
M  V30 92 H 6.2255 -5.03918 0.091108 0
M  V30 93 H 5.8275 -3.59115 1.04463 0
M  V30 94 H 8.1195 -6.7411 0.676897 0
M  V30 95 H 9.0625 -6.73022 2.20107 0
M  V30 96 H 9.4705 -5.57283 0.899786 0
M  V30 97 N 8.8686 -0.792821 -1.36206 0
M  V30 98 C 10.1456 -0.290627 -1.93429 0
M  V30 99 C 10.5256 1.21773 -1.72437 0
M  V30 100 O 9.8736 2.0108 -1.08531 0
M  V30 101 C 10.0836 -0.686973 -3.42172 0
M  V30 102 C 11.4316 -0.668643 -4.19302 0
M  V30 103 O 12.4556 -0.627658 -3.50626 0
M  V30 104 O 11.3146 -0.714597 -5.41808 0
M  V30 105 H 8.4086 -0.0727927 -0.82379 0
M  V30 106 H 10.9546 -0.875593 -1.45367 0
M  V30 107 H 9.7266 -1.72711 -3.51122 0
M  V30 108 H 9.3496 -0.0760733 -3.97527 0
M  V30 109 N 10.3467 1.47872 -0.545128 0
M  V30 110 C 11.5747 2.06889 -0.021084 0
M  V30 111 C 11.9897 1.39955 1.2672 0
M  V30 112 O 11.3467 0.492036 1.75742 0
M  V30 113 C 11.3977 3.60996 0.190817 0
M  V30 114 O 11.1187 4.25419 -1.04644 0
M  V30 115 C 12.6197 4.36849 0.753521 0
M  V30 116 H 9.8397 0.669785 -0.0403635 0
M  V30 117 H 12.3837 1.90049 -0.755095 0
M  V30 118 H 10.5387 3.77391 0.87492 0
M  V30 119 H 10.9527 5.17785 -0.836611 0
M  V30 120 H 12.4267 5.45399 0.851139 0
M  V30 121 H 12.9037 4.02306 1.762 0
M  V30 122 H 13.5097 4.25169 0.105503 0
M  V30 123 N 11.8248 0.280983 1.55075 0
M  V30 124 C 13.0498 -0.340154 2.04592 0
M  V30 125 C 13.4748 -1.48246 1.15779 0
M  V30 126 O 12.8328 -1.80614 0.15761 0
M  V30 127 C 12.8808 -0.793104 3.5177 0
M  V30 128 O 11.9848 -1.89981 3.66034 0
M  V30 129 H 11.3258 -0.0694289 0.66036 0
M  V30 130 H 13.8558 0.416993 2.00306 0
M  V30 131 H 13.8658 -1.08729 3.93245 0
M  V30 132 H 12.5408 0.0426163 4.15878 0
M  V30 133 H 11.1178 -1.60771 3.36463 0
M  V30 134 N 13.3029 -1.57598 0.00835791 0
M  V30 135 C 14.5329 -1.94931 -0.684496 0
M  V30 136 C 14.9409 -0.882233 -1.67372 0
M  V30 137 O 14.2839 0.146621 -1.83114 0
M  V30 138 C 14.3459 -3.283 -1.4649 0
M  V30 139 C 14.0099 -4.52548 -0.63634 0
M  V30 140 C 15.0069 -5.19839 0.0795586 0
M  V30 141 C 12.6919 -4.98942 -0.579849 0
M  V30 142 C 14.6859 -6.3183 0.840843 0
M  V30 143 C 12.3729 -6.10819 0.185155 0
M  V30 144 C 13.3709 -6.77121 0.894227 0
M  V30 145 O 13.0589 -7.86853 1.64673 0
M  V30 146 H 12.7909 -0.647249 -0.19505 0
M  V30 147 H 15.3449 -2.05318 0.0581272 0
M  V30 148 H 13.5749 -3.14345 -2.2522 0
M  V30 149 H 15.2639 -3.50685 -2.04389 0
M  V30 150 H 16.0299 -4.84979 0.0451202 0
M  V30 151 H 11.9089 -4.47155 -1.1213 0
M  V30 152 H 15.4529 -6.83513 1.39483 0
M  V30 153 H 11.3499 -6.4512 0.221384 0
M  V30 154 H 12.1179 -8.03412 1.56432 0
M  V30 155 N 14.781 0.264519 -1.55364 0
M  V30 156 C 15.691 1.34902 -1.91934 0
M  V30 157 C 16.707 1.53595 -0.817593 0
M  V30 158 O 17.883 1.67558 -1.11742 0
M  V30 159 C 14.948 2.68676 -2.19121 0
M  V30 160 C 14.009 2.58657 -3.4263 0
M  V30 161 C 13.242 3.86051 -3.68511 0
M  V30 162 O 13.465 4.87126 -2.96757 0
M  V30 163 O 12.399 3.85744 -4.62045 0
M  V30 164 H 16.225 1.06883 -2.8427 0
M  V30 165 H 13.81 0.463775 -1.42019 0
M  V30 166 H 15.692 3.47759 -2.37995 0
M  V30 167 H 14.367 2.96463 -1.29966 0
M  V30 168 H 13.274 1.7792 -3.29082 0
M  V30 169 H 14.607 2.35818 -4.32031 0
M  V30 170 N 16.2591 1.48442 0.529413 0
M  V30 171 C 17.5081 1.55742 1.28169 0
M  V30 172 C 17.8211 0.236511 1.94165 0
M  V30 173 O 19.0271 0.187761 2.7085 0
M  V30 174 C 17.4831 2.74667 2.32564 0
M  V30 175 C 17.0911 4.13402 1.72636 0
M  V30 176 C 18.8351 2.9128 3.08798 0
M  V30 177 C 16.7421 5.23587 2.74975 0
M  V30 178 H 15.6721 0.579796 0.48203 0
M  V30 179 H 18.3231 1.74776 0.559056 0
M  V30 180 H 16.7051 2.49067 3.07866 0
M  V30 181 H 17.8791 4.49022 1.03519 0
M  V30 182 H 16.1941 4.0191 1.08892 0
M  V30 183 H 18.7911 3.70767 3.85274 0
M  V30 184 H 19.1341 2.00757 3.64695 0
M  V30 185 H 19.6671 3.16782 2.40611 0
M  V30 186 H 16.4061 6.16076 2.23897 0
M  V30 187 H 15.9261 4.92454 3.42417 0
M  V30 188 H 17.6051 5.51724 3.37949 0
M  V30 189 N 17.7372 -0.778329 1.37039 0
M  V30 190 C 18.9862 -1.53189 1.3121 0
M  V30 191 C 19.2992 -1.95328 -0.103095 0
M  V30 192 O 20.5052 -2.70012 -0.283826 0
M  V30 193 C 18.9612 -2.76591 2.30272 0
M  V30 194 C 18.5692 -2.41577 3.77286 0
M  V30 195 C 20.3132 -3.5455 2.33441 0
M  V30 196 C 18.2202 -3.61441 4.68096 0
M  V30 197 H 17.1502 -0.5751 0.487622 0
M  V30 198 H 19.8012 -0.853101 1.62464 0
M  V30 199 H 18.1832 -3.46326 1.92027 0
M  V30 200 H 19.3572 -1.79668 4.2433 0
M  V30 201 H 17.6722 -1.76806 3.76999 0
M  V30 202 H 20.2692 -4.43628 2.98493 0
M  V30 203 H 20.6122 -3.93936 1.34611 0
M  V30 204 H 21.1452 -2.91805 2.7036 0
M  V30 205 H 17.8842 -3.27142 5.6803 0
M  V30 206 H 17.4042 -4.22478 4.25761 0
M  V30 207 H 19.0832 -4.28335 4.8491 0
M  V30 208 N 19.2153 -1.21501 -1.00376 0
M  V30 209 C 20.1633 -0.972442 -2.11297 0
M  V30 210 C 21.1573 0.080731 -1.69208 0
M  V30 211 O 22.3633 -0.0707666 -1.79861 0
M  V30 212 H 18.7383 -0.297218 -0.690772 0
M  V30 213 H 20.7093 -1.91394 -2.28934 0
M  V30 214 C 19.4583 -0.555065 -3.43241 0
M  V30 215 H 18.7813 -1.35709 -3.76062 0
M  V30 216 H 20.2213 -0.424664 -4.21868 0
M  V30 217 C 18.6803 0.734147 -3.28804 0
M  V30 218 O 19.2103 1.78937 -3.59645 0
M  V30 219 N 17.4163 0.701133 -2.82015 0
M  V30 220 H 16.9633 -0.157874 -2.57116 0
M  V30 221 H 16.9213 1.56403 -2.72737 0
M  V30 222 N 20.6934 1.19889 -1.02296 0
M  V30 223 C 21.9234 1.93109 -0.734332 0
M  V30 224 C 22.3314 1.75377 0.709889 0
M  V30 225 O 21.6744 1.06912 1.49384 0
M  V30 226 C 21.7364 3.45362 -0.99827 0
M  V30 227 C 21.4004 3.8686 -2.43287 0
M  V30 228 C 22.3974 3.92102 -3.41397 0
M  V30 229 C 20.0824 4.18668 -2.77529 0
M  V30 230 C 22.0764 4.28573 -4.71809 0
M  V30 231 C 19.7634 4.54813 -4.08153 0
M  V30 232 C 20.7614 4.59739 -5.05103 0
M  V30 233 O 20.4494 4.95051 -6.33388 0
M  V30 234 H 20.1814 0.620409 -0.268456 0
M  V30 235 H 22.7354 1.53144 -1.3688 0
M  V30 236 H 20.9654 3.85482 -0.306645 0
M  V30 237 H 22.6544 3.99814 -0.700234 0
M  V30 238 H 23.4204 3.67685 -3.1628 0
M  V30 239 H 19.2994 4.14021 -2.0275 0
M  V30 240 H 22.8434 4.32333 -5.4748 0
M  V30 241 H 18.7404 4.78687 -4.33047 0
M  V30 242 H 19.5084 5.1302 -6.37772 0
M  V30 243 N 22.1715 0.800033 1.35784 0
M  V30 244 C 23.1015 0.220184 2.3246 0
M  V30 245 C 24.0825 -0.65073 1.57161 0
M  V30 246 O 25.2675 -0.582359 1.85263 0
M  V30 247 C 22.3975 -0.637353 3.41402 0
M  V30 248 C 21.3515 0.134531 4.27789 0
M  V30 249 C 20.6775 -0.844285 5.27992 0
M  V30 250 C 21.9775 1.32979 5.05088 0
M  V30 251 H 23.6715 1.02787 2.81203 0
M  V30 252 H 21.2175 0.495717 1.35199 0
M  V30 253 H 23.1705 -1.05302 4.08031 0
M  V30 254 H 21.8945 -1.47785 2.91251 0
M  V30 255 H 20.5535 0.531296 3.6273 0
M  V30 256 H 20.2015 -1.68011 4.74111 0
M  V30 257 H 19.9015 -0.332184 5.8666 0
M  V30 258 H 21.4255 -1.2583 5.97494 0
M  V30 259 H 22.8395 0.98934 5.64699 0
M  V30 260 H 21.2365 1.77593 5.7322 0
M  V30 261 H 22.3065 2.11978 4.36111 0
M  V30 262 N 23.6496 -1.47581 0.552962 0
M  V30 263 C 24.8776 -2.06875 0.0320556 0
M  V30 264 C 25.2926 -1.40625 -1.25976 0
M  V30 265 O 24.6496 -0.501349 -1.75479 0
M  V30 266 C 24.7006 -3.61092 -0.17167 0
M  V30 267 O 24.4216 -4.24858 1.06899 0
M  V30 268 C 25.9226 -4.37242 -0.730344 0
M  V30 269 H 23.1426 -0.669561 0.043915 0
M  V30 270 H 25.6866 -1.89646 0.765163 0
M  V30 271 H 23.8416 -3.7785 -0.854894 0
M  V30 272 H 24.2556 -5.17334 0.864059 0
M  V30 273 H 25.7296 -5.45842 -0.822203 0
M  V30 274 H 26.2066 -4.03235 -1.74064 0
M  V30 275 H 26.8126 -4.25219 -0.0829543 0
M  V30 276 N 25.1277 -0.289203 -1.54924 0
M  V30 277 C 26.0747 0.592115 -2.23075 0
M  V30 278 C 27.0447 1.13881 -1.20915 0
M  V30 279 O 28.2297 1.18551 -1.495 0
M  V30 280 C 25.3697 1.76376 -2.96623 0
M  V30 281 C 24.4827 1.24959 -4.13533 0
M  V30 282 C 23.6177 2.38416 -4.74691 0
M  V30 283 C 22.6567 1.84072 -5.83767 0
M  V30 284 N 21.7937 2.91057 -6.38929 0
M  V30 285 H 26.6337 0.00432038 -2.98 0
M  V30 286 H 24.1707 -0.00963529 -1.47097 0
M  V30 287 H 26.1287 2.45268 -3.3749 0
M  V30 288 H 24.7587 2.32337 -2.24097 0
M  V30 289 H 23.8107 0.453307 -3.77689 0
M  V30 290 H 25.1227 0.811662 -4.92152 0
M  V30 291 H 24.2767 3.15276 -5.18349 0
M  V30 292 H 23.0157 2.8553 -3.95378 0
M  V30 293 H 22.0207 1.05697 -5.39545 0
M  V30 294 H 23.2457 1.37877 -6.64956 0
M  V30 295 H 21.1917 3.37526 -5.62505 0
M  V30 296 H 21.1087 2.51724 -7.12861 0
M  V30 297 H 22.3767 3.6785 -6.87246 0
M  V30 298 N 26.6058 1.57591 -0.0167156 0
M  V30 299 C 27.8828 1.82547 0.702564 0
M  V30 300 C 28.2628 0.898018 1.91047 0
M  V30 301 O 27.6108 -0.0493456 2.28447 0
M  V30 302 C 27.8208 3.31459 1.09251 0
M  V30 303 C 29.1688 3.97622 1.48937 0
M  V30 304 O 30.1928 3.35881 1.18584 0
M  V30 305 O 29.0518 5.06415 2.05442 0
M  V30 306 H 26.1458 0.752268 0.343544 0
M  V30 307 H 28.6918 1.69644 -0.0434495 0
M  V30 308 H 27.4638 3.9061 0.23227 0
M  V30 309 H 27.0868 3.49422 1.89709 0
M  V30 310 N 28.0839 -0.256276 1.55502 0
M  V30 311 C 28.9939 -1.33882 1.92647 0
M  V30 312 C 30.0099 -1.53159 0.825727 0
M  V30 313 O 31.1859 -1.66963 1.12629 0
M  V30 314 C 28.2509 -2.6751 2.20543 0
M  V30 315 C 27.3119 -2.56836 3.43997 0
M  V30 316 C 26.5449 -3.84092 3.70553 0
M  V30 317 O 26.7679 -4.85545 2.99336 0
M  V30 318 O 25.7019 -3.83288 4.64084 0
M  V30 319 H 29.5279 -1.05374 2.84833 0
M  V30 320 H 27.1129 -0.456237 1.42263 0
M  V30 321 H 28.9949 -3.46492 2.39835 0
M  V30 322 H 27.6699 -2.9577 1.31536 0
M  V30 323 H 26.5769 -1.76172 3.30021 0
M  V30 324 H 27.9099 -2.33523 4.33275 0
M  V30 325 N 29.562 -1.4872 -0.521534 0
M  V30 326 C 30.492 -1.66771 -1.63431 0
M  V30 327 C 31.473 -0.516499 -1.62069 0
M  V30 328 O 32.658 -0.750013 -1.79132 0
M  V30 329 C 29.788 -1.71515 -3.01993 0
M  V30 330 C 28.742 -2.86222 -3.18216 0
M  V30 331 C 28.068 -2.76061 -4.57924 0
M  V30 332 C 29.368 -4.27419 -3.00184 0
M  V30 333 H 31.062 -2.59932 -1.48579 0
M  V30 334 H 28.608 -1.25089 -0.713358 0
M  V30 335 H 30.561 -1.82731 -3.7972 0
M  V30 336 H 29.285 -0.749393 -3.17886 0
M  V30 337 H 27.944 -2.74575 -2.42908 0
M  V30 338 H 27.592 -1.77437 -4.70665 0
M  V30 339 H 27.292 -3.53037 -4.69722 0
M  V30 340 H 28.816 -2.89256 -5.37739 0
M  V30 341 H 30.23 -4.39855 -3.67697 0
M  V30 342 H 28.627 -5.05458 -3.2347 0
M  V30 343 H 29.697 -4.43293 -1.96518 0
M  V30 344 N 31.0401 0.771051 -1.3745 0
M  V30 345 C 32.3171 1.519 -1.23231 0
M  V30 346 C 32.6971 2.10383 0.173809 0
M  V30 347 O 32.0451 1.95583 1.18151 0
M  V30 348 C 32.2551 2.59933 -2.32886 0
M  V30 349 C 33.6031 3.27316 -2.70461 0
M  V30 350 O 34.6271 2.70228 -2.32068 0
M  V30 351 O 33.4861 4.30531 -3.36608 0
M  V30 352 H 30.5801 0.672803 -0.480901 0
M  V30 353 H 33.1261 0.807957 -1.49232 0
M  V30 354 H 31.8981 2.14842 -3.27045 0
M  V30 355 H 31.5211 3.38637 -2.08353 0
M  V30 356 N 32.5182 1.22032 0.997298 0
M  V30 357 C 33.7672 1.03637 1.73038 0
M  V30 358 C 34.0802 -0.429475 1.90827 0
M  V30 359 O 35.2862 -0.732995 2.61418 0
M  V30 360 C 33.7422 1.80582 3.11317 0
M  V30 361 C 33.3502 3.31387 3.01474 0
M  V30 362 C 35.0942 1.70621 3.88701 0
M  V30 363 C 33.0012 4.00791 4.3488 0
M  V30 364 H 31.9312 0.384179 0.648785 0
M  V30 365 H 34.5822 1.4584 1.11368 0
M  V30 366 H 32.9642 1.31175 3.73643 0
M  V30 367 H 34.1382 3.88155 2.4834 0
M  V30 368 H 32.4532 3.41976 2.37575 0
M  V30 369 H 35.0502 2.19799 4.87434 0
M  V30 370 H 35.3932 0.665823 4.10941 0
M  V30 371 H 35.9262 2.17547 3.33044 0
M  V30 372 H 32.6652 5.05064 4.1784 0
M  V30 373 H 32.1852 3.48811 4.87945 0
M  V30 374 H 33.8642 4.06139 5.03647 0
M  V30 375 N 33.9963 -1.19345 1.0293 0
M  V30 376 C 35.2733 -1.84811 0.640642 0
M  V30 377 C 35.6533 -1.91855 -0.88062 0
M  V30 378 O 35.0013 -1.43587 -1.7775 0
M  V30 379 C 35.2113 -3.23755 1.30321 0
M  V30 380 C 36.5593 -3.99912 1.42673 0
M  V30 381 O 37.5833 -3.33155 1.26041 0
M  V30 382 O 36.4423 -5.19494 1.6967 0
M  V30 383 H 33.5363 -0.796443 0.222726 0
M  V30 384 H 36.0823 -1.26831 1.12748 0
M  V30 385 H 34.8543 -3.13466 2.34211 0
M  V30 386 H 34.4773 -3.89381 0.804261 0
M  V30 387 N 35.4744 -0.807222 -1.35358 0
M  V30 388 C 36.4044 -0.232509 -2.3234 0
M  V30 389 C 37.3854 0.642386 -1.57504 0
M  V30 390 O 38.5704 0.572526 -1.85569 0
M  V30 391 C 35.7004 0.619238 -3.41735 0
M  V30 392 C 34.6544 -0.157215 -4.27711 0
M  V30 393 C 33.9804 0.816273 -5.28433 0
M  V30 394 C 35.2804 -1.35656 -5.04376 0
M  V30 395 H 36.9744 -1.04276 -2.80654 0
M  V30 396 H 34.5204 -0.50288 -1.34934 0
M  V30 397 H 36.4734 1.03137 -4.08584 0
M  V30 398 H 35.1974 1.46239 -2.92031 0
M  V30 399 H 33.8564 -0.550525 -3.62443 0
M  V30 400 H 33.5044 1.65494 -4.74996 0
M  V30 401 H 33.2044 0.301067 -5.86828 0
M  V30 402 H 34.7284 1.22659 -5.98153 0
M  V30 403 H 36.1424 -1.01927 -5.64166 0
M  V30 404 H 34.5394 -1.8063 -5.7227 0
M  V30 405 H 35.6094 -2.14288 -4.34981 0
M  V30 406 N 36.9525 1.47285 -0.560781 0
M  V30 407 C 38.1775 2.07359 -0.0410566 0
M  V30 408 C 38.6025 1.41017 1.24483 0
M  V30 409 O 37.9605 0.486368 1.74654 0
M  V30 410 C 38.0085 3.6035 0.134123 0
M  V30 411 O 37.1125 3.94681 1.19587 0
M  V30 412 H 36.4535 0.661887 -0.0529291 0
M  V30 413 H 38.9835 1.89252 -0.777482 0
M  V30 414 H 38.9935 4.0652 0.347207 0
M  V30 415 H 37.6685 4.08034 -0.805047 0
M  V30 416 H 36.2455 3.60251 0.962987 0
M  V30 417 N 38.4306 0.297415 1.54768 0
M  V30 418 C 39.6706 -0.313829 2.01976 0
M  V30 419 C 40.0346 -1.51366 1.1812 0
M  V30 420 O 41.2356 -2.19603 1.5501 0
M  V30 421 C 39.5066 -0.664964 3.51159 0
M  V30 422 S 41.0656 -1.25958 4.20333 0
M  V30 423 H 37.8836 -0.0965014 0.704421 0
M  V30 424 H 40.4856 0.424451 1.90837 0
M  V30 425 H 39.1896 0.21681 4.09827 0
M  V30 426 H 38.7206 -1.43413 3.66328 0
M  V30 427 H 40.7356 -2.54751 4.25813 0
M  V30 428 N 39.9087 -1.5758 0.0250728 0
M  V30 429 C 40.8417 -2.05473 -0.992777 0
M  V30 430 C 41.8197 -0.949661 -1.31986 0
M  V30 431 O 43.0037 -1.21969 -1.43722 0
M  V30 432 C 40.1307 -2.4734 -2.31389 0
M  V30 433 C 39.1767 -3.68827 -2.1417 0
M  V30 434 S 40.0097 -5.15655 -1.44429 0
M  V30 435 C 41.1657 -5.60814 -2.77918 0
M  V30 436 H 41.3987 -2.91486 -0.585078 0
M  V30 437 H 38.9317 -1.53269 -0.186507 0
M  V30 438 H 40.8897 -2.72127 -3.07339 0
M  V30 439 H 39.5507 -1.6168 -2.69292 0
M  V30 440 H 38.7437 -3.95955 -3.11826 0
M  V30 441 H 38.3457 -3.44172 -1.46362 0
M  V30 442 H 40.6377 -5.64806 -3.74166 0
M  V30 443 H 41.5807 -6.60414 -2.55459 0
M  V30 444 H 41.9887 -4.8845 -2.82979 0
M  V30 445 N 41.3868 0.248026 -1.55636 0
M  V30 446 C 42.6638 0.998988 -1.68165 0
M  V30 447 C 43.0438 2.03409 -0.564621 0
M  V30 448 O 42.3918 2.24378 0.432076 0
M  V30 449 C 42.6018 1.63334 -3.0842 0
M  V30 450 C 43.9498 2.13562 -3.66983 0
M  V30 451 O 44.9738 1.73277 -3.11213 0
M  V30 452 O 43.8328 2.87526 -4.64749 0
M  V30 453 H 40.9268 0.464933 -0.683935 0
M  V30 454 H 43.4728 0.241902 -1.67967 0
M  V30 455 H 42.2448 0.884583 -3.8117 0
M  V30 456 H 41.8678 2.45666 -3.12624 0
M  V30 457 N 42.8649 1.48995 0.513639 0
M  V30 458 C 43.8119 1.6473 1.61656 0
M  V30 459 C 44.7819 0.488984 1.58739 0
M  V30 460 O 45.9669 0.714478 1.76918 0
M  V30 461 C 43.1069 1.7082 2.99858 0
M  V30 462 C 42.2199 2.9787 3.12885 0
M  V30 463 C 41.3549 2.95017 4.41744 0
M  V30 464 C 40.3939 4.16702 4.48359 0
M  V30 465 N 39.5309 4.11832 5.68629 0
M  V30 466 H 44.3709 2.58909 1.47547 0
M  V30 467 H 41.9079 1.28382 0.71808 0
M  V30 468 H 43.8659 1.72331 3.79944 0
M  V30 469 H 42.4959 0.801181 3.12699 0
M  V30 470 H 41.5479 3.06029 2.25944 0
M  V30 471 H 42.8599 3.8786 3.13633 0
M  V30 472 H 42.0139 2.95021 5.30139 0
M  V30 473 H 40.7529 2.02784 4.43542 0
M  V30 474 H 39.7579 4.16955 3.58369 0
M  V30 475 H 40.9829 5.10113 4.48287 0
M  V30 476 H 38.9289 3.22428 5.71293 0
M  V30 477 H 38.8459 4.95543 5.7094 0
M  V30 478 H 40.1139 4.1592 6.59266 0
M  V30 479 N 44.343 -0.763751 1.37857 0
M  V30 480 C 45.29 -1.87726 1.34267 0
M  V30 481 C 46.26 -1.64807 0.206879 0
M  V30 482 O 47.445 -1.86613 0.397508 0
M  V30 483 C 44.585 -3.24896 1.16346 0
M  V30 484 C 43.698 -3.59716 2.39225 0
M  V30 485 C 42.833 -4.86137 2.14114 0
M  V30 486 C 41.872 -5.13711 3.32817 0
M  V30 487 N 41.009 -6.31323 3.07206 0
M  V30 488 H 45.849 -1.90129 2.29466 0
M  V30 489 H 43.386 -0.929433 1.14017 0
M  V30 490 H 45.344 -4.04036 1.03975 0
M  V30 491 H 43.974 -3.21847 0.247909 0
M  V30 492 H 43.026 -2.75498 2.62307 0
M  V30 493 H 44.338 -3.76027 3.27728 0
M  V30 494 H 43.492 -5.73198 1.9882 0
M  V30 495 H 42.231 -4.71945 1.22961 0
M  V30 496 H 41.236 -4.25123 3.48641 0
M  V30 497 H 42.461 -5.29807 4.24832 0
M  V30 498 H 40.407 -6.18474 2.1869 0
M  V30 499 H 40.324 -6.48087 3.89254 0
M  V30 500 H 41.592 -7.213 2.95546 0
M  V30 501 N 45.8211 -1.22559 -0.990812 0
M  V30 502 C 46.7311 -1.01394 -2.11557 0
M  V30 503 C 47.7471 0.0383962 -1.73958 0
M  V30 504 O 48.9231 -0.154787 -2.00804 0
M  V30 505 C 45.9881 -0.596569 -3.41529 0
M  V30 506 C 45.0491 -1.72276 -3.93217 0
M  V30 507 C 44.2821 -1.32521 -5.16985 0
M  V30 508 O 44.5051 -0.204909 -5.70032 0
M  V30 509 O 43.4391 -2.14247 -5.62478 0
M  V30 510 H 47.2651 -1.95633 -2.32296 0
M  V30 511 H 44.8501 -1.01172 -1.0993 0
M  V30 512 H 46.7321 -0.374263 -4.19735 0
M  V30 513 H 45.4071 0.316939 -3.22145 0
M  V30 514 H 44.3141 -1.99961 -3.16174 0
M  V30 515 H 45.6471 -2.61421 -4.17037 0
M  V30 516 N 47.2992 1.18797 -1.03562 0
M  V30 517 C 48.7152 1.40671 -0.753917 0
M  V30 518 C 48.9152 1.9043 0.658686 0
M  V30 519 O 47.9712 2.08538 1.42366 0
M  V30 520 C 49.2842 2.41192 -1.79574 0
M  V30 521 C 50.8322 2.54928 -1.81606 0
M  V30 522 C 51.3072 3.58709 -2.84766 0
M  V30 523 N 52.7982 3.66212 -2.83625 0
M  V30 524 C 53.5332 4.46225 -3.60098 0
M  V30 525 N 53.0292 5.29888 -4.46308 0
M  V30 526 N 54.8222 4.40939 -3.4861 0
M  V30 527 H 46.9732 0.848221 -1.94728 0
M  V30 528 H 49.2362 0.435081 -0.842264 0
M  V30 529 H 48.9422 2.11669 -2.80872 0
M  V30 530 H 48.8162 3.40467 -1.62365 0
M  V30 531 H 51.2032 2.83771 -0.809817 0
M  V30 532 H 51.2842 1.55784 -2.02891 0
M  V30 533 H 50.9282 3.30607 -3.85566 0
M  V30 534 H 50.8582 4.57519 -2.60737 0
M  V30 535 H 53.3492 3.06466 -2.21105 0
M  V30 536 H 53.6622 5.88078 -5.01382 0
M  V30 537 H 52.0072 5.29326 -4.50377 0
M  V30 538 H 55.1982 3.74624 -2.80668 0
M  V30 539 H 55.3712 5.03056 -4.08459 0
M  V30 540 N 48.7773 0.814389 1.34928 0
M  V30 541 C 50.0073 0.41054 2.0248 0
M  V30 542 C 50.4153 -0.985625 1.61499 0
M  V30 543 O 49.7583 -1.64781 0.811976 0
M  V30 544 C 49.8203 0.423384 3.56998 0
M  V30 545 C 49.4843 1.77141 4.21272 0
M  V30 546 C 50.4813 2.73093 4.42398 0
M  V30 547 C 48.1663 2.05755 4.58225 0
M  V30 548 C 50.1603 3.95838 4.9959 0
M  V30 549 C 47.8473 3.28762 5.1513 0
M  V30 550 C 48.8453 4.23621 5.35755 0
M  V30 551 O 48.5333 5.44456 5.91458 0
M  V30 552 H 48.2653 0.163997 0.655806 0
M  V30 553 H 50.8193 1.10155 1.73364 0
M  V30 554 H 49.0493 -0.324276 3.85338 0
M  V30 555 H 50.7383 0.0407683 4.0588 0
M  V30 556 H 51.5043 2.5228 4.14222 0
M  V30 557 H 47.3833 1.32727 4.4148 0
M  V30 558 H 50.9273 4.69891 5.15605 0
M  V30 559 H 46.8243 3.49443 5.42734 0
M  V30 560 H 47.5923 5.4586 6.09901 0
M  V30 561 N 50.2554 -1.46986 0.568584 0
M  V30 562 C 51.2024 -2.30153 -0.172707 0
M  V30 563 C 52.1724 -1.39759 -0.897586 0
M  V30 564 O 53.3574 -1.68716 -0.891044 0
M  V30 565 C 50.4974 -3.23952 -1.1895 0
M  V30 566 C 49.6104 -4.29441 -0.469517 0
M  V30 567 C 48.7454 -5.1038 -1.47259 0
M  V30 568 C 47.7844 -6.07632 -0.738225 0
M  V30 569 N 46.9214 -6.8149 -1.68868 0
M  V30 570 H 51.7614 -2.93019 0.542596 0
M  V30 571 H 49.2984 -1.44422 0.279401 0
M  V30 572 H 51.2564 -3.76767 -1.79173 0
M  V30 573 H 49.8864 -2.62926 -1.87269 0
M  V30 574 H 48.9384 -3.79594 0.247467 0
M  V30 575 H 50.2504 -4.98689 0.105241 0
M  V30 576 H 49.4044 -5.67402 -2.14803 0
M  V30 577 H 48.1434 -4.4106 -2.08128 0
M  V30 578 H 47.1484 -5.49778 -0.0489293 0
M  V30 579 H 48.3734 -6.78966 -0.135129 0
M  V30 580 H 46.3194 -6.14891 -2.28573 0
M  V30 581 H 46.2364 -7.46948 -1.16636 0
M  V30 582 H 47.5044 -7.43078 -2.3549 0
M  V30 583 N 51.7335 -0.305618 -1.54608 0
M  V30 584 C 52.9825 0.303098 -1.9941 0
M  V30 585 C 53.2955 1.54648 -1.19764 0
M  V30 586 O 54.5015 2.23007 -1.54855 0
M  V30 587 C 52.9575 0.590588 -3.55021 0
M  V30 588 C 52.5655 -0.634719 -4.43481 0
M  V30 589 C 54.3095 1.16025 -4.08336 0
M  V30 590 C 52.2165 -0.320126 -5.90533 0
M  V30 591 H 51.1465 0.117031 -0.744862 0
M  V30 592 H 53.7975 -0.415045 -1.78745 0
M  V30 593 H 52.1795 1.36845 -3.71604 0
M  V30 594 H 53.3535 -1.41079 -4.38672 0
M  V30 595 H 51.6685 -1.12333 -4.00962 0
M  V30 596 H 54.2655 1.40994 -5.15776 0
M  V30 597 H 54.6085 2.10397 -3.5922 0
M  V30 598 H 55.1415 0.443985 -3.95315 0
M  V30 599 H 51.8805 -1.23254 -6.43808 0
M  V30 600 H 51.4005 0.418579 -5.98338 0
M  V30 601 H 53.0795 0.0766241 -6.46955 0
M  V30 602 N 53.2116 1.57565 -0.0334293 0
M  V30 603 C 54.4576 1.93088 0.639417 0
M  V30 604 C 54.8126 0.910589 1.69488 0
M  V30 605 O 54.1056 -0.0727725 1.91462 0
M  V30 606 C 54.2996 3.33112 1.29504 0
M  V30 607 C 54.1286 4.48667 0.304604 0
M  V30 608 C 52.8986 5.05207 -0.0970777 0
M  V30 609 C 55.0966 5.1239 -0.442845 0
M  V30 610 N 53.0786 6.04286 -1.08223 0
M  V30 611 C 54.4496 6.06609 -1.28161 0
M  V30 612 C 56.5046 4.95352 -0.50308 0
M  V30 613 C 55.2076 6.85622 -2.17519 0
M  V30 614 C 57.2336 5.74978 -1.38401 0
M  V30 615 C 56.5956 6.68816 -2.21054 0
M  V30 616 H 52.6946 0.754335 0.206161 0
M  V30 617 H 55.2786 1.94435 -0.101613 0
M  V30 618 H 53.4496 3.32576 2.00618 0
M  V30 619 H 55.1816 3.55972 1.92525 0
M  V30 620 H 51.9366 4.72782 0.278255 0
M  V30 621 H 52.3606 6.58516 -1.57117 0
M  V30 622 H 57.0026 4.22625 0.121694 0
M  V30 623 H 54.7206 7.57652 -2.81049 0
M  V30 624 H 58.3066 5.63826 -1.43496 0
M  V30 625 H 57.1866 7.29355 -2.88116 0
M  V30 626 N 54.6897 -0.239769 1.55765 0
M  V30 627 C 55.6367 -1.29696 1.90913 0
M  V30 628 C 56.6067 -1.47478 0.764164 0
M  V30 629 O 57.7917 -1.61345 1.01845 0
M  V30 630 C 54.9317 -2.64598 2.21544 0
M  V30 631 C 54.0447 -2.54765 3.48882 0
M  V30 632 C 53.1797 -3.82069 3.69049 0
M  V30 633 C 52.2187 -3.66883 4.89963 0
M  V30 634 N 51.3557 -4.86094 5.06614 0
M  V30 635 H 56.1957 -0.990224 2.81067 0
M  V30 636 H 53.7327 -0.477684 1.39128 0
M  V30 637 H 55.6907 -3.43132 2.3731 0
M  V30 638 H 54.3207 -2.93405 1.34585 0
M  V30 639 H 53.3727 -1.67763 3.41409 0
M  V30 640 H 54.6847 -2.39457 4.37563 0
M  V30 641 H 53.8387 -4.69046 3.84812 0
M  V30 642 H 52.5777 -4.00282 2.78614 0
M  V30 643 H 51.5827 -2.78289 4.74168 0
M  V30 644 H 52.8077 -3.50157 5.81865 0
M  V30 645 H 50.7537 -5.04655 4.19117 0
M  V30 646 H 50.6707 -4.73443 5.89396 0
M  V30 647 H 51.9387 -5.74549 5.26795 0
M  V30 648 N 56.1678 -1.49265 -0.50573 0
M  V30 649 C 57.5838 -1.35923 -0.836486 0
M  V30 650 C 57.7838 -0.388704 -1.97715 0
M  V30 651 O 56.8398 0.181336 -2.51848 0
M  V30 652 C 58.1528 -2.76531 -1.18115 0
M  V30 653 C 59.7008 -2.85197 -1.28964 0
M  V30 654 C 60.1758 -4.26561 -1.66761 0
M  V30 655 N 61.6668 -4.2935 -1.73819 0
M  V30 656 C 62.4018 -5.35693 -2.045 0
M  V30 657 N 61.8978 -6.52287 -2.33438 0
M  V30 658 N 63.6908 -5.23105 -2.05711 0
M  V30 659 H 55.8418 -2.10965 0.246519 0
M  V30 660 H 58.1048 -0.9468 0.0476887 0
M  V30 661 H 57.8108 -3.49226 -0.416398 0
M  V30 662 H 57.6848 -3.11599 -2.1257 0
M  V30 663 H 60.0718 -2.12742 -2.04511 0
M  V30 664 H 60.1528 -2.53718 -0.325704 0
M  V30 665 H 59.7968 -4.99541 -0.917656 0
M  V30 666 H 59.7268 -4.55502 -2.64246 0
M  V30 667 H 62.2178 -3.4526 -1.53635 0
M  V30 668 H 62.5308 -7.29158 -2.56024 0
M  V30 669 H 60.8758 -6.55521 -2.30905 0
M  V30 670 H 64.0668 -4.31026 -1.82577 0
M  V30 671 H 64.2398 -6.06078 -2.29289 0
M  V30 672 N 57.6459 0.756429 -1.3826 0
M  V30 673 C 58.5759 1.88374 -1.37976 0
M  V30 674 C 59.5569 1.68311 -0.246082 0
M  V30 675 O 60.7419 1.88944 -0.44874 0
M  V30 676 C 57.8719 3.25864 -1.20125 0
M  V30 677 C 56.8259 3.60523 -2.30666 0
M  V30 678 C 56.1519 4.9672 -1.97923 0
M  V30 679 C 57.4519 3.65692 -3.72916 0
M  V30 680 H 59.1459 1.88869 -2.32312 0
M  V30 681 H 56.6919 0.907272 -1.11824 0
M  V30 682 H 58.6449 4.0438 -1.18552 0
M  V30 683 H 57.3689 3.25841 -0.222498 0
M  V30 684 H 56.0279 2.84324 -2.3142 0
M  V30 685 H 55.6759 4.93253 -0.985393 0
M  V30 686 H 55.3759 5.20878 -2.71955 0
M  V30 687 H 56.8999 5.77618 -1.97964 0
M  V30 688 H 58.3139 4.34328 -3.74208 0
M  V30 689 H 56.7109 4.01358 -4.4613 0
M  V30 690 H 57.7809 2.65987 -4.05436 0
M  V30 691 N 59.124 1.23083 0.984299 0
M  V30 692 C 60.535 1.05609 1.5396 0
M  V30 693 C 60.886 -0.377793 1.92528 0
M  V30 694 O 60.011 -1.26398 1.75649 0
M  V30 695 C 60.606 1.91087 2.7977 0
M  V30 696 C 59.165 1.77885 3.31713 0
M  V30 697 C 58.312 1.87028 2.04733 0
M  V30 698 H 61.263 1.36802 0.804419 0
M  V30 699 H 61.284 1.43336 3.5247 0
M  V30 700 H 60.796 2.9544 2.51668 0
M  V30 701 H 58.897 0.762995 3.64704 0
M  V30 702 H 59.01 2.61047 4.01735 0
M  V30 703 H 57.374 1.30565 2.18689 0
M  V30 704 H 58.157 2.92929 1.79017 0
M  V30 705 N 60.6021 -1.18246 1.0419 0
M  V30 706 C 61.5491 -2.2192 0.634037 0
M  V30 707 C 62.5191 -1.62179 -0.358765 0
M  V30 708 O 63.7041 -1.89122 -0.252466 0
M  V30 709 C 60.8441 -3.451 0.00445535 0
M  V30 710 C 59.9571 -4.19174 1.04487 0
M  V30 711 C 59.0921 -5.29813 0.383676 0
M  V30 712 C 58.1311 -5.9566 1.4091 0
M  V30 713 N 57.2681 -6.97834 0.772784 0
M  V30 714 H 62.1081 -2.56164 1.52263 0
M  V30 715 H 59.6451 -1.25843 0.761701 0
M  V30 716 H 61.6031 -4.15485 -0.377919 0
M  V30 717 H 60.2331 -3.11472 -0.847652 0
M  V30 718 H 59.2851 -3.47604 1.54518 0
M  V30 719 H 60.5971 -4.64267 1.82368 0
M  V30 720 H 59.7511 -6.06677 -0.0528366 0
M  V30 721 H 58.4901 -4.85825 -0.427208 0
M  V30 722 H 57.4951 -5.17535 1.85574 0
M  V30 723 H 58.7201 -6.4173 2.22171 0
M  V30 724 H 56.6661 -6.55998 -0.0177708 0
M  V30 725 H 56.5831 -7.41186 1.48928 0
M  V30 726 H 57.8511 -7.78665 0.36071 0
M  V30 727 N 62.0802 -0.821533 -1.34494 0
M  V30 728 C 63.3202 -0.414785 -2.00147 0
M  V30 729 C 63.6842 1.00299 -1.6372 0
M  V30 730 O 64.8852 1.51255 -2.22206 0
M  V30 731 C 63.1562 -0.609403 -3.52166 0
M  V30 732 S 64.7152 -0.295297 -4.37805 0
M  V30 733 H 61.5332 -0.15679 -0.693497 0
M  V30 734 H 64.1352 -1.06705 -1.63812 0
M  V30 735 H 62.8392 -1.64096 -3.76166 0
M  V30 736 H 62.3702 0.0576414 -3.93358 0
M  V30 737 H 64.3852 0.891531 -4.88125 0
M  V30 738 N 63.5583 1.46682 -0.576371 0
M  V30 739 C 64.4683 2.34032 0.163141 0
M  V30 740 C 65.4843 1.49367 0.892501 0
M  V30 741 O 66.6603 1.82252 0.857106 0
M  V30 742 C 63.7253 3.26435 1.16795 0
M  V30 743 C 62.7863 4.26998 0.443944 0
M  V30 744 C 62.0193 5.14986 1.40088 0
M  V30 745 O 62.2423 5.05785 2.637 0
M  V30 746 O 61.1763 5.94906 0.914917 0
M  V30 747 H 65.0023 2.98607 -0.55388 0
M  V30 748 H 62.5873 1.45554 -0.336821 0
M  V30 749 H 64.4693 3.83459 1.74748 0
M  V30 750 H 63.1443 2.64465 1.86655 0
M  V30 751 H 62.0513 3.7368 -0.177271 0
M  V30 752 H 63.3843 4.91736 -0.213566 0
M  V30 753 N 65.0364 0.313813 1.54444 0
M  V30 754 C 65.9664 -0.549454 2.26943 0
M  V30 755 C 66.9474 -1.12741 1.27372 0
M  V30 756 O 68.1324 -1.15436 1.56167 0
M  V30 757 C 65.2624 -1.71523 3.01989 0
M  V30 758 C 64.2164 -1.26703 4.08816 0
M  V30 759 C 63.5424 -2.51898 4.71647 0
M  V30 760 C 64.8424 -0.388962 5.2085 0
M  V30 761 H 66.5364 0.0552661 2.99349 0
M  V30 762 H 64.0824 0.0280207 1.43973 0
M  V30 763 H 66.0354 -2.32535 3.51433 0
M  V30 764 H 64.7594 -2.34639 2.27183 0
M  V30 765 H 63.4184 -0.679896 3.6024 0
M  V30 766 H 63.0664 -3.13356 3.93468 0
M  V30 767 H 62.7664 -2.22605 5.43802 0
M  V30 768 H 64.2904 -3.1369 5.23861 0
M  V30 769 H 65.7044 -0.905107 5.6611 0
M  V30 770 H 64.1014 -0.18924 5.99802 0
M  V30 771 H 65.1714 0.582699 4.81386 0
M  V30 772 N 66.5145 -1.57545 0.0417849 0
M  V30 773 C 67.4645 -2.07483 -0.945247 0
M  V30 774 C 68.4485 -0.977983 -1.27767 0
M  V30 775 O 69.6405 -1.24142 -1.26166 0
M  V30 776 C 66.7695 -2.61576 -2.22335 0
M  V30 777 C 65.8555 -3.78213 -1.91874 0
M  V30 778 N 66.2465 -4.88344 -1.31733 0
M  V30 779 C 64.5445 -3.8694 -2.21796 0
M  V30 780 C 65.2455 -5.69462 -1.1869 0
M  V30 781 N 64.2215 -5.16771 -1.68666 0
M  V30 782 H 68.0235 -2.90029 -0.475441 0
M  V30 783 H 65.5375 -1.61581 -0.162911 0
M  V30 784 H 67.5345 -2.95651 -2.93932 0
M  V30 785 H 66.1945 -1.80465 -2.69931 0
M  V30 786 H 67.2055 -5.08335 -0.990729 0
M  V30 787 H 63.8825 -3.16757 -2.71977 0
M  V30 788 H 65.2725 -6.68023 -0.720793 0
M  V30 789 N 67.9926 0.231505 -1.5589 0
M  V30 790 C 69.2326 0.964533 -1.80211 0
M  V30 791 C 69.5966 1.81926 -0.613744 0
M  V30 792 O 70.7976 2.58526 -0.736045 0
M  V30 793 C 69.0686 1.78956 -3.09369 0
M  V30 794 S 70.6276 2.57959 -3.54969 0
M  V30 795 H 67.4456 0.324173 -0.632798 0
M  V30 796 H 70.0476 0.230985 -1.94131 0
M  V30 797 H 68.7516 1.15161 -3.93911 0
M  V30 798 H 68.2826 2.56559 -2.9823 0
M  V30 799 H 70.2976 3.81309 -3.17519 0
M  V30 800 N 69.4707 1.49531 0.497807 0
M  V30 801 C 70.4207 1.62829 1.59596 0
M  V30 802 C 71.4047 0.483824 1.53453 0
M  V30 803 O 72.5967 0.736937 1.60929 0
M  V30 804 C 69.7257 1.7011 2.98191 0
M  V30 805 C 68.8117 2.90144 3.09317 0
M  V30 806 N 69.2027 4.1418 2.90324 0
M  V30 807 C 67.5007 2.88148 3.40422 0
M  V30 808 C 68.2017 4.94886 3.05717 0
M  V30 809 N 67.1777 4.28314 3.34736 0
M  V30 810 H 70.9797 2.56446 1.4357 0
M  V30 811 H 68.4937 1.46347 0.704001 0
M  V30 812 H 70.4907 1.77735 3.77115 0
M  V30 813 H 69.1507 0.776315 3.15283 0
M  V30 814 H 70.1617 4.44109 2.66436 0
M  V30 815 H 66.8387 2.05061 3.63671 0
M  V30 816 H 68.2287 6.03432 2.95499 0
M  V30 817 N 70.9488 -0.749086 1.3866 0
M  V30 818 C 71.8788 -1.8764 1.38973 0
M  V30 819 C 72.8598 -1.68178 0.255004 0
M  V30 820 O 74.0448 -1.88704 0.458754 0
M  V30 821 C 71.1748 -3.25222 1.21851 0
M  V30 822 C 70.1288 -3.59295 2.32575 0
M  V30 823 C 69.4548 -4.95663 2.00555 0
M  V30 824 C 70.7548 -3.63709 3.7485 0
M  V30 825 H 72.4488 -1.87635 2.3331 0
M  V30 826 H 69.9948 -0.901329 1.12303 0
M  V30 827 H 71.9478 -4.03746 1.20695 0
M  V30 828 H 70.6718 -3.25719 0.239775 0
M  V30 829 H 69.3308 -2.83093 2.32925 0
M  V30 830 H 68.9788 -4.92724 1.01154 0
M  V30 831 H 68.6788 -5.19429 2.74714 0
M  V30 832 H 70.2028 -5.7656 2.01024 0
M  V30 833 H 71.6168 -4.32338 3.76506 0
M  V30 834 H 70.0138 -3.98986 4.48252 0
M  V30 835 H 71.0838 -2.63834 4.06841 0
M  V30 836 N 72.4269 -1.23603 -0.977757 0
M  V30 837 C 73.7039 -0.977897 -1.69401 0
M  V30 838 C 74.0839 0.502738 -2.05026 0
M  V30 839 O 73.4319 1.47459 -1.74551 0
M  V30 840 C 73.6419 -1.89077 -2.93345 0
M  V30 841 C 74.9899 -2.15579 -3.65802 0
M  V30 842 O 76.0139 -1.86648 -3.03383 0
M  V30 843 O 74.8729 -2.64658 -4.78141 0
M  V30 844 H 71.9669 -0.369025 -0.740101 0
M  V30 845 H 74.5129 -1.34657 -1.03274 0
M  V30 846 H 73.2849 -2.89158 -2.63634 0
M  V30 847 H 72.9079 -1.52463 -3.67207 0
M  V30 848 N 73.905 1.17692 -1.04816 0
M  V30 849 C 75.151 1.88137 -0.75711 0
M  V30 850 C 75.484 1.80604 0.713841 0
M  V30 851 O 74.759 1.21146 1.52164 0
M  V30 852 C 75.042 3.38318 -1.2334 0
M  V30 853 C 74.895 3.54622 -2.76701 0
M  V30 854 C 76.214 4.32214 -0.829415 0
M  V30 855 H 73.333 0.683163 -0.27651 0
M  V30 856 H 75.975 1.38424 -1.30149 0
M  V30 857 H 74.125 3.80787 -0.770286 0
M  V30 858 H 75.797 3.21194 -3.31107 0
M  V30 859 H 74.04 2.97026 -3.16161 0
M  V30 860 H 74.711 4.60028 -3.05088 0
M  V30 861 H 77.187 3.97565 -1.22805 0
M  V30 862 H 76.063 5.35838 -1.19033 0
M  V30 863 H 76.324 4.41294 0.266891 0
M  V30 864 N 75.3831 0.828654 1.34056 0
M  V30 865 C 76.6231 0.425394 1.99924 0
M  V30 866 C 76.9871 -0.994294 1.64249 0
M  V30 867 O 78.1881 -1.50074 2.23005 0
M  V30 868 C 76.4591 0.628071 3.51838 0
M  V30 869 S 78.0181 0.318511 4.37642 0
M  V30 870 H 74.8361 0.160465 0.692656 0
M  V30 871 H 77.4381 1.07572 1.63244 0
M  V30 872 H 76.1421 1.66089 3.7529 0
M  V30 873 H 75.6731 -0.0367799 3.93383 0
M  V30 874 H 77.6881 -0.865632 4.88591 0
M  V30 875 N 76.8612 -1.46375 0.584142 0
M  V30 876 C 78.1082 -2.02378 0.0702675 0
M  V30 877 C 78.4362 -1.45545 -1.29023 0
M  V30 878 O 77.6912 -0.610967 -1.85918 0
M  V30 879 C 77.9902 -3.57373 -0.0439342 0
M  V30 880 C 77.6562 -4.33252 1.24915 0
M  V30 881 C 76.3182 -4.53701 1.60341 0
M  V30 882 C 78.6702 -4.7681 2.1048 0
M  V30 883 C 75.9982 -5.1496 2.81128 0
M  V30 884 C 78.3502 -5.39404 3.30494 0
M  V30 885 C 77.0142 -5.5808 3.66201 0
M  V30 886 H 76.2842 -0.740554 0.0257127 0
M  V30 887 H 78.9312 -1.75727 0.761065 0
M  V30 888 H 77.2362 -3.83169 -0.817869 0
M  V30 889 H 78.9332 -3.98384 -0.457318 0
M  V30 890 H 75.5232 -4.17633 0.963364 0
M  V30 891 H 79.7072 -4.60766 1.84414 0
M  V30 892 H 74.9632 -5.27611 3.08928 0
M  V30 893 H 79.1372 -5.72114 3.97063 0
M  V30 894 H 76.7642 -6.05318 4.59885 0
M  V30 895 N 78.3393 -0.321999 -1.54275 0
M  V30 896 C 79.5643 0.285791 -2.05422 0
M  V30 897 C 79.9893 1.45124 -1.19669 0
M  V30 898 O 79.3473 1.80132 -0.205441 0
M  V30 899 C 79.3953 0.69956 -3.53749 0
M  V30 900 O 78.4993 1.8021 -3.70942 0
M  V30 901 H 77.8403 0.0518962 -0.661969 0
M  V30 902 H 80.3703 -0.469954 -1.9913 0
M  V30 903 H 80.3803 0.982649 -3.9599 0
M  V30 904 H 79.0553 -0.152864 -4.15619 0
M  V30 905 H 77.6323 1.51794 -3.40607 0
M  V30 906 N 79.8174 1.5752 -0.0501392 0
M  V30 907 C 81.0634 1.92936 0.624798 0
M  V30 908 C 81.3964 0.928685 1.70555 0
M  V30 909 O 80.6714 -0.0454779 1.94447 0
M  V30 910 C 80.9544 3.38737 1.22185 0
M  V30 911 C 80.8074 4.49552 0.149218 0
M  V30 912 C 82.1264 3.84913 2.13378 0
M  V30 913 H 79.2454 0.701604 0.225657 0
M  V30 914 H 81.8874 1.89671 -0.111693 0
M  V30 915 H 80.0374 3.4165 1.84953 0
M  V30 916 H 81.7094 4.58768 -0.482648 0
M  V30 917 H 79.9524 4.30638 -0.522841 0
M  V30 918 H 80.6234 5.48653 0.606966 0
M  V30 919 H 83.0994 3.8387 1.60572 0
M  V30 920 H 81.9754 4.87584 2.52097 0
M  V30 921 H 82.2364 3.21611 3.03346 0
M  V30 922 N 81.2955 -0.223234 1.56011 0
M  V30 923 C 82.5725 -0.972108 1.69733 0
M  V30 924 C 82.9525 -2.02485 0.59691 0
M  V30 925 O 82.3005 -2.25037 -0.396324 0
M  V30 926 C 82.5105 -1.58407 3.10979 0
M  V30 927 C 83.8585 -2.07696 3.70334 0
M  V30 928 O 84.8825 -1.68304 3.1393 0
M  V30 929 O 83.7415 -2.80096 4.69264 0
M  V30 930 H 80.8355 -0.453993 0.691245 0
M  V30 931 H 83.3815 -0.215149 1.68331 0
M  V30 932 H 82.1535 -0.823831 3.82529 0
M  V30 933 H 81.7765 -2.40661 3.16493 0
M  V30 934 N 82.7736 -1.49793 -0.48987 0
M  V30 935 C 84.0206 -1.59841 -1.24327 0
M  V30 936 C 84.3486 -0.290135 -1.92324 0
M  V30 937 O 83.6036 0.722749 -1.81865 0
M  V30 938 C 83.9026 -2.71488 -2.32441 0
M  V30 939 C 83.5686 -4.12614 -1.81826 0
M  V30 940 C 82.2306 -4.51017 -1.67742 0
M  V30 941 C 84.5826 -5.00892 -1.4407 0
M  V30 942 C 81.9106 -5.75459 -1.14297 0
M  V30 943 C 84.2626 -6.25863 -0.920742 0
M  V30 944 C 82.9266 -6.63086 -0.766383 0
M  V30 945 H 82.1966 -0.584899 -0.454944 0
M  V30 946 H 84.8436 -1.83663 -0.542215 0
M  V30 947 H 83.1486 -2.4168 -3.0838 0
M  V30 948 H 84.8456 -2.76469 -2.90458 0
M  V30 949 H 81.4356 -3.82307 -1.93751 0
M  V30 950 H 85.6196 -4.7187 -1.53794 0
M  V30 951 H 80.8756 -6.02989 -1.01068 0
M  V30 952 H 85.0496 -6.9364 -0.619448 0
M  V30 953 H 82.6766 -7.59393 -0.350083 0
M  V30 954 N 84.2517 0.741722 -1.39055 0
M  V30 955 C 85.4987 1.50114 -1.35912 0
M  V30 956 C 85.8267 1.94443 0.0470937 0
M  V30 957 O 85.0817 1.66612 1.02659 0
M  V30 958 C 85.3807 2.7592 -2.27163 0
M  V30 959 C 85.0467 2.50493 -3.74919 0
M  V30 960 C 83.7087 2.43267 -4.1518 0
M  V30 961 C 86.0607 2.28585 -4.684 0
M  V30 962 C 83.3887 2.12166 -5.46994 0
M  V30 963 C 85.7407 1.99002 -6.00484 0
M  V30 964 C 84.4047 1.90241 -6.39816 0
M  V30 965 H 83.6747 0.549306 -0.497336 0
M  V30 966 H 86.3217 0.851896 -1.71508 0
M  V30 967 H 84.6267 3.45553 -1.84663 0
M  V30 968 H 86.3237 3.33923 -2.22028 0
M  V30 969 H 82.9137 2.56992 -3.43006 0
M  V30 970 H 87.0977 2.33139 -4.38132 0
M  V30 971 H 82.3537 2.03901 -5.76398 0
M  V30 972 H 86.5277 1.81057 -6.72452 0
M  V30 973 H 84.1547 1.65907 -7.41875 0
M  V30 974 N 85.7298 1.2412 0.971189 0
M  V30 975 C 86.6598 1.05508 2.08304 0
M  V30 976 C 87.6408 -0.0308864 1.70072 0
M  V30 977 O 88.8258 0.135521 1.93727 0
M  V30 978 C 85.9558 0.655365 3.4106 0
M  V30 979 C 84.9098 1.68971 3.93234 0
M  V30 980 C 84.2358 1.14516 5.22293 0
M  V30 981 C 85.5358 3.08487 4.21465 0
M  V30 982 H 87.2298 1.98507 2.24132 0
M  V30 983 H 84.7758 0.955821 1.07704 0
M  V30 984 H 86.7288 0.51217 4.18276 0
M  V30 985 H 85.4528 -0.31032 3.25122 0
M  V30 986 H 84.1118 1.82106 3.18171 0
M  V30 987 H 83.7598 0.170189 5.02712 0
M  V30 988 H 83.4598 1.83635 5.58168 0
M  V30 989 H 84.9838 1.01401 6.02121 0
M  V30 990 H 86.3978 2.98601 4.89398 0
M  V30 991 H 84.7948 3.74926 4.68562 0
M  V30 992 H 85.8648 3.56787 3.28376 0
M  V30 993 N 87.2079 -1.17134 1.05439 0
M  V30 994 C 88.1559 -2.23289 0.651511 0
M  V30 995 C 89.1499 -1.66186 -0.328411 0
M  V30 996 O 90.3559 -1.78949 -0.194206 0
M  V30 997 H 86.7309 -0.726938 0.192523 0
M  V30 998 H 88.7019 -2.54565 1.55689 0
M  V30 999 C 87.4509 -3.47671 0.0448436 0
M  V30 1000 H 86.7739 -3.91918 0.78996 0
M  V30 1001 H 88.2139 -4.2353 -0.19964 0
M  V30 1002 C 86.6729 -3.14453 -1.20918 0
M  V30 1003 O 87.2029 -3.29459 -2.29825 0
M  V30 1004 N 85.4089 -2.68657 -1.10779 0
M  V30 1005 H 84.9559 -2.56646 -0.221526 0
M  V30 1006 H 84.9139 -2.46804 -1.9477 0
M  V30 1007 N 88.686 -0.835752 -1.33615 0
M  V30 1008 C 89.932 -0.430596 -1.98176 0
M  V30 1009 C 90.265 1.00684 -1.66061 0
M  V30 1010 O 89.54 1.70339 -0.938877 0
M  V30 1011 C 89.823 -0.648065 -3.5422 0
M  V30 1012 C 89.676 -2.13255 -3.96033 0
M  V30 1013 C 90.995 -0.0922113 -4.40003 0
M  V30 1014 H 88.114 -0.157924 -0.719881 0
M  V30 1015 H 90.756 -1.05069 -1.58305 0
M  V30 1016 H 88.906 -0.120237 -3.88314 0
M  V30 1017 H 90.578 -2.725 -3.72211 0
M  V30 1018 H 88.821 -2.61823 -3.45878 0
M  V30 1019 H 89.492 -2.23547 -5.04708 0
M  V30 1020 H 91.968 -0.543343 -4.12537 0
M  V30 1021 H 90.844 -0.274083 -5.48215 0
M  V30 1022 H 91.105 1.00378 -4.30554 0
M  V30 1023 N 90.1641 1.46063 -0.591896 0
M  V30 1024 C 91.4131 2.01547 -0.0786637 0
M  V30 1025 C 91.7261 1.46796 1.29268 0
M  V30 1026 O 92.9321 1.94157 1.89777 0
M  V30 1027 C 91.3881 3.59787 -0.0900024 0
M  V30 1028 C 90.9961 4.23534 -1.46023 0
M  V30 1029 C 92.7401 4.22895 0.368806 0
M  V30 1030 C 90.6471 5.73881 -1.4288 0
M  V30 1031 H 89.5771 0.753564 -0.0256388 0
M  V30 1032 H 92.2281 1.677 -0.744905 0
M  V30 1033 H 90.6101 3.90752 0.642586 0
M  V30 1034 H 91.7841 4.04167 -2.21328 0
M  V30 1035 H 90.0991 3.72558 -1.85982 0
M  V30 1036 H 92.6961 5.33116 0.411258 0
M  V30 1037 H 93.0391 3.9247 1.38827 0
M  V30 1038 H 93.5721 3.9659 -0.31001 0
M  V30 1039 H 90.3111 6.0898 -2.42536 0
M  V30 1040 H 89.8311 5.95486 -0.718095 0
M  V30 1041 H 91.5101 6.36776 -1.14565 0
M  V30 1042 N 91.6422 0.330177 1.54103 0
M  V30 1043 C 93.0582 -0.0222371 1.59585 0
M  V30 1044 C 93.2582 -1.49902 1.34654 0
M  V30 1045 O 92.3142 -2.25592 1.13421 0
M  V30 1046 C 93.6272 0.401932 2.98002 0
M  V30 1047 C 95.1752 0.353145 3.11001 0
M  V30 1048 C 95.6502 0.752576 4.51775 0
M  V30 1049 N 97.1412 0.706239 4.57784 0
M  V30 1050 C 97.8762 0.987417 5.64834 0
M  V30 1051 N 97.3722 1.33607 6.79795 0
M  V30 1052 N 99.1652 0.91254 5.54643 0
M  V30 1053 H 91.3162 1.29228 1.68564 0
M  V30 1054 H 93.5792 0.525906 0.78875 0
M  V30 1055 H 93.2852 1.4311 3.21267 0
M  V30 1056 H 93.1592 -0.229699 3.765 0
M  V30 1057 H 95.5462 -0.666822 2.87467 0
M  V30 1058 H 95.6272 1.0198 2.34593 0
M  V30 1059 H 95.2712 1.77049 4.76042 0
M  V30 1060 H 95.2012 0.0635409 5.26562 0
M  V30 1061 H 97.6922 0.44889 3.75224 0
M  V30 1062 H 98.0052 1.53582 7.57385 0
M  V30 1063 H 96.3502 1.37439 6.81275 0
M  V30 1064 H 99.5412 0.639601 4.6371 0
M  V30 1065 H 99.7142 1.13503 6.37982 0
M  V30 1066 N 93.1203 -1.57491 0.0584922 0
M  V30 1067 C 94.0673 -2.11958 -0.913376 0
M  V30 1068 C 95.0373 -1.02875 -1.30407 0
M  V30 1069 O 96.2223 -1.30464 -1.39226 0
M  V30 1070 C 93.3623 -2.67497 -2.18035 0
M  V30 1071 C 92.4753 -3.90691 -1.84349 0
M  V30 1072 C 91.6103 -4.3452 -3.05559 0
M  V30 1073 C 90.6493 -5.50395 -2.67827 0
M  V30 1074 N 89.7863 -5.89244 -3.81754 0
M  V30 1075 H 94.6263 -2.94704 -0.442017 0
M  V30 1076 H 92.1633 -1.45643 -0.206545 0
M  V30 1077 H 94.1213 -2.978 -2.92183 0
M  V30 1078 H 92.7513 -1.87537 -2.62735 0
M  V30 1079 H 91.8033 -3.66934 -1.00319 0
M  V30 1080 H 93.1153 -4.7489 -1.5258 0
M  V30 1081 H 92.2693 -4.66414 -3.87998 0
M  V30 1082 H 91.0083 -3.49147 -3.40511 0
M  V30 1083 H 90.0133 -5.18165 -1.83806 0
M  V30 1084 H 91.2383 -6.3749 -2.34059 0
M  V30 1085 H 89.1843 -5.06823 -4.16493 0
M  V30 1086 H 89.1013 -6.68151 -3.53708 0
M  V30 1087 H 90.3693 -6.25756 -4.64811 0
M  V30 1088 N 94.5984 0.214957 -1.56127 0
M  V30 1089 C 95.8284 0.953707 -1.8327 0
M  V30 1090 C 96.2364 1.78181 -0.636262 0
M  V30 1091 O 95.5794 1.79191 0.404516 0
M  V30 1092 C 95.6414 1.91516 -3.0424 0
M  V30 1093 C 95.3054 1.27094 -4.38972 0
M  V30 1094 C 96.3024 0.657575 -5.15725 0
M  V30 1095 C 93.9874 1.28073 -4.85698 0
M  V30 1096 C 95.9814 0.0625968 -6.37369 0
M  V30 1097 C 93.6684 0.681914 -6.07283 0
M  V30 1098 C 94.6664 0.0739046 -6.8296 0
M  V30 1099 O 94.3544 -0.515582 -8.02245 0
M  V30 1100 H 94.0864 0.284764 -0.613095 0
M  V30 1101 H 96.6404 0.233283 -2.04071 0
M  V30 1102 H 94.8704 2.67475 -2.79274 0
M  V30 1103 H 96.5594 2.52001 -3.18198 0
M  V30 1104 H 97.3254 0.642288 -4.80728 0
M  V30 1105 H 93.2044 1.74337 -4.26764 0
M  V30 1106 H 96.7484 -0.412593 -6.96379 0
M  V30 1107 H 92.6454 0.694636 -6.41752 0
M  V30 1108 H 93.4134 -0.410544 -8.1747 0
M  V30 1109 N 96.0765 1.50051 0.48192 0
M  V30 1110 C 97.0245 1.68635 1.60203 0
M  V30 1111 C 98.0185 0.552184 1.60148 0
M  V30 1112 O 99.2245 0.732377 1.64427 0
M  V30 1113 H 95.5995 0.532081 0.531407 0
M  V30 1114 H 97.5705 2.62616 1.41688 0
M  V30 1115 C 96.3195 1.78775 2.9822 0
M  V30 1116 H 95.6425 2.6543 2.98976 0
M  V30 1117 H 97.0825 1.95806 3.7608 0
M  V30 1118 C 95.5415 0.536849 3.32595 0
M  V30 1119 O 96.0715 -0.328897 4.00351 0
M  V30 1120 N 94.2775 0.394091 2.87915 0
M  V30 1121 H 93.8245 1.09962 2.32951 0
M  V30 1122 H 93.7825 -0.441737 3.11281 0
M  V30 1123 N 97.5546 -0.734337 1.39446 0
M  V30 1124 C 98.8036 -1.48937 1.36017 0
M  V30 1125 C 99.1166 -1.95557 -0.0409005 0
M  V30 1126 O 100.323 -2.70779 -0.19778 0
M  V30 1127 C 98.7786 -2.69125 2.38955 0
M  V30 1128 C 98.3866 -2.29452 3.8478 0
M  V30 1129 C 100.131 -3.46944 2.44603 0
M  V30 1130 C 98.0376 -3.46366 4.79358 0
M  V30 1131 H 96.9676 -0.559296 0.505672 0
M  V30 1132 H 99.6186 -0.800983 1.65095 0
M  V30 1133 H 98.0006 -3.40041 2.02948 0
M  V30 1134 H 99.1746 -1.66077 4.29831 0
M  V30 1135 H 97.4896 -1.64723 3.82433 0
M  V30 1136 H 100.087 -4.33907 3.12456 0
M  V30 1137 H 100.43 -3.89454 1.47076 0
M  V30 1138 H 100.963 -2.83056 2.79507 0
M  V30 1139 H 97.7016 -3.08905 5.78151 0
M  V30 1140 H 97.2216 -4.08719 4.38986 0
M  V30 1141 H 98.9006 -4.12691 4.98292 0
M  V30 1142 N 99.0327 -1.24633 -0.964593 0
M  V30 1143 C 99.9647 -0.999302 -2.06268 0
M  V30 1144 C 100.978 0.0323226 -1.62768 0
M  V30 1145 O 102.167 -0.205079 -1.77318 0
M  V30 1146 C 99.2667 -0.486816 -3.35385 0
M  V30 1147 C 98.4397 -1.5823 -4.07777 0
M  V30 1148 C 97.4987 -1.07191 -5.15166 0
M  V30 1149 O 96.5247 -1.76426 -5.41168 0
M  V30 1150 N 97.7267 0.0920373 -5.80427 0
M  V30 1151 H 100.492 -1.94477 -2.28033 0
M  V30 1152 H 98.0527 -1.15704 -1.13244 0
M  V30 1153 H 100.045 -0.130066 -4.04491 0
M  V30 1154 H 98.6147 0.364459 -3.10468 0
M  V30 1155 H 97.8347 -2.11109 -3.32906 0
M  V30 1156 H 99.1227 -2.31854 -4.52903 0
M  V30 1157 H 98.5207 0.670784 -5.61709 0
M  V30 1158 H 97.0777 0.389905 -6.50633 0
M  V30 1159 N 100.511 1.16574 -1.06058 0
M  V30 1160 C 101.922 1.68662 -0.800632 0
M  V30 1161 C 102.273 1.84184 0.67608 0
M  V30 1162 O 101.398 1.53568 1.52466 0
M  V30 1163 C 101.993 3.06356 -1.44676 0
M  V30 1164 C 100.552 3.55575 -1.23465 0
M  V30 1165 C 99.6988 2.31616 -1.52477 0
M  V30 1166 H 102.65 1.00969 -1.22438 0
M  V30 1167 H 102.671 3.70636 -0.860788 0
M  V30 1168 H 102.183 2.95027 -2.52152 0
M  V30 1169 H 100.284 3.72167 -0.179527 0
M  V30 1170 H 100.397 4.37812 -1.94571 0
M  V30 1171 H 98.7608 2.36512 -0.945209 0
M  V30 1172 H 99.5438 2.22887 -2.61106 0
M  V30 1173 N 101.989 0.842826 1.3317 0
M  V30 1174 C 102.937 0.267495 2.31057 0
M  V30 1175 C 103.931 -0.602682 1.58316 0
M  V30 1176 O 105.137 -0.491803 1.73151 0
M  V30 1177 H 101.512 0.0677813 0.748939 0
M  V30 1178 H 103.483 1.10754 2.77085 0
M  V30 1179 C 102.232 -0.539331 3.43492 0
M  V30 1180 H 101.555 0.12095 3.99617 0
M  V30 1181 H 102.995 -0.90767 4.14171 0
M  V30 1182 C 101.454 -1.71981 2.89697 0
M  V30 1183 O 101.984 -2.81862 2.86211 0
M  V30 1184 N 100.19 -1.54299 2.46252 0
M  V30 1185 H 99.7369 -0.649143 2.49287 0
M  V30 1186 H 99.6949 -2.33431 2.10612 0
M  V30 1187 N 103.467 -1.45747 0.599634 0
M  V30 1188 C 104.4 -2.27547 -0.172552 0
M  V30 1189 C 105.378 -1.36657 -0.881116 0
M  V30 1190 O 106.562 -1.66081 -0.891595 0
M  V30 1191 C 103.689 -3.14829 -1.24903 0
M  V30 1192 C 102.735 -4.21603 -0.644465 0
M  V30 1193 S 103.568 -5.32754 0.541606 0
M  V30 1194 C 104.724 -6.23604 -0.535656 0
M  V30 1195 H 104.957 -2.92691 0.521468 0
M  V30 1196 H 102.49 -1.49473 0.386947 0
M  V30 1197 H 104.448 -3.65675 -1.86527 0
M  V30 1198 H 103.109 -2.48965 -1.91508 0
M  V30 1199 H 102.302 -4.82566 -1.45417 0
M  V30 1200 H 101.904 -3.73857 -0.103534 0
M  V30 1201 H 104.196 -6.62519 -1.41686 0
M  V30 1202 H 105.139 -7.0809 0.0376246 0
M  V30 1203 H 105.547 -5.58103 -0.84741 0
M  V30 1204 N 104.945 -0.338344 -1.53925 0
M  V30 1205 C 106.17 0.263987 -2.05713 0
M  V30 1206 C 106.595 1.43847 -1.21201 0
M  V30 1207 O 105.953 1.79904 -0.224535 0
M  V30 1208 C 106.001 0.662 -3.54471 0
M  V30 1209 O 105.105 1.76265 -3.72833 0
M  V30 1210 H 104.446 0.0448722 -0.662482 0
M  V30 1211 H 106.976 -0.491048 -1.9862 0
M  V30 1212 H 106.986 0.940594 -3.9701 0
M  V30 1213 H 105.661 -0.196937 -4.15433 0
M  V30 1214 H 104.238 1.48173 -3.42198 0
M  V30 1215 N 106.423 1.57458 -0.0668435 0
M  V30 1216 C 107.7 1.8469 0.644132 0
M  V30 1217 C 108.08 0.958343 1.88093 0
M  V30 1218 O 107.428 0.0233579 2.28488 0
M  V30 1219 C 107.638 3.34767 0.986509 0
M  V30 1220 C 108.986 4.02159 1.36212 0
M  V30 1221 O 110.01 3.39484 1.07839 0
M  V30 1222 O 108.869 5.12694 1.89227 0
M  V30 1223 H 105.963 0.762816 0.319437 0
M  V30 1224 H 108.509 1.6942 -0.0973986 0
M  V30 1225 H 107.281 3.91151 0.107883 0
M  V30 1226 H 106.904 3.55281 1.78497 0
M  V30 1227 N 107.901 -0.206675 1.56239 0
M  V30 1228 C 108.811 -1.27686 1.96808 0
M  V30 1229 C 109.827 -1.50455 0.874035 0
M  V30 1230 O 111.003 -1.63295 1.17884 0
M  V30 1231 C 108.068 -2.60358 2.28942 0
M  V30 1232 C 107.129 -2.45762 3.51994 0
M  V30 1233 C 106.362 -3.72108 3.82585 0
M  V30 1234 O 106.585 -4.75776 3.14631 0
M  V30 1235 O 105.519 -3.6833 4.76043 0
M  V30 1236 H 109.345 -0.962593 2.88041 0
M  V30 1237 H 106.93 -0.410746 1.43643 0
M  V30 1238 H 108.812 -3.38687 2.50737 0
M  V30 1239 H 107.487 -2.91435 1.4088 0
M  V30 1240 H 106.394 -1.65584 3.35459 0
M  V30 1241 H 107.727 -2.19621 4.40486 0
M  V30 1242 N 109.379 -1.50304 -0.473955 0
M  V30 1243 C 110.289 -1.7174 -1.5982 0
M  V30 1244 C 111.305 -0.600457 -1.63311 0
M  V30 1245 O 112.481 -0.878441 -1.81233 0
M  V30 1246 C 109.546 -1.80427 -2.96052 0
M  V30 1247 C 108.607 -3.04148 -3.02972 0
M  V30 1248 C 107.84 -3.12411 -4.32706 0
M  V30 1249 O 108.063 -2.27542 -5.23049 0
M  V30 1250 O 106.997 -4.05113 -4.45159 0
M  V30 1251 H 110.823 -2.67035 -1.44657 0
M  V30 1252 H 108.408 -1.34366 -0.653148 0
M  V30 1253 H 110.29 -1.88338 -3.7697 0
M  V30 1254 H 108.965 -0.883156 -3.11419 0
M  V30 1255 H 107.872 -3.0174 -2.21142 0
M  V30 1256 H 109.205 -3.95829 -2.92541 0
M  V30 1257 N 110.857 0.726932 -1.39834 0
M  V30 1258 C 112.106 1.48214 -1.36805 0
M  V30 1259 C 112.419 1.95576 0.0305291 0
M  V30 1260 O 113.625 2.7088 0.183417 0
M  V30 1261 C 112.081 2.67854 -2.40379 0
M  V30 1262 C 111.689 2.27408 -3.85992 0
M  V30 1263 C 113.433 3.45641 -2.46439 0
M  V30 1264 C 111.34 3.43819 -4.81189 0
M  V30 1265 H 110.27 0.556606 -0.508631 0
M  V30 1266 H 112.921 0.792216 -1.65518 0
M  V30 1267 H 111.303 3.3896 -2.04749 0
M  V30 1268 H 112.477 1.63795 -4.30706 0
M  V30 1269 H 110.792 1.62692 -3.83302 0
M  V30 1270 H 113.389 4.32244 -3.14753 0
M  V30 1271 H 113.732 3.88669 -1.49139 0
M  V30 1272 H 114.265 2.8157 -2.81004 0
M  V30 1273 H 111.004 3.05834 -5.79781 0
M  V30 1274 H 110.524 4.06385 -4.41148 0
M  V30 1275 H 112.203 4.10043 -5.00474 0
M  V30 1276 N 112.336 1.25143 0.95797 0
M  V30 1277 C 113.585 1.0909 1.69654 0
M  V30 1278 C 113.898 -0.368548 1.92097 0
M  V30 1279 O 115.104 -0.649455 2.63618 0
M  V30 1280 C 113.56 1.90395 3.05414 0
M  V30 1281 C 113.168 3.4081 2.90779 0
M  V30 1282 C 114.912 1.82901 3.83076 0
M  V30 1283 C 112.819 4.14423 4.21909 0
M  V30 1284 H 111.749 0.404625 0.636235 0
M  V30 1285 H 114.4 1.4931 1.06672 0
M  V30 1286 H 112.782 1.42996 3.69281 0
M  V30 1287 H 113.956 3.95859 2.35865 0
M  V30 1288 H 112.271 3.49361 2.26575 0
M  V30 1289 H 114.868 2.35196 4.80195 0
M  V30 1290 H 115.211 0.796224 4.08615 0
M  V30 1291 H 115.744 2.28033 3.25954 0
M  V30 1292 H 112.483 5.18102 4.01561 0
M  V30 1293 H 112.003 3.64159 4.76601 0
M  V30 1294 H 113.682 4.21956 4.90471 0
M  V30 1295 N 113.814 -1.1601 1.06675 0
M  V30 1296 C 115.091 -1.82679 0.699114 0
M  V30 1297 C 115.471 -1.94559 -0.819137 0
M  V30 1298 O 114.819 -1.49169 -1.73092 0
M  V30 1299 C 115.029 -3.19445 1.40555 0
M  V30 1300 C 116.377 -3.95171 1.55323 0
M  V30 1301 O 117.401 -3.28976 1.36577 0
M  V30 1302 O 116.26 -5.13833 1.86112 0
M  V30 1303 H 113.354 -0.788954 0.247951 0
M  V30 1304 H 115.9 -1.23179 1.16726 0
M  V30 1305 H 114.672 -3.05856 2.44065 0
M  V30 1306 H 114.295 -3.86625 0.927733 0
M  V30 1307 N 115.292 -0.849877 -1.32721 0
M  V30 1308 C 116.522 -0.46408 -2.0132 0
M  V30 1309 C 116.93 0.94246 -1.64056 0
M  V30 1310 O 116.273 1.6257 -0.855379 0
M  V30 1311 C 116.335 -0.517887 -3.5575 0
M  V30 1312 C 115.999 -1.88248 -4.16427 0
M  V30 1313 C 116.996 -2.84726 -4.35002 0
M  V30 1314 C 114.681 -2.17832 -4.52609 0
M  V30 1315 C 116.675 -4.08945 -4.8892 0
M  V30 1316 C 114.362 -3.42304 -5.06232 0
M  V30 1317 C 115.36 -4.37677 -5.24335 0
M  V30 1318 O 115.048 -5.59946 -5.76815 0
M  V30 1319 H 114.78 -0.181327 -0.651227 0
M  V30 1320 H 117.334 -1.14713 -1.70382 0
M  V30 1321 H 115.564 0.221997 -3.86062 0
M  V30 1322 H 117.253 -0.148366 -4.05629 0
M  V30 1323 H 118.019 -2.63174 -4.07388 0
M  V30 1324 H 113.898 -1.44385 -4.37806 0
M  V30 1325 H 117.442 -4.83396 -5.02966 0
M  V30 1326 H 113.339 -3.63709 -5.33278 0
M  V30 1327 H 114.107 -5.61838 -5.95214 0
M  V30 1328 N 116.77 1.45427 -0.607355 0
M  V30 1329 C 118 2.06314 -0.108656 0
M  V30 1330 C 118.408 1.45269 1.21217 0
M  V30 1331 O 117.751 0.561115 1.74921 0
M  V30 1332 C 117.813 3.59345 0.105618 0
M  V30 1333 C 117.477 4.42723 -1.13337 0
M  V30 1334 C 118.474 4.77715 -2.05145 0
M  V30 1335 C 116.159 4.83478 -1.36213 0
M  V30 1336 C 118.153 5.52317 -3.18158 0
M  V30 1337 C 115.84 5.57835 -2.49527 0
M  V30 1338 C 116.838 5.92171 -3.40327 0
M  V30 1339 O 116.526 6.65019 -4.51669 0
M  V30 1340 H 116.258 0.672782 -0.0658842 0
M  V30 1341 H 118.812 1.87664 -0.834945 0
M  V30 1342 H 117.042 3.76394 0.886796 0
M  V30 1343 H 118.731 4.02076 0.555886 0
M  V30 1344 H 119.497 4.46787 -1.88697 0
M  V30 1345 H 115.376 4.56188 -0.664362 0
M  V30 1346 H 118.92 5.79036 -3.89054 0
M  V30 1347 H 114.817 5.88177 -2.65928 0
M  V30 1348 H 115.585 6.83469 -4.50348 0
M  V30 1349 N 118.248 0.346503 1.53744 0
M  V30 1350 C 119.178 -0.501193 2.28058 0
M  V30 1351 C 120.159 -1.10014 1.29734 0
M  V30 1352 O 121.344 -1.12097 1.58581 0
M  V30 1353 C 118.474 -1.65078 3.05559 0
M  V30 1354 C 117.428 -1.18003 4.11411 0
M  V30 1355 C 116.754 -2.41837 4.76884 0
M  V30 1356 C 118.054 -0.278394 5.21558 0
M  V30 1357 H 119.748 0.11875 2.99164 0
M  V30 1358 H 117.294 0.0585531 1.43881 0
M  V30 1359 H 119.247 -2.25028 3.56287 0
M  V30 1360 H 117.971 -2.29767 2.32109 0
M  V30 1361 H 116.63 -0.603331 3.61601 0
M  V30 1362 H 116.278 -3.0494 4.00026 0
M  V30 1363 H 115.978 -2.1102 5.48402 0
M  V30 1364 H 117.502 -3.02508 5.30397 0
M  V30 1365 H 118.916 -0.784823 5.67903 0
M  V30 1366 H 117.313 -0.0619707 6.00068 0
M  V30 1367 H 118.383 0.684677 4.80042 0
M  V30 1368 N 119.726 -1.57421 0.075193 0
M  V30 1369 C 120.973 -1.93618 -0.593146 0
M  V30 1370 C 121.301 -0.955484 -1.69413 0
M  V30 1371 O 120.556 0.0283251 -1.9568 0
M  V30 1372 C 120.855 -3.36428 -1.20626 0
M  V30 1373 C 120.521 -4.50307 -0.231078 0
M  V30 1374 C 119.183 -4.81186 0.0371936 0
M  V30 1375 C 121.535 -5.19374 0.435888 0
M  V30 1376 C 118.863 -5.78466 0.979461 0
M  V30 1377 C 121.215 -6.17665 1.3665 0
M  V30 1378 C 119.879 -6.46958 1.6432 0
M  V30 1379 H 119.149 -0.708499 -0.217047 0
M  V30 1380 H 121.796 -1.90937 0.146793 0
M  V30 1381 H 120.101 -3.35592 -2.02201 0
M  V30 1382 H 121.798 -3.61727 -1.73073 0
M  V30 1383 H 118.388 -4.26227 -0.450357 0
M  V30 1384 H 122.572 -4.95711 0.241748 0
M  V30 1385 H 117.828 -5.99487 1.20106 0
M  V30 1386 H 122.002 -6.70284 1.88924 0
M  V30 1387 H 119.629 -7.2215 2.37494 0
M  V30 1388 N 121.204 0.198386 -1.56346 0
M  V30 1389 C 122.429 0.939682 -1.84891 0
M  V30 1390 C 122.854 1.76202 -0.658369 0
M  V30 1391 O 122.212 1.76993 0.392851 0
M  V30 1392 C 122.26 1.81428 -3.11635 0
M  V30 1393 O 121.364 2.91265 -2.91956 0
M  V30 1394 H 120.705 0.264807 -0.608912 0
M  V30 1395 H 123.235 0.204695 -2.03573 0
M  V30 1396 H 123.245 2.21958 -3.42343 0
M  V30 1397 H 121.92 1.21004 -3.97908 0
M  V30 1398 H 120.497 2.54514 -2.72538 0
M  V30 1399 N 122.682 1.50554 0.465978 0
M  V30 1400 C 123.629 1.6979 1.56333 0
M  V30 1401 C 124.599 0.539239 1.57103 0
M  V30 1402 O 125.784 0.770401 1.74555 0
M  V30 1403 C 122.924 1.80273 2.94271 0
M  V30 1404 C 122.037 3.07674 3.0325 0
M  V30 1405 C 121.172 3.08922 4.32135 0
M  V30 1406 C 120.211 4.30755 4.34875 0
M  V30 1407 N 119.348 4.29714 5.55239 0
M  V30 1408 H 124.188 2.63472 1.39235 0
M  V30 1409 H 121.725 1.30602 0.676873 0
M  V30 1410 H 123.683 1.84332 3.74269 0
M  V30 1411 H 122.313 0.900258 3.09992 0
M  V30 1412 H 121.365 3.13062 2.16094 0
M  V30 1413 H 122.677 3.97642 3.01135 0
M  V30 1414 H 121.831 3.11738 5.20485 0
M  V30 1415 H 120.57 2.16792 4.36866 0
M  V30 1416 H 119.575 4.28146 3.44922 0
M  V30 1417 H 120.8 5.24117 4.31831 0
M  V30 1418 H 118.746 3.4044 5.60746 0
M  V30 1419 H 118.663 5.13456 5.54886 0
M  V30 1420 H 119.931 4.36683 6.457 0
M  V30 1421 N 124.16 -0.719506 1.40217 0
M  V30 1422 C 125.571 -1.29848 1.34151 0
M  V30 1423 C 125.922 -1.96196 0.0131349 0
M  V30 1424 O 125.047 -1.973 -0.88892 0
M  V30 1425 C 125.642 -2.36118 2.42968 0
M  V30 1426 C 124.201 -2.8965 2.40374 0
M  V30 1427 C 123.348 -1.63393 2.24049 0
M  V30 1428 H 126.299 -0.51591 1.5008 0
M  V30 1429 H 126.32 -3.16871 2.10649 0
M  V30 1430 H 125.832 -1.878 3.39636 0
M  V30 1431 H 123.933 -3.42208 1.47392 0
M  V30 1432 H 124.046 -3.4171 3.35814 0
M  V30 1433 H 122.41 -1.88312 1.71495 0
M  V30 1434 H 123.193 -1.17104 3.2271 0
M  V30 1435 N 125.638 -1.25649 -0.95132 0
M  V30 1436 C 126.886 -1.10375 -1.69298 0
M  V30 1437 C 127.207 0.355339 -1.91735 0
M  V30 1438 O 126.477 1.25188 -1.50681 0
M  V30 1439 H 125.057 -0.405461 -0.627384 0
M  V30 1440 H 127.719 -1.57823 -1.14358 0
M  V30 1441 H 126.815 -1.61465 -2.67087 0
M  V30 1442 N 127.117 1.15442 -1.07289 0
M  V30 1443 C 128.064 2.20161 -0.692653 0
M  V30 1444 C 129.034 1.63073 0.31564 0
M  V30 1445 O 130.219 1.89725 0.202235 0
M  V30 1446 C 127.359 3.44967 -0.0959509 0
M  V30 1447 C 126.472 4.16256 -1.15564 0
M  V30 1448 C 125.607 5.28609 -0.524011 0
M  V30 1449 C 124.646 5.91715 -1.56653 0
M  V30 1450 N 123.783 6.9554 -0.957531 0
M  V30 1451 H 128.623 2.52037 -1.59002 0
M  V30 1452 H 126.16 1.2378 -0.794798 0
M  V30 1453 H 128.118 4.16341 0.267628 0
M  V30 1454 H 126.748 3.1361 0.764772 0
M  V30 1455 H 125.8 3.43385 -1.6368 0
M  V30 1456 H 127.112 4.59268 -1.94613 0
M  V30 1457 H 126.266 6.06604 -0.108032 0
M  V30 1458 H 125.005 4.86787 0.29825 0
M  V30 1459 H 124.01 5.12433 -1.9923 0
M  V30 1460 H 125.235 6.35614 -2.39107 0
M  V30 1461 H 123.181 6.55814 -0.156162 0
M  V30 1462 H 123.098 7.36977 -1.68526 0
M  V30 1463 H 124.366 7.77435 -0.567032 0
M  V30 1464 N 128.595 0.856903 1.32268 0
M  V30 1465 C 129.82 0.474569 2.01897 0
M  V30 1466 C 130.245 -0.921766 1.63967 0
M  V30 1467 O 129.603 -1.60589 0.84148 0
M  V30 1468 C 129.651 0.623799 3.55164 0
M  V30 1469 O 128.755 -0.342459 4.10976 0
M  V30 1470 H 128.096 0.190422 0.63611 0
M  V30 1471 H 130.626 1.15672 1.68764 0
M  V30 1472 H 130.636 0.512169 4.04773 0
M  V30 1473 H 129.311 1.64202 3.82113 0
M  V30 1474 H 127.888 -0.18688 3.72431 0
M  V30 1475 N 130.073 -1.45103 0.615059 0
M  V30 1476 C 131.003 -2.33339 -0.0865619 0
M  V30 1477 C 131.984 -1.4727 -0.851209 0
M  V30 1478 O 133.169 -1.76026 -0.820281 0
M  V30 1479 C 130.299 -3.30095 -1.07956 0
M  V30 1480 C 129.253 -4.25858 -0.427628 0
M  V30 1481 C 128.579 -5.12361 -1.5294 0
M  V30 1482 C 129.879 -5.18165 0.655944 0
M  V30 1483 H 131.573 -2.92254 0.650224 0
M  V30 1484 H 129.119 -1.40532 0.314138 0
M  V30 1485 H 131.072 -3.90698 -1.57901 0
M  V30 1486 H 129.796 -2.69355 -1.84703 0
M  V30 1487 H 128.455 -3.66564 0.0510292 0
M  V30 1488 H 128.103 -4.47984 -2.28734 0
M  V30 1489 H 127.803 -5.77238 -1.09865 0
M  V30 1490 H 129.327 -5.75833 -2.03098 0
M  V30 1491 H 130.741 -5.72796 0.240257 0
M  V30 1492 H 129.138 -5.91559 1.00888 0
M  V30 1493 H 130.208 -4.60144 1.52957 0
M  V30 1494 N 131.551 -0.354651 -1.53558 0
M  V30 1495 C 132.828 0.294281 -1.93374 0
M  V30 1496 C 133.208 1.67313 -1.28723 0
M  V30 1497 O 132.556 2.24179 -0.442247 0
M  V30 1498 C 132.766 0.355445 -3.47185 0
M  V30 1499 C 134.114 0.601007 -4.20325 0
M  V30 1500 O 135.138 0.437106 -3.53508 0
M  V30 1501 O 133.997 0.919322 -5.38712 0
M  V30 1502 H 131.091 0.174033 -0.808481 0
M  V30 1503 H 133.637 -0.406638 -1.64756 0
M  V30 1504 H 132.409 -0.611729 -3.86489 0
M  V30 1505 H 132.032 1.1027 -3.82003 0
M  V30 1506 N 133.029 1.57378 -0.0835403 0
M  V30 1507 C 133.939 2.16897 0.894021 0
M  V30 1508 C 134.955 1.13528 1.31861 0
M  V30 1509 O 136.131 1.45848 1.3889 0
M  V30 1510 C 133.196 2.72831 2.13925 0
M  V30 1511 C 132.257 3.91115 1.76997 0
M  V30 1512 C 131.49 4.44371 2.95584 0
M  V30 1513 O 131.713 3.96596 4.09961 0
M  V30 1514 O 130.647 5.35549 2.74719 0
M  V30 1515 H 134.473 3.00814 0.417679 0
M  V30 1516 H 132.058 1.48741 0.140181 0
M  V30 1517 H 133.94 3.0863 2.86924 0
M  V30 1518 H 132.615 1.91967 2.60635 0
M  V30 1519 H 131.522 3.60148 1.01214 0
M  V30 1520 H 132.855 4.73307 1.3506 0
M  V30 1521 N 134.507 -0.190092 1.56449 0
M  V30 1522 C 135.754 -0.909705 1.80916 0
M  V30 1523 C 136.082 -1.83047 0.657583 0
M  V30 1524 O 135.337 -1.92428 -0.356356 0
M  V30 1525 C 135.636 -1.75382 3.1141 0
M  V30 1526 C 135.302 -0.983606 4.40041 0
M  V30 1527 C 133.964 -0.770967 4.74984 0
M  V30 1528 C 136.316 -0.442024 5.19322 0
M  V30 1529 C 133.644 -0.0053448 5.867 0
M  V30 1530 C 135.996 0.310412 6.31838 0
M  V30 1531 C 134.66 0.534023 6.6536 0
M  V30 1532 H 133.93 -0.332885 0.662019 0
M  V30 1533 H 136.577 -0.175762 1.90692 0
M  V30 1534 H 134.882 -2.55659 2.96893 0
M  V30 1535 H 136.579 -2.31331 3.27547 0
M  V30 1536 H 133.169 -1.15936 4.12622 0
M  V30 1537 H 137.353 -0.593693 4.92736 0
M  V30 1538 H 132.609 0.177825 6.11141 0
M  V30 1539 H 136.783 0.737419 6.92485 0
M  V30 1540 H 134.41 1.12918 7.51767 0
M  V30 1541 N 135.985 -1.50799 -0.457987 0
M  V30 1542 C 137.231 -1.62683 -1.21088 0
M  V30 1543 C 137.564 -0.332268 -1.91336 0
M  V30 1544 O 136.839 0.667043 -1.82704 0
M  V30 1545 C 137.122 -2.81615 -2.24422 0
M  V30 1546 C 136.975 -4.20989 -1.58392 0
M  V30 1547 C 138.294 -2.96085 -3.2561 0
M  V30 1548 H 135.413 -0.592087 -0.438864 0
M  V30 1549 H 138.055 -1.83225 -0.50286 0
M  V30 1550 H 136.205 -2.64231 -2.84806 0
M  V30 1551 H 137.877 -4.49994 -1.01504 0
M  V30 1552 H 136.12 -4.24641 -0.886704 0
M  V30 1553 H 136.791 -5.0016 -2.33547 0
M  V30 1554 H 139.267 -3.12042 -2.75262 0
M  V30 1555 H 138.143 -3.80902 -3.95228 0
M  V30 1556 H 138.404 -2.0726 -3.90507 0
M  V30 1557 N 137.463 0.71206 -1.40597 0
M  V30 1558 C 138.373 1.8562 -1.43466 0
M  V30 1559 C 139.389 1.70902 -0.326902 0
M  V30 1560 O 140.565 1.93105 -0.572043 0
M  V30 1561 C 137.63 3.21451 -1.29884 0
M  V30 1562 C 136.691 3.48398 -2.50833 0
M  V30 1563 C 135.924 4.77749 -2.3789 0
M  V30 1564 O 136.147 5.53089 -1.39459 0
M  V30 1565 O 135.081 5.05111 -3.27333 0
M  V30 1566 H 138.907 1.86155 -2.39958 0
M  V30 1567 H 136.492 0.86295 -1.21957 0
M  V30 1568 H 138.374 4.02579 -1.24531 0
M  V30 1569 H 137.049 3.21636 -0.364997 0
M  V30 1570 H 135.956 2.67265 -2.61763 0
M  V30 1571 H 137.289 3.53014 -3.4299 0
M  V30 1572 N 138.941 1.26152 0.944643 0
M  V30 1573 C 139.888 1.07408 2.04285 0
M  V30 1574 C 140.858 -0.0198413 1.66088 0
M  V30 1575 O 142.043 0.139264 1.90291 0
M  V30 1576 C 139.183 0.70945 3.37729 0
M  V30 1577 C 138.296 1.87926 3.88983 0
M  V30 1578 C 137.431 1.45807 5.10797 0
M  V30 1579 C 136.47 2.5964 5.54305 0
M  V30 1580 N 135.607 2.18226 6.67324 0
M  V30 1581 H 140.447 2.01389 2.1965 0
M  V30 1582 H 137.984 1.00275 1.07626 0
M  V30 1583 H 139.942 0.478948 4.14442 0
M  V30 1584 H 138.572 -0.193389 3.2222 0
M  V30 1585 H 137.624 2.22279 3.08701 0
M  V30 1586 H 138.936 2.73377 4.17213 0
M  V30 1587 H 138.09 1.18781 5.94959 0
M  V30 1588 H 136.829 0.574414 4.84305 0
M  V30 1589 H 135.834 2.87399 4.68702 0
M  V30 1590 H 137.059 3.48599 5.828 0
M  V30 1591 H 135.005 1.3229 6.42523 0
M  V30 1592 H 134.922 2.97221 6.95123 0
M  V30 1593 H 136.19 1.94403 7.54869 0
M  V30 1594 N 140.419 -1.14872 1.07899 0
M  V30 1595 C 141.382 -2.17986 0.708161 0
M  V30 1596 C 142.382 -1.58775 -0.25442 0
M  V30 1597 O 143.572 -1.74166 -0.034645 0
M  V30 1598 C 140.704 -3.40871 0.0446929 0
M  V30 1599 H 141.897 -2.52306 1.62116 0
M  V30 1600 H 139.45 -1.2943 0.876218 0
M  V30 1601 H 140.185 -3.12124 -0.880281 0
M  V30 1602 H 139.97 -3.8511 0.737091 0
M  V30 1603 H 141.46 -4.17121 -0.19991 0
M  V30 1604 N 141.898 -0.863906 -1.31812 0
M  V30 1605 C 142.828 -0.330843 -2.31144 0
M  V30 1606 C 143.809 0.575005 -1.60087 0
M  V30 1607 O 144.994 0.493304 -1.8783 0
M  V30 1608 C 142.124 0.47374 -3.44054 0
M  V30 1609 C 141.078 -0.338481 -4.26659 0
M  V30 1610 C 140.404 0.591412 -5.31419 0
M  V30 1611 C 141.704 -1.56926 -4.98168 0
M  V30 1612 H 143.398 -1.16086 -2.75979 0
M  V30 1613 H 140.944 -0.559657 -1.32679 0
M  V30 1614 H 142.897 0.857143 -4.12591 0
M  V30 1615 H 141.621 1.33721 -2.9797 0
M  V30 1616 H 140.28 -0.703754 -3.59782 0
M  V30 1617 H 139.928 1.45199 -4.81587 0
M  V30 1618 H 139.628 0.0519022 -5.87577 0
M  V30 1619 H 141.152 0.97179 -6.02817 0
M  V30 1620 H 142.566 -1.25764 -5.59336 0
M  V30 1621 H 140.963 -2.04739 -5.64094 0
M  V30 1622 H 142.033 -2.32544 -4.25501 0
M  V30 1623 N 143.376 1.44774 -0.622745 0
M  V30 1624 C 144.792 1.56986 -0.287652 0
M  V30 1625 C 144.992 1.61167 1.20944 0
M  V30 1626 O 144.048 1.55015 1.99315 0
M  V30 1627 C 145.361 2.84551 -0.972188 0
M  V30 1628 C 146.909 2.9825 -0.949536 0
M  V30 1629 C 147.384 4.28605 -1.61437 0
M  V30 1630 N 148.875 4.35399 -1.58057 0
M  V30 1631 C 149.61 5.34964 -2.064 0
M  V30 1632 N 149.106 6.40981 -2.62897 0
M  V30 1633 N 150.899 5.26419 -1.97078 0
M  V30 1634 H 143.05 1.40304 -1.59463 0
M  V30 1635 H 145.313 0.671794 -0.668878 0
M  V30 1636 H 145.019 2.87417 -2.02693 0
M  V30 1637 H 144.893 3.73807 -0.504771 0
M  V30 1638 H 147.28 2.94941 0.0967067 0
M  V30 1639 H 147.361 2.10364 -1.45536 0
M  V30 1640 H 147.005 4.32672 -2.66002 0
M  V30 1641 H 146.935 5.15334 -1.08344 0
M  V30 1642 H 149.426 3.59397 -1.16801 0
M  V30 1643 H 149.739 7.13225 -2.97539 0
M  V30 1644 H 148.084 6.4169 -2.66943 0
M  V30 1645 H 151.275 4.42504 -1.52669 0
M  V30 1646 H 151.448 6.03861 -2.35066 0
M  V30 1647 N 144.854 0.36279 1.53368 0
M  V30 1648 C 145.784 -0.476976 2.28576 0
M  V30 1649 C 146.765 -1.08631 1.30894 0
M  V30 1650 O 147.95 -1.10409 1.59761 0
M  V30 1651 C 145.08 -1.61828 3.07293 0
M  V30 1652 C 144.034 -1.13633 4.1264 0
M  V30 1653 C 143.36 -2.36766 4.79423 0
M  V30 1654 C 144.66 -0.223061 5.21823 0
M  V30 1655 H 146.354 0.150474 2.99022 0
M  V30 1656 H 143.9 0.0738103 1.43811 0
M  V30 1657 H 145.853 -2.21237 3.58653 0
M  V30 1658 H 144.577 -2.27292 2.34533 0
M  V30 1659 H 143.236 -0.564945 3.62221 0
M  V30 1660 H 142.884 -3.0068 4.03238 0
M  V30 1661 H 142.584 -2.05192 5.50609 0
M  V30 1662 H 144.108 -2.96865 5.33576 0
M  V30 1663 H 145.522 -0.724545 5.68703 0
M  V30 1664 H 143.919 0.001678 6.001 0
M  V30 1665 H 144.989 0.735553 4.79289 0
M  V30 1666 N 146.332 -1.57332 0.0918853 0
M  V30 1667 C 147.56 -1.98574 -0.581048 0
M  V30 1668 C 147.975 -0.970903 -1.61923 0
M  V30 1669 O 147.332 0.0399054 -1.82456 0
M  V30 1670 C 147.383 -3.39872 -1.23164 0
M  V30 1671 O 147.104 -4.37469 -0.234989 0
M  V30 1672 C 148.605 -3.96099 -1.99049 0
M  V30 1673 H 145.825 -0.65261 -0.156018 0
M  V30 1674 H 148.369 -2.0379 0.170225 0
M  V30 1675 H 146.524 -3.35679 -1.93386 0
M  V30 1676 H 146.938 -5.19751 -0.70418 0
M  V30 1677 H 148.412 -4.97127 -2.39934 0
M  V30 1678 H 148.889 -3.3374 -2.85507 0
M  V30 1679 H 149.495 -4.03755 -1.3365 0
M  V30 1680 N 147.81 0.181792 -1.56548 0
M  V30 1681 C 149.087 0.926765 -1.72251 0
M  V30 1682 C 149.467 2.00831 -0.650386 0
M  V30 1683 O 148.815 2.26008 0.336521 0
M  V30 1684 C 149.025 1.50106 -3.1507 0
M  V30 1685 C 150.373 1.97805 -3.75711 0
M  V30 1686 O 151.397 1.59922 -3.18282 0
M  V30 1687 O 150.256 2.67555 -4.76525 0
M  V30 1688 H 147.35 0.435506 -0.703039 0
M  V30 1689 H 149.896 0.170443 -1.68842 0
M  V30 1690 H 148.668 0.72212 -3.84579 0
M  V30 1691 H 148.291 2.32186 -3.22763 0
M  V30 1692 N 149.288 1.51039 0.449983 0
M  V30 1693 C 150.537 1.62317 1.19733 0
M  V30 1694 C 150.85 0.339101 1.92638 0
M  V30 1695 O 152.056 0.331069 2.69474 0
M  V30 1696 C 150.512 2.86608 2.17678 0
M  V30 1697 C 150.12 4.21972 1.50479 0
M  V30 1698 C 151.864 3.07239 2.92924 0
M  V30 1699 C 149.771 5.37426 2.46834 0
M  V30 1700 H 148.701 0.604532 0.450619 0
M  V30 1701 H 151.352 1.77494 0.465625 0
M  V30 1702 H 149.734 2.65037 2.94231 0
M  V30 1703 H 150.908 4.53878 0.795716 0
M  V30 1704 H 149.223 4.07117 0.874344 0
M  V30 1705 H 151.82 3.90668 3.65079 0
M  V30 1706 H 152.163 2.19807 3.5354 0
M  V30 1707 H 152.696 3.29091 2.23481 0
M  V30 1708 H 149.435 6.27079 1.90926 0
M  V30 1709 H 148.955 5.09912 3.15832 0
M  V30 1710 H 150.634 5.68862 3.08228 0
M  V30 1711 N 150.766 -0.704594 1.40972 0
M  V30 1712 C 151.996 -1.49138 1.42974 0
M  V30 1713 C 152.404 -1.89175 0.0308406 0
M  V30 1714 O 151.747 -1.56734 -0.958138 0
M  V30 1715 C 151.809 -2.79016 2.26694 0
M  V30 1716 C 151.473 -2.61236 3.74973 0
M  V30 1717 C 152.47 -2.27773 4.67349 0
M  V30 1718 C 150.155 -2.77158 4.18914 0
M  V30 1719 C 152.149 -2.10457 6.01653 0
M  V30 1720 C 149.836 -2.59459 5.53285 0
M  V30 1721 C 150.834 -2.26158 6.4447 0
M  V30 1722 O 150.522 -2.08605 7.76363 0
M  V30 1723 H 150.254 -0.466443 0.489292 0
M  V30 1724 H 152.808 -0.8758 1.85793 0
M  V30 1725 H 151.038 -3.42947 1.78673 0
M  V30 1726 H 152.727 -3.40782 2.20504 0
M  V30 1727 H 153.493 -2.15095 4.34694 0
M  V30 1728 H 149.372 -3.02064 3.48251 0
M  V30 1729 H 152.916 -1.84387 6.72791 0
M  V30 1730 H 148.813 -2.71725 5.85522 0
M  V30 1731 H 149.581 -2.23439 7.87412 0
M  V30 1732 N 152.244 -1.26651 -0.937939 0
M  V30 1733 C 153.493 -1.11775 -1.67897 0
M  V30 1734 C 153.806 0.33794 -1.92659 0
M  V30 1735 O 155.012 0.607434 -2.64618 0
M  V30 1736 C 153.468 -1.9523 -3.02346 0
M  V30 1737 C 153.076 -3.45393 -2.8532 0
M  V30 1738 C 154.82 -1.88972 -3.80118 0
M  V30 1739 C 152.727 -4.21083 -4.15263 0
M  V30 1740 H 151.657 -0.414696 -0.629717 0
M  V30 1741 H 154.308 -1.50988 -1.04283 0
M  V30 1742 H 152.69 -1.48853 -3.66959 0
M  V30 1743 H 153.864 -3.99561 -2.29537 0
M  V30 1744 H 152.179 -3.52921 -2.20988 0
M  V30 1745 H 154.776 -2.42805 -4.76392 0
M  V30 1746 H 155.119 -0.86113 -4.07296 0
M  V30 1747 H 155.652 -2.33189 -3.22285 0
M  V30 1748 H 152.391 -5.24425 -3.93267 0
M  V30 1749 H 151.911 -3.71695 -4.70747 0
M  V30 1750 H 153.59 -4.29706 -4.83696 0
M  V30 1751 N 153.722 1.14298 -1.08507 0
M  V30 1752 C 154.999 1.81544 -0.728088 0
M  V30 1753 C 155.379 1.95838 0.78808 0
M  V30 1754 O 154.727 1.51904 1.70697 0
M  V30 1755 C 154.937 3.17169 -1.45619 0
M  V30 1756 C 156.285 3.9265 -1.61591 0
M  V30 1757 O 157.309 3.26762 -1.41793 0
M  V30 1758 O 156.168 5.10807 -1.94263 0
M  V30 1759 H 153.262 0.78491 -0.260471 0
M  V30 1760 H 155.808 1.21307 -1.18671 0
M  V30 1761 H 154.58 3.01934 -2.489 0
M  V30 1762 H 154.203 3.851 -0.989124 0
M  V30 1763 N 155.201 0.870884 1.31352 0
M  V30 1764 C 156.431 0.496049 2.00557 0
M  V30 1765 C 156.839 -0.916241 1.65534 0
M  V30 1766 O 156.182 -1.61188 0.881134 0
M  V30 1767 C 156.244 0.574418 3.54881 0
M  V30 1768 C 155.908 1.94849 4.1338 0
M  V30 1769 C 156.905 2.91611 4.30417 0
M  V30 1770 C 154.59 2.25005 4.49086 0
M  V30 1771 C 156.584 4.16672 4.82352 0
M  V30 1772 C 154.271 3.50315 5.00722 0
M  V30 1773 C 155.269 4.45964 5.17306 0
M  V30 1774 O 154.957 5.69052 5.67833 0
M  V30 1775 H 154.689 0.191664 0.64826 0
M  V30 1776 H 157.243 1.17409 1.68536 0
M  V30 1777 H 155.473 -0.160549 3.86367 0
M  V30 1778 H 157.162 0.212879 4.05341 0
M  V30 1779 H 157.928 2.69622 4.03149 0
M  V30 1780 H 153.807 1.51332 4.35453 0
M  V30 1781 H 157.351 4.91336 4.95211 0
M  V30 1782 H 153.248 3.72147 5.27424 0
M  V30 1783 H 154.016 5.71236 5.86201 0
M  V30 1784 N 156.679 -1.44442 0.630414 0
M  V30 1785 C 157.907 -2.06414 0.141671 0
M  V30 1786 C 158.322 -1.47105 -1.18345 0
M  V30 1787 O 157.679 -0.593662 -1.72574 0
M  V30 1788 C 157.73 -3.61494 0.0199784 0
M  V30 1789 O 157.451 -4.18594 1.29269 0
M  V30 1790 C 158.952 -4.40499 -0.497544 0
M  V30 1791 H 156.172 -0.666292 0.0793452 0
M  V30 1792 H 158.716 -1.85323 0.864614 0
M  V30 1793 H 156.871 -3.8185 -0.653402 0
M  V30 1794 H 157.285 -5.12026 1.13707 0
M  V30 1795 H 158.759 -5.49433 -0.531708 0
M  V30 1796 H 159.236 -4.11895 -1.52445 0
M  V30 1797 H 159.842 -4.25061 0.142562 0
M  V30 1798 N 158.157 -0.370918 -1.53173 0
M  V30 1799 C 159.403 0.217423 -2.01631 0
M  V30 1800 C 159.736 1.47983 -1.25756 0
M  V30 1801 O 159.011 1.91274 -0.352764 0
M  V30 1802 C 159.294 0.503982 -3.56556 0
M  V30 1803 C 159.147 -0.77243 -4.43118 0
M  V30 1804 C 160.466 1.30234 -4.20389 0
M  V30 1805 H 157.585 0.0775486 -0.732909 0
M  V30 1806 H 160.227 -0.496863 -1.83388 0
M  V30 1807 H 158.377 1.11248 -3.72231 0
M  V30 1808 H 160.049 -1.4098 -4.39229 0
M  V30 1809 H 158.292 -1.39167 -4.10871 0
M  V30 1810 H 158.963 -0.526815 -5.4948 0
M  V30 1811 H 161.439 0.787546 -4.08579 0
M  V30 1812 H 160.315 1.47158 -5.28806 0
M  V30 1813 H 160.576 2.31237 -3.76805 0
M  V30 1814 N 159.635 1.57281 -0.100228 0
M  V30 1815 C 160.881 1.94826 0.563101 0
M  V30 1816 C 161.214 0.982475 1.67514 0
M  V30 1817 O 160.489 0.0164069 1.94493 0
M  V30 1818 C 160.772 3.42453 1.11346 0
M  V30 1819 C 160.625 4.498 0.00612081 0
M  V30 1820 C 161.944 3.91506 2.01024 0
M  V30 1821 H 159.063 0.708428 0.203221 0
M  V30 1822 H 161.705 1.8922 -0.171979 0
M  V30 1823 H 159.855 3.47361 1.7399 0
M  V30 1824 H 161.527 4.57 -0.628357 0
M  V30 1825 H 159.77 4.28756 -0.659581 0
M  V30 1826 H 160.441 5.50306 0.432109 0
M  V30 1827 H 162.917 3.88784 1.48278 0
M  V30 1828 H 161.793 4.95358 2.36457 0
M  V30 1829 H 162.054 3.31099 2.92961 0
M  V30 1830 N 161.113 -0.173488 1.56642 0
M  V30 1831 C 162.023 -1.23482 1.99473 0
M  V30 1832 C 163.039 -1.48567 0.905752 0
M  V30 1833 O 164.215 -1.60758 1.21321 0
M  V30 1834 C 161.28 -2.55444 2.34413 0
M  V30 1835 C 160.341 -2.38241 3.57127 0
M  V30 1836 C 159.574 -3.63909 3.90392 0
M  V30 1837 O 159.797 -4.68996 3.24653 0
M  V30 1838 O 158.731 -3.58149 4.83749 0
M  V30 1839 H 162.557 -0.901279 2.90018 0
M  V30 1840 H 160.142 -0.380185 1.44482 0
M  V30 1841 H 162.024 -3.33292 2.57865 0
M  V30 1842 H 160.699 -2.88382 1.4703 0
M  V30 1843 H 159.606 -1.58431 3.38896 0
M  V30 1844 H 160.939 -2.10228 4.45045 0
M  V30 1845 N 162.591 -1.51276 -0.441967 0
M  V30 1846 C 163.868 -1.54252 -1.20273 0
M  V30 1847 C 164.248 -0.30408 -2.08898 0
M  V30 1848 O 163.596 0.711084 -2.17154 0
M  V30 1849 C 163.806 -2.85406 -2.00859 0
M  V30 1850 C 165.154 -3.37181 -2.58059 0
M  V30 1851 O 166.178 -2.86925 -2.11074 0
M  V30 1852 O 165.037 -4.24858 -3.43741 0
M  V30 1853 H 162.131 -0.619969 -0.547328 0
M  V30 1854 H 164.677 -1.63586 -0.451413 0
M  V30 1855 H 163.449 -3.67003 -1.35736 0
M  V30 1856 H 163.072 -2.79213 -2.83065 0
M  V30 1857 N 164.069 0.697108 -1.41344 0
M  V30 1858 C 164.999 1.82353 -1.45841 0
M  V30 1859 C 165.98 1.67115 -0.317247 0
M  V30 1860 O 167.165 1.86871 -0.528474 0
M  V30 1861 C 164.295 3.20476 -1.33838 0
M  V30 1862 C 163.249 3.50415 -2.4575 0
M  V30 1863 C 162.575 4.87878 -2.18813 0
M  V30 1864 C 163.875 3.49546 -3.88091 0
M  V30 1865 H 165.569 1.78846 -2.40113 0
M  V30 1866 H 163.115 0.859028 -1.15571 0
M  V30 1867 H 165.068 3.98988 -1.35596 0
M  V30 1868 H 163.792 3.24604 -0.360498 0
M  V30 1869 H 162.451 2.74253 -2.43271 0
M  V30 1870 H 162.099 4.8863 -1.19371 0
M  V30 1871 H 161.799 5.08875 -2.93803 0
M  V30 1872 H 163.323 5.68702 -2.22284 0
M  V30 1873 H 164.737 4.18066 -3.92293 0
M  V30 1874 H 163.134 3.82075 -4.62751 0
M  V30 1875 H 164.204 2.48552 -4.16353 0
M  V30 1876 N 165.547 1.27147 0.931209 0
M  V30 1877 C 166.51 1.09615 2.01289 0
M  V30 1878 C 167.51 0.0412581 1.60747 0
M  V30 1879 O 168.7 0.285545 1.71844 0
M  V30 1880 C 165.832 0.669447 3.34262 0
M  V30 1881 H 167.025 2.05662 2.18273 0
M  V30 1882 H 164.578 1.09885 1.11153 0
M  V30 1883 H 165.313 -0.292572 3.22978 0
M  V30 1884 H 165.098 1.43127 3.65044 0
M  V30 1885 H 166.588 0.568921 4.13706 0
M  V30 1886 N 167.025 -1.13721 1.09112 0
M  V30 1887 C 167.972 -2.19031 0.727591 0
M  V30 1888 C 168.942 -1.63555 -0.289656 0
M  V30 1889 O 170.127 -1.90023 -0.172026 0
M  V30 1890 C 167.267 -3.4477 0.15082 0
M  V30 1891 C 166.38 -4.14365 1.22172 0
M  V30 1892 C 165.515 -5.27709 0.608042 0
M  V30 1893 C 164.554 -5.89147 1.66047 0
M  V30 1894 N 163.691 -6.93929 1.06806 0
M  V30 1895 H 168.531 -2.49475 1.62991 0
M  V30 1896 H 166.068 -1.22499 0.81439 0
M  V30 1897 H 168.026 -4.16714 -0.201358 0
M  V30 1898 H 166.656 -3.14787 -0.714783 0
M  V30 1899 H 165.708 -3.40737 1.69122 0
M  V30 1900 H 167.02 -4.56114 2.01895 0
M  V30 1901 H 166.174 -6.06355 0.204523 0
M  V30 1902 H 164.913 -4.872 -0.220769 0
M  V30 1903 H 163.918 -5.09198 2.07357 0
M  V30 1904 H 165.143 -6.31729 2.49189 0
M  V30 1905 H 163.089 -6.55483 0.260476 0
M  V30 1906 H 163.006 -7.34202 1.8023 0
M  V30 1907 H 164.274 -7.76434 0.690644 0
M  V30 1908 N 168.503 -0.877838 -1.30888 0
M  V30 1909 C 169.453 -0.310872 -2.25871 0
M  V30 1910 C 170.437 0.556596 -1.50966 0
M  V30 1911 O 171.629 0.402187 -1.7237 0
M  V30 1912 C 168.758 0.479821 -3.3993 0
M  V30 1913 C 167.844 -0.401333 -4.22197 0
M  V30 1914 N 168.235 -1.49848 -4.83093 0
M  V30 1915 C 166.533 -0.195167 -4.45573 0
M  V30 1916 C 167.234 -2.0425 -5.44662 0
M  V30 1917 N 166.21 -1.33843 -5.26865 0
M  V30 1918 H 170.012 -1.1493 -2.70496 0
M  V30 1919 H 167.526 -0.726458 -1.45246 0
M  V30 1920 H 169.523 0.902582 -4.07012 0
M  V30 1921 H 168.183 1.31577 -2.96846 0
M  V30 1922 H 169.194 -1.88137 -4.82519 0
M  V30 1923 H 165.871 0.604192 -4.13105 0
M  V30 1924 H 167.261 -2.96345 -6.03017 0
M  V30 1925 N 169.982 1.44106 -0.638065 0
M  V30 1926 C 170.945 2.29138 0.0531013 0
M  V30 1927 C 171.945 1.41409 0.765506 0
M  V30 1928 O 173.135 1.63206 0.609046 0
M  V30 1929 C 170.267 3.23144 1.08584 0
M  V30 1930 H 171.46 2.91739 -0.694883 0
M  V30 1931 H 169.013 1.51134 -0.398538 0
M  V30 1932 H 169.748 2.65408 1.86357 0
M  V30 1933 H 169.533 3.87804 0.578852 0
M  V30 1934 H 171.023 3.87004 1.56899 0
M  V30 1935 N 171.46 0.379036 1.52974 0
M  V30 1936 C 172.706 -0.206727 2.01744 0
M  V30 1937 C 173.039 -1.47314 1.26539 0
M  V30 1938 O 172.314 -1.91084 0.362903 0
M  V30 1939 C 172.597 -0.485066 3.56818 0
M  V30 1940 C 172.45 0.795919 4.42702 0
M  V30 1941 C 173.769 -1.28003 4.21074 0
M  V30 1942 H 170.888 -0.0736607 0.73331 0
M  V30 1943 H 173.53 0.506581 1.83122 0
M  V30 1944 H 171.68 -1.09272 3.72816 0
M  V30 1945 H 173.352 1.43307 4.38476 0
M  V30 1946 H 171.595 1.41344 4.10127 0
M  V30 1947 H 172.266 0.555947 5.49193 0
M  V30 1948 H 174.742 -0.765867 4.08991 0
M  V30 1949 H 173.618 -1.44352 5.29579 0
M  V30 1950 H 173.879 -2.29236 3.78026 0
M  V30 1951 N 172.938 -1.57226 0.108567 0
M  V30 1952 C 174.185 -1.94833 -0.551943 0
M  V30 1953 C 174.513 -0.991204 -1.67348 0
M  V30 1954 O 173.768 -0.0131878 -1.95696 0
M  V30 1955 C 174.067 -3.38911 -1.13463 0
M  V30 1956 C 173.733 -4.50696 -0.135509 0
M  V30 1957 C 172.395 -4.80998 0.139252 0
M  V30 1958 C 174.747 -5.18333 0.545957 0
M  V30 1959 C 172.075 -5.76259 1.10194 0
M  V30 1960 C 174.427 -6.14627 1.49721 0
M  V30 1961 C 173.091 -6.43327 1.78006 0
M  V30 1962 H 172.361 -0.712944 -0.20197 0
M  V30 1963 H 175.008 -1.90582 0.18726 0
M  V30 1964 H 173.313 -3.39805 -1.95037 0
M  V30 1965 H 175.01 -3.65317 -1.65362 0
M  V30 1966 H 171.6 -4.27087 -0.359846 0
M  V30 1967 H 175.784 -4.95087 0.346842 0
M  V30 1968 H 171.04 -5.96804 1.32795 0
M  V30 1969 H 175.214 -6.66126 2.03099 0
M  V30 1970 H 172.841 -7.1695 2.52759 0
M  V30 1971 N 174.416 0.165178 -1.56732 0
M  V30 1972 C 175.364 1.22369 -1.97809 0
M  V30 1973 C 176.358 1.45488 -0.867741 0
M  V30 1974 O 177.564 1.45995 -1.05288 0
M  V30 1975 H 173.939 0.411486 -0.629431 0
M  V30 1976 H 175.91 0.850425 -2.86025 0
M  V30 1977 C 174.659 2.55403 -2.35934 0
M  V30 1978 H 173.982 2.38438 -3.20916 0
M  V30 1979 H 175.422 3.2814 -2.68514 0
M  V30 1980 C 173.881 3.14611 -1.20506 0
M  V30 1981 O 174.411 3.98626 -0.496016 0
M  V30 1982 N 172.617 2.7379 -0.97403 0
M  V30 1983 H 172.164 2.0557 -1.55238 0
M  V30 1984 H 172.122 3.1374 -0.203573 0
M  V30 1985 N 175.894 1.51508 0.433938 0
M  V30 1986 C 176.841 1.73068 1.52696 0
M  V30 1987 C 177.811 0.572441 1.55924 0
M  V30 1988 O 178.996 0.807253 1.72882 0
M  V30 1989 C 176.136 1.86474 2.90381 0
M  V30 1990 C 175.249 3.14037 2.96656 0
M  V30 1991 C 174.384 3.18019 4.25485 0
M  V30 1992 C 173.423 4.39882 4.2564 0
M  V30 1993 N 172.56 4.41394 5.45999 0
M  V30 1994 H 177.4 2.66366 1.33615 0
M  V30 1995 H 174.937 1.32008 0.649018 0
M  V30 1996 H 176.895 1.92229 3.70275 0
M  V30 1997 H 175.525 0.965809 3.08013 0
M  V30 1998 H 174.577 3.17575 2.09404 0
M  V30 1999 H 175.889 4.0394 2.92633 0
M  V30 2000 H 175.043 3.22708 5.13755 0
M  V30 2001 H 173.782 2.2601 4.3217 0
M  V30 2002 H 172.787 4.35366 3.35763 0
M  V30 2003 H 174.012 5.33159 4.20617 0
M  V30 2004 H 171.958 3.52258 5.53399 0
M  V30 2005 H 171.875 5.25111 5.4387 0
M  V30 2006 H 173.143 4.50281 6.36292 0
M  V30 2007 N 177.372 -0.689602 1.41712 0
M  V30 2008 C 178.602 -1.47613 1.44548 0
M  V30 2009 C 179.01 -1.89132 0.0509034 0
M  V30 2010 O 178.353 -1.57741 -0.94146 0
M  V30 2011 C 178.415 -2.76596 2.2964 0
M  V30 2012 C 178.079 -2.57245 3.77722 0
M  V30 2013 C 179.076 -2.22804 4.69739 0
M  V30 2014 C 176.761 -2.727 4.2183 0
M  V30 2015 C 178.755 -2.04064 6.03851 0
M  V30 2016 C 176.442 -2.53576 5.56006 0
M  V30 2017 C 177.44 -2.1931 6.46832 0
M  V30 2018 O 177.128 -2.00359 7.78532 0
M  V30 2019 H 176.86 -0.461227 0.494212 0
M  V30 2020 H 179.414 -0.856045 1.86711 0
M  V30 2021 H 177.644 -3.41033 1.82301 0
M  V30 2022 H 179.333 -3.38424 2.24107 0
M  V30 2023 H 180.099 -2.10473 4.36951 0
M  V30 2024 H 175.978 -2.98353 3.51435 0
M  V30 2025 H 179.522 -1.77241 6.74708 0
M  V30 2026 H 175.419 -2.65499 5.88371 0
M  V30 2027 H 176.187 -2.15075 7.89737 0
M  V30 2028 N 178.85 -1.27639 -0.924453 0
M  V30 2029 C 179.797 -1.10644 -2.0255 0
M  V30 2030 C 180.767 -0.00658438 -1.66099 0
M  V30 2031 O 181.952 -0.16952 -1.90045 0
M  V30 2032 C 179.092 -0.76309 -3.36557 0
M  V30 2033 C 178.205 -1.94091 -3.85944 0
M  V30 2034 C 177.34 -1.53914 -5.08413 0
M  V30 2035 C 176.379 -2.68425 -5.50104 0
M  V30 2036 N 175.516 -2.28815 -6.63768 0
M  V30 2037 H 180.356 -2.04858 -2.16419 0
M  V30 2038 H 177.893 -1.01974 -1.06017 0
M  V30 2039 H 179.851 -0.544822 -4.13627 0
M  V30 2040 H 178.481 0.142102 -3.22487 0
M  V30 2041 H 177.533 -2.27162 -3.05125 0
M  V30 2042 H 178.845 -2.7998 -4.12811 0
M  V30 2043 H 177.999 -1.28231 -5.92994 0
M  V30 2044 H 176.738 -0.651391 -4.8333 0
M  V30 2045 H 175.743 -2.94819 -4.64071 0
M  V30 2046 H 176.968 -3.57826 -5.7718 0
M  V30 2047 H 174.914 -1.42495 -6.40337 0
M  V30 2048 H 174.831 -3.08242 -6.90306 0
M  V30 2049 H 176.099 -2.06387 -7.51681 0
M  V30 2050 N 180.328 1.1314 -1.09713 0
M  V30 2051 C 181.238 2.22242 -0.751367 0
M  V30 2052 C 182.254 1.72224 0.247938 0
M  V30 2053 O 183.43 2.01205 0.0885463 0
M  V30 2054 C 180.495 3.46231 -0.180274 0
M  V30 2055 C 179.556 4.11125 -1.2359 0
M  V30 2056 C 178.789 5.29195 -0.691966 0
M  V30 2057 O 179.012 5.68342 0.48414 0
M  V30 2058 O 177.946 5.84214 -1.44838 0
M  V30 2059 H 181.772 2.54197 -1.66186 0
M  V30 2060 H 179.357 1.21331 -0.871735 0
M  V30 2061 H 181.239 4.21185 0.134739 0
M  V30 2062 H 179.914 3.1597 0.703185 0
M  V30 2063 H 178.821 3.37985 -1.60366 0
M  V30 2064 H 180.154 4.45524 -2.09211 0
M  V30 2065 N 181.806 0.884767 1.30421 0
M  V30 2066 C 183.054 0.502112 1.95763 0
M  V30 2067 C 183.375 -0.951815 1.70192 0
M  V30 2068 O 182.645 -1.6692 1.0254 0
M  V30 2069 H 181.225 0.182694 0.724315 0
M  V30 2070 H 183.887 1.1278 1.58955 0
M  V30 2071 H 182.983 0.672188 3.04775 0
M  V30 2072 N 183.284 -1.43765 0.645699 0
M  V30 2073 C 184.53 -2.02197 0.156271 0
M  V30 2074 C 184.863 -1.50776 -1.22393 0
M  V30 2075 O 184.138 -0.697771 -1.81553 0
M  V30 2076 C 184.421 -3.59749 0.158872 0
M  V30 2077 C 184.274 -4.21419 1.57245 0
M  V30 2078 C 185.593 -4.37149 -0.50879 0
M  V30 2079 H 182.712 -0.734694 0.0582602 0
M  V30 2080 H 185.354 -1.71157 0.824951 0
M  V30 2081 H 183.504 -3.86325 -0.410525 0
M  V30 2082 H 185.176 -4.059 2.19186 0
M  V30 2083 H 183.419 -3.78356 2.122 0
M  V30 2084 H 184.09 -5.30482 1.52619 0
M  V30 2085 H 186.566 -4.16093 -0.024412 0
M  V30 2086 H 185.442 -5.4683 -0.476213 0
M  V30 2087 H 185.703 -4.12839 -1.58165 0
M  V30 2088 N 184.763 -0.387143 -1.52771 0
M  V30 2089 C 186.009 0.196025 -2.0185 0
M  V30 2090 C 186.342 1.46641 -1.27319 0
M  V30 2091 O 185.617 1.90889 -0.373032 0
M  V30 2092 C 185.9 0.466136 -3.5707 0
M  V30 2093 C 185.753 -0.819385 -4.42274 0
M  V30 2094 C 187.072 1.25768 -4.21747 0
M  V30 2095 H 184.191 0.0697708 -0.73369 0
M  V30 2096 H 186.833 -0.516286 -1.82851 0
M  V30 2097 H 184.983 1.07293 -3.7339 0
M  V30 2098 H 186.655 -1.4563 -4.37709 0
M  V30 2099 H 184.898 -1.43517 -4.09372 0
M  V30 2100 H 185.569 -0.585065 -5.48891 0
M  V30 2101 H 188.045 0.744167 -4.09391 0
M  V30 2102 H 186.921 1.41541 -5.30337 0
M  V30 2103 H 187.182 2.27228 -3.79236 0
M  V30 2104 N 186.241 1.57166 -0.116904 0
M  V30 2105 C 187.171 2.18222 0.830759 0
M  V30 2106 C 188.152 1.12167 1.27877 0
M  V30 2107 O 189.337 1.40394 1.34176 0
M  V30 2108 C 186.467 2.77996 2.08172 0
M  V30 2109 C 185.421 3.89614 1.77157 0
M  V30 2110 C 184.747 4.36187 3.09265 0
M  V30 2111 C 186.047 5.1181 1.04151 0
M  V30 2112 H 187.741 2.97664 0.321992 0
M  V30 2113 H 185.287 1.4318 0.153434 0
M  V30 2114 H 187.24 3.19366 2.74924 0
M  V30 2115 H 185.964 1.9584 2.6137 0
M  V30 2116 H 184.623 3.48816 1.12796 0
M  V30 2117 H 184.271 3.50893 3.60393 0
M  V30 2118 H 183.971 5.11455 2.89288 0
M  V30 2119 H 185.495 4.80207 3.77139 0
M  V30 2120 H 186.909 5.50214 1.61052 0
M  V30 2121 H 185.306 5.92648 0.942762 0
M  V30 2122 H 186.376 4.84892 0.0279022 0
M  V30 2123 N 187.719 -0.156864 1.56817 0
M  V30 2124 C 188.652 -1.22316 1.9265 0
M  V30 2125 C 189.63 -1.42059 0.791076 0
M  V30 2126 O 190.814 -1.56831 1.04576 0
M  V30 2127 C 187.941 -2.58375 2.18998 0
M  V30 2128 C 186.987 -2.55284 3.41661 0
M  V30 2129 S 187.82 -2.02946 4.95553 0
M  V30 2130 C 188.976 -3.40753 5.25013 0
M  V30 2131 H 189.209 -0.917403 2.82791 0
M  V30 2132 H 186.742 -0.362059 1.50095 0
M  V30 2133 H 188.7 -3.36677 2.34859 0
M  V30 2134 H 187.361 -2.86145 1.29538 0
M  V30 2135 H 186.554 -3.55418 3.57343 0
M  V30 2136 H 186.156 -1.85086 3.24991 0
M  V30 2137 H 188.448 -4.36819 5.17876 0
M  V30 2138 H 189.391 -3.29933 6.26538 0
M  V30 2139 H 189.799 -3.37433 4.52548 0
M  V30 2140 N 189.197 -1.51736 -0.425897 0
M  V30 2141 C 190.107 -1.76738 -1.54275 0
M  V30 2142 C 191.123 -0.65211 -1.61318 0
M  V30 2143 O 192.299 -0.935654 -1.78346 0
M  V30 2144 C 189.364 -1.89755 -2.90162 0
M  V30 2145 C 188.425 -3.13633 -2.93143 0
M  V30 2146 C 187.658 -3.2602 -4.22548 0
M  V30 2147 O 187.881 -2.44067 -5.15546 0
M  V30 2148 O 186.815 -4.19071 -4.32046 0
M  V30 2149 H 190.641 -2.71502 -1.36089 0
M  V30 2150 H 188.226 -1.36376 -0.610069 0
M  V30 2151 H 190.108 -2.00236 -3.70788 0
M  V30 2152 H 188.783 -0.981785 -3.08452 0
M  V30 2153 H 187.69 -3.08622 -2.11431 0
M  V30 2154 H 189.023 -4.04936 -2.798 0
M  V30 2155 N 190.675 0.682077 -1.42076 0
M  V30 2156 C 191.922 1.44215 -1.42156 0
M  V30 2157 C 192.25 1.94468 -0.0354186 0
M  V30 2158 O 191.505 1.70816 0.955002 0
M  V30 2159 C 191.804 2.66036 -2.38662 0
M  V30 2160 C 191.47 2.34366 -3.85206 0
M  V30 2161 C 190.132 2.25439 -4.25124 0
M  V30 2162 C 192.484 2.08513 -4.77673 0
M  V30 2163 C 189.812 1.88775 -5.55501 0
M  V30 2164 C 192.164 1.73354 -6.08384 0
M  V30 2165 C 190.828 1.62933 -6.47309 0
M  V30 2166 H 190.098 0.527718 -0.520187 0
M  V30 2167 H 192.745 0.778387 -1.74967 0
M  V30 2168 H 191.05 3.3741 -1.99152 0
M  V30 2169 H 192.747 3.24205 -2.35991 0
M  V30 2170 H 189.337 2.42213 -3.53597 0
M  V30 2171 H 193.521 2.14346 -4.47626 0
M  V30 2172 H 188.777 1.7927 -5.84527 0
M  V30 2173 H 192.951 1.52373 -6.79526 0
M  V30 2174 H 190.578 1.34292 -7.48244 0
M  V30 2175 N 192.153 1.28127 0.917671 0
M  V30 2176 C 193.569 1.05749 1.19538 0
M  V30 2177 C 193.769 -0.202633 2.00479 0
M  V30 2178 O 192.825 -0.905382 2.3571 0
M  V30 2179 C 194.138 2.30273 1.93378 0
M  V30 2180 C 195.686 2.35412 2.06277 0
M  V30 2181 C 196.161 3.59692 2.83524 0
M  V30 2182 N 197.652 3.60309 2.91087 0
M  V30 2183 C 198.387 4.53147 3.51348 0
M  V30 2184 N 197.883 5.563 4.12919 0
M  V30 2185 N 199.676 4.40751 3.48849 0
M  V30 2186 H 191.827 2.09024 0.377184 0
M  V30 2187 H 194.09 0.919798 0.22951 0
M  V30 2188 H 193.796 3.22055 1.41328 0
M  V30 2189 H 193.67 2.36378 2.93947 0
M  V30 2190 H 196.057 1.4413 2.57508 0
M  V30 2191 H 196.138 2.33304 1.04895 0
M  V30 2192 H 195.782 4.51316 2.32973 0
M  V30 2193 H 195.712 3.59054 3.85211 0
M  V30 2194 H 198.203 2.85714 2.47338 0
M  V30 2195 H 198.516 6.2329 4.56869 0
M  V30 2196 H 196.861 5.60131 4.11435 0
M  V30 2197 H 200.052 3.59367 2.99955 0
M  V30 2198 H 200.225 5.13291 3.9552 0
M  V30 2199 N 193.631 -1.12557 1.10312 0
M  V30 2200 C 194.861 -1.87592 0.865617 0
M  V30 2201 C 195.269 -1.79851 -0.587389 0
M  V30 2202 O 194.612 -1.16949 -1.41664 0
M  V30 2203 C 194.674 -3.37665 1.23381 0
M  V30 2204 C 194.338 -3.69181 2.69359 0
M  V30 2205 C 195.335 -3.67652 3.67597 0
M  V30 2206 C 193.02 -3.98555 3.05711 0
M  V30 2207 C 195.014 -3.95053 5.00212 0
M  V30 2208 C 192.701 -4.25616 4.38514 0
M  V30 2209 C 193.699 -4.23851 5.35574 0
M  V30 2210 O 193.387 -4.50242 6.65986 0
M  V30 2211 H 193.119 -0.600442 0.310557 0
M  V30 2212 H 195.673 -1.4335 1.47105 0
M  V30 2213 H 193.903 -3.82454 0.571467 0
M  V30 2214 H 195.592 -3.94041 0.973994 0
M  V30 2215 H 196.358 -3.45024 3.40857 0
M  V30 2216 H 192.237 -3.99071 2.30789 0
M  V30 2217 H 195.781 -3.93591 5.75962 0
M  V30 2218 H 191.678 -4.47718 4.64994 0
M  V30 2219 H 192.446 -4.67867 6.71597 0
M  V30 2220 N 195.109 -0.891671 -1.2995 0
M  V30 2221 C 196.334 -0.527932 -2.00568 0
M  V30 2222 C 196.759 0.877969 -1.66353 0
M  V30 2223 O 196.117 1.58301 -0.883762 0
M  V30 2224 C 196.165 -0.717745 -3.53385 0
M  V30 2225 O 195.269 0.233376 -4.11739 0
M  V30 2226 H 194.61 -0.20722 -0.630837 0
M  V30 2227 H 197.14 -1.20105 -1.65638 0
M  V30 2228 H 197.15 -0.619307 -4.03272 0
M  V30 2229 H 195.825 -1.74276 -3.77625 0
M  V30 2230 H 194.402 0.0880706 -3.72796 0
M  V30 2231 N 196.587 1.43421 -0.653314 0
M  V30 2232 C 197.998 1.85065 -0.246537 0
M  V30 2233 C 198.349 1.54688 1.2069 0
M  V30 2234 O 197.474 0.995896 1.92122 0
M  V30 2235 C 198.069 3.35922 -0.440666 0
M  V30 2236 C 196.628 3.76297 -0.0882064 0
M  V30 2237 C 195.775 2.67147 -0.743484 0
M  V30 2238 H 198.726 1.33572 -0.856979 0
M  V30 2239 H 198.747 3.79204 0.313798 0
M  V30 2240 H 198.259 3.58 -1.49858 0
M  V30 2241 H 196.36 3.5983 0.96711 0
M  V30 2242 H 196.473 4.76338 -0.513738 0
M  V30 2243 H 194.837 2.54086 -0.176712 0
M  V30 2244 H 195.62 2.92053 -1.80443 0
M  V30 2245 N 198.065 0.39524 1.52563 0
M  V30 2246 C 199.29 -0.187456 2.06551 0
M  V30 2247 C 199.715 -1.39249 1.26457 0
M  V30 2248 O 199.073 -1.78947 0.291151 0
M  V30 2249 C 199.121 -0.529985 3.56684 0
M  V30 2250 O 198.225 -1.62307 3.79118 0
M  V30 2251 H 197.566 -0.0202537 0.663691 0
M  V30 2252 H 200.096 0.564426 1.96661 0
M  V30 2253 H 200.106 -0.792598 4.00227 0
M  V30 2254 H 198.781 0.350987 4.14416 0
M  V30 2255 H 197.358 -1.3537 3.47461 0
M  V30 2256 N 199.544 -1.57102 0.125237 0
M  V30 2257 C 200.791 -1.95407 -0.531248 0
M  V30 2258 C 201.119 -1.0089 -1.66287 0
M  V30 2259 O 200.374 -0.0339431 -1.95671 0
M  V30 2260 C 200.673 -3.40096 -1.09862 0
M  V30 2261 C 200.339 -4.50815 -0.0876989 0
M  V30 2262 C 199.001 -4.80824 0.19026 0
M  V30 2263 C 201.353 -5.17724 0.600902 0
M  V30 2264 C 198.681 -5.75058 1.163 0
M  V30 2265 C 201.033 -6.13005 1.56231 0
M  V30 2266 C 199.697 -6.41403 1.8482 0
M  V30 2267 H 198.967 -0.715046 -0.194397 0
M  V30 2268 H 201.614 -1.90373 0.207463 0
M  V30 2269 H 199.919 -3.41855 -1.91422 0
M  V30 2270 H 201.616 -3.6705 -1.61478 0
M  V30 2271 H 198.206 -4.27444 -0.314528 0
M  V30 2272 H 202.39 -4.94691 0.399333 0
M  V30 2273 H 197.646 -5.95362 1.39117 0
M  V30 2274 H 201.82 -6.63934 2.10153 0
M  V30 2275 H 199.447 -7.14229 2.60349 0
M  V30 2276 N 201.022 0.148545 -1.56898 0
M  V30 2277 C 201.955 1.21293 -1.93296 0
M  V30 2278 C 202.933 1.41637 -0.798599 0
M  V30 2279 O 204.117 1.56275 -1.05406 0
M  V30 2280 C 201.244 2.5721 -2.20365 0
M  V30 2281 C 200.29 2.53469 -3.4301 0
M  V30 2282 S 201.123 2.00315 -4.96623 0
M  V30 2283 C 202.279 3.37964 -5.26812 0
M  V30 2284 H 202.512 0.902393 -2.83274 0
M  V30 2285 H 200.045 0.354094 -1.50285 0
M  V30 2286 H 202.003 3.35427 -2.36641 0
M  V30 2287 H 200.664 2.85454 -1.31054 0
M  V30 2288 H 199.857 3.53518 -3.59223 0
M  V30 2289 H 199.459 1.83359 -3.25968 0
M  V30 2290 H 201.751 4.34066 -5.20185 0
M  V30 2291 H 202.694 3.26606 -6.28279 0
M  V30 2292 H 203.102 3.35028 -4.54331 0
M  V30 2293 N 202.5 1.5196 0.417844 0
M  V30 2294 C 203.725 1.69717 1.1921 0
M  V30 2295 C 204.15 0.402148 1.83751 0
M  V30 2296 O 203.508 -0.639593 1.69643 0
M  V30 2297 C 203.556 2.82794 2.2374 0
M  V30 2298 O 202.66 2.47756 3.29683 0
M  V30 2299 H 202.001 0.565263 0.348387 0
M  V30 2300 H 204.531 1.98621 0.490985 0
M  V30 2301 H 204.541 3.07452 2.68212 0
M  V30 2302 H 203.216 3.76756 1.76146 0
M  V30 2303 H 201.793 2.33739 2.90552 0
M  V30 2304 N 203.978 -0.674533 1.42435 0
M  V30 2305 C 205.225 -1.43459 1.42919 0
M  V30 2306 C 205.553 -1.94446 0.0457312 0
M  V30 2307 O 204.808 -1.7132 -0.94593 0
M  V30 2308 C 205.107 -2.64767 2.40069 0
M  V30 2309 C 204.773 -2.3232 3.86443 0
M  V30 2310 C 203.435 -2.23182 4.26314 0
M  V30 2311 C 205.787 -2.05977 4.78773 0
M  V30 2312 C 203.115 -1.85827 5.56494 0
M  V30 2313 C 205.467 -1.70125 6.09295 0
M  V30 2314 C 204.131 -1.59498 6.48164 0
M  V30 2315 H 203.401 -0.524952 0.522978 0
M  V30 2316 H 206.048 -0.769097 1.75377 0
M  V30 2317 H 204.353 -3.36349 2.00939 0
M  V30 2318 H 206.05 -3.22949 2.37707 0
M  V30 2319 H 202.64 -2.40334 3.54877 0
M  V30 2320 H 206.824 -2.11969 4.48757 0
M  V30 2321 H 202.08 -1.76168 5.8547 0
M  V30 2322 H 206.254 -1.48767 6.80324 0
M  V30 2323 H 203.881 -1.30322 7.48946 0
M  V30 2324 N 205.456 -1.28612 -0.910864 0
M  V30 2325 C 206.403 -1.12786 -2.01365 0
M  V30 2326 C 207.373 -0.024201 -1.66082 0
M  V30 2327 O 208.558 -0.189667 -1.89855 0
M  V30 2328 C 205.698 -0.798743 -3.35729 0
M  V30 2329 C 204.811 -1.98173 -3.83864 0
M  V30 2330 C 203.946 -1.59298 -5.06752 0
M  V30 2331 C 202.985 -2.74245 -5.47226 0
M  V30 2332 N 202.122 -2.35842 -6.61304 0
M  V30 2333 H 206.962 -2.07142 -2.14234 0
M  V30 2334 H 204.499 -1.03093 -1.0493 0
M  V30 2335 H 206.457 -0.588662 -4.13026 0
M  V30 2336 H 205.087 0.10789 -3.2262 0
M  V30 2337 H 204.139 -2.30386 -3.02699 0
M  V30 2338 H 205.451 -2.84343 -4.09818 0
M  V30 2339 H 204.605 -1.34513 -5.916 0
M  V30 2340 H 203.344 -0.702618 -4.82612 0
M  V30 2341 H 202.349 -2.99725 -4.60918 0
M  V30 2342 H 203.574 -3.63928 -5.73353 0
M  V30 2343 H 201.52 -1.49279 -6.38789 0
M  V30 2344 H 201.437 -3.15546 -6.86998 0
M  V30 2345 H 202.705 -2.14348 -7.4945 0
M  V30 2346 N 206.934 1.1197 -1.10907 0
M  V30 2347 C 207.884 2.15946 -0.731538 0
M  V30 2348 C 208.868 1.58758 0.261699 0
M  V30 2349 O 210.06 1.76863 0.0696722 0
M  V30 2350 C 207.189 3.42877 -0.170299 0
M  V30 2351 C 206.275 4.07037 -1.19087 0
M  V30 2352 N 206.666 4.46135 -2.38322 0
M  V30 2353 C 204.964 4.33884 -1.03252 0
M  V30 2354 C 205.665 4.96331 -3.03366 0
M  V30 2355 N 204.641 4.9214 -2.30865 0
M  V30 2356 H 208.443 2.43947 -1.63912 0
M  V30 2357 H 205.957 1.28927 -0.987505 0
M  V30 2358 H 207.954 4.16732 0.118271 0
M  V30 2359 H 206.614 3.16343 0.731935 0
M  V30 2360 H 207.625 4.38345 -2.75815 0
M  V30 2361 H 204.302 4.17084 -0.186256 0
M  V30 2362 H 205.692 5.36257 -4.04818 0
M  V30 2363 N 208.412 0.89855 1.29475 0
M  V30 2364 C 209.36 0.365253 2.29714 0
M  V30 2365 C 210.354 -0.534993 1.6073 0
M  V30 2366 O 211.56 -0.417921 1.75081 0
M  V30 2367 H 207.935 0.0994853 0.74539 0
M  V30 2368 H 209.906 1.22406 2.72138 0
M  V30 2369 C 208.655 -0.393159 3.4547 0
M  V30 2370 H 207.978 0.290332 3.98744 0
M  V30 2371 H 209.418 -0.731189 4.17648 0
M  V30 2372 C 207.877 -1.59539 2.9673 0
M  V30 2373 O 208.407 -2.69469 2.97908 0
M  V30 2374 N 206.613 -1.43716 2.52575 0
M  V30 2375 H 206.16 -0.542828 2.51816 0
M  V30 2376 H 206.118 -2.24288 2.20323 0
M  V30 2377 N 209.89 -1.43072 0.660911 0
M  V30 2378 C 210.82 -2.33497 -0.0122829 0
M  V30 2379 C 211.801 -1.49903 -0.803925 0
M  V30 2380 O 212.986 -1.78546 -0.763864 0
M  V30 2381 C 210.116 -3.33363 -0.973994 0
M  V30 2382 C 209.07 -4.27003 -0.291928 0
M  V30 2383 C 208.396 -5.16967 -1.36562 0
M  V30 2384 C 209.696 -5.15816 0.820462 0
M  V30 2385 H 211.39 -2.90038 0.742873 0
M  V30 2386 H 208.936 -1.39461 0.358688 0
M  V30 2387 H 210.889 -3.95524 -1.45392 0
M  V30 2388 H 209.613 -2.75095 -1.7604 0
M  V30 2389 H 208.272 -3.66217 0.167623 0
M  V30 2390 H 207.92 -4.55034 -2.14366 0
M  V30 2391 H 207.62 -5.80441 -0.914454 0
M  V30 2392 H 209.144 -5.82003 -1.84675 0
M  V30 2393 H 210.558 -5.71742 0.422366 0
M  V30 2394 H 208.955 -5.8805 1.19656 0
M  V30 2395 H 210.025 -4.55045 1.67518 0
M  V30 2396 N 211.368 -0.403325 -1.52352 0
M  V30 2397 C 212.645 0.232611 -1.94212 0
M  V30 2398 C 213.025 1.63133 -1.33981 0
M  V30 2399 O 212.373 2.22659 -0.513344 0
M  V30 2400 C 212.583 0.244811 -3.4814 0
M  V30 2401 C 213.931 0.46698 -4.22024 0
M  V30 2402 O 214.955 0.324419 -3.5472 0
M  V30 2403 O 213.814 0.74747 -5.41364 0
M  V30 2404 H 210.908 0.148223 -0.813609 0
M  V30 2405 H 213.454 -0.458848 -1.63379 0
M  V30 2406 H 212.226 -0.734378 -3.84347 0
M  V30 2407 H 211.849 0.980611 -3.85318 0
M  V30 2408 N 212.846 1.57033 -0.133567 0
M  V30 2409 C 213.793 2.16074 0.811208 0
M  V30 2410 C 214.763 1.08979 1.2535 0
M  V30 2411 O 215.948 1.36958 1.32843 0
M  V30 2412 C 213.088 2.77595 2.05024 0
M  V30 2413 C 212.201 3.99042 1.65498 0
M  V30 2414 C 211.336 4.48603 2.84479 0
M  V30 2415 C 210.375 5.62547 2.41262 0
M  V30 2416 N 209.512 6.06787 3.53206 0
M  V30 2417 H 214.352 2.96477 0.300906 0
M  V30 2418 H 211.889 1.46462 0.136822 0
M  V30 2419 H 213.847 3.11402 2.77642 0
M  V30 2420 H 212.477 1.99859 2.53488 0
M  V30 2421 H 211.529 3.71302 0.826981 0
M  V30 2422 H 212.841 4.81629 1.29748 0
M  V30 2423 H 211.995 4.84395 3.65303 0
M  V30 2424 H 210.734 3.64995 3.23465 0
M  V30 2425 H 209.739 5.26345 1.58874 0
M  V30 2426 H 210.964 6.47931 2.03377 0
M  V30 2427 H 208.91 5.26117 3.91838 0
M  V30 2428 H 208.827 6.84266 3.21427 0
M  V30 2429 H 210.095 6.4722 4.34427 0
M  V30 2430 N 214.325 -0.140222 1.56975 0
M  V30 2431 C 215.602 -0.880769 1.74648 0
M  V30 2432 C 215.982 -1.99036 0.703404 0
M  V30 2433 O 215.33 -2.26821 -0.27648 0
M  V30 2434 C 215.54 -1.417 3.18939 0
M  V30 2435 C 216.888 -1.87774 3.80823 0
M  V30 2436 O 217.912 -1.51427 3.2241 0
M  V30 2437 O 216.771 -2.54827 4.83452 0
M  V30 2438 H 213.865 -0.416713 0.714338 0
M  V30 2439 H 216.411 -0.125618 1.69234 0
M  V30 2440 H 215.183 -0.619902 3.86359 0
M  V30 2441 H 214.806 -2.23546 3.28805 0
M  V30 2442 N 215.803 -1.52179 -0.40978 0
M  V30 2443 C 216.733 -1.78435 -1.5061 0
M  V30 2444 C 217.714 -0.635295 -1.57791 0
M  V30 2445 O 218.899 -0.880823 -1.73076 0
M  V30 2446 C 216.029 -1.93444 -2.88439 0
M  V30 2447 C 214.983 -3.09038 -2.96108 0
M  V30 2448 C 214.309 -3.09268 -4.36185 0
M  V30 2449 C 215.609 -4.48508 -2.67652 0
M  V30 2450 H 217.303 -2.70237 -1.28889 0
M  V30 2451 H 214.849 -1.30036 -0.618605 0
M  V30 2452 H 216.802 -2.10394 -3.65119 0
M  V30 2453 H 215.526 -0.983129 -3.11452 0
M  V30 2454 H 214.185 -2.91837 -2.21872 0
M  V30 2455 H 213.833 -2.11861 -4.56206 0
M  V30 2456 H 213.533 -3.86907 -4.42241 0
M  V30 2457 H 215.057 -3.28348 -5.14801 0
M  V30 2458 H 216.471 -4.65918 -3.34056 0
M  V30 2459 H 214.868 -5.28059 -2.85085 0
M  V30 2460 H 215.938 -4.56649 -1.63095 0
M  V30 2461 N 217.281 0.66697 -1.42791 0
M  V30 2462 C 218.53 1.42278 -1.42968 0
M  V30 2463 C 218.843 1.9553 -0.0524489 0
M  V30 2464 O 220.049 2.71414 0.068363 0
M  V30 2465 C 218.505 2.57418 -2.51524 0
M  V30 2466 C 218.113 2.10832 -3.9529 0
M  V30 2467 C 219.857 3.34878 -2.60877 0
M  V30 2468 C 217.764 3.23101 -4.95338 0
M  V30 2469 H 216.694 0.534533 -0.531781 0
M  V30 2470 H 219.345 0.721302 -1.68729 0
M  V30 2471 H 217.727 3.29971 -2.18941 0
M  V30 2472 H 218.901 1.4538 -4.37266 0
M  V30 2473 H 217.216 1.46289 -3.89857 0
M  V30 2474 H 219.813 4.18505 -3.32802 0
M  V30 2475 H 220.156 3.81993 -1.6549 0
M  V30 2476 H 220.689 2.69398 -2.92693 0
M  V30 2477 H 217.428 2.80969 -5.9223 0
M  V30 2478 H 216.948 3.87309 -4.57987 0
M  V30 2479 H 218.627 3.88447 -5.17415 0
M  V30 2480 N 218.759 1.29093 0.90403 0
M  V30 2481 C 219.709 1.10482 1.99443 0
M  V30 2482 C 220.693 0.0255401 1.6088 0
M  V30 2483 O 221.885 0.24677 1.75271 0
M  V30 2484 C 219.014 0.778882 3.34348 0
M  V30 2485 C 218.1 1.89749 3.79284 0
M  V30 2486 N 218.491 3.14045 3.96497 0
M  V30 2487 C 216.789 1.78955 4.08523 0
M  V30 2488 C 217.49 3.86996 4.34292 0
M  V30 2489 N 216.466 3.14909 4.43095 0
M  V30 2490 H 220.268 2.04778 2.10815 0
M  V30 2491 H 217.782 1.20155 1.09255 0
M  V30 2492 H 219.779 0.62661 4.12164 0
M  V30 2493 H 218.439 -0.156205 3.24324 0
M  V30 2494 H 219.45 3.49548 3.82148 0
M  V30 2495 H 216.127 0.926886 4.07081 0
M  V30 2496 H 217.517 4.93941 4.55491 0
M  V30 2497 N 220.237 -1.11381 1.11499 0
M  V30 2498 C 221.147 -2.21019 0.786628 0
M  V30 2499 C 222.163 -1.72597 -0.220507 0
M  V30 2500 O 223.339 -2.01321 -0.0565251 0
M  V30 2501 C 220.404 -3.459 0.235333 0
M  V30 2502 C 219.465 -4.09107 1.30115 0
M  V30 2503 C 218.698 -5.28027 0.776068 0
M  V30 2504 O 218.921 -5.6904 -0.393661 0
M  V30 2505 O 217.855 -5.81835 1.54114 0
M  V30 2506 H 221.681 -2.51521 1.70209 0
M  V30 2507 H 219.266 -1.19928 0.890928 0
M  V30 2508 H 221.148 -4.21346 -0.067715 0
M  V30 2509 H 219.823 -3.17049 -0.652828 0
M  V30 2510 H 218.73 -3.35391 1.65722 0
M  V30 2511 H 220.063 -4.42139 2.16273 0
M  V30 2512 N 221.715 -0.905404 -1.28997 0
M  V30 2513 C 222.678 -0.392253 -2.25819 0
M  V30 2514 C 223.678 0.476753 -1.5357 0
M  V30 2515 O 224.868 0.280994 -1.71919 0
M  V30 2516 C 222 0.438588 -3.38067 0
M  V30 2517 H 223.193 -1.24743 -2.72725 0
M  V30 2518 H 220.746 -0.684051 -1.40536 0
M  V30 2519 H 221.481 1.31352 -2.96508 0
M  V30 2520 H 221.266 -0.184167 -3.91667 0
M  V30 2521 H 222.756 0.78873 -4.10084 0
M  V30 2522 N 223.193 1.4272 -0.668489 0
M  V30 2523 C 224.442 2.00846 -0.185389 0
M  V30 2524 C 224.755 1.53442 1.21305 0
M  V30 2525 O 225.961 2.03944 1.79218 0
M  V30 2526 C 224.417 3.58805 -0.280591 0
M  V30 2527 C 224.025 4.15198 -1.68268 0
M  V30 2528 C 225.769 4.24255 0.14412 0
M  V30 2529 C 223.676 5.655 -1.73099 0
M  V30 2530 H 222.606 0.751145 -0.0655475 0
M  V30 2531 H 225.257 1.63516 -0.832752 0
M  V30 2532 H 223.639 3.93608 0.434553 0
M  V30 2533 H 224.813 3.91866 -2.42441 0
M  V30 2534 H 223.128 3.62176 -2.05469 0
M  V30 2535 H 225.725 5.34547 0.128086 0
M  V30 2536 H 226.068 3.99277 1.17827 0
M  V30 2537 H 226.601 3.94389 -0.519798 0
M  V30 2538 H 223.34 5.95268 -2.74475 0
M  V30 2539 H 222.86 5.90842 -1.03274 0
M  V30 2540 H 224.539 6.29808 -1.48158 0
M  V30 2541 N 224.671 0.411399 1.52136 0
M  V30 2542 C 225.917 -0.163888 2.02137 0
M  V30 2543 C 226.25 -1.44597 1.29636 0
M  V30 2544 O 225.525 -1.90272 0.403353 0
M  V30 2545 C 225.808 -0.40927 3.57767 0
M  V30 2546 C 225.661 0.889643 4.40914 0
M  V30 2547 C 226.98 -1.19042 4.23694 0
M  V30 2548 H 224.099 -0.0580896 0.734707 0
M  V30 2549 H 226.741 0.54531 1.82007 0
M  V30 2550 H 224.891 -1.0134 3.7505 0
M  V30 2551 H 226.563 1.52575 4.35337 0
M  V30 2552 H 224.806 1.50011 4.07037 0
M  V30 2553 H 225.477 0.672314 5.4789 0
M  V30 2554 H 227.953 -0.678942 4.10524 0
M  V30 2555 H 226.829 -1.33086 5.32522 0
M  V30 2556 H 227.09 -2.21166 3.82803 0
M  V30 2557 N 226.149 -1.5696 0.141893 0
M  V30 2558 C 227.096 -2.16501 -0.799737 0
M  V30 2559 C 228.066 -1.09643 -1.24771 0
M  V30 2560 O 229.251 -1.3766 -1.32115 0
M  V30 2561 C 226.391 -2.78679 -2.03549 0
M  V30 2562 C 225.504 -3.99914 -1.6338 0
M  V30 2563 C 224.639 -4.50106 -2.82096 0
M  V30 2564 C 223.678 -5.63819 -2.38275 0
M  V30 2565 N 222.815 -6.08651 -3.49983 0
M  V30 2566 H 227.655 -2.96632 -0.285179 0
M  V30 2567 H 225.192 -1.46533 -0.129053 0
M  V30 2568 H 227.15 -3.1287 -2.75986 0
M  V30 2569 H 225.78 -2.012 -2.52425 0
M  V30 2570 H 224.832 -3.71735 -0.807279 0
M  V30 2571 H 226.144 -4.82311 -1.27192 0
M  V30 2572 H 225.298 -4.86325 -3.62729 0
M  V30 2573 H 224.037 -3.66706 -3.21525 0
M  V30 2574 H 223.042 -5.2718 -1.56081 0
M  V30 2575 H 224.267 -6.49 -1.99938 0
M  V30 2576 H 222.213 -5.28188 -3.89042 0
M  V30 2577 H 222.13 -6.85961 -3.17794 0
M  V30 2578 H 223.398 -6.49515 -4.30988 0
M  V30 2579 N 227.627 0.131896 -1.57047 0
M  V30 2580 C 228.875 0.840269 -1.83804 0
M  V30 2581 C 229.196 1.81017 -0.72512 0
M  V30 2582 O 228.466 1.94272 0.251995 0
M  V30 2583 H 227.046 0.313294 -0.678127 0
M  V30 2584 H 229.708 0.122294 -1.94516 0
M  V30 2585 H 228.804 1.39335 -2.79271 0
M  V30 2586 N 229.106 1.52395 0.401703 0
M  V30 2587 C 230.036 1.79231 1.49661 0
M  V30 2588 C 231.017 0.643654 1.57452 0
M  V30 2589 O 232.202 0.889989 1.72606 0
M  V30 2590 C 229.332 1.94971 2.87409 0
M  V30 2591 C 228.286 3.10604 2.94465 0
M  V30 2592 C 227.612 3.11577 4.34538 0
M  V30 2593 C 228.912 4.49921 2.6527 0
M  V30 2594 H 230.606 2.70917 1.27454 0
M  V30 2595 H 228.152 1.30362 0.6117 0
M  V30 2596 H 230.105 2.12328 3.63999 0
M  V30 2597 H 228.829 0.999632 3.10926 0
M  V30 2598 H 227.488 2.93009 2.20321 0
M  V30 2599 H 227.136 2.14277 4.55076 0
M  V30 2600 H 226.836 3.89247 4.40183 0
M  V30 2601 H 228.36 3.31073 5.13053 0
M  V30 2602 H 229.774 4.67683 3.31581 0
M  V30 2603 H 228.171 5.29564 2.82281 0
M  V30 2604 H 229.241 4.57507 1.60671 0
M  V30 2605 N 230.584 -0.659388 1.43143 0
M  V30 2606 C 231.532 -1.79374 1.4808 0
M  V30 2607 C 232.526 -1.65639 0.354988 0
M  V30 2608 O 233.732 -1.7206 0.528704 0
M  V30 2609 H 230.107 -0.591705 0.4641 0
M  V30 2610 H 232.078 -1.72329 2.43609 0
M  V30 2611 C 230.827 -3.17606 1.41499 0
M  V30 2612 H 230.15 -3.28809 2.27431 0
M  V30 2613 H 231.59 -3.96951 1.49015 0
M  V30 2614 C 230.049 -3.36642 0.131765 0
M  V30 2615 O 230.579 -3.93461 -0.809386 0
M  V30 2616 N 228.785 -2.90567 0.0439396 0
M  V30 2617 H 228.332 -2.44513 0.810619 0
M  V30 2618 H 228.29 -3.03681 -0.813969 0
M  V30 2619 N 232.062 -1.29571 -0.897171 0
M  V30 2620 C 232.972 -1.16808 -2.03453 0
M  V30 2621 C 233.988 -0.0907471 -1.73763 0
M  V30 2622 O 235.164 -0.303312 -1.99103 0
M  V30 2623 C 232.229 -0.848264 -3.36163 0
M  V30 2624 C 231.29 -2.0097 -3.79354 0
M  V30 2625 C 230.523 -1.70505 -5.05731 0
M  V30 2626 O 230.746 -0.62718 -5.66941 0
M  V30 2627 O 229.68 -2.5538 -5.45036 0
M  V30 2628 H 233.506 -2.12325 -2.17144 0
M  V30 2629 H 231.091 -1.09047 -1.02123 0
M  V30 2630 H 232.973 -0.684581 -4.15802 0
M  V30 2631 H 231.648 0.0771071 -3.23608 0
M  V30 2632 H 230.555 -2.22863 -3.00471 0
M  V30 2633 H 231.888 -2.91636 -3.96496 0
M  V30 2634 N 233.54 1.10788 -1.12088 0
M  V30 2635 C 234.503 2.15207 -0.788577 0
M  V30 2636 C 235.503 1.59609 0.195317 0
M  V30 2637 O 236.693 1.74174 -0.0300193 0
M  V30 2638 C 233.825 3.4047 -0.171174 0
M  V30 2639 H 235.018 2.46116 -1.71368 0
M  V30 2640 H 232.571 1.26089 -0.923652 0
M  V30 2641 H 233.306 3.15176 0.763832 0
M  V30 2642 H 233.091 3.82109 -0.879514 0
M  V30 2643 H 234.581 4.17576 0.04496 0
M  V30 2644 N 235.018 0.912232 1.28515 0
M  V30 2645 C 236.264 0.545405 1.95328 0
M  V30 2646 C 236.597 -0.908313 1.71649 0
M  V30 2647 O 235.872 -1.64575 1.03659 0
M  V30 2648 C 236.155 0.853483 3.4984 0
M  V30 2649 C 236.008 2.35982 3.82926 0
M  V30 2650 C 237.327 0.348589 4.38717 0
M  V30 2651 H 234.446 0.199626 0.709449 0
M  V30 2652 H 237.088 1.1412 1.5191 0
M  V30 2653 H 235.238 0.34643 3.86952 0
M  V30 2654 H 236.91 2.93738 3.55691 0
M  V30 2655 H 235.153 2.81543 3.30024 0
M  V30 2656 H 235.824 2.52593 4.90816 0
M  V30 2657 H 238.3 0.78294 4.08668 0
M  V30 2658 H 237.176 0.593242 5.45685 0
M  V30 2659 H 237.437 -0.751049 4.35674 0
M  V30 2660 N 236.496 -1.42363 0.676048 0
M  V30 2661 C 237.459 -2.29199 0.00766941 0
M  V30 2662 C 238.459 -1.43389 -0.727745 0
M  V30 2663 O 239.649 -1.64764 -0.56556 0
M  V30 2664 C 236.781 -3.2591 -0.999785 0
M  V30 2665 H 237.974 -2.89794 0.771988 0
M  V30 2666 H 235.527 -1.50024 0.438468 0
M  V30 2667 H 236.262 -2.70256 -1.79255 0
M  V30 2668 H 236.047 -3.89202 -0.475829 0
M  V30 2669 H 237.537 -3.91028 -1.46583 0
M  V30 2670 N 237.974 -0.419461 -1.51915 0
M  V30 2671 C 238.904 0.391813 -2.30189 0
M  V30 2672 C 239.885 1.03699 -1.34836 0
M  V30 2673 O 241.07 1.04403 -1.63748 0
M  V30 2674 C 238.2 1.50312 -3.13087 0
M  V30 2675 C 237.154 0.9824 -4.16573 0
M  V30 2676 C 236.48 2.18809 -4.8788 0
M  V30 2677 C 237.78 0.0292356 -5.22292 0
M  V30 2678 H 239.474 -0.26135 -2.98257 0
M  V30 2679 H 237.02 -0.127134 -1.43438 0
M  V30 2680 H 238.973 2.07773 -3.66617 0
M  V30 2681 H 237.697 2.18431 -2.42807 0
M  V30 2682 H 236.356 0.430119 -3.64068 0
M  V30 2683 H 236.004 2.85507 -4.14119 0
M  V30 2684 H 235.704 1.84615 -5.57845 0
M  V30 2685 H 237.228 2.76858 -5.44226 0
M  V30 2686 H 238.642 0.512976 -5.71 0
M  V30 2687 H 237.039 -0.2244 -5.9968 0
M  V30 2688 H 238.109 -0.912931 -4.76228 0
M  V30 2689 N 239.452 1.56882 -0.150215 0
M  V30 2690 C 240.382 2.19935 0.784284 0
M  V30 2691 C 241.363 1.14854 1.25469 0
M  V30 2692 O 242.548 1.43209 1.31168 0
M  V30 2693 C 239.678 2.82349 2.02229 0
M  V30 2694 C 238.632 3.93285 1.68853 0
M  V30 2695 C 237.958 4.42649 2.99944 0
M  V30 2696 C 239.258 5.13904 0.932714 0
M  V30 2697 H 240.952 2.9828 0.258781 0
M  V30 2698 H 238.498 1.43473 0.123029 0
M  V30 2699 H 240.451 3.25126 2.68088 0
M  V30 2700 H 239.175 2.0134 2.57157 0
M  V30 2701 H 237.834 3.5113 1.05371 0
M  V30 2702 H 237.482 3.58458 3.52869 0
M  V30 2703 H 237.182 5.17476 2.78374 0
M  V30 2704 H 238.706 4.88099 3.66868 0
M  V30 2705 H 240.12 5.53506 1.49345 0
M  V30 2706 H 238.517 5.94515 0.81684 0
M  V30 2707 H 239.587 4.84842 -0.0749568 0
M  V30 2708 N 240.93 -0.123565 1.57115 0
M  V30 2709 C 241.84 -1.17074 2.033 0
M  V30 2710 C 242.856 -1.4561 0.952559 0
M  V30 2711 O 244.032 -1.56817 1.26374 0
M  V30 2712 C 241.097 -2.47857 2.42421 0
M  V30 2713 C 240.158 -2.26758 3.64526 0
M  V30 2714 C 239.391 -3.51305 4.01771 0
M  V30 2715 O 239.614 -4.5843 3.39409 0
M  V30 2716 O 238.548 -3.42578 4.94898 0
M  V30 2717 H 242.374 -0.808555 2.92739 0
M  V30 2718 H 239.959 -0.334027 1.45618 0
M  V30 2719 H 241.841 -3.2492 2.68338 0
M  V30 2720 H 240.516 -2.83558 1.5613 0
M  V30 2721 H 239.423 -1.47569 3.43765 0
M  V30 2722 H 240.756 -1.95963 4.51508 0
M  V30 2723 N 242.408 -1.52605 -0.393616 0
M  V30 2724 C 243.638 -1.71046 -1.15874 0
M  V30 2725 C 244.046 -0.426483 -1.84331 0
M  V30 2726 O 243.389 0.608513 -1.73329 0
M  V30 2727 C 243.451 -2.80118 -2.25332 0
M  V30 2728 C 243.115 -4.21381 -1.76881 0
M  V30 2729 C 244.112 -5.04697 -1.24808 0
M  V30 2730 C 241.797 -4.67683 -1.83244 0
M  V30 2731 C 243.791 -6.32393 -0.797387 0
M  V30 2732 C 241.478 -5.95364 -1.37787 0
M  V30 2733 C 242.476 -6.77549 -0.861208 0
M  V30 2734 O 242.164 -8.02837 -0.413252 0
M  V30 2735 H 241.896 -0.576155 -0.353583 0
M  V30 2736 H 244.45 -2.00018 -0.467123 0
M  V30 2737 H 242.68 -2.46557 -2.97904 0
M  V30 2738 H 244.369 -2.87006 -2.87023 0
M  V30 2739 H 245.135 -4.70111 -1.19252 0
M  V30 2740 H 241.014 -4.03805 -2.22401 0
M  V30 2741 H 244.558 -6.9649 -0.393437 0
M  V30 2742 H 240.455 -6.29455 -1.43026 0
M  V30 2743 H 241.223 -8.16749 -0.53515 0
M  V30 2744 N 243.887 0.651787 -1.4349 0
M  V30 2745 C 244.834 1.76462 -1.4876 0
M  V30 2746 C 245.804 1.62641 -0.337189 0
M  V30 2747 O 246.989 1.82864 -0.544544 0
M  V30 2748 C 244.129 3.14623 -1.41796 0
M  V30 2749 C 243.242 3.39568 -2.67053 0
M  V30 2750 C 242.377 4.67585 -2.52068 0
M  V30 2751 C 241.416 4.85639 -3.72587 0
M  V30 2752 N 240.553 6.04915 -3.56402 0
M  V30 2753 H 245.393 1.71293 -2.43849 0
M  V30 2754 H 242.93 0.835889 -1.21043 0
M  V30 2755 H 244.888 3.94496 -1.35753 0
M  V30 2756 H 243.518 3.18859 -0.50288 0
M  V30 2757 H 242.57 2.53783 -2.8337 0
M  V30 2758 H 243.882 3.48795 -3.56572 0
M  V30 2759 H 243.036 5.55586 -2.4374 0
M  V30 2760 H 241.775 4.60681 -1.60075 0
M  V30 2761 H 240.78 3.96073 -3.81321 0
M  V30 2762 H 242.005 4.94372 -4.65589 0
M  V30 2763 H 239.951 5.9914 -2.67146 0
M  V30 2764 H 239.868 6.15106 -4.39524 0
M  V30 2765 H 241.136 6.95533 -3.51929 0
M  V30 2766 N 245.365 1.30045 0.890287 0
M  V30 2767 C 246.614 1.17929 1.63633 0
M  V30 2768 C 246.927 -0.266204 1.9378 0
M  V30 2769 O 248.133 -0.508804 2.6669 0
M  V30 2770 C 246.589 2.06317 2.94892 0
M  V30 2771 C 246.197 3.55745 2.72305 0
M  V30 2772 C 247.941 2.0295 3.72843 0
M  V30 2773 C 245.848 4.36205 3.99348 0
M  V30 2774 H 244.778 0.437782 0.613892 0
M  V30 2775 H 247.429 1.54754 0.986075 0
M  V30 2776 H 245.811 1.6237 3.61182 0
M  V30 2777 H 246.985 4.07805 2.1455 0
M  V30 2778 H 245.3 3.6088 2.07737 0
M  V30 2779 H 247.897 2.60319 4.67053 0
M  V30 2780 H 248.24 1.0117 4.0382 0
M  V30 2781 H 248.773 2.4499 3.13408 0
M  V30 2782 H 245.512 5.38659 3.73533 0
M  V30 2783 H 245.032 3.8891 4.56628 0
M  V30 2784 H 246.711 4.47362 4.67415 0
M  V30 2785 N 246.843 -1.10192 1.12674 0
M  V30 2786 C 247.775 -2.16418 0.754701 0
M  V30 2787 C 248.788 -1.61309 -0.21986 0
M  V30 2788 O 249.977 -1.785 -0.000826841 0
M  V30 2789 C 247.077 -3.38762 0.096698 0
M  V30 2790 C 246.25 -4.23307 1.10136 0
M  V30 2791 C 245.309 -5.24092 0.470513 0
M  V30 2792 O 244.335 -5.57906 1.12824 0
M  V30 2793 N 245.537 -5.75491 -0.760948 0
M  V30 2794 H 248.302 -2.48943 1.66875 0
M  V30 2795 H 245.863 -1.25834 1.01869 0
M  V30 2796 H 247.855 -4.03291 -0.337384 0
M  V30 2797 H 246.425 -3.04192 -0.720153 0
M  V30 2798 H 245.645 -3.55036 1.71299 0
M  V30 2799 H 246.933 -4.76624 1.78064 0
M  V30 2800 H 246.331 -5.50222 -1.31424 0
M  V30 2801 H 244.888 -6.41792 -1.13781 0
M  V30 2802 N 248.321 -0.919034 -1.28029 0
M  V30 2803 C 249.567 -0.555757 -1.95036 0
M  V30 2804 C 249.9 0.899198 -1.72128 0
M  V30 2805 O 249.175 1.64023 -1.04531 0
M  V30 2806 C 249.458 -0.872024 -3.49382 0
M  V30 2807 C 249.311 -2.3801 -3.81669 0
M  V30 2808 C 250.63 -0.37185 -4.38526 0
M  V30 2809 H 247.749 -0.203386 -0.708381 0
M  V30 2810 H 250.391 -1.14924 -1.51303 0
M  V30 2811 H 248.541 -0.366946 -3.86763 0
M  V30 2812 H 250.213 -2.9562 -3.54128 0
M  V30 2813 H 248.456 -2.83289 -3.28526 0
M  V30 2814 H 249.127 -2.55192 -4.8947 0
M  V30 2815 H 251.603 -0.804602 -4.08247 0
M  V30 2816 H 250.479 -0.622173 -5.45362 0
M  V30 2817 H 250.74 0.727934 -4.36066 0
M  V30 2818 N 249.799 1.42003 -0.683588 0
M  V30 2819 C 251.047 2.01015 -0.209101 0
M  V30 2820 C 251.368 1.54365 1.19149 0
M  V30 2821 O 250.638 0.769083 1.80172 0
M  V30 2822 H 249.218 0.743294 -0.074315 0
M  V30 2823 H 251.88 1.73798 -0.882066 0
M  V30 2824 H 250.976 3.11343 -0.2172 0
M  V30 2825 N 251.277 0.427512 1.51691 0
M  V30 2826 C 252.207 -0.3796 2.30394 0
M  V30 2827 C 253.188 -1.02982 1.35384 0
M  V30 2828 O 254.373 -1.03534 1.643 0
M  V30 2829 C 251.503 -1.48649 3.1388 0
M  V30 2830 C 250.457 -0.960294 4.17088 0
M  V30 2831 C 249.783 -2.16219 4.89033 0
M  V30 2832 C 251.083 -0.00153679 5.223 0
M  V30 2833 H 252.777 0.277164 2.98114 0
M  V30 2834 H 250.323 0.134739 1.43368 0
M  V30 2835 H 252.276 -2.05826 3.67714 0
M  V30 2836 H 251 -2.1714 2.43962 0
M  V30 2837 H 249.659 -0.410806 3.64291 0
M  V30 2838 H 249.307 -2.83307 4.15628 0
M  V30 2839 H 249.007 -1.81654 5.58816 0
M  V30 2840 H 250.531 -2.73968 5.45687 0
M  V30 2841 H 251.945 -0.482687 5.71264 0
M  V30 2842 H 250.342 0.256199 5.99553 0
M  V30 2843 H 251.412 0.938174 4.75738 0
M  V30 2844 N 252.755 -1.56801 0.158532 0
M  V30 2845 C 253.685 -2.20347 -0.772609 0
M  V30 2846 C 254.666 -1.15518 -1.24859 0
M  V30 2847 O 255.851 -1.43902 -1.30406 0
M  V30 2848 C 252.981 -2.83417 -2.00729 0
M  V30 2849 C 251.935 -3.94174 -1.66765 0
M  V30 2850 C 251.261 -4.44233 -2.97592 0
M  V30 2851 C 252.561 -5.14392 -0.905447 0
M  V30 2852 H 254.255 -2.98413 -0.242959 0
M  V30 2853 H 251.801 -1.43537 -0.115419 0
M  V30 2854 H 253.754 -3.26543 -2.6636 0
M  V30 2855 H 252.478 -2.02701 -2.56086 0
M  V30 2856 H 251.137 -3.51684 -1.03508 0
M  V30 2857 H 250.785 -3.60325 -3.50963 0
M  V30 2858 H 250.485 -5.18945 -2.75626 0
M  V30 2859 H 252.009 -4.90037 -3.64274 0
M  V30 2860 H 253.423 -5.5429 -1.46408 0
M  V30 2861 H 251.82 -5.9494 -0.7853 0
M  V30 2862 H 252.89 -4.84795 0.100668 0
M  V30 2863 N 254.233 0.115231 -1.57178 0
M  V30 2864 C 255.473 0.828199 -1.8687 0
M  V30 2865 C 255.837 1.76873 -0.747002 0
M  V30 2866 O 257.038 2.52354 -0.925785 0
M  V30 2867 C 255.309 1.55515 -3.21792 0
M  V30 2868 S 256.868 2.30917 -3.73125 0
M  V30 2869 H 253.686 0.27634 -0.655101 0
M  V30 2870 H 256.288 0.0863469 -1.95309 0
M  V30 2871 H 254.992 0.856248 -4.01368 0
M  V30 2872 H 254.523 2.3373 -3.16439 0
M  V30 2873 H 256.538 3.56705 -3.44929 0
M  V30 2874 N 255.711 1.52812 0.385517 0
M  V30 2875 C 256.939 1.71907 1.15133 0
M  V30 2876 C 257.354 0.439004 1.83625 0
M  V30 2877 O 256.711 -0.586765 1.7281 0
M  V30 2878 C 256.762 2.87099 2.19673 0
M  V30 2879 O 256.483 4.10151 1.53973 0
M  V30 2880 C 257.984 3.17902 3.08955 0
M  V30 2881 H 255.204 0.575479 0.345057 0
M  V30 2882 H 257.748 1.99476 0.45052 0
M  V30 2883 H 255.903 2.61982 2.85384 0
M  V30 2884 H 256.317 4.74514 2.23465 0
M  V30 2885 H 257.791 4.01959 3.7833 0
M  V30 2886 H 258.268 2.3243 3.72657 0
M  V30 2887 H 258.874 3.44871 2.48885 0
M  V30 2888 N 257.189 -0.644168 1.43834 0
M  V30 2889 C 258.437 -1.40117 1.45642 0
M  V30 2890 C 258.758 -1.94814 0.0852413 0
M  V30 2891 O 258.028 -1.74988 -0.880688 0
M  V30 2892 H 256.608 -0.52005 0.536243 0
M  V30 2893 H 259.27 -0.7591 1.7951 0
M  V30 2894 H 258.366 -2.23902 2.17427 0
M  V30 2895 N 258.668 -1.30515 -0.883378 0
M  V30 2896 C 259.945 -1.10086 -1.6168 0
M  V30 2897 C 260.325 0.349269 -2.08191 0
M  V30 2898 O 259.673 1.34105 -1.85008 0
M  V30 2899 C 259.883 -2.10315 -2.78511 0
M  V30 2900 C 261.231 -2.42119 -3.48803 0
M  V30 2901 O 262.255 -2.08638 -2.88702 0
M  V30 2902 O 261.114 -2.99396 -4.57192 0
M  V30 2903 H 258.208 -0.422907 -0.710689 0
M  V30 2904 H 260.754 -1.41947 -0.930015 0
M  V30 2905 H 259.526 -3.07917 -2.41459 0
M  V30 2906 H 259.149 -1.79282 -3.54886 0
M  V30 2907 N 260.146 1.09593 -1.13257 0
M  V30 2908 C 261.394 1.81375 -0.891492 0
M  V30 2909 C 261.715 1.86049 0.584009 0
M  V30 2910 O 260.985 1.34481 1.42449 0
M  V30 2911 H 259.565 0.671708 -0.326828 0
M  V30 2912 H 262.227 1.3256 -1.42877 0
M  V30 2913 H 261.323 2.84612 -1.28071 0
M  V30 2914 N 261.624 0.925811 1.2754 0
M  V30 2915 C 262.872 0.564138 1.94067 0
M  V30 2916 C 263.193 -0.897188 1.73134 0
M  V30 2917 O 262.463 -1.63573 1.07799 0
M  V30 2918 H 261.043 0.205645 0.718136 0
M  V30 2919 H 263.705 1.1778 1.55287 0
M  V30 2920 H 262.801 0.76881 3.02483 0
M  V30 2921 N 263.102 -1.41638 0.69111 0
M  V30 2922 C 264.032 -2.3347 0.037248 0
M  V30 2923 C 265.013 -1.51575 -0.771947 0
M  V30 2924 O 266.198 -1.80126 -0.72582 0
M  V30 2925 C 263.328 -3.35354 -0.903064 0
M  V30 2926 C 262.282 -4.27526 -0.201288 0
M  V30 2927 C 261.608 -5.19747 -1.25565 0
M  V30 2928 C 262.908 -5.13959 0.929689 0
M  V30 2929 H 264.602 -2.88397 0.804227 0
M  V30 2930 H 262.148 -1.38669 0.388189 0
M  V30 2931 H 264.101 -3.98519 -1.36969 0
M  V30 2932 H 262.825 -2.78767 -1.70166 0
M  V30 2933 H 261.484 -3.65779 0.245265 0
M  V30 2934 H 261.132 -4.59479 -2.04666 0
M  V30 2935 H 260.832 -5.8225 -0.791128 0
M  V30 2936 H 262.356 -5.85789 -1.72288 0
M  V30 2937 H 263.77 -5.70718 0.543546 0
M  V30 2938 H 262.167 -5.85379 1.32103 0
M  V30 2939 H 263.237 -4.51389 1.77133 0
M  V30 2940 N 264.58 -0.43555 -1.51462 0
M  V30 2941 C 265.805 0.132627 -2.06976 0
M  V30 2942 C 266.23 1.35848 -1.30104 0
M  V30 2943 O 265.588 1.78112 -0.338493 0
M  V30 2944 C 265.636 0.43523 -3.57964 0
M  V30 2945 O 264.74 1.52198 -3.83288 0
M  V30 2946 H 264.081 0.00265 -0.663995 0
M  V30 2947 H 266.611 -0.616369 -1.95095 0
M  V30 2948 H 266.621 0.686206 -4.02188 0
M  V30 2949 H 265.296 -0.460739 -4.1334 0
M  V30 2950 H 263.873 1.2611 -3.50928 0
M  V30 2951 N 266.058 1.56714 -0.166846 0
M  V30 2952 C 267.008 2.14338 0.777382 0
M  V30 2953 C 267.992 1.07642 1.19591 0
M  V30 2954 O 269.184 1.33775 1.15902 0
M  V30 2955 C 266.313 2.78417 2.00846 0
M  V30 2956 C 265.399 3.92264 1.61212 0
M  V30 2957 N 265.79 4.97268 0.925104 0
M  V30 2958 C 264.088 4.03342 1.90346 0
M  V30 2959 C 264.789 5.77093 0.730627 0
M  V30 2960 N 263.765 5.2854 1.27067 0
M  V30 2961 H 267.567 2.9289 0.243466 0
M  V30 2962 H 265.081 1.62364 0.0339954 0
M  V30 2963 H 267.078 3.18073 2.69509 0
M  V30 2964 H 265.738 2.01344 2.54736 0
M  V30 2965 H 266.749 5.14601 0.583646 0
M  V30 2966 H 263.426 3.37368 2.45946 0
M  V30 2967 H 264.816 6.71638 0.187668 0
M  V30 2968 N 267.536 -0.106894 1.57237 0
M  V30 2969 C 268.446 -1.14911 2.0453 0
M  V30 2970 C 269.462 -1.44592 0.96795 0
M  V30 2971 O 270.638 -1.55468 1.2803 0
M  V30 2972 C 267.703 -2.45272 2.45036 0
M  V30 2973 C 266.764 -2.22879 3.66911 0
M  V30 2974 C 265.997 -3.47024 4.05475 0
M  V30 2975 O 266.22 -4.54804 3.44252 0
M  V30 2976 O 265.154 -3.3731 4.98504 0
M  V30 2977 H 268.98 -0.777461 2.9358 0
M  V30 2978 H 266.565 -0.318563 1.45964 0
M  V30 2979 H 268.447 -3.22055 2.71769 0
M  V30 2980 H 267.122 -2.81886 1.59129 0
M  V30 2981 H 266.029 -1.43915 3.45311 0
M  V30 2982 H 267.362 -1.91163 4.53561 0
M  V30 2983 N 269.014 -1.53014 -0.377408 0
M  V30 2984 C 270.43 -1.42523 -0.718281 0
M  V30 2985 C 270.63 -0.55487 -1.9371 0
M  V30 2986 O 269.686 -0.0327593 -2.52479 0
M  V30 2987 C 270.999 -2.85546 -0.942539 0
M  V30 2988 C 272.547 -2.95101 -1.04329 0
M  V30 2989 C 273.022 -4.3916 -1.3001 0
M  V30 2990 N 274.513 -4.42536 -1.36806 0
M  V30 2991 C 275.248 -5.51097 -1.58364 0
M  V30 2992 N 274.744 -6.69724 -1.77317 0
M  V30 2993 N 276.537 -5.38657 -1.60638 0
M  V30 2994 H 268.688 -2.08116 0.424426 0
M  V30 2995 H 270.951 -0.939352 0.127759 0
M  V30 2996 H 270.657 -3.51499 -0.118929 0
M  V30 2997 H 270.531 -3.28493 -1.85397 0
M  V30 2998 H 272.918 -2.29309 -1.85745 0
M  V30 2999 H 272.999 -2.55566 -0.109505 0
M  V30 3000 H 272.643 -5.05521 -0.490991 0
M  V30 3001 H 272.573 -4.76258 -2.24691 0
M  V30 3002 H 275.064 -3.57039 -1.23821 0
M  V30 3003 H 275.377 -7.48233 -1.93306 0
M  V30 3004 H 273.722 -6.72732 -1.74518 0
M  V30 3005 H 276.913 -4.44948 -1.45391 0
M  V30 3006 H 277.086 -6.2333 -1.77098 0
M  V30 3007 N 270.492 0.636531 -1.44174 0
M  V30 3008 C 271.425 1.76139 -1.45087 0
M  V30 3009 C 272.403 1.59611 -0.310326 0
M  V30 3010 O 273.587 1.81568 -0.506477 0
M  V30 3011 C 270.714 3.13648 -1.27839 0
M  V30 3012 C 269.76 3.48838 -2.45386 0
M  V30 3013 S 270.593 3.46927 -4.07924 0
M  V30 3014 C 271.749 4.87064 -3.9309 0
M  V30 3015 H 271.982 1.75096 -2.40268 0
M  V30 3016 H 269.515 0.810666 -1.31406 0
M  V30 3017 H 271.473 3.93002 -1.18575 0
M  V30 3018 H 270.134 3.12235 -0.341787 0
M  V30 3019 H 269.327 4.48886 -2.29167 0
M  V30 3020 H 268.929 2.76935 -2.51362 0
M  V30 3021 H 271.221 5.76153 -3.56446 0
M  V30 3022 H 272.164 5.08337 -4.92949 0
M  V30 3023 H 272.572 4.61384 -3.25246 0
M  V30 3024 N 271.97 1.30982 0.876444 0
M  V30 3025 C 272.917 1.18085 1.98304 0
M  V30 3026 C 273.887 0.0682263 1.6596 0
M  V30 3027 O 275.072 0.239937 1.89285 0
M  V30 3028 C 272.212 0.887475 3.33493 0
M  V30 3029 C 271.325 2.08281 3.78475 0
M  V30 3030 C 270.46 1.72678 5.0235 0
M  V30 3031 C 269.499 2.88657 5.39762 0
M  V30 3032 N 268.636 2.53292 6.54819 0
M  V30 3033 H 273.476 2.1275 2.08666 0
M  V30 3034 H 271.013 1.05839 1.02159 0
M  V30 3035 H 272.971 0.697961 4.1132 0
M  V30 3036 H 271.601 -0.022315 3.22792 0
M  V30 3037 H 270.653 2.3833 2.96484 0
M  V30 3038 H 271.965 2.95108 4.02135 0
M  V30 3039 H 271.119 1.50151 5.87826 0
M  V30 3040 H 269.858 0.830327 4.8058 0
M  V30 3041 H 268.863 3.1184 4.52809 0
M  V30 3042 H 270.088 3.79002 5.63502 0
M  V30 3043 H 268.034 1.66163 6.34607 0
M  V30 3044 H 267.951 3.3365 6.7839 0
M  V30 3045 H 269.219 2.34143 7.43503 0
M  V30 3046 N 273.449 -1.08991 1.13837 0
M  V30 3047 C 274.359 -2.19301 0.833333 0
M  V30 3048 C 275.375 -1.73026 -0.183847 0
M  V30 3049 O 276.551 -2.01395 -0.0138092 0
M  V30 3050 C 273.616 -3.45323 0.308651 0
M  V30 3051 C 272.677 -4.06255 1.38764 0
M  V30 3052 C 271.91 -5.26262 0.887896 0
M  V30 3053 O 272.133 -5.69747 -0.27287 0
M  V30 3054 O 271.067 -5.78435 1.66421 0
M  V30 3055 H 274.893 -2.47854 1.75506 0
M  V30 3056 H 272.478 -1.18012 0.916166 0
M  V30 3057 H 274.36 -4.21394 0.0216739 0
M  V30 3058 H 273.035 -3.18362 -0.585431 0
M  V30 3059 H 271.942 -3.318 1.72799 0
M  V30 3060 H 273.275 -4.37452 2.25602 0
M  V30 3061 N 274.927 -0.932562 -1.27047 0
M  V30 3062 C 275.89 -0.440064 -2.24936 0
M  V30 3063 C 276.89 0.444071 -1.54547 0
M  V30 3064 O 278.08 0.244465 -1.72476 0
M  V30 3065 C 275.212 0.36678 -3.38921 0
M  V30 3066 H 276.405 -1.305 -2.70018 0
M  V30 3067 H 273.958 -0.713707 -1.39054 0
M  V30 3068 H 274.693 1.25033 -2.99228 0
M  V30 3069 H 274.478 -0.267204 -3.91188 0
M  V30 3070 H 275.968 0.701567 -4.11665 0
M  V30 3071 N 276.405 1.4127 -0.698611 0
M  V30 3072 C 277.368 2.29158 -0.044132 0
M  V30 3073 C 278.368 1.44529 0.704841 0
M  V30 3074 O 279.558 1.65643 0.539276 0
M  V30 3075 C 276.69 3.27459 0.947809 0
M  V30 3076 H 277.883 2.88529 -0.817994 0
M  V30 3077 H 275.436 1.49307 -0.46228 0
M  V30 3078 H 276.171 2.73073 1.74933 0
M  V30 3079 H 275.956 3.8991 0.41385 0
M  V30 3080 H 277.446 3.93311 1.40344 0
M  V30 3081 N 277.883 0.443576 1.51229 0
M  V30 3082 C 278.793 -0.370721 2.31652 0
M  V30 3083 C 279.809 -1.02186 1.40833 0
M  V30 3084 O 280.985 -1.01586 1.73903 0
M  V30 3085 C 278.05 -1.45376 3.14749 0
M  V30 3086 C 277.111 -0.822099 4.21355 0
M  V30 3087 C 276.344 -1.85353 5.0048 0
M  V30 3088 O 276.567 -3.07656 4.80316 0
M  V30 3089 O 275.501 -1.4406 5.84406 0
M  V30 3090 H 279.327 0.286002 3.0235 0
M  V30 3091 H 276.912 0.20598 1.47973 0
M  V30 3092 H 278.794 -2.08173 3.66391 0
M  V30 3093 H 277.469 -2.09445 2.46809 0
M  V30 3094 H 276.376 -0.155909 3.73775 0
M  V30 3095 H 277.709 -0.224797 4.91686 0
M  V30 3096 N 279.361 -1.56624 0.175154 0
M  V30 3097 C 280.608 -1.96999 -0.468811 0
M  V30 3098 C 280.936 -1.06129 -1.62994 0
M  V30 3099 O 280.191 -0.0961771 -1.95464 0
M  V30 3100 C 280.49 -3.43419 -0.989864 0
M  V30 3101 C 280.156 -4.50866 0.0557687 0
M  V30 3102 C 278.818 -4.79975 0.343134 0
M  V30 3103 C 281.17 -5.15551 0.765308 0
M  V30 3104 C 278.498 -5.71066 1.34536 0
M  V30 3105 C 280.85 -6.07724 1.75654 0
M  V30 3106 C 279.514 -6.35199 2.05132 0
M  V30 3107 H 278.784 -0.720869 -0.17155 0
M  V30 3108 H 281.431 -1.89616 0.267924 0
M  V30 3109 H 279.736 -3.47772 -1.80449 0
M  V30 3110 H 281.433 -3.72002 -1.49719 0
M  V30 3111 H 278.023 -4.28229 -0.178381 0
M  V30 3112 H 282.207 -4.9317 0.556513 0
M  V30 3113 H 277.463 -5.90635 1.57988 0
M  V30 3114 H 281.637 -6.56912 2.31169 0
M  V30 3115 H 279.264 -7.05584 2.8294 0
M  V30 3116 N 280.839 0.0985539 -1.57292 0
M  V30 3117 C 282.079 0.808332 -1.87737 0
M  V30 3118 C 282.443 1.7607 -0.76572 0
M  V30 3119 O 283.644 2.51358 -0.952499 0
M  V30 3120 C 281.915 1.52093 -3.23423 0
M  V30 3121 S 283.474 2.26947 -3.75554 0
M  V30 3122 H 280.292 0.269377 -0.657995 0
M  V30 3123 H 282.894 0.0656269 -1.9539 0
M  V30 3124 H 281.598 0.81363 -4.02254 0
M  V30 3125 H 281.129 2.30361 -3.189 0
M  V30 3126 H 283.144 3.53027 -3.48692 0
M  V30 3127 N 282.317 1.53212 0.369288 0
M  V30 3128 C 283.566 1.68436 1.10961 0
M  V30 3129 C 283.879 0.440738 1.9057 0
M  V30 3130 O 285.085 0.473446 2.6734 0
M  V30 3131 C 283.541 2.97744 2.0218 0
M  V30 3132 C 283.149 4.29355 1.279 0
M  V30 3133 C 284.893 3.22334 2.76226 0
M  V30 3134 C 282.8 5.49755 2.17999 0
M  V30 3135 H 281.73 0.627568 0.41794 0
M  V30 3136 H 284.381 1.79713 0.370884 0
M  V30 3137 H 282.763 2.8026 2.79768 0
M  V30 3138 H 283.937 4.57458 0.554007 0
M  V30 3139 H 282.252 4.11179 0.657311 0
M  V30 3140 H 284.849 4.09471 3.43857 0
M  V30 3141 H 285.192 2.38238 3.41392 0
M  V30 3142 H 285.725 3.40475 2.05723 0
M  V30 3143 H 282.464 6.36318 1.57417 0
M  V30 3144 H 281.984 5.25937 2.88359 0
M  V30 3145 H 283.663 5.84401 2.77641 0
M  V30 3146 N 283.795 -0.628877 1.44509 0
M  V30 3147 C 284.742 -1.74074 1.51549 0
M  V30 3148 C 285.712 -1.62084 0.363021 0
M  V30 3149 O 286.897 -1.81975 0.573567 0
M  V30 3150 C 284.037 -3.12328 1.46784 0
M  V30 3151 C 283.15 -3.35277 2.72422 0
M  V30 3152 C 282.285 -4.63515 2.59475 0
M  V30 3153 C 281.324 -4.7965 3.80266 0
M  V30 3154 N 280.461 -5.99168 3.65981 0
M  V30 3155 H 285.301 -1.67392 2.46544 0
M  V30 3156 H 282.838 -0.816527 1.22357 0
M  V30 3157 H 284.796 -3.92286 1.42012 0
M  V30 3158 H 283.426 -3.18018 0.553544 0
M  V30 3159 H 282.478 -2.49242 2.87372 0
M  V30 3160 H 283.79 -3.43078 3.62076 0
M  V30 3161 H 282.944 -5.51638 2.52548 0
M  V30 3162 H 281.683 -4.58076 1.67384 0
M  V30 3163 H 280.688 -3.89957 3.87574 0
M  V30 3164 H 281.913 -4.86902 4.73395 0
M  V30 3165 H 279.859 -5.94814 2.76644 0
M  V30 3166 H 279.776 -6.08035 4.49254 0
M  V30 3167 H 281.044 -6.89846 3.6295 0
M  V30 3168 N 285.273 -1.31445 -0.869486 0
M  V30 3169 C 286.223 -1.15731 -1.96444 0
M  V30 3170 C 287.207 -0.0681855 -1.60755 0
M  V30 3171 O 288.399 -0.293154 -1.74555 0
M  V30 3172 C 285.528 -0.867255 -3.32165 0
M  V30 3173 C 284.614 -1.99738 -3.74119 0
M  V30 3174 N 285.005 -3.24447 -3.88031 0
M  V30 3175 C 283.303 -1.89723 -4.03635 0
M  V30 3176 C 284.004 -3.98374 -4.23879 0
M  V30 3177 N 282.98 -3.26547 -4.3459 0
M  V30 3178 H 286.782 -2.10296 -2.05312 0
M  V30 3179 H 284.296 -1.23009 -1.06031 0
M  V30 3180 H 286.293 -0.735668 -4.10358 0
M  V30 3181 H 284.953 0.0701614 -3.24624 0
M  V30 3182 H 285.964 -3.59557 -3.72746 0
M  V30 3183 H 282.641 -1.03449 -4.04481 0
M  V30 3184 H 284.031 -5.05844 -4.42235 0
M  V30 3185 N 286.751 1.08385 -1.14413 0
M  V30 3186 C 287.698 2.15311 -0.831265 0
M  V30 3187 C 288.668 1.64751 0.211292 0
M  V30 3188 O 289.853 1.90627 0.0811674 0
M  V30 3189 C 286.993 3.43658 -0.315143 0
M  V30 3190 C 286.106 4.08064 -1.41802 0
M  V30 3191 C 285.241 5.24207 -0.859126 0
M  V30 3192 C 284.28 5.80554 -1.93967 0
M  V30 3193 N 283.417 6.88042 -1.39793 0
M  V30 3194 H 288.257 2.41415 -1.74708 0
M  V30 3195 H 285.794 1.18474 -0.871909 0
M  V30 3196 H 287.752 4.172 0.00230884 0
M  V30 3197 H 286.382 3.17839 0.56378 0
M  V30 3198 H 285.434 3.3228 -1.85187 0
M  V30 3199 H 286.746 4.45962 -2.23427 0
M  V30 3200 H 285.9 6.04689 -0.49359 0
M  V30 3201 H 284.639 4.87699 -0.011932 0
M  V30 3202 H 283.644 4.98725 -2.31415 0
M  V30 3203 H 284.869 6.19121 -2.79046 0
M  V30 3204 H 282.815 6.53493 -0.572919 0
M  V30 3205 H 282.732 7.24767 -2.15054 0
M  V30 3206 H 284 7.72255 -1.0603 0
M  V30 3207 N 288.23 0.939286 1.26551 0
M  V30 3208 C 289.177 0.446088 2.26448 0
M  V30 3209 C 290.147 -0.493234 1.58608 0
M  V30 3210 O 291.332 -0.409857 1.86346 0
M  V30 3211 C 288.472 -0.284375 3.43926 0
M  V30 3212 C 287.585 0.690399 4.26448 0
M  V30 3213 C 286.72 -0.0610712 5.31165 0
M  V30 3214 C 285.759 0.905649 6.05363 0
M  V30 3215 N 284.896 0.186055 7.01853 0
M  V30 3216 H 289.736 1.30291 2.68008 0
M  V30 3217 H 287.273 0.65371 1.31776 0
M  V30 3218 H 289.231 -0.724313 4.10864 0
M  V30 3219 H 287.861 -1.10535 3.03285 0
M  V30 3220 H 286.913 1.24885 3.59316 0
M  V30 3221 H 288.225 1.42873 4.779 0
M  V30 3222 H 287.379 -0.56038 6.04106 0
M  V30 3223 H 286.118 -0.832297 4.80546 0
M  V30 3224 H 285.123 1.4161 5.3125 0
M  V30 3225 H 286.348 1.67685 6.58072 0
M  V30 3226 H 284.294 -0.566714 6.53548 0
M  V30 3227 H 284.211 0.863752 7.51049 0
M  V30 3228 H 285.479 -0.292221 7.78952 0
M  V30 3229 N 289.708 -1.40897 0.706093 0
M  V30 3230 C 290.985 -1.94868 0.169099 0
M  V30 3231 C 291.365 -1.64485 -1.32318 0
M  V30 3232 O 290.713 -0.95744 -2.07474 0
M  V30 3233 C 290.923 -3.45798 0.471654 0
M  V30 3234 C 292.271 -4.22663 0.405127 0
M  V30 3235 O 293.295 -3.53865 0.407168 0
M  V30 3236 O 292.154 -5.45216 0.374383 0
M  V30 3237 H 289.248 -0.82673 0.0211352 0
M  V30 3238 H 291.794 -1.50558 0.782976 0
M  V30 3239 H 290.566 -3.61235 1.50416 0
M  V30 3240 H 290.189 -3.97225 -0.172666 0
M  V30 3241 N 291.186 -0.45159 -1.50991 0
M  V30 3242 C 292.433 0.110074 -2.02201 0
M  V30 3243 C 292.761 1.4146 -1.33489 0
M  V30 3244 O 292.016 1.90617 -0.443125 0
M  V30 3245 C 292.315 0.361728 -3.55565 0
M  V30 3246 C 291.981 -0.858717 -4.42648 0
M  V30 3247 C 290.643 -1.19338 -4.66167 0
M  V30 3248 C 292.995 -1.67221 -4.93646 0
M  V30 3249 C 290.323 -2.34195 -5.37931 0
M  V30 3250 C 292.675 -2.8119 -5.6667 0
M  V30 3251 C 291.339 -3.15094 -5.88449 0
M  V30 3252 H 290.609 0.040279 -0.739904 0
M  V30 3253 H 293.256 -0.601696 -1.81802 0
M  V30 3254 H 291.561 1.15554 -3.74372 0
M  V30 3255 H 293.258 0.80996 -3.92735 0
M  V30 3256 H 289.848 -0.58796 -4.24548 0
M  V30 3257 H 294.032 -1.42686 -4.75347 0
M  V30 3258 H 289.288 -2.6076 -5.53005 0
M  V30 3259 H 293.462 -3.44585 -6.05173 0
M  V30 3260 H 291.089 -4.04204 -6.43835 0
M  V30 3261 N 292.664 1.56529 -0.183458 0
M  V30 3262 C 293.91 1.97537 0.459036 0
M  V30 3263 C 294.243 1.06989 1.62071 0
M  V30 3264 O 293.518 0.11948 1.94133 0
M  V30 3265 C 293.801 3.47874 0.930368 0
M  V30 3266 C 293.654 4.492 -0.232317 0
M  V30 3267 C 294.973 4.01612 1.79989 0
M  V30 3268 H 292.092 0.718204 0.165383 0
M  V30 3269 H 294.734 1.88042 -0.272038 0
M  V30 3270 H 292.884 3.56095 1.55333 0
M  V30 3271 H 294.556 4.53027 -0.86972 0
M  V30 3272 H 292.799 4.24657 -0.885928 0
M  V30 3273 H 293.47 5.51823 0.139796 0
M  V30 3274 H 295.946 3.96097 1.27461 0
M  V30 3275 H 294.822 5.07195 2.09867 0
M  V30 3276 H 295.083 3.46163 2.74998 0
M  V30 3277 N 294.142 -0.090211 1.57342 0
M  V30 3278 C 295.39 -0.791241 1.85967 0
M  V30 3279 C 295.711 -1.7903 0.772859 0
M  V30 3280 O 294.981 -1.94872 -0.200398 0
M  V30 3281 H 293.561 -0.295205 0.686195 0
M  V30 3282 H 296.223 -0.0706782 1.94772 0
M  V30 3283 H 295.319 -1.31882 2.82867 0
M  V30 3284 N 295.62 -1.53406 -0.361157 0
M  V30 3285 C 296.85 -1.73465 -1.1222 0
M  V30 3286 C 297.258 -0.465486 -1.83384 0
M  V30 3287 O 296.601 0.571611 -1.7458 0
M  V30 3288 C 296.663 -2.84834 -2.19339 0
M  V30 3289 C 296.327 -4.25038 -1.67903 0
M  V30 3290 C 297.324 -5.07231 -1.14074 0
M  V30 3291 C 295.009 -4.71464 -1.73282 0
M  V30 3292 C 297.003 -6.33942 -0.663068 0
M  V30 3293 C 294.69 -5.98153 -1.25127 0
M  V30 3294 C 295.688 -6.79223 -0.717296 0
M  V30 3295 O 295.376 -8.03533 -0.242865 0
M  V30 3296 H 295.108 -0.583526 -0.341283 0
M  V30 3297 H 297.662 -2.00964 -0.424591 0
M  V30 3298 H 295.892 -2.5282 -2.92607 0
M  V30 3299 H 297.581 -2.9303 -2.80871 0
M  V30 3300 H 298.347 -4.72534 -1.09254 0
M  V30 3301 H 294.226 -4.08432 -2.13786 0
M  V30 3302 H 297.77 -6.97167 -0.245612 0
M  V30 3303 H 293.667 -6.32347 -1.29642 0
M  V30 3304 H 294.435 -8.177 -0.361786 0
M  V30 3305 N 297.098 0.621204 -1.44841 0
M  V30 3306 C 298.375 1.38 -1.38619 0
M  V30 3307 C 298.755 2.11041 -0.0498935 0
M  V30 3308 O 298.103 2.06992 0.967816 0
M  V30 3309 C 298.313 2.33817 -2.59096 0
M  V30 3310 C 299.661 2.96844 -3.03593 0
M  V30 3311 O 300.685 2.44141 -2.59371 0
M  V30 3312 O 299.544 3.92476 -3.80296 0
M  V30 3313 H 296.638 0.61811 -0.549426 0
M  V30 3314 H 299.184 0.645429 -1.56947 0
M  V30 3315 H 297.956 1.79012 -3.47952 0
M  V30 3316 H 297.579 3.14676 -2.43032 0
M  V30 3317 N 298.576 1.31904 0.862503 0
M  V30 3318 C 299.526 1.16772 1.95827 0
M  V30 3319 C 300.51 0.0767098 1.60717 0
M  V30 3320 O 301.702 0.302407 1.74398 0
M  V30 3321 C 298.831 0.884858 3.317 0
M  V30 3322 C 297.917 2.0172 3.73055 0
M  V30 3323 N 298.308 3.265 3.86305 0
M  V30 3324 C 296.606 1.91861 4.02623 0
M  V30 3325 C 297.307 4.00616 4.2176 0
M  V30 3326 N 296.283 3.28847 4.32852 0
M  V30 3327 H 300.085 2.11382 2.04193 0
M  V30 3328 H 297.599 1.2357 1.05377 0
M  V30 3329 H 299.596 0.757419 4.09962 0
M  V30 3330 H 298.256 -0.0529448 3.24657 0
M  V30 3331 H 299.267 3.61529 3.70833 0
M  V30 3332 H 295.944 1.05593 4.03926 0
M  V30 3333 H 297.334 5.08182 4.39546 0
M  V30 3334 N 300.054 -1.07777 1.14986 0
M  V30 3335 C 301.017 -2.13041 0.845358 0
M  V30 3336 C 302.017 -1.60071 -0.152931 0
M  V30 3337 O 303.207 -1.74033 0.0761879 0
M  V30 3338 C 300.339 -3.39896 0.261383 0
M  V30 3339 H 301.532 -2.41485 1.77834 0
M  V30 3340 H 299.085 -1.23595 0.956757 0
M  V30 3341 H 299.82 -3.17091 -0.68 0
M  V30 3342 H 299.605 -3.79642 0.980514 0
M  V30 3343 H 301.095 -4.17548 0.0657687 0
M  V30 3344 N 301.532 -0.945985 -1.26051 0
M  V30 3345 C 302.78 -0.594941 -1.93145 0
M  V30 3346 C 303.101 0.86953 -1.7454 0
M  V30 3347 O 302.371 1.61838 -1.10387 0
M  V30 3348 H 300.951 -0.217044 -0.714773 0
M  V30 3349 H 303.613 -1.20235 -1.53393 0
M  V30 3350 H 302.709 -0.816835 -3.01221 0
M  V30 3351 N 303.011 1.40521 -0.713556 0
M  V30 3352 C 303.961 2.27971 -0.036165 0
M  V30 3353 C 304.945 1.43151 0.734623 0
M  V30 3354 O 306.137 1.66261 0.607158 0
M  V30 3355 C 303.266 3.31661 0.886331 0
M  V30 3356 C 302.352 4.23955 0.110836 0
M  V30 3357 N 302.743 4.97641 -0.904847 0
M  V30 3358 C 301.041 4.44674 0.343692 0
M  V30 3359 C 301.742 5.65322 -1.37064 0
M  V30 3360 N 300.718 5.39162 -0.693168 0
M  V30 3361 H 304.52 2.82384 -0.814645 0
M  V30 3362 H 302.034 1.52948 -0.545963 0
M  V30 3363 H 304.031 3.93154 1.38692 0
M  V30 3364 H 302.691 2.78808 1.66421 0
M  V30 3365 H 303.702 5.01689 -1.28563 0
M  V30 3366 H 300.379 4.02801 1.09805 0
M  V30 3367 H 301.769 6.34359 -2.21447 0
M  V30 3368 N 304.489 0.459591 1.5075 0
M  V30 3369 C 305.399 -0.34613 2.32033 0
M  V30 3370 C 306.415 -1.00686 1.41909 0
M  V30 3371 O 307.591 -0.997361 1.7497 0
M  V30 3372 C 304.656 -1.42029 3.16273 0
M  V30 3373 C 303.717 -0.777362 4.22203 0
M  V30 3374 C 302.95 -1.80034 5.02418 0
M  V30 3375 O 303.173 -3.02544 4.83553 0
M  V30 3376 O 302.107 -1.37853 5.85901 0
M  V30 3377 H 305.933 0.318054 3.0203 0
M  V30 3378 H 303.518 0.221663 1.47746 0
M  V30 3379 H 305.4 -2.04275 3.68578 0
M  V30 3380 H 304.075 -2.06815 2.49016 0
M  V30 3381 H 302.982 -0.116256 3.73919 0
M  V30 3382 H 304.315 -0.172634 4.91897 0
M  V30 3383 N 305.967 -1.56429 0.191757 0
M  V30 3384 C 307.213 -1.97777 -0.448554 0
M  V30 3385 C 307.546 -1.07847 -1.61501 0
M  V30 3386 O 306.821 -0.129774 -1.94067 0
M  V30 3387 C 307.104 -3.48362 -0.911906 0
M  V30 3388 C 306.957 -4.4907 0.256136 0
M  V30 3389 C 308.276 -4.02561 -1.77857 0
M  V30 3390 H 305.395 -0.719071 -0.161572 0
M  V30 3391 H 308.037 -1.87896 0.282007 0
M  V30 3392 H 306.187 -3.56914 -1.53442 0
M  V30 3393 H 307.859 -4.5256 0.893733 0
M  V30 3394 H 306.102 -4.24181 0.908436 0
M  V30 3395 H 306.773 -5.51889 -0.11053 0
M  V30 3396 H 309.249 -3.96767 -1.25359 0
M  V30 3397 H 308.125 -5.08301 -2.07174 0
M  V30 3398 H 308.386 -3.47616 -2.73158 0
M  V30 3399 N 307.445 0.0818655 -1.57387 0
M  V30 3400 C 308.722 0.815343 -1.77796 0
M  V30 3401 C 309.102 1.96289 -0.77679 0
M  V30 3402 O 308.45 2.27691 0.192106 0
M  V30 3403 C 308.66 1.29765 -3.23978 0
M  V30 3404 C 310.008 1.7351 -3.8753 0
M  V30 3405 O 311.032 1.39356 -3.27808 0
M  V30 3406 O 309.891 2.36708 -4.92576 0
M  V30 3407 H 306.985 0.389914 -0.729312 0
M  V30 3408 H 309.531 0.0627213 -1.69584 0
M  V30 3409 H 308.303 0.47608 -3.88393 0
M  V30 3410 H 307.926 2.11189 -3.36875 0
M  V30 3411 N 308.923 1.53595 0.353017 0
M  V30 3412 C 309.853 1.83902 1.43883 0
M  V30 3413 C 310.834 0.693421 1.55324 0
M  V30 3414 O 312.019 0.944452 1.69687 0
M  V30 3415 C 309.149 2.04016 2.8106 0
M  V30 3416 C 308.103 3.19814 2.84434 0
M  V30 3417 C 307.429 3.25244 4.24406 0
M  V30 3418 C 308.729 4.58133 2.50822 0
M  V30 3419 H 310.423 2.74835 1.1877 0
M  V30 3420 H 307.969 1.32242 0.569917 0
M  V30 3421 H 309.922 2.238 3.57059 0
M  V30 3422 H 308.646 1.09804 3.07588 0
M  V30 3423 H 307.305 2.9987 2.10887 0
M  V30 3424 H 306.953 2.28646 4.48029 0
M  V30 3425 H 306.653 4.03054 4.27576 0
M  V30 3426 H 308.177 3.47228 5.0226 0
M  V30 3427 H 309.591 4.77995 3.16534 0
M  V30 3428 H 307.988 5.38276 2.6529 0
M  V30 3429 H 309.058 4.62387 1.46034 0
M  V30 3430 N 310.401 -0.613514 1.45168 0
M  V30 3431 C 311.348 -1.72456 1.53387 0
M  V30 3432 C 312.318 -1.6169 0.380191 0
M  V30 3433 O 313.503 -1.81356 0.592836 0
M  V30 3434 C 310.643 -3.10753 1.50088 0
M  V30 3435 C 309.756 -3.32368 2.75963 0
M  V30 3436 C 308.891 -4.60737 2.64376 0
M  V30 3437 C 307.93 -4.7559 3.85332 0
M  V30 3438 N 307.067 -5.95253 3.72315 0
M  V30 3439 H 311.907 -1.64768 2.48305 0
M  V30 3440 H 309.444 -0.803503 1.23216 0
M  V30 3441 H 311.402 -3.90758 1.46164 0
M  V30 3442 H 310.032 -3.17413 0.587243 0
M  V30 3443 H 309.084 -2.4618 2.89999 0
M  V30 3444 H 310.396 -3.39218 3.65695 0
M  V30 3445 H 309.55 -5.48928 2.58385 0
M  V30 3446 H 308.289 -4.56275 1.72233 0
M  V30 3447 H 307.294 -3.85824 3.91688 0
M  V30 3448 H 308.519 -4.81854 4.78533 0
M  V30 3449 H 306.465 -5.91847 2.82937 0
M  V30 3450 H 306.382 -6.03236 4.55677 0
M  V30 3451 H 307.65 -6.85958 3.70246 0
M  V30 3452 N 311.879 -1.3236 -0.855495 0
M  V30 3453 C 313.29 -1.2056 -1.42556 0
M  V30 3454 C 313.641 0.182209 -1.95352 0
M  V30 3455 O 312.766 1.08088 -1.87472 0
M  V30 3456 C 313.361 -2.1826 -2.59129 0
M  V30 3457 C 311.92 -2.10351 -3.12137 0
M  V30 3458 C 311.067 -2.06674 -1.84882 0
M  V30 3459 H 314.018 -1.442 -0.662727 0
M  V30 3460 H 314.039 -1.78064 -3.36264 0
M  V30 3461 H 313.551 -3.19257 -2.20673 0
M  V30 3462 H 311.652 -1.12599 -3.55179 0
M  V30 3463 H 311.765 -3.00135 -3.73438 0
M  V30 3464 H 310.129 -1.51901 -2.04446 0
M  V30 3465 H 310.912 -3.09451 -1.48643 0
M  V30 3466 N 313.357 1.07166 -1.15556 0
M  V30 3467 C 314.604 1.79798 -0.931604 0
M  V30 3468 C 314.932 1.8682 0.54115 0
M  V30 3469 O 314.187 1.34942 1.41736 0
M  V30 3470 C 314.486 3.24707 -1.49332 0
M  V30 3471 C 314.152 3.37781 -2.98688 0
M  V30 3472 C 312.814 3.41057 -3.39461 0
M  V30 3473 C 315.166 3.40424 -3.94665 0
M  V30 3474 C 312.494 3.4458 -4.74849 0
M  V30 3475 C 314.846 3.45485 -5.29927 0
M  V30 3476 C 313.51 3.47039 -5.70193 0
M  V30 3477 H 312.78 0.657928 -0.340898 0
M  V30 3478 H 315.427 1.26091 -1.44129 0
M  V30 3479 H 313.732 3.81208 -0.904859 0
M  V30 3480 H 315.429 3.79486 -1.29582 0
M  V30 3481 H 312.019 3.35932 -2.66172 0
M  V30 3482 H 316.203 3.37113 -3.64237 0
M  V30 3483 H 311.459 3.44083 -5.05388 0
M  V30 3484 H 315.633 3.46476 -6.04092 0
M  V30 3485 H 313.26 3.49522 -6.75084 0
M  V30 3486 N 314.835 0.952656 1.25548 0
M  V30 3487 C 315.782 0.47008 2.25962 0
M  V30 3488 C 316.752 -0.476384 1.59122 0
M  V30 3489 O 317.937 -0.39007 1.8677 0
M  V30 3490 C 315.077 -0.247881 3.44209 0
M  V30 3491 C 314.19 0.735591 4.25691 0
M  V30 3492 C 313.325 -0.0047306 5.312 0
M  V30 3493 C 312.364 0.969805 6.04368 0
M  V30 3494 N 311.501 0.260486 7.01617 0
M  V30 3495 H 316.341 1.33126 2.66611 0
M  V30 3496 H 313.878 0.66765 1.31076 0
M  V30 3497 H 315.836 -0.680695 4.1161 0
M  V30 3498 H 314.466 -1.07312 3.0444 0
M  V30 3499 H 313.518 1.28689 3.57971 0
M  V30 3500 H 314.83 1.47934 4.76358 0
M  V30 3501 H 313.984 -0.496275 6.04667 0
M  V30 3502 H 312.723 -0.781282 4.81401 0
M  V30 3503 H 311.728 1.47237 5.29718 0
M  V30 3504 H 312.953 1.74655 6.56256 0
M  V30 3505 H 310.899 -0.497364 6.54112 0
M  V30 3506 H 310.816 0.943362 7.50091 0
M  V30 3507 H 312.084 -0.209587 7.79218 0
M  V30 3508 N 316.313 -1.40141 0.720998 0
M  V30 3509 C 317.59 -1.94677 0.189757 0
M  V30 3510 C 317.97 -1.65879 -1.30566 0
M  V30 3511 O 317.318 -0.979391 -2.06447 0
M  V30 3512 C 317.528 -3.45279 0.508304 0
M  V30 3513 C 318.876 -4.22209 0.449934 0
M  V30 3514 O 319.9 -3.53413 0.444677 0
M  V30 3515 O 318.759 -5.44788 0.432189 0
M  V30 3516 H 315.853 -0.826459 0.0299026 0
M  V30 3517 H 318.399 -1.49719 0.7989 0
M  V30 3518 H 317.171 -3.59619 1.54239 0
M  V30 3519 H 316.794 -3.97386 -0.130525 0
M  V30 3520 N 317.792 -0.46758 -1.50504 0
M  V30 3521 C 319.041 0.0902868 -2.01498 0
M  V30 3522 C 319.354 1.411 -1.35463 0
M  V30 3523 O 320.56 2.0536 -1.77594 0
M  V30 3524 C 319.016 0.21142 -3.59278 0
M  V30 3525 C 318.624 -1.10065 -4.34269 0
M  V30 3526 C 320.368 0.721433 -4.18325 0
M  V30 3527 C 318.275 -0.943505 -5.83825 0
M  V30 3528 H 317.205 0.037517 -0.753066 0
M  V30 3529 H 319.856 -0.601943 -1.73346 0
M  V30 3530 H 318.238 0.967352 -3.84003 0
M  V30 3531 H 319.412 -1.86726 -4.21272 0
M  V30 3532 H 317.727 -1.5415 -3.86816 0
M  V30 3533 H 320.324 0.85598 -5.27804 0
M  V30 3534 H 320.667 1.71186 -3.79475 0
M  V30 3535 H 321.2 0.0229843 -3.97793 0
M  V30 3536 H 317.939 -1.90719 -6.27141 0
M  V30 3537 H 317.459 -0.217213 -5.99407 0
M  V30 3538 H 319.138 -0.608715 -6.4413 0
M  V30 3539 N 319.27 1.56325 -0.20005 0
M  V30 3540 C 320.517 1.97719 0.437411 0
M  V30 3541 C 320.845 1.08709 1.61284 0
M  V30 3542 O 320.1 0.127261 1.95286 0
M  V30 3543 C 320.399 3.4495 0.935103 0
M  V30 3544 C 320.065 4.5072 -0.12749 0
M  V30 3545 C 318.727 4.79368 -0.419451 0
M  V30 3546 C 321.079 5.14268 -0.847231 0
M  V30 3547 C 318.407 5.68854 -1.43604 0
M  V30 3548 C 320.759 6.04852 -1.85301 0
M  V30 3549 C 319.423 6.31855 -2.15211 0
M  V30 3550 H 318.693 0.723507 0.16006 0
M  V30 3551 H 321.34 1.89166 -0.298056 0
M  V30 3552 H 319.645 3.50599 1.74894 0
M  V30 3553 H 321.342 3.74337 1.43781 0
M  V30 3554 H 317.932 4.28458 0.11023 0
M  V30 3555 H 322.116 4.92222 -0.634901 0
M  V30 3556 H 317.372 5.88047 -1.67364 0
M  V30 3557 H 321.546 6.53152 -2.41591 0
M  V30 3558 H 319.173 7.00994 -2.94129 0
M  V30 3559 N 320.748 -0.0735177 1.57428 0
M  V30 3560 C 322.025 -0.805903 1.78226 0
M  V30 3561 C 322.405 -1.95874 0.787189 0
M  V30 3562 O 321.753 -2.2779 -0.180029 0
M  V30 3563 C 321.963 -1.28045 3.24662 0
M  V30 3564 C 323.311 -1.71453 3.88444 0
M  V30 3565 O 324.335 -1.37616 3.28543 0
M  V30 3566 O 323.194 -2.34093 4.93825 0
M  V30 3567 H 320.288 -0.386041 0.73137 0
M  V30 3568 H 322.834 -0.0537269 1.69615 0
M  V30 3569 H 321.606 -0.455476 3.8864 0
M  V30 3570 H 321.229 -2.094 3.37991 0
M  V30 3571 N 322.226 -1.5378 -0.344866 0
M  V30 3572 C 323.174 -1.82373 -1.4437 0
M  V30 3573 C 324.168 -0.694128 -1.54526 0
M  V30 3574 O 325.374 -0.877442 -1.57165 0
M  V30 3575 H 321.749 -0.577765 -0.481344 0
M  V30 3576 H 323.72 -2.74306 -1.17468 0
M  V30 3577 C 322.469 -2.04898 -2.80913 0
M  V30 3578 H 321.792 -2.9127 -2.73865 0
M  V30 3579 H 323.232 -2.28871 -3.56923 0
M  V30 3580 C 321.691 -0.834116 -3.26411 0
M  V30 3581 O 322.221 -0.0328885 -4.01687 0
M  V30 3582 N 320.427 -0.65171 -2.83198 0
M  V30 3583 H 319.974 -1.30489 -2.22104 0
M  V30 3584 H 319.932 0.159686 -3.13994 0
M  V30 3585 N 323.704 0.605807 -1.45491 0
M  V30 3586 C 324.953 1.36086 -1.48874 0
M  V30 3587 C 325.266 1.95131 -0.135333 0
M  V30 3588 O 326.472 2.7146 -0.0468144 0
M  V30 3589 C 324.928 2.46518 -2.62215 0
M  V30 3590 C 324.536 1.93877 -4.03876 0
M  V30 3591 C 326.28 3.23512 -2.74846 0
M  V30 3592 C 324.187 3.01801 -5.08596 0
M  V30 3593 H 323.117 0.511497 -0.553974 0
M  V30 3594 H 325.768 0.649089 -1.71636 0
M  V30 3595 H 324.15 3.20388 -2.32739 0
M  V30 3596 H 325.324 1.26704 -4.43038 0
M  V30 3597 H 323.639 1.29622 -3.95711 0
M  V30 3598 H 326.236 4.04013 -3.50253 0
M  V30 3599 H 326.579 3.74631 -1.81542 0
M  V30 3600 H 327.112 2.56742 -3.03856 0
M  V30 3601 H 323.851 2.55597 -6.03614 0
M  V30 3602 H 323.371 3.67535 -4.74002 0
M  V30 3603 H 325.05 3.66152 -5.33424 0
M  V30 3604 N 325.182 1.32811 0.848464 0
M  V30 3605 C 326.598 1.11937 1.13764 0
M  V30 3606 C 326.798 -0.0960789 2.01271 0
M  V30 3607 O 325.854 -0.779165 2.40178 0
M  V30 3608 C 327.167 2.402 1.809 0
M  V30 3609 C 328.715 2.46016 1.93508 0
M  V30 3610 C 329.19 3.74215 2.64059 0
M  V30 3611 N 330.681 3.75232 2.71579 0
M  V30 3612 C 331.416 4.71134 3.26833 0
M  V30 3613 N 330.912 5.77406 3.8285 0
M  V30 3614 N 332.705 4.58623 3.24995 0
M  V30 3615 H 324.856 2.1073 0.265855 0
M  V30 3616 H 327.119 0.930671 0.180431 0
M  V30 3617 H 326.825 3.29093 1.24058 0
M  V30 3618 H 326.699 2.51628 2.81004 0
M  V30 3619 H 329.086 1.57577 2.49506 0
M  V30 3620 H 329.167 2.38536 0.923811 0
M  V30 3621 H 328.811 4.63031 2.08722 0
M  V30 3622 H 328.741 3.78968 3.65637 0
M  V30 3623 H 331.232 2.98423 2.31845 0
M  V30 3624 H 331.545 6.46632 4.23187 0
M  V30 3625 H 329.89 5.81152 3.81165 0
M  V30 3626 H 333.081 3.74762 2.80484 0
M  V30 3627 H 333.254 5.33535 3.67756 0
M  V30 3628 N 326.66 -1.06551 1.16123 0
M  V30 3629 C 327.57 -2.17484 0.879662 0
M  V30 3630 C 328.586 -1.73377 -0.147104 0
M  V30 3631 O 329.762 -2.01379 0.0289128 0
M  V30 3632 C 326.827 -3.44591 0.381829 0
M  V30 3633 C 325.888 -4.0322 1.4735 0
M  V30 3634 C 325.121 -5.24261 0.999324 0
M  V30 3635 O 325.344 -5.70198 -0.151957 0
M  V30 3636 O 324.278 -5.74775 1.78653 0
M  V30 3637 H 328.104 -2.44075 1.80724 0
M  V30 3638 H 325.689 -1.16042 0.940992 0
M  V30 3639 H 327.571 -4.21254 0.111053 0
M  V30 3640 H 326.246 -3.19532 -0.51777 0
M  V30 3641 H 325.153 -3.2806 1.79798 0
M  V30 3642 H 326.486 -4.32568 2.34831 0
M  V30 3643 N 328.138 -0.959301 -1.25041 0
M  V30 3644 C 329.048 -0.489994 -2.29426 0
M  V30 3645 C 330.064 0.444944 -1.68215 0
M  V30 3646 O 331.24 0.320046 -1.98841 0
M  V30 3647 C 328.305 0.220309 -3.45999 0
M  V30 3648 C 327.366 -0.753418 -4.22637 0
M  V30 3649 C 326.599 -0.076918 -5.33645 0
M  V30 3650 O 326.822 1.13649 -5.58963 0
M  V30 3651 O 325.756 -0.764824 -5.97021 0
M  V30 3652 H 329.582 -1.35755 -2.71669 0
M  V30 3653 H 327.167 -0.725961 -1.30576 0
M  V30 3654 H 329.049 0.619677 -4.16819 0
M  V30 3655 H 327.724 1.06296 -3.0575 0
M  V30 3656 H 326.631 -1.20308 -3.54227 0
M  V30 3657 H 327.964 -1.56423 -4.66683 0
M  V30 3658 N 329.616 1.39756 -0.72842 0
M  V30 3659 C 330.864 2.00248 -0.272946 0
M  V30 3660 C 331.185 1.58077 1.14178 0
M  V30 3661 O 330.455 0.826014 1.77634 0
M  V30 3662 H 329.035 0.740554 -0.0979247 0
M  V30 3663 H 331.697 1.70903 -0.936912 0
M  V30 3664 H 330.793 3.10495 -0.316142 0
M  V30 3665 N 331.094 0.475555 1.50254 0
M  V30 3666 C 332.343 -0.0795996 2.01543 0
M  V30 3667 C 332.656 -1.4038 1.36209 0
M  V30 3668 O 333.862 -2.04415 1.7868 0
M  V30 3669 C 332.318 -0.192363 3.59386 0
M  V30 3670 C 331.926 1.12367 4.33679 0
M  V30 3671 C 333.67 -0.699238 4.18701 0
M  V30 3672 C 331.577 0.974453 5.83317 0
M  V30 3673 H 330.507 -0.0335228 0.753254 0
M  V30 3674 H 333.158 0.611128 1.73025 0
M  V30 3675 H 331.54 -0.946974 3.84511 0
M  V30 3676 H 332.714 1.88958 4.20276 0
M  V30 3677 H 331.029 1.562 3.85993 0
M  V30 3678 H 333.626 -0.827978 5.28251 0
M  V30 3679 H 333.969 -1.69171 3.80377 0
M  V30 3680 H 334.502 -0.00188807 3.978 0
M  V30 3681 H 331.241 1.94042 6.26121 0
M  V30 3682 H 330.761 0.248998 5.99283 0
M  V30 3683 H 332.44 0.642867 6.43798 0
M  V30 3684 N 332.573 -1.56217 0.208337 0
M  V30 3685 C 333.798 -2.02782 -0.435222 0
M  V30 3686 C 334.223 -1.08738 -1.53485 0
M  V30 3687 O 333.581 -0.0731855 -1.81152 0
M  V30 3688 C 333.629 -3.47687 -0.956335 0
M  V30 3689 O 332.733 -3.56773 -2.06849 0
M  V30 3690 H 332.074 -0.656403 -0.100158 0
M  V30 3691 H 334.604 -2.02033 0.3231 0
M  V30 3692 H 334.614 -3.87745 -1.26955 0
M  V30 3693 H 333.289 -4.15624 -0.15143 0
M  V30 3694 H 331.866 -3.28597 -1.76292 0
M  V30 3695 N 334.051 0.0651679 -1.57465 0
M  V30 3696 C 334.981 1.07693 -2.07182 0
M  V30 3697 C 335.962 1.39962 -0.966673 0
M  V30 3698 O 337.147 1.49475 -1.2398 0
M  V30 3699 C 334.277 2.3885 -2.52127 0
M  V30 3700 C 333.231 2.20917 -3.66579 0
M  V30 3701 C 332.557 3.57515 -3.97601 0
M  V30 3702 C 333.857 1.62493 -4.9638 0
M  V30 3703 H 335.551 0.663199 -2.91962 0
M  V30 3704 H 333.097 0.317569 -1.40455 0
M  V30 3705 H 335.05 3.09928 -2.85522 0
M  V30 3706 H 333.774 2.82215 -1.64384 0
M  V30 3707 H 332.433 1.52279 -3.33477 0
M  V30 3708 H 332.081 3.98463 -3.06979 0
M  V30 3709 H 331.781 3.46353 -4.74672 0
M  V30 3710 H 333.305 4.30013 -4.33499 0
M  V30 3711 H 334.719 2.23445 -5.27963 0
M  V30 3712 H 333.116 1.62009 -5.77818 0
M  V30 3713 H 334.186 0.587041 -4.81333 0
M  V30 3714 N 335.529 1.53961 0.336706 0
M  V30 3715 C 336.754 1.75797 1.10046 0
M  V30 3716 C 337.179 0.498985 1.81361 0
M  V30 3717 O 336.537 -0.548769 1.72795 0
M  V30 3718 C 336.585 2.94257 2.08436 0
M  V30 3719 O 335.689 2.64883 3.16087 0
M  V30 3720 H 335.03 0.582936 0.317934 0
M  V30 3721 H 337.56 2.00945 0.38501 0
M  V30 3722 H 337.57 3.21237 2.51537 0
M  V30 3723 H 336.245 3.85564 1.55927 0
M  V30 3724 H 334.822 2.48812 2.77753 0
M  V30 3725 N 337.007 -0.598083 1.45811 0
M  V30 3726 C 338.253 -1.35882 1.50545 0
M  V30 3727 C 338.586 -1.93616 0.150445 0
M  V30 3728 O 337.861 -1.75604 -0.83628 0
M  V30 3729 C 338.144 -2.49966 2.59208 0
M  V30 3730 C 337.997 -1.97367 4.04186 0
M  V30 3731 C 339.316 -3.52068 2.64076 0
M  V30 3732 H 336.435 -0.492717 0.548087 0
M  V30 3733 H 339.077 -0.673319 1.77669 0
M  V30 3734 H 337.227 -3.08443 2.3621 0
M  V30 3735 H 338.899 -1.43466 4.38423 0
M  V30 3736 H 337.142 -1.283 4.14393 0
M  V30 3737 H 337.813 -2.79649 4.75921 0
M  V30 3738 H 340.289 -3.03448 2.84708 0
M  V30 3739 H 339.165 -4.2937 3.41954 0
M  V30 3740 H 339.426 -4.08304 1.69531 0
M  V30 3741 N 338.485 -1.33259 -0.841409 0
M  V30 3742 C 339.435 -1.19872 -1.93945 0
M  V30 3743 C 340.419 -0.102269 -1.60575 0
M  V30 3744 O 341.611 -0.330114 -1.73894 0
M  V30 3745 C 338.74 -0.937517 -3.30251 0
M  V30 3746 C 337.826 -2.07629 -3.69799 0
M  V30 3747 N 338.217 -3.32604 -3.81062 0
M  V30 3748 C 336.515 -1.98242 -3.9952 0
M  V30 3749 C 337.216 -4.07275 -4.15333 0
M  V30 3750 N 336.192 -3.35691 -4.27566 0
M  V30 3751 H 339.994 -2.14604 -2.00805 0
M  V30 3752 H 337.508 -1.2523 -1.03398 0
M  V30 3753 H 339.505 -0.822545 -4.08705 0
M  V30 3754 H 338.165 0.00128798 -3.247 0
M  V30 3755 H 339.176 -3.67382 -3.65035 0
M  V30 3756 H 335.853 -1.12005 -4.02195 0
M  V30 3757 H 337.243 -5.1511 -4.31406 0
M  V30 3758 N 339.963 1.05934 -1.16686 0
M  V30 3759 C 340.926 2.11669 -0.879144 0
M  V30 3760 C 341.926 1.60294 0.127445 0
M  V30 3761 O 343.116 1.7389 -0.103865 0
M  V30 3762 C 340.248 3.39438 -0.315425 0
M  V30 3763 H 341.441 2.38626 -1.81653 0
M  V30 3764 H 338.994 1.22058 -0.976299 0
M  V30 3765 H 339.729 3.18132 0.629468 0
M  V30 3766 H 339.514 3.78034 -1.04079 0
M  V30 3767 H 341.004 4.17391 -0.132189 0
M  V30 3768 N 341.441 0.965919 1.2453 0
M  V30 3769 C 342.689 0.625593 1.92174 0
M  V30 3770 C 343.01 -0.841652 1.75901 0
M  V30 3771 O 342.28 -1.60061 1.12948 0
M  V30 3772 H 340.86 0.228388 0.71123 0
M  V30 3773 H 343.522 1.2266 1.51461 0
M  V30 3774 H 342.618 0.864653 2.99884 0
M  V30 3775 N 342.919 -1.39368 0.735821 0
M  V30 3776 C 343.829 -2.34395 0.0979693 0
M  V30 3777 C 344.845 -1.58361 -0.720968 0
M  V30 3778 O 346.021 -1.90648 -0.649245 0
M  V30 3779 C 343.086 -3.37393 -0.797916 0
M  V30 3780 C 342.147 -4.29287 0.0333662 0
M  V30 3781 C 341.38 -5.27365 -0.819854 0
M  V30 3782 O 341.603 -5.31959 -2.05855 0
M  V30 3783 O 340.537 -6.01389 -0.248079 0
M  V30 3784 H 344.363 -2.90601 0.882315 0
M  V30 3785 H 341.948 -1.40909 0.4965 0
M  V30 3786 H 343.83 -4.00505 -1.31048 0
M  V30 3787 H 342.505 -2.83571 -1.56106 0
M  V30 3788 H 341.412 -3.69395 0.591475 0
M  V30 3789 H 342.745 -4.86317 0.758752 0
M  V30 3790 N 344.397 -0.483516 -1.5 0
M  V30 3791 C 345.674 0.129337 -1.95172 0
M  V30 3792 C 346.054 1.55802 -1.4244 0
M  V30 3793 O 345.402 2.19625 -0.630649 0
M  V30 3794 C 345.612 0.0599251 -3.48949 0
M  V30 3795 C 346.96 0.242617 -4.23906 0
M  V30 3796 O 347.984 0.135933 -3.55941 0
M  V30 3797 O 346.843 0.459454 -5.44565 0
M  V30 3798 H 343.937 0.104887 -0.820322 0
M  V30 3799 H 346.483 -0.544807 -1.60717 0
M  V30 3800 H 345.255 -0.937079 -3.79914 0
M  V30 3801 H 344.878 0.774984 -3.89974 0
M  V30 3802 N 345.875 1.56104 -0.216619 0
M  V30 3803 C 347.121 1.98466 0.417033 0
M  V30 3804 C 347.454 1.10403 1.59765 0
M  V30 3805 O 346.729 0.160632 1.93836 0
M  V30 3806 C 347.012 3.49769 0.85637 0
M  V30 3807 C 346.865 4.48606 -0.327546 0
M  V30 3808 C 348.184 4.05339 1.7143 0
M  V30 3809 H 345.303 0.721551 0.150112 0
M  V30 3810 H 347.945 1.87423 -0.311864 0
M  V30 3811 H 346.095 3.5931 1.47745 0
M  V30 3812 H 347.767 4.5108 -0.965618 0
M  V30 3813 H 346.01 4.22682 -0.975805 0
M  V30 3814 H 346.681 5.51995 0.0227149 0
M  V30 3815 H 349.157 3.98712 1.19031 0
M  V30 3816 H 348.033 5.11533 1.99061 0
M  V30 3817 H 348.294 3.51918 2.67593 0
M  V30 3818 N 347.353 -0.0568162 1.57498 0
M  V30 3819 C 348.578 -0.769402 1.92601 0
M  V30 3820 C 349.003 -1.69559 0.814336 0
M  V30 3821 O 348.361 -1.79811 -0.231903 0
M  V30 3822 C 348.409 -1.52634 3.26704 0
M  V30 3823 O 347.513 -2.63797 3.16994 0
M  V30 3824 H 346.854 -0.208909 0.63028 0
M  V30 3825 H 349.384 -0.0205798 2.0459 0
M  V30 3826 H 349.394 -1.90234 3.60936 0
M  V30 3827 H 348.069 -0.846875 4.07186 0
M  V30 3828 H 346.646 -2.28943 2.94346 0
M  V30 3829 N 348.832 -1.54138 -0.328536 0
M  V30 3830 C 350.081 -1.71318 -1.06456 0
M  V30 3831 C 350.394 -0.491109 -1.89334 0
M  V30 3832 O 351.6 -0.54416 -2.65991 0
M  V30 3833 C 350.056 -3.03 -1.94214 0
M  V30 3834 C 349.664 -4.32595 -1.16471 0
M  V30 3835 C 351.408 -3.29544 -2.67583 0
M  V30 3836 C 349.315 -5.55341 -2.03347 0
M  V30 3837 H 348.245 -0.638429 -0.401155 0
M  V30 3838 H 350.896 -1.80633 -0.323106 0
M  V30 3839 H 349.278 -2.87579 -2.72239 0
M  V30 3840 H 350.452 -4.58766 -0.432525 0
M  V30 3841 H 348.767 -4.12777 -0.548063 0
M  V30 3842 H 351.364 -4.18444 -3.3288 0
M  V30 3843 H 351.707 -2.47206 -3.34955 0
M  V30 3844 H 352.24 -3.45809 -1.96623 0
M  V30 3845 H 348.979 -6.40268 -1.40491 0
M  V30 3846 H 348.499 -5.33397 -2.74313 0
M  V30 3847 H 350.178 -5.91557 -2.62049 0
M  V30 3848 N 350.31 0.590341 -1.46126 0
M  V30 3849 C 351.721 1.17243 -1.45296 0
M  V30 3850 C 352.072 1.95281 -0.189723 0
M  V30 3851 O 351.197 2.04502 0.707674 0
M  V30 3852 C 351.792 2.13284 -2.6324 0
M  V30 3853 C 350.351 2.66832 -2.65476 0
M  V30 3854 C 349.498 1.42557 -2.3785 0
M  V30 3855 H 352.449 0.378692 -1.54116 0
M  V30 3856 H 352.47 2.96619 -2.38323 0
M  V30 3857 H 351.982 1.56459 -3.55165 0
M  V30 3858 H 350.083 3.27548 -1.77603 0
M  V30 3859 H 350.196 3.10088 -3.65215 0
M  V30 3860 H 348.56 1.72107 -1.87753 0
M  V30 3861 H 349.343 0.875741 -3.31942 0
M  V30 3862 N 351.788 1.33704 0.83433 0
M  V30 3863 C 352.736 1.24323 1.96587 0
M  V30 3864 C 353.73 0.143659 1.6879 0
M  V30 3865 O 354.936 0.30791 1.77347 0
M  V30 3866 H 351.311 0.385925 0.645419 0
M  V30 3867 H 353.282 2.19978 2.01624 0
M  V30 3868 C 352.031 1.00394 3.32891 0
M  V30 3869 H 351.354 1.84231 3.54822 0
M  V30 3870 H 352.794 0.97862 4.12552 0
M  V30 3871 C 351.253 -0.293047 3.35623 0
M  V30 3872 O 351.783 -1.29823 3.80143 0
M  V30 3873 N 349.989 -0.322174 2.88809 0
M  V30 3874 H 349.536 0.496379 2.52772 0
M  V30 3875 H 349.494 -1.18977 2.91019 0
M  V30 3876 N 353.266 -1.05314 1.17247 0
M  V30 3877 C 354.196 -2.1498 0.911362 0
M  V30 3878 C 355.177 -1.69471 -0.146169 0
M  V30 3879 O 356.362 -1.942 0.003812 0
M  V30 3880 C 353.492 -3.4472 0.422528 0
M  V30 3881 C 352.446 -4.03789 1.4191 0
M  V30 3882 C 351.772 -5.28858 0.788274 0
M  V30 3883 C 353.072 -4.41418 2.7919 0
M  V30 3884 H 354.766 -2.3708 1.82848 0
M  V30 3885 H 352.312 -1.13938 0.880569 0
M  V30 3886 H 354.265 -4.20787 0.227289 0
M  V30 3887 H 352.989 -3.22269 -0.530123 0
M  V30 3888 H 351.648 -3.2979 1.60106 0
M  V30 3889 H 351.296 -5.02709 -0.171173 0
M  V30 3890 H 350.996 -5.69338 1.45353 0
M  V30 3891 H 352.52 -6.07612 0.603282 0
M  V30 3892 H 353.934 -5.08524 2.64719 0
M  V30 3893 H 352.331 -4.92913 3.42282 0
M  V30 3894 H 353.401 -3.51819 3.33693 0
M  V30 3895 N 354.744 -0.972509 -1.24016 0
M  V30 3896 C 355.692 -0.498562 -2.27194 0
M  V30 3897 C 356.686 0.440372 -1.63576 0
M  V30 3898 O 357.892 0.315133 -1.7722 0
M  V30 3899 H 354.267 -0.142775 -0.738322 0
M  V30 3900 H 356.238 -1.38065 -2.64539 0
M  V30 3901 C 354.987 0.191072 -3.47175 0
M  V30 3902 H 354.31 -0.522318 -3.96373 0
M  V30 3903 H 355.75 0.486445 -4.212 0
M  V30 3904 C 354.209 1.41967 -3.05527 0
M  V30 3905 O 354.739 2.51642 -3.13112 0
M  V30 3906 N 352.945 1.28746 -2.60524 0
M  V30 3907 H 352.492 0.395089 -2.54552 0
M  V30 3908 H 352.45 2.11061 -2.33025 0
M  V30 3909 N 356.222 1.38976 -0.743202 0
M  V30 3910 C 357.447 2.05161 -0.303936 0
M  V30 3911 C 357.872 1.55677 1.05576 0
M  V30 3912 O 357.23 0.704131 1.67068 0
M  V30 3913 C 357.278 3.59138 -0.324373 0
M  V30 3914 O 356.382 4.06668 0.685204 0
M  V30 3915 H 355.723 0.649815 -0.136518 0
M  V30 3916 H 358.253 1.77852 -1.01142 0
M  V30 3917 H 358.263 4.07639 -0.171618 0
M  V30 3918 H 356.938 3.94515 -1.31647 0
M  V30 3919 H 355.515 3.69561 0.497913 0
M  V30 3920 N 357.7 0.491464 1.49741 0
M  V30 3921 C 358.63 -0.28154 2.31796 0
M  V30 3922 C 359.611 -0.971473 1.3963 0
M  V30 3923 O 360.796 -0.964719 1.68543 0
M  V30 3924 C 357.926 -1.35203 3.19902 0
M  V30 3925 C 356.88 -0.782529 4.20786 0
M  V30 3926 C 356.206 -1.95283 4.97764 0
M  V30 3927 C 357.506 0.21999 5.21837 0
M  V30 3928 H 359.2 0.403355 2.96671 0
M  V30 3929 H 356.746 0.195425 1.42668 0
M  V30 3930 H 358.699 -1.90045 3.76113 0
M  V30 3931 H 357.423 -2.06598 2.52953 0
M  V30 3932 H 356.082 -0.255928 3.65706 0
M  V30 3933 H 355.73 -2.65423 4.2727 0
M  V30 3934 H 355.43 -1.57789 5.66018 0
M  V30 3935 H 356.954 -2.50577 5.56816 0
M  V30 3936 H 358.368 -0.23996 5.72798 0
M  V30 3937 H 356.765 0.51026 5.97927 0
M  V30 3938 H 357.835 1.13911 4.7133 0
M  V30 3939 N 359.178 -1.55987 0.224894 0
M  V30 3940 C 360.408 -2.02489 -0.41007 0
M  V30 3941 C 360.816 -1.10391 -1.53657 0
M  V30 3942 O 360.159 -0.106458 -1.83391 0
M  V30 3943 C 360.221 -3.45319 -0.999757 0
M  V30 3944 C 359.885 -4.56999 -0.00827976 0
M  V30 3945 C 360.882 -5.13812 0.793314 0
M  V30 3946 C 358.567 -5.02176 0.111442 0
M  V30 3947 C 360.561 -6.14276 1.7013 0
M  V30 3948 C 358.248 -6.02477 1.02296 0
M  V30 3949 C 359.246 -6.58403 1.81643 0
M  V30 3950 O 358.934 -7.56751 2.71262 0
M  V30 3951 H 358.666 -0.667915 -0.104235 0
M  V30 3952 H 361.22 -2.0257 0.339782 0
M  V30 3953 H 359.45 -3.42318 -1.79876 0
M  V30 3954 H 361.139 -3.7545 -1.54248 0
M  V30 3955 H 361.905 -4.79756 0.711288 0
M  V30 3956 H 357.784 -4.58323 -0.49605 0
M  V30 3957 H 361.328 -6.57854 2.32107 0
M  V30 3958 H 357.225 -6.35954 1.10599 0
M  V30 3959 H 357.993 -7.74286 2.65375 0
M  V30 3960 N 360.656 0.0484629 -1.57525 0
M  V30 3961 C 361.884 0.755421 -1.92616 0
M  V30 3962 C 362.299 1.69919 -0.822984 0
M  V30 3963 O 361.656 1.81378 0.202085 0
M  V30 3964 C 361.707 1.52915 -3.27566 0
M  V30 3965 O 361.428 0.62329 -4.33644 0
M  V30 3966 C 362.929 2.33502 -3.76818 0
M  V30 3967 H 360.149 0.213465 -0.63614 0
M  V30 3968 H 362.693 0.0117698 -2.04497 0
M  V30 3969 H 360.848 2.22486 -3.17142 0
M  V30 3970 H 361.262 1.16383 -5.11425 0
M  V30 3971 H 362.736 2.83214 -4.73808 0
M  V30 3972 H 363.213 3.14068 -3.07014 0
M  V30 3973 H 363.819 1.69043 -3.90262 0
M  V30 3974 N 362.134 1.5431 0.320358 0
M  V30 3975 C 363.097 1.83195 1.3774 0
M  V30 3976 C 364.097 0.703906 1.44575 0
M  V30 3977 O 365.287 0.972214 1.44546 0
M  V30 3978 C 362.419 1.99487 2.76438 0
M  V30 3979 H 363.612 2.77642 1.1338 0
M  V30 3980 H 361.165 1.46076 0.556012 0
M  V30 3981 H 361.9 1.07262 3.06048 0
M  V30 3982 H 361.685 2.81575 2.7287 0
M  V30 3983 H 363.175 2.23271 3.52902 0
M  V30 3984 N 363.613 -0.582584 1.46437 0
M  V30 3985 C 364.862 -1.337 1.5102 0
M  V30 3986 C 365.175 -1.94891 0.166359 0
M  V30 3987 O 366.381 -2.71351 0.0899954 0
M  V30 3988 C 364.837 -2.42315 2.66104 0
M  V30 3989 C 364.445 -1.87427 4.06909 0
M  V30 3990 C 366.189 -3.19099 2.79958 0
M  V30 3991 C 364.096 -2.93672 5.13333 0
M  V30 3992 H 363.026 -0.502619 0.562041 0
M  V30 3993 H 365.677 -0.621701 1.72647 0
M  V30 3994 H 364.059 -3.16645 2.37807 0
M  V30 3995 H 365.233 -1.19639 4.44998 0
M  V30 3996 H 363.548 -1.2331 3.97723 0
M  V30 3997 H 366.145 -3.9839 3.56636 0
M  V30 3998 H 366.488 -3.71695 1.87479 0
M  V30 3999 H 367.021 -2.51875 3.07902 0
M  V30 4000 H 363.76 -2.45962 6.07604 0
M  V30 4001 H 363.28 -3.59948 4.79789 0
M  V30 4002 H 364.959 -3.5762 5.39182 0
M  V30 4003 N 365.091 -1.34144 -0.827227 0
M  V30 4004 C 366.039 -1.25364 -1.95925 0
M  V30 4005 C 367.033 -0.152608 -1.68711 0
M  V30 4006 O 368.239 -0.317311 -1.77181 0
M  V30 4007 H 364.614 -0.389342 -0.643364 0
M  V30 4008 H 366.585 -2.21045 -2.00454 0
M  V30 4009 C 365.334 -1.02158 -3.32354 0
M  V30 4010 H 364.657 -1.86111 -3.5384 0
M  V30 4011 H 366.097 -1.00048 -4.12027 0
M  V30 4012 C 364.556 0.275244 -3.35774 0
M  V30 4013 O 365.086 1.27806 -3.80826 0
M  V30 4014 N 363.292 0.306853 -2.88975 0
M  V30 4015 H 362.839 -0.509777 -2.52506 0
M  V30 4016 H 362.797 1.17432 -2.91646 0
M  V30 4017 N 366.569 1.04691 -1.17803 0
M  V30 4018 C 367.499 2.14494 -0.92275 0
M  V30 4019 C 368.48 1.69546 0.137179 0
M  V30 4020 O 369.665 1.94195 -0.0141108 0
M  V30 4021 C 366.795 3.44491 -0.440803 0
M  V30 4022 C 365.749 4.03031 -1.4405 0
M  V30 4023 C 365.075 5.28432 -0.81631 0
M  V30 4024 C 366.375 4.39932 -2.81527 0
M  V30 4025 H 368.069 2.36107 -1.84103 0
M  V30 4026 H 365.615 1.1347 -0.886599 0
M  V30 4027 H 367.568 4.2066 -0.249602 0
M  V30 4028 H 366.292 3.22546 0.513025 0
M  V30 4029 H 364.951 3.28937 -1.61853 0
M  V30 4030 H 364.599 5.02792 0.144511 0
M  V30 4031 H 364.299 5.68559 -1.48371 0
M  V30 4032 H 365.823 6.07284 -0.635496 0
M  V30 4033 H 367.237 5.07113 -2.67412 0
M  V30 4034 H 365.634 4.9109 -3.44892 0
M  V30 4035 H 366.704 3.50045 -3.35554 0
M  V30 4036 N 368.047 0.979072 1.23499 0
M  V30 4037 C 368.977 0.537606 2.27227 0
M  V30 4038 C 369.958 -0.428539 1.64613 0
M  V30 4039 O 371.143 -0.322191 1.91509 0
M  V30 4040 C 368.273 -0.162052 3.46922 0
M  V30 4041 C 367.227 0.721242 4.21879 0
M  V30 4042 C 366.553 -0.110555 5.34586 0
M  V30 4043 C 367.853 2.01141 4.82016 0
M  V30 4044 H 369.547 1.40462 2.64406 0
M  V30 4045 H 367.093 0.67684 1.27102 0
M  V30 4046 H 369.046 -0.482192 4.18632 0
M  V30 4047 H 367.77 -1.06351 3.08799 0
M  V30 4048 H 366.429 1.02482 3.51984 0
M  V30 4049 H 366.077 -1.0125 4.92704 0
M  V30 4050 H 365.777 0.477325 5.85658 0
M  V30 4051 H 367.301 -0.425107 6.09118 0
M  V30 4052 H 368.715 1.75612 5.45741 0
M  V30 4053 H 367.112 2.54695 5.43369 0
M  V30 4054 H 368.182 2.69909 4.02836 0
M  V30 4055 N 369.525 -1.3858 0.750561 0
M  V30 4056 C 370.475 -2.27795 0.0965949 0
M  V30 4057 C 371.459 -1.45048 -0.696411 0
M  V30 4058 O 372.651 -1.67812 -0.562863 0
M  V30 4059 C 369.78 -3.33894 -0.798085 0
M  V30 4060 C 368.866 -4.241 0.0016067 0
M  V30 4061 N 369.257 -4.95067 1.03647 0
M  V30 4062 C 367.555 -4.45429 -0.225674 0
M  V30 4063 C 368.256 -5.61489 1.52004 0
M  V30 4064 N 367.232 -5.37135 0.835874 0
M  V30 4065 H 371.034 -2.80125 0.889228 0
M  V30 4066 H 368.548 -1.51446 0.586323 0
M  V30 4067 H 370.545 -3.96693 -1.28219 0
M  V30 4068 H 369.205 -2.83123 -1.5897 0
M  V30 4069 H 370.216 -4.98104 1.41819 0
M  V30 4070 H 366.893 -4.05571 -0.990872 0
M  V30 4071 H 368.283 -6.28264 2.38188 0
M  V30 4072 N 371.003 -0.499398 -1.49478 0
M  V30 4073 C 372.249 0.0457576 -2.02748 0
M  V30 4074 C 372.582 1.36793 -1.37846 0
M  V30 4075 O 371.857 1.87596 -0.513601 0
M  V30 4076 C 372.14 0.199986 -3.59544 0
M  V30 4077 C 371.993 -1.1452 -4.34977 0
M  V30 4078 C 373.312 0.94137 -4.29914 0
M  V30 4079 H 370.431 0.0151552 -0.736844 0
M  V30 4080 H 373.073 -0.650498 -1.78518 0
M  V30 4081 H 371.223 0.793007 -3.8032 0
M  V30 4082 H 372.895 -1.77697 -4.25701 0
M  V30 4083 H 371.138 -1.73488 -3.97598 0
M  V30 4084 H 371.809 -0.990607 -5.43039 0
M  V30 4085 H 374.285 0.43844 -4.13784 0
M  V30 4086 H 373.161 1.01812 -5.39375 0
M  V30 4087 H 373.422 1.98471 -3.95046 0
M  V30 4088 N 372.481 1.55866 -0.233164 0
M  V30 4089 C 373.428 2.20796 0.67215 0
M  V30 4090 C 374.398 1.16731 1.18166 0
M  V30 4091 O 375.583 1.45129 1.23864 0
M  V30 4092 C 372.723 2.90072 1.86955 0
M  V30 4093 C 371.836 4.08759 1.39786 0
M  V30 4094 C 370.971 4.65787 2.55374 0
M  V30 4095 C 370.01 5.76752 2.04998 0
M  V30 4096 N 369.147 6.28021 3.13901 0
M  V30 4097 H 373.987 2.9779 0.111749 0
M  V30 4098 H 371.524 1.47036 0.0434007 0
M  V30 4099 H 373.482 3.28428 2.57276 0
M  V30 4100 H 372.112 2.15575 2.40265 0
M  V30 4101 H 371.164 3.7581 0.589173 0
M  V30 4102 H 372.476 4.88906 0.98856 0
M  V30 4103 H 371.63 5.06646 3.33758 0
M  V30 4104 H 370.369 3.84828 2.99598 0
M  V30 4105 H 369.374 5.35383 1.25079 0
M  V30 4106 H 370.599 6.59553 1.61759 0
M  V30 4107 H 368.545 5.49971 3.57586 0
M  V30 4108 H 368.462 7.03323 2.7726 0
M  V30 4109 H 369.73 6.73538 3.92386 0
M  V30 4110 N 373.959 -0.0401083 1.57549 0
M  V30 4111 C 375.375 -0.395556 1.54621 0
M  V30 4112 C 375.575 -1.77281 0.957799 0
M  V30 4113 O 374.631 -2.45888 0.574031 0
M  V30 4114 C 375.944 -0.307535 2.99123 0
M  V30 4115 C 377.492 -0.385425 3.10618 0
M  V30 4116 C 377.967 -0.326973 4.56831 0
M  V30 4117 N 379.458 -0.386102 4.61588 0
M  V30 4118 C 380.193 -0.363591 5.72246 0
M  V30 4119 N 379.689 -0.29402 6.92176 0
M  V30 4120 N 381.482 -0.412503 5.60584 0
M  V30 4121 H 373.633 0.861325 1.94152 0
M  V30 4122 H 375.896 0.326445 0.890021 0
M  V30 4123 H 375.602 0.638461 3.45856 0
M  V30 4124 H 375.476 -1.10552 3.60636 0
M  V30 4125 H 377.863 -1.32185 2.63839 0
M  V30 4126 H 377.944 0.44171 2.51957 0
M  V30 4127 H 377.588 0.605738 5.04275 0
M  V30 4128 H 377.518 -1.17207 5.13391 0
M  V30 4129 H 380.009 -0.442832 3.75296 0
M  V30 4130 H 380.322 -0.28164 7.72287 0
M  V30 4131 H 378.667 -0.260232 6.94513 0
M  V30 4132 H 381.858 -0.464769 4.65787 0
M  V30 4133 H 382.031 -0.391492 6.46816 0
M  V30 4134 N 375.437 -1.54477 -0.31217 0
M  V30 4135 C 376.686 -1.72438 -1.04633 0
M  V30 4136 C 376.999 -0.511163 -1.88803 0
M  V30 4137 O 378.205 -0.572341 -2.65399 0
M  V30 4138 C 376.661 -3.05043 -1.9099 0
M  V30 4139 C 376.269 -4.33806 -1.11877 0
M  V30 4140 C 378.013 -3.32364 -2.64073 0
M  V30 4141 C 375.92 -5.57467 -1.97445 0
M  V30 4142 H 374.85 -0.642647 -0.394361 0
M  V30 4143 H 377.501 -1.80966 -0.303929 0
M  V30 4144 H 375.883 -2.90451 -2.69173 0
M  V30 4145 H 377.057 -4.59199 -0.383843 0
M  V30 4146 H 375.372 -4.13336 -0.504252 0
M  V30 4147 H 377.969 -4.21951 -3.28423 0
M  V30 4148 H 378.312 -2.50745 -3.32314 0
M  V30 4149 H 378.845 -3.47875 -1.92944 0
M  V30 4150 H 375.584 -6.41722 -1.33692 0
M  V30 4151 H 375.104 -5.36277 -2.6864 0
M  V30 4152 H 376.783 -5.94303 -2.5576 0
M  V30 4153 N 376.915 0.57481 -1.46744 0
M  V30 4154 C 378.163 1.33009 -1.52161 0
M  V30 4155 C 378.484 1.94185 -0.178092 0
M  V30 4156 O 377.754 1.7899 0.796196 0
M  V30 4157 H 376.334 0.493873 -0.560445 0
M  V30 4158 H 378.996 0.672589 -1.82927 0
M  V30 4159 H 378.092 2.13273 -2.27862 0
M  V30 4160 N 378.394 1.34581 0.820102 0
M  V30 4161 C 379.344 1.22943 1.92013 0
M  V30 4162 C 380.328 0.127802 1.60392 0
M  V30 4163 O 381.52 0.357737 1.73347 0
M  V30 4164 C 378.649 0.989938 3.28717 0
M  V30 4165 C 377.735 2.13486 3.66449 0
M  V30 4166 N 378.126 3.38625 3.75722 0
M  V30 4167 C 376.424 2.04573 3.96315 0
M  V30 4168 C 377.125 4.13832 4.08801 0
M  V30 4169 N 376.101 3.42451 4.22171 0
M  V30 4170 H 379.903 2.17771 1.97365 0
M  V30 4171 H 377.417 1.2686 1.01392 0
M  V30 4172 H 379.414 0.887462 4.07345 0
M  V30 4173 H 378.074 0.0503691 3.24661 0
M  V30 4174 H 379.085 3.73143 3.59144 0
M  V30 4175 H 375.762 1.1839 4.00362 0
M  V30 4176 H 377.152 5.21909 4.23156 0
M  V30 4177 N 379.872 -1.04064 1.18357 0
M  V30 4178 C 381.12 -1.76915 0.977013 0
M  V30 4179 C 381.441 -1.88624 -0.494577 0
M  V30 4180 O 380.711 -1.41125 -1.3587 0
M  V30 4181 H 379.291 -0.65535 0.358504 0
M  V30 4182 H 381.953 -1.25592 1.49039 0
M  V30 4183 H 381.049 -2.78178 1.41504 0
M  V30 4184 N 381.35 -0.985608 -1.22978 0
M  V30 4185 C 382.599 -0.652881 -1.90841 0
M  V30 4186 C 382.912 0.817842 -1.77681 0
M  V30 4187 O 384.118 1.26185 -2.40395 0
M  V30 4188 C 382.574 -1.11717 -3.42122 0
M  V30 4189 C 382.182 -2.6126 -3.63933 0
M  V30 4190 C 383.926 -0.85843 -4.1573 0
M  V30 4191 C 381.833 -3.0133 -5.08876 0
M  V30 4192 H 380.763 -0.240491 -0.714619 0
M  V30 4193 H 383.414 -1.1942 -1.39324 0
M  V30 4194 H 381.796 -0.504027 -3.92779 0
M  V30 4195 H 382.97 -3.27858 -3.23799 0
M  V30 4196 H 381.285 -2.84937 -3.03644 0
M  V30 4197 H 383.882 -1.13359 -5.22546 0
M  V30 4198 H 384.225 0.205461 -4.15793 0
M  V30 4199 H 384.758 -1.43341 -3.71077 0
M  V30 4200 H 381.497 -4.06864 -5.13947 0
M  V30 4201 H 381.017 -2.3943 -5.49939 0
M  V30 4202 H 382.696 -2.92224 -5.77247 0
M  V30 4203 N 382.828 1.3818 -0.7579 0
M  V30 4204 C 384.244 1.5353 -0.435972 0
M  V30 4205 C 384.444 1.71961 1.05032 0
M  V30 4206 O 383.5 1.73307 1.83633 0
M  V30 4207 C 384.813 2.73989 -1.23898 0
M  V30 4208 C 386.361 2.87841 -1.22949 0
M  V30 4209 C 386.836 4.11266 -2.01554 0
M  V30 4210 N 388.327 4.18352 -1.98837 0
M  V30 4211 C 389.062 5.12856 -2.5645 0
M  V30 4212 N 388.558 6.13005 -3.22794 0
M  V30 4213 N 390.351 5.05238 -2.46356 0
M  V30 4214 H 382.502 1.24467 -1.7211 0
M  V30 4215 H 384.765 0.604982 -0.729864 0
M  V30 4216 H 384.471 2.66789 -2.29165 0
M  V30 4217 H 384.345 3.67294 -0.858764 0
M  V30 4218 H 386.732 2.9452 -0.184854 0
M  V30 4219 H 386.813 1.95534 -1.64924 0
M  V30 4220 H 386.457 4.05349 -3.06031 0
M  V30 4221 H 386.387 5.02661 -1.5697 0
M  V30 4222 H 388.878 3.46628 -1.50524 0
M  V30 4223 H 389.191 6.81619 -3.64165 0
M  V30 4224 H 387.536 6.13325 -3.2689 0
M  V30 4225 H 390.727 4.25938 -1.9415 0
M  V30 4226 H 390.9 5.78707 -2.91552 0
M  V30 4227 N 384.306 0.507319 1.49211 0
M  V30 4228 C 385.552 -0.0350047 2.0277 0
M  V30 4229 C 385.885 -1.3606 1.38569 0
M  V30 4230 O 385.16 -1.87321 0.523542 0
M  V30 4231 C 385.443 -0.180916 3.59645 0
M  V30 4232 C 385.296 1.16825 4.34364 0
M  V30 4233 C 386.615 -0.918558 4.30407 0
M  V30 4234 H 383.734 -0.0112473 0.736914 0
M  V30 4235 H 386.376 0.659956 1.7817 0
M  V30 4236 H 384.526 -0.772826 3.80736 0
M  V30 4237 H 386.198 1.79952 4.24753 0
M  V30 4238 H 384.441 1.75594 3.96673 0
M  V30 4239 H 385.112 1.01939 5.42506 0
M  V30 4240 H 387.588 -0.41649 4.1401 0
M  V30 4241 H 386.464 -0.989505 5.39907 0
M  V30 4242 H 386.725 -1.96373 3.96093 0
M  V30 4243 N 385.784 -1.5574 0.241426 0
M  V30 4244 C 387.009 -2.0366 -0.392111 0
M  V30 4245 C 387.434 -1.11969 -1.51144 0
M  V30 4246 O 386.792 -0.111594 -1.80956 0
M  V30 4247 C 386.84 -3.49638 -0.882371 0
M  V30 4248 O 385.944 -3.6108 -1.99235 0
M  V30 4249 H 385.285 -0.658379 -0.0862122 0
M  V30 4250 H 387.815 -2.01302 0.365881 0
M  V30 4251 H 387.825 -3.90351 -1.18702 0
M  V30 4252 H 386.5 -4.15852 -0.0632361 0
M  V30 4253 H 385.077 -3.32262 -1.69282 0
M  V30 4254 N 387.262 0.0317525 -1.57568 0
M  V30 4255 C 388.172 1.05021 -2.0978 0
M  V30 4256 C 389.188 1.39809 -1.03583 0
M  V30 4257 O 390.364 1.49182 -1.35302 0
M  V30 4258 C 387.429 2.33301 -2.56459 0
M  V30 4259 C 386.49 2.0512 -3.77127 0
M  V30 4260 C 385.723 3.27283 -4.2157 0
M  V30 4261 O 385.946 4.37861 -3.65559 0
M  V30 4262 O 384.88 3.13141 -5.14029 0
M  V30 4263 H 388.706 0.636505 -2.96955 0
M  V30 4264 H 386.291 0.248559 -1.47318 0
M  V30 4265 H 388.173 3.08722 -2.86825 0
M  V30 4266 H 386.848 2.73973 -1.72397 0
M  V30 4267 H 385.755 1.27276 -3.51784 0
M  V30 4268 H 387.088 1.69305 -4.62165 0
M  V30 4269 N 388.74 1.54641 0.303973 0
M  V30 4270 C 389.965 1.78092 1.06292 0
M  V30 4271 C 390.39 0.537342 1.80262 0
M  V30 4272 O 389.748 -0.511993 1.7392 0
M  V30 4273 C 389.796 2.98612 2.02147 0
M  V30 4274 O 388.9 2.71528 3.10397 0
M  V30 4275 H 388.241 0.589548 0.305497 0
M  V30 4276 H 390.771 2.01716 0.3423 0
M  V30 4277 H 390.781 3.265 2.44667 0
M  V30 4278 H 389.456 3.88785 1.47714 0
M  V30 4279 H 388.033 2.54648 2.72413 0
M  V30 4280 N 390.218 -0.567019 1.47046 0
M  V30 4281 C 391.15 -1.68985 1.54844 0
M  V30 4282 C 392.163 -1.56869 0.435431 0
M  V30 4283 O 393.352 -1.64006 0.70457 0
M  V30 4284 C 390.452 -3.07373 1.42742 0
M  V30 4285 C 389.625 -3.45339 2.6844 0
M  V30 4286 C 388.684 -4.62849 2.50314 0
M  V30 4287 O 387.71 -4.67922 3.24095 0
M  V30 4288 N 388.912 -5.58726 1.57499 0
M  V30 4289 H 391.677 -1.62745 2.51663 0
M  V30 4290 H 389.238 -0.753411 1.43302 0
M  V30 4291 H 391.23 -3.83803 1.28365 0
M  V30 4292 H 389.8 -3.07893 0.540445 0
M  V30 4293 H 389.02 -2.58455 2.97648 0
M  V30 4294 H 390.308 -3.67476 3.51907 0
M  V30 4295 H 389.706 -5.57376 0.966876 0
M  V30 4296 H 388.263 -6.34523 1.49078 0
M  V30 4297 N 391.696 -1.35014 -0.812953 0
M  V30 4298 C 392.606 -1.2951 -1.95613 0
M  V30 4299 C 393.622 -0.20107 -1.72834 0
M  V30 4300 O 394.798 -0.42932 -1.96771 0
M  V30 4301 C 391.863 -1.06033 -3.30088 0
M  V30 4302 C 390.924 -2.24688 -3.65805 0
M  V30 4303 C 390.157 -2.02322 -4.93864 0
M  V30 4304 O 390.38 -0.986464 -5.61805 0
M  V30 4305 O 389.314 -2.89525 -5.27692 0
M  V30 4306 H 393.14 -2.25705 -2.03202 0
M  V30 4307 H 390.725 -1.15321 -0.949811 0
M  V30 4308 H 392.607 -0.94763 -4.10607 0
M  V30 4309 H 391.282 -0.128852 -3.23443 0
M  V30 4310 H 390.189 -2.41521 -2.85689 0
M  V30 4311 H 391.522 -3.16261 -3.77147 0
M  V30 4312 N 393.175 1.03435 -1.18907 0
M  V30 4313 C 394.105 2.13503 -0.945448 0
M  V30 4314 C 395.086 1.69682 0.119189 0
M  V30 4315 O 396.271 1.94169 -0.034707 0
M  V30 4316 C 393.401 3.44004 -0.477316 0
M  V30 4317 C 392.355 4.0148 -1.48316 0
M  V30 4318 C 391.681 5.27537 -0.872311 0
M  V30 4319 C 392.981 4.36921 -2.86177 0
M  V30 4320 H 394.675 2.34141 -1.86597 0
M  V30 4321 H 392.221 1.12523 -0.898584 0
M  V30 4322 H 394.174 4.20372 -0.294204 0
M  V30 4323 H 392.898 3.23072 0.478786 0
M  V30 4324 H 391.557 3.27201 -1.65332 0
M  V30 4325 H 391.205 5.02917 0.0911752 0
M  V30 4326 H 390.905 5.66954 -1.54393 0
M  V30 4327 H 392.429 6.06576 -0.699871 0
M  V30 4328 H 393.843 5.04248 -2.72776 0
M  V30 4329 H 392.24 4.87405 -3.50081 0
M  V30 4330 H 393.31 3.46466 -3.39248 0
M  V30 4331 N 394.653 0.992116 1.22453 0
M  V30 4332 C 395.902 0.662992 1.90492 0
M  V30 4333 C 396.215 -0.808407 1.78113 0
M  V30 4334 O 397.421 -1.24908 2.41061 0
M  V30 4335 C 395.877 1.1353 3.41524 0
M  V30 4336 C 395.485 2.63187 3.62542 0
M  V30 4337 C 397.229 0.880465 4.15269 0
M  V30 4338 C 395.136 3.04024 5.0727 0
M  V30 4339 H 394.066 0.244278 0.713333 0
M  V30 4340 H 396.717 1.20157 1.38688 0
M  V30 4341 H 395.099 0.52485 3.92506 0
M  V30 4342 H 396.273 3.2957 3.22056 0
M  V30 4343 H 394.588 2.86543 3.02129 0
M  V30 4344 H 397.185 1.16128 5.21937 0
M  V30 4345 H 397.528 -0.183408 4.15896 0
M  V30 4346 H 398.061 1.45307 3.70312 0
M  V30 4347 H 394.8 4.09584 5.11782 0
M  V30 4348 H 394.32 2.42343 5.48662 0
M  V30 4349 H 395.999 2.95282 5.75689 0
M  V30 4350 N 396.131 -1.37776 0.765217 0
M  V30 4351 C 397.408 -1.93975 0.251596 0
M  V30 4352 C 397.788 -1.69949 -1.25222 0
M  V30 4353 O 397.136 -1.04457 -2.03226 0
M  V30 4354 C 397.346 -3.43487 0.617895 0
M  V30 4355 C 398.694 -4.20564 0.584029 0
M  V30 4356 O 399.718 -3.5182 0.556888 0
M  V30 4357 O 398.577 -5.43138 0.605291 0
M  V30 4358 H 395.671 -0.82509 0.0561806 0
M  V30 4359 H 398.217 -1.47101 0.846128 0
M  V30 4360 H 396.989 -3.5453 1.65602 0
M  V30 4361 H 396.612 -3.976 -0.00403411 0
M  V30 4362 N 397.609 -0.515225 -1.4894 0
M  V30 4363 C 398.539 0.244628 -2.32215 0
M  V30 4364 C 399.52 0.949136 -1.41157 0
M  V30 4365 O 400.705 0.937783 -1.70057 0
M  V30 4366 C 397.835 1.30096 -3.22013 0
M  V30 4367 C 396.789 0.715486 -4.21977 0
M  V30 4368 C 396.115 1.87339 -5.00808 0
M  V30 4369 C 397.415 -0.302982 -5.2142 0
M  V30 4370 H 399.109 -0.450501 -2.95991 0
M  V30 4371 H 396.655 -0.218098 -1.42339 0
M  V30 4372 H 398.608 1.84037 -3.79089 0
M  V30 4373 H 397.332 2.02547 -2.56207 0
M  V30 4374 H 395.991 0.197715 -3.66066 0
M  V30 4375 H 395.639 2.58592 -4.31438 0
M  V30 4376 H 395.339 1.48764 -5.68457 0
M  V30 4377 H 396.863 2.41686 -5.60732 0
M  V30 4378 H 398.277 0.148802 -5.73107 0
M  V30 4379 H 396.674 -0.60532 -5.97039 0
M  V30 4380 H 397.744 -1.21395 -4.69459 0
M  V30 4381 N 399.087 1.5561 -0.249682 0
M  V30 4382 C 400.333 1.99306 0.374841 0
M  V30 4383 C 400.666 1.13767 1.57387 0
M  V30 4384 O 399.941 0.201711 1.93451 0
M  V30 4385 C 400.224 3.51507 0.781986 0
M  V30 4386 C 400.077 4.4781 -0.422629 0
M  V30 4387 C 401.396 4.08884 1.62793 0
M  V30 4388 H 398.515 0.724572 0.134773 0
M  V30 4389 H 401.157 1.86719 -0.351549 0
M  V30 4390 H 399.307 3.62363 1.4009 0
M  V30 4391 H 400.979 4.48931 -1.06108 0
M  V30 4392 H 399.222 4.20518 -1.06524 0
M  V30 4393 H 399.893 5.51919 -0.0943766 0
M  V30 4394 H 402.369 4.01147 1.10547 0
M  V30 4395 H 401.245 5.1564 1.88166 0
M  V30 4396 H 401.506 3.57515 2.60068 0
M  V30 4397 N 400.565 -0.0233959 1.57583 0
M  V30 4398 C 401.512 -1.02224 2.06927 0
M  V30 4399 C 402.482 -1.35575 0.959617 0
M  V30 4400 O 403.667 -1.45815 1.23055 0
M  V30 4401 C 400.807 -2.31636 2.5581 0
M  V30 4402 C 399.92 -2.04394 3.80588 0
M  V30 4403 C 399.055 -3.27717 4.18061 0
M  V30 4404 C 398.094 -2.96056 5.3574 0
M  V30 4405 N 397.231 -4.11847 5.68618 0
M  V30 4406 H 402.071 -0.594504 2.9201 0
M  V30 4407 H 399.608 -0.281921 1.44373 0
M  V30 4408 H 401.566 -3.07258 2.82221 0
M  V30 4409 H 400.196 -2.72122 1.73636 0
M  V30 4410 H 399.248 -1.19244 3.61227 0
M  V30 4411 H 400.56 -1.77042 4.66323 0
M  V30 4412 H 399.714 -4.11702 4.4563 0
M  V30 4413 H 398.453 -3.58188 3.30988 0
M  V30 4414 H 397.458 -2.10474 5.07918 0
M  V30 4415 H 398.683 -2.66857 6.24471 0
M  V30 4416 H 396.629 -4.42258 4.84504 0
M  V30 4417 H 396.546 -3.87938 6.48876 0
M  V30 4418 H 397.814 -4.96689 6.00766 0
M  V30 4419 N 402.043 -1.548 -0.295768 0
M  V30 4420 C 402.953 -1.89177 -1.38742 0
M  V30 4421 C 403.969 -0.786481 -1.55211 0
M  V30 4422 O 405.145 -1.08344 -1.69775 0
M  V30 4423 C 402.21 -2.13663 -2.73036 0
M  V30 4424 C 401.271 -3.37349 -2.65508 0
M  V30 4425 C 400.504 -3.60658 -3.93398 0
M  V30 4426 O 400.727 -2.86882 -4.93006 0
M  V30 4427 O 399.661 -4.54179 -3.94975 0
M  V30 4428 H 403.487 -2.82059 -1.12589 0
M  V30 4429 H 401.072 -1.41056 -0.492295 0
M  V30 4430 H 402.954 -2.3094 -3.52484 0
M  V30 4431 H 401.629 -1.23967 -2.99022 0
M  V30 4432 H 400.536 -3.25431 -1.84514 0
M  V30 4433 H 401.869 -4.27192 -2.44474 0
M  V30 4434 N 403.521 0.559213 -1.47345 0
M  V30 4435 C 404.468 1.66645 -1.59682 0
M  V30 4436 C 405.438 1.60168 -0.43994 0
M  V30 4437 O 406.623 1.79031 -0.659736 0
M  V30 4438 C 403.763 3.04969 -1.61518 0
M  V30 4439 C 402.876 3.21897 -2.88108 0
M  V30 4440 C 402.011 4.50608 -2.81294 0
M  V30 4441 C 401.05 4.60961 -4.02717 0
M  V30 4442 N 400.187 5.81024 -3.94151 0
M  V30 4443 H 405.027 1.55439 -2.54249 0
M  V30 4444 H 402.564 0.757219 -1.26113 0
M  V30 4445 H 404.522 3.85064 -1.60566 0
M  V30 4446 H 403.152 3.15015 -0.704645 0
M  V30 4447 H 402.204 2.35248 -2.98936 0
M  V30 4448 H 403.516 3.25412 -3.78032 0
M  V30 4449 H 402.67 5.3896 -2.7858 0
M  V30 4450 H 401.409 4.49568 -1.89049 0
M  V30 4451 H 400.414 3.71021 -4.05738 0
M  V30 4452 H 401.639 4.63761 -4.96087 0
M  V30 4453 H 399.585 5.80938 -3.04708 0
M  V30 4454 H 399.502 5.85909 -4.77752 0
M  V30 4455 H 400.77 6.71744 -3.9545 0
M  V30 4456 N 404.999 1.35443 0.805782 0
M  V30 4457 C 406.276 1.19325 1.54987 0
M  V30 4458 C 406.656 -0.227294 2.09873 0
M  V30 4459 O 406.004 -1.2309 1.92512 0
M  V30 4460 C 406.214 2.26196 2.65775 0
M  V30 4461 C 407.562 2.62043 3.34094 0
M  V30 4462 O 408.586 2.25115 2.76046 0
M  V30 4463 O 407.445 3.25542 4.38958 0
M  V30 4464 H 404.539 0.463623 0.684823 0
M  V30 4465 H 407.085 1.47127 0.845674 0
M  V30 4466 H 405.857 3.21471 2.23096 0
M  V30 4467 H 405.48 1.99667 3.43829 0
M  V30 4468 N 406.477 -1.02803 1.19454 0
M  V30 4469 C 407.726 -1.7562 0.991996 0
M  V30 4470 C 408.039 -1.89672 -0.477901 0
M  V30 4471 O 409.245 -2.59468 -0.799287 0
M  V30 4472 C 407.701 -3.15812 1.72601 0
M  V30 4473 C 407.309 -3.0981 3.23607 0
M  V30 4474 C 409.053 -3.92918 1.60674 0
M  V30 4475 C 406.96 -4.44939 3.89594 0
M  V30 4476 H 405.89 -0.658352 0.367543 0
M  V30 4477 H 408.541 -1.15044 1.42959 0
M  V30 4478 H 406.923 -3.7686 1.21624 0
M  V30 4479 H 408.097 -2.58138 3.81709 0
M  V30 4480 H 406.412 -2.46201 3.35819 0
M  V30 4481 H 409.009 -4.9287 2.07323 0
M  V30 4482 H 409.352 -4.12502 0.561025 0
M  V30 4483 H 409.885 -3.38472 2.09001 0
M  V30 4484 H 406.624 -4.30559 4.94267 0
M  V30 4485 H 406.144 -4.96664 3.36281 0
M  V30 4486 H 407.823 -5.1382 3.93189 0
M  V30 4487 N 407.956 -0.998596 -1.21925 0
M  V30 4488 C 408.886 -0.573688 -2.26343 0
M  V30 4489 C 409.867 0.402296 -1.65274 0
M  V30 4490 O 411.052 0.291683 -1.91997 0
M  V30 4491 C 408.182 0.106839 -3.47136 0
M  V30 4492 C 407.136 -0.788269 -4.20678 0
M  V30 4493 C 406.462 0.0254927 -5.34694 0
M  V30 4494 C 407.762 -2.08784 -4.78755 0
M  V30 4495 H 409.456 -1.44651 -2.62138 0
M  V30 4496 H 407.002 -0.696975 -1.26009 0
M  V30 4497 H 408.955 0.415531 -4.19346 0
M  V30 4498 H 407.679 1.01424 -3.10452 0
M  V30 4499 H 406.338 -1.08069 -3.50309 0
M  V30 4500 H 405.986 0.933989 -4.94253 0
M  V30 4501 H 405.686 -0.570437 -5.84825 0
M  V30 4502 H 407.21 0.328147 -6.09718 0
M  V30 4503 H 408.624 -1.84272 -5.42878 0
M  V30 4504 H 407.021 -2.63307 -5.39249 0
M  V30 4505 H 408.091 -2.76284 -3.98491 0
M  V30 4506 N 409.434 1.37368 -0.772513 0
M  V30 4507 C 410.364 2.32856 -0.173304 0
M  V30 4508 C 411.345 1.55818 0.682262 0
M  V30 4509 O 412.53 1.84052 0.619566 0
M  V30 4510 C 409.66 3.40048 0.706007 0
M  V30 4511 C 408.614 4.27973 -0.0483144 0
M  V30 4512 C 407.94 5.26184 0.950491 0
M  V30 4513 C 409.24 5.07665 -1.22776 0
M  V30 4514 H 410.934 2.83217 -0.971002 0
M  V30 4515 H 408.48 1.3617 -0.468377 0
M  V30 4516 H 410.433 4.05827 1.13501 0
M  V30 4517 H 409.157 2.88214 1.53623 0
M  V30 4518 H 407.816 3.63726 -0.458107 0
M  V30 4519 H 407.464 4.7063 1.77529 0
M  V30 4520 H 407.164 5.85872 0.450314 0
M  V30 4521 H 408.688 5.94838 1.37842 0
M  V30 4522 H 410.102 5.66578 -0.875366 0
M  V30 4523 H 408.499 5.76681 -1.66007 0
M  V30 4524 H 409.569 4.40294 -2.03149 0
M  V30 4525 N 410.912 0.523116 1.48665 0
M  V30 4526 C 411.822 -0.247406 2.33292 0
M  V30 4527 C 412.838 -0.945769 1.46052 0
M  V30 4528 O 414.014 -0.922253 1.79043 0
M  V30 4529 C 411.079 -1.28487 3.22012 0
M  V30 4530 C 410.14 -0.597592 4.2512 0
M  V30 4531 C 409.373 -1.58563 5.09601 0
M  V30 4532 O 409.596 -2.81763 4.95949 0
M  V30 4533 O 408.53 -1.12879 5.91221 0
M  V30 4534 H 412.356 0.445869 3.00409 0
M  V30 4535 H 409.941 0.284128 1.46673 0
M  V30 4536 H 411.823 -1.88459 3.7691 0
M  V30 4537 H 410.498 -1.96068 2.57564 0
M  V30 4538 H 409.405 0.0424407 3.74076 0
M  V30 4539 H 410.738 0.0361517 4.92187 0
M  V30 4540 N 412.39 -1.55475 0.257931 0
M  V30 4541 C 413.636 -1.99502 -0.364266 0
M  V30 4542 C 413.969 -1.146 -1.56782 0
M  V30 4543 O 413.244 -0.211968 -1.93342 0
M  V30 4544 C 413.527 -3.51917 -0.763333 0
M  V30 4545 C 413.38 -4.4758 0.446371 0
M  V30 4546 C 414.699 -4.09742 -1.60623 0
M  V30 4547 H 411.818 -0.725277 -0.130929 0
M  V30 4548 H 414.46 -1.8653 0.361446 0
M  V30 4549 H 412.61 -3.63101 -1.38166 0
M  V30 4550 H 414.282 -4.48362 1.08487 0
M  V30 4551 H 412.525 -4.19947 1.08753 0
M  V30 4552 H 413.196 -5.51862 0.123645 0
M  V30 4553 H 415.672 -4.01727 -1.08418 0
M  V30 4554 H 414.548 -5.16631 -1.85429 0
M  V30 4555 H 414.809 -3.58889 -2.58169 0
M  V30 4556 N 413.868 0.0150385 -1.57593 0
M  V30 4557 C 415.108 0.70768 -1.91758 0
M  V30 4558 C 415.472 1.71764 -0.857974 0
M  V30 4559 O 416.673 2.45956 -1.0844 0
M  V30 4560 C 414.944 1.34736 -3.3103 0
M  V30 4561 S 416.503 2.06721 -3.87056 0
M  V30 4562 H 413.321 0.234119 -0.671349 0
M  V30 4563 H 415.923 -0.0380373 -1.95463 0
M  V30 4564 H 414.627 0.59926 -4.06001 0
M  V30 4565 H 414.158 2.13133 -3.30663 0
M  V30 4566 H 416.173 3.34047 -3.66915 0
M  V30 4567 N 415.346 1.54954 0.287554 0
M  V30 4568 C 416.757 1.65732 0.859634 0
M  V30 4569 C 417.108 0.574767 1.87592 0
M  V30 4570 O 416.233 -0.286299 2.14498 0
M  V30 4571 C 416.828 3.00438 1.56597 0
M  V30 4572 C 415.387 3.13292 2.08627 0
M  V30 4573 C 414.534 2.61473 0.923416 0
M  V30 4574 H 417.485 1.5857 0.0642338 0
M  V30 4575 H 417.506 2.92613 2.43224 0
M  V30 4576 H 417.018 3.79207 0.826053 0
M  V30 4577 H 415.119 2.39268 2.85625 0
M  V30 4578 H 415.232 4.19647 2.31157 0
M  V30 4579 H 413.596 2.18264 1.31275 0
M  V30 4580 H 414.379 3.42733 0.197241 0
M  V30 4581 N 416.824 -0.551391 1.4764 0
M  V30 4582 C 418.073 -1.30467 1.53822 0
M  V30 4583 C 418.386 -1.94495 0.207661 0
M  V30 4584 O 419.592 -2.71099 0.147533 0
M  V30 4585 C 418.048 -2.36616 2.71184 0
M  V30 4586 C 417.656 -1.78754 4.10793 0
M  V30 4587 C 419.4 -3.13088 2.86663 0
M  V30 4588 C 417.307 -2.82717 5.19447 0
M  V30 4589 H 416.237 -0.490584 0.572576 0
M  V30 4590 H 418.888 -0.58494 1.73927 0
M  V30 4591 H 417.27 -3.11529 2.4447 0
M  V30 4592 H 418.444 -1.10173 4.47435 0
M  V30 4593 H 416.759 -1.14846 4.00249 0
M  V30 4594 H 419.356 -3.90736 3.65007 0
M  V30 4595 H 419.699 -3.67635 1.95321 0
M  V30 4596 H 420.232 -2.45288 3.13175 0
M  V30 4597 H 416.971 -2.33018 6.12685 0
M  V30 4598 H 416.491 -3.4969 4.87316 0
M  V30 4599 H 418.17 -3.46102 5.46646 0
M  V30 4600 N 418.302 -1.35869 -0.798587 0
M  V30 4601 C 419.527 -1.32883 -1.59238 0
M  V30 4602 C 419.952 0.0894587 -1.87887 0
M  V30 4603 O 419.31 1.05869 -1.47178 0
M  V30 4604 C 419.358 -2.14892 -2.89575 0
M  V30 4605 O 418.462 -1.53512 -3.82763 0
M  V30 4606 H 417.803 -0.455236 -0.48338 0
M  V30 4607 H 420.333 -1.79024 -0.990539 0
M  V30 4608 H 420.343 -2.27139 -3.38928 0
M  V30 4609 H 419.018 -3.17998 -2.68049 0
M  V30 4610 H 417.595 -1.50153 -3.41334 0
M  V30 4611 N 419.78 1.02168 -1.19998 0
M  V30 4612 C 420.728 2.12717 -0.940967 0
M  V30 4613 C 421.722 1.69069 0.105841 0
M  V30 4614 O 422.928 1.79946 -0.0440583 0
M  V30 4615 H 419.303 0.695108 -0.28693 0
M  V30 4616 H 421.274 2.3175 -1.87975 0
M  V30 4617 C 420.023 3.44027 -0.504049 0
M  V30 4618 H 419.346 3.78036 -1.30112 0
M  V30 4619 H 420.786 4.22452 -0.361991 0
M  V30 4620 C 419.245 3.27678 0.782878 0
M  V30 4621 O 419.775 3.56949 1.84256 0
M  V30 4622 N 417.981 2.80943 0.742921 0
M  V30 4623 H 417.528 2.57322 -0.119687 0
M  V30 4624 H 417.486 2.70385 1.60435 0
M  V30 4625 N 421.258 1.00505 1.21394 0
M  V30 4626 C 422.504 0.688793 1.90745 0
M  V30 4627 C 422.837 -0.778486 1.77914 0
M  V30 4628 O 422.112 -1.56433 1.15581 0
M  V30 4629 C 422.395 1.11063 3.42545 0
M  V30 4630 C 422.248 2.63737 3.64367 0
M  V30 4631 C 423.567 0.673059 4.34923 0
M  V30 4632 H 420.686 0.251702 0.692687 0
M  V30 4633 H 423.328 1.25074 1.43026 0
M  V30 4634 H 421.478 0.632508 3.83317 0
M  V30 4635 H 423.15 3.19313 3.32922 0
M  V30 4636 H 421.393 3.05248 3.08231 0
M  V30 4637 H 422.064 2.88305 4.70727 0
M  V30 4638 H 424.54 1.08392 4.01734 0
M  V30 4639 H 423.416 0.996383 5.39781 0
M  V30 4640 H 423.677 -0.425808 4.40045 0
M  V30 4641 N 422.737 -1.36956 0.779787 0
M  V30 4642 C 423.667 -2.32761 0.185651 0
M  V30 4643 C 424.648 -1.56177 -0.673989 0
M  V30 4644 O 425.833 -1.84378 -0.609797 0
M  V30 4645 C 422.963 -3.40418 -0.687964 0
M  V30 4646 C 421.917 -4.27941 0.0710102 0
M  V30 4647 C 421.243 -5.26681 -0.922573 0
M  V30 4648 C 422.543 -5.07006 1.25467 0
M  V30 4649 H 424.237 -2.82698 0.986008 0
M  V30 4650 H 421.783 -1.3592 0.475592 0
M  V30 4651 H 423.736 -4.06423 -1.11348 0
M  V30 4652 H 422.46 -2.89025 -1.52093 0
M  V30 4653 H 421.119 -3.63478 0.47739 0
M  V30 4654 H 420.767 -4.71565 -1.7503 0
M  V30 4655 H 420.467 -5.86103 -0.419237 0
M  V30 4656 H 421.991 -5.9556 -1.34686 0
M  V30 4657 H 423.405 -5.66105 0.905401 0
M  V30 4658 H 421.802 -5.75793 1.69063 0
M  V30 4659 H 422.872 -4.3921 2.05481 0
M  V30 4660 N 424.215 -0.530993 -1.48385 0
M  V30 4661 C 425.145 0.219985 -2.32461 0
M  V30 4662 C 426.126 0.934111 -1.42156 0
M  V30 4663 O 427.311 0.919694 -1.71042 0
M  V30 4664 C 424.441 1.26674 -3.23375 0
M  V30 4665 C 423.395 0.67069 -4.22712 0
M  V30 4666 C 422.721 1.82017 -5.02766 0
M  V30 4667 C 424.021 -0.358268 -5.2107 0
M  V30 4668 H 425.715 -0.48187 -2.95497 0
M  V30 4669 H 423.261 -0.233182 -1.42099 0
M  V30 4670 H 425.214 1.80006 -3.81019 0
M  V30 4671 H 423.938 1.99818 -2.58341 0
M  V30 4672 H 422.597 0.158878 -3.66256 0
M  V30 4673 H 422.245 2.54002 -4.34157 0
M  V30 4674 H 421.945 1.42727 -5.70003 0
M  V30 4675 H 423.469 2.35725 -5.63264 0
M  V30 4676 H 424.883 0.0880081 -5.73232 0
M  V30 4677 H 423.28 -0.66861 -5.96364 0
M  V30 4678 H 424.35 -1.26367 -4.68145 0
M  V30 4679 N 425.693 1.55336 -0.266172 0
M  V30 4680 C 426.641 2.23587 0.641228 0
M  V30 4681 C 427.635 1.22986 1.16494 0
M  V30 4682 O 428.841 1.40943 1.1196 0
M  V30 4683 H 425.216 0.717452 0.225315 0
M  V30 4684 H 427.187 2.9837 0.0426561 0
M  V30 4685 C 425.936 2.96369 1.81826 0
M  V30 4686 H 425.259 3.73563 1.42445 0
M  V30 4687 H 426.699 3.47459 2.42998 0
M  V30 4688 C 425.158 2.0133 2.70125 0
M  V30 4689 O 425.688 1.55875 3.70224 0
M  V30 4690 N 423.894 1.6802 2.37102 0
M  V30 4691 H 423.441 2.05181 1.55751 0
M  V30 4692 H 423.399 1.047 2.96454 0
M  V30 4693 N 427.171 -0.0066808 1.57599 0
M  V30 4694 C 428.119 -1.01851 2.09115 0
M  V30 4695 C 429.113 -1.36021 1.00969 0
M  V30 4696 O 430.319 -1.34663 1.19439 0
M  V30 4697 H 426.694 -0.346083 0.667631 0
M  V30 4698 H 428.665 -0.558394 2.93129 0
M  V30 4699 C 427.414 -2.30374 2.60429 0
M  V30 4700 H 426.737 -2.04947 3.43273 0
M  V30 4701 H 428.177 -2.99466 3.00161 0
M  V30 4702 C 426.636 -3.00893 1.51542 0
M  V30 4703 O 427.166 -3.91614 0.894484 0
M  V30 4704 N 425.372 -2.62603 1.2445 0
M  V30 4705 H 424.919 -1.88911 1.75129 0
M  V30 4706 H 424.877 -3.10101 0.518137 0
M  V30 4707 N 428.649 -1.55105 -0.279332 0
M  V30 4708 C 429.895 -1.75672 -1.01327 0
M  V30 4709 C 430.228 -0.552739 -1.86168 0
M  V30 4710 O 429.503 0.449827 -1.89227 0
M  V30 4711 C 429.786 -3.05825 -1.90114 0
M  V30 4712 C 429.639 -4.36565 -1.08309 0
M  V30 4713 C 430.958 -3.31975 -2.8893 0
M  V30 4714 H 428.077 -0.639149 -0.366957 0
M  V30 4715 H 430.719 -1.87833 -0.286154 0
M  V30 4716 H 428.869 -2.95588 -2.52111 0
M  V30 4717 H 430.541 -4.58751 -0.484314 0
M  V30 4718 H 428.784 -4.32076 -0.386362 0
M  V30 4719 H 429.455 -5.23946 -1.73737 0
M  V30 4720 H 431.931 -3.41963 -2.37067 0
M  V30 4721 H 430.807 -4.2432 -3.48201 0
M  V30 4722 H 431.068 -2.51309 -3.63725 0
M  V30 4723 N 430.127 0.543554 -1.4793 0
M  V30 4724 C 431.074 1.64942 -1.6144 0
M  V30 4725 C 432.044 1.59692 -0.456903 0
M  V30 4726 O 433.229 1.78321 -0.678688 0
M  V30 4727 C 430.369 3.03238 -1.64744 0
M  V30 4728 C 429.482 3.18823 -2.91506 0
M  V30 4729 C 428.617 4.47599 -2.86057 0
M  V30 4730 C 427.656 4.56664 -4.07584 0
M  V30 4731 N 426.793 5.76811 -4.00292 0
M  V30 4732 H 431.633 1.52733 -2.55884 0
M  V30 4733 H 429.17 0.7438 -1.2691 0
M  V30 4734 H 431.128 3.83339 -1.64641 0
M  V30 4735 H 429.758 3.1425 -0.738017 0
M  V30 4736 H 428.81 2.32064 -3.01414 0
M  V30 4737 H 430.122 3.21384 -3.81463 0
M  V30 4738 H 429.276 5.35975 -2.84281 0
M  V30 4739 H 428.015 4.47538 -1.93807 0
M  V30 4740 H 427.02 3.66697 -4.09651 0
M  V30 4741 H 428.245 4.58474 -5.00978 0
M  V30 4742 H 426.191 5.77673 -3.10853 0
M  V30 4743 H 426.108 5.80808 -4.8394 0
M  V30 4744 H 427.376 6.67512 -4.02553 0
M  V30 4745 N 431.605 1.3629 0.791371 0
M  V30 4746 C 432.83 1.33726 1.58531 0
M  V30 4747 C 433.255 -0.0794933 1.87932 0
M  V30 4748 O 432.613 -1.05087 1.47738 0
M  V30 4749 C 432.661 2.16425 2.88431 0
M  V30 4750 O 431.765 1.5554 3.81944 0
M  V30 4751 H 431.106 0.457793 0.480959 0
M  V30 4752 H 433.636 1.79547 0.981031 0
M  V30 4753 H 433.646 2.28933 3.37718 0
M  V30 4754 H 432.321 3.19415 2.66359 0
M  V30 4755 H 430.898 1.51961 3.40532 0
M  V30 4756 N 433.083 -1.0153 1.20538 0
M  V30 4757 C 434.016 -2.09759 0.898695 0
M  V30 4758 C 434.994 -1.61909 -0.149733 0
M  V30 4759 O 436.178 -1.88486 -0.0230293 0
M  V30 4760 C 433.305 -3.36913 0.347512 0
M  V30 4761 C 432.351 -4.03655 1.37713 0
M  V30 4762 S 433.184 -4.47402 2.94265 0
M  V30 4763 C 434.34 -5.77756 2.40726 0
M  V30 4764 H 434.573 -2.3545 1.81523 0
M  V30 4765 H 432.106 -1.14665 1.03399 0
M  V30 4766 H 434.064 -4.10484 0.0360518 0
M  V30 4767 H 432.725 -3.09291 -0.547546 0
M  V30 4768 H 431.918 -4.9514 0.940872 0
M  V30 4769 H 431.52 -3.36313 1.63614 0
M  V30 4770 H 433.812 -6.52994 1.80569 0
M  V30 4771 H 434.755 -6.2618 3.30612 0
M  V30 4772 H 435.163 -5.34081 1.82806 0
M  V30 4773 N 434.561 -1.01147 -1.20859 0
M  V30 4774 C 435.838 -0.613136 -1.85742 0
M  V30 4775 C 436.218 0.909004 -1.90526 0
M  V30 4776 O 435.566 1.79862 -1.40932 0
M  V30 4777 C 435.776 -1.255 -3.25654 0
M  V30 4778 C 437.124 -1.3672 -4.01986 0
M  V30 4779 O 438.148 -1.21082 -3.34989 0
M  V30 4780 O 437.007 -1.6194 -5.21956 0
M  V30 4781 H 434.101 -0.210878 -0.799662 0
M  V30 4782 H 436.647 -1.10853 -1.2849 0
M  V30 4783 H 435.419 -2.29532 -3.16908 0
M  V30 4784 H 435.042 -0.746369 -3.90532 0
M  V30 4785 N 436.039 1.36541 -0.78704 0
M  V30 4786 C 437.267 2.03561 -0.370199 0
M  V30 4787 C 437.682 1.59347 1.01263 0
M  V30 4788 O 437.039 0.781781 1.64907 0
M  V30 4789 C 437.09 3.59033 -0.421614 0
M  V30 4790 O 436.811 4.01634 -1.7499 0
M  V30 4791 C 438.312 4.433 0.00489763 0
M  V30 4792 H 435.532 0.653346 -0.152904 0
M  V30 4793 H 438.076 1.74566 -1.06522 0
M  V30 4794 H 436.231 3.86746 0.224971 0
M  V30 4795 H 436.645 4.96217 -1.69909 0
M  V30 4796 H 438.119 5.51939 -0.0822184 0
M  V30 4797 H 438.596 4.26285 1.05723 0
M  V30 4798 H 439.202 4.20843 -0.614085 0
M  V30 4799 N 437.518 0.538854 1.48102 0
M  V30 4800 C 438.468 -0.23907 2.26743 0
M  V30 4801 C 439.452 -0.901923 1.33245 0
M  V30 4802 O 440.644 -0.803263 1.57723 0
M  V30 4803 C 437.773 -1.2799 3.18549 0
M  V30 4804 C 436.859 -0.621388 4.19523 0
M  V30 4805 N 437.25 0.298004 5.04921 0
M  V30 4806 C 435.548 -0.877533 4.37282 0
M  V30 4807 C 436.249 0.678757 5.77726 0
M  V30 4808 N 435.225 0.0377881 5.43587 0
M  V30 4809 H 439.027 0.468096 2.90148 0
M  V30 4810 H 436.541 0.357497 1.58416 0
M  V30 4811 H 438.538 -1.851 3.73555 0
M  V30 4812 H 437.198 -1.98835 2.567 0
M  V30 4813 H 438.209 0.671126 5.13533 0
M  V30 4814 H 434.886 -1.57588 3.86616 0
M  V30 4815 H 436.276 1.43316 6.56437 0
M  V30 4816 N 438.996 -1.55193 0.274407 0
M  V30 4817 C 440.407 -1.85358 -0.223488 0
M  V30 4818 C 440.758 -1.19642 -1.555 0
M  V30 4819 O 439.883 -0.484498 -2.10907 0
M  V30 4820 C 440.478 -3.36282 -0.412285 0
M  V30 4821 C 439.037 -3.66574 -0.854413 0
M  V30 4822 C 438.184 -2.7725 0.0527056 0
M  V30 4823 H 441.135 -1.50743 0.496215 0
M  V30 4824 H 441.156 -3.59349 -1.25094 0
M  V30 4825 H 440.668 -3.84083 0.556965 0
M  V30 4826 H 438.769 -3.24273 -1.83516 0
M  V30 4827 H 438.882 -4.74073 -0.692226 0
M  V30 4828 H 437.246 -2.50447 -0.463484 0
M  V30 4829 H 438.029 -3.27865 1.01783 0
M  V30 4830 N 440.474 -0.00167713 -1.576 0
M  V30 4831 C 441.723 0.682021 -1.89819 0
M  V30 4832 C 442.036 1.74844 -0.876871 0
M  V30 4833 O 443.242 2.48688 -1.08934 0
M  V30 4834 C 441.698 1.26425 -3.36964 0
M  V30 4835 C 441.306 0.232568 -4.47396 0
M  V30 4836 C 443.05 1.92604 -3.78291 0
M  V30 4837 C 440.957 0.824882 -5.85619 0
M  V30 4838 H 439.887 0.258499 -0.708304 0
M  V30 4839 H 442.538 -0.0624957 -1.83394 0
M  V30 4840 H 440.92 2.05949 -3.38232 0
M  V30 4841 H 442.094 -0.5382 -4.57646 0
M  V30 4842 H 440.409 -0.32888 -4.15099 0
M  V30 4843 H 443.006 2.37827 -4.78897 0
M  V30 4844 H 443.349 2.75732 -3.11894 0
M  V30 4845 H 443.882 1.19812 -3.79328 0
M  V30 4846 H 440.621 0.0323542 -6.55492 0
M  V30 4847 H 440.141 1.56477 -5.79029 0
M  V30 4848 H 441.82 1.32301 -6.33329 0
M  V30 4849 N 441.952 1.55251 0.271103 0
M  V30 4850 C 443.368 1.47133 0.618393 0
M  V30 4851 C 443.568 0.686994 1.89427 0
M  V30 4852 O 442.624 0.206609 2.51653 0
M  V30 4853 C 443.937 2.91361 0.743593 0
M  V30 4854 C 445.485 3.01587 0.837522 0
M  V30 4855 C 445.96 4.47073 0.994483 0
M  V30 4856 N 447.451 4.50909 1.05996 0
M  V30 4857 C 448.186 5.60698 1.20024 0
M  V30 4858 N 447.682 6.80348 1.30759 0
M  V30 4859 N 449.475 5.48444 1.23149 0
M  V30 4860 H 441.626 2.04698 -0.566784 0
M  V30 4861 H 443.889 0.928319 -0.192165 0
M  V30 4862 H 443.595 3.51483 -0.123493 0
M  V30 4863 H 443.469 3.40484 1.62328 0
M  V30 4864 H 445.856 2.4156 1.69507 0
M  V30 4865 H 445.937 2.55713 -0.0668086 0
M  V30 4866 H 445.581 5.07703 0.141582 0
M  V30 4867 H 445.511 4.90605 1.91349 0
M  V30 4868 H 448.002 3.6472 0.989316 0
M  V30 4869 H 448.315 7.59772 1.41303 0
M  V30 4870 H 446.66 6.83156 1.27761 0
M  V30 4871 H 449.851 4.53907 1.14394 0
M  V30 4872 H 450.024 6.34049 1.33738 0
M  V30 4873 N 443.43 -0.535701 1.48216 0
M  V30 4874 C 444.363 -1.65726 1.56876 0
M  V30 4875 C 445.341 -1.57094 0.419542 0
M  V30 4876 O 446.525 -1.77648 0.630352 0
M  V30 4877 C 443.652 -3.04096 1.49142 0
M  V30 4878 C 442.698 -3.31105 2.68834 0
M  V30 4879 S 443.531 -3.18001 4.30854 0
M  V30 4880 C 444.687 -4.58828 4.25709 0
M  V30 4881 H 444.92 -1.58129 2.51759 0
M  V30 4882 H 442.453 -0.718218 1.36678 0
M  V30 4883 H 444.411 -3.839 1.45366 0
M  V30 4884 H 443.072 -3.09139 0.556067 0
M  V30 4885 H 442.265 -4.32033 2.59545 0
M  V30 4886 H 441.867 -2.58961 2.69843 0
M  V30 4887 H 444.159 -5.5023 3.95289 0
M  V30 4888 H 445.102 -4.73172 5.26796 0
M  V30 4889 H 445.51 -4.37883 3.56257 0
M  V30 4890 N 444.908 -1.36708 -0.784132 0
M  V30 4891 C 445.838 -1.34153 -1.91116 0
M  V30 4892 C 446.819 -0.212121 -1.68772 0
M  V30 4893 O 448.004 -0.410581 -1.8981 0
M  V30 4894 C 445.134 -1.13535 -3.28218 0
M  V30 4895 C 444.088 -2.23356 -3.65097 0
M  V30 4896 C 443.414 -1.87875 -5.00607 0
M  V30 4897 C 444.714 -3.65473 -3.73131 0
M  V30 4898 H 446.408 -2.28459 -1.93512 0
M  V30 4899 H 443.954 -1.09973 -0.929618 0
M  V30 4900 H 445.907 -1.10381 -4.06687 0
M  V30 4901 H 444.631 -0.156804 -3.26223 0
M  V30 4902 H 443.29 -2.25645 -2.88929 0
M  V30 4903 H 442.938 -0.885814 -4.95139 0
M  V30 4904 H 442.638 -2.61406 -5.26252 0
M  V30 4905 H 444.162 -1.86286 -5.81489 0
M  V30 4906 H 445.576 -3.65382 -4.41779 0
M  V30 4907 H 443.973 -4.37953 -4.10265 0
M  V30 4908 H 445.043 -3.99995 -2.74102 0
M  V30 4909 N 446.386 1.0089 -1.21074 0
M  V30 4910 C 447.616 1.77933 -1.04993 0
M  V30 4911 C 448.024 1.84847 0.403495 0
M  V30 4912 O 447.367 1.30606 1.29181 0
M  V30 4913 C 447.429 3.23541 -1.56722 0
M  V30 4914 C 447.093 3.40214 -3.05129 0
M  V30 4915 C 448.09 3.2881 -4.02716 0
M  V30 4916 C 445.775 3.65781 -3.44252 0
M  V30 4917 C 447.769 3.42732 -5.37414 0
M  V30 4918 C 445.456 3.79346 -4.79103 0
M  V30 4919 C 446.454 3.67827 -5.75493 0
M  V30 4920 O 446.142 3.80965 -7.07899 0
M  V30 4921 H 445.874 0.566157 -0.369381 0
M  V30 4922 H 448.428 1.27826 -1.60779 0
M  V30 4923 H 446.658 3.74766 -0.953285 0
M  V30 4924 H 448.347 3.82245 -1.36543 0
M  V30 4925 H 449.113 3.08986 -3.73835 0
M  V30 4926 H 444.992 3.73831 -2.69762 0
M  V30 4927 H 448.536 3.33658 -6.12632 0
M  V30 4928 H 444.433 3.98672 -5.07672 0
M  V30 4929 H 445.201 3.97937 -7.15254 0
M  V30 4930 N 447.864 1.01787 1.20321 0
M  V30 4931 C 449.141 0.622978 1.85414 0
M  V30 4932 C 449.521 -0.898887 1.91006 0
M  V30 4933 O 448.869 -1.79112 1.41884 0
M  V30 4934 C 449.079 1.27226 3.24984 0
M  V30 4935 C 450.427 1.3885 4.01255 0
M  V30 4936 O 451.451 1.22857 3.34342 0
M  V30 4937 O 450.31 1.64705 5.2109 0
M  V30 4938 H 447.404 0.215116 0.798533 0
M  V30 4939 H 449.95 1.11533 1.27901 0
M  V30 4940 H 448.722 2.31209 3.15687 0
M  V30 4941 H 448.345 0.767069 3.90131 0
M  V30 4942 N 449.342 -1.36122 0.79427 0
M  V30 4943 C 450.305 -2.28309 0.201889 0
M  V30 4944 C 451.305 -1.49041 -0.603603 0
M  V30 4945 O 452.495 -1.68964 -0.423888 0
M  V30 4946 C 449.627 -3.3321 -0.719978 0
M  V30 4947 H 450.82 -2.82208 1.01481 0
M  V30 4948 H 448.373 -1.45768 0.564037 0
M  V30 4949 H 449.108 -2.84475 -1.55706 0
M  V30 4950 H 448.893 -3.91835 -0.144266 0
M  V30 4951 H 450.383 -4.02044 -1.12916 0
M  V30 4952 N 450.82 -0.546701 -1.47814 0
M  V30 4953 C 452.068 -0.0187037 -2.02091 0
M  V30 4954 C 452.389 1.33168 -1.42447 0
M  V30 4955 O 451.659 1.86619 -0.595839 0
M  V30 4956 H 450.239 -0.00392531 -0.74699 0
M  V30 4957 H 452.901 -0.714327 -1.81338 0
M  V30 4958 H 451.997 0.0772219 -3.12004 0
M  V30 4959 N 452.299 1.55045 -0.282633 0
M  V30 4960 C 453.545 2.00056 0.332481 0
M  V30 4961 C 453.878 1.1708 1.54939 0
M  V30 4962 O 453.153 0.2427 1.9298 0
M  V30 4963 C 453.436 3.53086 0.70725 0
M  V30 4964 C 453.289 4.46813 -0.517521 0
M  V30 4965 C 454.608 4.12245 1.54084 0
M  V30 4966 H 451.727 0.727268 0.119373 0
M  V30 4967 H 454.369 1.85932 -0.391076 0
M  V30 4968 H 452.519 3.65253 1.32372 0
M  V30 4969 H 454.191 4.46579 -1.15607 0
M  V30 4970 H 452.434 4.18163 -1.1542 0
M  V30 4971 H 453.105 5.51595 -0.211426 0
M  V30 4972 H 455.581 4.03401 1.02013 0
M  V30 4973 H 454.457 5.19515 1.77186 0
M  V30 4974 H 454.718 3.62951 2.52427 0
M  V30 4975 N 453.777 0.010035 1.57597 0
M  V30 4976 C 454.724 -0.978122 2.09049 0
M  V30 4977 C 455.694 -1.33509 0.988159 0
M  V30 4978 O 456.879 -1.43172 1.26121 0
M  V30 4979 C 454.019 -2.26158 2.60666 0
M  V30 4980 C 453.132 -1.96275 3.84838 0
M  V30 4981 C 452.267 -3.18776 4.24918 0
M  V30 4982 C 451.306 -2.84625 5.41899 0
M  V30 4983 N 450.443 -3.99693 5.77226 0
M  V30 4984 H 455.283 -0.532431 2.93205 0
M  V30 4985 H 452.82 -0.251234 1.44939 0
M  V30 4986 H 454.778 -3.01202 2.88675 0
M  V30 4987 H 453.408 -2.68378 1.79369 0
M  V30 4988 H 452.46 -1.11555 3.63675 0
M  V30 4989 H 453.772 -1.67111 4.69974 0
M  V30 4990 H 452.926 -4.02157 4.54262 0
M  V30 4991 H 451.665 -3.51087 3.38511 0
M  V30 4992 H 450.67 -1.99653 5.12268 0
M  V30 4993 H 451.895 -2.53551 6.29991 0
M  V30 4994 H 449.841 -4.31882 4.93776 0
M  V30 4995 H 449.758 -3.74087 6.56959 0
M  V30 4996 H 451.026 -4.83834 6.11167 0
M  V30 4997 N 455.255 -1.55392 -0.262866 0
M  V30 4998 C 456.501 -1.76737 -0.99458 0
M  V30 4999 C 456.834 -0.572453 -1.85571 0
M  V30 5000 O 456.109 0.429732 -1.89693 0
M  V30 5001 C 456.392 -3.07824 -1.8686 0
M  V30 5002 C 456.245 -4.3769 -1.03672 0
M  V30 5003 C 457.564 -3.35021 -2.85393 0
M  V30 5004 H 454.683 -0.643005 -0.360157 0
M  V30 5005 H 457.325 -1.88126 -0.266216 0
M  V30 5006 H 455.475 -2.98245 -2.48962 0
M  V30 5007 H 457.147 -4.59238 -0.43563 0
M  V30 5008 H 455.39 -4.32461 -0.340513 0
M  V30 5009 H 456.061 -5.25759 -1.6817 0
M  V30 5010 H 458.537 -3.44458 -2.33426 0
M  V30 5011 H 457.413 -4.27989 -3.43681 0
M  V30 5012 H 457.674 -2.55153 -3.61039 0
M  V30 5013 N 456.733 0.527833 -1.48498 0
M  V30 5014 C 457.958 1.313 -1.60546 0
M  V30 5015 C 458.383 1.86199 -0.26672 0
M  V30 5016 O 457.741 1.64513 0.761918 0
M  V30 5017 C 457.789 2.43818 -2.65678 0
M  V30 5018 O 456.893 3.46916 -2.22987 0
M  V30 5019 H 456.234 0.388784 -0.538277 0
M  V30 5020 H 458.764 0.634896 -1.945 0
M  V30 5021 H 458.774 2.89973 -2.87018 0
M  V30 5022 H 457.449 2.03222 -3.62869 0
M  V30 5023 H 456.026 3.06864 -2.11869 0
M  V30 5024 N 458.211 1.37122 0.776871 0
M  V30 5025 C 459.457 1.32243 1.53752 0
M  V30 5026 C 459.79 -0.0944745 1.9397 0
M  V30 5027 O 459.065 -1.05068 1.6368 0
M  V30 5028 C 459.348 2.25681 2.80607 0
M  V30 5029 C 459.201 3.76127 2.46676 0
M  V30 5030 C 460.52 2.17657 3.82509 0
M  V30 5031 H 457.639 0.481704 0.557791 0
M  V30 5032 H 460.281 1.6778 0.891612 0
M  V30 5033 H 458.431 1.95505 3.35723 0
M  V30 5034 H 460.103 4.16877 1.97513 0
M  V30 5035 H 458.346 3.94946 1.79443 0
M  V30 5036 H 459.017 4.36933 3.37333 0
M  V30 5037 H 461.493 2.44245 3.36873 0
M  V30 5038 H 460.369 2.85185 4.69 0
M  V30 5039 H 460.63 1.16785 4.26396 0
M  V30 5040 N 459.689 -1.00246 1.21608 0
M  V30 5041 C 460.637 -2.11193 0.97469 0
M  V30 5042 C 461.631 -1.69216 -0.0789303 0
M  V30 5043 O 462.837 -1.79853 0.0726806 0
M  V30 5044 H 459.212 -0.690455 0.297953 0
M  V30 5045 H 461.183 -2.2873 1.91638 0
M  V30 5046 C 459.932 -3.43182 0.558717 0
M  V30 5047 H 459.255 -3.75918 1.3611 0
M  V30 5048 H 460.695 -4.21823 0.429154 0
M  V30 5049 C 459.154 -3.28882 -0.730648 0
M  V30 5050 O 459.684 -3.59835 -1.78554 0
M  V30 5051 N 457.89 -2.8209 -0.698131 0
M  V30 5052 H 457.437 -2.57099 0.16061 0
M  V30 5053 H 457.395 -2.72903 -1.56113 0
M  V30 5054 N 461.167 -1.02423 -1.1978 0
M  V30 5055 C 462.392 -0.7373 -1.93852 0
M  V30 5056 C 462.817 0.696923 -1.74713 0
M  V30 5057 O 462.175 1.48056 -1.04638 0
M  V30 5058 C 462.223 -1.08783 -3.438 0
M  V30 5059 O 461.327 -0.20383 -4.11896 0
M  V30 5060 H 460.668 -0.27284 -0.605355 0
M  V30 5061 H 463.198 -1.36966 -1.51992 0
M  V30 5062 H 463.208 -1.04276 -3.9445 0
M  V30 5063 H 461.883 -2.13274 -3.57053 0
M  V30 5064 H 460.46 -0.307091 -3.71633 0
M  V30 5065 N 462.645 1.35699 -0.801477 0
M  V30 5066 C 463.922 1.9324 -0.302937 0
M  V30 5067 C 464.302 1.73209 1.20672 0
M  V30 5068 O 463.65 1.09809 2.00385 0
M  V30 5069 C 463.86 3.41728 -0.708747 0
M  V30 5070 C 465.208 4.18868 -0.695328 0
M  V30 5071 O 466.232 3.5022 -0.649971 0
M  V30 5072 O 465.091 5.41342 -0.749081 0
M  V30 5073 H 462.185 0.82331 -0.0780367 0
M  V30 5074 H 464.731 1.44806 -0.884832 0
M  V30 5075 H 463.503 3.50015 -1.74944 0
M  V30 5076 H 463.126 3.97471 -0.101384 0
M  V30 5077 N 464.123 0.554532 1.47522 0
M  V30 5078 C 465.4 -0.0360704 1.95567 0
M  V30 5079 C 465.78 -1.48828 1.49711 0
M  V30 5080 O 465.128 -2.16366 0.734717 0
M  V30 5081 C 465.338 0.106631 3.48837 0
M  V30 5082 C 466.686 -0.0400899 4.24581 0
M  V30 5083 O 467.71 0.0340453 3.56184 0
M  V30 5084 O 466.569 -0.199111 5.46137 0
M  V30 5085 H 463.663 -0.0656294 0.824392 0
M  V30 5086 H 466.209 0.620867 1.57935 0
M  V30 5087 H 464.981 1.11727 3.7501 0
M  V30 5088 H 464.604 -0.58804 3.93227 0
M  V30 5089 N 465.601 -1.54893 0.290851 0
M  V30 5090 C 467.012 -1.85584 -0.203816 0
M  V30 5091 C 467.363 -1.21285 -1.54222 0
M  V30 5092 O 466.488 -0.506841 -2.10381 0
M  V30 5093 C 467.083 -3.367 -0.376595 0
M  V30 5094 C 465.642 -3.6746 -0.815485 0
M  V30 5095 C 464.789 -2.77178 0.0821087 0
M  V30 5096 H 467.74 -1.50208 0.512175 0
M  V30 5097 H 467.761 -3.60656 -1.21275 0
M  V30 5098 H 467.273 -3.8347 0.59767 0
M  V30 5099 H 465.374 -3.26201 -1.80066 0
M  V30 5100 H 465.487 -4.7478 -0.641905 0
M  V30 5101 H 463.851 -2.50925 -0.436895 0
M  V30 5102 H 464.634 -3.26767 1.05254 0
M  V30 5103 N 467.08 -0.0183926 -1.57589 0
M  V30 5104 C 468.328 0.661253 -1.90976 0
M  V30 5105 C 468.649 1.73281 -0.894353 0
M  V30 5106 O 467.919 1.9579 0.0656788 0
M  V30 5107 H 466.499 0.247233 -0.704901 0
M  V30 5108 H 469.161 -0.0636639 -1.94796 0
M  V30 5109 H 468.257 1.12083 -2.9128 0
M  V30 5110 N 468.558 1.5553 0.254621 0
M  V30 5111 C 469.491 1.84624 1.34124 0
M  V30 5112 C 470.469 0.700693 1.46728 0
M  V30 5113 O 471.653 0.94564 1.63064 0
M  V30 5114 C 468.78 2.02412 2.71564 0
M  V30 5115 C 467.826 3.25028 2.7615 0
M  V30 5116 S 468.659 4.81893 2.33538 0
M  V30 5117 C 469.815 5.02677 3.72917 0
M  V30 5118 H 470.048 2.76501 1.09245 0
M  V30 5119 H 467.581 1.47537 0.455211 0
M  V30 5120 H 469.539 2.13345 3.50705 0
M  V30 5121 H 468.2 1.11391 2.93685 0
M  V30 5122 H 467.393 3.34418 3.77069 0
M  V30 5123 H 466.995 3.12781 2.05046 0
M  V30 5124 H 469.287 4.89546 4.68349 0
M  V30 5125 H 470.23 6.0468 3.68467 0
M  V30 5126 H 470.638 4.30561 3.65072 0
M  V30 5127 N 470.036 -0.519951 1.48776 0
M  V30 5128 C 471.283 -1.27522 1.57303 0
M  V30 5129 C 471.611 -1.92869 0.251328 0
M  V30 5130 O 470.866 -1.80372 -0.759243 0
M  V30 5131 C 471.165 -2.37864 2.6675 0
M  V30 5132 C 470.831 -1.90103 4.08867 0
M  V30 5133 C 469.493 -1.76795 4.47546 0
M  V30 5134 C 471.845 -1.54133 4.97888 0
M  V30 5135 C 469.173 -1.25868 5.73039 0
M  V30 5136 C 471.525 -1.04665 6.23881 0
M  V30 5137 C 470.189 -0.899823 6.61407 0
M  V30 5138 H 469.459 -0.466636 0.575614 0
M  V30 5139 H 472.106 -0.579109 1.82534 0
M  V30 5140 H 470.411 -3.13186 2.35418 0
M  V30 5141 H 472.108 -2.95969 2.70561 0
M  V30 5142 H 468.698 -2.01414 3.78326 0
M  V30 5143 H 472.882 -1.6327 4.68675 0
M  V30 5144 H 468.138 -1.13196 6.0083 0
M  V30 5145 H 472.312 -0.759074 6.92251 0
M  V30 5146 H 469.939 -0.503011 7.58534 0
M  V30 5147 N 471.514 -1.37532 -0.769588 0
M  V30 5148 C 472.444 -1.36172 -1.89682 0
M  V30 5149 C 473.425 -0.23001 -1.68538 0
M  V30 5150 O 474.61 -0.43069 -1.89364 0
M  V30 5151 C 471.74 -1.1701 -3.26995 0
M  V30 5152 C 470.694 -2.27216 -3.62708 0
M  V30 5153 C 470.02 -1.93174 -4.98586 0
M  V30 5154 C 471.32 -3.6941 -3.69234 0
M  V30 5155 H 473.014 -2.30499 -1.91078 0
M  V30 5156 H 470.56 -1.10953 -0.917902 0
M  V30 5157 H 472.513 -1.14688 -4.05493 0
M  V30 5158 H 471.237 -0.191395 -3.26039 0
M  V30 5159 H 469.896 -2.28697 -2.86519 0
M  V30 5160 H 469.544 -0.938281 -4.94171 0
M  V30 5161 H 469.244 -2.66973 -5.23449 0
M  V30 5162 H 470.768 -1.92443 -5.79481 0
M  V30 5163 H 472.182 -3.70047 -4.37879 0
M  V30 5164 H 470.579 -4.4228 -4.05597 0
M  V30 5165 H 471.649 -4.0288 -2.69844 0
M  V30 5166 N 472.992 0.995999 -1.22138 0
M  V30 5167 C 474.22 1.77066 -1.07029 0
M  V30 5168 C 474.635 1.8495 0.379357 0
M  V30 5169 O 473.992 1.3174 1.26297 0
M  V30 5170 C 474.043 3.20533 -1.67155 0
M  V30 5171 O 473.764 3.13082 -3.06449 0
M  V30 5172 C 475.265 4.14461 -1.5728 0
M  V30 5173 H 472.485 0.556179 -0.375374 0
M  V30 5174 H 475.029 1.25238 -1.61666 0
M  V30 5175 H 473.184 3.6944 -1.16589 0
M  V30 5176 H 473.598 4.03283 -3.35355 0
M  V30 5177 H 475.072 5.1289 -2.04078 0
M  V30 5178 H 475.549 4.36005 -0.528795 0
M  V30 5179 H 476.155 3.71449 -2.07136 0
M  V30 5180 N 474.47 1.03057 1.19235 0
M  V30 5181 C 475.418 0.606391 2.24557 0
M  V30 5182 C 476.412 -0.361826 1.65491 0
M  V30 5183 O 477.618 -0.23022 1.78522 0
M  V30 5184 H 473.993 0.177838 0.730669 0
M  V30 5185 H 475.964 1.50529 2.5765 0
M  V30 5186 C 474.713 -0.0252127 3.47691 0
M  V30 5187 H 474.036 0.710838 3.9343 0
M  V30 5188 H 475.476 -0.284931 4.23042 0
M  V30 5189 C 473.935 -1.27229 3.11953 0
M  V30 5190 O 474.465 -2.36416 3.24762 0
M  V30 5191 N 472.671 -1.16169 2.6637 0
M  V30 5192 H 472.218 -0.273189 2.56147 0
M  V30 5193 H 472.176 -1.99703 2.42829 0
M  V30 5194 N 475.948 -1.35272 0.808662 0
M  V30 5195 C 477.197 -1.97963 0.386483 0
M  V30 5196 C 477.51 -1.64866 -1.05255 0
M  V30 5197 O 478.716 -2.20937 -1.57794 0
M  V30 5198 C 477.172 -3.54162 0.640096 0
M  V30 5199 C 476.78 -3.96166 2.0918 0
M  V30 5200 C 478.524 -4.23553 0.283376 0
M  V30 5201 C 476.431 -5.4522 2.29106 0
M  V30 5202 H 475.361 -0.740742 0.140774 0
M  V30 5203 H 478.012 -1.5431 0.993012 0
M  V30 5204 H 476.394 -3.95983 -0.0364117 0
M  V30 5205 H 477.568 -3.65491 2.80629 0
M  V30 5206 H 475.883 -3.3967 2.40859 0
M  V30 5207 H 478.48 -5.33124 0.410273 0
M  V30 5208 H 478.823 -4.09105 -0.770659 0
M  V30 5209 H 479.356 -3.8716 0.913884 0
M  V30 5210 H 476.095 -5.64638 3.32962 0
M  V30 5211 H 475.615 -5.77457 1.62184 0
M  V30 5212 H 477.294 -6.1171 2.1076 0
M  V30 5213 N 477.426 -0.562348 -1.47226 0
M  V30 5214 C 478.654 -0.0452275 -2.06851 0
M  V30 5215 C 479.069 1.25078 -1.41424 0
M  V30 5216 O 478.426 1.75156 -0.512513 0
M  V30 5217 C 478.477 0.148674 -3.61194 0
M  V30 5218 O 478.198 -1.09602 -4.24169 0
M  V30 5219 C 479.699 0.702488 -4.37699 0
M  V30 5220 H 476.919 -0.0481775 -0.669268 0
M  V30 5221 H 479.463 -0.777223 -1.89155 0
M  V30 5222 H 477.618 0.830817 -3.78386 0
M  V30 5223 H 478.032 -0.896982 -5.16773 0
M  V30 5224 H 479.506 0.78743 -5.46355 0
M  V30 5225 H 479.983 1.71493 -4.04335 0
M  V30 5226 H 480.589 0.0558772 -4.25263 0
M  V30 5227 N 478.904 1.54736 -0.299062 0
M  V30 5228 C 480.181 1.92187 0.363802 0
M  V30 5229 C 480.561 1.22607 1.71845 0
M  V30 5230 O 479.909 0.361141 2.25628 0
M  V30 5231 C 480.119 3.45678 0.480377 0
M  V30 5232 C 481.467 4.17885 0.752147 0
M  V30 5233 O 482.491 3.51702 0.564264 0
M  V30 5234 O 481.35 5.35048 1.11294 0
M  V30 5235 H 478.444 0.801681 0.203066 0
M  V30 5236 H 480.99 1.66115 -0.346978 0
M  V30 5237 H 479.762 3.88443 -0.471999 0
M  V30 5238 H 479.385 3.77779 1.2397 0
M  V30 5239 N 480.382 0.0267497 1.57577 0
M  V30 5240 C 481.33 -0.973923 2.11229 0
M  V30 5241 C 482.324 -1.33849 1.03831 0
M  V30 5242 O 483.53 -1.321 1.22269 0
M  V30 5243 H 479.905 -0.331844 0.674821 0
M  V30 5244 H 481.876 -0.496092 2.94247 0
M  V30 5245 C 480.625 -2.24798 2.65257 0
M  V30 5246 H 479.948 -1.9762 3.47543 0
M  V30 5247 H 481.388 -2.93031 3.06445 0
M  V30 5248 C 479.847 -2.97611 1.57891 0
M  V30 5249 O 480.377 -3.89629 0.97735 0
M  V30 5250 N 478.583 -2.59905 1.29992 0
M  V30 5251 H 478.13 -1.85154 1.79097 0
M  V30 5252 H 478.088 -3.08932 0.583798 0
M  V30 5253 N 481.861 -1.55662 -0.24637 0
M  V30 5254 C 483.091 -1.81312 -0.990438 0
M  V30 5255 C 483.499 -0.600234 -1.79426 0
M  V30 5256 O 482.842 0.440537 -1.78339 0
M  V30 5257 C 482.904 -3.0032 -1.97607 0
M  V30 5258 C 482.568 -4.36322 -1.35912 0
M  V30 5259 C 483.565 -5.14295 -0.761348 0
M  V30 5260 C 481.25 -4.83019 -1.37833 0
M  V30 5261 C 483.244 -6.37114 -0.190998 0
M  V30 5262 C 480.931 -6.05786 -0.804128 0
M  V30 5263 C 481.929 -6.82672 -0.211489 0
M  V30 5264 O 481.617 -8.03121 0.353845 0
M  V30 5265 H 481.349 -0.607233 -0.297058 0
M  V30 5266 H 483.903 -2.0356 -0.274351 0
M  V30 5267 H 482.133 -2.73829 -2.73047 0
M  V30 5268 H 483.822 -3.13057 -2.58361 0
M  V30 5269 H 484.588 -4.79337 -0.739013 0
M  V30 5270 H 480.467 -4.23165 -1.829 0
M  V30 5271 H 484.011 -6.97069 0.272206 0
M  V30 5272 H 479.908 -6.40222 -0.823792 0
M  V30 5273 H 480.676 -8.18131 0.245761 0
M  V30 5274 N 483.339 0.512053 -1.4905 0
M  V30 5275 C 484.249 1.64139 -1.67617 0
M  V30 5276 C 485.265 1.64786 -0.558701 0
M  V30 5277 O 486.441 1.8341 -0.832034 0
M  V30 5278 C 483.506 3.00548 -1.72835 0
M  V30 5279 C 482.567 3.10615 -2.96339 0
M  V30 5280 C 481.8 4.40517 -3.01298 0
M  V30 5281 O 482.023 5.28671 -2.14157 0
M  V30 5282 O 480.957 4.55325 -3.93653 0
M  V30 5283 H 484.783 1.51407 -2.63267 0
M  V30 5284 H 482.368 0.687131 -1.32661 0
M  V30 5285 H 484.25 3.81641 -1.78683 0
M  V30 5286 H 482.925 3.13566 -0.803616 0
M  V30 5287 H 481.832 2.2875 -2.96014 0
M  V30 5288 H 483.165 3.0252 -3.88256 0
M  V30 5289 N 484.817 1.37938 0.762283 0
M  V30 5290 C 485.727 1.36681 1.90671 0
M  V30 5291 C 486.743 0.265078 1.71969 0
M  V30 5292 O 487.919 0.502055 1.95042 0
M  V30 5293 C 484.984 1.18211 3.25925 0
M  V30 5294 C 484.045 2.3811 3.57214 0
M  V30 5295 C 483.278 2.20512 4.86014 0
M  V30 5296 O 483.501 1.19429 5.57757 0
M  V30 5297 O 482.435 3.08911 5.16583 0
M  V30 5298 H 486.261 2.33091 1.94685 0
M  V30 5299 H 483.846 1.18767 0.906356 0
M  V30 5300 H 485.728 1.09937 4.06807 0
M  V30 5301 H 484.403 0.248807 3.22742 0
M  V30 5302 H 483.31 2.51958 2.76529 0
M  V30 5303 H 484.643 3.30041 3.65149 0
M  V30 5304 N 486.295 -0.989507 1.22664 0
M  V30 5305 C 487.225 -2.09847 1.02404 0
M  V30 5306 C 488.206 -1.70007 -0.0561303 0
M  V30 5307 O 489.391 -1.93906 0.106748 0
M  V30 5308 C 486.521 -3.41996 0.604663 0
M  V30 5309 C 485.475 -3.95699 1.63115 0
M  V30 5310 C 484.801 -5.23936 1.0675 0
M  V30 5311 C 486.101 -4.25999 3.02196 0
M  V30 5312 H 487.795 -2.27054 1.95158 0
M  V30 5313 H 485.341 -1.09111 0.939727 0
M  V30 5314 H 487.294 -4.1899 0.45002 0
M  V30 5315 H 486.018 -3.24626 -0.35855 0
M  V30 5316 H 484.677 -3.2084 1.77362 0
M  V30 5317 H 484.325 -5.02909 0.0955422 0
M  V30 5318 H 484.025 -5.60833 1.75328 0
M  V30 5319 H 485.549 -6.0356 0.924516 0
M  V30 5320 H 486.963 -4.93777 2.91303 0
M  V30 5321 H 485.36 -4.74076 3.67929 0
M  V30 5322 H 486.43 -3.33636 3.51873 0
M  V30 5323 N 487.773 -1.03688 -1.18687 0
M  V30 5324 C 489.003 -0.756819 -1.92239 0
M  V30 5325 C 489.411 0.689374 -1.76194 0
M  V30 5326 O 488.754 1.48126 -1.08648 0
M  V30 5327 C 488.816 -1.03851 -3.44173 0
M  V30 5328 C 488.48 -2.47785 -3.83994 0
M  V30 5329 C 489.477 -3.4595 -3.88091 0
M  V30 5330 C 487.162 -2.82397 -4.154 0
M  V30 5331 C 489.156 -4.76779 -4.23038 0
M  V30 5332 C 486.843 -4.13433 -4.50018 0
M  V30 5333 C 487.841 -5.10434 -4.53813 0
M  V30 5334 O 487.529 -6.39122 -4.87625 0
M  V30 5335 H 487.261 -0.275678 -0.617234 0
M  V30 5336 H 489.815 -1.38658 -1.51536 0
M  V30 5337 H 488.045 -0.351612 -3.85098 0
M  V30 5338 H 489.734 -0.746846 -3.9897 0
M  V30 5339 H 490.5 -3.20549 -3.63969 0
M  V30 5340 H 486.379 -2.07568 -4.11627 0
M  V30 5341 H 489.923 -5.52488 -4.25914 0
M  V30 5342 H 485.82 -4.38604 -4.736 0
M  V30 5343 H 486.588 -6.43715 -5.05542 0
M  V30 5344 N 489.251 1.34841 -0.815825 0
M  V30 5345 C 490.479 2.0273 -0.413294 0
M  V30 5346 C 490.894 1.61459 0.978599 0
M  V30 5347 O 490.251 0.816584 1.63212 0
M  V30 5348 C 490.302 3.58058 -0.497676 0
M  V30 5349 O 490.023 3.97832 -1.8347 0
M  V30 5350 C 491.524 4.4321 -0.0891339 0
M  V30 5351 H 488.744 0.649956 -0.166728 0
M  V30 5352 H 491.288 1.72267 -1.10201 0
M  V30 5353 H 489.443 3.87136 0.142886 0
M  V30 5354 H 489.857 4.92501 -1.80396 0
M  V30 5355 H 491.331 5.5164 -0.199274 0
M  V30 5356 H 491.808 4.28432 0.966571 0
M  V30 5357 H 492.414 4.19446 -0.703214 0
M  V30 5358 N 490.729 0.570148 1.46925 0
M  V30 5359 C 491.679 -0.190921 2.27199 0
M  V30 5360 C 492.663 -0.873457 1.35128 0
M  V30 5361 O 493.855 -0.769627 1.59392 0
M  V30 5362 C 490.984 -1.21204 3.21192 0
M  V30 5363 C 490.07 -0.532261 4.20747 0
M  V30 5364 N 490.461 0.405038 5.04176 0
M  V30 5365 C 488.759 -0.784582 4.39045 0
M  V30 5366 C 489.46 0.801149 5.76157 0
M  V30 5367 N 488.436 0.153082 5.43384 0
M  V30 5368 H 492.238 0.529535 2.8909 0
M  V30 5369 H 489.752 0.391019 1.57622 0
M  V30 5370 H 491.749 -1.77135 3.77398 0
M  V30 5371 H 490.409 -1.93345 2.6086 0
M  V30 5372 H 491.42 0.779903 5.11994 0
M  V30 5373 H 488.097 -1.49352 3.89872 0
M  V30 5374 H 489.487 1.57208 6.5325 0
M  V30 5375 N 492.207 -1.54576 0.307264 0
M  V30 5376 C 493.137 -2.26708 -0.55907 0
M  V30 5377 C 494.118 -1.26893 -1.1328 0
M  V30 5378 O 495.303 -1.55677 -1.16097 0
M  V30 5379 C 492.433 -3.01259 -1.72801 0
M  V30 5380 C 491.387 -4.08275 -1.28435 0
M  V30 5381 C 490.713 -4.70575 -2.53895 0
M  V30 5382 C 492.013 -5.2068 -0.411038 0
M  V30 5383 H 493.707 -2.9937 0.042576 0
M  V30 5384 H 491.253 -1.43983 0.0219173 0
M  V30 5385 H 493.206 -3.50444 -2.34023 0
M  V30 5386 H 491.93 -2.26187 -2.356 0
M  V30 5387 H 490.589 -3.59949 -0.695161 0
M  V30 5388 H 490.237 -3.92136 -3.15021 0
M  V30 5389 H 489.937 -5.42854 -2.24908 0
M  V30 5390 H 491.461 -5.22527 -3.15908 0
M  V30 5391 H 492.875 -5.65721 -0.929097 0
M  V30 5392 H 491.272 -5.99716 -0.214664 0
M  V30 5393 H 492.342 -4.81629 0.562287 0
M  V30 5394 N 493.685 -0.035106 -1.57561 0
M  V30 5395 C 494.633 0.962707 -2.11742 0
M  V30 5396 C 495.627 1.33296 -1.0454 0
M  V30 5397 O 496.833 1.31449 -1.22968 0
M  V30 5398 H 493.208 0.32826 -0.676572 0
M  V30 5399 H 495.179 0.48048 -2.94506 0
M  V30 5400 C 493.928 2.23388 -2.66445 0
M  V30 5401 H 493.251 1.95774 -3.48587 0
M  V30 5402 H 494.691 2.91402 -3.07995 0
M  V30 5403 C 493.15 2.96769 -1.59467 0
M  V30 5404 O 493.68 3.89105 -0.998 0
M  V30 5405 N 491.886 2.59212 -1.31369 0
M  V30 5406 H 491.433 1.84202 -1.80076 0
M  V30 5407 H 491.391 3.08618 -0.600173 0
M  V30 5408 N 495.163 1.55791 0.238111 0
M  V30 5409 C 496.41 1.78033 0.964907 0
M  V30 5410 C 496.738 0.600984 1.84982 0
M  V30 5411 O 495.993 -0.41536 1.91241 0
M  V30 5412 C 496.292 3.05869 1.84875 0
M  V30 5413 C 495.958 4.36808 1.11846 0
M  V30 5414 C 494.62 4.72388 0.916662 0
M  V30 5415 C 496.972 5.17717 0.60151 0
M  V30 5416 C 494.3 5.86406 0.185756 0
M  V30 5417 C 496.652 6.32494 -0.115972 0
M  V30 5418 C 495.316 6.66688 -0.329168 0
M  V30 5419 H 494.586 0.651469 0.353085 0
M  V30 5420 H 497.233 1.90061 0.234318 0
M  V30 5421 H 495.538 2.88891 2.64668 0
M  V30 5422 H 497.235 3.20278 2.41294 0
M  V30 5423 H 493.825 4.08862 1.28569 0
M  V30 5424 H 498.009 4.90678 0.744932 0
M  V30 5425 H 493.265 6.11399 0.0101886 0
M  V30 5426 H 497.439 6.94425 -0.524127 0
M  V30 5427 H 495.066 7.54884 -0.897474 0
M  V30 5428 N 496.642 -0.504142 1.49319 0
M  V30 5429 C 497.87 -1.28256 1.62351 0
M  V30 5430 C 498.285 -1.86502 0.293682 0
M  V30 5431 O 497.642 -1.67678 -0.720449 0
M  V30 5432 C 497.693 -2.41507 2.68992 0
M  V30 5433 O 497.414 -1.85656 3.96817 0
M  V30 5434 C 498.915 -3.32929 2.927 0
M  V30 5435 H 496.135 -0.389115 0.546654 0
M  V30 5436 H 498.679 -0.605531 1.95329 0
M  V30 5437 H 496.834 -3.05046 2.38801 0
M  V30 5438 H 497.248 -2.59981 4.55533 0
M  V30 5439 H 498.722 -4.0868 3.71058 0
M  V30 5440 H 499.199 -3.89733 2.02496 0
M  V30 5441 H 499.805 -2.75158 3.24296 0
M  V30 5442 N 498.12 -1.38341 -0.754957 0
M  V30 5443 C 499.05 -1.38176 -1.88227 0
M  V30 5444 C 500.031 -0.247873 -1.68284 0
M  V30 5445 O 501.216 -0.45075 -1.88896 0
M  V30 5446 C 498.346 -1.20471 -3.25736 0
M  V30 5447 C 497.3 -2.3105 -3.60278 0
M  V30 5448 C 496.626 -1.98452 -4.96509 0
M  V30 5449 C 497.926 -3.73305 -3.65295 0
M  V30 5450 H 499.62 -2.32512 -1.88622 0
M  V30 5451 H 497.166 -1.1192 -0.906082 0
M  V30 5452 H 499.119 -1.18982 -4.04254 0
M  V30 5453 H 497.843 -0.225965 -3.25817 0
M  V30 5454 H 496.502 -2.31723 -2.84078 0
M  V30 5455 H 496.15 -0.990641 -4.93148 0
M  V30 5456 H 495.85 -2.7251 -5.20588 0
M  V30 5457 H 497.374 -1.98578 -5.77407 0
M  V30 5458 H 498.788 -3.7467 -4.3393 0
M  V30 5459 H 497.185 -4.46557 -4.00883 0
M  V30 5460 H 498.255 -4.05719 -2.65556 0
M  V30 5461 N 499.598 0.982988 -1.23187 0
M  V30 5462 C 500.561 2.05649 -1.01198 0
M  V30 5463 C 501.561 1.6078 0.0252464 0
M  V30 5464 O 502.751 1.72878 -0.214243 0
M  V30 5465 C 499.883 3.36744 -0.530656 0
M  V30 5466 H 501.076 2.2659 -1.96461 0
M  V30 5467 H 498.629 1.15602 -1.05195 0
M  V30 5468 H 499.364 3.21492 0.425873 0
M  V30 5469 H 499.149 3.7065 -1.2791 0
M  V30 5470 H 500.639 4.15705 -0.397366 0
M  V30 5471 N 501.076 1.04316 1.18135 0
M  V30 5472 C 502.353 0.662166 1.84051 0
M  V30 5473 C 502.733 -0.858169 1.9287 0
M  V30 5474 O 502.081 -1.76062 1.45652 0
M  V30 5475 C 502.291 1.3409 3.22212 0
M  V30 5476 C 503.639 1.4733 3.9822 0
M  V30 5477 O 504.663 1.29921 3.31661 0
M  V30 5478 O 503.522 1.75722 5.17479 0
M  V30 5479 H 500.616 0.232005 0.79379 0
M  V30 5480 H 503.162 1.1422 1.25506 0
M  V30 5481 H 501.934 2.37853 3.10711 0
M  V30 5482 H 501.557 0.849649 3.88416 0
M  V30 5483 N 502.554 -1.34406 0.822964 0
M  V30 5484 C 503.801 -1.98284 0.411057 0
M  V30 5485 C 504.129 -1.65245 -1.02588 0
M  V30 5486 O 503.384 -0.91619 -1.72929 0
M  V30 5487 C 503.683 -3.52981 0.560268 0
M  V30 5488 C 503.349 -4.05931 1.96293 0
M  V30 5489 C 502.011 -4.20103 2.34664 0
M  V30 5490 C 504.363 -4.34412 2.87985 0
M  V30 5491 C 501.691 -4.60082 3.64062 0
M  V30 5492 C 504.043 -4.75838 4.16847 0
M  V30 5493 C 502.707 -4.88215 4.55195 0
M  V30 5494 H 501.977 -0.725573 0.150416 0
M  V30 5495 H 504.624 -1.60349 1.04692 0
M  V30 5496 H 502.929 -3.91477 -0.158982 0
M  V30 5497 H 504.626 -4.00385 0.222087 0
M  V30 5498 H 501.216 -3.95363 1.65487 0
M  V30 5499 H 505.4 -4.23001 2.59584 0
M  V30 5500 H 500.656 -4.67856 3.93599 0
M  V30 5501 H 504.83 -4.96834 4.87984 0
M  V30 5502 H 502.457 -5.18952 5.55512 0
M  V30 5503 N 504.032 -0.577932 -1.46621 0
M  V30 5504 C 504.965 0.206312 -2.27265 0
M  V30 5505 C 505.943 0.901306 -1.35334 0
M  V30 5506 O 507.127 0.916151 -1.64739 0
M  V30 5507 C 504.254 1.29563 -3.1294 0
M  V30 5508 C 503.3 0.706981 -4.206 0
M  V30 5509 S 504.133 -0.462459 -5.33499 0
M  V30 5510 C 505.289 0.628171 -6.2274 0
M  V30 5511 H 505.522 -0.477961 -2.93433 0
M  V30 5512 H 503.055 -0.364715 -1.50031 0
M  V30 5513 H 505.013 1.91935 -3.62865 0
M  V30 5514 H 503.674 1.95183 -2.46095 0
M  V30 5515 H 502.867 1.52565 -4.80354 0
M  V30 5516 H 502.469 0.159022 -3.73662 0
M  V30 5517 H 504.761 1.51506 -6.60342 0
M  V30 5518 H 505.704 0.0674961 -7.08068 0
M  V30 5519 H 506.112 0.930167 -5.56784 0
M  V30 5520 N 505.51 1.54411 -0.315457 0
M  V30 5521 C 506.457 2.24048 0.554166 0
M  V30 5522 C 507.427 1.2283 1.11812 0
M  V30 5523 O 508.612 1.51491 1.15997 0
M  V30 5524 C 505.752 2.99574 1.71316 0
M  V30 5525 C 504.865 4.15594 1.17922 0
M  V30 5526 C 504 4.78669 2.30324 0
M  V30 5527 C 503.039 5.86807 1.74137 0
M  V30 5528 N 502.176 6.43777 2.8017 0
M  V30 5529 H 507.016 2.97964 -0.0462602 0
M  V30 5530 H 504.553 1.47059 -0.0346009 0
M  V30 5531 H 506.511 3.41604 2.39505 0
M  V30 5532 H 505.141 2.28008 2.285 0
M  V30 5533 H 504.193 3.78404 0.389136 0
M  V30 5534 H 505.505 4.93459 0.728012 0
M  V30 5535 H 504.659 5.23626 3.06433 0
M  V30 5536 H 503.398 4.00168 2.78778 0
M  V30 5537 H 502.403 5.41261 0.965236 0
M  V30 5538 H 503.628 6.67201 1.2657 0
M  V30 5539 H 501.574 5.68153 3.2793 0
M  V30 5540 H 501.491 7.17031 2.39588 0
M  V30 5541 H 502.759 6.9339 3.56132 0
M  V30 5542 N 506.988 0.0434614 1.5754 0
M  V30 5543 C 507.921 -0.968729 2.06618 0
M  V30 5544 C 508.899 -1.30868 0.965 0
M  V30 5545 O 510.083 -1.42288 1.23638 0
M  V30 5546 C 507.21 -2.28486 2.50023 0
M  V30 5547 C 506.256 -2.09851 3.71302 0
M  V30 5548 S 507.089 -1.38401 5.17306 0
M  V30 5549 C 508.245 -2.71354 5.64019 0
M  V30 5550 H 508.478 -0.551021 2.92149 0
M  V30 5551 H 506.011 -0.168607 1.53477 0
M  V30 5552 H 507.969 -3.04142 2.75695 0
M  V30 5553 H 506.63 -2.67387 1.64812 0
M  V30 5554 H 505.823 -3.07184 3.99567 0
M  V30 5555 H 505.425 -1.42336 3.45856 0
M  V30 5556 H 507.717 -3.67549 5.69134 0
M  V30 5557 H 508.66 -2.47734 6.6335 0
M  V30 5558 H 509.068 -2.77259 4.91719 0
M  V30 5559 N 508.466 -1.55915 -0.229846 0
M  V30 5560 C 509.414 -1.9258 -1.30444 0
M  V30 5561 C 510.408 -0.806839 -1.48951 0
M  V30 5562 O 511.614 -0.991606 -1.50224 0
M  V30 5563 H 507.989 -0.611878 -0.437161 0
M  V30 5564 H 509.96 -2.82264 -0.96797 0
M  V30 5565 C 508.709 -2.25171 -2.6494 0
M  V30 5566 H 508.032 -3.10782 -2.51504 0
M  V30 5567 H 509.472 -2.54716 -3.38963 0
M  V30 5568 C 507.931 -1.07394 -3.19324 0
M  V30 5569 O 508.461 -0.330759 -4.00336 0
M  V30 5570 N 506.667 -0.859984 -2.77584 0
M  V30 5571 H 506.214 -1.46605 -2.11813 0
M  V30 5572 H 506.172 -0.0736671 -3.14314 0
M  V30 5573 N 509.944 0.496216 -1.49584 0
M  V30 5574 C 510.874 1.60576 -1.69521 0
M  V30 5575 C 511.855 1.61169 -0.543933 0
M  V30 5576 O 513.04 1.77834 -0.78031 0
M  V30 5577 C 510.17 2.99038 -1.76616 0
M  V30 5578 C 509.124 3.13312 -2.91581 0
M  V30 5579 C 508.45 4.53172 -2.83794 0
M  V30 5580 C 509.75 2.92886 -4.32452 0
M  V30 5581 H 511.444 1.44146 -2.62416 0
M  V30 5582 H 508.99 0.692024 -1.26282 0
M  V30 5583 H 510.943 3.76564 -1.8915 0
M  V30 5584 H 509.667 3.16568 -0.80324 0
M  V30 5585 H 508.326 2.38213 -2.78658 0
M  V30 5586 H 507.974 4.67585 -1.854 0
M  V30 5587 H 507.674 4.63662 -3.60958 0
M  V30 5588 H 509.198 5.32752 -2.98342 0
M  V30 5589 H 510.612 3.60178 -4.46032 0
M  V30 5590 H 509.009 3.14844 -5.10875 0
M  V30 5591 H 510.079 1.88966 -4.46565 0
M  V30 5592 N 511.423 1.38739 0.74761 0
M  V30 5593 C 512.669 1.3648 1.50814 0
M  V30 5594 C 513.024 -0.0431982 1.92351 0
M  V30 5595 O 512.317 -1.0071 1.62997 0
M  V30 5596 C 512.511 2.25992 2.7688 0
M  V30 5597 C 512.34 3.75354 2.47668 0
M  V30 5598 C 511.11 4.44348 2.40589 0
M  V30 5599 C 513.308 4.67642 2.14046 0
M  V30 5600 N 511.29 5.79114 2.03715 0
M  V30 5601 C 512.661 5.90965 1.87512 0
M  V30 5602 C 514.716 4.55787 2.00407 0
M  V30 5603 C 513.419 7.03759 1.48714 0
M  V30 5604 C 515.445 5.68491 1.63011 0
M  V30 5605 C 514.807 6.90879 1.37353 0
M  V30 5606 H 510.906 0.554695 0.551214 0
M  V30 5607 H 513.49 1.7418 0.870033 0
M  V30 5608 H 511.661 1.9047 3.3849 0
M  V30 5609 H 513.393 2.14815 3.42982 0
M  V30 5610 H 510.148 3.97634 2.57262 0
M  V30 5611 H 510.572 6.504 1.87906 0
M  V30 5612 H 515.214 3.61712 2.18916 0
M  V30 5613 H 512.932 7.97746 1.28945 0
M  V30 5614 H 516.518 5.613 1.53081 0
M  V30 5615 H 515.398 7.76609 1.08848 0
M  V30 5616 N 512.901 -0.976442 1.23707 0
M  V30 5617 C 513.864 -2.0511 1.02287 0
M  V30 5618 C 514.864 -1.60791 -0.0167195 0
M  V30 5619 O 516.054 -1.72761 0.223408 0
M  V30 5620 C 513.186 -3.36458 0.548507 0
M  V30 5621 H 514.379 -2.25545 1.9766 0
M  V30 5622 H 511.932 -1.15042 1.05806 0
M  V30 5623 H 512.667 -3.21713 -0.408818 0
M  V30 5624 H 512.452 -3.69967 1.29874 0
M  V30 5625 H 513.942 -4.15489 0.419406 0
M  V30 5626 N 514.379 -1.04941 -1.1758 0
M  V30 5627 C 515.625 -0.759112 -1.88057 0
M  V30 5628 C 515.958 0.711918 -1.8068 0
M  V30 5629 O 515.233 1.52035 -1.21308 0
M  V30 5630 C 515.516 -1.237 -3.38187 0
M  V30 5631 C 515.369 -2.77078 -3.54327 0
M  V30 5632 C 516.688 -0.834014 -4.32125 0
M  V30 5633 H 513.807 -0.277237 -0.682868 0
M  V30 5634 H 516.449 -1.30296 -1.38286 0
M  V30 5635 H 514.599 -0.774337 -3.80705 0
M  V30 5636 H 516.271 -3.31449 -3.20842 0
M  V30 5637 H 514.514 -3.16477 -2.96689 0
M  V30 5638 H 515.185 -3.05577 -4.59703 0
M  V30 5639 H 517.661 -1.23228 -3.97434 0
M  V30 5640 H 516.537 -1.19603 -5.35711 0
M  V30 5641 H 516.798 0.262195 -4.41322 0
M  V30 5642 N 515.857 1.33968 -0.830081 0
M  V30 5643 C 516.789 2.28194 -0.21448 0
M  V30 5644 C 517.802 1.5135 0.599752 0
M  V30 5645 O 518.991 1.73286 0.42826 0
M  V30 5646 C 516.091 3.31221 0.717356 0
M  V30 5647 C 515.264 4.37365 -0.055613 0
M  V30 5648 C 514.323 5.2011 0.798231 0
M  V30 5649 O 513.349 5.68691 0.240616 0
M  V30 5650 N 514.551 5.40523 2.11695 0
M  V30 5651 H 517.316 2.81662 -1.02405 0
M  V30 5652 H 514.877 1.46568 -0.687713 0
M  V30 5653 H 516.869 3.83477 1.29334 0
M  V30 5654 H 515.439 2.78095 1.42765 0
M  V30 5655 H 514.659 3.85727 -0.812936 0
M  V30 5656 H 515.947 5.05397 -0.587444 0
M  V30 5657 H 515.345 5.0274 2.59363 0
M  V30 5658 H 513.902 5.95871 2.64162 0
M  V30 5659 N 517.335 0.585699 1.46312 0
M  V30 5660 C 518.282 -0.145835 2.30339 0
M  V30 5661 C 519.252 -0.881215 1.40797 0
M  V30 5662 O 520.437 -0.871293 1.69744 0
M  V30 5663 C 517.577 -1.15161 3.25318 0
M  V30 5664 C 516.69 -0.419367 4.2996 0
M  V30 5665 C 515.825 -1.41293 5.12064 0
M  V30 5666 C 514.864 -0.667261 6.08452 0
M  V30 5667 N 514.001 -1.60903 6.83414 0
M  V30 5668 H 518.841 0.576755 2.92365 0
M  V30 5669 H 516.378 0.296237 1.44086 0
M  V30 5670 H 518.336 -1.74763 3.78832 0
M  V30 5671 H 516.966 -1.84188 2.65094 0
M  V30 5672 H 516.018 0.291751 3.7928 0
M  V30 5673 H 517.33 0.163433 4.98532 0
M  V30 5674 H 516.484 -2.08167 5.6987 0
M  V30 5675 H 515.223 -2.02966 4.43459 0
M  V30 5676 H 514.228 0.0152356 5.49798 0
M  V30 5677 H 515.453 -0.0558817 6.79077 0
M  V30 5678 H 513.399 -2.21381 6.17516 0
M  V30 5679 H 513.316 -1.07911 7.48259 0
M  V30 5680 H 514.584 -2.26802 7.45775 0
M  V30 5681 N 518.813 -1.54241 0.323641 0
M  V30 5682 C 520.038 -2.05452 -0.283605 0
M  V30 5683 C 520.463 -1.19823 -1.44997 0
M  V30 5684 O 519.821 -0.207358 -1.8011 0
M  V30 5685 C 519.869 -3.53823 -0.695795 0
M  V30 5686 O 518.973 -3.71134 -1.79815 0
M  V30 5687 H 518.314 -0.662024 -0.0511917 0
M  V30 5688 H 520.844 -1.99079 0.472073 0
M  V30 5689 H 520.854 -3.96094 -0.978434 0
M  V30 5690 H 519.529 -4.15602 0.157287 0
M  V30 5691 H 518.106 -3.40768 -1.51431 0
M  V30 5692 N 520.291 -0.0518155 -1.57515 0
M  V30 5693 C 521.538 0.621823 -1.92716 0
M  V30 5694 C 521.866 1.70813 -0.930229 0
M  V30 5695 O 521.121 1.95616 0.0573708 0
M  V30 5696 C 521.42 1.25607 -3.34601 0
M  V30 5697 C 521.086 0.297901 -4.49915 0
M  V30 5698 C 519.748 0.034243 -4.81188 0
M  V30 5699 C 522.1 -0.358738 -5.19964 0
M  V30 5700 C 519.428 -0.893479 -5.79857 0
M  V30 5701 C 521.78 -1.27466 -6.19625 0
M  V30 5702 C 520.444 -1.54698 -6.49326 0
M  V30 5703 H 519.714 0.227541 -0.705199 0
M  V30 5704 H 522.361 -0.118432 -1.91133 0
M  V30 5705 H 520.666 2.07161 -3.32553 0
M  V30 5706 H 522.363 1.78424 -3.59118 0
M  V30 5707 H 518.953 0.513581 -4.25512 0
M  V30 5708 H 523.137 -0.168133 -4.96015 0
M  V30 5709 H 518.393 -1.11193 -6.01204 0
M  V30 5710 H 522.567 -1.78953 -6.73015 0
M  V30 5711 H 520.194 -2.26748 -7.25596 0
M  V30 5712 N 521.769 1.56035 0.221574 0
M  V30 5713 C 523.015 1.79312 0.947372 0
M  V30 5714 C 523.348 0.621453 1.83988 0
M  V30 5715 O 522.623 -0.379287 1.90766 0
M  V30 5716 C 522.906 3.1267 1.78633 0
M  V30 5717 C 522.759 4.40284 0.920312 0
M  V30 5718 C 524.078 3.4247 2.7641 0
M  V30 5719 H 521.197 0.652328 0.342982 0
M  V30 5720 H 523.839 1.88765 0.216244 0
M  V30 5721 H 521.989 3.04741 2.40967 0
M  V30 5722 H 523.661 4.60232 0.313718 0
M  V30 5723 H 521.904 4.33212 0.225734 0
M  V30 5724 H 522.575 5.30033 1.54171 0
M  V30 5725 H 525.051 3.50526 2.24211 0
M  V30 5726 H 523.927 4.3695 3.32213 0
M  V30 5727 H 524.188 2.64635 3.54148 0
M  V30 5728 N 523.247 -0.488276 1.49845 0
M  V30 5729 C 524.524 -1.24959 1.50481 0
M  V30 5730 C 524.904 -2.09735 0.239698 0
M  V30 5731 O 524.252 -2.14865 -0.777524 0
M  V30 5732 C 524.462 -2.0954 2.79095 0
M  V30 5733 C 525.81 -2.68305 3.29086 0
M  V30 5734 O 526.834 -2.19797 2.80299 0
M  V30 5735 O 525.693 -3.56643 4.14087 0
M  V30 5736 H 522.787 -0.566133 0.602845 0
M  V30 5737 H 525.333 -0.501504 1.6212 0
M  V30 5738 H 524.105 -1.46958 3.62656 0
M  V30 5739 H 523.728 -2.91517 2.70377 0
M  V30 5740 N 524.725 -1.39134 -0.740242 0
M  V30 5741 C 526.136 -1.32208 -1.31825 0
M  V30 5742 C 526.487 0.0159919 -1.96193 0
M  V30 5743 O 525.612 0.918111 -1.95958 0
M  V30 5744 C 526.207 -2.39436 -2.39699 0
M  V30 5745 C 524.766 -2.36048 -2.93187 0
M  V30 5746 C 523.913 -2.21599 -1.66701 0
M  V30 5747 H 526.864 -1.49298 -0.538133 0
M  V30 5748 H 526.885 -2.05922 -3.19963 0
M  V30 5749 H 526.397 -3.36811 -1.92821 0
M  V30 5750 H 524.498 -1.42295 -3.44359 0
M  V30 5751 H 524.611 -3.30704 -3.46658 0
M  V30 5752 H 522.975 -1.68681 -1.90837 0
M  V30 5753 H 523.758 -3.20936 -1.21882 0
M  V30 5754 N 526.204 0.969867 -1.24223 0
M  V30 5755 C 527.481 1.68774 -0.988664 0
M  V30 5756 C 527.861 2.05342 0.489673 0
M  V30 5757 O 527.209 1.75486 1.46345 0
M  V30 5758 C 527.419 2.92135 -1.90941 0
M  V30 5759 C 528.767 3.64422 -2.17903 0
M  V30 5760 O 529.791 3.02188 -1.88576 0
M  V30 5761 O 528.65 4.76446 -2.67697 0
M  V30 5762 H 525.744 0.737736 -0.37373 0
M  V30 5763 H 528.29 1.02415 -1.35312 0
M  V30 5764 H 527.062 2.61788 -2.90831 0
M  V30 5765 H 526.685 3.66228 -1.54798 0
M  V30 5766 N 527.682 1.05563 1.17022 0
M  V30 5767 C 528.931 0.763036 1.8671 0
M  V30 5768 C 529.244 -0.712857 1.82147 0
M  V30 5769 O 530.45 -1.11955 2.47343 0
M  V30 5770 C 528.906 1.31474 3.35026 0
M  V30 5771 C 528.514 2.82034 3.48081 0
M  V30 5772 C 530.258 1.09935 4.10018 0
M  V30 5773 C 528.165 3.30486 4.90442 0
M  V30 5774 H 527.095 0.281747 0.699382 0
M  V30 5775 H 529.746 1.2734 1.32124 0
M  V30 5776 H 528.128 0.732171 3.89173 0
M  V30 5777 H 529.302 3.46178 3.04133 0
M  V30 5778 H 527.617 3.02156 2.86515 0
M  V30 5779 H 530.214 1.43632 5.15048 0
M  V30 5780 H 530.557 0.0373072 4.16283 0
M  V30 5781 H 531.09 1.64732 3.62089 0
M  V30 5782 H 527.829 4.36137 4.89352 0
M  V30 5783 H 527.349 2.71086 5.35044 0
M  V30 5784 H 529.028 3.25382 5.59227 0
M  V30 5785 N 529.16 -1.33526 0.837174 0
M  V30 5786 C 530.107 -2.29248 0.267169 0
M  V30 5787 C 531.077 -1.54252 -0.616071 0
M  V30 5788 O 532.262 -1.82559 -0.554699 0
M  V30 5789 C 529.402 -3.40638 -0.553152 0
M  V30 5790 C 528.515 -4.30548 0.353921 0
M  V30 5791 C 527.65 -5.29051 -0.477339 0
M  V30 5792 C 526.689 -6.106 0.42823 0
M  V30 5793 N 525.826 -7.01152 -0.364801 0
M  V30 5794 H 530.666 -2.77398 1.08877 0
M  V30 5795 H 528.203 -1.36496 0.54838 0
M  V30 5796 H 530.161 -4.03921 -1.04422 0
M  V30 5797 H 528.791 -2.93685 -1.33973 0
M  V30 5798 H 527.843 -3.68001 0.963289 0
M  V30 5799 H 529.155 -4.87631 1.04964 0
M  V30 5800 H 528.309 -5.97853 -1.0323 0
M  V30 5801 H 527.048 -4.72541 -1.2065 0
M  V30 5802 H 526.053 -5.40718 0.995219 0
M  V30 5803 H 527.278 -6.69193 1.15573 0
M  V30 5804 H 525.224 -6.47092 -1.07738 0
M  V30 5805 H 525.141 -7.5551 0.272238 0
M  V30 5806 H 526.409 -7.74263 -0.902054 0
M  V30 5807 N 530.638 -0.59345 -1.46 0
M  V30 5808 C 531.586 0.146268 -2.3214 0
M  V30 5809 C 532.58 0.873743 -1.45128 0
M  V30 5810 O 533.786 0.790912 -1.61693 0
M  V30 5811 H 530.161 0.0660349 -0.749095 0
M  V30 5812 H 532.132 -0.598895 -2.92328 0
M  V30 5813 C 530.881 1.1396 -3.28494 0
M  V30 5814 H 530.204 0.589252 -3.95434 0
M  V30 5815 H 531.644 1.62738 -3.91526 0
M  V30 5816 C 530.103 2.20604 -2.54628 0
M  V30 5817 O 530.633 3.28128 -2.31722 0
M  V30 5818 N 528.839 1.95502 -2.15005 0
M  V30 5819 H 528.386 1.0807 -2.33834 0
M  V30 5820 H 528.344 2.67064 -1.65904 0
M  V30 5821 N 532.116 1.54067 -0.331816 0
M  V30 5822 C 533.063 2.24623 0.530372 0
M  V30 5823 C 534.033 1.24009 1.10503 0
M  V30 5824 O 535.218 1.52712 1.14384 0
M  V30 5825 C 532.358 3.01374 1.68129 0
M  V30 5826 C 531.471 4.16821 1.13507 0
M  V30 5827 C 530.606 4.81085 2.25234 0
M  V30 5828 C 529.645 5.88621 1.67903 0
M  V30 5829 N 528.782 6.46713 2.73326 0
M  V30 5830 H 533.622 2.97898 -0.0778607 0
M  V30 5831 H 531.159 1.47014 -0.0501965 0
M  V30 5832 H 533.117 3.44125 2.35868 0
M  V30 5833 H 531.747 2.30419 2.26069 0
M  V30 5834 H 530.799 3.78796 0.348979 0
M  V30 5835 H 532.111 4.94203 0.675633 0
M  V30 5836 H 531.265 5.26846 3.00862 0
M  V30 5837 H 530.004 4.03102 2.74518 0
M  V30 5838 H 529.009 5.42254 0.907773 0
M  V30 5839 H 530.234 6.68506 1.19487 0
M  V30 5840 H 528.18 5.71599 3.21886 0
M  V30 5841 H 528.097 7.19532 2.3197 0
M  V30 5842 H 529.365 6.97129 3.48758 0
M  V30 5843 N 533.594 0.0601682 1.57485 0
M  V30 5844 C 534.843 -0.611101 1.9222 0
M  V30 5845 C 535.156 -1.71469 0.941159 0
M  V30 5846 O 536.362 -2.44473 1.18089 0
M  V30 5847 C 534.818 -1.13832 3.41424 0
M  V30 5848 C 534.426 -0.0663596 4.47951 0
M  V30 5849 C 536.17 -1.78432 3.85178 0
M  V30 5850 C 534.077 -0.606965 5.88277 0
M  V30 5851 H 533.007 -0.232033 0.71741 0
M  V30 5852 H 535.658 0.130518 1.83035 0
M  V30 5853 H 534.04 -1.93254 3.45643 0
M  V30 5854 H 535.214 0.707682 4.55333 0
M  V30 5855 H 533.529 0.482715 4.13593 0
M  V30 5856 H 536.126 -2.1989 4.87394 0
M  V30 5857 H 536.469 -2.63966 3.21913 0
M  V30 5858 H 537.002 -1.05651 3.83514 0
M  V30 5859 H 533.741 0.21095 6.5516 0
M  V30 5860 H 533.261 -1.34879 5.84438 0
M  V30 5861 H 534.94 -1.08704 6.37803 0
M  V30 5862 N 535.072 -1.5615 -0.213296 0
M  V30 5863 C 536.321 -1.78743 -0.93455 0
M  V30 5864 C 536.634 -0.630199 -1.8517 0
M  V30 5865 O 537.84 -0.739966 -2.61222 0
M  V30 5866 C 536.296 -3.16571 -1.71203 0
M  V30 5867 C 535.904 -4.40043 -0.840617 0
M  V30 5868 C 537.648 -3.48485 -2.42401 0
M  V30 5869 C 535.555 -5.68895 -1.61592 0
M  V30 5870 H 534.485 -0.666426 -0.352692 0
M  V30 5871 H 537.136 -1.82532 -0.188227 0
M  V30 5872 H 535.518 -3.06981 -2.50157 0
M  V30 5873 H 536.692 -4.6071 -0.0910326 0
M  V30 5874 H 535.007 -4.15706 -0.240365 0
M  V30 5875 H 537.604 -4.41983 -3.00924 0
M  V30 5876 H 537.947 -2.71371 -3.15695 0
M  V30 5877 H 538.48 -3.59442 -1.7043 0
M  V30 5878 H 535.219 -6.48925 -0.926106 0
M  V30 5879 H 534.739 -5.52275 -2.33991 0
M  V30 5880 H 536.418 -6.09365 -2.17447 0
M  V30 5881 N 536.55 0.480323 -1.50102 0
M  V30 5882 C 537.775 1.26126 -1.64642 0
M  V30 5883 C 538.2 1.85257 -0.325823 0
M  V30 5884 O 537.558 1.66854 0.709194 0
M  V30 5885 C 537.606 2.35243 -2.73301 0
M  V30 5886 O 536.71 3.39646 -2.33911 0
M  V30 5887 H 536.051 0.371463 -0.550374 0
M  V30 5888 H 538.581 0.572696 -1.96421 0
M  V30 5889 H 538.591 2.80695 -2.96098 0
M  V30 5890 H 537.266 1.91574 -3.6915 0
M  V30 5891 H 535.843 2.99969 -2.21525 0
M  V30 5892 N 538.028 1.39524 0.732853 0
M  V30 5893 C 538.975 1.38416 1.84688 0
M  V30 5894 C 539.945 0.243539 1.64305 0
M  V30 5895 O 541.13 0.438979 1.85681 0
M  V30 5896 C 538.27 1.23555 3.22224 0
M  V30 5897 C 537.383 2.47179 3.54298 0
M  V30 5898 C 536.518 2.2489 4.81246 0
M  V30 5899 C 535.557 3.44178 5.0617 0
M  V30 5900 N 534.694 3.21192 6.24323 0
M  V30 5901 H 539.534 2.33645 1.84971 0
M  V30 5902 H 537.071 1.16059 0.903804 0
M  V30 5903 H 539.029 1.12949 4.0162 0
M  V30 5904 H 537.659 0.31954 3.21215 0
M  V30 5905 H 536.711 2.68379 2.69587 0
M  V30 5906 H 538.023 3.36022 3.68633 0
M  V30 5907 H 537.177 2.11538 5.68627 0
M  V30 5908 H 535.916 1.33443 4.69089 0
M  V30 5909 H 534.921 3.58025 4.17251 0
M  V30 5910 H 536.146 4.36528 5.20212 0
M  V30 5911 H 534.092 2.32413 6.1345 0
M  V30 5912 H 534.009 4.03594 6.39256 0
M  V30 5913 H 535.277 3.1154 7.14537 0
M  V30 5914 N 539.506 -0.963266 1.24736 0
M  V30 5915 C 540.736 -1.73913 1.11524 0
M  V30 5916 C 541.144 -1.86218 -0.334612 0
M  V30 5917 O 540.487 -1.3531 -1.24245 0
M  V30 5918 C 540.549 -3.17501 1.68622 0
M  V30 5919 C 540.213 -3.28655 3.17546 0
M  V30 5920 C 541.21 -3.13637 4.14642 0
M  V30 5921 C 538.895 -3.52753 3.5759 0
M  V30 5922 C 540.889 -3.2255 5.49764 0
M  V30 5923 C 538.576 -3.61303 4.92852 0
M  V30 5924 C 539.574 -3.46214 5.88748 0
M  V30 5925 O 539.262 -3.5443 7.2155 0
M  V30 5926 H 538.994 -0.552057 0.390139 0
M  V30 5927 H 541.548 -1.2177 1.65412 0
M  V30 5928 H 539.778 -3.70969 1.09172 0
M  V30 5929 H 541.467 -3.76914 1.50635 0
M  V30 5930 H 542.233 -2.94899 3.85045 0
M  V30 5931 H 538.112 -3.63561 2.83451 0
M  V30 5932 H 541.656 -3.1069 6.24594 0
M  V30 5933 H 537.553 -3.79556 5.22118 0
M  V30 5934 H 538.321 -3.71116 7.29531 0
M  V30 5935 N 540.985 -1.06182 -1.16461 0
M  V30 5936 C 542.232 -0.777863 -1.86964 0
M  V30 5937 C 542.56 0.695602 -1.81636 0
M  V30 5938 O 541.815 1.52532 -1.22607 0
M  V30 5939 C 542.114 -1.21633 -3.36066 0
M  V30 5940 C 541.78 -2.69371 -3.61594 0
M  V30 5941 C 540.442 -3.09727 -3.6827 0
M  V30 5942 C 542.794 -3.64791 -3.7226 0
M  V30 5943 C 540.122 -4.44345 -3.83112 0
M  V30 5944 C 542.474 -4.99155 -3.88623 0
M  V30 5945 C 541.138 -5.39149 -3.93541 0
M  V30 5946 H 540.408 -0.28464 -0.68415 0
M  V30 5947 H 543.055 -1.33071 -1.37711 0
M  V30 5948 H 541.36 -0.582651 -3.87443 0
M  V30 5949 H 543.057 -0.973682 -3.88999 0
M  V30 5950 H 539.647 -2.37124 -3.57029 0
M  V30 5951 H 543.831 -3.34746 -3.66413 0
M  V30 5952 H 539.087 -4.74819 -3.85172 0
M  V30 5953 H 543.261 -5.72976 -3.95817 0
M  V30 5954 H 540.888 -6.43464 -4.04794 0
M  V30 5955 O 542.502 1.28464 -0.97874 0
M  V30 5956 H 543.193 1.83432 -0.622284 0
M  V30 END ATOM
M  V30 BEGIN BOND
M  V30 END BOND
M  V30 END CTAB
M  END
$$$$
