drugbank_target|Q02083 N-acylethanolamine-hydrolyzing acid amidase (DB09061; DB14009; DB14011)
 OpenBabel12092121093D

  0  0  0     0  0            999 V3000
M  V30 BEGIN CTAB
M  V30 COUNTS 5668 5743 0 0 0
M  V30 BEGIN ATOM
M  V30 1 H -0.908 1.98254 -0.117106 0
M  V30 2 N 0 1.576 0 0
M  V30 3 C 0.933 2.03868 1.02534 0
M  V30 4 C 1.911 0.928543 1.3348 0
M  V30 5 O 3.095 1.19667 1.45644 0
M  V30 6 C 0.222 2.43627 2.35294 0
M  V30 7 C -0.732 3.65373 2.2001 0
M  V30 8 S 0.101 5.13292 1.52614 0
M  V30 9 C 1.257 5.56322 2.86805 0
M  V30 10 H 1.49 2.90518 0.631377 0
M  V30 11 H -0.977 1.52953 0.210867 0
M  V30 12 H 0.981 2.67203 3.11629 0
M  V30 13 H -0.358 1.57376 2.7183 0
M  V30 14 H -1.165 3.90944 3.18086 0
M  V30 15 H -1.563 3.418 1.51819 0
M  V30 16 H 0.729 5.58782 3.83104 0
M  V30 17 H 1.672 6.56266 2.65933 0
M  V30 18 H 2.08 4.83886 2.90714 0
M  V30 19 N 1.4781 -0.272755 1.55222 0
M  V30 20 C 2.8941 -0.619959 1.47067 0
M  V30 21 C 3.0941 -1.895 0.684978 0
M  V30 22 O 2.1501 -2.51675 0.203931 0
M  V30 23 C 3.4631 -0.746693 2.91282 0
M  V30 24 C 5.0111 -0.840731 3.01497 0
M  V30 25 C 5.4861 -0.99924 4.46967 0
M  V30 26 N 6.9771 -1.06476 4.50796 0
M  V30 27 C 7.7121 -1.20621 5.6057 0
M  V30 28 N 7.2081 -1.31483 6.80209 0
M  V30 29 N 9.0011 -1.23733 5.48312 0
M  V30 30 H 1.1521 0.564606 2.04758 0
M  V30 31 H 3.4151 0.191177 0.928523 0
M  V30 32 H 3.1211 0.119753 3.51496 0
M  V30 33 H 2.9951 -1.6269 3.40311 0
M  V30 34 H 5.3821 -1.69764 2.41379 0
M  V30 35 H 5.4631 0.0640874 2.5572 0
M  V30 36 H 5.1071 -0.146984 5.07687 0
M  V30 37 H 5.0371 -1.91871 4.90401 0
M  V30 38 H 7.5281 -0.993196 3.64615 0
M  V30 39 H 7.8411 -1.42111 7.59621 0
M  V30 40 H 6.1861 -1.28487 6.8302 0
M  V30 41 H 9.3771 -1.14877 4.53785 0
M  V30 42 H 9.5501 -1.34412 6.33906 0
M  V30 43 N 2.9562 -1.48159 -0.537278 0
M  V30 44 C 4.1842 -1.59454 -1.31841 0
M  V30 45 C 4.5992 -0.252065 -1.8711 0
M  V30 46 O 3.9562 0.757621 -1.66031 0
M  V30 47 C 4.0072 -2.63546 -2.47439 0
M  V30 48 O 3.7282 -3.92583 -1.94449 0
M  V30 49 C 5.2292 -2.85212 -3.39366 0
M  V30 50 H 2.4492 -0.53785 -0.401196 0
M  V30 51 H 4.9932 -1.93932 -0.648891 0
M  V30 52 H 3.1482 -2.31946 -3.1029 0
M  V30 53 H 3.5622 -4.49629 -2.70063 0
M  V30 54 H 5.0362 -3.61863 -4.16844 0
M  V30 55 H 5.5132 -1.93765 -3.94147 0
M  V30 56 H 6.1192 -3.18086 -2.82314 0
M  V30 57 N 4.4343 0.785586 -1.36625 0
M  V30 58 C 5.3973 1.87999 -1.31107 0
M  V30 59 C 6.3973 1.59316 -0.217959 0
M  V30 60 O 7.5873 1.67656 -0.472977 0
M  V30 61 C 4.7193 3.24861 -1.03334 0
M  V30 62 H 5.9123 1.94307 -2.2844 0
M  V30 63 H 3.4653 0.983813 -1.21453 0
M  V30 64 H 4.2003 3.24235 -0.0647432 0
M  V30 65 H 3.9853 3.4707 -1.82441 0
M  V30 66 H 5.4753 4.04929 -1.02088 0
M  V30 67 N 5.9124 1.20967 1.01018 0
M  V30 68 C 7.1894 0.93264 1.71934 0
M  V30 69 C 7.5694 -0.55692 2.03621 0
M  V30 70 O 6.9174 -1.52035 1.7058 0
M  V30 71 C 7.1274 1.81233 2.98254 0
M  V30 72 C 8.4754 2.05804 3.71389 0
M  V30 73 O 9.4994 1.78539 3.08225 0
M  V30 74 O 8.3584 2.51888 4.84989 0
M  V30 75 H 5.4524 0.349272 0.749625 0
M  V30 76 H 7.9984 1.31871 1.06808 0
M  V30 77 H 6.7704 2.82067 2.71208 0
M  V30 78 H 6.3934 1.42674 3.7112 0
M  V30 79 N 7.3905 -1.2043 1.01659 0
M  V30 80 C 8.8065 -1.41852 0.731442 0
M  V30 81 C 9.0065 -1.89358 -0.688898 0
M  V30 82 O 8.0625 -2.06247 -1.45666 0
M  V30 83 C 9.3755 -2.44019 1.75714 0
M  V30 84 C 10.9235 -2.57785 1.77527 0
M  V30 85 C 11.3985 -3.63194 2.79023 0
M  V30 86 N 12.8895 -3.70678 2.77763 0
M  V30 87 C 13.6245 -4.51897 3.52954 0
M  V30 88 N 13.1205 -5.36921 4.37821 0
M  V30 89 N 14.9135 -4.4643 3.41551 0
M  V30 90 H 7.0645 -0.879093 1.93354 0
M  V30 91 H 9.3275 -0.448425 0.835236 0
M  V30 92 H 9.0335 -2.1611 2.77469 0
M  V30 93 H 8.9075 -3.43007 1.56927 0
M  V30 94 H 11.2945 -2.85023 0.764569 0
M  V30 95 H 11.3755 -1.58992 2.00387 0
M  V30 96 H 11.0195 -3.36699 3.80258 0
M  V30 97 H 10.9495 -4.61609 2.53425 0
M  V30 98 H 13.4405 -3.09944 2.16201 0
M  V30 99 H 13.7535 -5.95981 4.91962 0
M  V30 100 H 12.0985 -5.36424 4.41899 0
M  V30 101 H 15.2895 -3.79042 2.74672 0
M  V30 102 H 15.4625 -5.09491 4.00404 0
M  V30 103 N 8.8686 -0.792821 -1.36206 0
M  V30 104 C 9.7786 -0.194808 -2.3379 0
M  V30 105 C 10.7946 0.654869 -1.61206 0
M  V30 106 O 11.9706 0.569856 -1.9317 0
M  V30 107 C 9.0356 0.657721 -3.40404 0
M  V30 108 C 8.0966 -0.210849 -4.28782 0
M  V30 109 C 7.3296 0.601086 -5.30304 0
M  V30 110 O 7.5526 1.83682 -5.40016 0
M  V30 111 O 6.4866 -0.000808277 -6.019 0
M  V30 112 H 10.3126 -1.00172 -2.86704 0
M  V30 113 H 7.8976 -0.554341 -1.38735 0
M  V30 114 H 9.7796 1.14375 -4.05581 0
M  V30 115 H 8.4546 1.44247 -2.89784 0
M  V30 116 H 7.3616 -0.743714 -3.66633 0
M  V30 117 H 8.6946 -0.959195 -4.82763 0
M  V30 118 N 10.3467 1.47872 -0.545128 0
M  V30 119 C 11.3097 2.28337 0.198717 0
M  V30 120 C 12.3097 1.36255 0.853888 0
M  V30 121 O 13.4997 1.59003 0.711606 0
M  V30 122 C 10.6317 3.15585 1.28915 0
M  V30 123 H 11.8247 2.95567 -0.507941 0
M  V30 124 H 9.3777 1.53362 -0.301616 0
M  V30 125 H 10.1127 2.53019 2.02859 0
M  V30 126 H 9.8977 3.83337 0.824309 0
M  V30 127 H 11.3877 3.76243 1.81194 0
M  V30 128 N 11.8248 0.280983 1.55075 0
M  V30 129 C 13.2408 -0.0729964 1.59433 0
M  V30 130 C 13.4408 -1.5411 1.29817 0
M  V30 131 O 12.4968 -2.29086 1.06187 0
M  V30 132 C 13.8098 0.306921 2.9913 0
M  V30 133 C 15.3578 0.254023 3.11968 0
M  V30 134 C 15.8328 0.608467 4.5394 0
M  V30 135 N 17.3238 0.560241 4.59799 0
M  V30 136 C 18.0588 0.80722 5.6769 0
M  V30 137 N 17.5548 1.11912 6.83701 0
M  V30 138 N 19.3478 0.735623 5.57266 0
M  V30 139 H 11.4988 1.238 1.7259 0
M  V30 140 H 13.7618 0.500547 0.805082 0
M  V30 141 H 13.4678 1.32816 3.25657 0
M  V30 142 H 13.3418 -0.349363 3.75579 0
M  V30 143 H 15.7288 -0.75794 2.852 0
M  V30 144 H 15.8098 0.944649 2.37718 0
M  V30 145 H 15.4538 1.61814 4.81434 0
M  V30 146 H 15.3838 -0.104013 5.26497 0
M  V30 147 H 17.8748 0.329288 3.76463 0
M  V30 148 H 18.1878 1.29409 7.61888 0
M  V30 149 H 16.5328 1.15695 6.85303 0
M  V30 150 H 19.7238 0.491752 4.6551 0
M  V30 151 H 19.8968 0.931482 6.4127 0
M  V30 152 N 13.3029 -1.57598 0.00835791 0
M  V30 153 C 14.7139 -1.7892 -0.53333 0
M  V30 154 C 15.0649 -0.916609 -1.73473 0
M  V30 155 O 14.1899 -0.121336 -2.1606 0
M  V30 156 C 14.7849 -3.24488 -0.974313 0
M  V30 157 C 13.3439 -3.46878 -1.46125 0
M  V30 158 C 12.4909 -2.74157 -0.416302 0
M  V30 159 H 15.4419 -1.56958 0.234495 0
M  V30 160 H 15.4629 -3.3306 -1.83988 0
M  V30 161 H 14.9749 -3.87972 -0.099718 0
M  V30 162 H 13.0759 -2.8862 -2.35646 0
M  V30 163 H 13.1889 -4.55572 -1.48295 0
M  V30 164 H 11.5529 -2.39022 -0.87981 0
M  V30 165 H 12.3359 -3.40345 0.44947 0
M  V30 166 N 14.781 0.264519 -1.55364 0
M  V30 167 C 16.029 0.993021 -1.76021 0
M  V30 168 C 16.35 1.86511 -0.569099 0
M  V30 169 O 15.62 1.91438 0.415735 0
M  V30 170 H 14.2 0.369639 -0.649135 0
M  V30 171 H 16.862 0.286707 -1.9278 0
M  V30 172 H 15.958 1.62502 -2.66457 0
M  V30 173 N 16.2591 1.48442 0.529413 0
M  V30 174 C 17.1891 1.65902 1.64313 0
M  V30 175 C 18.1701 0.507897 1.6234 0
M  V30 176 O 19.3551 0.740503 1.79528 0
M  V30 177 C 16.4851 1.69911 3.02898 0
M  V30 178 C 15.4391 2.8453 3.19729 0
M  V30 179 C 14.7651 2.73629 4.59381 0
M  V30 180 C 16.0651 4.25821 3.02447 0
M  V30 181 H 17.7591 2.5914 1.49955 0
M  V30 182 H 15.3051 1.24709 0.719982 0
M  V30 183 H 17.2581 1.80715 3.80684 0
M  V30 184 H 15.9821 0.732524 3.18279 0
M  V30 185 H 14.6411 2.73283 2.44361 0
M  V30 186 H 14.2891 1.74938 4.71599 0
M  V30 187 H 13.9891 3.50541 4.71588 0
M  V30 188 H 15.5131 2.86401 5.39265 0
M  V30 189 H 16.9271 4.37898 3.70024 0
M  V30 190 H 15.3241 5.03735 3.26146 0
M  V30 191 H 16.3941 4.42244 1.98867 0
M  V30 192 N 17.7372 -0.778329 1.37039 0
M  V30 193 C 19.1482 -1.35421 1.28523 0
M  V30 194 C 19.4992 -1.96075 -0.0700901 0
M  V30 195 O 18.6242 -1.93352 -0.971801 0
M  V30 196 C 19.2192 -2.46211 2.32735 0
M  V30 197 C 17.7782 -2.99585 2.27873 0
M  V30 198 C 16.9252 -1.72748 2.16918 0
M  V30 199 H 19.8762 -0.5791 1.47757 0
M  V30 200 H 19.8972 -3.2552 1.9702 0
M  V30 201 H 19.4092 -2.02036 3.31365 0
M  V30 202 H 17.5102 -3.48152 1.32745 0
M  V30 203 H 17.6232 -3.55646 3.21018 0
M  V30 204 H 15.9872 -1.95416 1.63354 0
M  V30 205 H 16.7702 -1.30686 3.17452 0
M  V30 206 N 19.2153 -1.21501 -1.00376 0
M  V30 207 C 20.4403 -1.05977 -1.78279 0
M  V30 208 C 20.8653 0.385994 -1.84097 0
M  V30 209 O 20.2233 1.27849 -1.28547 0
M  V30 210 C 20.2713 -1.66302 -3.19963 0
M  V30 211 O 19.3753 -0.909333 -4.0225 0
M  V30 212 H 18.7163 -0.372906 -0.549397 0
M  V30 213 H 21.2463 -1.6107 -1.26165 0
M  V30 214 H 21.2563 -1.70574 -3.70632 0
M  V30 215 H 19.9313 -2.71515 -3.15043 0
M  V30 216 H 18.5083 -0.941795 -3.60811 0
M  V30 217 N 20.6934 1.19889 -1.02296 0
M  V30 218 C 21.6234 2.25141 -0.619174 0
M  V30 219 C 22.6044 1.66051 0.368915 0
M  V30 220 O 23.7894 1.92546 0.252941 0
M  V30 221 C 20.9194 3.4728 0.0368783 0
M  V30 222 C 19.8734 4.19005 -0.872865 0
M  V30 223 C 19.1994 5.34637 -0.0822402 0
M  V30 224 C 20.4994 4.74452 -2.18387 0
M  V30 225 H 22.1934 2.59171 -1.49903 0
M  V30 226 H 19.7394 1.24579 -0.722222 0
M  V30 227 H 21.6924 4.20098 0.330958 0
M  V30 228 H 20.4164 3.12433 0.95149 0
M  V30 229 H 19.0754 3.48061 -1.15105 0
M  V30 230 H 18.7234 4.96034 0.83422 0
M  V30 231 H 18.4234 5.83557 -0.688149 0
M  V30 232 H 19.9474 6.10255 0.205238 0
M  V30 233 H 21.3614 5.39055 -1.95172 0
M  V30 234 H 19.7584 5.33834 -2.74119 0
M  V30 235 H 20.8284 3.92844 -2.84257 0
M  V30 236 N 22.1715 0.800033 1.35784 0
M  V30 237 C 23.1015 0.220184 2.3246 0
M  V30 238 C 24.0825 -0.65073 1.57161 0
M  V30 239 O 25.2675 -0.582359 1.85263 0
M  V30 240 C 22.3975 -0.637353 3.41402 0
M  V30 241 C 21.3515 0.134531 4.27789 0
M  V30 242 C 20.6775 -0.844285 5.27992 0
M  V30 243 C 21.9775 1.32979 5.05088 0
M  V30 244 H 23.6715 1.02787 2.81203 0
M  V30 245 H 21.2175 0.495717 1.35199 0
M  V30 246 H 23.1705 -1.05302 4.08031 0
M  V30 247 H 21.8945 -1.47785 2.91251 0
M  V30 248 H 20.5535 0.531296 3.6273 0
M  V30 249 H 20.2015 -1.68011 4.74111 0
M  V30 250 H 19.9015 -0.332184 5.8666 0
M  V30 251 H 21.4255 -1.2583 5.97494 0
M  V30 252 H 22.8395 0.98934 5.64699 0
M  V30 253 H 21.2365 1.77593 5.7322 0
M  V30 254 H 22.3065 2.11978 4.36111 0
M  V30 255 N 23.6496 -1.47581 0.552962 0
M  V30 256 C 24.5796 -2.32762 -0.185451 0
M  V30 257 C 25.5606 -1.43527 -0.912905 0
M  V30 258 O 26.7456 -1.72388 -0.894201 0
M  V30 259 C 23.8756 -3.25219 -1.21859 0
M  V30 260 C 22.8296 -4.23661 -0.607864 0
M  V30 261 C 22.1556 -5.05413 -1.74533 0
M  V30 262 C 23.4556 -5.20481 0.435582 0
M  V30 263 H 25.1496 -2.94749 0.525684 0
M  V30 264 H 22.6956 -1.41738 0.254251 0
M  V30 265 H 24.6486 -3.8365 -1.7433 0
M  V30 266 H 23.3726 -2.61279 -1.95961 0
M  V30 267 H 22.0316 -3.66451 -0.104489 0
M  V30 268 H 21.6796 -4.3788 -2.47529 0
M  V30 269 H 21.3796 -5.72059 -1.34249 0
M  V30 270 H 22.9036 -5.66701 -2.27338 0
M  V30 271 H 24.3176 -5.733 -0.00290157 0
M  V30 272 H 22.7146 -5.95305 0.757067 0
M  V30 273 H 23.7846 -4.66217 1.33303 0
M  V30 274 N 25.1277 -0.289203 -1.54924 0
M  V30 275 C 26.0577 0.58549 -2.2604 0
M  V30 276 C 27.0387 1.14753 -1.25562 0
M  V30 277 O 28.2237 1.17906 -1.54311 0
M  V30 278 C 25.3537 1.76305 -2.99222 0
M  V30 279 C 24.3077 1.33191 -4.06748 0
M  V30 280 C 23.6337 2.5937 -4.6758 0
M  V30 281 C 24.9337 0.471775 -5.20165 0
M  V30 282 H 26.6277 -0.00763532 -2.99399 0
M  V30 283 H 24.1737 -0.00511229 -1.43999 0
M  V30 284 H 26.1267 2.38097 -3.47689 0
M  V30 285 H 24.8507 2.38223 -2.23422 0
M  V30 286 H 23.5097 0.737121 -3.59113 0
M  V30 287 H 23.1577 3.19576 -3.88433 0
M  V30 288 H 22.8577 2.31228 -5.40192 0
M  V30 289 H 24.3817 3.21985 -5.18804 0
M  V30 290 H 25.7957 0.995056 -5.64599 0
M  V30 291 H 24.1927 0.284639 -5.99425 0
M  V30 292 H 25.2627 -0.506041 -4.82252 0
M  V30 293 N 26.6058 1.57591 -0.0167156 0
M  V30 294 C 27.5358 2.12496 0.967858 0
M  V30 295 C 28.5168 1.03807 1.34752 0
M  V30 296 O 29.7018 1.31577 1.42833 0
M  V30 297 C 26.8318 2.64194 2.25431 0
M  V30 298 C 25.7858 3.77559 2.01576 0
M  V30 299 C 25.1118 4.15636 3.36379 0
M  V30 300 C 26.4118 5.04151 1.36489 0
M  V30 301 H 28.1058 2.95013 0.510643 0
M  V30 302 H 25.6518 1.41915 0.244181 0
M  V30 303 H 27.6048 3.01236 2.94678 0
M  V30 304 H 26.3288 1.78821 2.73296 0
M  V30 305 H 24.9878 3.40937 1.34751 0
M  V30 306 H 24.6358 3.27263 3.81979 0
M  V30 307 H 24.3358 4.92022 3.21229 0
M  V30 308 H 25.8598 4.5525 4.06915 0
M  V30 309 H 27.2738 5.38857 1.95718 0
M  V30 310 H 25.6708 5.85453 1.31776 0
M  V30 311 H 26.7408 4.83733 0.336219 0
M  V30 312 N 28.0839 -0.256276 1.55502 0
M  V30 313 C 29.0139 -1.32102 1.92539 0
M  V30 314 C 29.9949 -1.50684 0.789194 0
M  V30 315 O 31.1799 -1.63449 1.04872 0
M  V30 316 C 28.3099 -2.67752 2.21192 0
M  V30 317 C 27.2639 -2.63878 3.36975 0
M  V30 318 C 26.5899 -4.03236 3.51147 0
M  V30 319 C 27.8899 -2.21682 4.72921 0
M  V30 320 H 29.5839 -1.01351 2.81724 0
M  V30 321 H 27.1299 -0.486105 1.35547 0
M  V30 322 H 29.0829 -3.42365 2.45691 0
M  V30 323 H 27.8069 -3.0012 1.28824 0
M  V30 324 H 26.4659 -1.91722 3.12471 0
M  V30 325 H 26.1139 -4.32854 2.56216 0
M  V30 326 H 25.8139 -4.01535 4.29003 0
M  V30 327 H 27.3379 -4.79563 3.77957 0
M  V30 328 H 28.7519 -2.86023 4.96854 0
M  V30 329 H 27.1489 -2.3111 5.53812 0
M  V30 330 H 28.2189 -1.16833 4.70615 0
M  V30 331 N 29.562 -1.4872 -0.521534 0
M  V30 332 C 30.525 -1.63379 -1.60748 0
M  V30 333 C 31.525 -0.50661 -1.52611 0
M  V30 334 O 32.715 -0.772601 -1.5613 0
M  V30 335 C 29.847 -1.61192 -3.00383 0
M  V30 336 H 31.04 -2.60217 -1.49087 0
M  V30 337 H 28.593 -1.37444 -0.744235 0
M  V30 338 H 29.328 -0.65863 -3.17541 0
M  V30 339 H 29.113 -2.43032 -3.07698 0
M  V30 340 H 30.603 -1.7466 -3.7932 0
M  V30 341 N 31.0401 0.771051 -1.3745 0
M  V30 342 C 32.2881 1.52661 -1.32435 0
M  V30 343 C 32.6091 1.9479 0.0905024 0
M  V30 344 O 31.8791 1.66348 1.03466 0
M  V30 345 H 30.4591 0.566218 -0.487244 0
M  V30 346 H 33.1211 0.917636 -1.71946 0
M  V30 347 H 32.2171 2.42568 -1.96385 0
M  V30 348 N 32.5182 1.22032 0.997298 0
M  V30 349 C 33.4812 0.987909 2.06816 0
M  V30 350 C 34.4812 -0.0440084 1.6074 0
M  V30 351 O 35.6712 0.194053 1.73116 0
M  V30 352 C 32.8032 0.49132 3.37341 0
M  V30 353 H 33.9962 1.93803 2.28868 0
M  V30 354 H 31.5492 1.03838 1.16822 0
M  V30 355 H 32.2842 -0.463364 3.20973 0
M  V30 356 H 32.0692 1.23575 3.72118 0
M  V30 357 H 33.5592 0.348824 4.16141 0
M  V30 358 N 33.9963 -1.19345 1.0293 0
M  V30 359 C 35.2443 -1.88665 0.724574 0
M  V30 360 C 35.5653 -1.80036 -0.749144 0
M  V30 361 O 34.8353 -1.2111 -1.53978 0
M  V30 362 H 33.4153 -0.698406 0.265025 0
M  V30 363 H 36.0773 -1.44885 1.30362 0
M  V30 364 H 35.1733 -2.94987 1.01926 0
M  V30 365 N 35.4744 -0.807222 -1.35358 0
M  V30 366 C 36.4044 -0.232509 -2.3234 0
M  V30 367 C 37.3854 0.642386 -1.57504 0
M  V30 368 O 38.5704 0.572526 -1.85569 0
M  V30 369 C 35.7004 0.619238 -3.41735 0
M  V30 370 C 34.6544 -0.157215 -4.27711 0
M  V30 371 C 33.9804 0.816273 -5.28433 0
M  V30 372 C 35.2804 -1.35656 -5.04376 0
M  V30 373 H 36.9744 -1.04276 -2.80654 0
M  V30 374 H 34.5204 -0.50288 -1.34934 0
M  V30 375 H 36.4734 1.03137 -4.08584 0
M  V30 376 H 35.1974 1.46239 -2.92031 0
M  V30 377 H 33.8564 -0.550525 -3.62443 0
M  V30 378 H 33.5044 1.65494 -4.74996 0
M  V30 379 H 33.2044 0.301067 -5.86828 0
M  V30 380 H 34.7284 1.22659 -5.98153 0
M  V30 381 H 36.1424 -1.01927 -5.64166 0
M  V30 382 H 34.5394 -1.8063 -5.7227 0
M  V30 383 H 35.6094 -2.14288 -4.34981 0
M  V30 384 N 36.9525 1.47285 -0.560781 0
M  V30 385 C 38.1775 2.07359 -0.0410566 0
M  V30 386 C 38.6025 1.41017 1.24483 0
M  V30 387 O 37.9605 0.486368 1.74654 0
M  V30 388 C 38.0085 3.6035 0.134123 0
M  V30 389 O 37.1125 3.94681 1.19587 0
M  V30 390 H 36.4535 0.661887 -0.0529291 0
M  V30 391 H 38.9835 1.89252 -0.777482 0
M  V30 392 H 38.9935 4.0652 0.347207 0
M  V30 393 H 37.6685 4.08034 -0.805047 0
M  V30 394 H 36.2455 3.60251 0.962987 0
M  V30 395 N 38.4306 0.297415 1.54768 0
M  V30 396 C 39.3936 -0.567375 2.22066 0
M  V30 397 C 40.3936 -1.06409 1.20556 0
M  V30 398 O 41.5836 -0.960691 1.45315 0
M  V30 399 C 38.7156 -1.78517 2.90421 0
M  V30 400 H 39.9086 0.0205534 2.99893 0
M  V30 401 H 37.4616 0.0482163 1.56226 0
M  V30 402 H 38.1966 -2.41303 2.16664 0
M  V30 403 H 37.9816 -1.43669 3.64831 0
M  V30 404 H 39.4716 -2.39964 3.41771 0
M  V30 405 N 39.9087 -1.5758 0.0250728 0
M  V30 406 C 40.8717 -2.08896 -0.943139 0
M  V30 407 C 41.8717 -1.00321 -1.25668 0
M  V30 408 O 43.0617 -1.26495 -1.19769 0
M  V30 409 C 40.1937 -2.55143 -2.26086 0
M  V30 410 H 41.3867 -2.95723 -0.498775 0
M  V30 411 H 38.9397 -1.54703 -0.222888 0
M  V30 412 H 39.6747 -1.71633 -2.75159 0
M  V30 413 H 39.4597 -3.34461 -2.04641 0
M  V30 414 H 40.9497 -2.95083 -2.95492 0
M  V30 415 N 41.3868 0.248026 -1.55636 0
M  V30 416 C 42.6118 0.998028 -1.81808 0
M  V30 417 C 43.0368 1.78207 -0.601979 0
M  V30 418 O 42.3948 1.75653 0.448961 0
M  V30 419 C 42.4428 1.9125 -3.05705 0
M  V30 420 O 41.5468 3.00406 -2.82542 0
M  V30 421 H 40.8878 0.284045 -0.600179 0
M  V30 422 H 43.4178 0.269357 -2.02819 0
M  V30 423 H 43.4278 2.32737 -3.35108 0
M  V30 424 H 42.1028 1.33602 -3.93857 0
M  V30 425 H 40.6798 2.63056 -2.64303 0
M  V30 426 N 42.8649 1.48995 0.513639 0
M  V30 427 C 44.2759 1.5119 1.09537 0
M  V30 428 C 44.6269 0.290906 1.94031 0
M  V30 429 O 43.7519 -0.60049 2.07902 0
M  V30 430 C 44.3469 2.73964 1.99322 0
M  V30 431 C 42.9059 2.78978 2.52682 0
M  V30 432 C 42.0529 2.44934 1.30009 0
M  V30 433 H 45.0039 1.55875 0.298125 0
M  V30 434 H 45.0249 2.53409 2.83838 0
M  V30 435 H 44.5369 3.62813 1.37799 0
M  V30 436 H 42.6379 1.94378 3.1788 0
M  V30 437 H 42.7509 3.8083 2.90698 0
M  V30 438 H 41.1149 1.9644 1.62122 0
M  V30 439 H 41.8979 3.36043 0.702131 0
M  V30 440 N 44.343 -0.763751 1.37857 0
M  V30 441 C 45.754 -1.3405 1.29952 0
M  V30 442 C 46.105 -1.96138 -0.0492898 0
M  V30 443 O 45.23 -1.94372 -0.951239 0
M  V30 444 C 45.825 -2.43729 2.35333 0
M  V30 445 C 44.384 -2.97151 2.31037 0
M  V30 446 C 43.531 -1.70438 2.18738 0
M  V30 447 H 46.482 -0.563396 1.48363 0
M  V30 448 H 46.503 -3.23412 2.00462 0
M  V30 449 H 46.015 -1.9851 3.33489 0
M  V30 450 H 44.116 -3.46724 1.3643 0
M  V30 451 H 44.229 -3.52221 3.24772 0
M  V30 452 H 42.593 -1.93673 1.65418 0
M  V30 453 H 43.376 -1.27312 3.18821 0
M  V30 454 N 45.8211 -1.22559 -0.990812 0
M  V30 455 C 46.7841 -0.998863 -2.0629 0
M  V30 456 C 47.7841 0.0354834 -1.60761 0
M  V30 457 O 48.9741 -0.203231 -1.7301 0
M  V30 458 C 46.1061 -0.509203 -3.37076 0
M  V30 459 H 47.2991 -1.95014 -2.27837 0
M  V30 460 H 44.8521 -1.04456 -1.16269 0
M  V30 461 H 45.5871 0.446335 -3.21214 0
M  V30 462 H 45.3721 -1.25547 -3.71457 0
M  V30 463 H 46.8621 -0.370888 -4.1595 0
M  V30 464 N 47.2992 1.18797 -1.03562 0
M  V30 465 C 48.2622 2.20464 -0.626769 0
M  V30 466 C 49.2622 1.57721 0.313173 0
M  V30 467 O 50.4522 1.73917 0.0992615 0
M  V30 468 C 47.5842 3.40802 0.0818498 0
M  V30 469 H 48.7772 2.58149 -1.5264 0
M  V30 470 H 46.3302 1.32593 -0.827578 0
M  V30 471 H 47.0652 3.08642 0.995518 0
M  V30 472 H 46.8502 3.8758 -0.593652 0
M  V30 473 H 48.3402 4.16092 0.354584 0
M  V30 474 N 48.7773 0.814389 1.34928 0
M  V30 475 C 50.1883 0.458364 1.80986 0
M  V30 476 C 50.5393 -1.02042 1.67577 0
M  V30 477 O 49.6643 -1.79352 1.21086 0
M  V30 478 C 50.2593 0.825212 3.28597 0
M  V30 479 C 48.8183 0.521677 3.72767 0
M  V30 480 C 47.9653 1.04668 2.56788 0
M  V30 481 H 50.9163 1.00533 1.22795 0
M  V30 482 H 50.9373 0.12571 3.80292 0
M  V30 483 H 50.4493 1.90154 3.38324 0
M  V30 484 H 48.5503 -0.545589 3.68584 0
M  V30 485 H 48.6633 1.05977 4.67232 0
M  V30 486 H 47.0273 0.468622 2.50352 0
M  V30 487 H 47.8103 2.12927 2.6929 0
M  V30 488 N 50.2554 -1.46986 0.568584 0
M  V30 489 C 51.6714 -1.57946 0.229189 0
M  V30 490 C 51.8714 -1.56567 -1.26843 0
M  V30 491 O 50.9274 -1.47511 -2.04931 0
M  V30 492 C 52.2404 -2.87963 0.865909 0
M  V30 493 C 53.7884 -3.01568 0.838188 0
M  V30 494 C 54.2634 -4.34301 1.45419 0
M  V30 495 N 55.7544 -4.40965 1.41788 0
M  V30 496 C 56.4894 -5.42256 1.86403 0
M  V30 497 N 55.9854 -6.50297 2.38926 0
M  V30 498 N 57.7784 -5.3337 1.77405 0
M  V30 499 H 49.9294 -1.46126 1.54146 0
M  V30 500 H 52.1924 -0.696156 0.643484 0
M  V30 501 H 51.8984 -2.94742 1.91886 0
M  V30 502 H 51.7724 -3.75423 0.365687 0
M  V30 503 H 54.1594 -2.94379 -0.206106 0
M  V30 504 H 54.2404 -2.1562 1.37629 0
M  V30 505 H 53.8844 -4.42247 2.49761 0
M  V30 506 H 53.8144 -5.19 0.891435 0
M  V30 507 H 56.3054 -3.63484 1.03381 0
M  V30 508 H 56.6184 -7.23777 2.70863 0
M  V30 509 H 54.9634 -6.51155 2.42944 0
M  V30 510 H 58.1544 -4.47865 1.3614 0
M  V30 511 H 58.3274 -6.12169 2.12492 0
M  V30 512 N 51.7335 -0.305618 -1.54608 0
M  V30 513 C 52.9805 0.302298 -2.00231 0
M  V30 514 C 53.3085 1.5354 -1.19398 0
M  V30 515 O 52.5635 1.93973 -0.259423 0
M  V30 516 C 52.8625 0.698983 -3.50498 0
M  V30 517 C 52.5285 -0.432903 -4.48817 0
M  V30 518 C 51.1905 -0.743622 -4.75419 0
M  V30 519 C 53.5425 -1.19409 -5.07337 0
M  V30 520 C 50.8705 -1.81857 -5.57804 0
M  V30 521 C 53.2225 -2.25899 -5.90891 0
M  V30 522 C 51.8865 -2.57572 -6.15803 0
M  V30 523 H 51.1565 0.110619 -0.732697 0
M  V30 524 H 53.8035 -0.425674 -1.86709 0
M  V30 525 H 52.1085 1.50711 -3.61654 0
M  V30 526 H 53.8055 1.1806 -3.83227 0
M  V30 527 H 50.3955 -0.18063 -4.28219 0
M  V30 528 H 54.5795 -0.967295 -4.86782 0
M  V30 529 H 49.8355 -2.06864 -5.75341 0
M  V30 530 H 54.0095 -2.85335 -6.35261 0
M  V30 531 H 51.6365 -3.40998 -6.7943 0
M  V30 532 N 53.2116 1.57565 -0.0334293 0
M  V30 533 C 54.1596 2.1164 0.96496 0
M  V30 534 C 55.1536 1.04398 1.33407 0
M  V30 535 O 56.3596 1.22828 1.3158 0
M  V30 536 H 52.7346 0.676222 0.32898 0
M  V30 537 H 54.7056 2.94455 0.483614 0
M  V30 538 C 53.4546 2.66207 2.23672 0
M  V30 539 H 52.7776 3.48378 1.96145 0
M  V30 540 H 54.2176 3.07685 2.9173 0
M  V30 541 C 52.6766 1.59151 2.96939 0
M  V30 542 O 53.2066 0.993858 3.89211 0
M  V30 543 N 51.4126 1.31093 2.59351 0
M  V30 544 H 50.9596 1.7988 1.84393 0
M  V30 545 H 50.9176 0.596889 3.08682 0
M  V30 546 N 54.6897 -0.239769 1.55765 0
M  V30 547 C 55.9357 -0.968234 1.78194 0
M  V30 548 C 56.2687 -1.84701 0.599938 0
M  V30 549 O 55.5437 -1.9031 -0.401524 0
M  V30 550 C 55.8267 -1.8227 3.10564 0
M  V30 551 C 55.6797 -0.971633 4.3918 0
M  V30 552 C 56.9987 -2.80388 3.39221 0
M  V30 553 H 54.1177 -0.350572 0.648281 0
M  V30 554 H 56.7597 -0.238259 1.885 0
M  V30 555 H 54.9097 -2.44507 3.01908 0
M  V30 556 H 56.5817 -0.367408 4.59835 0
M  V30 557 H 54.8247 -0.276276 4.32919 0
M  V30 558 H 55.4957 -1.60346 5.28198 0
M  V30 559 H 57.9717 -2.28287 3.47885 0
M  V30 560 H 56.8477 -3.3729 4.33044 0
M  V30 561 H 57.1087 -3.57212 2.60484 0
M  V30 562 N 56.1678 -1.49265 -0.50573 0
M  V30 563 C 57.3928 -1.62478 -1.28902 0
M  V30 564 C 57.8178 -0.294332 -1.85783 0
M  V30 565 O 57.1758 0.737412 -1.65626 0
M  V30 566 C 57.2238 -2.69268 -2.39848 0
M  V30 567 O 56.3278 -2.28113 -3.43567 0
M  V30 568 H 55.6688 -0.54399 -0.380751 0
M  V30 569 H 58.1988 -1.95421 -0.605952 0
M  V30 570 H 58.2088 -2.91291 -2.85681 0
M  V30 571 H 56.8838 -3.65846 -1.97812 0
M  V30 572 H 55.4608 -2.16401 -3.03685 0
M  V30 573 N 57.6459 0.756429 -1.3826 0
M  V30 574 C 58.5759 1.88374 -1.37976 0
M  V30 575 C 59.5569 1.68311 -0.246082 0
M  V30 576 O 60.7419 1.88944 -0.44874 0
M  V30 577 C 57.8719 3.25864 -1.20125 0
M  V30 578 C 56.8259 3.60523 -2.30666 0
M  V30 579 C 56.1519 4.9672 -1.97923 0
M  V30 580 C 57.4519 3.65692 -3.72916 0
M  V30 581 H 59.1459 1.88869 -2.32312 0
M  V30 582 H 56.6919 0.907272 -1.11824 0
M  V30 583 H 58.6449 4.0438 -1.18552 0
M  V30 584 H 57.3689 3.25841 -0.222498 0
M  V30 585 H 56.0279 2.84324 -2.3142 0
M  V30 586 H 55.6759 4.93253 -0.985393 0
M  V30 587 H 55.3759 5.20878 -2.71955 0
M  V30 588 H 56.8999 5.77618 -1.97964 0
M  V30 589 H 58.3139 4.34328 -3.74208 0
M  V30 590 H 56.7109 4.01358 -4.4613 0
M  V30 591 H 57.7809 2.65987 -4.05436 0
M  V30 592 N 59.124 1.23083 0.984299 0
M  V30 593 C 60.401 0.9689 1.69917 0
M  V30 594 C 60.781 -0.513604 2.04757 0
M  V30 595 O 60.129 -1.48383 1.73767 0
M  V30 596 C 60.339 1.87518 2.94343 0
M  V30 597 C 61.687 2.13636 3.6694 0
M  V30 598 O 62.711 1.85036 3.04368 0
M  V30 599 O 61.57 2.62119 4.79537 0
M  V30 600 H 58.664 0.365095 0.742048 0
M  V30 601 H 61.21 1.34107 1.03987 0
M  V30 602 H 59.982 2.87756 2.65164 0
M  V30 603 H 59.605 1.50514 3.6801 0
M  V30 604 N 60.6021 -1.18246 1.0419 0
M  V30 605 C 61.8271 -1.92736 0.765996 0
M  V30 606 C 62.2521 -1.75728 -0.67091 0
M  V30 607 O 61.6101 -1.06825 -1.46486 0
M  V30 608 C 61.6581 -3.42148 1.13875 0
M  V30 609 O 60.7621 -4.11548 0.264954 0
M  V30 610 H 60.1031 -0.601238 0.281797 0
M  V30 611 H 62.6331 -1.49942 1.39207 0
M  V30 612 H 62.6431 -3.92858 1.1012 0
M  V30 613 H 61.3181 -3.53848 2.18551 0
M  V30 614 H 59.8951 -3.71137 0.362226 0
M  V30 615 N 62.0802 -0.821533 -1.34494 0
M  V30 616 C 63.3262 -0.409552 -1.98622 0
M  V30 617 C 63.6592 1.0244 -1.64984 0
M  V30 618 O 62.9342 1.71325 -0.920758 0
M  V30 619 C 63.2172 -0.610458 -3.54888 0
M  V30 620 C 63.0702 -2.09043 -3.98273 0
M  V30 621 C 64.3892 -0.0455379 -4.40076 0
M  V30 622 H 61.5082 -0.15028 -0.721516 0
M  V30 623 H 64.1502 -1.03384 -1.59411 0
M  V30 624 H 62.3002 -0.079044 -3.8842 0
M  V30 625 H 63.9722 -2.68537 -3.75081 0
M  V30 626 H 62.2152 -2.58139 -3.48635 0
M  V30 627 H 62.8862 -2.18182 -5.07051 0
M  V30 628 H 65.3622 -0.499557 -4.1309 0
M  V30 629 H 64.2382 -0.215922 -5.48475 0
M  V30 630 H 64.4992 1.04939 -4.29465 0
M  V30 631 N 63.5583 1.46682 -0.576371 0
M  V30 632 C 64.9693 1.86112 -0.148091 0
M  V30 633 C 65.3203 1.48073 1.2872 0
M  V30 634 O 64.4453 0.892656 1.97131 0
M  V30 635 C 65.0403 3.37786 -0.261982 0
M  V30 636 C 63.5993 3.76235 0.111384 0
M  V30 637 C 62.7463 2.70713 -0.60083 0
M  V30 638 H 65.6973 1.37927 -0.78497 0
M  V30 639 H 65.7183 3.77007 0.514364 0
M  V30 640 H 65.2303 3.6544 -1.30671 0
M  V30 641 H 63.3313 3.54198 1.15649 0
M  V30 642 H 63.4443 4.78391 -0.26052 0
M  V30 643 H 61.8083 2.54666 -0.0417783 0
M  V30 644 H 62.5913 3.01208 -1.64708 0
M  V30 645 N 65.0364 0.313813 1.54444 0
M  V30 646 C 65.9464 -0.565714 2.27677 0
M  V30 647 C 66.9624 -1.13754 1.31666 0
M  V30 648 O 68.1384 -1.15959 1.64668 0
M  V30 649 C 65.2034 -1.71528 3.01296 0
M  V30 650 C 64.2644 -1.17624 4.12872 0
M  V30 651 C 63.4974 -2.27102 4.8297 0
M  V30 652 O 63.7204 -3.47256 4.52514 0
M  V30 653 O 62.6544 -1.9307 5.70094 0
M  V30 654 H 66.4804 0.0287296 3.03686 0
M  V30 655 H 64.0654 0.0798312 1.49187 0
M  V30 656 H 65.9474 -2.38476 3.4743 0
M  V30 657 H 64.6224 -2.29608 2.2817 0
M  V30 658 H 63.5294 -0.472124 3.71109 0
M  V30 659 H 64.8624 -0.640695 4.88012 0
M  V30 660 N 66.5145 -1.57545 0.0417849 0
M  V30 661 C 67.4445 -2.14009 -0.933929 0
M  V30 662 C 68.4255 -1.05938 -1.33083 0
M  V30 663 O 69.6105 -1.33833 -1.40721 0
M  V30 664 C 66.7405 -2.67747 -2.21199 0
M  V30 665 C 65.6945 -3.80718 -1.95544 0
M  V30 666 C 65.0205 -4.20935 -3.29724 0
M  V30 667 C 66.3205 -5.06258 -1.28452 0
M  V30 668 H 68.0145 -2.95788 -0.463645 0
M  V30 669 H 65.5605 -1.42285 -0.221573 0
M  V30 670 H 67.5135 -3.05886 -2.89848 0
M  V30 671 H 66.2375 -1.83147 -2.70416 0
M  V30 672 H 64.8965 -3.43037 -1.2931 0
M  V30 673 H 64.5445 -3.33298 -3.76724 0
M  V30 674 H 64.2445 -4.9707 -3.13361 0
M  V30 675 H 65.7685 -4.61666 -3.9962 0
M  V30 676 H 67.1825 -5.41903 -1.8712 0
M  V30 677 H 65.5795 -5.87475 -1.22445 0
M  V30 678 H 66.6495 -4.84207 -0.259219 0
M  V30 679 N 67.9926 0.231505 -1.5589 0
M  V30 680 C 69.4086 0.580748 -1.48659 0
M  V30 681 C 69.6086 1.87617 -0.73498 0
M  V30 682 O 68.6646 2.51046 -0.270586 0
M  V30 683 C 69.9776 0.669202 -2.93159 0
M  V30 684 C 71.5256 0.760499 -3.03621 0
M  V30 685 C 72.0006 0.880383 -4.49459 0
M  V30 686 N 73.4916 0.944861 -4.53461 0
M  V30 687 C 74.2266 1.05716 -5.63571 0
M  V30 688 N 73.7226 1.13403 -6.83456 0
M  V30 689 N 75.5156 1.09152 -5.514 0
M  V30 690 H 67.6666 -0.618695 -2.03189 0
M  V30 691 H 69.9296 -0.215728 -0.923128 0
M  V30 692 H 69.6356 -0.212904 -3.51055 0
M  V30 693 H 69.5096 1.5361 -3.44505 0
M  V30 694 H 71.8966 1.63305 -2.45796 0
M  V30 695 H 71.9776 -0.131864 -2.5546 0
M  V30 696 H 71.6216 0.0123284 -5.07899 0
M  V30 697 H 71.5516 1.78802 -4.95316 0
M  V30 698 H 74.0426 0.896176 -3.6712 0
M  V30 699 H 74.3556 1.21921 -7.63122 0
M  V30 700 H 72.7006 1.10333 -6.86186 0
M  V30 701 H 75.8916 1.02805 -4.56671 0
M  V30 702 H 76.0646 1.17558 -6.37247 0
M  V30 703 N 69.4707 1.49531 0.497807 0
M  V30 704 C 70.7167 1.60388 1.25089 0
M  V30 705 C 71.0717 0.288328 1.90227 0
M  V30 706 O 70.3647 -0.711706 1.77891 0
M  V30 707 C 70.5587 2.70252 2.33878 0
M  V30 708 C 70.3877 4.12363 1.79408 0
M  V30 709 C 69.1577 4.7911 1.60566 0
M  V30 710 C 71.3557 4.97491 1.30412 0
M  V30 711 N 69.3377 6.05525 1.01059 0
M  V30 712 C 70.7087 6.14411 0.830595 0
M  V30 713 C 72.7637 4.83466 1.19015 0
M  V30 714 C 71.4667 7.1885 0.254371 0
M  V30 715 C 73.4927 5.88057 0.627892 0
M  V30 716 C 72.8547 7.04208 0.16461 0
M  V30 717 H 68.9537 0.641246 0.447579 0
M  V30 718 H 71.5377 1.86549 0.557441 0
M  V30 719 H 69.7087 2.45858 3.0068 0
M  V30 720 H 71.4407 2.70613 3.00917 0
M  V30 721 H 68.1957 4.35961 1.85026 0
M  V30 722 H 68.6197 6.73028 0.732236 0
M  V30 723 H 73.2617 3.93978 1.53431 0
M  V30 724 H 70.9797 8.08036 -0.102052 0
M  V30 725 H 74.5657 5.79266 0.542444 0
M  V30 726 H 73.4457 7.83757 -0.263669 0
M  V30 727 N 70.9488 -0.749086 1.3866 0
M  V30 728 C 71.8788 -1.8764 1.38973 0
M  V30 729 C 72.8598 -1.68178 0.255004 0
M  V30 730 O 74.0448 -1.88704 0.458754 0
M  V30 731 C 71.1748 -3.25222 1.21851 0
M  V30 732 C 70.1288 -3.59295 2.32575 0
M  V30 733 C 69.4548 -4.95663 2.00555 0
M  V30 734 C 70.7548 -3.63709 3.7485 0
M  V30 735 H 72.4488 -1.87635 2.3331 0
M  V30 736 H 69.9948 -0.901329 1.12303 0
M  V30 737 H 71.9478 -4.03746 1.20695 0
M  V30 738 H 70.6718 -3.25719 0.239775 0
M  V30 739 H 69.3308 -2.83093 2.32925 0
M  V30 740 H 68.9788 -4.92724 1.01154 0
M  V30 741 H 68.6788 -5.19429 2.74714 0
M  V30 742 H 70.2028 -5.7656 2.01024 0
M  V30 743 H 71.6168 -4.32338 3.76506 0
M  V30 744 H 70.0138 -3.98986 4.48252 0
M  V30 745 H 71.0838 -2.63834 4.06841 0
M  V30 746 N 72.4269 -1.23603 -0.977757 0
M  V30 747 C 73.8379 -1.06424 -1.53398 0
M  V30 748 C 74.1889 0.367578 -1.92726 0
M  V30 749 O 73.3139 1.25465 -1.76316 0
M  V30 750 C 73.9089 -1.92568 -2.78753 0
M  V30 751 C 72.4679 -1.79642 -3.30765 0
M  V30 752 C 71.6149 -1.88111 -2.03739 0
M  V30 753 H 74.5659 -1.37227 -0.797152 0
M  V30 754 H 74.5869 -1.45203 -3.51705 0
M  V30 755 H 74.0989 -2.96771 -2.50098 0
M  V30 756 H 72.1999 -0.782325 -3.64294 0
M  V30 757 H 72.3129 -2.63174 -4.00345 0
M  V30 758 H 70.6769 -1.31723 -2.17994 0
M  V30 759 H 71.4599 -2.93875 -1.77461 0
M  V30 760 N 73.905 1.17692 -1.04816 0
M  V30 761 C 75.151 1.88137 -0.75711 0
M  V30 762 C 75.484 1.80604 0.713841 0
M  V30 763 O 74.759 1.21146 1.52164 0
M  V30 764 C 75.042 3.38318 -1.2334 0
M  V30 765 C 74.895 3.54622 -2.76701 0
M  V30 766 C 76.214 4.32214 -0.829415 0
M  V30 767 H 73.333 0.683163 -0.27651 0
M  V30 768 H 75.975 1.38424 -1.30149 0
M  V30 769 H 74.125 3.80787 -0.770286 0
M  V30 770 H 75.797 3.21194 -3.31107 0
M  V30 771 H 74.04 2.97026 -3.16161 0
M  V30 772 H 74.711 4.60028 -3.05088 0
M  V30 773 H 77.187 3.97565 -1.22805 0
M  V30 774 H 76.063 5.35838 -1.19033 0
M  V30 775 H 76.324 4.41294 0.266891 0
M  V30 776 N 75.3831 0.828654 1.34056 0
M  V30 777 C 76.3131 0.269443 2.3194 0
M  V30 778 C 77.2941 -0.617247 1.58506 0
M  V30 779 O 78.4791 -0.542931 1.86456 0
M  V30 780 C 75.6091 -0.564793 3.42677 0
M  V30 781 C 74.5631 0.225241 4.27407 0
M  V30 782 C 73.8891 -0.7321 5.29664 0
M  V30 783 C 75.1891 1.43663 5.02154 0
M  V30 784 H 76.8831 1.08728 2.7896 0
M  V30 785 H 74.4291 0.524283 1.34117 0
M  V30 786 H 76.3821 -0.966233 4.10173 0
M  V30 787 H 75.1061 -1.41574 2.9432 0
M  V30 788 H 73.7651 0.608117 3.61521 0
M  V30 789 H 73.4131 -1.57916 4.77568 0
M  V30 790 H 73.1131 -0.20767 5.87233 0
M  V30 791 H 74.6371 -1.13128 6.00029 0
M  V30 792 H 76.0511 1.1089 5.62473 0
M  V30 793 H 74.4481 1.89711 5.69324 0
M  V30 794 H 75.5181 2.21181 4.31517 0
M  V30 795 N 76.8612 -1.46375 0.584142 0
M  V30 796 C 78.2772 -1.57694 0.245929 0
M  V30 797 C 78.4772 -1.57903 -1.25175 0
M  V30 798 O 77.5332 -1.49676 -2.03355 0
M  V30 799 C 78.8462 -2.87028 0.896402 0
M  V30 800 C 80.3942 -3.00662 0.870127 0
M  V30 801 C 80.8692 -4.32734 1.50017 0
M  V30 802 N 82.3602 -4.39436 1.46458 0
M  V30 803 C 83.0952 -5.40248 1.92144 0
M  V30 804 N 82.5912 -6.47726 2.4581 0
M  V30 805 N 84.3842 -5.31459 1.83052 0
M  V30 806 H 76.5352 -1.44483 1.55687 0
M  V30 807 H 78.7982 -0.689291 0.650831 0
M  V30 808 H 78.5042 -2.9269 1.95002 0
M  V30 809 H 78.3782 -3.75014 0.405486 0
M  V30 810 H 80.7652 -2.94581 -0.174871 0
M  V30 811 H 80.8462 -2.14148 1.39908 0
M  V30 812 H 80.4902 -4.39573 2.54437 0
M  V30 813 H 80.4202 -5.18025 0.946432 0
M  V30 814 H 82.9112 -3.62367 1.07231 0
M  V30 815 H 83.2242 -7.20863 2.78525 0
M  V30 816 H 81.5692 -6.48542 2.49836 0
M  V30 817 H 84.7602 -4.46396 1.40883 0
M  V30 818 H 84.9332 -6.09881 2.18973 0
M  V30 819 N 78.3393 -0.321999 -1.54275 0
M  V30 820 C 79.2893 0.560185 -2.21011 0
M  V30 821 C 80.2733 1.08283 -1.19011 0
M  V30 822 O 81.4653 1.02011 -1.44647 0
M  V30 823 C 78.5943 1.72137 -2.97025 0
M  V30 824 C 77.6803 1.21369 -4.06363 0
M  V30 825 N 78.0713 0.425566 -5.04007 0
M  V30 826 C 76.3693 1.49255 -4.20284 0
M  V30 827 C 77.0703 0.152601 -5.815 0
M  V30 828 N 76.0463 0.738294 -5.38563 0
M  V30 829 H 79.8483 -0.049265 -2.93859 0
M  V30 830 H 77.3623 -0.127779 -1.61897 0
M  V30 831 H 79.3593 2.36512 -3.43319 0
M  V30 832 H 78.0193 2.33431 -2.25699 0
M  V30 833 H 79.0303 0.068551 -5.17855 0
M  V30 834 H 75.7073 2.11145 -3.60172 0
M  V30 835 H 77.0973 -0.481764 -6.70171 0
M  V30 836 N 79.8174 1.5752 -0.0501392 0
M  V30 837 C 81.0474 1.96678 0.632573 0
M  V30 838 C 81.4554 0.926298 1.64974 0
M  V30 839 O 80.7984 -0.09802 1.83438 0
M  V30 840 C 80.8604 3.32068 1.37735 0
M  V30 841 C 80.5244 4.54076 0.516131 0
M  V30 842 C 81.5214 5.19445 -0.217357 0
M  V30 843 C 79.2064 5.00304 0.44736 0
M  V30 844 C 81.2004 6.29378 -1.00807 0
M  V30 845 C 78.8874 6.10114 -0.347038 0
M  V30 846 C 79.8854 6.74512 -1.07344 0
M  V30 847 O 79.5734 7.82211 -1.85477 0
M  V30 848 H 79.3054 0.652193 0.177821 0
M  V30 849 H 81.8594 2.05091 -0.112543 0
M  V30 850 H 80.0894 3.20206 2.16807 0
M  V30 851 H 81.7784 3.55981 1.95019 0
M  V30 852 H 82.5444 4.84689 -0.173688 0
M  V30 853 H 78.4234 4.49971 1.00235 0
M  V30 854 H 81.9674 6.79575 -1.57556 0
M  V30 855 H 77.8644 6.44307 -0.392349 0
M  V30 856 H 78.6324 7.98982 -1.77678 0
M  V30 857 N 81.2955 -0.223234 1.56011 0
M  V30 858 C 82.5725 -0.972108 1.69733 0
M  V30 859 C 82.9525 -2.02485 0.59691 0
M  V30 860 O 82.3005 -2.25037 -0.396324 0
M  V30 861 C 82.5105 -1.58407 3.10979 0
M  V30 862 C 83.8585 -2.07696 3.70334 0
M  V30 863 O 84.8825 -1.68304 3.1393 0
M  V30 864 O 83.7415 -2.80096 4.69264 0
M  V30 865 H 80.8355 -0.453993 0.691245 0
M  V30 866 H 83.3815 -0.215149 1.68331 0
M  V30 867 H 82.1535 -0.823831 3.82529 0
M  V30 868 H 81.7765 -2.40661 3.16493 0
M  V30 869 N 82.7736 -1.49793 -0.48987 0
M  V30 870 C 83.7036 -1.70201 -1.59856 0
M  V30 871 C 84.6846 -0.55076 -1.60937 0
M  V30 872 O 85.8696 -0.787841 -1.77501 0
M  V30 873 C 82.9996 -1.77882 -2.98287 0
M  V30 874 C 81.9536 -2.92907 -3.12073 0
M  V30 875 C 81.2796 -2.85712 -4.51965 0
M  V30 876 C 82.5796 -4.3369 -2.91051 0
M  V30 877 H 84.2736 -2.63025 -1.43032 0
M  V30 878 H 81.8196 -1.26574 -0.686664 0
M  V30 879 H 83.7726 -1.90744 -3.75759 0
M  V30 880 H 82.4966 -0.816653 -3.16225 0
M  V30 881 H 81.1556 -2.79665 -2.37029 0
M  V30 882 H 80.8036 -1.8738 -4.66795 0
M  V30 883 H 80.5036 -3.62921 -4.62128 0
M  V30 884 H 82.0276 -3.00598 -5.31482 0
M  V30 885 H 83.4416 -4.47555 -3.58284 0
M  V30 886 H 81.8386 -5.12205 -3.12675 0
M  V30 887 H 82.9086 -4.47362 -1.87071 0
M  V30 888 N 84.2517 0.741722 -1.39055 0
M  V30 889 C 85.5287 1.49252 -1.26425 0
M  V30 890 C 85.9087 2.10705 0.129144 0
M  V30 891 O 85.2567 1.98045 1.13976 0
M  V30 892 C 85.4667 2.54934 -2.38347 0
M  V30 893 C 86.8147 3.21506 -2.77343 0
M  V30 894 O 87.8387 2.65245 -2.37747 0
M  V30 895 O 86.6977 4.23294 -3.45665 0
M  V30 896 H 83.7917 0.662451 -0.495064 0
M  V30 897 H 86.3377 0.776121 -1.50912 0
M  V30 898 H 85.1097 2.07857 -3.31529 0
M  V30 899 H 84.7327 3.34141 -2.15489 0
M  V30 900 N 85.7298 1.2412 0.971189 0
M  V30 901 C 86.6598 1.05508 2.08304 0
M  V30 902 C 87.6408 -0.0308864 1.70072 0
M  V30 903 O 88.8258 0.135521 1.93727 0
M  V30 904 C 85.9558 0.655365 3.4106 0
M  V30 905 C 84.9098 1.68971 3.93234 0
M  V30 906 C 84.2358 1.14516 5.22293 0
M  V30 907 C 85.5358 3.08487 4.21465 0
M  V30 908 H 87.2298 1.98507 2.24132 0
M  V30 909 H 84.7758 0.955821 1.07704 0
M  V30 910 H 86.7288 0.51217 4.18276 0
M  V30 911 H 85.4528 -0.31032 3.25122 0
M  V30 912 H 84.1118 1.82106 3.18171 0
M  V30 913 H 83.7598 0.170189 5.02712 0
M  V30 914 H 83.4598 1.83635 5.58168 0
M  V30 915 H 84.9838 1.01401 6.02121 0
M  V30 916 H 86.3978 2.98601 4.89398 0
M  V30 917 H 84.7948 3.74926 4.68562 0
M  V30 918 H 85.8648 3.56787 3.28376 0
M  V30 919 N 87.2079 -1.17134 1.05439 0
M  V30 920 C 88.4539 -1.87733 0.767077 0
M  V30 921 C 88.7869 -1.8098 -0.704253 0
M  V30 922 O 88.0619 -1.21951 -1.5152 0
M  V30 923 C 88.3449 -3.37659 1.25133 0
M  V30 924 C 88.1979 -3.53149 2.78578 0
M  V30 925 C 89.5169 -4.31768 0.852324 0
M  V30 926 H 86.6359 -0.681687 0.280129 0
M  V30 927 H 89.2779 -1.37732 1.30881 0
M  V30 928 H 87.4279 -3.80373 0.790469 0
M  V30 929 H 89.0999 -3.19434 3.32806 0
M  V30 930 H 87.3429 -2.95345 3.17732 0
M  V30 931 H 88.0139 -4.58403 3.07523 0
M  V30 932 H 90.4899 -3.96909 1.24911 0
M  V30 933 H 89.3659 -5.35199 1.21873 0
M  V30 934 H 89.6269 -4.41429 -0.243485 0
M  V30 935 N 88.686 -0.835752 -1.33615 0
M  V30 936 C 90.102 -0.523139 -1.50783 0
M  V30 937 C 90.302 0.950171 -1.77691 0
M  V30 938 O 89.358 1.73411 -1.83534 0
M  V30 939 C 90.671 -1.39378 -2.66448 0
M  V30 940 C 92.219 -1.39223 -2.80332 0
M  V30 941 C 92.694 -2.24765 -3.99055 0
M  V30 942 N 94.185 -2.22458 -4.06284 0
M  V30 943 C 94.92 -2.85386 -4.97336 0
M  V30 944 N 94.416 -3.57354 -5.93523 0
M  V30 945 N 96.209 -2.74872 -4.90308 0
M  V30 946 H 88.36 -1.78952 -1.14411 0
M  V30 947 H 90.623 -0.763297 -0.562212 0
M  V30 948 H 90.329 -2.44061 -2.53234 0
M  V30 949 H 90.203 -1.0676 -3.61776 0
M  V30 950 H 92.59 -0.353136 -2.92979 0
M  V30 951 H 92.671 -1.75846 -1.85773 0
M  V30 952 H 92.315 -3.28732 -3.87167 0
M  V30 953 H 92.245 -1.85485 -4.92852 0
M  V30 954 H 94.736 -1.70119 -3.37443 0
M  V30 955 H 95.049 -4.02584 -6.59656 0
M  V30 956 H 93.394 -3.61461 -5.93608 0
M  V30 957 H 96.585 -2.18213 -4.14126 0
M  V30 958 H 96.758 -3.24199 -5.61069 0
M  V30 959 N 90.1641 1.46063 -0.591896 0
M  V30 960 C 91.1271 2.28854 0.125973 0
M  V30 961 C 92.1271 1.38903 0.810107 0
M  V30 962 O 93.3171 1.61186 0.66066 0
M  V30 963 C 90.4491 3.19526 1.1881 0
M  V30 964 H 91.6421 2.93802 -0.601717 0
M  V30 965 H 89.1951 1.52325 -0.350254 0
M  V30 966 H 89.9301 2.59345 1.94707 0
M  V30 967 H 89.7151 3.85766 0.701936 0
M  V30 968 H 91.2051 3.81817 1.69132 0
M  V30 969 N 91.6422 0.330177 1.54103 0
M  V30 970 C 92.6052 -0.520144 2.2322 0
M  V30 971 C 93.6052 -1.03828 1.22786 0
M  V30 972 O 94.7952 -0.929652 1.4732 0
M  V30 973 C 91.9272 -1.72317 2.94142 0
M  V30 974 H 93.1202 0.0841605 2.99782 0
M  V30 975 H 90.6732 0.0813433 1.56088 0
M  V30 976 H 91.4082 -2.36653 2.21734 0
M  V30 977 H 91.1932 -1.35898 3.67796 0
M  V30 978 H 92.6832 -2.3266 3.46784 0
M  V30 979 N 93.1203 -1.57491 0.0584922 0
M  V30 980 C 94.0533 -2.07533 -0.948969 0
M  V30 981 C 95.0313 -0.977444 -1.29942 0
M  V30 982 O 96.2153 -1.2499 -1.41102 0
M  V30 983 C 93.3423 -2.52192 -2.2609 0
M  V30 984 C 92.3883 -3.73287 -2.06298 0
M  V30 985 S 93.2213 -5.18603 -1.33459 0
M  V30 986 C 94.3773 -5.66583 -2.65959 0
M  V30 987 H 94.6103 -2.92662 -0.523118 0
M  V30 988 H 92.1433 -1.53631 -0.153954 0
M  V30 989 H 94.1013 -2.78585 -3.01498 0
M  V30 990 H 92.7623 -1.67356 -2.65802 0
M  V30 991 H 91.9553 -4.0248 -3.03357 0
M  V30 992 H 91.5573 -3.47199 -1.39029 0
M  V30 993 H 93.8493 -5.72616 -3.62101 0
M  V30 994 H 94.7923 -6.65684 -2.41393 0
M  V30 995 H 95.2003 -4.94342 -2.72554 0
M  V30 996 N 94.5984 0.214957 -1.56127 0
M  V30 997 C 95.5614 1.24997 -1.92116 0
M  V30 998 C 96.5614 1.39467 -0.800344 0
M  V30 999 O 97.7514 1.37619 -1.06802 0
M  V30 1000 C 94.8834 2.62271 -2.17777 0
M  V30 1001 H 96.0764 0.942875 -2.84693 0
M  V30 1002 H 93.6294 0.455654 -1.49511 0
M  V30 1003 H 94.3644 2.98068 -1.27773 0
M  V30 1004 H 94.1494 2.53143 -2.99434 0
M  V30 1005 H 95.6394 3.36946 -2.46693 0
M  V30 1006 N 96.0765 1.50051 0.48192 0
M  V30 1007 C 97.0085 1.64263 1.59844 0
M  V30 1008 C 98.0215 0.52451 1.54119 0
M  V30 1009 O 99.2105 0.797293 1.59704 0
M  V30 1010 C 96.3105 1.60102 2.98698 0
M  V30 1011 C 95.4835 2.87767 3.29407 0
M  V30 1012 C 94.5425 2.76397 4.47762 0
M  V30 1013 O 93.5685 3.50348 4.48603 0
M  V30 1014 N 94.7705 1.89222 5.48794 0
M  V30 1015 H 97.5355 2.60566 1.48073 0
M  V30 1016 H 95.0965 1.47379 0.670149 0
M  V30 1017 H 97.0885 1.50123 3.75826 0
M  V30 1018 H 95.6585 0.715798 3.04294 0
M  V30 1019 H 94.8785 3.11954 2.40994 0
M  V30 1020 H 96.1665 3.72365 3.4673 0
M  V30 1021 H 95.5645 1.28434 5.50928 0
M  V30 1022 H 94.1215 1.85154 6.24949 0
M  V30 1023 N 97.5546 -0.734337 1.39446 0
M  V30 1024 C 98.8006 -1.49613 1.36908 0
M  V30 1025 C 99.1336 -1.94169 -0.0347829 0
M  V30 1026 O 98.4086 -1.66833 -0.999847 0
M  V30 1027 C 98.6916 -2.73534 2.34203 0
M  V30 1028 C 98.5446 -2.34993 3.83534 0
M  V30 1029 C 99.8636 -3.75635 2.29317 0
M  V30 1030 H 96.9826 -0.542714 0.498629 0
M  V30 1031 H 99.6246 -0.839597 1.70443 0
M  V30 1032 H 97.7746 -3.29553 2.05736 0
M  V30 1033 H 99.4466 -1.84601 4.22753 0
M  V30 1034 H 97.6896 -1.67213 4.00278 0
M  V30 1035 H 98.3606 -3.23738 4.47099 0
M  V30 1036 H 100.837 -3.29203 2.54489 0
M  V30 1037 H 99.7126 -4.60008 2.99472 0
M  V30 1038 H 99.9736 -4.22603 1.29842 0
M  V30 1039 N 99.0327 -1.24633 -0.964593 0
M  V30 1040 C 100.282 -1.08188 -1.7023 0
M  V30 1041 C 100.595 0.37873 -1.91898 0
M  V30 1042 O 101.801 0.663427 -2.6327 0
M  V30 1043 C 100.257 -1.88773 -3.06419 0
M  V30 1044 C 99.8647 -3.39263 -2.92582 0
M  V30 1045 C 101.609 -1.80867 -3.84041 0
M  V30 1046 C 99.5157 -4.1218 -4.24101 0
M  V30 1047 H 98.4457 -0.401245 -0.638372 0
M  V30 1048 H 101.097 -1.48742 -1.07462 0
M  V30 1049 H 99.4787 -1.41035 -3.70034 0
M  V30 1050 H 100.653 -3.94603 -2.37961 0
M  V30 1051 H 98.9677 -3.48154 -2.28424 0
M  V30 1052 H 101.565 -2.32646 -4.81435 0
M  V30 1053 H 101.908 -0.774543 -4.09031 0
M  V30 1054 H 102.441 -2.26301 -3.27159 0
M  V30 1055 H 99.1797 -5.15965 -4.04303 0
M  V30 1056 H 98.6997 -3.61626 -4.78526 0
M  V30 1057 H 100.379 -4.19349 -4.92702 0
M  V30 1058 N 100.511 1.16574 -1.06058 0
M  V30 1059 C 101.759 1.86677 -0.77434 0
M  V30 1060 C 102.08 1.81959 0.701147 0
M  V30 1061 O 101.35 1.2515 1.50713 0
M  V30 1062 H 99.9298 0.691134 -0.283449 0
M  V30 1063 H 102.592 1.41378 -1.34158 0
M  V30 1064 H 101.688 2.92181 -1.09711 0
M  V30 1065 N 101.989 0.842826 1.3317 0
M  V30 1066 C 103.266 0.362216 1.92217 0
M  V30 1067 C 103.646 -1.15289 1.76838 0
M  V30 1068 O 102.994 -1.96914 1.15919 0
M  V30 1069 C 103.204 0.813495 3.39387 0
M  V30 1070 C 104.552 0.823804 4.16532 0
M  V30 1071 O 105.576 0.757358 3.48055 0
M  V30 1072 O 104.435 0.915193 5.38782 0
M  V30 1073 H 101.529 0.103317 0.820521 0
M  V30 1074 H 104.075 0.928942 1.42017 0
M  V30 1075 H 102.847 1.85624 3.4447 0
M  V30 1076 H 102.47 0.223561 3.96971 0
M  V30 1077 N 103.467 -1.45747 0.599634 0
M  V30 1078 C 104.883 -1.57424 0.26264 0
M  V30 1079 C 105.083 -1.59222 -1.23493 0
M  V30 1080 O 104.139 -1.51825 -2.01756 0
M  V30 1081 C 105.452 -2.86061 0.926795 0
M  V30 1082 C 107 -2.99722 0.901967 0
M  V30 1083 C 107.475 -4.31119 1.54598 0
M  V30 1084 N 108.966 -4.37858 1.5111 0
M  V30 1085 C 109.701 -5.3818 1.97863 0
M  V30 1086 N 109.197 -6.45083 2.52666 0
M  V30 1087 N 110.99 -5.29487 1.88679 0
M  V30 1088 H 103.141 -1.42823 1.57211 0
M  V30 1089 H 105.404 -0.68235 0.658105 0
M  V30 1090 H 105.11 -2.90605 1.98095 0
M  V30 1091 H 104.984 -3.74563 0.445238 0
M  V30 1092 H 107.371 -2.9475 -0.143617 0
M  V30 1093 H 107.452 -2.12652 1.42171 0
M  V30 1094 H 107.096 -4.36849 2.59085 0
M  V30 1095 H 107.026 -5.16992 1.00132 0
M  V30 1096 H 109.517 -3.61209 1.11068 0
M  V30 1097 H 109.83 -7.17869 2.86155 0
M  V30 1098 H 108.175 -6.45856 2.56701 0
M  V30 1099 H 111.366 -4.44877 1.4561 0
M  V30 1100 H 111.539 -6.07524 2.25429 0
M  V30 1101 N 104.945 -0.338344 -1.53925 0
M  V30 1102 C 106.191 0.260143 -2.01125 0
M  V30 1103 C 106.524 1.50617 -1.22589 0
M  V30 1104 O 105.799 1.91979 -0.312113 0
M  V30 1105 C 106.082 0.579499 -3.55407 0
M  V30 1106 C 105.935 -0.678264 -4.44657 0
M  V30 1107 C 107.254 1.39122 -4.17532 0
M  V30 1108 H 104.373 0.0930772 -0.731099 0
M  V30 1109 H 107.015 -0.457852 -1.84401 0
M  V30 1110 H 105.165 1.19118 -3.69788 0
M  V30 1111 H 106.837 -1.31631 -4.42121 0
M  V30 1112 H 105.08 -1.3042 -4.13731 0
M  V30 1113 H 105.751 -0.410143 -5.50474 0
M  V30 1114 H 108.227 0.874035 -4.06817 0
M  V30 1115 H 107.103 1.58342 -5.25565 0
M  V30 1116 H 107.364 2.39178 -3.71815 0
M  V30 1117 N 106.423 1.57458 -0.0668435 0
M  V30 1118 C 107.834 1.80776 0.466558 0
M  V30 1119 C 108.185 0.980361 1.69951 0
M  V30 1120 O 107.31 0.201441 2.1546 0
M  V30 1121 C 107.905 3.27881 0.85321 0
M  V30 1122 C 106.464 3.52062 1.3315 0
M  V30 1123 C 105.611 2.75513 0.314264 0
M  V30 1124 H 108.562 1.5598 -0.292588 0
M  V30 1125 H 108.583 3.39659 1.715 0
M  V30 1126 H 108.095 3.88075 -0.0443439 0
M  V30 1127 H 106.196 2.97167 2.24772 0
M  V30 1128 H 106.309 4.60762 1.31285 0
M  V30 1129 H 104.673 2.42123 0.790492 0
M  V30 1130 H 105.456 3.38442 -0.575477 0
M  V30 1131 N 107.901 -0.206675 1.56239 0
M  V30 1132 C 108.848 -1.25617 1.93621 0
M  V30 1133 C 109.818 -1.45824 0.795274 0
M  V30 1134 O 111.003 -1.59148 1.05245 0
M  V30 1135 C 108.143 -2.59839 2.27107 0
M  V30 1136 C 107.256 -2.47308 3.54207 0
M  V30 1137 C 106.391 -3.74155 3.7707 0
M  V30 1138 C 105.43 -3.56407 4.97635 0
M  V30 1139 N 104.567 -4.75238 5.1681 0
M  V30 1140 H 109.407 -0.930383 2.83104 0
M  V30 1141 H 106.944 -0.448065 1.4011 0
M  V30 1142 H 108.902 -3.38021 2.44535 0
M  V30 1143 H 107.532 -2.90485 1.40778 0
M  V30 1144 H 106.584 -1.60483 3.4489 0
M  V30 1145 H 107.896 -2.30122 4.42544 0
M  V30 1146 H 107.05 -4.60778 3.94675 0
M  V30 1147 H 105.789 -3.94282 2.87042 0
M  V30 1148 H 104.794 -2.68168 4.79964 0
M  V30 1149 H 106.019 -3.37736 5.89161 0
M  V30 1150 H 103.965 -4.95651 4.29728 0
M  V30 1151 H 103.882 -4.60835 5.99306 0
M  V30 1152 H 105.15 -5.63246 5.38864 0
M  V30 1153 N 109.379 -1.50304 -0.473955 0
M  V30 1154 C 110.625 -1.62358 -1.22521 0
M  V30 1155 C 110.98 -0.318555 -1.89745 0
M  V30 1156 O 110.273 0.683315 -1.79001 0
M  V30 1157 C 110.467 -2.73938 -2.29549 0
M  V30 1158 C 110.296 -4.15165 -1.72825 0
M  V30 1159 C 109.066 -4.81604 -1.52924 0
M  V30 1160 C 111.264 -4.99503 -1.22481 0
M  V30 1161 N 109.246 -6.07056 -0.91413 0
M  V30 1162 C 110.617 -6.15655 -0.732743 0
M  V30 1163 C 112.672 -4.85299 -1.11308 0
M  V30 1164 C 111.375 -7.19164 -0.139976 0
M  V30 1165 C 113.401 -5.88982 -0.534258 0
M  V30 1166 C 112.763 -7.0438 -0.0525562 0
M  V30 1167 H 108.862 -0.648286 -0.437321 0
M  V30 1168 H 111.446 -1.87413 -0.527692 0
M  V30 1169 H 109.617 -2.50611 -2.9673 0
M  V30 1170 H 111.349 -2.75366 -2.96573 0
M  V30 1171 H 108.104 -4.3885 -1.78067 0
M  V30 1172 H 108.528 -6.74108 -0.625071 0
M  V30 1173 H 113.17 -3.96369 -1.47144 0
M  V30 1174 H 110.888 -8.07771 0.230591 0
M  V30 1175 H 114.474 -5.80055 -0.450219 0
M  V30 1176 H 113.354 -7.83238 0.388324 0
M  V30 1177 N 110.857 0.726932 -1.39834 0
M  V30 1178 C 112.103 1.48884 -1.377 0
M  V30 1179 C 112.436 1.94185 0.0244852 0
M  V30 1180 O 111.711 1.67361 0.990986 0
M  V30 1181 C 111.994 2.72288 -2.3565 0
M  V30 1182 C 111.847 2.32956 -3.84775 0
M  V30 1183 C 113.166 3.74414 -2.31306 0
M  V30 1184 H 110.285 0.540062 -0.5015 0
M  V30 1185 H 112.927 0.830547 -1.70886 0
M  V30 1186 H 111.077 3.28457 -2.07481 0
M  V30 1187 H 112.749 1.82356 -4.23726 0
M  V30 1188 H 110.992 1.65088 -4.01159 0
M  V30 1189 H 111.663 3.21362 -4.4881 0
M  V30 1190 H 114.139 3.27849 -2.56231 0
M  V30 1191 H 113.015 4.58414 -3.01907 0
M  V30 1192 H 113.276 4.21909 -1.32081 0
M  V30 1193 N 112.336 1.25143 0.95797 0
M  V30 1194 C 113.286 1.01924 2.0395 0
M  V30 1195 C 114.27 -0.0427175 1.60843 0
M  V30 1196 O 115.462 0.17221 1.7616 0
M  V30 1197 C 112.591 0.636373 3.3735 0
M  V30 1198 C 111.677 1.73492 3.8699 0
M  V30 1199 N 112.068 2.96945 4.0946 0
M  V30 1200 C 110.366 1.61467 4.15746 0
M  V30 1201 C 111.067 3.68228 4.50315 0
M  V30 1202 N 110.043 2.95833 4.56053 0
M  V30 1203 H 113.845 1.95653 2.19311 0
M  V30 1204 H 111.359 1.15413 1.14253 0
M  V30 1205 H 113.356 0.451233 4.14451 0
M  V30 1206 H 112.016 -0.293621 3.2337 0
M  V30 1207 H 113.027 3.33025 3.96629 0
M  V30 1208 H 109.704 0.753394 4.10646 0
M  V30 1209 H 111.094 4.74178 4.76031 0
M  V30 1210 N 113.814 -1.1601 1.06675 0
M  V30 1211 C 115.06 -1.86909 0.786945 0
M  V30 1212 C 115.393 -1.81717 -0.685018 0
M  V30 1213 O 114.668 -1.23551 -1.50218 0
M  V30 1214 C 114.951 -3.36313 1.28707 0
M  V30 1215 C 114.804 -3.50175 2.82308 0
M  V30 1216 C 116.123 -4.3084 0.898071 0
M  V30 1217 H 113.242 -0.678677 0.287343 0
M  V30 1218 H 115.884 -1.36336 1.32334 0
M  V30 1219 H 114.034 -3.79513 0.830768 0
M  V30 1220 H 115.706 -3.15886 3.36175 0
M  V30 1221 H 113.949 -2.91959 3.20847 0
M  V30 1222 H 114.62 -4.55116 3.12368 0
M  V30 1223 H 117.096 -3.95561 1.29114 0
M  V30 1224 H 115.972 -5.33876 1.27543 0
M  V30 1225 H 116.233 -4.41662 -0.196651 0
M  V30 1226 N 115.292 -0.849877 -1.32721 0
M  V30 1227 C 116.222 -0.306308 -2.31482 0
M  V30 1228 C 117.203 0.591952 -1.59468 0
M  V30 1229 O 118.388 0.513199 -1.87296 0
M  V30 1230 C 115.518 0.510204 -3.43532 0
M  V30 1231 C 114.472 -0.293209 -4.26994 0
M  V30 1232 C 113.798 0.647743 -5.30762 0
M  V30 1233 C 115.098 -1.51634 -4.99804 0
M  V30 1234 H 116.792 -1.13153 -2.77195 0
M  V30 1235 H 114.338 -0.545553 -1.33266 0
M  V30 1236 H 116.291 0.900856 -4.11658 0
M  V30 1237 H 115.015 1.36874 -2.96535 0
M  V30 1238 H 113.674 -0.665555 -3.60508 0
M  V30 1239 H 113.322 1.50299 -4.8002 0
M  V30 1240 H 113.022 0.11422 -5.87489 0
M  V30 1241 H 114.546 1.03567 -6.01753 0
M  V30 1242 H 115.96 -1.19824 -5.60638 0
M  V30 1243 H 114.357 -1.98745 -5.66234 0
M  V30 1244 H 115.427 -2.28018 -4.27943 0
M  V30 1245 N 116.77 1.45427 -0.607355 0
M  V30 1246 C 118.019 2.01452 -0.100036 0
M  V30 1247 C 118.332 1.48159 1.27704 0
M  V30 1248 O 119.538 1.96159 1.87707 0
M  V30 1249 C 117.994 3.59672 -0.128158 0
M  V30 1250 C 117.602 4.21962 -1.50507 0
M  V30 1251 C 119.346 4.23262 0.323932 0
M  V30 1252 C 117.253 5.72333 -1.48959 0
M  V30 1253 H 116.183 0.75325 -0.0336299 0
M  V30 1254 H 118.834 1.66901 -0.76265 0
M  V30 1255 H 117.216 3.91411 0.601105 0
M  V30 1256 H 118.39 4.01796 -2.25602 0
M  V30 1257 H 116.705 3.70565 -1.89923 0
M  V30 1258 H 119.302 5.33522 0.354691 0
M  V30 1259 H 119.645 3.93921 1.34656 0
M  V30 1260 H 120.178 3.96239 -0.352056 0
M  V30 1261 H 116.917 6.06373 -2.48981 0
M  V30 1262 H 116.437 5.94691 -0.781214 0
M  V30 1263 H 118.116 6.35525 -1.21313 0
M  V30 1264 N 118.248 0.346503 1.53744 0
M  V30 1265 C 119.496 -0.248612 2.00565 0
M  V30 1266 C 119.817 -1.5083 1.23593 0
M  V30 1267 O 119.087 -1.92858 0.343912 0
M  V30 1268 H 117.667 -0.0948564 0.740953 0
M  V30 1269 H 120.329 0.468341 1.89189 0
M  V30 1270 H 119.425 -0.488994 3.08245 0
M  V30 1271 N 119.726 -1.57421 0.075193 0
M  V30 1272 C 120.673 -2.12915 -0.890843 0
M  V30 1273 C 121.643 -1.04252 -1.29309 0
M  V30 1274 O 122.828 -1.31933 -1.37834 0
M  V30 1275 C 119.968 -2.69795 -2.15186 0
M  V30 1276 C 119.081 -3.92624 -1.80194 0
M  V30 1277 C 118.216 -4.37736 -3.00933 0
M  V30 1278 C 117.255 -5.53205 -2.61974 0
M  V30 1279 N 116.392 -5.9326 -3.75483 0
M  V30 1280 H 121.232 -2.95156 -0.410735 0
M  V30 1281 H 118.769 -1.45854 -0.191086 0
M  V30 1282 H 120.727 -3.00883 -2.89008 0
M  V30 1283 H 119.357 -1.90313 -2.60731 0
M  V30 1284 H 118.409 -3.67977 -0.964218 0
M  V30 1285 H 119.721 -4.76482 -1.47534 0
M  V30 1286 H 118.875 -4.70503 -3.8303 0
M  V30 1287 H 117.614 -3.52739 -3.36789 0
M  V30 1288 H 116.619 -5.20086 -1.783 0
M  V30 1289 H 117.844 -6.39936 -2.27284 0
M  V30 1290 H 115.79 -5.11212 -4.11094 0
M  V30 1291 H 115.707 -6.71865 -3.46602 0
M  V30 1292 H 116.975 -6.30651 -4.58148 0
M  V30 1293 N 121.204 0.198386 -1.56346 0
M  V30 1294 C 122.45 0.920648 -1.80698 0
M  V30 1295 C 122.783 1.83045 -0.648697 0
M  V30 1296 O 122.058 1.91308 0.350925 0
M  V30 1297 C 122.341 1.73971 -3.15287 0
M  V30 1298 C 122.194 0.85485 -4.41602 0
M  V30 1299 C 123.513 2.71296 -3.46535 0
M  V30 1300 H 120.632 0.333261 -0.657348 0
M  V30 1301 H 123.274 0.188198 -1.89066 0
M  V30 1302 H 121.424 2.36416 -3.08285 0
M  V30 1303 H 123.096 0.245362 -4.60647 0
M  V30 1304 H 121.339 0.161398 -4.335 0
M  V30 1305 H 122.01 1.46286 -5.32264 0
M  V30 1306 H 124.486 2.18983 -3.53816 0
M  V30 1307 H 123.362 3.2569 -4.41834 0
M  V30 1308 H 123.623 3.5018 -2.69864 0
M  V30 1309 N 122.682 1.50554 0.465978 0
M  V30 1310 C 123.928 1.62038 1.21949 0
M  V30 1311 C 124.261 0.322116 1.9151 0
M  V30 1312 O 123.536 -0.676723 1.82348 0
M  V30 1313 C 123.819 2.80421 2.25912 0
M  V30 1314 C 123.672 4.20144 1.60622 0
M  V30 1315 C 124.991 2.94354 3.27176 0
M  V30 1316 H 122.11 0.589752 0.441998 0
M  V30 1317 H 124.752 1.82956 0.51257 0
M  V30 1318 H 122.902 2.62717 2.86203 0
M  V30 1319 H 124.574 4.49449 1.03889 0
M  V30 1320 H 122.817 4.24165 0.909211 0
M  V30 1321 H 123.488 4.98914 2.36196 0
M  V30 1322 H 125.964 3.10578 2.76913 0
M  V30 1323 H 124.84 3.788 3.97242 0
M  V30 1324 H 125.101 2.05186 3.916 0
M  V30 1325 N 124.16 -0.719506 1.40217 0
M  V30 1326 C 125.09 -1.8465 1.42922 0
M  V30 1327 C 126.071 -1.67599 0.29062 0
M  V30 1328 O 127.256 -1.87688 0.498677 0
M  V30 1329 C 124.386 -3.22565 1.28722 0
M  V30 1330 C 123.34 -3.54281 2.40144 0
M  V30 1331 C 122.666 -4.91298 2.11023 0
M  V30 1332 C 123.966 -3.55676 3.82481 0
M  V30 1333 H 125.66 -1.82644 2.37237 0
M  V30 1334 H 123.206 -0.877305 1.1419 0
M  V30 1335 H 125.159 -4.01095 1.29232 0
M  V30 1336 H 123.883 -3.25137 0.308811 0
M  V30 1337 H 122.542 -2.78088 2.38877 0
M  V30 1338 H 122.19 -4.90468 1.11582 0
M  V30 1339 H 121.89 -5.13485 2.8567 0
M  V30 1340 H 123.414 -5.72166 2.13209 0
M  V30 1341 H 124.828 -4.24254 3.85592 0
M  V30 1342 H 123.225 -3.89388 4.56614 0
M  V30 1343 H 124.295 -2.55144 4.12346 0
M  V30 1344 N 125.638 -1.25649 -0.95132 0
M  V30 1345 C 126.548 -1.08073 -2.08224 0
M  V30 1346 C 127.564 -0.0169666 -1.73992 0
M  V30 1347 O 128.74 -0.218593 -2.0021 0
M  V30 1348 C 125.805 -0.704922 -3.39458 0
M  V30 1349 C 124.866 -1.84699 -3.87537 0
M  V30 1350 C 124.099 -1.48902 -5.12508 0
M  V30 1351 O 124.322 -0.386156 -5.69091 0
M  V30 1352 O 123.256 -2.32033 -5.55378 0
M  V30 1353 H 127.082 -2.02924 -2.25954 0
M  V30 1354 H 124.667 -1.04618 -1.06656 0
M  V30 1355 H 126.549 -0.507609 -4.18332 0
M  V30 1356 H 125.224 0.214291 -3.2299 0
M  V30 1357 H 124.131 -2.09919 -3.09653 0
M  V30 1358 H 125.464 -2.74557 -4.08509 0
M  V30 1359 N 127.117 1.15442 -1.07289 0
M  V30 1360 C 128.047 2.22312 -0.714107 0
M  V30 1361 C 129.028 1.67467 0.298155 0
M  V30 1362 O 130.213 1.93445 0.171048 0
M  V30 1363 C 127.343 3.47124 -0.110448 0
M  V30 1364 C 126.297 4.14926 -1.04979 0
M  V30 1365 C 125.623 5.33807 -0.308924 0
M  V30 1366 C 126.923 4.64762 -2.38314 0
M  V30 1367 H 128.617 2.5258 -1.6076 0
M  V30 1368 H 126.163 1.21404 -0.77441 0
M  V30 1369 H 128.116 4.21124 0.152482 0
M  V30 1370 H 126.84 3.16187 0.81812 0
M  V30 1371 H 125.499 3.42866 -1.29764 0
M  V30 1372 H 125.147 4.99126 0.623084 0
M  V30 1373 H 124.847 5.80113 -0.935036 0
M  V30 1374 H 126.371 6.10576 -0.0537771 0
M  V30 1375 H 127.785 5.30292 -2.1786 0
M  V30 1376 H 126.182 5.21728 -2.96514 0
M  V30 1377 H 127.252 3.80434 -3.00663 0
M  V30 1378 N 128.595 0.856903 1.32268 0
M  V30 1379 C 129.505 0.306131 2.32594 0
M  V30 1380 C 130.521 -0.577209 1.64147 0
M  V30 1381 O 131.697 -0.477043 1.95669 0
M  V30 1382 C 128.762 -0.494561 3.43154 0
M  V30 1383 C 127.823 0.415186 4.27288 0
M  V30 1384 C 127.056 -0.347387 5.32568 0
M  V30 1385 O 127.279 -1.57708 5.48165 0
M  V30 1386 O 126.213 0.287982 6.01211 0
M  V30 1387 H 130.039 1.13737 2.81598 0
M  V30 1388 H 127.624 0.619902 1.35932 0
M  V30 1389 H 129.506 -0.948944 4.10576 0
M  V30 1390 H 128.181 -1.30257 2.96336 0
M  V30 1391 H 127.088 0.917793 3.62667 0
M  V30 1392 H 128.421 1.18844 4.77637 0
M  V30 1393 N 130.073 -1.45103 0.615059 0
M  V30 1394 C 131.489 -1.57137 0.279322 0
M  V30 1395 C 131.689 -1.60523 -1.21797 0
M  V30 1396 O 130.745 -1.53956 -2.00134 0
M  V30 1397 C 132.058 -2.85062 0.957083 0
M  V30 1398 C 133.606 -2.98749 0.933706 0
M  V30 1399 C 134.081 -4.29455 1.59162 0
M  V30 1400 N 135.572 -4.36231 1.55746 0
M  V30 1401 C 136.307 -5.36051 2.0356 0
M  V30 1402 N 135.803 -6.42367 2.59494 0
M  V30 1403 N 137.596 -5.27456 1.94284 0
M  V30 1404 H 129.747 -1.41148 1.58717 0
M  V30 1405 H 132.01 -0.675331 0.665306 0
M  V30 1406 H 131.716 -2.88488 2.01166 0
M  V30 1407 H 131.59 -3.7407 0.48494 0
M  V30 1408 H 133.977 -2.94886 -0.112347 0
M  V30 1409 H 134.058 -2.11132 1.44419 0
M  V30 1410 H 133.702 -4.34077 2.63704 0
M  V30 1411 H 133.632 -5.15901 1.0561 0
M  V30 1412 H 136.123 -3.60011 1.14893 0
M  V30 1413 H 136.436 -7.14793 2.93752 0
M  V30 1414 H 134.781 -6.43097 2.63537 0
M  V30 1415 H 137.972 -4.43308 1.5032 0
M  V30 1416 H 138.145 -6.05099 2.3186 0
M  V30 1417 N 131.551 -0.354651 -1.53558 0
M  V30 1418 C 132.798 0.238443 -2.01091 0
M  V30 1419 C 133.126 1.49663 -1.24222 0
M  V30 1420 O 132.381 1.93049 -0.321003 0
M  V30 1421 C 132.68 0.587121 -3.52545 0
M  V30 1422 C 132.346 -0.575472 -4.47213 0
M  V30 1423 C 131.008 -0.894497 -4.72813 0
M  V30 1424 C 133.36 -1.35489 -5.03281 0
M  V30 1425 C 130.688 -1.99511 -5.51736 0
M  V30 1426 C 133.04 -2.44583 -5.83405 0
M  V30 1427 C 131.704 -2.77033 -6.07296 0
M  V30 1428 H 130.974 0.0872526 -0.735845 0
M  V30 1429 H 133.621 -0.484859 -1.8526 0
M  V30 1430 H 131.926 1.39129 -3.66265 0
M  V30 1431 H 133.623 1.05809 -3.86789 0
M  V30 1432 H 130.213 -0.316774 -4.27428 0
M  V30 1433 H 134.397 -1.12167 -4.83459 0
M  V30 1434 H 129.653 -2.25063 -5.68469 0
M  V30 1435 H 133.827 -3.05401 -6.25862 0
M  V30 1436 H 131.454 -3.6244 -6.68237 0
M  V30 1437 N 133.029 1.57378 -0.0835403 0
M  V30 1438 C 133.959 2.1641 0.87686 0
M  V30 1439 C 134.94 1.09429 1.30228 0
M  V30 1440 O 136.125 1.37516 1.37124 0
M  V30 1441 C 133.255 2.73517 2.14022 0
M  V30 1442 C 132.209 3.85769 1.85381 0
M  V30 1443 C 131.535 4.29529 3.18448 0
M  V30 1444 C 132.835 5.09486 1.14984 0
M  V30 1445 H 134.529 2.96914 0.385059 0
M  V30 1446 H 132.075 1.42823 0.18377 0
M  V30 1447 H 134.028 3.13463 2.81636 0
M  V30 1448 H 132.752 1.90252 2.65465 0
M  V30 1449 H 131.411 3.46345 1.20169 0
M  V30 1450 H 131.059 3.43169 3.67755 0
M  V30 1451 H 130.759 5.05204 3.00071 0
M  V30 1452 H 132.283 4.72099 3.8724 0
M  V30 1453 H 133.697 5.46674 1.72687 0
M  V30 1454 H 132.094 5.90515 1.06826 0
M  V30 1455 H 133.164 4.84724 0.130749 0
M  V30 1456 N 134.507 -0.190092 1.56449 0
M  V30 1457 C 135.918 -0.754312 1.70784 0
M  V30 1458 C 136.269 -1.83631 0.690951 0
M  V30 1459 O 135.394 -2.15868 -0.151604 0
M  V30 1460 C 135.989 -1.37503 3.09642 0
M  V30 1461 C 134.548 -1.88628 3.25725 0
M  V30 1462 C 133.695 -0.758098 2.66736 0
M  V30 1463 H 136.646 0.0350524 1.58661 0
M  V30 1464 H 136.667 -2.2445 3.0725 0
M  V30 1465 H 136.179 -0.587302 3.83631 0
M  V30 1466 H 134.28 -2.70103 2.56661 0
M  V30 1467 H 134.393 -2.04462 4.3328 0
M  V30 1468 H 132.757 -1.17369 2.26046 0
M  V30 1469 H 133.54 0.0174705 3.43296 0
M  V30 1470 N 135.985 -1.50799 -0.457987 0
M  V30 1471 C 136.917 -1.66786 -1.57211 0
M  V30 1472 C 137.93 -0.548962 -1.53265 0
M  V30 1473 O 139.119 -0.8226 -1.58416 0
M  V30 1474 C 136.219 -1.64834 -2.96113 0
M  V30 1475 C 135.392 -2.92971 -3.24787 0
M  V30 1476 C 134.451 -2.83485 -4.43309 0
M  V30 1477 O 133.477 -3.5744 -4.42973 0
M  V30 1478 N 134.679 -1.97929 -5.45714 0
M  V30 1479 H 137.444 -2.62889 -1.43909 0
M  V30 1480 H 135.005 -1.48427 -0.646617 0
M  V30 1481 H 136.997 -1.56084 -3.7339 0
M  V30 1482 H 135.567 -0.764118 -3.03117 0
M  V30 1483 H 134.787 -3.15749 -2.36 0
M  V30 1484 H 136.075 -3.77834 -3.40762 0
M  V30 1485 H 135.473 -1.37182 -5.48815 0
M  V30 1486 H 134.03 -1.95073 -6.21924 0
M  V30 1487 N 137.463 0.71206 -1.40597 0
M  V30 1488 C 138.874 1.29135 -1.34837 0
M  V30 1489 C 139.225 1.96186 -0.0235395 0
M  V30 1490 O 138.35 1.97768 0.878444 0
M  V30 1491 C 138.945 2.34827 -2.44217 0
M  V30 1492 C 137.504 2.88371 -2.41907 0
M  V30 1493 C 136.651 1.62202 -2.24913 0
M  V30 1494 H 139.602 0.507944 -1.50352 0
M  V30 1495 H 139.623 3.15749 -2.12327 0
M  V30 1496 H 139.135 1.85996 -3.40627 0
M  V30 1497 H 137.236 3.41422 -1.49204 0
M  V30 1498 H 137.349 3.39925 -3.37621 0
M  V30 1499 H 135.713 1.874 -1.72492 0
M  V30 1500 H 136.496 1.15391 -3.23326 0
M  V30 1501 N 138.941 1.26152 0.944643 0
M  V30 1502 C 140.188 1.11492 1.69044 0
M  V30 1503 C 140.516 -0.342366 1.91463 0
M  V30 1504 O 139.771 -1.26812 1.49054 0
M  V30 1505 C 140.07 1.82541 3.07268 0
M  V30 1506 C 139.736 3.32445 3.04616 0
M  V30 1507 C 138.398 3.73337 3.036 0
M  V30 1508 C 140.75 4.28171 2.97185 0
M  V30 1509 C 138.078 5.08348 2.92915 0
M  V30 1510 C 140.43 5.63218 2.88041 0
M  V30 1511 C 139.094 6.03426 2.85366 0
M  V30 1512 H 138.364 0.407977 0.618576 0
M  V30 1513 H 141.011 1.56551 1.10291 0
M  V30 1514 H 139.316 1.29941 3.69625 0
M  V30 1515 H 141.013 1.68642 3.63815 0
M  V30 1516 H 137.603 2.99915 3.06185 0
M  V30 1517 H 141.787 3.97563 2.97081 0
M  V30 1518 H 137.043 5.38667 2.89219 0
M  V30 1519 H 141.217 6.37078 2.81254 0
M  V30 1520 H 138.844 7.07999 2.76842 0
M  V30 1521 N 140.419 -1.14872 1.07899 0
M  V30 1522 C 141.647 -1.89661 0.82683 0
M  V30 1523 C 142.062 -1.78312 -0.620519 0
M  V30 1524 O 141.419 -1.13888 -1.42604 0
M  V30 1525 C 141.47 -3.39817 1.23316 0
M  V30 1526 O 141.191 -3.50845 2.62372 0
M  V30 1527 C 142.692 -4.31615 1.0111 0
M  V30 1528 H 139.912 -0.60092 0.298557 0
M  V30 1529 H 142.456 -1.4551 1.43691 0
M  V30 1530 H 140.611 -3.8161 0.667286 0
M  V30 1531 H 141.025 -4.44076 2.79101 0
M  V30 1532 H 142.499 -5.35367 1.34486 0
M  V30 1533 H 142.976 -4.39169 -0.0522168 0
M  V30 1534 H 143.582 -3.95572 1.56215 0
M  V30 1535 N 141.898 -0.863906 -1.31812 0
M  V30 1536 C 143.146 -0.470904 -1.96537 0
M  V30 1537 C 143.467 0.978771 -1.68657 0
M  V30 1538 O 142.737 1.6853 -0.998717 0
M  V30 1539 H 141.317 -0.171148 -0.72713 0
M  V30 1540 H 143.979 -1.10236 -1.60729 0
M  V30 1541 H 143.075 -0.623616 -3.05806 0
M  V30 1542 N 143.376 1.44774 -0.622745 0
M  V30 1543 C 144.286 2.34433 0.0886031 0
M  V30 1544 C 145.302 1.52131 0.844529 0
M  V30 1545 O 146.478 1.84886 0.798691 0
M  V30 1546 C 143.543 3.29986 1.0635 0
M  V30 1547 C 142.604 4.28195 0.307873 0
M  V30 1548 C 141.837 5.19183 1.23633 0
M  V30 1549 O 142.06 5.13918 2.47476 0
M  V30 1550 O 140.994 5.97515 0.725189 0
M  V30 1551 H 144.82 2.96693 -0.648599 0
M  V30 1552 H 142.405 1.44408 -0.382957 0
M  V30 1553 H 144.287 3.88825 1.6246 0
M  V30 1554 H 142.962 2.70269 1.78146 0
M  V30 1555 H 141.869 3.72927 -0.296064 0
M  V30 1556 H 143.202 4.90808 -0.3699 0
M  V30 1557 N 144.854 0.36279 1.53368 0
M  V30 1558 C 146.103 -0.22888 2.00397 0
M  V30 1559 C 146.416 -1.50096 1.25421 0
M  V30 1560 O 147.622 -2.17106 1.63025 0
M  V30 1561 C 146.078 -0.458417 3.56969 0
M  V30 1562 C 145.686 0.798877 4.4082 0
M  V30 1563 C 147.43 -1.00789 4.12361 0
M  V30 1564 C 145.337 0.539078 5.88938 0
M  V30 1565 H 144.267 -0.089305 0.748693 0
M  V30 1566 H 146.918 0.481099 1.77081 0
M  V30 1567 H 145.3 -1.22959 3.76427 0
M  V30 1568 H 146.474 1.57262 4.33134 0
M  V30 1569 H 144.789 1.27137 3.96516 0
M  V30 1570 H 147.386 -1.21754 5.20653 0
M  V30 1571 H 147.729 -1.9692 3.66781 0
M  V30 1572 H 148.262 -0.296961 3.9669 0
M  V30 1573 H 145.001 1.47064 6.3879 0
M  V30 1574 H 144.521 -0.196222 5.99479 0
M  V30 1575 H 146.2 0.163542 6.46793 0
M  V30 1576 N 146.332 -1.57332 0.0918853 0
M  V30 1577 C 147.748 -1.57389 -0.264766 0
M  V30 1578 C 147.948 -1.10281 -1.68643 0
M  V30 1579 O 147.004 -0.777801 -2.40222 0
M  V30 1580 C 148.317 -3.00648 -0.0561195 0
M  V30 1581 C 149.865 -3.12754 -0.124116 0
M  V30 1582 C 150.34 -4.57965 0.0564972 0
M  V30 1583 N 151.831 -4.632 0.00155611 0
M  V30 1584 C 152.566 -5.73281 0.116598 0
M  V30 1585 N 152.062 -6.92208 0.286294 0
M  V30 1586 N 153.855 -5.6207 0.0580973 0
M  V30 1587 H 146.006 -1.86262 1.02079 0
M  V30 1588 H 148.269 -0.859579 0.399786 0
M  V30 1589 H 147.975 -3.393 0.925669 0
M  V30 1590 H 147.849 -3.68623 -0.799823 0
M  V30 1591 H 150.236 -2.73976 -1.09641 0
M  V30 1592 H 150.317 -2.47377 0.651024 0
M  V30 1593 H 149.961 -4.97436 1.02564 0
M  V30 1594 H 149.891 -5.21399 -0.738297 0
M  V30 1595 H 152.382 -3.77686 -0.127192 0
M  V30 1596 H 152.695 -7.71934 0.365676 0
M  V30 1597 H 151.04 -6.94254 0.32192 0
M  V30 1598 H 154.231 -4.68043 -0.0733204 0
M  V30 1599 H 154.404 -6.47824 0.151203 0
M  V30 1600 N 147.81 0.181792 -1.56548 0
M  V30 1601 C 149.058 0.89832 -1.81038 0
M  V30 1602 C 149.379 1.83232 -0.667164 0
M  V30 1603 O 148.649 1.93372 0.313673 0
M  V30 1604 H 147.229 0.33471 -0.667816 0
M  V30 1605 H 149.891 0.184116 -1.94028 0
M  V30 1606 H 148.987 1.4815 -2.74696 0
M  V30 1607 N 149.288 1.51039 0.449983 0
M  V30 1608 C 150.221 1.66105 1.56474 0
M  V30 1609 C 151.199 0.508776 1.54435 0
M  V30 1610 O 152.383 0.731005 1.73749 0
M  V30 1611 C 149.51 1.66304 2.9506 0
M  V30 1612 C 148.556 2.87346 3.15174 0
M  V30 1613 S 149.389 4.4835 2.92818 0
M  V30 1614 C 150.545 4.51274 4.33708 0
M  V30 1615 H 150.778 2.60397 1.43459 0
M  V30 1616 H 148.311 1.40565 0.638805 0
M  V30 1617 H 150.269 1.67103 3.74949 0
M  V30 1618 H 148.93 0.732108 3.05449 0
M  V30 1619 H 148.123 2.83849 4.16468 0
M  V30 1620 H 147.725 2.84223 2.43091 0
M  V30 1621 H 150.017 4.26136 5.26701 0
M  V30 1622 H 150.96 5.53017 4.42242 0
M  V30 1623 H 151.368 3.80738 4.16772 0
M  V30 1624 N 150.766 -0.704594 1.40972 0
M  V30 1625 C 152.006 -1.47691 1.41304 0
M  V30 1626 C 152.37 -1.91992 0.0178582 0
M  V30 1627 O 153.571 -2.68599 -0.103996 0
M  V30 1628 C 151.842 -2.66254 2.38419 0
M  V30 1629 S 153.401 -3.55516 2.57204 0
M  V30 1630 H 150.219 -0.504808 0.500689 0
M  V30 1631 H 152.821 -0.822962 1.77335 0
M  V30 1632 H 151.525 -2.31897 3.38603 0
M  V30 1633 H 151.056 -3.3655 2.03711 0
M  V30 1634 H 153.071 -4.61115 1.83268 0
M  V30 1635 N 152.244 -1.26651 -0.937939 0
M  V30 1636 C 153.521 -1.0313 -1.66204 0
M  V30 1637 C 153.901 0.437256 -2.06522 0
M  V30 1638 O 153.249 1.41831 -1.79154 0
M  V30 1639 C 153.459 -1.98314 -2.87181 0
M  V30 1640 C 154.807 -2.27107 -3.58758 0
M  V30 1641 O 155.831 -1.96205 -2.97291 0
M  V30 1642 O 154.69 -2.79736 -4.69479 0
M  V30 1643 H 151.784 -0.392384 -0.727986 0
M  V30 1644 H 154.33 -1.37874 -0.989382 0
M  V30 1645 H 153.102 -2.97399 -2.54302 0
M  V30 1646 H 152.725 -1.64068 -3.6217 0
M  V30 1647 N 153.722 1.14298 -1.08507 0
M  V30 1648 C 154.969 1.85359 -0.815373 0
M  V30 1649 C 155.297 1.83001 0.658865 0
M  V30 1650 O 154.552 1.25655 1.50031 0
M  V30 1651 C 154.851 3.33547 -1.28379 0
M  V30 1652 C 154.517 3.56093 -2.76602 0
M  V30 1653 C 153.179 3.61955 -3.17084 0
M  V30 1654 C 155.531 3.64834 -3.72217 0
M  V30 1655 C 152.859 3.74082 -4.51973 0
M  V30 1656 C 155.211 3.78487 -5.06883 0
M  V30 1657 C 153.875 3.82598 -5.46969 0
M  V30 1658 H 153.145 0.678276 -0.298366 0
M  V30 1659 H 155.792 1.35002 -1.35819 0
M  V30 1660 H 154.097 3.86191 -0.660593 0
M  V30 1661 H 155.794 3.86959 -1.05186 0
M  V30 1662 H 152.384 3.52179 -2.4427 0
M  V30 1663 H 156.568 3.59595 -3.42061 0
M  V30 1664 H 151.824 3.75527 -4.82483 0
M  V30 1665 H 155.998 3.84193 -5.80834 0
M  V30 1666 H 153.625 3.91747 -6.51489 0
M  V30 1667 N 155.201 0.870884 1.31352 0
M  V30 1668 C 156.134 0.271983 2.26573 0
M  V30 1669 C 157.112 -0.599385 1.51149 0
M  V30 1670 O 158.296 -0.552605 1.80218 0
M  V30 1671 C 155.423 -0.614801 3.33073 0
M  V30 1672 C 154.469 0.185342 4.26097 0
M  V30 1673 S 155.302 1.56444 5.12138 0
M  V30 1674 C 156.458 0.683807 6.22153 0
M  V30 1675 H 156.691 1.07916 2.77023 0
M  V30 1676 H 154.224 0.669459 1.39132 0
M  V30 1677 H 156.182 -1.12074 3.94905 0
M  V30 1678 H 154.843 -1.39593 2.81376 0
M  V30 1679 H 154.036 -0.490771 5.01605 0
M  V30 1680 H 153.638 0.623415 3.68768 0
M  V30 1681 H 155.93 -0.10521 6.77418 0
M  V30 1682 H 156.873 1.41004 6.93919 0
M  V30 1683 H 157.281 0.250952 5.63942 0
M  V30 1684 N 156.679 -1.44442 0.630414 0
M  V30 1685 C 157.627 -2.32437 -0.0871428 0
M  V30 1686 C 158.621 -1.47304 -0.836525 0
M  V30 1687 O 159.827 -1.63653 -0.749506 0
M  V30 1688 H 156.202 -0.750533 -0.0469495 0
M  V30 1689 H 158.173 -2.90709 0.673096 0
M  V30 1690 C 156.922 -3.31288 -1.05563 0
M  V30 1691 H 156.245 -3.96805 -0.488426 0
M  V30 1692 H 157.685 -3.9554 -1.52721 0
M  V30 1693 C 156.144 -2.6016 -2.14052 0
M  V30 1694 O 156.674 -2.39997 -3.22124 0
M  V30 1695 N 154.88 -2.19911 -1.89967 0
M  V30 1696 H 154.427 -2.36509 -1.02085 0
M  V30 1697 H 154.385 -1.72646 -2.62756 0
M  V30 1698 N 158.157 -0.370918 -1.53173 0
M  V30 1699 C 159.087 0.464847 -2.28826 0
M  V30 1700 C 160.068 1.07936 -1.31468 0
M  V30 1701 O 161.253 1.0956 -1.60344 0
M  V30 1702 C 158.383 1.60196 -3.08147 0
M  V30 1703 C 157.337 1.11443 -4.13237 0
M  V30 1704 C 156.663 2.3422 -4.80672 0
M  V30 1705 C 157.963 0.195384 -5.21934 0
M  V30 1706 H 159.657 -0.166329 -2.98938 0
M  V30 1707 H 157.203 -0.0814359 -1.4377 0
M  V30 1708 H 159.156 2.19332 -3.59822 0
M  V30 1709 H 157.88 2.26045 -2.35735 0
M  V30 1710 H 156.539 0.545727 -3.62515 0
M  V30 1711 H 156.187 2.98537 -4.04827 0
M  V30 1712 H 155.887 2.02269 -5.51689 0
M  V30 1713 H 157.411 2.94032 -5.35143 0
M  V30 1714 H 158.825 0.694375 -5.69079 0
M  V30 1715 H 157.222 -0.0335027 -6.00091 0
M  V30 1716 H 158.292 -0.760961 -4.78892 0
M  V30 1717 N 159.635 1.57281 -0.100228 0
M  V30 1718 C 160.86 1.99302 0.573881 0
M  V30 1719 C 161.285 0.979059 1.60611 0
M  V30 1720 O 160.643 -0.0517803 1.81226 0
M  V30 1721 C 160.691 3.40274 1.19358 0
M  V30 1722 O 159.795 3.41676 2.30935 0
M  V30 1723 H 159.136 0.647944 0.145138 0
M  V30 1724 H 161.666 2.03779 -0.183156 0
M  V30 1725 H 161.676 3.78078 1.53365 0
M  V30 1726 H 160.351 4.13594 0.437385 0
M  V30 1727 H 158.928 3.15672 1.98509 0
M  V30 1728 N 161.113 -0.173488 1.56642 0
M  V30 1729 C 162.043 -1.2171 1.99271 0
M  V30 1730 C 163.024 -1.46289 0.867959 0
M  V30 1731 O 164.209 -1.5766 1.13388 0
M  V30 1732 C 161.339 -2.55651 2.35074 0
M  V30 1733 C 160.293 -2.45645 3.50489 0
M  V30 1734 C 159.619 -3.84056 3.72028 0
M  V30 1735 C 160.919 -1.96302 4.84007 0
M  V30 1736 H 162.613 -0.86275 2.867 0
M  V30 1737 H 160.159 -0.413571 1.37933 0
M  V30 1738 H 162.112 -3.2886 2.63494 0
M  V30 1739 H 160.836 -2.92869 1.44552 0
M  V30 1740 H 159.495 -1.7489 3.22194 0
M  V30 1741 H 159.143 -4.18664 2.788 0
M  V30 1742 H 158.843 -3.7823 4.49684 0
M  V30 1743 H 160.367 -4.58854 4.02846 0
M  V30 1744 H 161.781 -2.59284 5.11317 0
M  V30 1745 H 160.178 -2.01429 5.65284 0
M  V30 1746 H 161.248 -0.917226 4.76146 0
M  V30 1747 N 162.591 -1.51276 -0.441967 0
M  V30 1748 C 163.554 -1.7167 -1.51862 0
M  V30 1749 C 164.554 -0.586793 -1.49711 0
M  V30 1750 O 165.744 -0.854276 -1.51815 0
M  V30 1751 C 162.876 -1.76889 -2.91416 0
M  V30 1752 H 164.069 -2.67754 -1.35084 0
M  V30 1753 H 161.622 -1.41196 -0.670333 0
M  V30 1754 H 162.357 -0.826026 -3.13604 0
M  V30 1755 H 162.142 -2.59001 -2.94382 0
M  V30 1756 H 163.632 -1.94522 -3.69528 0
M  V30 1757 N 164.069 0.697108 -1.41344 0
M  V30 1758 C 165.346 1.45154 -1.31109 0
M  V30 1759 C 165.726 2.11009 0.0620449 0
M  V30 1760 O 165.074 2.01571 1.07618 0
M  V30 1761 C 165.284 2.47223 -2.46337 0
M  V30 1762 C 166.632 3.1252 -2.87431 0
M  V30 1763 O 167.656 2.57547 -2.46065 0
M  V30 1764 O 166.515 4.12083 -3.58957 0
M  V30 1765 H 163.609 0.646365 -0.515889 0
M  V30 1766 H 166.155 0.727716 -1.53305 0
M  V30 1767 H 164.927 1.97204 -3.37974 0
M  V30 1768 H 164.55 3.27116 -2.2601 0
M  V30 1769 N 165.547 1.27147 0.931209 0
M  V30 1770 C 166.787 1.14511 1.69312 0
M  V30 1771 C 167.151 -0.304638 1.89568 0
M  V30 1772 O 168.352 -0.553343 2.63043 0
M  V30 1773 C 166.623 1.90349 3.02493 0
M  V30 1774 S 168.182 1.93884 3.93642 0
M  V30 1775 H 165 0.408858 0.581684 0
M  V30 1776 H 167.602 1.61006 1.10893 0
M  V30 1777 H 166.306 2.94877 2.85439 0
M  V30 1778 H 165.837 1.44333 3.65966 0
M  V30 1779 H 167.852 1.03273 4.85334 0
M  V30 1780 N 167.025 -1.13721 1.09112 0
M  V30 1781 C 167.955 -2.21148 0.749385 0
M  V30 1782 C 168.936 -1.6792 -0.271475 0
M  V30 1783 O 170.121 -1.93693 -0.140251 0
M  V30 1784 C 167.251 -3.46905 0.165659 0
M  V30 1785 C 166.205 -4.13203 1.11567 0
M  V30 1786 C 165.531 -5.33248 0.393809 0
M  V30 1787 C 166.831 -4.60912 2.45678 0
M  V30 1788 H 168.525 -2.4999 1.64758 0
M  V30 1789 H 166.071 -1.20156 0.793626 0
M  V30 1790 H 168.024 -4.21313 -0.085466 0
M  V30 1791 H 166.748 -3.17449 -0.767714 0
M  V30 1792 H 165.407 -3.40758 1.35202 0
M  V30 1793 H 165.055 -5.00054 -0.543599 0
M  V30 1794 H 164.755 -5.78552 1.02721 0
M  V30 1795 H 166.279 -6.10413 0.150908 0
M  V30 1796 H 167.693 -5.26759 2.26269 0
M  V30 1797 H 166.09 -5.16944 3.04776 0
M  V30 1798 H 167.16 -3.75603 3.06677 0
M  V30 1799 N 168.503 -0.877838 -1.30888 0
M  V30 1800 C 169.433 -0.35534 -2.3078 0
M  V30 1801 C 170.414 0.557994 -1.60687 0
M  V30 1802 O 171.599 0.473355 -1.88343 0
M  V30 1803 C 168.729 0.437221 -3.44537 0
M  V30 1804 C 167.683 -0.383715 -4.26276 0
M  V30 1805 C 167.009 0.535014 -5.32017 0
M  V30 1806 C 168.309 -1.62201 -4.96476 0
M  V30 1807 H 170.003 -1.19007 -2.74732 0
M  V30 1808 H 167.549 -0.573698 -1.32078 0
M  V30 1809 H 169.502 0.813334 -4.13477 0
M  V30 1810 H 168.226 1.30553 -2.99372 0
M  V30 1811 H 166.885 -0.741874 -3.59015 0
M  V30 1812 H 166.533 1.40083 -4.831 0
M  V30 1813 H 166.233 -0.0104211 -5.87599 0
M  V30 1814 H 167.757 0.907799 -6.03814 0
M  V30 1815 H 169.171 -1.31689 -5.5797 0
M  V30 1816 H 167.568 -2.10711 -5.61891 0
M  V30 1817 H 168.638 -2.37044 -4.23011 0
M  V30 1818 N 169.982 1.44106 -0.638065 0
M  V30 1819 C 171.228 2.02277 -0.145546 0
M  V30 1820 C 171.561 1.50125 1.23191 0
M  V30 1821 O 170.836 0.688133 1.8192 0
M  V30 1822 C 171.119 3.59829 -0.139791 0
M  V30 1823 C 170.972 4.22247 -1.55008 0
M  V30 1824 C 172.291 4.36873 0.531966 0
M  V30 1825 H 169.41 0.734992 -0.0543632 0
M  V30 1826 H 172.052 1.71592 -0.815863 0
M  V30 1827 H 170.202 3.86102 0.431007 0
M  V30 1828 H 171.874 4.07057 -2.1703 0
M  V30 1829 H 170.117 3.79476 -2.10191 0
M  V30 1830 H 170.788 5.31284 -1.49804 0
M  V30 1831 H 173.264 4.16074 0.0464781 0
M  V30 1832 H 172.14 5.4657 0.505206 0
M  V30 1833 H 172.401 4.11995 1.60352 0
M  V30 1834 N 171.46 0.379036 1.52974 0
M  V30 1835 C 172.408 -0.476033 2.27677 0
M  V30 1836 C 173.402 -1.0719 1.31174 0
M  V30 1837 O 174.608 -1.01355 1.48752 0
M  V30 1838 H 170.983 -0.172255 0.732006 0
M  V30 1839 H 172.954 0.175615 2.97883 0
M  V30 1840 C 171.703 -1.5967 3.0887 0
M  V30 1841 H 171.026 -1.1475 3.82978 0
M  V30 1842 H 172.466 -2.16943 3.64296 0
M  V30 1843 C 170.925 -2.54682 2.20542 0
M  V30 1844 O 171.455 -3.57836 1.82527 0
M  V30 1845 N 169.661 -2.24183 1.84907 0
M  V30 1846 H 169.208 -1.40333 2.1602 0
M  V30 1847 H 169.166 -2.88006 1.26096 0
M  V30 1848 N 172.938 -1.57226 0.108567 0
M  V30 1849 C 173.868 -2.17778 -0.84232 0
M  V30 1850 C 174.849 -1.11487 -1.2847 0
M  V30 1851 O 176.034 -1.39681 -1.34918 0
M  V30 1852 C 173.164 -2.76888 -2.09644 0
M  V30 1853 C 172.118 -3.88669 -1.79221 0
M  V30 1854 C 171.444 -4.34541 -3.11574 0
M  V30 1855 C 172.744 -5.11251 -1.06864 0
M  V30 1856 H 174.438 -2.97489 -0.337774 0
M  V30 1857 H 171.984 -1.43097 -0.161025 0
M  V30 1858 H 173.937 -3.17904 -2.76614 0
M  V30 1859 H 172.661 -1.94451 -2.62405 0
M  V30 1860 H 171.32 -3.48213 -1.14644 0
M  V30 1861 H 170.968 -3.48977 -3.62249 0
M  V30 1862 H 170.668 -5.09914 -2.91996 0
M  V30 1863 H 172.192 -4.782 -3.7968 0
M  V30 1864 H 173.606 -5.49352 -1.63968 0
M  V30 1865 H 172.003 -5.9214 -0.974178 0
M  V30 1866 H 173.073 -4.8487 -0.0536168 0
M  V30 1867 N 174.416 0.165178 -1.56732 0
M  V30 1868 C 175.379 1.18822 -1.95995 0
M  V30 1869 C 176.379 1.3685 -0.84431 0
M  V30 1870 O 177.569 1.34152 -1.11126 0
M  V30 1871 C 174.701 2.5521 -2.26011 0
M  V30 1872 H 175.894 0.851825 -2.87548 0
M  V30 1873 H 173.447 0.407857 -1.50885 0
M  V30 1874 H 174.182 2.93852 -1.37191 0
M  V30 1875 H 173.967 2.43489 -3.07336 0
M  V30 1876 H 175.457 3.28927 -2.57288 0
M  V30 1877 N 175.894 1.51508 0.433938 0
M  V30 1878 C 177.124 1.67914 1.20369 0
M  V30 1879 C 177.532 0.377461 1.85397 0
M  V30 1880 O 176.875 -0.654255 1.71654 0
M  V30 1881 C 176.937 2.74045 2.32679 0
M  V30 1882 C 176.601 4.16543 1.87991 0
M  V30 1883 C 177.598 5.01211 1.38145 0
M  V30 1884 C 175.283 4.6266 1.95579 0
M  V30 1885 C 177.277 6.30056 0.964774 0
M  V30 1886 C 174.964 5.91501 1.53523 0
M  V30 1887 C 175.962 6.75027 1.04055 0
M  V30 1888 O 175.65 8.01459 0.625964 0
M  V30 1889 H 175.382 0.566578 0.368735 0
M  V30 1890 H 177.936 1.98709 0.51999 0
M  V30 1891 H 176.166 2.38572 3.04336 0
M  V30 1892 H 177.855 2.79295 2.94532 0
M  V30 1893 H 178.621 4.66783 1.31675 0
M  V30 1894 H 174.5 3.97767 2.33029 0
M  V30 1895 H 178.044 6.95202 0.57796 0
M  V30 1896 H 173.941 6.25442 1.59665 0
M  V30 1897 H 174.709 8.15043 0.751509 0
M  V30 1898 N 177.372 -0.689602 1.41712 0
M  V30 1899 C 178.282 -1.83314 1.46401 0
M  V30 1900 C 179.298 -1.7036 0.35405 0
M  V30 1901 O 180.474 -1.92171 0.602692 0
M  V30 1902 C 177.539 -3.19344 1.34982 0
M  V30 1903 C 176.6 -3.44363 2.56344 0
M  V30 1904 C 175.833 -4.73904 2.45461 0
M  V30 1905 O 176.056 -5.508 1.48241 0
M  V30 1906 O 174.99 -4.99839 3.35328 0
M  V30 1907 H 178.816 -1.82314 2.42889 0
M  V30 1908 H 176.401 -0.843438 1.23315 0
M  V30 1909 H 178.283 -4.00547 1.3092 0
M  V30 1910 H 176.958 -3.21014 0.41612 0
M  V30 1911 H 175.865 -2.63067 2.65982 0
M  V30 1912 H 177.198 -3.47512 3.48563 0
M  V30 1913 N 178.85 -1.27639 -0.924453 0
M  V30 1914 C 180.075 -1.17101 -1.71179 0
M  V30 1915 C 180.5 0.268134 -1.86179 0
M  V30 1916 O 179.858 1.19415 -1.36418 0
M  V30 1917 C 179.906 -1.86313 -3.08739 0
M  V30 1918 O 179.01 -1.16331 -3.95652 0
M  V30 1919 H 178.351 -0.407091 -0.524569 0
M  V30 1920 H 180.881 -1.68767 -1.15666 0
M  V30 1921 H 180.891 -1.938 -3.59034 0
M  V30 1922 H 179.566 -2.91001 -2.97138 0
M  V30 1923 H 178.143 -1.16935 -3.54091 0
M  V30 1924 N 180.328 1.1314 -1.09713 0
M  V30 1925 C 181.553 1.88862 -0.857081 0
M  V30 1926 C 181.978 1.78729 0.586304 0
M  V30 1927 O 181.336 1.13692 1.41222 0
M  V30 1928 C 181.384 3.36325 -1.30069 0
M  V30 1929 O 180.488 4.09815 -0.461007 0
M  V30 1930 H 179.829 0.587108 -0.310162 0
M  V30 1931 H 182.359 1.43129 -1.46203 0
M  V30 1932 H 182.369 3.87157 -1.28738 0
M  V30 1933 H 181.044 3.43017 -2.35185 0
M  V30 1934 H 179.621 3.68986 -0.538888 0
M  V30 1935 N 181.806 0.884767 1.30421 0
M  V30 1936 C 183.052 0.503851 1.96441 0
M  V30 1937 C 183.385 -0.944518 1.69684 0
M  V30 1938 O 182.66 -1.66737 1.00145 0
M  V30 1939 C 182.943 0.779085 3.51571 0
M  V30 1940 C 182.796 2.27807 3.87846 0
M  V30 1941 C 184.115 0.255452 4.39358 0
M  V30 1942 H 181.234 0.184533 0.713524 0
M  V30 1943 H 183.876 1.10872 1.54297 0
M  V30 1944 H 182.026 0.264274 3.876 0
M  V30 1945 H 183.698 2.86127 3.61841 0
M  V30 1946 H 181.941 2.74479 3.35922 0
M  V30 1947 H 182.612 2.42125 4.96064 0
M  V30 1948 H 185.088 0.696079 4.10236 0
M  V30 1949 H 183.964 0.477361 5.4682 0
M  V30 1950 H 184.225 -0.843293 4.33983 0
M  V30 1951 N 183.284 -1.43765 0.645699 0
M  V30 1952 C 184.531 -2.01898 0.15604 0
M  V30 1953 C 184.859 -1.50887 -1.22733 0
M  V30 1954 O 184.114 -0.689271 -1.8316 0
M  V30 1955 C 184.413 -3.57238 0.107679 0
M  V30 1956 C 184.079 -4.27564 1.43178 0
M  V30 1957 C 182.741 -4.46492 1.7944 0
M  V30 1958 C 185.093 -4.67454 2.30513 0
M  V30 1959 C 182.421 -5.02573 3.02716 0
M  V30 1960 C 184.773 -5.24901 3.53074 0
M  V30 1961 C 183.437 -5.42046 3.89541 0
M  V30 1962 H 182.707 -0.738797 0.057099 0
M  V30 1963 H 185.354 -1.72341 0.834912 0
M  V30 1964 H 183.659 -3.86293 -0.654618 0
M  V30 1965 H 185.356 -3.99965 -0.287938 0
M  V30 1966 H 181.946 -4.13171 1.13963 0
M  V30 1967 H 186.13 -4.5253 2.0379 0
M  V30 1968 H 181.386 -5.14033 3.31028 0
M  V30 1969 H 185.56 -5.54758 4.20971 0
M  V30 1970 H 183.187 -5.85268 4.85145 0
M  V30 1971 N 184.763 -0.387143 -1.52771 0
M  V30 1972 C 186.003 0.195537 -2.03463 0
M  V30 1973 C 186.367 1.44222 -1.26744 0
M  V30 1974 O 187.568 2.10192 -1.67549 0
M  V30 1975 C 185.839 0.459097 -3.54439 0
M  V30 1976 S 187.398 1.01237 -4.26962 0
M  V30 1977 H 184.216 0.0552675 -0.708849 0
M  V30 1978 H 186.818 -0.534992 -1.88037 0
M  V30 1979 H 185.522 -0.455382 -4.07866 0
M  V30 1980 H 185.053 1.21811 -3.74066 0
M  V30 1981 H 187.068 2.29492 -4.39941 0
M  V30 1982 N 186.241 1.57166 -0.116904 0
M  V30 1983 C 187.469 1.99473 0.549383 0
M  V30 1984 C 187.884 0.996541 1.60357 0
M  V30 1985 O 187.241 -0.0108731 1.82497 0
M  V30 1986 C 187.292 3.41788 1.17741 0
M  V30 1987 O 187.013 4.37788 0.165362 0
M  V30 1988 C 188.514 3.99216 1.92722 0
M  V30 1989 H 185.734 0.655009 0.145616 0
M  V30 1990 H 188.278 2.03494 -0.202625 0
M  V30 1991 H 186.433 3.38713 1.88021 0
M  V30 1992 H 186.847 5.20806 0.621403 0
M  V30 1993 H 188.321 5.00882 2.31995 0
M  V30 1994 H 188.798 3.3824 2.80161 0
M  V30 1995 H 189.404 4.0583 1.27209 0
M  V30 1996 N 187.719 -0.156864 1.56817 0
M  V30 1997 C 188.944 -0.890331 1.87318 0
M  V30 1998 C 189.369 -1.74394 0.704855 0
M  V30 1999 O 188.727 -1.77972 -0.345786 0
M  V30 2000 C 188.775 -1.73102 3.16336 0
M  V30 2001 O 187.879 -2.83422 2.99576 0
M  V30 2002 H 187.22 -0.24857 0.615718 0
M  V30 2003 H 189.75 -0.150649 2.04045 0
M  V30 2004 H 189.76 -2.12803 3.48107 0
M  V30 2005 H 188.435 -1.10412 4.00976 0
M  V30 2006 H 187.012 -2.47199 2.7919 0
M  V30 2007 N 189.197 -1.51736 -0.425897 0
M  V30 2008 C 190.446 -1.64201 -1.17136 0
M  V30 2009 C 190.759 -0.369705 -1.92074 0
M  V30 2010 O 191.965 -0.373898 -2.68913 0
M  V30 2011 C 190.421 -2.90035 -2.13091 0
M  V30 2012 C 190.029 -4.24312 -1.43747 0
M  V30 2013 C 191.773 -3.1186 -2.87999 0
M  V30 2014 C 189.68 -5.41285 -2.38253 0
M  V30 2015 H 188.61 -0.611624 -0.440944 0
M  V30 2016 H 191.261 -1.78212 -0.437328 0
M  V30 2017 H 189.643 -2.69684 -2.89977 0
M  V30 2018 H 190.817 -4.55086 -0.723408 0
M  V30 2019 H 189.132 -4.08456 -0.809465 0
M  V30 2020 H 191.729 -3.96427 -3.58817 0
M  V30 2021 H 192.072 -2.25403 -3.49999 0
M  V30 2022 H 192.605 -3.32605 -2.18217 0
M  V30 2023 H 189.344 -6.30037 -1.80925 0
M  V30 2024 H 188.864 -5.14872 -3.0768 0
M  V30 2025 H 190.543 -5.73694 -2.99139 0
M  V30 2026 N 190.675 0.682077 -1.42076 0
M  V30 2027 C 191.921 1.44428 -1.42367 0
M  V30 2028 C 192.254 1.94164 -0.0373056 0
M  V30 2029 O 191.529 1.70429 0.937239 0
M  V30 2030 C 191.812 2.64654 -2.44194 0
M  V30 2031 C 191.665 2.20596 -3.91991 0
M  V30 2032 C 192.984 3.66865 -2.431 0
M  V30 2033 H 190.103 0.523834 -0.518428 0
M  V30 2034 H 192.745 0.77576 -1.73442 0
M  V30 2035 H 190.895 3.2169 -2.17826 0
M  V30 2036 H 192.567 1.68783 -4.29313 0
M  V30 2037 H 190.81 1.52242 -4.06208 0
M  V30 2038 H 191.481 3.06921 -4.58807 0
M  V30 2039 H 193.957 3.19531 -2.66532 0
M  V30 2040 H 192.833 4.48577 -3.16339 0
M  V30 2041 H 193.094 4.17493 -1.45437 0
M  V30 2042 N 192.153 1.28127 0.917671 0
M  V30 2043 C 193.116 1.11744 2.00115 0
M  V30 2044 C 194.116 0.0583052 1.60694 0
M  V30 2045 O 195.306 0.303755 1.71531 0
M  V30 2046 C 192.438 0.704862 3.33533 0
M  V30 2047 H 193.631 2.07966 2.16079 0
M  V30 2048 H 191.184 1.11058 1.09981 0
M  V30 2049 H 191.919 -0.258299 3.2327 0
M  V30 2050 H 191.704 1.4699 3.63505 0
M  V30 2051 H 193.194 0.612768 4.1308 0
M  V30 2052 N 193.631 -1.12557 1.10312 0
M  V30 2053 C 194.563 -2.17971 0.708625 0
M  V30 2054 C 195.576 -1.60806 -0.254027 0
M  V30 2055 O 196.765 -1.78458 -0.0386891 0
M  V30 2056 C 193.865 -3.38891 0.0248198 0
M  V30 2057 C 193.038 -4.25548 1.01132 0
M  V30 2058 C 192.097 -5.24972 0.35924 0
M  V30 2059 O 191.123 -5.60174 1.00965 0
M  V30 2060 N 192.325 -5.73747 -0.882847 0
M  V30 2061 H 195.09 -2.52427 1.61557 0
M  V30 2062 H 192.651 -1.27967 0.991771 0
M  V30 2063 H 194.643 -4.02485 -0.422852 0
M  V30 2064 H 193.213 -3.02596 -0.784514 0
M  V30 2065 H 192.433 -3.58589 1.6373 0
M  V30 2066 H 193.721 -4.80294 1.67914 0
M  V30 2067 H 193.119 -5.4731 -1.43065 0
M  V30 2068 H 191.676 -6.39234 -1.27369 0
M  V30 2069 N 195.109 -0.891671 -1.2995 0
M  V30 2070 C 196.386 -0.433307 -1.9074 0
M  V30 2071 C 196.766 1.08646 -1.80995 0
M  V30 2072 O 196.114 1.92476 -1.23147 0
M  V30 2073 C 196.324 -0.938895 -3.36134 0
M  V30 2074 C 197.672 -0.977829 -4.13187 0
M  V30 2075 O 198.696 -0.886015 -3.45005 0
M  V30 2076 O 197.555 -1.11453 -5.35015 0
M  V30 2077 H 194.649 -0.133699 -0.816121 0
M  V30 2078 H 197.195 -0.981011 -1.38471 0
M  V30 2079 H 195.967 -1.98281 -3.37343 0
M  V30 2080 H 195.59 -0.37074 -3.95868 0
M  V30 2081 N 196.587 1.43421 -0.653314 0
M  V30 2082 C 197.812 2.06678 -0.172846 0
M  V30 2083 C 198.237 1.48648 1.15262 0
M  V30 2084 O 197.595 0.596457 1.71208 0
M  V30 2085 C 197.643 3.60474 -0.0953184 0
M  V30 2086 O 196.747 4.01487 0.942442 0
M  V30 2087 H 196.088 0.657181 -0.0949155 0
M  V30 2088 H 198.618 1.83925 -0.896265 0
M  V30 2089 H 198.628 4.07905 0.0879728 0
M  V30 2090 H 197.303 4.02088 -1.06291 0
M  V30 2091 H 195.88 3.65646 0.731932 0
M  V30 2092 N 198.065 0.39524 1.52563 0
M  V30 2093 C 199.481 0.0454682 1.59535 0
M  V30 2094 C 199.681 -1.44056 1.4089 0
M  V30 2095 O 198.737 -2.20579 1.22888 0
M  V30 2096 C 200.05 0.527963 2.96029 0
M  V30 2097 C 201.598 0.484733 3.09224 0
M  V30 2098 C 202.073 0.943512 4.48176 0
M  V30 2099 N 203.564 0.899765 4.54377 0
M  V30 2100 C 204.299 1.22609 5.60138 0
M  V30 2101 N 203.795 1.62319 6.73516 0
M  V30 2102 N 205.588 1.14696 5.50274 0
M  V30 2103 H 197.739 1.36261 1.62931 0
M  V30 2104 H 200.002 0.558887 0.765735 0
M  V30 2105 H 199.708 1.56607 3.14908 0
M  V30 2106 H 199.582 -0.0698056 3.77135 0
M  V30 2107 H 201.969 -0.544298 2.90037 0
M  V30 2108 H 202.05 1.11838 2.30056 0
M  V30 2109 H 201.694 1.9708 4.68104 0
M  V30 2110 H 201.624 0.286817 5.25818 0
M  V30 2111 H 204.115 0.607632 3.72983 0
M  V30 2112 H 204.428 1.85567 7.5019 0
M  V30 2113 H 202.773 1.66211 6.74833 0
M  V30 2114 H 205.964 0.835701 4.6058 0
M  V30 2115 H 206.137 1.40459 6.32594 0
M  V30 2116 N 199.544 -1.57102 0.125237 0
M  V30 2117 C 200.792 -1.95021 -0.530198 0
M  V30 2118 C 201.113 -1.00982 -1.66816 0
M  V30 2119 O 200.383 -0.0672693 -1.95784 0
M  V30 2120 H 198.963 -0.720046 -0.198853 0
M  V30 2121 H 201.625 -1.93916 0.19564 0
M  V30 2122 H 200.721 -2.98211 -0.920681 0
M  V30 2123 N 201.022 0.148545 -1.56898 0
M  V30 2124 C 201.972 1.1886 -1.94567 0
M  V30 2125 C 202.956 1.3863 -0.816735 0
M  V30 2126 O 204.148 1.40218 -1.08018 0
M  V30 2127 C 201.277 2.52262 -2.32849 0
M  V30 2128 C 200.363 2.36092 -3.52309 0
M  V30 2129 N 200.754 1.89674 -4.6889 0
M  V30 2130 C 199.052 2.66848 -3.57363 0
M  V30 2131 C 199.753 1.86511 -5.50989 0
M  V30 2132 N 198.729 2.29766 -4.92655 0
M  V30 2133 H 202.531 0.821793 -2.82177 0
M  V30 2134 H 200.045 0.356615 -1.58436 0
M  V30 2135 H 202.042 3.27447 -2.58039 0
M  V30 2136 H 200.702 2.89727 -1.46589 0
M  V30 2137 H 201.713 1.59663 -4.92674 0
M  V30 2138 H 198.39 3.08198 -2.81639 0
M  V30 2139 H 199.78 1.52128 -6.54452 0
M  V30 2140 N 202.5 1.5196 0.417844 0
M  V30 2141 C 203.749 1.6482 1.16264 0
M  V30 2142 C 204.062 0.379886 1.91876 0
M  V30 2143 O 205.268 0.388154 2.68711 0
M  V30 2144 C 203.724 2.91161 2.1155 0
M  V30 2145 C 203.332 4.25068 1.41495 0
M  V30 2146 C 205.076 3.13383 2.86341 0
M  V30 2147 C 202.983 5.42541 2.35379 0
M  V30 2148 H 201.913 0.613954 0.437694 0
M  V30 2149 H 204.564 1.78442 0.427871 0
M  V30 2150 H 202.946 2.71218 2.88543 0
M  V30 2151 H 204.12 4.55463 0.699263 0
M  V30 2152 H 202.435 4.0888 0.787792 0
M  V30 2153 H 205.032 3.98324 3.5671 0
M  V30 2154 H 205.375 2.27256 3.48798 0
M  V30 2155 H 205.908 3.33757 2.1645 0
M  V30 2156 H 202.647 6.30987 1.77582 0
M  V30 2157 H 202.167 5.16497 3.04945 0
M  V30 2158 H 203.846 5.75272 2.96093 0
M  V30 2159 N 203.978 -0.674533 1.42435 0
M  V30 2160 C 205.208 -1.46071 1.46105 0
M  V30 2161 C 205.616 -1.89067 0.0709605 0
M  V30 2162 O 204.959 -1.58731 -0.924677 0
M  V30 2163 C 205.021 -2.74145 2.32561 0
M  V30 2164 C 204.685 -2.53224 3.8043 0
M  V30 2165 C 205.682 -2.17809 4.72075 0
M  V30 2166 C 203.367 -2.6821 4.24698 0
M  V30 2167 C 205.361 -1.97648 6.05982 0
M  V30 2168 C 203.048 -2.47665 5.58664 0
M  V30 2169 C 204.046 -2.12437 6.49122 0
M  V30 2170 O 203.734 -1.9209 7.80613 0
M  V30 2171 H 203.466 -0.455959 0.499076 0
M  V30 2172 H 206.02 -0.836193 1.87609 0
M  V30 2173 H 204.25 -3.3908 1.85908 0
M  V30 2174 H 205.939 -3.36028 2.27683 0
M  V30 2175 H 206.705 -2.05826 4.39159 0
M  V30 2176 H 202.584 -2.94609 3.54579 0
M  V30 2177 H 206.128 -1.70075 6.7655 0
M  V30 2178 H 202.025 -2.59244 5.91154 0
M  V30 2179 H 202.793 -2.06686 7.91974 0
M  V30 2180 N 205.456 -1.28612 -0.910864 0
M  V30 2181 C 206.406 -1.09423 -2.00026 0
M  V30 2182 C 207.39 -0.0170079 -1.60891 0
M  V30 2183 O 208.582 -0.237472 -1.754 0
M  V30 2184 C 205.711 -0.76114 -3.34756 0
M  V30 2185 C 204.797 -1.87735 -3.80285 0
M  V30 2186 N 205.188 -3.11938 -3.98156 0
M  V30 2187 C 203.486 -1.76786 -4.09467 0
M  V30 2188 C 204.187 -3.84687 -4.36338 0
M  V30 2189 N 203.163 -3.12555 -4.44759 0
M  V30 2190 H 206.965 -2.03658 -2.11898 0
M  V30 2191 H 204.479 -1.19573 -1.09891 0
M  V30 2192 H 206.476 -0.604743 -4.12491 0
M  V30 2193 H 205.136 0.173403 -3.24237 0
M  V30 2194 H 206.147 -3.47516 -3.83996 0
M  V30 2195 H 202.824 -0.905284 -4.07567 0
M  V30 2196 H 204.214 -4.91518 -4.58104 0
M  V30 2197 N 206.934 1.1197 -1.10907 0
M  V30 2198 C 208.182 1.83225 -0.852819 0
M  V30 2199 C 208.503 1.84769 0.623341 0
M  V30 2200 O 207.773 1.3143 1.45269 0
M  V30 2201 H 206.353 0.67849 -0.312507 0
M  V30 2202 H 209.015 1.3556 -1.40033 0
M  V30 2203 H 208.111 2.87265 -1.22005 0
M  V30 2204 N 208.412 0.89855 1.29475 0
M  V30 2205 C 209.828 0.594483 1.48115 0
M  V30 2206 C 210.028 -0.86431 1.82022 0
M  V30 2207 O 209.084 -1.64457 1.91599 0
M  V30 2208 C 210.397 1.51932 2.59494 0
M  V30 2209 C 211.945 1.5244 2.7337 0
M  V30 2210 C 212.42 2.43548 3.87877 0
M  V30 2211 N 213.911 2.41589 3.95208 0
M  V30 2212 C 214.646 3.08789 4.83153 0
M  V30 2213 N 214.142 3.85265 5.75798 0
M  V30 2214 N 215.935 2.97952 4.76635 0
M  V30 2215 H 208.086 1.84207 1.05742 0
M  V30 2216 H 210.349 0.789251 0.525154 0
M  V30 2217 H 210.055 2.55865 2.41301 0
M  V30 2218 H 209.929 1.23899 3.56271 0
M  V30 2219 H 212.316 0.492518 2.90961 0
M  V30 2220 H 212.397 1.8451 1.77172 0
M  V30 2221 H 212.041 3.46829 3.71041 0
M  V30 2222 H 211.971 2.08788 4.83441 0
M  V30 2223 H 214.462 1.86025 3.28943 0
M  V30 2224 H 214.775 4.33598 6.39697 0
M  V30 2225 H 213.12 3.89371 5.75687 0
M  V30 2226 H 216.311 2.37723 4.03244 0
M  V30 2227 H 216.484 3.50599 5.44962 0
M  V30 2228 N 209.89 -1.43072 0.660911 0
M  V30 2229 C 210.838 -2.32569 -0.0378199 0
M  V30 2230 C 211.832 -1.49046 -0.805092 0
M  V30 2231 O 213.038 -1.65206 -0.714624 0
M  V30 2232 H 209.413 -0.75136 -0.031019 0
M  V30 2233 H 211.384 -2.89216 0.734609 0
M  V30 2234 C 210.133 -3.33453 -0.985124 0
M  V30 2235 H 209.456 -3.97752 -0.404147 0
M  V30 2236 H 210.896 -3.98691 -1.44297 0
M  V30 2237 C 209.355 -2.64642 -2.08486 0
M  V30 2238 O 209.885 -2.46776 -3.16961 0
M  V30 2239 N 208.091 -2.23891 -1.8526 0
M  V30 2240 H 207.638 -2.38621 -0.970449 0
M  V30 2241 H 207.596 -1.78181 -2.59034 0
M  V30 2242 N 211.368 -0.403325 -1.52352 0
M  V30 2243 C 212.298 0.416205 -2.29761 0
M  V30 2244 C 213.279 1.05123 -1.33728 0
M  V30 2245 O 214.464 1.06134 -1.62632 0
M  V30 2246 C 211.594 1.53624 -3.11475 0
M  V30 2247 C 210.548 1.02653 -4.15507 0
M  V30 2248 C 209.874 2.23971 -4.85532 0
M  V30 2249 C 211.174 0.08463 -5.22231 0
M  V30 2250 H 212.868 -0.229701 -2.98518 0
M  V30 2251 H 210.414 -0.111913 -1.43564 0
M  V30 2252 H 212.367 2.1165 -3.64393 0
M  V30 2253 H 211.091 2.20994 -2.40477 0
M  V30 2254 H 209.75 0.46871 -3.63591 0
M  V30 2255 H 209.398 2.89883 -4.11068 0
M  V30 2256 H 209.098 1.90521 -5.55856 0
M  V30 2257 H 210.622 2.82614 -5.41259 0
M  V30 2258 H 212.036 0.573509 -5.70424 0
M  V30 2259 H 210.433 -0.160783 -5.99885 0
M  V30 2260 H 211.503 -0.86237 -4.7717 0
M  V30 2261 N 212.846 1.57033 -0.133567 0
M  V30 2262 C 214.123 1.87256 0.56522 0
M  V30 2263 C 214.503 1.03726 1.83859 0
M  V30 2264 O 213.851 0.120247 2.28183 0
M  V30 2265 C 214.061 3.3865 0.843636 0
M  V30 2266 C 215.409 4.07574 1.19032 0
M  V30 2267 O 216.433 3.43752 0.933429 0
M  V30 2268 O 215.292 5.20259 1.67312 0
M  V30 2269 H 212.386 0.775678 0.286796 0
M  V30 2270 H 214.932 1.68855 -0.169168 0
M  V30 2271 H 213.704 3.91257 -0.0581149 0
M  V30 2272 H 213.327 3.62532 1.63268 0
M  V30 2273 N 214.325 -0.140222 1.56975 0
M  V30 2274 C 215.555 -0.865181 1.87612 0
M  V30 2275 C 215.963 -1.74942 0.72055 0
M  V30 2276 O 215.306 -1.80917 -0.318561 0
M  V30 2277 C 215.368 -1.76782 3.13031 0
M  V30 2278 C 215.032 -1.06005 4.44536 0
M  V30 2279 C 216.029 -0.410768 5.18275 0
M  V30 2280 C 213.714 -1.04754 4.91255 0
M  V30 2281 C 215.708 0.241572 6.36942 0
M  V30 2282 C 213.395 -0.391394 6.09845 0
M  V30 2283 C 214.393 0.252029 6.82535 0
M  V30 2284 O 214.081 0.897757 7.98871 0
M  V30 2285 H 213.813 -0.255188 0.625983 0
M  V30 2286 H 216.367 -0.135653 2.04952 0
M  V30 2287 H 214.597 -2.53846 2.91718 0
M  V30 2288 H 216.286 -2.36533 3.29859 0
M  V30 2289 H 217.052 -0.412195 4.83245 0
M  V30 2290 H 212.931 -1.53777 4.34596 0
M  V30 2291 H 216.475 0.744375 6.93617 0
M  V30 2292 H 212.372 -0.387656 6.44335 0
M  V30 2293 H 213.14 0.800102 8.1458 0
M  V30 2294 N 215.803 -1.52179 -0.40978 0
M  V30 2295 C 217.214 -1.58377 -0.988615 0
M  V30 2296 C 217.565 -0.423879 -1.91566 0
M  V30 2297 O 216.69 0.455844 -2.11544 0
M  V30 2298 C 217.285 -2.87044 -1.79976 0
M  V30 2299 C 215.844 -2.95722 -2.32863 0
M  V30 2300 C 214.991 -2.53309 -1.12828 0
M  V30 2301 H 217.942 -1.57558 -0.190039 0
M  V30 2302 H 217.963 -2.7236 -2.65707 0
M  V30 2303 H 217.475 -3.71444 -1.12478 0
M  V30 2304 H 215.576 -2.15814 -3.03735 0
M  V30 2305 H 215.689 -3.99951 -2.63773 0
M  V30 2306 H 214.053 -2.07142 -1.48204 0
M  V30 2307 H 214.836 -3.40082 -0.46897 0
M  V30 2308 N 217.281 0.66697 -1.42791 0
M  V30 2309 C 218.528 1.42699 -1.43678 0
M  V30 2310 C 218.856 1.94419 -0.0560425 0
M  V30 2311 O 218.111 1.7182 0.936831 0
M  V30 2312 C 218.41 2.6349 -2.4147 0
M  V30 2313 C 218.076 2.30267 -3.8767 0
M  V30 2314 C 216.738 2.20918 -4.27491 0
M  V30 2315 C 219.09 2.03435 -4.79858 0
M  V30 2316 C 216.418 1.82873 -5.57471 0
M  V30 2317 C 218.77 1.66892 -6.10188 0
M  V30 2318 C 217.434 1.56058 -6.49001 0
M  V30 2319 H 216.704 0.522171 -0.525755 0
M  V30 2320 H 219.351 0.759785 -1.75783 0
M  V30 2321 H 217.656 3.35279 -2.0272 0
M  V30 2322 H 219.353 3.21684 -2.39417 0
M  V30 2323 H 215.943 2.38449 -3.56146 0
M  V30 2324 H 220.127 2.09586 -4.49875 0
M  V30 2325 H 215.383 1.7306 -5.86396 0
M  V30 2326 H 219.557 1.45157 -6.81104 0
M  V30 2327 H 217.184 1.26348 -7.49627 0
M  V30 2328 N 218.759 1.29093 0.90403 0
M  V30 2329 C 220.007 1.16583 1.65085 0
M  V30 2330 C 220.328 -0.283933 1.92922 0
M  V30 2331 O 219.598 -1.19509 1.55224 0
M  V30 2332 H 218.178 0.428467 0.611903 0
M  V30 2333 H 220.84 1.61959 1.08422 0
M  V30 2334 H 219.936 1.71266 2.6091 0
M  V30 2335 N 220.237 -1.11381 1.11499 0
M  V30 2336 C 221.185 -2.19522 0.768956 0
M  V30 2337 C 222.179 -1.67693 -0.239857 0
M  V30 2338 O 223.385 -1.79727 -0.0990755 0
M  V30 2339 H 219.76 -0.715711 0.230786 0
M  V30 2340 H 221.731 -2.45954 1.68964 0
M  V30 2341 C 220.48 -3.46945 0.229073 0
M  V30 2342 H 219.803 -3.8718 0.996596 0
M  V30 2343 H 221.243 -4.23993 0.0251441 0
M  V30 2344 C 219.702 -3.2042 -1.04079 0
M  V30 2345 O 220.232 -3.41178 -2.12038 0
M  V30 2346 N 218.438 -2.74151 -0.963823 0
M  V30 2347 H 217.985 -2.57459 -0.0851722 0
M  V30 2348 H 217.943 -2.56781 -1.81414 0
M  V30 2349 N 221.715 -0.905404 -1.28997 0
M  V30 2350 C 222.961 -0.535039 -1.95615 0
M  V30 2351 C 223.294 0.917404 -1.71165 0
M  V30 2352 O 222.569 1.65123 -1.02785 0
M  V30 2353 C 222.852 -0.834918 -3.50287 0
M  V30 2354 C 222.705 -2.33948 -3.84172 0
M  V30 2355 C 224.024 -0.325318 -4.38896 0
M  V30 2356 H 221.143 -0.195861 -0.710498 0
M  V30 2357 H 223.785 -1.13313 -1.52513 0
M  V30 2358 H 221.935 -0.325904 -3.87131 0
M  V30 2359 H 223.607 -2.91847 -3.57243 0
M  V30 2360 H 221.85 -2.79789 -3.31513 0
M  V30 2361 H 222.521 -2.49987 -4.92149 0
M  V30 2362 H 224.997 -0.761256 -4.09077 0
M  V30 2363 H 223.873 -0.564295 -5.45992 0
M  V30 2364 H 224.134 0.774144 -4.35269 0
M  V30 2365 N 223.193 1.4272 -0.668489 0
M  V30 2366 C 224.123 2.335 -0.000100175 0
M  V30 2367 C 225.104 1.50328 0.795964 0
M  V30 2368 O 226.289 1.78949 0.754385 0
M  V30 2369 C 223.419 3.33874 0.956302 0
M  V30 2370 C 222.373 4.27152 0.269278 0
M  V30 2371 C 221.699 5.17684 1.33818 0
M  V30 2372 C 222.999 5.15373 -0.847805 0
M  V30 2373 H 224.693 2.89639 -0.758244 0
M  V30 2374 H 222.239 1.39269 -0.366079 0
M  V30 2375 H 224.192 3.9629 1.43292 0
M  V30 2376 H 222.916 2.76025 1.74579 0
M  V30 2377 H 221.575 3.66123 -0.187042 0
M  V30 2378 H 221.223 4.56165 2.1195 0
M  V30 2379 H 220.923 5.80918 0.883659 0
M  V30 2380 H 222.447 5.82974 1.81586 0
M  V30 2381 H 223.861 5.7151 -0.452681 0
M  V30 2382 H 222.258 5.87407 -1.22773 0
M  V30 2383 H 223.328 4.5415 -1.69929 0
M  V30 2384 N 224.671 0.411399 1.52136 0
M  V30 2385 C 226.087 0.0623865 1.59478 0
M  V30 2386 C 226.287 -1.42554 1.4241 0
M  V30 2387 O 225.343 -2.19263 1.2522 0
M  V30 2388 C 226.656 0.559331 2.95452 0
M  V30 2389 C 228.204 0.517503 3.08692 0
M  V30 2390 C 228.679 0.990994 4.4715 0
M  V30 2391 N 230.17 0.947908 4.53397 0
M  V30 2392 C 230.905 1.28544 5.58806 0
M  V30 2393 N 230.401 1.69454 6.71757 0
M  V30 2394 N 232.194 1.20526 5.49026 0
M  V30 2395 H 224.345 1.37982 1.61477 0
M  V30 2396 H 226.608 0.566977 0.759764 0
M  V30 2397 H 226.314 1.59938 3.1323 0
M  V30 2398 H 226.188 -0.0298014 3.77188 0
M  V30 2399 H 228.575 -0.513505 2.90598 0
M  V30 2400 H 228.656 1.14272 2.28857 0
M  V30 2401 H 228.3 2.02034 4.65988 0
M  V30 2402 H 228.23 0.34257 5.25485 0
M  V30 2403 H 230.721 0.647157 3.72317 0
M  V30 2404 H 231.034 1.93513 7.48179 0
M  V30 2405 H 229.379 1.73359 6.73032 0
M  V30 2406 H 232.57 0.884505 4.59667 0
M  V30 2407 H 232.743 1.47161 6.31069 0
M  V30 2408 N 226.149 -1.5696 0.141893 0
M  V30 2409 C 227.096 -2.16501 -0.799737 0
M  V30 2410 C 228.066 -1.09643 -1.24771 0
M  V30 2411 O 229.251 -1.3766 -1.32115 0
M  V30 2412 C 226.391 -2.78679 -2.03549 0
M  V30 2413 C 225.504 -3.99914 -1.6338 0
M  V30 2414 C 224.639 -4.50106 -2.82096 0
M  V30 2415 C 223.678 -5.63819 -2.38275 0
M  V30 2416 N 222.815 -6.08651 -3.49983 0
M  V30 2417 H 227.655 -2.96632 -0.285179 0
M  V30 2418 H 225.192 -1.46533 -0.129053 0
M  V30 2419 H 227.15 -3.1287 -2.75986 0
M  V30 2420 H 225.78 -2.012 -2.52425 0
M  V30 2421 H 224.832 -3.71735 -0.807279 0
M  V30 2422 H 226.144 -4.82311 -1.27192 0
M  V30 2423 H 225.298 -4.86325 -3.62729 0
M  V30 2424 H 224.037 -3.66706 -3.21525 0
M  V30 2425 H 223.042 -5.2718 -1.56081 0
M  V30 2426 H 224.267 -6.49 -1.99938 0
M  V30 2427 H 222.213 -5.28188 -3.89042 0
M  V30 2428 H 222.13 -6.85961 -3.17794 0
M  V30 2429 H 223.398 -6.49515 -4.30988 0
M  V30 2430 N 227.627 0.131896 -1.57047 0
M  V30 2431 C 228.557 1.16384 -2.02428 0
M  V30 2432 C 229.538 1.43936 -0.90644 0
M  V30 2433 O 230.723 1.54599 -1.17528 0
M  V30 2434 C 227.853 2.49328 -2.4177 0
M  V30 2435 C 226.807 2.36266 -3.56879 0
M  V30 2436 C 226.133 3.74057 -3.8208 0
M  V30 2437 C 227.433 1.834 -4.89042 0
M  V30 2438 H 229.127 0.786433 -2.88887 0
M  V30 2439 H 226.673 0.376855 -1.38981 0
M  V30 2440 H 228.626 3.21759 -2.7212 0
M  V30 2441 H 227.35 2.88934 -1.52266 0
M  V30 2442 H 226.009 1.66286 -3.26718 0
M  V30 2443 H 225.657 4.11125 -2.89803 0
M  V30 2444 H 225.357 3.66174 -4.59554 0
M  V30 2445 H 226.881 4.48012 -4.1487 0
M  V30 2446 H 228.295 2.45636 -5.18011 0
M  V30 2447 H 226.692 1.8637 -5.70426 0
M  V30 2448 H 227.762 0.790662 -4.7841 0
M  V30 2449 N 229.106 1.52395 0.401703 0
M  V30 2450 C 230.334 1.70676 1.16949 0
M  V30 2451 C 230.749 0.419503 1.8408 0
M  V30 2452 O 230.106 -0.605061 1.72178 0
M  V30 2453 C 230.157 2.84753 2.22706 0
M  V30 2454 O 229.878 4.08495 1.58314 0
M  V30 2455 C 231.379 3.14608 3.12309 0
M  V30 2456 H 228.599 0.571787 0.351142 0
M  V30 2457 H 231.143 1.98987 0.471652 0
M  V30 2458 H 229.298 2.58941 2.88147 0
M  V30 2459 H 229.712 4.72117 2.28485 0
M  V30 2460 H 231.186 3.97923 3.82572 0
M  V30 2461 H 231.663 2.28464 3.75101 0
M  V30 2462 H 232.269 3.42212 2.52529 0
M  V30 2463 N 230.584 -0.659388 1.43143 0
M  V30 2464 C 231.83 -1.42145 1.44647 0
M  V30 2465 C 232.163 -1.9408 0.0681907 0
M  V30 2466 O 231.438 -1.71899 -0.910007 0
M  V30 2467 C 231.721 -2.60735 2.48373 0
M  V30 2468 C 231.574 -2.14332 3.95451 0
M  V30 2469 C 232.893 -3.62951 2.48906 0
M  V30 2470 H 230.012 -0.51552 0.526696 0
M  V30 2471 H 232.654 -0.748069 1.74654 0
M  V30 2472 H 230.804 -3.18184 2.22916 0
M  V30 2473 H 232.476 -1.61932 4.31944 0
M  V30 2474 H 230.719 -1.4576 4.08578 0
M  V30 2475 H 231.39 -2.99583 4.63631 0
M  V30 2476 H 233.866 -3.1525 2.71582 0
M  V30 2477 H 232.742 -4.43487 3.23435 0
M  V30 2478 H 233.003 -4.15126 1.52061 0
M  V30 2479 N 232.062 -1.29571 -0.897171 0
M  V30 2480 C 233.339 -1.08365 -1.62839 0
M  V30 2481 C 233.719 0.371331 -2.07808 0
M  V30 2482 O 233.067 1.3606 -1.83576 0
M  V30 2483 C 233.277 -2.0735 -2.80726 0
M  V30 2484 C 234.625 -2.38406 -3.51351 0
M  V30 2485 O 235.649 -2.05564 -2.90898 0
M  V30 2486 O 234.508 -2.9453 -4.60341 0
M  V30 2487 H 231.602 -0.415345 -0.715134 0
M  V30 2488 H 234.148 -1.40952 -0.945018 0
M  V30 2489 H 232.92 -3.05339 -2.44711 0
M  V30 2490 H 232.543 -1.75507 -3.56767 0
M  V30 2491 N 233.54 1.10788 -1.12088 0
M  V30 2492 C 234.786 1.82942 -0.875226 0
M  V30 2493 C 235.119 1.84779 0.597538 0
M  V30 2494 O 234.394 1.30578 1.44152 0
M  V30 2495 C 234.677 3.29789 -1.44606 0
M  V30 2496 C 234.53 3.36307 -2.98693 0
M  V30 2497 C 235.849 4.26064 -1.10261 0
M  V30 2498 H 232.968 0.664195 -0.319397 0
M  V30 2499 H 235.61 1.29867 -1.38689 0
M  V30 2500 H 233.76 3.75118 -1.01089 0
M  V30 2501 H 235.432 2.99487 -3.50864 0
M  V30 2502 H 233.675 2.76318 -3.34411 0
M  V30 2503 H 234.346 4.39694 -3.33726 0
M  V30 2504 H 236.822 3.88951 -1.4784 0
M  V30 2505 H 235.698 5.27183 -1.52869 0
M  V30 2506 H 235.959 4.42098 -0.0142953 0
M  V30 2507 N 235.018 0.912232 1.28515 0
M  V30 2508 C 235.95 0.35676 2.26406 0
M  V30 2509 C 236.963 -0.503933 1.54804 0
M  V30 2510 O 238.152 -0.319059 1.75625 0
M  V30 2511 C 235.252 -0.508825 3.35058 0
M  V30 2512 C 234.425 0.329007 4.36161 0
M  V30 2513 C 233.484 -0.471422 5.24084 0
M  V30 2514 O 232.51 0.115482 5.69083 0
M  V30 2515 N 233.712 -1.77479 5.52704 0
M  V30 2516 H 236.477 1.19818 2.74707 0
M  V30 2517 H 234.038 0.778022 1.4198 0
M  V30 2518 H 236.03 -1.051 3.90815 0
M  V30 2519 H 234.6 -1.25095 2.86478 0
M  V30 2520 H 233.82 1.05256 3.79888 0
M  V30 2521 H 235.108 0.90234 5.00735 0
M  V30 2522 H 234.506 -2.27417 5.17975 0
M  V30 2523 H 233.063 -2.26382 6.11224 0
M  V30 2524 N 236.496 -1.42363 0.676048 0
M  V30 2525 C 237.743 -2.01522 0.19883 0
M  V30 2526 C 238.071 -1.53456 -1.19505 0
M  V30 2527 O 237.326 -0.727967 -1.81657 0
M  V30 2528 C 237.625 -3.56929 0.183431 0
M  V30 2529 C 237.291 -4.24431 1.52215 0
M  V30 2530 C 235.953 -4.42585 1.8887 0
M  V30 2531 C 238.305 -4.62459 2.40377 0
M  V30 2532 C 235.633 -4.96039 3.13309 0
M  V30 2533 C 237.985 -5.17294 3.64129 0
M  V30 2534 C 236.649 -5.33661 4.00951 0
M  V30 2535 H 235.919 -0.737419 0.0727571 0
M  V30 2536 H 238.566 -1.70531 0.871281 0
M  V30 2537 H 236.871 -3.87594 -0.572532 0
M  V30 2538 H 238.568 -4.00486 -0.203035 0
M  V30 2539 H 235.158 -4.10661 1.22701 0
M  V30 2540 H 239.342 -4.48105 2.13343 0
M  V30 2541 H 234.598 -5.06896 3.41857 0
M  V30 2542 H 238.772 -5.45704 4.32644 0
M  V30 2543 H 236.399 -5.74845 4.9745 0
M  V30 2544 N 237.974 -0.419461 -1.51915 0
M  V30 2545 C 238.904 0.391813 -2.30189 0
M  V30 2546 C 239.885 1.03699 -1.34836 0
M  V30 2547 O 241.07 1.04403 -1.63748 0
M  V30 2548 C 238.2 1.50312 -3.13087 0
M  V30 2549 C 237.154 0.9824 -4.16573 0
M  V30 2550 C 236.48 2.18809 -4.8788 0
M  V30 2551 C 237.78 0.0292356 -5.22292 0
M  V30 2552 H 239.474 -0.26135 -2.98257 0
M  V30 2553 H 237.02 -0.127134 -1.43438 0
M  V30 2554 H 238.973 2.07773 -3.66617 0
M  V30 2555 H 237.697 2.18431 -2.42807 0
M  V30 2556 H 236.356 0.430119 -3.64068 0
M  V30 2557 H 236.004 2.85507 -4.14119 0
M  V30 2558 H 235.704 1.84615 -5.57845 0
M  V30 2559 H 237.228 2.76858 -5.44226 0
M  V30 2560 H 238.642 0.512976 -5.71 0
M  V30 2561 H 237.039 -0.2244 -5.9968 0
M  V30 2562 H 238.109 -0.912931 -4.76228 0
M  V30 2563 N 239.452 1.56882 -0.150215 0
M  V30 2564 C 240.399 2.16922 0.788244 0
M  V30 2565 C 241.369 1.10303 1.24187 0
M  V30 2566 O 242.554 1.38359 1.31383 0
M  V30 2567 C 239.694 2.79754 2.02068 0
M  V30 2568 C 238.807 4.00775 1.61257 0
M  V30 2569 C 237.942 4.51595 2.79705 0
M  V30 2570 C 236.981 5.65074 2.35282 0
M  V30 2571 N 236.118 6.10499 3.4675 0
M  V30 2572 H 240.958 2.96779 0.269444 0
M  V30 2573 H 238.495 1.46599 0.12128 0
M  V30 2574 H 240.453 3.14329 2.74323 0
M  V30 2575 H 239.083 2.02536 2.51354 0
M  V30 2576 H 238.135 3.72158 0.787553 0
M  V30 2577 H 239.447 4.82978 1.24633 0
M  V30 2578 H 238.601 4.88242 3.60145 0
M  V30 2579 H 237.34 3.68406 3.19576 0
M  V30 2580 H 236.345 5.28 1.53283 0
M  V30 2581 H 237.57 6.50052 1.96493 0
M  V30 2582 H 235.516 5.30243 3.86236 0
M  V30 2583 H 235.433 6.87637 3.14152 0
M  V30 2584 H 236.701 6.51791 4.27537 0
M  V30 2585 N 240.93 -0.123565 1.57115 0
M  V30 2586 C 241.878 -1.17082 2.00984 0
M  V30 2587 C 242.872 -1.43136 0.906009 0
M  V30 2588 O 244.078 -1.43152 1.09121 0
M  V30 2589 H 240.453 -0.394653 0.64012 0
M  V30 2590 H 242.424 -0.774292 2.88179 0
M  V30 2591 C 241.173 -2.49057 2.42623 0
M  V30 2592 H 240.496 -2.29846 3.27125 0
M  V30 2593 H 241.936 -3.20906 2.7712 0
M  V30 2594 C 240.395 -3.11305 1.28805 0
M  V30 2595 O 240.925 -3.97171 0.60153 0
M  V30 2596 N 239.131 -2.71111 1.04628 0
M  V30 2597 H 238.678 -2.01382 1.60634 0
M  V30 2598 H 238.636 -3.1309 0.286685 0
M  V30 2599 N 242.408 -1.52605 -0.393616 0
M  V30 2600 C 243.656 -1.67093 -1.13685 0
M  V30 2601 C 243.977 -0.411011 -1.90619 0
M  V30 2602 O 243.247 0.574491 -1.87287 0
M  V30 2603 H 241.827 -0.615923 -0.422668 0
M  V30 2604 H 244.489 -1.89704 -0.447039 0
M  V30 2605 H 243.585 -2.51922 -1.84232 0
M  V30 2606 N 243.887 0.651787 -1.4349 0
M  V30 2607 C 244.819 1.77725 -1.44729 0
M  V30 2608 C 245.832 1.59141 -0.343231 0
M  V30 2609 O 247.021 1.67835 -0.607751 0
M  V30 2610 C 244.121 3.15172 -1.24579 0
M  V30 2611 C 243.294 3.60402 -2.47849 0
M  V30 2612 C 242.353 4.76656 -2.22902 0
M  V30 2613 O 241.379 4.86022 -2.96263 0
M  V30 2614 N 242.581 5.66958 -1.24656 0
M  V30 2615 H 245.346 1.77141 -2.41746 0
M  V30 2616 H 242.907 0.835678 -1.38665 0
M  V30 2617 H 244.899 3.90634 -1.0577 0
M  V30 2618 H 243.469 3.1052 -0.360015 0
M  V30 2619 H 242.689 2.75369 -2.82073 0
M  V30 2620 H 243.977 3.87368 -3.29884 0
M  V30 2621 H 243.375 5.62065 -0.640265 0
M  V30 2622 H 241.932 6.42135 -1.1183 0
M  V30 2623 N 245.365 1.30045 0.890287 0
M  V30 2624 C 246.614 1.17929 1.63633 0
M  V30 2625 C 246.927 -0.266204 1.9378 0
M  V30 2626 O 248.133 -0.508804 2.6669 0
M  V30 2627 C 246.589 2.06317 2.94892 0
M  V30 2628 C 246.197 3.55745 2.72305 0
M  V30 2629 C 247.941 2.0295 3.72843 0
M  V30 2630 C 245.848 4.36205 3.99348 0
M  V30 2631 H 244.778 0.437782 0.613892 0
M  V30 2632 H 247.429 1.54754 0.986075 0
M  V30 2633 H 245.811 1.6237 3.61182 0
M  V30 2634 H 246.985 4.07805 2.1455 0
M  V30 2635 H 245.3 3.6088 2.07737 0
M  V30 2636 H 247.897 2.60319 4.67053 0
M  V30 2637 H 248.24 1.0117 4.0382 0
M  V30 2638 H 248.773 2.4499 3.13408 0
M  V30 2639 H 245.512 5.38659 3.73533 0
M  V30 2640 H 245.032 3.8891 4.56628 0
M  V30 2641 H 246.711 4.47362 4.67415 0
M  V30 2642 N 246.843 -1.10192 1.12674 0
M  V30 2643 C 247.806 -2.14786 0.799979 0
M  V30 2644 C 248.806 -1.59711 -0.18685 0
M  V30 2645 O 249.996 -1.74156 0.0392558 0
M  V30 2646 C 247.128 -3.40374 0.189228 0
M  V30 2647 H 248.321 -2.45203 1.72671 0
M  V30 2648 H 245.874 -1.25597 0.930326 0
M  V30 2649 H 246.609 -3.15577 -0.747107 0
M  V30 2650 H 246.394 -3.81637 0.899766 0
M  V30 2651 H 247.884 -4.17594 -0.0228143 0
M  V30 2652 N 248.321 -0.919034 -1.28029 0
M  V30 2653 C 249.568 -0.554934 -1.94748 0
M  V30 2654 C 249.896 0.90231 -1.72304 0
M  V30 2655 O 249.151 1.65767 -1.04018 0
M  V30 2656 C 249.45 -0.816855 -3.4794 0
M  V30 2657 C 249.116 -2.25448 -3.90492 0
M  V30 2658 C 247.778 -2.64752 -4.01821 0
M  V30 2659 C 250.13 -3.18977 -4.12193 0
M  V30 2660 C 247.458 -3.96727 -4.32232 0
M  V30 2661 C 249.81 -4.50523 -4.44086 0
M  V30 2662 C 248.474 -4.89673 -4.53626 0
M  V30 2663 H 247.744 -0.203065 -0.712633 0
M  V30 2664 H 250.391 -1.16136 -1.52265 0
M  V30 2665 H 248.696 -0.127677 -3.91592 0
M  V30 2666 H 250.393 -0.514238 -3.97689 0
M  V30 2667 H 246.983 -1.93952 -3.82205 0
M  V30 2668 H 251.167 -2.89817 -4.02889 0
M  V30 2669 H 246.423 -4.26754 -4.37825 0
M  V30 2670 H 250.597 -5.23005 -4.59825 0
M  V30 2671 H 248.224 -5.91969 -4.76946 0
M  V30 2672 N 249.799 1.42003 -0.683588 0
M  V30 2673 C 251.027 2.05746 -0.218182 0
M  V30 2674 C 251.442 1.51396 1.12804 0
M  V30 2675 O 250.799 0.657303 1.70252 0
M  V30 2676 C 250.85 3.61171 -0.154131 0
M  V30 2677 O 250.571 4.13508 -1.44716 0
M  V30 2678 C 252.072 4.42042 0.333713 0
M  V30 2679 H 249.292 0.662888 -0.10402 0
M  V30 2680 H 251.836 1.81987 -0.9328 0
M  V30 2681 H 249.991 3.84012 0.511231 0
M  V30 2682 H 250.405 5.07453 -1.32632 0
M  V30 2683 H 251.879 5.51028 0.327423 0
M  V30 2684 H 252.356 4.17269 1.37053 0
M  V30 2685 H 252.962 4.24239 -0.300222 0
M  V30 2686 N 251.277 0.427512 1.51691 0
M  V30 2687 C 252.525 -0.141948 2.01601 0
M  V30 2688 C 252.846 -1.44067 1.31414 0
M  V30 2689 O 252.116 -1.90763 0.445658 0
M  V30 2690 H 250.696 -0.0554468 0.744939 0
M  V30 2691 H 253.358 0.567968 1.86441 0
M  V30 2692 H 252.454 -0.324913 3.10404 0
M  V30 2693 N 252.755 -1.56801 0.158532 0
M  V30 2694 C 253.983 -2.00859 -0.496303 0
M  V30 2695 C 254.398 -1.03871 -1.57659 0
M  V30 2696 O 253.755 -0.0375165 -1.82461 0
M  V30 2697 C 253.806 -3.4479 -1.08638 0
M  V30 2698 O 253.527 -4.38072 -0.0492322 0
M  V30 2699 C 255.028 -4.04185 -1.8207 0
M  V30 2700 H 252.248 -0.65864 -0.128199 0
M  V30 2701 H 254.792 -2.02885 0.256506 0
M  V30 2702 H 252.947 -3.43579 -1.78975 0
M  V30 2703 H 253.361 -5.2227 -0.483102 0
M  V30 2704 H 254.835 -5.06857 -2.18633 0
M  V30 2705 H 255.312 -3.45549 -2.71095 0
M  V30 2706 H 255.918 -4.0906 -1.16405 0
M  V30 2707 N 254.233 0.115231 -1.57178 0
M  V30 2708 C 255.461 0.836437 -1.89239 0
M  V30 2709 C 255.876 1.73256 -0.750175 0
M  V30 2710 O 255.233 1.80357 0.278832 0
M  V30 2711 C 255.284 1.66671 -3.20785 0
M  V30 2712 O 255.005 0.806652 -4.3061 0
M  V30 2713 C 256.506 2.49274 -3.66575 0
M  V30 2714 H 253.726 0.240253 -0.626514 0
M  V30 2715 H 256.27 0.0984932 -2.04263 0
M  V30 2716 H 254.425 2.35737 -3.0742 0
M  V30 2717 H 254.839 1.37969 -5.06028 0
M  V30 2718 H 256.313 3.03055 -4.6137 0
M  V30 2719 H 256.79 3.26807 -2.93417 0
M  V30 2720 H 257.396 1.85443 -3.82741 0
M  V30 2721 N 255.711 1.52812 0.385517 0
M  V30 2722 C 256.958 1.68026 1.1302 0
M  V30 2723 C 257.286 0.421934 1.89868 0
M  V30 2724 O 256.541 -0.595749 1.86412 0
M  V30 2725 C 256.84 2.86856 2.13187 0
M  V30 2726 C 256.506 4.24159 1.5297 0
M  V30 2727 C 255.168 4.61501 1.36274 0
M  V30 2728 C 257.52 5.09627 1.09223 0
M  V30 2729 C 254.848 5.81966 0.743837 0
M  V30 2730 C 257.2 6.30719 0.487411 0
M  V30 2731 C 255.864 6.6679 0.307777 0
M  V30 2732 H 255.134 0.614849 0.413571 0
M  V30 2733 H 257.781 1.86962 0.414405 0
M  V30 2734 H 256.086 2.6235 2.90998 0
M  V30 2735 H 257.783 2.95821 2.70722 0
M  V30 2736 H 254.373 3.94746 1.66954 0
M  V30 2737 H 258.557 4.81343 1.20922 0
M  V30 2738 H 253.813 6.08519 0.592891 0
M  V30 2739 H 257.987 6.96259 0.140143 0
M  V30 2740 H 255.614 7.60001 -0.173879 0
M  V30 2741 N 257.189 -0.644168 1.43834 0
M  V30 2742 C 258.438 -1.39985 1.45214 0
M  V30 2743 C 258.751 -1.95421 0.0835494 0
M  V30 2744 O 259.957 -2.71488 -0.0251748 0
M  V30 2745 C 258.413 -2.53384 2.55587 0
M  V30 2746 C 258.021 -2.04517 3.98594 0
M  V30 2747 C 259.765 -3.30685 2.66172 0
M  V30 2748 C 257.672 -3.1518 5.00416 0
M  V30 2749 H 256.602 -0.526005 0.540218 0
M  V30 2750 H 259.253 -0.694367 1.69855 0
M  V30 2751 H 257.635 -3.26446 2.24163 0
M  V30 2752 H 258.809 -1.38405 4.39523 0
M  V30 2753 H 257.124 -1.40068 3.92135 0
M  V30 2754 H 259.721 -4.13158 3.39418 0
M  V30 2755 H 260.064 -3.79312 1.71546 0
M  V30 2756 H 260.597 -2.64708 2.96942 0
M  V30 2757 H 257.336 -2.71511 5.96625 0
M  V30 2758 H 256.856 -3.79974 4.64091 0
M  V30 2759 H 258.535 -3.80166 5.23529 0
M  V30 2760 N 258.668 -1.30515 -0.883378 0
M  V30 2761 C 259.916 -1.19194 -1.63209 0
M  V30 2762 C 260.237 0.253205 -1.93349 0
M  V30 2763 O 259.507 1.17025 -1.57105 0
M  V30 2764 H 258.087 -0.438148 -0.605009 0
M  V30 2765 H 260.749 -1.63663 -1.05832 0
M  V30 2766 H 259.845 -1.75396 -2.58153 0
M  V30 2767 N 260.146 1.09593 -1.13257 0
M  V30 2768 C 261.376 1.85231 -0.915049 0
M  V30 2769 C 261.784 1.81345 0.539498 0
M  V30 2770 O 261.127 1.20664 1.38513 0
M  V30 2771 C 261.189 3.34275 -1.3229 0
M  V30 2772 C 260.853 3.6191 -2.79052 0
M  V30 2773 C 261.85 3.57777 -3.77216 0
M  V30 2774 C 259.535 3.90309 -3.16171 0
M  V30 2775 C 261.529 3.81652 -5.1051 0
M  V30 2776 C 259.216 4.13839 -4.49644 0
M  V30 2777 C 260.214 4.09502 -5.46623 0
M  V30 2778 O 259.902 4.32426 -6.77689 0
M  V30 2779 H 259.634 0.591997 -0.326367 0
M  V30 2780 H 262.188 1.394 -1.50854 0
M  V30 2781 H 260.418 3.80805 -0.672667 0
M  V30 2782 H 262.107 3.9132 -1.07812 0
M  V30 2783 H 262.873 3.35865 -3.49885 0
M  V30 2784 H 258.752 3.92811 -2.41289 0
M  V30 2785 H 262.296 3.78182 -5.86195 0
M  V30 2786 H 258.193 4.35232 -4.767 0
M  V30 2787 H 258.961 4.49896 -6.83766 0
M  V30 2788 N 261.624 0.925811 1.2754 0
M  V30 2789 C 262.87 0.566092 1.94739 0
M  V30 2790 C 263.203 -0.890057 1.72603 0
M  V30 2791 O 262.478 -1.63467 1.05399 0
M  V30 2792 C 262.761 0.89054 3.48915 0
M  V30 2793 C 262.614 2.4003 3.80402 0
M  V30 2794 C 263.933 0.395101 4.38323 0
M  V30 2795 H 261.052 0.20714 0.707292 0
M  V30 2796 H 263.694 1.15725 1.50691 0
M  V30 2797 H 261.844 0.387452 3.86563 0
M  V30 2798 H 263.516 2.97494 3.52555 0
M  V30 2799 H 261.759 2.85028 3.2702 0
M  V30 2800 H 262.43 2.57785 4.8811 0
M  V30 2801 H 264.906 0.826241 4.07814 0
M  V30 2802 H 263.782 0.651086 5.45025 0
M  V30 2803 H 264.043 -0.704798 4.36446 0
M  V30 2804 N 263.102 -1.41638 0.69111 0
M  V30 2805 C 264.35 -2.00902 0.219758 0
M  V30 2806 C 264.671 -1.54994 -1.18329 0
M  V30 2807 O 263.941 -0.778628 -1.79762 0
M  V30 2808 H 262.521 -0.74289 0.0782558 0
M  V30 2809 H 265.183 -1.73327 0.891271 0
M  V30 2810 H 264.279 -3.11224 0.233708 0
M  V30 2811 N 264.58 -0.43555 -1.51462 0
M  V30 2812 C 265.51 0.367376 -2.30592 0
M  V30 2813 C 266.491 1.02263 -1.35928 0
M  V30 2814 O 267.676 1.02661 -1.64847 0
M  V30 2815 C 264.806 1.46983 -3.14664 0
M  V30 2816 C 263.76 0.938161 -4.17591 0
M  V30 2817 C 263.086 2.13622 -4.90173 0
M  V30 2818 C 264.386 -0.0261621 -5.22293 0
M  V30 2819 H 266.08 -0.292969 -2.97963 0
M  V30 2820 H 263.626 -0.14234 -1.43295 0
M  V30 2821 H 265.579 2.03873 -3.688 0
M  V30 2822 H 264.303 2.15843 -2.4511 0
M  V30 2823 H 262.962 0.391481 -3.64504 0
M  V30 2824 H 262.61 2.81098 -4.17124 0
M  V30 2825 H 262.31 1.78688 -5.59772 0
M  V30 2826 H 263.834 2.7107 -5.47132 0
M  V30 2827 H 265.248 0.452384 -5.71512 0
M  V30 2828 H 263.645 -0.287992 -5.99409 0
M  V30 2829 H 264.715 -0.963391 -4.75233 0
M  V30 2830 N 266.058 1.56714 -0.166846 0
M  V30 2831 C 267.304 1.97813 0.473473 0
M  V30 2832 C 267.659 1.05095 1.61161 0
M  V30 2833 O 266.952 0.0897541 1.9139 0
M  V30 2834 C 267.146 3.42889 1.00806 0
M  V30 2835 C 266.975 4.49635 -0.0767392 0
M  V30 2836 C 265.745 5.02566 -0.524894 0
M  V30 2837 C 267.943 5.06793 -0.875504 0
M  V30 2838 N 265.925 5.9294 -1.59047 0
M  V30 2839 C 267.296 5.93565 -1.79111 0
M  V30 2840 C 269.351 4.89306 -0.921083 0
M  V30 2841 C 268.054 6.64721 -2.74843 0
M  V30 2842 C 270.08 5.61179 -1.86633 0
M  V30 2843 C 269.442 6.47675 -2.76942 0
M  V30 2844 H 265.541 0.769093 0.141489 0
M  V30 2845 H 268.125 1.92874 -0.266031 0
M  V30 2846 H 266.296 3.48382 1.7171 0
M  V30 2847 H 268.028 3.71008 1.61664 0
M  V30 2848 H 264.783 4.73439 -0.123432 0
M  V30 2849 H 265.207 6.42831 -2.12361 0
M  V30 2850 H 269.849 4.22136 -0.23692 0
M  V30 2851 H 267.567 7.31107 -3.44249 0
M  V30 2852 H 271.153 5.49636 -1.90764 0
M  V30 2853 H 270.033 7.02313 -3.48893 0
M  V30 2854 N 267.536 -0.106894 1.57237 0
M  V30 2855 C 268.764 -0.826389 1.8968 0
M  V30 2856 C 269.179 -1.72856 0.759353 0
M  V30 2857 O 268.536 -1.80503 -0.269263 0
M  V30 2858 C 268.587 -1.64967 3.21665 0
M  V30 2859 O 268.308 -0.783804 4.31031 0
M  V30 2860 C 269.809 -2.47326 3.67892 0
M  V30 2861 H 267.029 -0.236927 0.627779 0
M  V30 2862 H 269.573 -0.0876593 2.04312 0
M  V30 2863 H 267.728 -2.34103 3.08666 0
M  V30 2864 H 268.142 -1.35284 5.06753 0
M  V30 2865 H 269.616 -3.00604 4.6297 0
M  V30 2866 H 270.093 -3.25247 2.95146 0
M  V30 2867 H 270.699 -1.83411 3.83719 0
M  V30 2868 N 269.014 -1.53014 -0.377408 0
M  V30 2869 C 270.262 -1.6829 -1.11906 0
M  V30 2870 C 270.583 -0.431206 -1.90173 0
M  V30 2871 O 269.853 0.554595 -1.87886 0
M  V30 2872 H 268.433 -0.620371 -0.416112 0
M  V30 2873 H 271.095 -1.90167 -0.426893 0
M  V30 2874 H 270.191 -2.53862 -1.8155 0
M  V30 2875 N 270.492 0.636531 -1.44174 0
M  V30 2876 C 271.424 1.7618 -1.46606 0
M  V30 2877 C 272.437 1.58768 -0.360091 0
M  V30 2878 O 273.626 1.67181 -0.625518 0
M  V30 2879 C 270.726 3.13833 -1.27915 0
M  V30 2880 C 269.899 3.57753 -2.51658 0
M  V30 2881 C 268.958 4.74265 -2.27945 0
M  V30 2882 O 267.984 4.82852 -3.01401 0
M  V30 2883 N 269.186 5.65604 -1.30662 0
M  V30 2884 H 271.951 1.74567 -2.43612 0
M  V30 2885 H 269.512 0.820924 -1.39544 0
M  V30 2886 H 271.504 3.8949 -1.09907 0
M  V30 2887 H 270.074 3.10121 -0.39293 0
M  V30 2888 H 269.294 2.72362 -2.84978 0
M  V30 2889 H 270.582 3.83847 -3.33974 0
M  V30 2890 H 269.98 5.61354 -0.699844 0
M  V30 2891 H 268.537 6.40913 -1.18634 0
M  V30 2892 N 271.97 1.30982 0.876444 0
M  V30 2893 C 273.195 1.23373 1.66715 0
M  V30 2894 C 273.62 -0.19885 1.87046 0
M  V30 2895 O 272.978 -1.1427 1.40756 0
M  V30 2896 C 273.026 1.97644 3.01611 0
M  V30 2897 O 272.13 1.30935 3.91062 0
M  V30 2898 H 271.471 0.426279 0.509099 0
M  V30 2899 H 274.001 1.72944 1.09323 0
M  V30 2900 H 274.011 2.06992 3.51594 0
M  V30 2901 H 272.686 3.01829 2.86133 0
M  V30 2902 H 271.263 1.29996 3.49507 0
M  V30 2903 N 273.449 -1.08991 1.13837 0
M  V30 2904 C 274.86 -1.62746 0.914917 0
M  V30 2905 C 275.211 -1.88403 -0.547594 0
M  V30 2906 O 274.336 -1.63706 -1.41525 0
M  V30 2907 C 274.931 -2.95662 1.65437 0
M  V30 2908 C 273.49 -3.46225 1.47666 0
M  V30 2909 C 272.637 -2.20562 1.6807 0
M  V30 2910 H 275.588 -0.922946 1.29102 0
M  V30 2911 H 275.609 -3.63825 1.11407 0
M  V30 2912 H 275.121 -2.76956 2.71877 0
M  V30 2913 H 273.222 -3.70046 0.435478 0
M  V30 2914 H 273.335 -4.23368 2.24268 0
M  V30 2915 H 271.699 -2.29439 1.10589 0
M  V30 2916 H 272.482 -2.0437 2.7584 0
M  V30 2917 N 274.927 -0.932562 -1.27047 0
M  V30 2918 C 275.877 -0.406392 -2.24349 0
M  V30 2919 C 276.861 0.492066 -1.53191 0
M  V30 2920 O 278.053 0.328717 -1.73921 0
M  V30 2921 C 275.182 0.335214 -3.41659 0
M  V30 2922 C 274.268 -0.58004 -4.20115 0
M  V30 2923 N 274.659 -1.70203 -4.76303 0
M  V30 2924 C 272.957 -0.383974 -4.44344 0
M  V30 2925 C 273.658 -2.27167 -5.35509 0
M  V30 2926 N 272.634 -1.56068 -5.20715 0
M  V30 2927 H 276.436 -1.26299 -2.65378 0
M  V30 2928 H 273.95 -0.787408 -1.42034 0
M  V30 2929 H 275.947 0.729142 -4.10474 0
M  V30 2930 H 274.607 1.18868 -3.0216 0
M  V30 2931 H 275.618 -2.08433 -4.74106 0
M  V30 2932 H 272.295 0.428436 -4.15296 0
M  V30 2933 H 273.685 -3.21654 -5.89905 0
M  V30 2934 N 276.405 1.4127 -0.698611 0
M  V30 2935 C 277.352 2.30773 -0.0352094 0
M  V30 2936 C 278.322 1.47273 0.768111 0
M  V30 2937 O 279.507 1.76053 0.735524 0
M  V30 2938 C 276.647 3.33346 0.893 0
M  V30 2939 C 275.76 4.31924 0.0809695 0
M  V30 2940 C 274.895 5.21566 1.0071 0
M  V30 2941 C 273.934 6.11811 0.188155 0
M  V30 2942 N 273.071 6.93926 1.06825 0
M  V30 2943 H 277.911 2.86943 -0.804207 0
M  V30 2944 H 275.448 1.4132 -0.408294 0
M  V30 2945 H 277.406 3.91368 1.44523 0
M  V30 2946 H 276.036 2.78719 1.62836 0
M  V30 2947 H 275.088 3.75825 -0.588224 0
M  V30 2948 H 276.4 4.95716 -0.553801 0
M  V30 2949 H 275.554 5.84437 1.62845 0
M  V30 2950 H 274.293 4.58008 1.67572 0
M  V30 2951 H 273.298 5.47986 -0.446254 0
M  V30 2952 H 274.523 6.77425 -0.476716 0
M  V30 2953 H 272.469 6.32973 1.72283 0
M  V30 2954 H 272.386 7.54416 0.489123 0
M  V30 2955 H 273.654 7.61262 1.67632 0
M  V30 2956 N 277.883 0.443576 1.51229 0
M  V30 2957 C 279.13 -0.120796 2.02139 0
M  V30 2958 C 279.458 -1.42166 1.32736 0
M  V30 2959 O 278.713 -1.90849 0.43301 0
M  V30 2960 C 279.012 -0.380579 3.55368 0
M  V30 2961 C 278.678 0.83523 4.43097 0
M  V30 2962 C 277.34 1.16864 4.66794 0
M  V30 2963 C 279.692 1.64601 4.94526 0
M  V30 2964 C 277.02 2.31339 5.39165 0
M  V30 2965 C 279.372 2.78181 5.68153 0
M  V30 2966 C 278.036 3.11969 5.90112 0
M  V30 2967 H 277.306 -0.0442023 0.73968 0
M  V30 2968 H 279.953 0.592046 1.82118 0
M  V30 2969 H 278.258 -1.17538 3.73754 0
M  V30 2970 H 279.955 -0.830777 3.923 0
M  V30 2971 H 276.545 0.565437 4.24854 0
M  V30 2972 H 280.729 1.40163 4.76097 0
M  V30 2973 H 275.985 2.57823 5.5438 0
M  V30 2974 H 280.159 3.41371 6.06992 0
M  V30 2975 H 277.786 4.00784 6.45969 0
M  V30 2976 N 279.361 -1.56624 0.175154 0
M  V30 2977 C 280.589 -2.01374 -0.474971 0
M  V30 2978 C 281.004 -1.05537 -1.56548 0
M  V30 2979 O 280.361 -0.0568668 -1.82411 0
M  V30 2980 C 280.412 -3.45923 -1.04975 0
M  V30 2981 O 280.133 -4.381 -0.00276605 0
M  V30 2982 C 281.634 -4.06093 -1.77773 0
M  V30 2983 H 278.854 -0.659962 -0.121206 0
M  V30 2984 H 281.398 -2.02601 0.27801 0
M  V30 2985 H 279.553 -3.45458 -1.75321 0
M  V30 2986 H 279.967 -5.22753 -0.427681 0
M  V30 2987 H 281.441 -5.09147 -2.13245 0
M  V30 2988 H 281.918 -3.48405 -2.67414 0
M  V30 2989 H 282.524 -4.10272 -1.12059 0
M  V30 2990 N 280.839 0.0985539 -1.57292 0
M  V30 2991 C 282.085 0.803867 -1.86188 0
M  V30 2992 C 282.418 1.78549 -0.763794 0
M  V30 2993 O 281.693 1.93153 0.22855 0
M  V30 2994 C 281.976 1.53568 -3.25713 0
M  V30 2995 C 281.829 0.572277 -4.46145 0
M  V30 2996 C 283.148 2.48708 -3.63087 0
M  V30 2997 H 280.267 0.290781 -0.677211 0
M  V30 2998 H 282.909 0.0675783 -1.8988 0
M  V30 2999 H 281.059 2.16332 -3.22696 0
M  V30 3000 H 282.731 -0.0480894 -4.61275 0
M  V30 3001 H 280.974 -0.114618 -4.33649 0
M  V30 3002 H 281.645 1.12139 -5.40489 0
M  V30 3003 H 284.121 1.96039 -3.67026 0
M  V30 3004 H 282.997 2.96932 -4.61652 0
M  V30 3005 H 283.258 3.32309 -2.91588 0
M  V30 3006 N 282.317 1.53212 0.369288 0
M  V30 3007 C 283.542 1.73423 1.1375 0
M  V30 3008 C 283.967 0.460404 1.82378 0
M  V30 3009 O 283.325 -0.585298 1.71592 0
M  V30 3010 C 283.373 2.89769 2.1463 0
M  V30 3011 O 282.477 2.58119 3.21634 0
M  V30 3012 H 281.818 0.576061 0.330227 0
M  V30 3013 H 284.348 2.00083 0.427547 0
M  V30 3014 H 284.358 3.15829 2.58294 0
M  V30 3015 H 283.033 3.8217 1.64071 0
M  V30 3016 H 281.61 2.42864 2.82969 0
M  V30 3017 N 283.795 -0.628877 1.44509 0
M  V30 3018 C 285.043 -1.38565 1.4712 0
M  V30 3019 C 285.364 -1.94712 0.105899 0
M  V30 3020 O 284.634 -1.75912 -0.862079 0
M  V30 3021 H 283.214 -0.514333 0.541729 0
M  V30 3022 H 285.876 -0.740018 1.80305 0
M  V30 3023 H 284.972 -2.21583 2.19789 0
M  V30 3024 N 285.273 -1.31445 -0.869486 0
M  V30 3025 C 286.55 -1.11795 -1.60503 0
M  V30 3026 C 286.93 0.327168 -2.08549 0
M  V30 3027 O 286.278 1.32135 -1.8642 0
M  V30 3028 C 286.488 -2.13258 -2.76265 0
M  V30 3029 C 287.836 -2.45805 -3.46215 0
M  V30 3030 O 288.86 -2.11688 -2.86473 0
M  V30 3031 O 287.719 -3.04228 -4.5399 0
M  V30 3032 H 284.813 -0.430421 -0.706163 0
M  V30 3033 H 287.359 -1.42925 -0.914907 0
M  V30 3034 H 286.131 -3.10461 -2.3818 0
M  V30 3035 H 285.754 -1.83035 -3.52964 0
M  V30 3036 N 286.751 1.08385 -1.14413 0
M  V30 3037 C 287.661 2.18856 -0.844951 0
M  V30 3038 C 288.677 1.73121 0.174668 0
M  V30 3039 O 289.853 2.014 0.00312857 0
M  V30 3040 C 286.918 3.45155 -0.32696 0
M  V30 3041 C 285.979 4.05513 -1.40916 0
M  V30 3042 C 285.212 5.25784 -0.915793 0
M  V30 3043 O 285.435 5.69884 0.242651 0
M  V30 3044 O 284.369 5.77545 -1.69487 0
M  V30 3045 H 288.195 2.46919 -1.76818 0
M  V30 3046 H 285.78 1.17524 -0.922411 0
M  V30 3047 H 287.662 4.21377 -0.0440211 0
M  V30 3048 H 286.337 3.18668 0.568539 0
M  V30 3049 H 285.244 3.30879 -1.74556 0
M  V30 3050 H 286.577 4.3625 -2.27919 0
M  V30 3051 N 288.23 0.939286 1.26551 0
M  V30 3052 C 289.646 0.641304 1.46149 0
M  V30 3053 C 289.846 -0.805964 1.84679 0
M  V30 3054 O 288.902 -1.58278 1.96734 0
M  V30 3055 C 290.215 1.6011 2.54529 0
M  V30 3056 C 291.763 1.6106 2.68382 0
M  V30 3057 C 292.238 2.55765 3.79932 0
M  V30 3058 N 293.729 2.5404 3.87322 0
M  V30 3059 C 294.464 3.24004 4.73085 0
M  V30 3060 N 293.96 4.03388 5.63249 0
M  V30 3061 N 295.753 3.12965 4.66914 0
M  V30 3062 H 287.904 1.87478 0.998285 0
M  V30 3063 H 290.167 0.805559 0.499779 0
M  V30 3064 H 289.873 2.63412 2.33039 0
M  V30 3065 H 289.747 1.35171 3.52149 0
M  V30 3066 H 292.134 0.584835 2.89247 0
M  V30 3067 H 292.215 1.90053 1.71212 0
M  V30 3068 H 291.859 3.58458 3.5982 0
M  V30 3069 H 291.789 2.24063 4.76554 0
M  V30 3070 H 294.28 1.96396 3.22858 0
M  V30 3071 H 294.593 4.5373 6.25579 0
M  V30 3072 H 292.938 4.07489 5.63008 0
M  V30 3073 H 296.129 2.50432 3.95476 0
M  V30 3074 H 296.302 3.67759 5.33533 0
M  V30 3075 N 289.708 -1.40897 0.706093 0
M  V30 3076 C 290.985 -1.94868 0.169099 0
M  V30 3077 C 291.365 -1.64485 -1.32318 0
M  V30 3078 O 290.713 -0.95744 -2.07474 0
M  V30 3079 C 290.923 -3.45798 0.471654 0
M  V30 3080 C 292.271 -4.22663 0.405127 0
M  V30 3081 O 293.295 -3.53865 0.407168 0
M  V30 3082 O 292.154 -5.45216 0.374383 0
M  V30 3083 H 289.248 -0.82673 0.0211352 0
M  V30 3084 H 291.794 -1.50558 0.782976 0
M  V30 3085 H 290.566 -3.61235 1.50416 0
M  V30 3086 H 290.189 -3.97225 -0.172666 0
M  V30 3087 N 291.186 -0.45159 -1.50991 0
M  V30 3088 C 292.133 0.352625 -2.2809 0
M  V30 3089 C 293.103 1.0044 -1.32291 0
M  V30 3090 O 294.288 1.02058 -1.6121 0
M  V30 3091 C 291.428 1.43983 -3.13629 0
M  V30 3092 C 290.541 0.804772 -4.24438 0
M  V30 3093 C 289.676 1.86822 -4.97263 0
M  V30 3094 C 288.715 1.21236 -5.99973 0
M  V30 3095 N 287.852 2.2178 -6.66152 0
M  V30 3096 H 292.692 -0.311186 -2.96371 0
M  V30 3097 H 290.229 -0.165308 -1.46168 0
M  V30 3098 H 292.187 2.08161 -3.61559 0
M  V30 3099 H 290.817 2.07307 -2.47434 0
M  V30 3100 H 289.869 0.0509129 -3.80366 0
M  V30 3101 H 291.181 0.286076 -4.97979 0
M  V30 3102 H 290.335 2.58628 -5.48813 0
M  V30 3103 H 289.074 2.42068 -4.23385 0
M  V30 3104 H 288.079 0.479828 -5.47702 0
M  V30 3105 H 289.304 0.667051 -6.75816 0
M  V30 3106 H 287.25 2.76079 -5.95077 0
M  V30 3107 H 287.167 1.74841 -7.35504 0
M  V30 3108 H 288.435 2.93026 -7.22327 0
M  V30 3109 N 292.664 1.56529 -0.183458 0
M  V30 3110 C 293.912 1.96855 0.457452 0
M  V30 3111 C 294.233 1.07104 1.62953 0
M  V30 3112 O 293.503 0.139887 1.954 0
M  V30 3113 H 292.083 0.72693 0.171992 0
M  V30 3114 H 294.745 1.93056 -0.267476 0
M  V30 3115 H 293.841 3.01423 0.809368 0
M  V30 3116 N 294.142 -0.090211 1.57342 0
M  V30 3117 C 295.388 -0.788838 1.8748 0
M  V30 3118 C 295.743 -1.76105 0.7749 0
M  V30 3119 O 295.036 -1.90302 -0.222663 0
M  V30 3120 C 295.23 -1.55222 3.21933 0
M  V30 3121 C 295.059 -0.655441 4.44898 0
M  V30 3122 C 293.829 -0.299325 5.04413 0
M  V30 3123 C 296.027 0.0397458 5.14285 0
M  V30 3124 N 294.009 0.605108 6.10911 0
M  V30 3125 C 295.38 0.802061 6.1479 0
M  V30 3126 C 297.435 0.113154 4.97771 0
M  V30 3127 C 296.138 1.63093 7.00566 0
M  V30 3128 C 298.164 0.928942 5.84059 0
M  V30 3129 C 297.526 1.67936 6.84088 0
M  V30 3130 H 293.625 -0.26467 0.735849 0
M  V30 3131 H 296.209 -0.0511453 1.94633 0
M  V30 3132 H 294.38 -2.26076 3.15823 0
M  V30 3133 H 296.112 -2.19843 3.39781 0
M  V30 3134 H 292.867 -0.648079 4.69145 0
M  V30 3135 H 293.291 1.05002 6.68808 0
M  V30 3136 H 297.933 -0.452676 4.2037 0
M  V30 3137 H 295.651 2.20781 7.77355 0
M  V30 3138 H 299.237 0.988478 5.73341 0
M  V30 3139 H 298.117 2.30044 7.49699 0
M  V30 3140 N 295.62 -1.53406 -0.361157 0
M  V30 3141 C 296.866 -1.70999 -1.1014 0
M  V30 3142 C 297.221 -0.458425 -1.86859 0
M  V30 3143 O 296.514 0.548654 -1.83577 0
M  V30 3144 C 296.708 -2.90211 -2.08596 0
M  V30 3145 C 296.537 -4.26841 -1.41553 0
M  V30 3146 C 295.307 -4.91621 -1.16778 0
M  V30 3147 C 297.505 -5.07212 -0.850915 0
M  V30 3148 N 295.487 -6.12164 -0.461312 0
M  V30 3149 C 296.858 -6.19394 -0.274046 0
M  V30 3150 C 298.913 -4.92218 -0.750036 0
M  V30 3151 C 297.616 -7.18221 0.393868 0
M  V30 3152 C 299.642 -5.91322 -0.095894 0
M  V30 3153 C 299.004 -7.0283 0.470081 0
M  V30 3154 H 295.103 -0.678939 -0.388028 0
M  V30 3155 H 297.687 -1.90811 -0.38722 0
M  V30 3156 H 295.858 -2.71931 -2.77323 0
M  V30 3157 H 297.59 -2.96606 -2.7533 0
M  V30 3158 H 294.345 -4.50849 -1.45024 0
M  V30 3159 H 294.769 -6.76888 -0.123312 0
M  V30 3160 H 299.411 -4.06192 -1.17337 0
M  V30 3161 H 297.129 -8.03835 0.82914 0
M  V30 3162 H 300.715 -5.81797 -0.0187075 0
M  V30 3163 H 299.595 -7.782 0.968241 0
M  V30 3164 N 297.098 0.621204 -1.44841 0
M  V30 3165 C 298.344 1.38073 -1.49357 0
M  V30 3166 C 298.699 1.91973 -0.128115 0
M  V30 3167 O 297.992 1.71311 0.858087 0
M  V30 3168 C 298.186 2.55675 -2.4973 0
M  V30 3169 C 298.015 2.13289 -3.95901 0
M  V30 3170 C 296.785 2.001 -4.63991 0
M  V30 3171 C 298.983 1.7159 -4.84831 0
M  V30 3172 N 296.965 1.51381 -5.94943 0
M  V30 3173 C 298.336 1.34188 -6.05304 0
M  V30 3174 C 300.391 1.59059 -4.7181 0
M  V30 3175 C 299.094 0.855085 -7.14199 0
M  V30 3176 C 301.12 1.11784 -5.8074 0
M  V30 3177 C 300.482 0.753385 -7.0036 0
M  V30 3178 H 296.581 0.499675 -0.601539 0
M  V30 3179 H 299.165 0.711609 -1.8123 0
M  V30 3180 H 297.336 3.20201 -2.19832 0
M  V30 3181 H 299.068 3.22509 -2.4448 0
M  V30 3182 H 295.823 2.20863 -4.18947 0
M  V30 3183 H 296.247 1.29293 -6.64539 0
M  V30 3184 H 300.889 1.85865 -3.79755 0
M  V30 3185 H 298.607 0.574552 -8.06055 0
M  V30 3186 H 302.193 1.02533 -5.72694 0
M  V30 3187 H 301.073 0.393183 -7.83214 0
M  V30 3188 N 298.576 1.31904 0.862503 0
M  V30 3189 C 299.486 1.22161 2.00285 0
M  V30 3190 C 300.502 0.136785 1.73462 0
M  V30 3191 O 301.678 0.355994 1.98229 0
M  V30 3192 C 298.743 0.937093 3.33796 0
M  V30 3193 C 297.804 2.10957 3.73893 0
M  V30 3194 C 297.037 1.83853 5.01033 0
M  V30 3195 O 297.26 0.777274 5.65079 0
M  V30 3196 O 296.194 2.69741 5.38074 0
M  V30 3197 H 300.02 2.18008 2.11439 0
M  V30 3198 H 297.605 1.11716 0.991957 0
M  V30 3199 H 299.487 0.794583 4.13841 0
M  V30 3200 H 298.162 0.00871894 3.23699 0
M  V30 3201 H 297.069 2.30752 2.94456 0
M  V30 3202 H 298.402 3.02046 3.88625 0
M  V30 3203 N 300.054 -1.07777 1.14986 0
M  V30 3204 C 301.002 -2.16964 0.838406 0
M  V30 3205 C 301.996 -1.68372 -0.186386 0
M  V30 3206 O 303.202 -1.79951 -0.0418465 0
M  V30 3207 H 299.577 -0.708006 0.253439 0
M  V30 3208 H 301.548 -2.40454 1.76704 0
M  V30 3209 C 300.297 -3.4604 0.339335 0
M  V30 3210 H 299.62 -3.83813 1.11927 0
M  V30 3211 H 301.06 -4.23698 0.160021 0
M  V30 3212 C 299.519 -3.23569 -0.938325 0
M  V30 3213 O 300.049 -3.47752 -2.01077 0
M  V30 3214 N 298.255 -2.77079 -0.876117 0
M  V30 3215 H 297.802 -2.576 -0.00322037 0
M  V30 3216 H 297.76 -2.62422 -1.73153 0
M  V30 3217 N 301.532 -0.945985 -1.26051 0
M  V30 3218 C 302.495 -0.463897 -2.24456 0
M  V30 3219 C 303.495 0.427655 -1.55009 0
M  V30 3220 O 304.685 0.226157 -1.72726 0
M  V30 3221 C 301.817 0.330812 -3.39291 0
M  V30 3222 H 303.01 -1.33357 -2.68619 0
M  V30 3223 H 300.563 -0.728416 -1.38289 0
M  V30 3224 H 301.298 1.21852 -3.00537 0
M  V30 3225 H 301.083 -0.308679 -3.90883 0
M  V30 3226 H 302.573 0.657865 -4.12386 0
M  V30 3227 N 303.011 1.40521 -0.713556 0
M  V30 3228 C 304.26 2.00155 -0.249192 0
M  V30 3229 C 304.573 1.57224 1.16362 0
M  V30 3230 O 305.779 2.09542 1.72639 0
M  V30 3231 C 304.235 3.5773 -0.3946 0
M  V30 3232 C 303.843 4.09635 -1.81392 0
M  V30 3233 C 305.587 4.24499 0.00907364 0
M  V30 3234 C 303.494 5.59707 -1.91003 0
M  V30 3235 H 302.424 0.74868 -0.0894114 0
M  V30 3236 H 305.075 1.60784 -0.884352 0
M  V30 3237 H 303.457 3.94792 0.30911 0
M  V30 3238 H 304.631 3.83955 -2.54785 0
M  V30 3239 H 302.946 3.55456 -2.16888 0
M  V30 3240 H 305.543 5.34683 -0.0420404 0
M  V30 3241 H 305.886 4.02824 1.05065 0
M  V30 3242 H 306.419 3.92536 -0.645007 0
M  V30 3243 H 303.158 5.86234 -2.93275 0
M  V30 3244 H 302.678 5.87258 -1.22019 0
M  V30 3245 H 304.357 6.24776 -1.6812 0
M  V30 3246 N 304.489 0.459591 1.5075 0
M  V30 3247 C 305.452 -0.329093 2.26825 0
M  V30 3248 C 306.452 -0.930481 1.31144 0
M  V30 3249 O 307.642 -0.801453 1.54669 0
M  V30 3250 C 304.774 -1.46768 3.07688 0
M  V30 3251 H 305.967 0.337924 2.9799 0
M  V30 3252 H 303.52 0.213336 1.54837 0
M  V30 3253 H 304.255 -2.17009 2.40993 0
M  V30 3254 H 304.04 -1.04238 3.77991 0
M  V30 3255 H 305.53 -2.02433 3.65254 0
M  V30 3256 N 305.967 -1.56429 0.191757 0
M  V30 3257 C 306.93 -2.17707 -0.716688 0
M  V30 3258 C 307.93 -1.13061 -1.14341 0
M  V30 3259 O 309.12 -1.38464 -1.05704 0
M  V30 3260 C 306.252 -2.77644 -1.97804 0
M  V30 3261 H 307.445 -2.99342 -0.1829 0
M  V30 3262 H 304.998 -1.56193 -0.0578566 0
M  V30 3263 H 305.733 -1.99799 -2.55443 0
M  V30 3264 H 305.518 -3.54246 -1.68083 0
M  V30 3265 H 307.008 -3.24708 -2.62592 0
M  V30 3266 N 307.445 0.0818655 -1.57387 0
M  V30 3267 C 308.375 1.09885 -2.06028 0
M  V30 3268 C 309.356 1.4098 -0.951774 0
M  V30 3269 O 310.541 1.50781 -1.22387 0
M  V30 3270 C 307.671 2.4151 -2.4958 0
M  V30 3271 C 306.625 2.24792 -3.64215 0
M  V30 3272 C 305.951 3.61712 -3.93787 0
M  V30 3273 C 307.251 1.67749 -4.94629 0
M  V30 3274 H 308.945 0.694128 -2.91243 0
M  V30 3275 H 306.491 0.332448 -1.4011 0
M  V30 3276 H 308.444 3.12939 -2.82219 0
M  V30 3277 H 307.168 2.83943 -1.61381 0
M  V30 3278 H 305.827 1.55807 -3.31843 0
M  V30 3279 H 305.475 4.01697 -3.02735 0
M  V30 3280 H 305.175 3.51368 -4.70971 0
M  V30 3281 H 306.699 4.34587 -4.28913 0
M  V30 3282 H 308.113 2.29032 -5.25564 0
M  V30 3283 H 306.51 1.68128 -5.76067 0
M  V30 3284 H 307.58 0.638059 -4.80684 0
M  V30 3285 N 308.923 1.53595 0.353017 0
M  V30 3286 C 310.17 1.70385 1.09431 0
M  V30 3287 C 310.498 0.462113 1.88931 0
M  V30 3288 O 309.753 -0.556074 1.87633 0
M  V30 3289 C 310.052 2.91313 2.07054 0
M  V30 3290 C 309.718 4.27308 1.43939 0
M  V30 3291 C 308.38 4.64287 1.26454 0
M  V30 3292 C 310.732 5.11829 0.983883 0
M  V30 3293 C 308.06 5.83412 0.620226 0
M  V30 3294 C 310.412 6.31611 0.353516 0
M  V30 3295 C 309.076 6.67293 0.166272 0
M  V30 3296 H 308.346 0.623484 0.400436 0
M  V30 3297 H 310.993 1.87799 0.374655 0
M  V30 3298 H 309.298 2.68463 2.85368 0
M  V30 3299 H 310.995 3.01497 2.64387 0
M  V30 3300 H 307.585 3.98198 1.58543 0
M  V30 3301 H 311.769 4.838 1.10685 0
M  V30 3302 H 307.025 6.09639 0.463681 0
M  V30 3303 H 311.199 6.964 -0.00757555 0
M  V30 3304 H 308.826 7.59461 -0.335047 0
M  V30 3305 N 310.401 -0.613514 1.45168 0
M  V30 3306 C 311.817 -0.933629 1.29443 0
M  V30 3307 C 312.017 -2.00028 0.243101 0
M  V30 3308 O 311.073 -2.49848 -0.364992 0
M  V30 3309 C 312.386 -1.38018 2.67155 0
M  V30 3310 C 313.934 -1.49471 2.75004 0
M  V30 3311 C 314.409 -1.97503 4.13227 0
M  V30 3312 N 315.9 -2.04746 4.15491 0
M  V30 3313 C 316.635 -2.43121 5.19307 0
M  V30 3314 N 316.131 -2.80506 6.33473 0
M  V30 3315 N 317.924 -2.43408 5.06664 0
M  V30 3316 H 310.075 0.0916097 2.12202 0
M  V30 3317 H 312.338 -0.0216655 0.947752 0
M  V30 3318 H 312.044 -0.670625 3.45247 0
M  V30 3319 H 311.918 -2.34784 2.95222 0
M  V30 3320 H 314.305 -2.19519 1.9722 0
M  V30 3321 H 314.386 -0.510342 2.50657 0
M  V30 3322 H 314.03 -1.28045 4.91495 0
M  V30 3323 H 313.96 -2.96843 4.34962 0
M  V30 3324 H 316.451 -1.78468 3.33103 0
M  V30 3325 H 316.764 -3.08652 7.08487 0
M  V30 3326 H 315.109 -2.78216 6.36884 0
M  V30 3327 H 318.3 -2.13604 4.16523 0
M  V30 3328 H 318.473 -2.72989 5.87691 0
M  V30 3329 N 311.879 -1.3236 -0.855495 0
M  V30 3330 C 313.295 -1.11332 -1.14356 0
M  V30 3331 C 313.495 0.106751 -2.01217 0
M  V30 3332 O 312.551 0.791891 -2.39761 0
M  V30 3333 C 313.864 -2.39237 -1.82171 0
M  V30 3334 C 315.412 -2.44986 -1.9481 0
M  V30 3335 C 315.887 -3.7281 -2.66039 0
M  V30 3336 N 317.378 -3.73787 -2.73565 0
M  V30 3337 C 318.113 -4.69394 -3.29327 0
M  V30 3338 N 317.609 -5.75367 -3.85907 0
M  V30 3339 N 319.402 -4.56893 -3.27423 0
M  V30 3340 H 311.553 -2.10586 -0.277027 0
M  V30 3341 H 313.816 -0.929701 -0.185364 0
M  V30 3342 H 313.522 -3.28431 -1.25802 0
M  V30 3343 H 313.396 -2.50134 -2.82335 0
M  V30 3344 H 315.783 -1.56252 -2.50338 0
M  V30 3345 H 315.864 -2.38043 -0.936448 0
M  V30 3346 H 315.508 -4.61918 -2.11174 0
M  V30 3347 H 315.438 -3.77024 -3.67642 0
M  V30 3348 H 317.929 -2.97189 -2.33424 0
M  V30 3349 H 318.242 -6.44378 -4.26611 0
M  V30 3350 H 316.587 -5.79123 -3.84242 0
M  V30 3351 H 319.778 -3.73269 -2.82467 0
M  V30 3352 H 319.951 -5.31577 -3.7058 0
M  V30 3353 N 313.357 1.07166 -1.15556 0
M  V30 3354 C 314.307 2.12649 -0.82247 0
M  V30 3355 C 315.291 1.59725 0.194129 0
M  V30 3356 O 316.483 1.76999 -0.00540402 0
M  V30 3357 C 313.612 3.41847 -0.315572 0
M  V30 3358 C 312.698 4.0162 -1.36244 0
M  V30 3359 N 313.089 4.35625 -2.5703 0
M  V30 3360 C 311.387 4.29114 -1.21562 0
M  V30 3361 C 312.088 4.83017 -3.24144 0
M  V30 3362 N 311.064 4.81906 -2.51531 0
M  V30 3363 H 314.866 2.36776 -1.74111 0
M  V30 3364 H 312.38 1.24622 -1.0413 0
M  V30 3365 H 314.377 4.16859 -0.0585855 0
M  V30 3366 H 313.037 3.19163 0.597105 0
M  V30 3367 H 314.048 4.26253 -2.94158 0
M  V30 3368 H 310.725 4.15919 -0.362988 0
M  V30 3369 H 312.115 5.18605 -4.27198 0
M  V30 3370 N 314.835 0.952656 1.25548 0
M  V30 3371 C 316.084 0.602053 1.92505 0
M  V30 3372 C 316.397 -0.864663 1.75451 0
M  V30 3373 O 317.603 -1.32514 2.36965 0
M  V30 3374 C 316.059 1.02607 3.44963 0
M  V30 3375 C 315.667 2.51519 3.70732 0
M  V30 3376 C 317.411 0.747905 4.1786 0
M  V30 3377 C 315.318 2.87732 5.16686 0
M  V30 3378 H 314.248 0.22146 0.720744 0
M  V30 3379 H 316.899 1.15684 1.42441 0
M  V30 3380 H 315.281 0.399712 3.93978 0
M  V30 3381 H 316.455 3.19157 3.32378 0
M  V30 3382 H 314.77 2.76786 3.11092 0
M  V30 3383 H 317.367 0.994647 5.25367 0
M  V30 3384 H 317.71 -0.315629 4.15102 0
M  V30 3385 H 318.243 1.33452 3.74747 0
M  V30 3386 H 314.982 3.93095 5.24554 0
M  V30 3387 H 314.502 2.24765 5.56094 0
M  V30 3388 H 316.181 2.76817 5.84792 0
M  V30 3389 N 316.313 -1.40141 0.720998 0
M  V30 3390 C 317.724 -1.83678 0.334553 0
M  V30 3391 C 318.075 -1.6027 -1.13173 0
M  V30 3392 O 317.2 -1.08643 -1.87152 0
M  V30 3393 C 317.795 -3.33437 0.600437 0
M  V30 3394 C 316.354 -3.75447 0.267642 0
M  V30 3395 C 315.501 -2.63296 0.870097 0
M  V30 3396 H 318.452 -1.29331 0.919732 0
M  V30 3397 H 318.473 -3.80269 -0.132517 0
M  V30 3398 H 317.985 -3.50442 1.66768 0
M  V30 3399 H 316.086 -3.64035 -0.794329 0
M  V30 3400 H 316.199 -4.73344 0.74042 0
M  V30 3401 H 314.563 -2.52954 0.297739 0
M  V30 3402 H 315.346 -2.83112 1.94172 0
M  V30 3403 N 317.792 -0.46758 -1.50504 0
M  V30 3404 C 319.038 0.0887532 -2.02606 0
M  V30 3405 C 319.371 1.39686 -1.34913 0
M  V30 3406 O 318.646 1.88644 -0.473694 0
M  V30 3407 C 318.929 0.276206 -3.59039 0
M  V30 3408 C 318.782 -1.05267 -4.37309 0
M  V30 3409 C 320.101 1.03235 -4.27821 0
M  V30 3410 H 317.22 0.0307814 -0.736357 0
M  V30 3411 H 319.862 -0.612485 -1.79857 0
M  V30 3412 H 318.012 0.8735 -3.78553 0
M  V30 3413 H 319.684 -1.68628 -4.29374 0
M  V30 3414 H 317.927 -1.65015 -4.01189 0
M  V30 3415 H 318.598 -0.875197 -5.45018 0
M  V30 3416 H 321.074 0.526111 -4.12761 0
M  V30 3417 H 319.95 1.1323 -5.37094 0
M  V30 3418 H 320.211 2.06806 -3.90748 0
M  V30 3419 N 319.27 1.56325 -0.20005 0
M  V30 3420 C 320.495 2.02548 0.44597 0
M  V30 3421 C 320.92 1.07922 1.5406 0
M  V30 3422 O 320.278 0.0635775 1.81188 0
M  V30 3423 C 320.326 3.47175 0.974761 0
M  V30 3424 O 319.43 3.55671 2.08739 0
M  V30 3425 H 318.771 0.655862 0.103638 0
M  V30 3426 H 321.301 2.02201 -0.312381 0
M  V30 3427 H 321.311 3.87067 1.2901 0
M  V30 3428 H 319.986 4.15538 0.17347 0
M  V30 3429 H 318.563 3.27657 1.78032 0
M  V30 3430 N 320.748 -0.0735177 1.57428 0
M  V30 3431 C 321.994 -0.768909 1.88307 0
M  V30 3432 C 322.349 -1.75273 0.793535 0
M  V30 3433 O 321.642 -1.90527 -0.202466 0
M  V30 3434 C 321.836 -1.51799 3.23561 0
M  V30 3435 C 321.665 -0.608217 4.45568 0
M  V30 3436 C 320.435 -0.245808 5.04702 0
M  V30 3437 C 322.633 0.0942904 5.14214 0
M  V30 3438 N 320.615 0.66987 6.10234 0
M  V30 3439 C 321.986 0.867222 6.13905 0
M  V30 3440 C 324.041 0.165943 4.97623 0
M  V30 3441 C 322.744 1.70515 6.98797 0
M  V30 3442 C 324.77 0.990837 5.83041 0
M  V30 3443 C 324.132 1.75182 6.82269 0
M  V30 3444 H 320.231 -0.25685 0.738615 0
M  V30 3445 H 322.815 -0.030499 1.94676 0
M  V30 3446 H 320.986 -2.22713 3.18203 0
M  V30 3447 H 322.718 -2.16226 3.42094 0
M  V30 3448 H 319.473 -0.598284 4.69806 0
M  V30 3449 H 319.897 1.1209 6.67656 0
M  V30 3450 H 324.539 -0.408064 4.20826 0
M  V30 3451 H 322.257 2.29013 7.7497 0
M  V30 3452 H 325.843 1.04923 5.72261 0
M  V30 3453 H 324.723 2.37983 7.47217 0
M  V30 3454 N 322.226 -1.5378 -0.344866 0
M  V30 3455 C 323.156 -1.84662 -1.42906 0
M  V30 3456 C 324.137 -0.701648 -1.54955 0
M  V30 3457 O 325.322 -0.953438 -1.69184 0
M  V30 3458 C 322.452 -2.05503 -2.79974 0
M  V30 3459 C 321.406 -3.21318 -2.82734 0
M  V30 3460 C 320.732 -3.2749 -4.22675 0
M  V30 3461 C 322.032 -4.59456 -2.48389 0
M  V30 3462 H 323.726 -2.75461 -1.17311 0
M  V30 3463 H 321.272 -1.32542 -0.562896 0
M  V30 3464 H 323.225 -2.25691 -3.55867 0
M  V30 3465 H 321.949 -1.11434 -3.07002 0
M  V30 3466 H 320.608 -3.00984 -2.09294 0
M  V30 3467 H 320.256 -2.31019 -4.4681 0
M  V30 3468 H 319.956 -4.05316 -4.25433 0
M  V30 3469 H 321.48 -3.49887 -5.00412 0
M  V30 3470 H 322.894 -4.79667 -3.13995 0
M  V30 3471 H 321.291 -5.39675 -2.62432 0
M  V30 3472 H 322.361 -4.63155 -1.4358 0
M  V30 3473 N 323.704 0.605807 -1.45491 0
M  V30 3474 C 324.953 1.36086 -1.48874 0
M  V30 3475 C 325.266 1.95131 -0.135333 0
M  V30 3476 O 326.472 2.7146 -0.0468144 0
M  V30 3477 C 324.928 2.46518 -2.62215 0
M  V30 3478 C 324.536 1.93877 -4.03876 0
M  V30 3479 C 326.28 3.23512 -2.74846 0
M  V30 3480 C 324.187 3.01801 -5.08596 0
M  V30 3481 H 323.117 0.511497 -0.553974 0
M  V30 3482 H 325.768 0.649089 -1.71636 0
M  V30 3483 H 324.15 3.20388 -2.32739 0
M  V30 3484 H 325.324 1.26704 -4.43038 0
M  V30 3485 H 323.639 1.29622 -3.95711 0
M  V30 3486 H 326.236 4.04013 -3.50253 0
M  V30 3487 H 326.579 3.74631 -1.81542 0
M  V30 3488 H 327.112 2.56742 -3.03856 0
M  V30 3489 H 323.851 2.55597 -6.03614 0
M  V30 3490 H 323.371 3.67535 -4.74002 0
M  V30 3491 H 325.05 3.66152 -5.33424 0
M  V30 3492 N 325.182 1.32811 0.848464 0
M  V30 3493 C 326.598 1.11937 1.13764 0
M  V30 3494 C 326.798 -0.0960789 2.01271 0
M  V30 3495 O 325.854 -0.779165 2.40178 0
M  V30 3496 C 327.167 2.402 1.809 0
M  V30 3497 C 328.715 2.46016 1.93508 0
M  V30 3498 C 329.19 3.74215 2.64059 0
M  V30 3499 N 330.681 3.75232 2.71579 0
M  V30 3500 C 331.416 4.71134 3.26833 0
M  V30 3501 N 330.912 5.77406 3.8285 0
M  V30 3502 N 332.705 4.58623 3.24995 0
M  V30 3503 H 324.856 2.1073 0.265855 0
M  V30 3504 H 327.119 0.930671 0.180431 0
M  V30 3505 H 326.825 3.29093 1.24058 0
M  V30 3506 H 326.699 2.51628 2.81004 0
M  V30 3507 H 329.086 1.57577 2.49506 0
M  V30 3508 H 329.167 2.38536 0.923811 0
M  V30 3509 H 328.811 4.63031 2.08722 0
M  V30 3510 H 328.741 3.78968 3.65637 0
M  V30 3511 H 331.232 2.98423 2.31845 0
M  V30 3512 H 331.545 6.46632 4.23187 0
M  V30 3513 H 329.89 5.81152 3.81165 0
M  V30 3514 H 333.081 3.74762 2.80484 0
M  V30 3515 H 333.254 5.33535 3.67756 0
M  V30 3516 N 326.66 -1.06551 1.16123 0
M  V30 3517 C 327.623 -2.12132 0.867906 0
M  V30 3518 C 328.623 -1.60224 -0.135944 0
M  V30 3519 O 329.813 -1.73943 0.0946422 0
M  V30 3520 C 326.945 -3.396 0.297419 0
M  V30 3521 H 328.138 -2.39586 1.80385 0
M  V30 3522 H 325.691 -1.22574 0.969812 0
M  V30 3523 H 326.426 -3.17794 -0.64633 0
M  V30 3524 H 326.211 -3.78581 1.02073 0
M  V30 3525 H 327.701 -4.17455 0.110052 0
M  V30 3526 N 328.138 -0.959301 -1.25041 0
M  V30 3527 C 329.366 -0.633949 -1.96948 0
M  V30 3528 C 329.781 0.794916 -1.7125 0
M  V30 3529 O 329.138 1.53231 -0.991287 0
M  V30 3530 C 329.189 -0.888805 -3.50403 0
M  V30 3531 O 328.91 -2.26149 -3.75218 0
M  V30 3532 C 330.411 -0.576482 -4.39536 0
M  V30 3533 H 327.631 -0.237263 -0.627652 0
M  V30 3534 H 330.175 -1.28495 -1.59089 0
M  V30 3535 H 328.33 -0.284145 -3.86357 0
M  V30 3536 H 328.744 -2.33514 -4.6965 0
M  V30 3537 H 330.218 -0.805314 -5.46094 0
M  V30 3538 H 330.695 0.489075 -4.36468 0
M  V30 3539 H 331.301 -1.16067 -4.09156 0
M  V30 3540 N 329.616 1.39756 -0.72842 0
M  V30 3541 C 330.546 2.33289 -0.0991354 0
M  V30 3542 C 331.527 1.53568 0.731489 0
M  V30 3543 O 332.712 1.81987 0.677807 0
M  V30 3544 C 329.842 3.3763 0.813834 0
M  V30 3545 C 328.796 4.2791 0.0878663 0
M  V30 3546 C 328.122 5.22894 1.11741 0
M  V30 3547 C 329.422 5.11314 -1.06563 0
M  V30 3548 H 331.116 2.86163 -0.880408 0
M  V30 3549 H 328.662 1.37591 -0.424819 0
M  V30 3550 H 330.615 4.0201 1.26355 0
M  V30 3551 H 329.339 2.83181 1.62715 0
M  V30 3552 H 327.998 3.65 -0.342159 0
M  V30 3553 H 327.646 4.64744 1.92412 0
M  V30 3554 H 327.346 5.84143 0.636477 0
M  V30 3555 H 328.87 5.90151 1.56697 0
M  V30 3556 H 330.284 5.69076 -0.694671 0
M  V30 3557 H 328.681 5.81671 -1.47577 0
M  V30 3558 H 329.751 4.46534 -1.89038 0
M  V30 3559 N 331.094 0.475555 1.50254 0
M  V30 3560 C 332.319 -0.0777042 2.07254 0
M  V30 3561 C 332.744 -1.3235 1.3366 0
M  V30 3562 O 332.102 -1.77152 0.385597 0
M  V30 3563 C 332.15 -0.340169 3.58992 0
M  V30 3564 O 331.254 -1.41982 3.87188 0
M  V30 3565 H 330.595 0.0149556 0.663832 0
M  V30 3566 H 333.125 0.667878 1.93392 0
M  V30 3567 H 333.135 -0.579332 4.03866 0
M  V30 3568 H 331.81 0.570167 4.11973 0
M  V30 3569 H 330.387 -1.16762 3.54148 0
M  V30 3570 N 332.573 -1.56217 0.208337 0
M  V30 3571 C 333.483 -2.23316 -0.718836 0
M  V30 3572 C 334.499 -1.23648 -1.22422 0
M  V30 3573 O 335.675 -1.56423 -1.26861 0
M  V30 3574 C 332.74 -2.88968 -1.91568 0
M  V30 3575 C 331.801 -4.03943 -1.45357 0
M  V30 3576 C 331.034 -4.66455 -2.59337 0
M  V30 3577 O 331.257 -4.27919 -3.77149 0
M  V30 3578 O 330.191 -5.55686 -2.31293 0
M  V30 3579 H 334.017 -3.03182 -0.177315 0
M  V30 3580 H 331.602 -1.49384 -0.0215402 0
M  V30 3581 H 333.484 -3.30455 -2.61491 0
M  V30 3582 H 332.159 -2.12071 -2.44556 0
M  V30 3583 H 331.066 -3.67052 -0.722746 0
M  V30 3584 H 332.399 -4.82543 -0.970219 0
M  V30 3585 N 334.051 0.0651679 -1.57465 0
M  V30 3586 C 335.276 0.779605 -1.9219 0
M  V30 3587 C 335.701 1.69988 -0.805333 0
M  V30 3588 O 335.059 1.79685 0.241435 0
M  V30 3589 C 335.107 1.54364 -3.2589 0
M  V30 3590 O 334.211 2.65474 -3.1559 0
M  V30 3591 H 333.552 0.212249 -0.629163 0
M  V30 3592 H 336.082 0.0314294 -2.04576 0
M  V30 3593 H 336.092 1.92146 -3.59922 0
M  V30 3594 H 334.767 0.868457 -4.06732 0
M  V30 3595 H 333.344 2.30501 -2.93128 0
M  V30 3596 N 335.529 1.53961 0.336706 0
M  V30 3597 C 336.439 1.85432 1.43708 0
M  V30 3598 C 337.455 0.745053 1.57242 0
M  V30 3599 O 338.631 1.03804 1.72588 0
M  V30 3600 C 335.696 2.06349 2.78605 0
M  V30 3601 C 334.757 3.30191 2.74358 0
M  V30 3602 C 333.99 3.50101 4.02822 0
M  V30 3603 O 334.213 2.7371 5.00439 0
M  V30 3604 O 333.147 4.43547 4.06878 0
M  V30 3605 H 336.973 2.78975 1.20028 0
M  V30 3606 H 334.558 1.39701 0.52952 0
M  V30 3607 H 336.44 2.21513 3.58483 0
M  V30 3608 H 335.115 1.15995 3.02203 0
M  V30 3609 H 334.022 3.20425 1.93078 0
M  V30 3610 H 335.355 4.2056 2.55715 0
M  V30 3611 N 337.007 -0.598083 1.45811 0
M  V30 3612 C 337.955 -1.72932 1.55555 0
M  V30 3613 C 338.949 -1.63984 0.424921 0
M  V30 3614 O 340.155 -1.69663 0.601205 0
M  V30 3615 H 336.53 -0.571489 0.488779 0
M  V30 3616 H 338.501 -1.61842 2.50699 0
M  V30 3617 C 337.25 -3.11318 1.54843 0
M  V30 3618 H 336.573 -3.18867 2.41172 0
M  V30 3619 H 338.013 -3.90274 1.65717 0
M  V30 3620 C 336.472 -3.3578 0.274427 0
M  V30 3621 O 337.002 -3.9654 -0.641778 0
M  V30 3622 N 335.208 -2.90119 0.167139 0
M  V30 3623 H 334.755 -2.40855 0.913596 0
M  V30 3624 H 334.713 -3.0686 -0.684435 0
M  V30 3625 N 338.485 -1.33259 -0.841409 0
M  V30 3626 C 339.732 -1.24572 -1.5965 0
M  V30 3627 C 340.06 0.189137 -1.93578 0
M  V30 3628 O 339.315 1.14566 -1.5866 0
M  V30 3629 C 339.614 -2.06381 -2.9179 0
M  V30 3630 C 339.28 -3.556 -2.77235 0
M  V30 3631 C 337.942 -3.96282 -2.72973 0
M  V30 3632 C 340.294 -4.50433 -2.62221 0
M  V30 3633 C 337.622 -5.30017 -2.51592 0
M  V30 3634 C 339.974 -5.84327 -2.42374 0
M  V30 3635 C 338.638 -6.24194 -2.36512 0
M  V30 3636 H 337.908 -0.455842 -0.5842 0
M  V30 3637 H 340.555 -1.6482 -0.975016 0
M  V30 3638 H 338.86 -1.58903 -3.5813 0
M  V30 3639 H 340.557 -1.97019 -3.49263 0
M  V30 3640 H 337.147 -3.23298 -2.81384 0
M  V30 3641 H 341.331 -4.19914 -2.64549 0
M  V30 3642 H 336.587 -5.59947 -2.45499 0
M  V30 3643 H 340.761 -6.57414 -2.29739 0
M  V30 3644 H 338.388 -7.27759 -2.19706 0
M  V30 3645 N 339.963 1.05934 -1.16686 0
M  V30 3646 C 340.873 2.17014 -0.891183 0
M  V30 3647 C 341.889 1.73453 0.137907 0
M  V30 3648 O 343.065 2.01361 -0.039592 0
M  V30 3649 C 340.13 3.44384 -0.400099 0
M  V30 3650 C 339.191 4.02433 -1.49486 0
M  V30 3651 C 338.424 5.23723 -1.02711 0
M  V30 3652 O 338.647 5.7027 0.121716 0
M  V30 3653 O 337.581 5.7382 -1.81699 0
M  V30 3654 H 341.407 2.43113 -1.82015 0
M  V30 3655 H 338.992 1.15541 -0.947132 0
M  V30 3656 H 340.874 4.21189 -0.133392 0
M  V30 3657 H 339.549 3.19802 0.500817 0
M  V30 3658 H 338.456 3.27102 -1.81535 0
M  V30 3659 H 339.789 4.31317 -2.37121 0
M  V30 3660 N 341.441 0.965919 1.2453 0
M  V30 3661 C 342.404 0.499547 2.2369 0
M  V30 3662 C 343.404 -0.40294 1.5567 0
M  V30 3663 O 344.594 -0.19865 1.73064 0
M  V30 3664 C 341.726 -0.276792 3.39774 0
M  V30 3665 H 342.919 1.37613 2.66463 0
M  V30 3666 H 340.472 0.750324 1.37112 0
M  V30 3667 H 341.207 -1.17055 3.02438 0
M  V30 3668 H 340.992 0.370826 3.90343 0
M  V30 3669 H 342.482 -0.592175 4.1338 0
M  V30 3670 N 342.919 -1.39368 0.735821 0
M  V30 3671 C 343.882 -2.2896 0.104874 0
M  V30 3672 C 344.882 -1.46347 -0.666274 0
M  V30 3673 O 346.072 -1.67014 -0.49517 0
M  V30 3674 C 343.204 -3.29857 -0.860656 0
M  V30 3675 H 344.397 -2.86259 0.894205 0
M  V30 3676 H 341.95 -1.48029 0.501704 0
M  V30 3677 H 342.685 -2.77615 -1.67631 0
M  V30 3678 H 342.47 -3.9087 -0.310327 0
M  V30 3679 H 343.96 -3.96893 -1.29867 0
M  V30 3680 N 344.397 -0.483516 -1.5 0
M  V30 3681 C 345.643 0.0672592 -2.02688 0
M  V30 3682 C 345.976 1.38247 -1.36387 0
M  V30 3683 O 345.251 1.88131 -0.493675 0
M  V30 3684 C 345.534 0.238109 -3.59312 0
M  V30 3685 C 345.387 -1.099 -4.36168 0
M  V30 3686 C 346.706 0.986916 -4.28892 0
M  V30 3687 H 343.825 0.0229696 -0.736642 0
M  V30 3688 H 346.467 -0.631527 -1.79197 0
M  V30 3689 H 344.617 0.8333 -3.79458 0
M  V30 3690 H 346.289 -1.73172 -4.27562 0
M  V30 3691 H 344.532 -1.69261 -3.99416 0
M  V30 3692 H 345.203 -0.932954 -5.44059 0
M  V30 3693 H 347.679 0.482302 -4.13295 0
M  V30 3694 H 346.555 1.07527 -5.38265 0
M  V30 3695 H 346.816 2.0265 -3.92919 0
M  V30 3696 N 345.875 1.56104 -0.216619 0
M  V30 3697 C 347.123 1.97781 0.415593 0
M  V30 3698 C 347.444 1.10536 1.60645 0
M  V30 3699 O 346.714 0.181303 1.95059 0
M  V30 3700 H 345.294 0.730415 0.156534 0
M  V30 3701 H 347.956 1.92445 -0.308366 0
M  V30 3702 H 347.052 3.03072 0.74525 0
M  V30 3703 N 347.353 -0.0568162 1.57498 0
M  V30 3704 C 348.3 -1.06591 2.04712 0
M  V30 3705 C 349.27 -1.3758 0.930644 0
M  V30 3706 O 350.455 -1.48392 1.19935 0
M  V30 3707 C 347.595 -2.3701 2.50839 0
M  V30 3708 C 346.708 -2.12421 3.76167 0
M  V30 3709 C 345.843 -3.36511 4.11015 0
M  V30 3710 C 344.882 -3.07353 5.2934 0
M  V30 3711 N 344.019 -4.23816 5.59754 0
M  V30 3712 H 348.859 -0.65631 2.90683 0
M  V30 3713 H 346.396 -0.312481 1.43743 0
M  V30 3714 H 348.354 -3.13175 2.7564 0
M  V30 3715 H 346.984 -2.75744 1.67825 0
M  V30 3716 H 346.036 -1.2688 3.58616 0
M  V30 3717 H 347.348 -1.86894 4.62463 0
M  V30 3718 H 346.502 -4.21062 4.36797 0
M  V30 3719 H 345.241 -3.65128 3.23315 0
M  V30 3720 H 344.246 -2.212 5.03339 0
M  V30 3721 H 345.471 -2.80043 6.1867 0
M  V30 3722 H 343.417 -4.52436 4.75014 0
M  V30 3723 H 343.334 -4.01614 6.40501 0
M  V30 3724 H 344.602 -5.0932 5.90096 0
M  V30 3725 N 348.832 -1.54138 -0.328536 0
M  V30 3726 C 349.762 -1.86167 -1.40939 0
M  V30 3727 C 350.743 -0.718044 -1.54202 0
M  V30 3728 O 351.928 -0.971328 -1.68163 0
M  V30 3729 C 349.058 -2.08461 -2.77779 0
M  V30 3730 C 348.012 -3.24299 -2.7931 0
M  V30 3731 C 347.338 -3.31955 -4.19178 0
M  V30 3732 C 348.638 -4.62065 -2.43502 0
M  V30 3733 H 350.332 -2.76689 -1.14383 0
M  V30 3734 H 347.878 -1.33132 -0.548806 0
M  V30 3735 H 349.831 -2.29453 -3.53454 0
M  V30 3736 H 348.555 -1.14684 -3.05802 0
M  V30 3737 H 347.214 -3.03187 -2.0609 0
M  V30 3738 H 346.862 -2.35745 -4.44335 0
M  V30 3739 H 346.562 -4.09805 -4.2111 0
M  V30 3740 H 348.086 -3.55175 -4.96672 0
M  V30 3741 H 349.5 -4.8297 -3.08889 0
M  V30 3742 H 347.897 -5.42429 -2.56693 0
M  V30 3743 H 348.967 -4.64652 -1.38659 0
M  V30 3744 N 350.31 0.590341 -1.46126 0
M  V30 3745 C 351.273 1.68194 -1.55703 0
M  V30 3746 C 352.273 1.54808 -0.434868 0
M  V30 3747 O 353.463 1.59564 -0.698928 0
M  V30 3748 C 350.595 3.07575 -1.47005 0
M  V30 3749 H 351.788 1.61064 -2.52979 0
M  V30 3750 H 349.341 0.807541 -1.33823 0
M  V30 3751 H 350.076 3.20268 -0.509785 0
M  V30 3752 H 349.861 3.187 -2.28414 0
M  V30 3753 H 351.351 3.87055 -1.56776 0
M  V30 3754 N 351.788 1.33704 0.83433 0
M  V30 3755 C 352.735 1.24335 1.94447 0
M  V30 3756 C 353.705 0.120991 1.65659 0
M  V30 3757 O 354.89 0.300035 1.88426 0
M  V30 3758 C 352.03 0.993124 3.30501 0
M  V30 3759 C 351.143 2.20217 3.71657 0
M  V30 3760 C 350.278 1.88572 4.96602 0
M  V30 3761 C 349.317 3.05683 5.30306 0
M  V30 3762 N 348.454 2.73997 6.46429 0
M  V30 3763 H 353.294 2.1928 2.01792 0
M  V30 3764 H 350.831 1.09035 0.987404 0
M  V30 3765 H 352.789 0.828467 4.08892 0
M  V30 3766 H 351.419 0.0803902 3.227 0
M  V30 3767 H 350.471 2.47642 2.88752 0
M  V30 3768 H 351.783 3.07752 3.92543 0
M  V30 3769 H 350.937 1.68776 5.82752 0
M  V30 3770 H 349.676 0.982799 4.77695 0
M  V30 3771 H 348.681 3.26088 4.42659 0
M  V30 3772 H 349.906 3.96737 5.51159 0
M  V30 3773 H 347.852 1.86268 6.28999 0
M  V30 3774 H 347.769 3.55064 6.67432 0
M  V30 3775 H 349.037 2.57679 7.35678 0
M  V30 3776 N 353.266 -1.05314 1.17247 0
M  V30 3777 C 354.494 -1.81971 0.984593 0
M  V30 3778 C 354.909 -1.82929 -0.467166 0
M  V30 3779 O 354.266 -1.25564 -1.32438 0
M  V30 3780 C 354.317 -3.28143 1.51672 0
M  V30 3781 O 354.038 -3.27347 2.91163 0
M  V30 3782 C 355.539 -4.21493 1.37326 0
M  V30 3783 H 352.759 -0.573455 0.348411 0
M  V30 3784 H 355.303 -1.32808 1.55506 0
M  V30 3785 H 353.458 -3.74582 0.988302 0
M  V30 3786 H 353.872 -4.18824 3.15732 0
M  V30 3787 H 355.346 -5.22043 1.79375 0
M  V30 3788 H 355.823 -4.38031 0.320169 0
M  V30 3789 H 356.429 -3.80909 1.89178 0
M  V30 3790 N 354.744 -0.972509 -1.24016 0
M  V30 3791 C 356.155 -0.67517 -1.74064 0
M  V30 3792 C 356.506 0.808939 -1.78747 0
M  V30 3793 O 355.631 1.63286 -1.42009 0
M  V30 3794 C 356.226 -1.21889 -3.16115 0
M  V30 3795 C 354.785 -0.971358 -3.6365 0
M  V30 3796 C 353.932 -1.35134 -2.42145 0
M  V30 3797 H 356.883 -1.14727 -1.09651 0
M  V30 3798 H 356.904 -0.587489 -3.75937 0
M  V30 3799 H 356.416 -2.29906 -3.12674 0
M  V30 3800 H 354.517 0.0930686 -3.72484 0
M  V30 3801 H 354.63 -1.62039 -4.50866 0
M  V30 3802 H 352.994 -0.769751 -2.4279 0
M  V30 3803 H 353.777 -2.4411 -2.41381 0
M  V30 3804 N 356.222 1.38976 -0.743202 0
M  V30 3805 C 357.152 2.33171 -0.123873 0
M  V30 3806 C 358.133 1.54336 0.71516 0
M  V30 3807 O 359.318 1.82696 0.658467 0
M  V30 3808 C 356.448 3.38474 0.777978 0
M  V30 3809 C 355.402 4.27979 0.0424758 0
M  V30 3810 C 354.728 5.2405 1.06189 0
M  V30 3811 C 356.028 5.10155 -1.1198 0
M  V30 3812 H 357.722 2.85213 -0.910709 0
M  V30 3813 H 355.268 1.37133 -0.439388 0
M  V30 3814 H 357.221 4.03328 1.22084 0
M  V30 3815 H 355.945 2.84891 1.59702 0
M  V30 3816 H 354.604 3.64616 -0.380853 0
M  V30 3817 H 354.252 4.66758 1.87472 0
M  V30 3818 H 353.952 5.84785 0.574485 0
M  V30 3819 H 355.476 5.9178 1.50428 0
M  V30 3820 H 356.89 5.68307 -0.75499 0
M  V30 3821 H 355.287 5.80073 -1.53738 0
M  V30 3822 H 356.357 4.44504 -1.93764 0
M  V30 3823 N 357.7 0.491464 1.49741 0
M  V30 3824 C 358.949 -0.0582189 2.01616 0
M  V30 3825 C 359.262 -1.38927 1.3769 0
M  V30 3826 O 360.468 -2.02509 1.80838 0
M  V30 3827 C 358.924 -0.154235 3.59569 0
M  V30 3828 C 358.532 1.1696 4.32463 0
M  V30 3829 C 360.276 -0.65479 4.1942 0
M  V30 3830 C 358.183 1.03627 5.8225 0
M  V30 3831 H 357.113 -0.0255317 0.753568 0
M  V30 3832 H 359.764 0.629445 1.72367 0
M  V30 3833 H 358.146 -0.906138 3.85493 0
M  V30 3834 H 359.32 1.93405 4.18248 0
M  V30 3835 H 357.635 1.60285 3.84315 0
M  V30 3836 H 360.232 -0.771903 5.29099 0
M  V30 3837 H 360.575 -1.65127 3.8215 0
M  V30 3838 H 361.108 0.040304 3.9778 0
M  V30 3839 H 357.847 2.00672 6.24028 0
M  V30 3840 H 357.367 0.312546 5.98985 0
M  V30 3841 H 359.046 0.711114 6.4308 0
M  V30 3842 N 359.178 -1.55987 0.224894 0
M  V30 3843 C 360.141 -2.19178 -0.670348 0
M  V30 3844 C 361.141 -1.15461 -1.11917 0
M  V30 3845 O 362.331 -1.40675 -1.02743 0
M  V30 3846 C 359.463 -2.81777 -1.9187 0
M  V30 3847 H 360.656 -2.99662 -0.119364 0
M  V30 3848 H 358.209 -1.5628 -0.0247128 0
M  V30 3849 H 358.944 -2.05172 -2.51147 0
M  V30 3850 H 358.729 -3.57732 -1.60531 0
M  V30 3851 H 360.219 -3.30205 -2.55645 0
M  V30 3852 N 360.656 0.0484629 -1.57525 0
M  V30 3853 C 361.933 0.777447 -1.79486 0
M  V30 3854 C 362.313 1.94597 -0.818251 0
M  V30 3855 O 361.661 2.28047 0.143767 0
M  V30 3856 C 361.871 1.22864 -3.26658 0
M  V30 3857 C 363.219 1.65251 -3.91123 0
M  V30 3858 O 364.243 1.32372 -3.3069 0
M  V30 3859 O 363.102 2.26207 -4.97486 0
M  V30 3860 H 360.196 0.374357 -0.737419 0
M  V30 3861 H 362.742 0.0267359 -1.69679 0
M  V30 3862 H 361.514 0.393589 -3.89316 0
M  V30 3863 H 361.137 2.03996 -3.41279 0
M  V30 3864 N 362.134 1.5431 0.320358 0
M  V30 3865 C 363.38 1.72924 1.05949 0
M  V30 3866 C 363.713 0.503185 1.87568 0
M  V30 3867 O 362.988 -0.499839 1.87968 0
M  V30 3868 C 363.271 3.00676 1.98156 0
M  V30 3869 C 363.124 4.3354 1.19845 0
M  V30 3870 C 364.443 3.24198 2.9763 0
M  V30 3871 H 361.562 0.629195 0.383774 0
M  V30 3872 H 364.204 1.87008 0.335854 0
M  V30 3873 H 362.354 2.888 2.59859 0
M  V30 3874 H 364.026 4.57305 0.605773 0
M  V30 3875 H 362.269 4.309 0.500784 0
M  V30 3876 H 362.94 5.19156 1.87567 0
M  V30 3877 H 365.416 3.35557 2.4605 0
M  V30 3878 H 364.292 4.14938 3.59329 0
M  V30 3879 H 364.553 2.41577 3.7026 0
M  V30 3880 N 363.613 -0.582584 1.46437 0
M  V30 3881 C 364.843 -1.36484 1.55099 0
M  V30 3882 C 365.251 -1.88233 0.191056 0
M  V30 3883 O 364.594 -1.6429 -0.821858 0
M  V30 3884 C 364.656 -2.588 2.49525 0
M  V30 3885 C 364.32 -2.28517 3.95764 0
M  V30 3886 C 365.317 -1.87346 4.84972 0
M  V30 3887 C 363.002 -2.40658 4.40896 0
M  V30 3888 C 364.996 -1.5871 6.17325 0
M  V30 3889 C 362.683 -2.11635 5.73284 0
M  V30 3890 C 363.681 -1.70725 6.61318 0
M  V30 3891 O 363.369 -1.42057 7.91249 0
M  V30 3892 H 363.101 -0.423297 0.527063 0
M  V30 3893 H 365.655 -0.715188 1.92547 0
M  V30 3894 H 363.885 -3.26571 2.07095 0
M  V30 3895 H 365.574 -3.20868 2.48593 0
M  V30 3896 H 366.34 -1.77481 4.5136 0
M  V30 3897 H 362.219 -2.71463 3.72598 0
M  V30 3898 H 365.763 -1.26704 6.85997 0
M  V30 3899 H 361.66 -2.21124 6.06444 0
M  V30 3900 H 362.428 -1.55901 8.03515 0
M  V30 3901 N 365.091 -1.34144 -0.827227 0
M  V30 3902 C 366.321 -1.29138 -1.61267 0
M  V30 3903 C 366.729 0.137597 -1.88699 0
M  V30 3904 O 366.072 1.09379 -1.47587 0
M  V30 3905 C 366.134 -2.0097 -2.9808 0
M  V30 3906 C 365.798 -3.50242 -2.93563 0
M  V30 3907 C 366.795 -4.4523 -2.68452 0
M  V30 3908 C 364.48 -3.92592 -3.13331 0
M  V30 3909 C 366.474 -5.80542 -2.63154 0
M  V30 3910 C 364.161 -5.28005 -3.07658 0
M  V30 3911 C 365.159 -6.21792 -2.82602 0
M  V30 3912 O 364.847 -7.54723 -2.76853 0
M  V30 3913 H 364.579 -0.445851 -0.508127 0
M  V30 3914 H 367.133 -1.77263 -1.03763 0
M  V30 3915 H 365.363 -1.47451 -3.57484 0
M  V30 3916 H 367.052 -1.89309 -3.5905 0
M  V30 3917 H 367.818 -4.13832 -2.52919 0
M  V30 3918 H 363.697 -3.19994 -3.31851 0
M  V30 3919 H 367.241 -6.53717 -2.43516 0
M  V30 3920 H 363.138 -5.59023 -3.22743 0
M  V30 3921 H 363.906 -7.64409 -2.92611 0
M  V30 3922 N 366.569 1.04691 -1.17803 0
M  V30 3923 C 367.818 1.77176 -0.963931 0
M  V30 3924 C 368.131 1.88888 0.508015 0
M  V30 3925 O 369.337 2.58164 0.840465 0
M  V30 3926 C 367.793 3.18518 -1.67555 0
M  V30 3927 C 367.401 3.14919 -3.18637 0
M  V30 3928 C 369.145 3.95424 -1.54402 0
M  V30 3929 C 367.052 4.51081 -3.82466 0
M  V30 3930 H 365.982 0.664116 -0.357023 0
M  V30 3931 H 368.633 1.17303 -1.4111 0
M  V30 3932 H 367.015 3.78748 -1.15613 0
M  V30 3933 H 368.189 2.64178 -3.77554 0
M  V30 3934 H 366.504 2.51512 -3.31859 0
M  V30 3935 H 369.101 4.96106 -1.99456 0
M  V30 3936 H 369.444 4.13343 -0.495329 0
M  V30 3937 H 369.977 3.41754 -2.0359 0
M  V30 3938 H 366.716 4.38368 -4.87354 0
M  V30 3939 H 366.236 5.01951 -3.28337 0
M  V30 3940 H 367.915 5.2001 -3.84965 0
M  V30 3941 N 368.047 0.979072 1.23499 0
M  V30 3942 C 369.293 0.648178 1.92163 0
M  V30 3943 C 369.626 -0.816049 1.76222 0
M  V30 3944 O 368.901 -1.58849 1.12237 0
M  V30 3945 C 369.184 1.03773 3.44824 0
M  V30 3946 C 369.037 2.55948 3.69879 0
M  V30 3947 C 370.356 0.580653 4.36253 0
M  V30 3948 H 367.475 0.236952 0.69787 0
M  V30 3949 H 370.117 1.22012 1.45647 0
M  V30 3950 H 368.267 0.551058 3.84572 0
M  V30 3951 H 369.939 3.12179 3.3962 0
M  V30 3952 H 368.182 2.98641 3.14636 0
M  V30 3953 H 368.853 2.78255 4.76737 0
M  V30 3954 H 371.329 0.998465 4.03943 0
M  V30 3955 H 370.205 0.881663 5.41773 0
M  V30 3956 H 370.466 -0.519052 4.39042 0
M  V30 3957 N 369.525 -1.3858 0.750561 0
M  V30 3958 C 370.773 -1.99789 0.30477 0
M  V30 3959 C 371.094 -1.59874 -1.11649 0
M  V30 3960 O 370.364 -0.85417 -1.76297 0
M  V30 3961 H 368.944 -0.738902 0.109694 0
M  V30 3962 H 371.606 -1.69391 0.963983 0
M  V30 3963 H 370.702 -3.09952 0.365499 0
M  V30 3964 N 371.003 -0.499398 -1.49478 0
M  V30 3965 C 372.251 0.0455996 -2.02049 0
M  V30 3966 C 372.572 1.37633 -1.38138 0
M  V30 3967 O 371.842 1.8842 -0.536166 0
M  V30 3968 H 370.422 0.0198416 -0.746736 0
M  V30 3969 H 373.084 -0.656274 -1.83519 0
M  V30 3970 H 372.18 0.176445 -3.11601 0
M  V30 3971 N 372.481 1.55866 -0.233164 0
M  V30 3972 C 373.709 2.02998 0.399905 0
M  V30 3973 C 374.124 1.11274 1.52524 0
M  V30 3974 O 373.481 0.124528 1.82075 0
M  V30 3975 C 373.532 3.4958 0.920639 0
M  V30 3976 O 373.253 4.37808 -0.159834 0
M  V30 3977 C 374.754 4.12411 1.62578 0
M  V30 3978 H 371.974 0.664006 0.0966281 0
M  V30 3979 H 374.518 2.0143 -0.353013 0
M  V30 3980 H 372.673 3.51727 1.62379 0
M  V30 3981 H 373.087 5.23981 0.23337 0
M  V30 3982 H 374.561 5.16711 1.94201 0
M  V30 3983 H 375.038 3.5809 2.54299 0
M  V30 3984 H 375.644 4.14148 0.967553 0
M  V30 3985 N 373.959 -0.0401083 1.57549 0
M  V30 3986 C 375.184 -0.748931 1.93406 0
M  V30 3987 C 375.609 -1.68686 0.832274 0
M  V30 3988 O 374.967 -1.80047 -0.212818 0
M  V30 3989 C 375.015 -1.4916 3.28304 0
M  V30 3990 O 374.119 -2.6042 3.19774 0
M  V30 3991 H 373.46 -0.202212 0.63246 0
M  V30 3992 H 375.99 0.00112086 2.046 0
M  V30 3993 H 376 -1.86395 3.62934 0
M  V30 3994 H 374.675 -0.80364 4.08062 0
M  V30 3995 H 373.252 -2.25808 2.96758 0
M  V30 3996 N 375.437 -1.54477 -0.31217 0
M  V30 3997 C 376.848 -1.64344 -0.885891 0
M  V30 3998 C 377.199 -0.54485 -1.88483 0
M  V30 3999 O 376.324 0.320387 -2.14015 0
M  V30 4000 C 376.919 -2.97908 -1.61357 0
M  V30 4001 C 375.478 -3.09933 -2.13585 0
M  V30 4002 C 374.625 -2.59971 -0.964897 0
M  V30 4003 H 377.576 -1.58448 -0.0894528 0
M  V30 4004 H 377.597 -2.88706 -2.47848 0
M  V30 4005 H 377.109 -3.77845 -0.886277 0
M  V30 4006 H 375.21 -2.34694 -2.89395 0
M  V30 4007 H 375.323 -4.15916 -2.37804 0
M  V30 4008 H 373.687 -2.16147 -1.34731 0
M  V30 4009 H 374.47 -3.42376 -0.251742 0
M  V30 4010 N 376.915 0.57481 -1.46744 0
M  V30 4011 C 378.331 0.898981 -1.31873 0
M  V30 4012 C 378.531 1.99313 -0.29605 0
M  V30 4013 O 377.587 2.50728 0.298621 0
M  V30 4014 C 378.9 1.30886 -2.7072 0
M  V30 4015 C 380.448 1.42127 -2.78871 0
M  V30 4016 C 380.923 1.86478 -4.18318 0
M  V30 4017 N 382.414 1.93658 -4.20774 0
M  V30 4018 C 383.149 2.29267 -5.2557 0
M  V30 4019 N 382.645 2.63612 -6.40688 0
M  V30 4020 N 384.438 2.29889 -5.1294 0
M  V30 4021 H 376.589 -0.147839 -2.11885 0
M  V30 4022 H 378.852 -0.00347013 -0.947994 0
M  V30 4023 H 378.558 0.578853 -3.46904 0
M  V30 4024 H 378.432 2.26874 -3.01343 0
M  V30 4025 H 380.819 2.14213 -2.0297 0
M  V30 4026 H 380.9 0.443705 -2.51922 0
M  V30 4027 H 380.544 1.14968 -4.94717 0
M  V30 4028 H 380.474 2.85207 -4.42679 0
M  V30 4029 H 382.965 1.69574 -3.37718 0
M  V30 4030 H 383.278 2.89759 -7.16421 0
M  V30 4031 H 381.623 2.61232 -6.44036 0
M  V30 4032 H 384.814 2.02485 -4.22039 0
M  V30 4033 H 384.987 2.57312 -5.94722 0
M  V30 4034 N 378.394 1.34581 0.820102 0
M  V30 4035 C 379.304 1.28471 1.96297 0
M  V30 4036 C 380.32 0.191902 1.72939 0
M  V30 4037 O 381.496 0.418879 1.96996 0
M  V30 4038 C 378.561 1.04281 3.30645 0
M  V30 4039 C 377.622 2.22745 3.66992 0
M  V30 4040 C 376.855 1.997 4.9493 0
M  V30 4041 O 377.078 0.956656 5.6232 0
M  V30 4042 O 376.012 2.86723 5.2922 0
M  V30 4043 H 379.838 2.24624 2.04396 0
M  V30 4044 H 377.423 1.14816 0.955913 0
M  V30 4045 H 379.305 0.925841 4.11104 0
M  V30 4046 H 377.98 0.111697 3.23507 0
M  V30 4047 H 376.887 2.40003 2.86966 0
M  V30 4048 H 378.22 3.14257 3.78819 0
M  V30 4049 N 379.872 -1.04064 1.18357 0
M  V30 4050 C 381.12 -1.76915 0.977013 0
M  V30 4051 C 381.441 -1.88624 -0.494577 0
M  V30 4052 O 380.711 -1.41125 -1.3587 0
M  V30 4053 H 379.291 -0.65535 0.358504 0
M  V30 4054 H 381.953 -1.25592 1.49039 0
M  V30 4055 H 381.049 -2.78178 1.41504 0
M  V30 4056 N 381.35 -0.985608 -1.22978 0
M  V30 4057 C 382.596 -0.65836 -1.91816 0
M  V30 4058 C 382.929 0.806692 -1.76653 0
M  V30 4059 O 382.204 1.58252 -1.13078 0
M  V30 4060 C 382.487 -1.056 -3.44268 0
M  V30 4061 C 382.34 -2.57906 -3.68516 0
M  V30 4062 C 383.659 -0.603781 -4.35939 0
M  V30 4063 H 380.778 -0.24065 -0.696604 0
M  V30 4064 H 383.42 -1.22783 -1.44998 0
M  V30 4065 H 381.57 -0.571445 -3.84274 0
M  V30 4066 H 383.242 -3.13976 -3.3796 0
M  V30 4067 H 381.485 -3.00305 -3.13048 0
M  V30 4068 H 382.156 -2.80779 -4.75255 0
M  V30 4069 H 384.632 -1.01987 -4.03408 0
M  V30 4070 H 383.508 -0.910383 -5.41298 0
M  V30 4071 H 383.769 0.495761 -4.39312 0
M  V30 4072 N 382.828 1.3818 -0.7579 0
M  V30 4073 C 384.074 2.00316 -0.316453 0
M  V30 4074 C 384.407 1.60026 1.10025 0
M  V30 4075 O 383.682 0.839835 1.75434 0
M  V30 4076 C 383.965 3.57349 -0.444245 0
M  V30 4077 C 383.818 4.07591 -1.90236 0
M  V30 4078 C 385.137 4.3981 0.1598 0
M  V30 4079 H 382.256 0.727741 -0.116459 0
M  V30 4080 H 384.898 1.6406 -0.958352 0
M  V30 4081 H 383.048 3.88365 0.102233 0
M  V30 4082 H 384.72 3.87199 -2.50748 0
M  V30 4083 H 382.963 3.60297 -2.41595 0
M  V30 4084 H 383.634 5.16677 -1.94291 0
M  V30 4085 H 386.11 4.14971 -0.306314 0
M  V30 4086 H 384.986 5.48885 0.0401675 0
M  V30 4087 H 385.247 4.24102 1.24859 0
M  V30 4088 N 384.306 0.507319 1.49211 0
M  V30 4089 C 385.555 -0.0368315 2.01666 0
M  V30 4090 C 385.868 -1.37459 1.39156 0
M  V30 4091 O 387.074 -2.00579 1.82976 0
M  V30 4092 C 385.53 -0.116089 3.59713 0
M  V30 4093 C 385.138 1.2154 4.31198 0
M  V30 4094 C 386.882 -0.610268 4.2009 0
M  V30 4095 C 384.789 1.09796 5.81119 0
M  V30 4096 H 383.719 -0.0175376 0.753796 0
M  V30 4097 H 386.37 0.647691 1.71689 0
M  V30 4098 H 384.752 -0.8652 3.86433 0
M  V30 4099 H 385.926 1.9783 4.16173 0
M  V30 4100 H 384.241 1.64352 3.82593 0
M  V30 4101 H 386.838 -0.715742 5.29888 0
M  V30 4102 H 387.181 -1.61064 3.8388 0
M  V30 4103 H 387.714 0.0824916 3.97714 0
M  V30 4104 H 384.453 2.0728 6.21864 0
M  V30 4105 H 383.973 0.376058 5.9862 0
M  V30 4106 H 385.652 0.779281 6.4229 0
M  V30 4107 N 385.784 -1.5574 0.241426 0
M  V30 4108 C 387.012 -2.03208 -0.389134 0
M  V30 4109 C 387.427 -1.12082 -1.51931 0
M  V30 4110 O 386.784 -0.134183 -1.82006 0
M  V30 4111 C 386.835 -3.50064 -0.902087 0
M  V30 4112 O 386.556 -4.37717 0.18305 0
M  V30 4113 C 388.057 -4.13268 -1.60389 0
M  V30 4114 H 385.277 -0.664509 -0.0931053 0
M  V30 4115 H 387.821 -2.0124 0.36369 0
M  V30 4116 H 385.976 -3.52583 -1.60511 0
M  V30 4117 H 386.39 -5.24097 -0.205579 0
M  V30 4118 H 387.864 -5.17733 -1.91458 0
M  V30 4119 H 388.341 -3.59434 -2.52397 0
M  V30 4120 H 388.947 -4.14655 -0.945576 0
M  V30 4121 N 387.262 0.0317525 -1.57568 0
M  V30 4122 C 388.678 0.38735 -1.54828 0
M  V30 4123 C 388.878 1.7677 -0.967187 0
M  V30 4124 O 387.934 2.45581 -0.587063 0
M  V30 4125 C 389.247 0.291667 -2.99282 0
M  V30 4126 C 390.795 0.368946 -3.10818 0
M  V30 4127 C 391.27 0.302741 -4.56998 0
M  V30 4128 N 392.761 0.361617 -4.61786 0
M  V30 4129 C 393.496 0.333238 -5.72431 0
M  V30 4130 N 392.992 0.257308 -6.92322 0
M  V30 4131 N 394.785 0.382769 -5.60795 0
M  V30 4132 H 386.936 -0.871609 -1.93692 0
M  V30 4133 H 389.199 -0.331161 -0.888277 0
M  V30 4134 H 388.905 -0.656794 -3.45513 0
M  V30 4135 H 388.779 1.08638 -3.61217 0
M  V30 4136 H 391.166 1.30784 -2.64536 0
M  V30 4137 H 391.247 -0.455066 -2.5172 0
M  V30 4138 H 390.891 -0.632473 -5.03947 0
M  V30 4139 H 390.821 1.14482 -5.14005 0
M  V30 4140 H 393.312 0.422923 -3.75526 0
M  V30 4141 H 393.625 0.24068 -7.72425 0
M  V30 4142 H 391.97 0.223396 -6.94641 0
M  V30 4143 H 395.161 0.44006 -4.66027 0
M  V30 4144 H 395.334 0.357184 -6.47015 0
M  V30 4145 N 388.74 1.54641 0.303973 0
M  V30 4146 C 389.688 1.86137 1.39484 0
M  V30 4147 C 390.682 0.734854 1.52631 0
M  V30 4148 O 391.888 0.918803 1.54784 0
M  V30 4149 H 388.263 0.590324 0.465856 0
M  V30 4150 H 390.234 2.77324 1.10154 0
M  V30 4151 C 388.983 2.12274 2.75382 0
M  V30 4152 H 388.306 2.98429 2.66046 0
M  V30 4153 H 389.746 2.38254 3.5073 0
M  V30 4154 C 388.205 0.920365 3.24085 0
M  V30 4155 O 388.735 0.139377 4.01458 0
M  V30 4156 N 386.941 0.726566 2.81371 0
M  V30 4157 H 386.488 1.36332 2.18567 0
M  V30 4158 H 386.446 -0.0763799 3.14307 0
M  V30 4159 N 390.218 -0.567019 1.47046 0
M  V30 4160 C 391.634 -0.891975 1.32348 0
M  V30 4161 C 391.834 -1.99154 0.306616 0
M  V30 4162 O 390.89 -2.50883 -0.28532 0
M  V30 4163 C 392.203 -1.29449 2.7141 0
M  V30 4164 C 393.751 -1.40646 2.79621 0
M  V30 4165 C 394.226 -1.84257 4.19301 0
M  V30 4166 N 395.717 -1.91424 4.21795 0
M  V30 4167 C 396.452 -2.26476 5.26779 0
M  V30 4168 N 395.948 -2.60211 6.42077 0
M  V30 4169 N 397.741 -2.27166 5.14152 0
M  V30 4170 H 389.892 0.159074 2.11803 0
M  V30 4171 H 392.155 0.00849752 0.947962 0
M  V30 4172 H 391.861 -0.560448 3.47206 0
M  V30 4173 H 391.735 -2.25273 3.02542 0
M  V30 4174 H 394.122 -2.13133 2.04104 0
M  V30 4175 H 394.203 -0.430339 2.52154 0
M  V30 4176 H 393.847 -1.12343 4.95319 0
M  V30 4177 H 393.777 -2.82855 4.44185 0
M  V30 4178 H 396.268 -1.6778 3.38612 0
M  V30 4179 H 396.581 -2.85956 7.17948 0
M  V30 4180 H 394.926 -2.57813 6.45413 0
M  V30 4181 H 398.117 -2.00244 4.23107 0
M  V30 4182 H 398.29 -2.54154 5.96079 0
M  V30 4183 N 391.696 -1.35014 -0.812953 0
M  V30 4184 C 392.973 -1.18502 -1.55617 0
M  V30 4185 C 393.353 0.238421 -2.09749 0
M  V30 4186 O 392.701 1.2411 -1.91857 0
M  V30 4187 C 392.911 -2.24783 -2.66971 0
M  V30 4188 C 394.259 -2.60268 -3.35478 0
M  V30 4189 O 395.283 -2.23648 -2.77236 0
M  V30 4190 O 394.142 -3.2321 -4.40678 0
M  V30 4191 H 391.236 -0.459984 -0.687272 0
M  V30 4192 H 393.782 -1.46677 -0.853464 0
M  V30 4193 H 392.554 -3.20284 -2.24798 0
M  V30 4194 H 392.177 -1.97841 -3.44884 0
M  V30 4195 N 393.175 1.03435 -1.18907 0
M  V30 4196 C 394.423 1.76394 -0.986382 0
M  V30 4197 C 394.744 1.88883 0.484567 0
M  V30 4198 O 394.014 1.41843 1.3512 0
M  V30 4199 H 392.594 0.65344 -0.361975 0
M  V30 4200 H 395.256 1.248 -1.49703 0
M  V30 4201 H 394.352 2.77424 -1.42978 0
M  V30 4202 N 394.653 0.992116 1.22453 0
M  V30 4203 C 396.064 0.702776 1.72968 0
M  V30 4204 C 396.415 -0.780399 1.80012 0
M  V30 4205 O 395.54 -1.61007 1.44589 0
M  V30 4206 C 396.135 1.26903 3.14135 0
M  V30 4207 C 394.694 1.02909 3.62059 0
M  V30 4208 C 393.841 1.38969 2.39964 0
M  V30 4209 H 396.792 1.16457 1.07812 0
M  V30 4210 H 396.813 0.647223 3.74955 0
M  V30 4211 H 396.325 2.34851 3.08977 0
M  V30 4212 H 394.426 -0.0337979 3.72585 0
M  V30 4213 H 394.539 1.69191 4.48231 0
M  V30 4214 H 392.903 0.808279 2.41535 0
M  V30 4215 H 393.686 2.4792 2.37467 0
M  V30 4216 N 396.131 -1.37776 0.765217 0
M  V30 4217 C 397.094 -2.28686 0.153416 0
M  V30 4218 C 398.094 -1.47727 -0.635081 0
M  V30 4219 O 399.284 -1.68027 -0.459632 0
M  V30 4220 C 396.416 -3.31608 -0.790495 0
M  V30 4221 H 397.609 -2.84297 0.954723 0
M  V30 4222 H 395.162 -1.46932 0.53299 0
M  V30 4223 H 395.897 -2.81109 -1.61705 0
M  V30 4224 H 395.682 -3.9144 -0.227348 0
M  V30 4225 H 397.172 -3.99559 -1.21419 0
M  V30 4226 N 397.609 -0.515225 -1.4894 0
M  V30 4227 C 398.886 0.0879088 -1.95402 0
M  V30 4228 C 399.266 1.52745 -1.45712 0
M  V30 4229 O 398.614 2.18238 -0.677093 0
M  V30 4230 C 398.824 -0.0141055 -3.48997 0
M  V30 4231 C 400.172 0.152646 -4.24326 0
M  V30 4232 O 401.196 0.0604025 -3.56149 0
M  V30 4233 O 400.055 0.34384 -5.45417 0
M  V30 4234 H 397.149 0.0874636 -0.822362 0
M  V30 4235 H 399.695 -0.578775 -1.59525 0
M  V30 4236 H 398.467 -1.01745 -3.77841 0
M  V30 4237 H 398.09 0.692091 -3.9153 0
M  V30 4238 N 399.087 1.5561 -0.249682 0
M  V30 4239 C 400.336 1.98187 0.37479 0
M  V30 4240 C 400.649 1.14111 1.58865 0
M  V30 4241 O 401.855 1.46714 2.28445 0
M  V30 4242 C 400.311 3.52661 0.718192 0
M  V30 4243 C 399.919 4.45481 -0.474428 0
M  V30 4244 C 401.663 4.03888 1.3067 0
M  V30 4245 C 399.57 5.91303 -0.107026 0
M  V30 4246 H 398.5 0.740159 0.143808 0
M  V30 4247 H 401.151 1.80125 -0.350336 0
M  V30 4248 H 399.533 3.66429 1.50152 0
M  V30 4249 H 400.707 4.43473 -1.25172 0
M  V30 4250 H 399.022 4.04751 -0.978052 0
M  V30 4251 H 401.619 5.10358 1.59496 0
M  V30 4252 H 401.962 3.51401 2.23211 0
M  V30 4253 H 402.495 3.93457 0.586211 0
M  V30 4254 H 399.234 6.47833 -0.999642 0
M  V30 4255 H 398.754 5.9644 0.634013 0
M  V30 4256 H 400.433 6.46258 0.309807 0
M  V30 4257 N 400.565 -0.0233959 1.57583 0
M  V30 4258 C 401.811 -0.708611 1.90657 0
M  V30 4259 C 402.166 -1.7266 0.848895 0
M  V30 4260 O 401.459 -1.91075 -0.141749 0
M  V30 4261 C 401.653 -1.41428 3.28227 0
M  V30 4262 C 401.482 -0.466155 4.47277 0
M  V30 4263 C 400.252 -0.085117 5.05228 0
M  V30 4264 C 402.45 0.257836 5.13653 0
M  V30 4265 N 400.432 0.863672 6.07794 0
M  V30 4266 C 401.803 1.06209 6.10835 0
M  V30 4267 C 403.858 0.324174 4.96844 0
M  V30 4268 C 402.561 1.9266 6.93018 0
M  V30 4269 C 404.587 1.17583 5.79593 0
M  V30 4270 C 403.949 1.96799 6.7635 0
M  V30 4271 H 400.048 -0.233222 0.746412 0
M  V30 4272 H 402.632 0.0314512 1.94675 0
M  V30 4273 H 400.803 -2.12477 3.25128 0
M  V30 4274 H 402.535 -2.05233 3.488 0
M  V30 4275 H 399.29 -0.448516 4.71471 0
M  V30 4276 H 399.714 1.33274 6.63752 0
M  V30 4277 H 404.356 -0.273975 4.21911 0
M  V30 4278 H 402.074 2.53552 7.67292 0
M  V30 4279 H 405.66 1.23076 5.68633 0
M  V30 4280 H 404.54 2.61635 7.39268 0
M  V30 4281 N 402.043 -1.548 -0.295768 0
M  V30 4282 C 403.454 -1.65274 -0.868411 0
M  V30 4283 C 403.805 -0.56481 -1.87894 0
M  V30 4284 O 402.93 0.29767 -2.14343 0
M  V30 4285 C 403.525 -2.99603 -1.58188 0
M  V30 4286 C 402.084 -3.12181 -2.10286 0
M  V30 4287 C 401.231 -2.6098 -0.93727 0
M  V30 4288 H 404.182 -1.58534 -0.0726422 0
M  V30 4289 H 404.203 -2.91319 -2.44772 0
M  V30 4290 H 403.715 -3.78764 -0.846151 0
M  V30 4291 H 401.816 -2.3775 -2.8689 0
M  V30 4292 H 401.929 -4.18415 -2.33379 0
M  V30 4293 H 400.293 -2.17564 -1.32431 0
M  V30 4294 H 401.076 -3.42623 -0.215414 0
M  V30 4295 N 403.521 0.559213 -1.47345 0
M  V30 4296 C 404.451 1.67622 -1.62558 0
M  V30 4297 C 405.432 1.63331 -0.475087 0
M  V30 4298 O 406.617 1.80983 -0.704182 0
M  V30 4299 C 403.747 3.0626 -1.63774 0
M  V30 4300 C 402.701 3.25397 -2.7803 0
M  V30 4301 C 402.027 4.64801 -2.64318 0
M  V30 4302 C 403.327 3.10965 -4.19641 0
M  V30 4303 H 405.021 1.55146 -2.56067 0
M  V30 4304 H 402.567 0.744961 -1.23233 0
M  V30 4305 H 404.52 3.84247 -1.73008 0
M  V30 4306 H 403.244 3.1969 -0.66825 0
M  V30 4307 H 401.903 2.49817 -2.68304 0
M  V30 4308 H 401.551 4.75028 -1.65401 0
M  V30 4309 H 401.251 4.78555 -3.40968 0
M  V30 4310 H 402.775 5.44926 -2.75478 0
M  V30 4311 H 404.189 3.78772 -4.30354 0
M  V30 4312 H 402.586 3.36229 -4.97062 0
M  V30 4313 H 403.656 2.07736 -4.38148 0
M  V30 4314 N 404.999 1.35443 0.805782 0
M  V30 4315 C 406.276 1.19325 1.54987 0
M  V30 4316 C 406.656 -0.227294 2.09873 0
M  V30 4317 O 406.004 -1.2309 1.92512 0
M  V30 4318 C 406.214 2.26196 2.65775 0
M  V30 4319 C 407.562 2.62043 3.34094 0
M  V30 4320 O 408.586 2.25115 2.76046 0
M  V30 4321 O 407.445 3.25542 4.38958 0
M  V30 4322 H 404.539 0.463623 0.684823 0
M  V30 4323 H 407.085 1.47127 0.845674 0
M  V30 4324 H 405.857 3.21471 2.23096 0
M  V30 4325 H 405.48 1.99667 3.43829 0
M  V30 4326 N 406.477 -1.02803 1.19454 0
M  V30 4327 C 407.888 -1.57667 0.999899 0
M  V30 4328 C 408.239 -1.91041 -0.446956 0
M  V30 4329 O 407.364 -1.70978 -1.32648 0
M  V30 4330 C 407.959 -2.86477 1.80877 0
M  V30 4331 C 406.518 -3.37911 1.65811 0
M  V30 4332 C 405.665 -2.11343 1.79526 0
M  V30 4333 H 408.616 -0.853214 1.33813 0
M  V30 4334 H 408.637 -3.57408 1.30536 0
M  V30 4335 H 408.149 -2.62155 2.86175 0
M  V30 4336 H 406.25 -3.67218 0.63102 0
M  V30 4337 H 406.363 -4.10885 2.46395 0
M  V30 4338 H 404.727 -2.23254 1.22596 0
M  V30 4339 H 405.51 -1.89461 2.86285 0
M  V30 4340 N 407.956 -0.998596 -1.21925 0
M  V30 4341 C 408.886 -0.573688 -2.26343 0
M  V30 4342 C 409.867 0.402296 -1.65274 0
M  V30 4343 O 411.052 0.291683 -1.91997 0
M  V30 4344 C 408.182 0.106839 -3.47136 0
M  V30 4345 C 407.136 -0.788269 -4.20678 0
M  V30 4346 C 406.462 0.0254927 -5.34694 0
M  V30 4347 C 407.762 -2.08784 -4.78755 0
M  V30 4348 H 409.456 -1.44651 -2.62138 0
M  V30 4349 H 407.002 -0.696975 -1.26009 0
M  V30 4350 H 408.955 0.415531 -4.19346 0
M  V30 4351 H 407.679 1.01424 -3.10452 0
M  V30 4352 H 406.338 -1.08069 -3.50309 0
M  V30 4353 H 405.986 0.933989 -4.94253 0
M  V30 4354 H 405.686 -0.570437 -5.84825 0
M  V30 4355 H 407.21 0.328147 -6.09718 0
M  V30 4356 H 408.624 -1.84272 -5.42878 0
M  V30 4357 H 407.021 -2.63307 -5.39249 0
M  V30 4358 H 408.091 -2.76284 -3.98491 0
M  V30 4359 N 409.434 1.37368 -0.772513 0
M  V30 4360 C 410.382 2.32134 -0.147111 0
M  V30 4361 C 411.376 1.54972 0.684106 0
M  V30 4362 O 412.582 1.70363 0.581083 0
M  V30 4363 H 408.957 0.751449 -0.028786 0
M  V30 4364 H 410.928 2.82464 -0.962112 0
M  V30 4365 C 409.677 3.40226 0.71703 0
M  V30 4366 H 409 3.99706 0.0867951 0
M  V30 4367 H 410.44 4.08897 1.12159 0
M  V30 4368 C 408.899 2.80372 1.86797 0
M  V30 4369 O 409.429 2.71183 2.96349 0
M  V30 4370 N 407.635 2.37904 1.66883 0
M  V30 4371 H 407.182 2.45578 0.777759 0
M  V30 4372 H 407.14 1.98202 2.44056 0
M  V30 4373 N 410.912 0.523116 1.48665 0
M  V30 4374 C 412.16 -0.0134497 2.02096 0
M  V30 4375 C 412.481 -1.35418 1.40311 0
M  V30 4376 O 411.751 -1.87543 0.566074 0
M  V30 4377 H 410.331 -0.00795915 0.746958 0
M  V30 4378 H 412.993 0.685388 1.82451 0
M  V30 4379 H 412.089 -0.126849 3.11842 0
M  V30 4380 N 412.39 -1.55475 0.257931 0
M  V30 4381 C 413.353 -2.20551 -0.623706 0
M  V30 4382 C 414.353 -1.17809 -1.09443 0
M  V30 4383 O 415.543 -1.42823 -0.997362 0
M  V30 4384 C 412.675 -2.85784 -1.8585 0
M  V30 4385 H 413.868 -2.99848 -0.0557743 0
M  V30 4386 H 411.421 -1.56298 0.0084422 0
M  V30 4387 H 412.156 -2.10453 -2.46739 0
M  V30 4388 H 411.941 -3.61057 -1.52907 0
M  V30 4389 H 413.431 -3.35553 -2.48584 0
M  V30 4390 N 413.868 0.0150385 -1.57593 0
M  V30 4391 C 415.114 0.69849 -1.91031 0
M  V30 4392 C 415.469 1.72208 -0.85804 0
M  V30 4393 O 414.762 1.91147 0.131614 0
M  V30 4394 C 414.956 1.39686 -3.28972 0
M  V30 4395 C 414.785 0.442428 -4.47518 0
M  V30 4396 C 413.555 0.0583223 -5.05266 0
M  V30 4397 C 415.753 -0.285072 -5.13509 0
M  V30 4398 N 413.735 -0.895893 -6.07328 0
M  V30 4399 C 415.106 -1.09447 -6.10263 0
M  V30 4400 C 417.161 -0.350518 -4.96665 0
M  V30 4401 C 415.864 -1.96333 -6.91987 0
M  V30 4402 C 417.89 -1.20655 -5.78962 0
M  V30 4403 C 417.252 -2.00383 -6.75297 0
M  V30 4404 H 413.351 0.22926 -0.747639 0
M  V30 4405 H 415.935 -0.0417748 -1.94655 0
M  V30 4406 H 414.106 2.1075 -3.2625 0
M  V30 4407 H 415.838 2.03381 -3.49883 0
M  V30 4408 H 412.593 0.423506 -4.71703 0
M  V30 4409 H 413.017 -1.36792 -6.63036 0
M  V30 4410 H 417.659 0.251596 -4.22051 0
M  V30 4411 H 415.377 -2.57618 -7.65936 0
M  V30 4412 H 418.963 -1.2609 -5.67972 0
M  V30 4413 H 417.843 -2.65552 -7.3787 0
M  V30 4414 N 415.346 1.54954 0.287554 0
M  V30 4415 C 416.593 1.74873 1.02106 0
M  V30 4416 C 416.921 0.541829 1.86801 0
M  V30 4417 O 416.176 -0.475992 1.89823 0
M  V30 4418 C 416.475 2.99833 1.94512 0
M  V30 4419 C 416.141 4.33029 1.25686 0
M  V30 4420 C 414.803 4.69233 1.06649 0
M  V30 4421 C 417.155 5.15542 0.765913 0
M  V30 4422 C 414.483 5.85518 0.372222 0
M  V30 4423 C 416.835 6.32542 0.0853101 0
M  V30 4424 C 415.499 6.67398 -0.1169 0
M  V30 4425 H 414.769 0.639906 0.373632 0
M  V30 4426 H 417.416 1.89219 0.294665 0
M  V30 4427 H 415.721 2.80325 2.73725 0
M  V30 4428 H 417.418 3.1244 2.51361 0
M  V30 4429 H 414.008 4.04564 1.41512 0
M  V30 4430 H 418.192 4.88059 0.90066 0
M  V30 4431 H 413.448 6.11057 0.204695 0
M  V30 4432 H 417.622 6.95741 -0.302936 0
M  V30 4433 H 415.249 7.57357 -0.656859 0
M  V30 4434 N 416.824 -0.551391 1.4764 0
M  V30 4435 C 418.24 -0.877887 1.33287 0
M  V30 4436 C 418.44 -1.98817 0.327721 0
M  V30 4437 O 417.496 -2.51171 -0.258695 0
M  V30 4438 C 418.809 -1.26563 2.72768 0
M  V30 4439 C 420.357 -1.37673 2.81097 0
M  V30 4440 C 420.832 -1.79799 4.21232 0
M  V30 4441 N 422.323 -1.8694 4.23802 0
M  V30 4442 C 423.058 -2.20876 5.29151 0
M  V30 4443 N 422.554 -2.53386 6.448 0
M  V30 4444 N 424.347 -2.217 5.16532 0
M  V30 4445 H 416.498 0.18153 2.11623 0
M  V30 4446 H 418.761 0.0185514 0.947818 0
M  V30 4447 H 418.467 -0.523591 3.47781 0
M  V30 4448 H 418.341 -2.22052 3.04915 0
M  V30 4449 H 420.728 -2.10956 2.06353 0
M  V30 4450 H 420.809 -0.40357 2.52596 0
M  V30 4451 H 420.453 -1.07083 4.96483 0
M  V30 4452 H 420.383 -2.78128 4.4716 0
M  V30 4453 H 422.874 -1.64179 3.40373 0
M  V30 4454 H 423.187 -2.78325 7.20941 0
M  V30 4455 H 421.532 -2.50953 6.48111 0
M  V30 4456 H 424.723 -1.95745 4.25207 0
M  V30 4457 H 424.896 -2.47818 5.98741 0
M  V30 4458 N 418.302 -1.35869 -0.798587 0
M  V30 4459 C 419.548 -1.2978 -1.55836 0
M  V30 4460 C 419.881 0.125322 -1.93795 0
M  V30 4461 O 419.156 1.07658 -1.61987 0
M  V30 4462 C 419.439 -2.21188 -2.84162 0
M  V30 4463 C 419.292 -3.72155 -2.52628 0
M  V30 4464 C 420.611 -2.11545 -3.85923 0
M  V30 4465 H 417.73 -0.472769 -0.565383 0
M  V30 4466 H 420.372 -1.66341 -0.918192 0
M  V30 4467 H 418.522 -1.90139 -3.38791 0
M  V30 4468 H 420.194 -4.13682 -2.04121 0
M  V30 4469 H 418.437 -3.92042 -1.85704 0
M  V30 4470 H 419.108 -4.31511 -3.44242 0
M  V30 4471 H 421.584 -2.38855 -3.40716 0
M  V30 4472 H 420.46 -2.77688 -4.73477 0
M  V30 4473 H 420.721 -1.09987 -4.282 0
M  V30 4474 N 419.78 1.02168 -1.19998 0
M  V30 4475 C 420.69 2.14069 -0.959774 0
M  V30 4476 C 421.706 1.73804 0.082655 0
M  V30 4477 O 422.882 2.01133 -0.103633 0
M  V30 4478 C 419.947 3.42936 -0.509459 0
M  V30 4479 C 419.008 3.97474 -1.62213 0
M  V30 4480 C 418.241 5.2019 -1.19321 0
M  V30 4481 O 418.464 5.70369 -0.0597726 0
M  V30 4482 O 417.398 5.67749 -1.99863 0
M  V30 4483 H 421.224 2.37199 -1.89658 0
M  V30 4484 H 418.809 1.12469 -0.983411 0
M  V30 4485 H 420.691 4.20551 -0.267322 0
M  V30 4486 H 419.366 3.21234 0.398821 0
M  V30 4487 H 418.273 3.21161 -1.9185 0
M  V30 4488 H 419.606 4.23555 -2.50723 0
M  V30 4489 N 421.258 1.00505 1.21394 0
M  V30 4490 C 422.486 0.706609 1.9446 0
M  V30 4491 C 422.901 -0.73081 1.74082 0
M  V30 4492 O 422.258 -1.49446 1.04747 0
M  V30 4493 C 422.309 1.01824 3.46863 0
M  V30 4494 O 422.03 2.39919 3.66566 0
M  V30 4495 C 423.531 0.739216 4.37093 0
M  V30 4496 H 420.751 0.260394 0.618414 0
M  V30 4497 H 423.295 1.34311 1.54211 0
M  V30 4498 H 421.45 0.427343 3.85036 0
M  V30 4499 H 421.864 2.50784 4.6066 0
M  V30 4500 H 423.338 1.00744 5.42729 0
M  V30 4501 H 423.815 -0.326746 4.37983 0
M  V30 4502 H 424.421 1.31173 4.04566 0
M  V30 4503 N 422.737 -1.36956 0.779787 0
M  V30 4504 C 423.685 -2.32053 0.15942 0
M  V30 4505 C 424.679 -1.55333 -0.675878 0
M  V30 4506 O 425.885 -1.70668 -0.57204 0
M  V30 4507 H 422.26 -0.751286 0.0327707 0
M  V30 4508 H 424.231 -2.8195 0.977078 0
M  V30 4509 C 422.98 -3.40602 -0.698977 0
M  V30 4510 H 422.303 -3.99746 -0.0655966 0
M  V30 4511 H 423.743 -4.09486 -1.09989 0
M  V30 4512 C 422.202 -2.81359 -1.85307 0
M  V30 4513 O 422.732 -2.72751 -2.94906 0
M  V30 4514 N 420.938 -2.38786 -1.65619 0
M  V30 4515 H 420.485 -2.45987 -0.764725 0
M  V30 4516 H 420.443 -1.99493 -2.43002 0
M  V30 4517 N 424.215 -0.530993 -1.48385 0
M  V30 4518 C 425.445 -0.00133928 -2.066 0
M  V30 4519 C 425.853 1.28599 -1.38777 0
M  V30 4520 O 425.196 1.77599 -0.469495 0
M  V30 4521 C 425.258 0.292137 -3.58311 0
M  V30 4522 C 424.922 -0.901864 -4.48013 0
M  V30 4523 C 425.919 -1.80053 -4.87726 0
M  V30 4524 C 423.604 -1.10915 -4.89901 0
M  V30 4525 C 425.598 -2.89038 -5.68098 0
M  V30 4526 C 423.285 -2.20213 -5.70043 0
M  V30 4527 C 424.283 -3.09107 -6.0905 0
M  V30 4528 O 423.971 -4.16514 -6.87583 0
M  V30 4529 H 423.703 -0.0308475 -0.675296 0
M  V30 4530 H 426.257 -0.736335 -1.91748 0
M  V30 4531 H 424.487 1.08112 -3.7128 0
M  V30 4532 H 426.176 0.763994 -3.98645 0
M  V30 4533 H 426.942 -1.65234 -4.55986 0
M  V30 4534 H 422.821 -0.426498 -4.59023 0
M  V30 4535 H 426.365 -3.58451 -5.98464 0
M  V30 4536 H 422.262 -2.35016 -6.01197 0
M  V30 4537 H 423.03 -4.14237 -7.05939 0
M  V30 4538 N 425.693 1.55336 -0.266172 0
M  V30 4539 C 426.97 1.91372 0.404486 0
M  V30 4540 C 427.35 1.18935 1.74407 0
M  V30 4541 O 426.698 0.3132 2.26343 0
M  V30 4542 C 426.908 3.44581 0.553593 0
M  V30 4543 C 428.256 4.16196 0.840618 0
M  V30 4544 O 429.28 3.50426 0.638739 0
M  V30 4545 O 428.139 5.32567 1.22618 0
M  V30 4546 H 425.233 0.797194 0.220025 0
M  V30 4547 H 427.779 1.66813 -0.311664 0
M  V30 4548 H 426.551 3.89357 -0.389498 0
M  V30 4549 H 426.174 3.75065 1.31955 0
M  V30 4550 N 427.171 -0.0066808 1.57599 0
M  V30 4551 C 428.121 -1.0086 2.04478 0
M  V30 4552 C 429.105 -1.30714 0.938231 0
M  V30 4553 O 430.297 -1.29924 1.20203 0
M  V30 4554 C 427.426 -2.30273 2.54615 0
M  V30 4555 C 426.512 -2.03413 3.72134 0
M  V30 4556 N 426.903 -1.46688 4.84062 0
M  V30 4557 C 425.201 -2.33589 3.79937 0
M  V30 4558 C 425.902 -1.36146 5.65543 0
M  V30 4559 N 424.878 -1.84477 5.1134 0
M  V30 4560 H 428.68 -0.564402 2.8843 0
M  V30 4561 H 426.194 -0.212521 1.61003 0
M  V30 4562 H 428.191 -3.02885 2.86472 0
M  V30 4563 H 426.851 -2.75352 1.72079 0
M  V30 4564 H 427.862 -1.14658 5.05049 0
M  V30 4565 H 424.539 -2.81589 3.08243 0
M  V30 4566 H 425.929 -0.925873 6.6549 0
M  V30 4567 N 428.649 -1.55105 -0.279332 0
M  V30 4568 C 429.895 -1.76597 -1.00921 0
M  V30 4569 C 430.25 -0.556831 -1.84166 0
M  V30 4570 O 429.543 0.450573 -1.86227 0
M  V30 4571 C 429.737 -3.0086 -1.92919 0
M  V30 4572 C 429.566 -4.33744 -1.18728 0
M  V30 4573 C 428.336 -4.9712 -0.905545 0
M  V30 4574 C 430.534 -5.11009 -0.580857 0
M  V30 4575 N 428.516 -6.13749 -0.136169 0
M  V30 4576 C 429.887 -6.19976 0.0546661 0
M  V30 4577 C 431.942 -4.95502 -0.488067 0
M  V30 4578 C 430.645 -7.15123 0.774028 0
M  V30 4579 C 432.671 -5.90999 0.217688 0
M  V30 4580 C 432.033 -6.9935 0.841975 0
M  V30 4581 H 428.132 -0.698553 -0.351493 0
M  V30 4582 H 430.716 -1.92595 -0.285531 0
M  V30 4583 H 428.887 -2.86249 -2.62519 0
M  V30 4584 H 430.619 -3.10784 -2.59221 0
M  V30 4585 H 427.374 -4.57903 -1.20921 0
M  V30 4586 H 427.798 -6.7659 0.235665 0
M  V30 4587 H 432.44 -4.11841 -0.956406 0
M  V30 4588 H 430.158 -7.9831 1.25407 0
M  V30 4589 H 433.744 -5.81078 0.289717 0
M  V30 4590 H 432.624 -7.71973 1.37939 0
M  V30 4591 N 430.127 0.543554 -1.4793 0
M  V30 4592 C 431.074 1.64942 -1.6144 0
M  V30 4593 C 432.044 1.59692 -0.456903 0
M  V30 4594 O 433.229 1.78321 -0.678688 0
M  V30 4595 C 430.369 3.03238 -1.64744 0
M  V30 4596 C 429.482 3.18823 -2.91506 0
M  V30 4597 C 428.617 4.47599 -2.86057 0
M  V30 4598 C 427.656 4.56664 -4.07584 0
M  V30 4599 N 426.793 5.76811 -4.00292 0
M  V30 4600 H 431.633 1.52733 -2.55884 0
M  V30 4601 H 429.17 0.7438 -1.2691 0
M  V30 4602 H 431.128 3.83339 -1.64641 0
M  V30 4603 H 429.758 3.1425 -0.738017 0
M  V30 4604 H 428.81 2.32064 -3.01414 0
M  V30 4605 H 430.122 3.21384 -3.81463 0
M  V30 4606 H 429.276 5.35975 -2.84281 0
M  V30 4607 H 428.015 4.47538 -1.93807 0
M  V30 4608 H 427.02 3.66697 -4.09651 0
M  V30 4609 H 428.245 4.58474 -5.00978 0
M  V30 4610 H 426.191 5.77673 -3.10853 0
M  V30 4611 H 426.108 5.80808 -4.8394 0
M  V30 4612 H 427.376 6.67512 -4.02553 0
M  V30 4613 N 431.605 1.3629 0.791371 0
M  V30 4614 C 433.016 1.27225 1.36641 0
M  V30 4615 C 433.367 -0.0887968 1.95999 0
M  V30 4616 O 432.492 -0.990207 1.92416 0
M  V30 4617 C 433.087 2.30375 2.48421 0
M  V30 4618 C 431.646 2.25004 3.01746 0
M  V30 4619 C 430.793 2.15259 1.7481 0
M  V30 4620 H 433.744 1.47198 0.593173 0
M  V30 4621 H 433.765 1.93905 3.27385 0
M  V30 4622 H 433.277 3.29422 2.05189 0
M  V30 4623 H 431.378 1.29417 3.49403 0
M  V30 4624 H 431.491 3.1761 3.58693 0
M  V30 4625 H 429.855 1.61482 1.96966 0
M  V30 4626 H 430.638 3.16191 1.33709 0
M  V30 4627 N 433.083 -1.0153 1.20538 0
M  V30 4628 C 434.046 -2.0826 0.957098 0
M  V30 4629 C 435.046 -1.60657 -0.0678655 0
M  V30 4630 O 436.236 -1.73385 0.168332 0
M  V30 4631 C 433.368 -3.38033 0.441188 0
M  V30 4632 H 434.561 -2.31719 1.90384 0
M  V30 4633 H 432.114 -1.1835 1.02093 0
M  V30 4634 H 432.849 -3.20249 -0.510961 0
M  V30 4635 H 432.634 -3.73911 1.18038 0
M  V30 4636 H 434.124 -4.16613 0.287009 0
M  V30 4637 N 434.561 -1.01147 -1.20859 0
M  V30 4638 C 435.972 -0.730205 -1.71828 0
M  V30 4639 C 436.323 0.751662 -1.8123 0
M  V30 4640 O 435.448 1.58686 -1.47132 0
M  V30 4641 C 436.043 -1.31885 -3.12077 0
M  V30 4642 C 434.602 -1.08656 -3.60376 0
M  V30 4643 C 433.749 -1.42769 -2.37723 0
M  V30 4644 H 436.7 -1.18158 -1.05945 0
M  V30 4645 H 436.721 -0.706793 -3.73878 0
M  V30 4646 H 436.233 -2.39737 -3.05201 0
M  V30 4647 H 434.334 -0.0254814 -3.72591 0
M  V30 4648 H 434.447 -1.76301 -4.45483 0
M  V30 4649 H 432.811 -0.846603 -2.40218 0
M  V30 4650 H 433.594 -2.51666 -2.33493 0
M  V30 4651 N 436.039 1.36541 -0.78704 0
M  V30 4652 C 436.986 2.30082 -0.181901 0
M  V30 4653 C 437.956 1.5186 0.672896 0
M  V30 4654 O 439.141 1.80374 0.622072 0
M  V30 4655 C 436.281 3.3835 0.679197 0
M  V30 4656 C 435.394 4.31565 -0.193882 0
M  V30 4657 C 434.529 5.26915 0.673364 0
M  V30 4658 C 433.568 6.11769 -0.201315 0
M  V30 4659 N 432.705 6.99315 0.624777 0
M  V30 4660 H 437.545 2.81248 -0.985064 0
M  V30 4661 H 435.082 1.38437 -0.497342 0
M  V30 4662 H 437.04 3.99767 1.19341 0
M  V30 4663 H 435.67 2.8851 1.44781 0
M  V30 4664 H 434.722 3.71323 -0.826044 0
M  V30 4665 H 436.034 4.91191 -0.867937 0
M  V30 4666 H 435.188 5.9361 1.25348 0
M  V30 4667 H 433.927 4.67737 1.38105 0
M  V30 4668 H 432.932 5.44039 -0.793849 0
M  V30 4669 H 434.157 6.73022 -0.906568 0
M  V30 4670 H 432.103 6.42648 1.3168 0
M  V30 4671 H 432.02 7.56 0.00835237 0
M  V30 4672 H 433.288 7.70382 1.18879 0
M  V30 4673 N 437.518 0.538854 1.48102 0
M  V30 4674 C 438.428 -0.222648 2.33541 0
M  V30 4675 C 439.444 -0.930225 1.47047 0
M  V30 4676 O 440.62 -0.903211 1.80011 0
M  V30 4677 C 437.685 -1.25064 3.23357 0
M  V30 4678 C 436.746 -0.552469 4.2573 0
M  V30 4679 C 435.979 -1.53149 5.11254 0
M  V30 4680 O 436.202 -2.76487 4.9891 0
M  V30 4681 O 435.136 -1.06602 5.92385 0
M  V30 4682 H 438.962 0.477707 2.99919 0
M  V30 4683 H 436.547 0.299669 1.46364 0
M  V30 4684 H 438.429 -1.8445 3.78888 0
M  V30 4685 H 437.104 -1.93325 2.59629 0
M  V30 4686 H 436.011 0.082114 3.7401 0
M  V30 4687 H 437.344 0.0883526 4.92121 0
M  V30 4688 N 438.996 -1.55193 0.274407 0
M  V30 4689 C 440.273 -1.91584 -0.394331 0
M  V30 4690 C 440.653 -1.19858 -1.73774 0
M  V30 4691 O 440.001 -0.3252 -2.26174 0
M  V30 4692 C 440.211 -3.4487 -0.535311 0
M  V30 4693 C 441.559 -4.16636 -0.818534 0
M  V30 4694 O 442.583 -3.5076 -0.620146 0
M  V30 4695 O 441.442 -5.33209 -1.19792 0
M  V30 4696 H 438.536 -0.798349 -0.215794 0
M  V30 4697 H 441.082 -1.66646 0.320507 0
M  V30 4698 H 439.854 -3.89145 0.410141 0
M  V30 4699 H 439.477 -3.75759 -1.29964 0
M  V30 4700 N 440.474 -0.00167713 -1.576 0
M  V30 4701 C 441.751 0.719951 -1.81868 0
M  V30 4702 C 442.131 1.91895 -0.879747 0
M  V30 4703 O 441.479 2.28389 0.0711423 0
M  V30 4704 C 441.689 1.12409 -3.30402 0
M  V30 4705 C 443.037 1.52724 -3.96182 0
M  V30 4706 O 444.061 1.21784 -3.34734 0
M  V30 4707 O 442.92 2.10265 -5.04431 0
M  V30 4708 H 440.014 0.350707 -0.748955 0
M  V30 4709 H 442.56 -0.0272597 -1.69678 0
M  V30 4710 H 441.332 0.269532 -3.90371 0
M  V30 4711 H 440.955 1.93035 -3.47596 0
M  V30 4712 N 441.952 1.55251 0.271103 0
M  V30 4713 C 443.368 1.47133 0.618393 0
M  V30 4714 C 443.568 0.686994 1.89427 0
M  V30 4715 O 442.624 0.206609 2.51653 0
M  V30 4716 C 443.937 2.91361 0.743593 0
M  V30 4717 C 445.485 3.01587 0.837522 0
M  V30 4718 C 445.96 4.47073 0.994483 0
M  V30 4719 N 447.451 4.50909 1.05996 0
M  V30 4720 C 448.186 5.60698 1.20024 0
M  V30 4721 N 447.682 6.80348 1.30759 0
M  V30 4722 N 449.475 5.48444 1.23149 0
M  V30 4723 H 441.626 2.04698 -0.566784 0
M  V30 4724 H 443.889 0.928319 -0.192165 0
M  V30 4725 H 443.595 3.51483 -0.123493 0
M  V30 4726 H 443.469 3.40484 1.62328 0
M  V30 4727 H 445.856 2.4156 1.69507 0
M  V30 4728 H 445.937 2.55713 -0.0668086 0
M  V30 4729 H 445.581 5.07703 0.141582 0
M  V30 4730 H 445.511 4.90605 1.91349 0
M  V30 4731 H 448.002 3.6472 0.989316 0
M  V30 4732 H 448.315 7.59772 1.41303 0
M  V30 4733 H 446.66 6.83156 1.27761 0
M  V30 4734 H 449.851 4.53907 1.14394 0
M  V30 4735 H 450.024 6.34049 1.33738 0
M  V30 4736 N 443.43 -0.535701 1.48216 0
M  V30 4737 C 444.846 -0.863701 1.3421 0
M  V30 4738 C 445.046 -1.98458 0.34879 0
M  V30 4739 O 444.102 -2.51432 -0.23204 0
M  V30 4740 C 445.415 -1.23662 2.74095 0
M  V30 4741 C 446.963 -1.34683 2.82541 0
M  V30 4742 C 447.438 -1.75322 4.23115 0
M  V30 4743 N 448.929 -1.82434 4.2576 0
M  V30 4744 C 449.664 -2.15252 5.31464 0
M  V30 4745 N 449.16 -2.46533 6.47452 0
M  V30 4746 N 450.953 -2.16209 5.18855 0
M  V30 4747 H 443.104 0.203965 2.11418 0
M  V30 4748 H 445.367 0.0286033 0.947568 0
M  V30 4749 H 445.073 -0.486674 3.48316 0
M  V30 4750 H 444.947 -2.18805 3.07253 0
M  V30 4751 H 447.334 -2.08756 2.08579 0
M  V30 4752 H 447.415 -0.376756 2.5301 0
M  V30 4753 H 447.059 -1.01812 4.97591 0
M  V30 4754 H 446.989 -2.7337 4.50085 0
M  V30 4755 H 449.48 -1.6056 3.42095 0
M  V30 4756 H 449.793 -2.70662 7.23852 0
M  V30 4757 H 448.138 -2.44065 6.50736 0
M  V30 4758 H 451.329 -1.91224 4.2726 0
M  V30 4759 H 451.502 -2.41453 6.01335 0
M  V30 4760 N 444.908 -1.36708 -0.784132 0
M  V30 4761 C 446.136 -1.34398 -1.57305 0
M  V30 4762 C 446.551 0.0735577 -1.88657 0
M  V30 4763 O 445.908 1.03193 -1.50524 0
M  V30 4764 C 445.959 -2.17053 -2.89085 0
M  V30 4765 O 445.68 -3.53281 -2.59083 0
M  V30 4766 C 447.181 -2.22583 -3.83369 0
M  V30 4767 H 444.401 -0.460819 -0.487736 0
M  V30 4768 H 446.945 -1.79879 -0.972819 0
M  V30 4769 H 445.1 -1.75113 -3.45564 0
M  V30 4770 H 445.514 -3.9647 -3.43383 0
M  V30 4771 H 446.988 -2.84763 -4.72878 0
M  V30 4772 H 447.465 -1.23075 -4.21603 0
M  V30 4773 H 448.071 -2.64781 -3.32823 0
M  V30 4774 N 446.386 1.0089 -1.21074 0
M  V30 4775 C 447.611 1.78727 -1.05221 0
M  V30 4776 C 448.036 1.83932 0.393795 0
M  V30 4777 O 447.394 1.28004 1.28393 0
M  V30 4778 C 447.442 3.20665 -1.64944 0
M  V30 4779 O 446.546 4.02632 -0.892273 0
M  V30 4780 H 445.887 0.550973 -0.370574 0
M  V30 4781 H 448.417 1.26847 -1.60534 0
M  V30 4782 H 448.427 3.71352 -1.69002 0
M  V30 4783 H 447.102 3.16191 -2.70177 0
M  V30 4784 H 445.679 3.61207 -0.926492 0
M  V30 4785 N 447.864 1.01787 1.20321 0
M  V30 4786 C 448.827 0.593972 2.2137 0
M  V30 4787 C 449.827 -0.336553 1.57239 0
M  V30 4788 O 451.017 -0.125069 1.7375 0
M  V30 4789 C 448.149 -0.132433 3.40643 0
M  V30 4790 H 449.342 1.48791 2.60387 0
M  V30 4791 H 446.895 0.807803 1.33807 0
M  V30 4792 H 447.63 -1.04123 3.0713 0
M  V30 4793 H 447.415 0.53605 3.88418 0
M  V30 4794 H 448.905 -0.416314 4.1552 0
M  V30 4795 N 449.342 -1.36122 0.79427 0
M  V30 4796 C 450.591 -1.98361 0.365464 0
M  V30 4797 C 450.904 -1.6374 -1.06997 0
M  V30 4798 O 452.11 -2.19251 -1.60129 0
M  V30 4799 C 450.566 -3.54821 0.602496 0
M  V30 4800 C 450.174 -3.98362 2.04967 0
M  V30 4801 C 451.918 -4.2383 0.238437 0
M  V30 4802 C 449.825 -5.47619 2.2331 0
M  V30 4803 H 448.755 -0.742193 0.13291 0
M  V30 4804 H 451.406 -1.55354 0.976589 0
M  V30 4805 H 449.788 -3.95922 -0.078409 0
M  V30 4806 H 450.962 -3.68447 2.76737 0
M  V30 4807 H 449.277 -3.42206 2.37243 0
M  V30 4808 H 451.874 -5.33529 0.353705 0
M  V30 4809 H 452.217 -4.08264 -0.814006 0
M  V30 4810 H 452.75 -3.88108 0.872769 0
M  V30 4811 H 449.489 -5.68138 3.26955 0
M  V30 4812 H 449.009 -5.79145 1.5605 0
M  V30 4813 H 450.688 -6.13911 2.0426 0
M  V30 4814 N 450.82 -0.546701 -1.47814 0
M  V30 4815 C 451.767 0.206854 -2.29871 0
M  V30 4816 C 452.737 0.918235 -1.38411 0
M  V30 4817 O 453.922 0.915991 -1.67375 0
M  V30 4818 C 451.062 1.23746 -3.22151 0
M  V30 4819 C 450.175 0.533216 -4.28697 0
M  V30 4820 C 449.31 1.5482 -5.08138 0
M  V30 4821 C 448.349 0.828347 -6.06469 0
M  V30 4822 N 447.486 1.78966 -6.78908 0
M  V30 4823 H 452.326 -0.499037 -2.93792 0
M  V30 4824 H 449.863 -0.25793 -1.44821 0
M  V30 4825 H 451.821 1.84746 -3.74065 0
M  V30 4826 H 450.451 1.91151 -2.60117 0
M  V30 4827 H 449.503 -0.191089 -3.7992 0
M  V30 4828 H 450.815 -0.0311987 -4.9879 0
M  V30 4829 H 449.969 2.23202 -5.6415 0
M  V30 4830 H 448.708 2.14652 -4.37922 0
M  V30 4831 H 447.713 0.130539 -5.49645 0
M  V30 4832 H 448.938 0.235907 -6.7869 0
M  V30 4833 H 446.884 2.37675 -6.1143 0
M  V30 4834 H 446.801 1.27712 -7.45135 0
M  V30 4835 H 448.069 2.46496 -7.395 0
M  V30 4836 N 452.299 1.55045 -0.282633 0
M  V30 4837 C 453.262 2.21515 0.588539 0
M  V30 4838 C 454.262 1.19535 1.07554 0
M  V30 4839 O 455.452 1.44391 0.974514 0
M  V30 4840 C 452.584 2.88704 1.8128 0
M  V30 4841 H 453.777 2.99899 0.00806397 0
M  V30 4842 H 451.33 1.56265 -0.0333067 0
M  V30 4843 H 452.065 2.14352 2.43359 0
M  V30 4844 H 451.85 3.63443 1.47144 0
M  V30 4845 H 453.34 3.39465 2.43214 0
M  V30 4846 N 453.777 0.010035 1.57597 0
M  V30 4847 C 454.707 -0.976857 2.12084 0
M  V30 4848 C 455.688 -1.35191 1.03235 0
M  V30 4849 O 456.873 -1.43389 1.3097 0
M  V30 4850 C 454.003 -2.26548 2.63236 0
M  V30 4851 C 452.957 -2.03175 3.76701 0
M  V30 4852 C 452.283 -3.38138 4.14206 0
M  V30 4853 C 453.583 -1.38625 5.03568 0
M  V30 4854 H 455.277 -0.523145 2.94794 0
M  V30 4855 H 452.823 -0.250195 1.4181 0
M  V30 4856 H 454.776 -2.95952 2.99984 0
M  V30 4857 H 453.5 -2.74051 1.77661 0
M  V30 4858 H 452.159 -1.36195 3.40362 0
M  V30 4859 H 451.807 -3.83363 3.25641 0
M  V30 4860 H 451.507 -3.23312 4.90656 0
M  V30 4861 H 453.031 -4.08841 4.53521 0
M  V30 4862 H 454.445 -1.98 5.38023 0
M  V30 4863 H 452.842 -1.34256 5.84889 0
M  V30 4864 H 453.912 -0.356722 4.83586 0
M  V30 4865 N 455.255 -1.55392 -0.262866 0
M  V30 4866 C 456.203 -1.8977 -1.345 0
M  V30 4867 C 457.197 -0.775063 -1.50629 0
M  V30 4868 O 458.403 -0.959519 -1.52293 0
M  V30 4869 H 454.778 -0.602467 -0.450041 0
M  V30 4870 H 456.749 -2.80147 -1.02762 0
M  V30 4871 C 455.498 -2.19501 -2.69657 0
M  V30 4872 H 454.821 -3.05378 -2.5804 0
M  V30 4873 H 456.261 -2.47469 -3.44289 0
M  V30 4874 C 454.72 -1.00597 -3.21531 0
M  V30 4875 O 455.25 -0.245768 -4.00947 0
M  V30 4876 N 453.456 -0.800911 -2.79345 0
M  V30 4877 H 453.003 -1.42079 -2.14875 0
M  V30 4878 H 452.961 -0.00697996 -3.14399 0
M  V30 4879 N 456.733 0.527833 -1.48498 0
M  V30 4880 C 457.696 1.61439 -1.62696 0
M  V30 4881 C 458.696 1.52824 -0.500136 0
M  V30 4882 O 459.886 1.56456 -0.765976 0
M  V30 4883 C 457.018 3.01063 -1.59918 0
M  V30 4884 H 458.211 1.50189 -2.59583 0
M  V30 4885 H 455.764 0.750055 -1.37127 0
M  V30 4886 H 456.499 3.17818 -0.645163 0
M  V30 4887 H 456.284 3.08725 -2.41726 0
M  V30 4888 H 457.774 3.80057 -1.73051 0
M  V30 4889 N 458.211 1.37122 0.776871 0
M  V30 4890 C 459.439 1.3523 1.5659 0
M  V30 4891 C 459.854 -0.0635518 1.88693 0
M  V30 4892 O 459.211 -1.02394 1.51069 0
M  V30 4893 C 459.262 2.18583 2.8793 0
M  V30 4894 O 458.983 3.5465 2.57206 0
M  V30 4895 C 460.484 2.24612 3.82183 0
M  V30 4896 H 457.704 0.4634 0.485285 0
M  V30 4897 H 460.248 1.80392 0.963266 0
M  V30 4898 H 458.403 1.76943 3.4463 0
M  V30 4899 H 458.817 3.98286 3.41275 0
M  V30 4900 H 460.291 2.87267 4.71361 0
M  V30 4901 H 460.768 1.25309 4.20944 0
M  V30 4902 H 461.374 2.66543 3.31414 0
M  V30 4903 N 459.689 -1.00246 1.21608 0
M  V30 4904 C 460.937 -1.73717 1.0328 0
M  V30 4905 C 461.258 -1.90102 -0.434318 0
M  V30 4906 O 460.528 -1.45376 -1.31311 0
M  V30 4907 H 459.108 -0.643613 0.379172 0
M  V30 4908 H 461.77 -1.20787 1.52959 0
M  V30 4909 H 460.866 -2.73535 1.50283 0
M  V30 4910 N 461.167 -1.02423 -1.1978 0
M  V30 4911 C 462.099 -0.559152 -2.22275 0
M  V30 4912 C 463.112 0.36251 -1.58713 0
M  V30 4913 O 464.301 0.159641 -1.77785 0
M  V30 4914 C 461.401 0.205094 -3.38279 0
M  V30 4915 C 460.574 -0.720361 -4.31427 0
M  V30 4916 C 459.633 -0.00234368 -5.262 0
M  V30 4917 O 458.659 -0.627378 -5.65732 0
M  V30 4918 N 459.861 1.26996 -5.66438 0
M  V30 4919 H 462.626 -1.44064 -2.62804 0
M  V30 4920 H 460.187 -0.902692 -1.34399 0
M  V30 4921 H 462.179 0.694868 -3.9869 0
M  V30 4922 H 460.749 0.987947 -2.96578 0
M  V30 4923 H 459.969 -1.39031 -3.68869 0
M  V30 4924 H 461.257 -1.3495 -4.90577 0
M  V30 4925 H 460.655 1.79858 -5.36347 0
M  V30 4926 H 459.212 1.70432 -6.29123 0
M  V30 4927 N 462.645 1.35699 -0.801477 0
M  V30 4928 C 463.608 2.28199 -0.213994 0
M  V30 4929 C 464.608 1.49359 0.595691 0
M  V30 4930 O 465.798 1.69186 0.414921 0
M  V30 4931 C 462.93 3.33587 0.702297 0
M  V30 4932 H 464.123 2.81666 -1.02976 0
M  V30 4933 H 461.676 1.45467 -0.571759 0
M  V30 4934 H 462.411 2.85297 1.54195 0
M  V30 4935 H 462.196 3.91906 0.123484 0
M  V30 4936 H 463.686 4.02638 1.10783 0
M  V30 4937 N 464.123 0.554532 1.47522 0
M  V30 4938 C 465.071 -0.207765 2.3167 0
M  V30 4939 C 466.065 -0.911914 1.4276 0
M  V30 4940 O 467.271 -0.833504 1.59539 0
M  V30 4941 H 463.646 -0.0858726 0.747081 0
M  V30 4942 H 465.617 0.521178 2.93813 0
M  V30 4943 C 464.366 -1.2263 3.25357 0
M  V30 4944 H 463.689 -0.693887 3.93732 0
M  V30 4945 H 465.129 -1.73062 3.87073 0
M  V30 4946 C 463.588 -2.27278 2.4869 0
M  V30 4947 O 464.118 -3.34156 2.22941 0
M  V30 4948 N 462.324 -2.01134 2.09746 0
M  V30 4949 H 461.871 -1.14232 2.30887 0
M  V30 4950 H 461.829 -2.71369 1.58765 0
M  V30 4951 N 465.601 -1.54893 0.290851 0
M  V30 4952 C 466.531 -2.26103 -0.583084 0
M  V30 4953 C 467.512 -1.25684 -1.14619 0
M  V30 4954 O 468.697 -1.54436 -1.17741 0
M  V30 4955 C 465.827 -2.99409 -1.75987 0
M  V30 4956 C 464.781 -4.0689 -1.32758 0
M  V30 4957 C 464.107 -4.67856 -2.58872 0
M  V30 4958 C 465.407 -5.20215 -0.46624 0
M  V30 4959 H 467.101 -2.99398 0.0108214 0
M  V30 4960 H 464.647 -1.43998 0.00664468 0
M  V30 4961 H 466.6 -3.47943 -2.37727 0
M  V30 4962 H 465.324 -2.23675 -2.37985 0
M  V30 4963 H 463.983 -3.59191 -0.733299 0
M  V30 4964 H 463.631 -3.88772 -3.19163 0
M  V30 4965 H 463.331 -5.40438 -2.30653 0
M  V30 4966 H 464.855 -5.19147 -3.21433 0
M  V30 4967 H 466.269 -5.64704 -0.989047 0
M  V30 4968 H 464.666 -5.99455 -0.27826 0
M  V30 4969 H 465.736 -4.82198 0.511173 0
M  V30 4970 N 467.08 -0.0183926 -1.57589 0
M  V30 4971 C 468.305 0.676634 -1.96052 0
M  V30 4972 C 468.73 1.6548 -0.894307 0
M  V30 4973 O 468.088 1.80712 0.145849 0
M  V30 4974 C 468.136 1.36872 -3.33614 0
M  V30 4975 O 467.24 2.48372 -3.29219 0
M  V30 4976 H 466.581 0.1786 -0.63953 0
M  V30 4977 H 469.111 -0.077056 -2.04455 0
M  V30 4978 H 469.121 1.72797 -3.69601 0
M  V30 4979 H 467.796 0.651636 -4.10763 0
M  V30 4980 H 466.373 2.14639 -3.04934 0
M  V30 4981 N 468.558 1.5553 0.254621 0
M  V30 4982 C 469.488 1.9268 1.31897 0
M  V30 4983 C 470.469 0.790797 1.506 0
M  V30 4984 O 471.654 1.05045 1.63337 0
M  V30 4985 C 468.784 2.21477 2.67517 0
M  V30 4986 C 467.738 3.37256 2.63519 0
M  V30 4987 C 467.064 3.51576 4.02862 0
M  V30 4988 C 468.364 4.73157 2.21179 0
M  V30 4989 H 470.058 2.81832 1.01051 0
M  V30 4990 H 467.604 1.35599 0.484662 0
M  V30 4991 H 469.557 2.46055 3.42104 0
M  V30 4992 H 468.281 1.29144 2.99982 0
M  V30 4993 H 466.94 3.12675 1.9139 0
M  V30 4994 H 466.588 2.56676 4.32581 0
M  V30 4995 H 466.288 4.2943 4.01078 0
M  V30 4996 H 467.812 3.78467 4.79161 0
M  V30 4997 H 469.226 4.97158 2.85494 0
M  V30 4998 H 467.623 5.54058 2.30521 0
M  V30 4999 H 468.693 4.70739 1.16332 0
M  V30 5000 N 470.036 -0.519951 1.48776 0
M  V30 5001 C 470.946 -1.65025 1.66745 0
M  V30 5002 C 471.962 -1.6508 0.549954 0
M  V30 5003 O 473.138 -1.83848 0.822295 0
M  V30 5004 C 470.203 -3.0146 1.71238 0
M  V30 5005 C 469.264 -3.12182 2.94688 0
M  V30 5006 C 468.497 -4.42109 2.98958 0
M  V30 5007 O 468.72 -5.29799 2.1135 0
M  V30 5008 O 467.654 -4.57406 3.91233 0
M  V30 5009 H 471.48 -1.52801 2.62461 0
M  V30 5010 H 469.065 -0.694157 1.32294 0
M  V30 5011 H 470.947 -3.82584 1.76657 0
M  V30 5012 H 469.622 -3.13988 0.786975 0
M  V30 5013 H 468.529 -2.30316 2.94797 0
M  V30 5014 H 469.862 -3.04574 3.86646 0
M  V30 5015 N 471.514 -1.37532 -0.769588 0
M  V30 5016 C 472.477 -1.33292 -1.86456 0
M  V30 5017 C 473.477 -0.236537 -1.59051 0
M  V30 5018 O 474.667 -0.492511 -1.67093 0
M  V30 5019 C 471.799 -1.07118 -3.23633 0
M  V30 5020 H 472.992 -2.30692 -1.91628 0
M  V30 5021 H 470.545 -1.22593 -0.969572 0
M  V30 5022 H 471.28 -0.102578 -3.24138 0
M  V30 5023 H 471.065 -1.86479 -3.44917 0
M  V30 5024 H 472.555 -1.06806 -4.03711 0
M  V30 5025 N 472.992 0.995999 -1.22138 0
M  V30 5026 C 473.922 2.10387 -1.01289 0
M  V30 5027 C 474.903 1.69975 0.0651454 0
M  V30 5028 O 476.088 1.9396 -0.0964628 0
M  V30 5029 C 473.218 3.42312 -0.586517 0
M  V30 5030 C 472.172 3.96558 -1.61014 0
M  V30 5031 C 471.498 5.24494 -1.0397 0
M  V30 5032 C 472.798 4.27595 -2.99933 0
M  V30 5033 H 474.492 2.28086 -1.93951 0
M  V30 5034 H 472.038 1.09607 -0.933928 0
M  V30 5035 H 473.991 4.19223 -0.427793 0
M  V30 5036 H 472.715 3.24431 0.375761 0
M  V30 5037 H 471.374 3.21776 -1.75658 0
M  V30 5038 H 471.022 5.02953 -0.0688703 0
M  V30 5039 H 470.722 5.61755 -1.72352 0
M  V30 5040 H 472.246 6.04042 -0.892494 0
M  V30 5041 H 473.66 4.95315 -2.8868 0
M  V30 5042 H 472.057 4.76021 -3.6541 0
M  V30 5043 H 473.127 3.35498 -3.50099 0
M  V30 5044 N 474.47 1.03057 1.19235 0
M  V30 5045 C 475.717 0.728019 1.88961 0
M  V30 5046 C 476.045 -0.743515 1.79728 0
M  V30 5047 O 475.3 -1.55729 1.1852 0
M  V30 5048 C 475.599 1.1268 3.39172 0
M  V30 5049 C 475.265 2.5969 3.68608 0
M  V30 5050 C 473.927 2.99854 3.76352 0
M  V30 5051 C 476.279 3.54793 3.81801 0
M  V30 5052 C 473.607 4.34031 3.94758 0
M  V30 5053 C 475.959 4.88675 4.0172 0
M  V30 5054 C 474.623 5.28526 4.07697 0
M  V30 5055 H 473.893 0.266401 0.691456 0
M  V30 5056 H 476.54 1.29373 1.41191 0
M  V30 5057 H 474.845 0.479722 3.88852 0
M  V30 5058 H 476.542 0.870203 3.91444 0
M  V30 5059 H 473.132 2.27575 3.63191 0
M  V30 5060 H 477.316 3.24914 3.7516 0
M  V30 5061 H 472.572 4.6444 3.97625 0
M  V30 5062 H 476.746 5.6228 4.1087 0
M  V30 5063 H 474.373 6.32506 4.21712 0
M  V30 5064 N 475.948 -1.35272 0.808662 0
M  V30 5065 C 476.88 -2.28507 0.178149 0
M  V30 5066 C 477.893 -1.50377 -0.623754 0
M  V30 5067 O 479.082 -1.72583 -0.455774 0
M  V30 5068 C 476.182 -3.30038 -0.769959 0
M  V30 5069 C 475.355 -4.37398 -0.0139749 0
M  V30 5070 C 474.414 -5.18775 -0.880875 0
M  V30 5071 O 473.44 -5.68236 -0.331059 0
M  V30 5072 N 474.642 -5.37087 -2.20267 0
M  V30 5073 H 477.407 -2.83255 0.979106 0
M  V30 5074 H 474.968 -1.47643 0.664308 0
M  V30 5075 H 476.96 -3.81371 -1.35418 0
M  V30 5076 H 475.53 -2.75789 -1.47171 0
M  V30 5077 H 474.75 -3.86971 0.751468 0
M  V30 5078 H 476.038 -5.06268 0.506965 0
M  V30 5079 H 475.436 -4.9855 -2.67328 0
M  V30 5080 H 473.993 -5.91593 -2.73608 0
M  V30 5081 N 477.426 -0.562348 -1.47226 0
M  V30 5082 C 478.675 -0.038041 -2.01664 0
M  V30 5083 C 478.988 1.32199 -1.44162 0
M  V30 5084 O 480.194 1.9365 -1.90294 0
M  V30 5085 C 478.65 -0.0174958 -3.59896 0
M  V30 5086 C 478.258 -1.3746 -4.2639 0
M  V30 5087 C 480.002 0.453934 -4.22066 0
M  V30 5088 C 477.909 -1.31289 -5.76643 0
M  V30 5089 H 476.839 -0.0104511 -0.753928 0
M  V30 5090 H 479.49 -0.710966 -1.69167 0
M  V30 5091 H 477.872 0.721182 -3.89378 0
M  V30 5092 H 479.046 -2.1314 -4.08544 0
M  V30 5093 H 477.361 -1.78438 -3.7623 0
M  V30 5094 H 479.958 0.518584 -5.32179 0
M  V30 5095 H 480.301 1.46706 -3.89594 0
M  V30 5096 H 480.834 -0.230044 -3.97134 0
M  V30 5097 H 477.573 -2.30217 -6.13743 0
M  V30 5098 H 477.093 -0.597973 -5.96812 0
M  V30 5099 H 478.772 -1.01713 -6.38955 0
M  V30 5100 N 478.904 1.54736 -0.299062 0
M  V30 5101 C 479.834 2.26409 0.571085 0
M  V30 5102 C 480.815 1.2629 1.13951 0
M  V30 5103 O 482 1.55059 1.16921 0
M  V30 5104 C 479.13 3.00338 1.74396 0
M  V30 5105 C 478.084 4.07588 1.30599 0
M  V30 5106 C 477.41 4.69222 2.56387 0
M  V30 5107 C 478.71 5.20455 0.438645 0
M  V30 5108 H 480.404 2.99388 -0.0266991 0
M  V30 5109 H 477.95 1.43993 -0.0142812 0
M  V30 5110 H 479.903 3.49198 2.35878 0
M  V30 5111 H 478.627 2.24934 2.36796 0
M  V30 5112 H 477.286 3.59575 0.71424 0
M  V30 5113 H 476.934 3.9046 3.17097 0
M  V30 5114 H 476.634 5.41653 2.27784 0
M  V30 5115 H 478.158 5.20844 3.18675 0
M  V30 5116 H 479.572 5.65221 0.959085 0
M  V30 5117 H 477.969 5.99594 0.246466 0
M  V30 5118 H 479.039 4.8192 -0.536738 0
M  V30 5119 N 480.382 0.0267497 1.57577 0
M  V30 5120 C 481.607 -0.666227 1.96408 0
M  V30 5121 C 482.032 -1.65004 0.903071 0
M  V30 5122 O 481.39 -1.80787 -0.136263 0
M  V30 5123 C 481.438 -1.35101 3.34335 0
M  V30 5124 O 480.542 -2.46623 3.30531 0
M  V30 5125 H 479.883 -0.175206 0.640468 0
M  V30 5126 H 482.413 0.0878977 2.04411 0
M  V30 5127 H 482.423 -1.70834 3.70513 0
M  V30 5128 H 481.098 -0.629844 4.11103 0
M  V30 5129 H 479.675 -2.13019 3.06068 0
M  V30 5130 N 481.861 -1.55662 -0.24637 0
M  V30 5131 C 483.107 -1.77782 -0.975779 0
M  V30 5132 C 483.44 -0.592103 -1.84953 0
M  V30 5133 O 482.715 0.409588 -1.90138 0
M  V30 5134 C 482.998 -3.09788 -1.83584 0
M  V30 5135 C 482.851 -4.38764 -0.990241 0
M  V30 5136 C 484.17 -3.38029 -2.81823 0
M  V30 5137 H 481.289 -0.646789 -0.353317 0
M  V30 5138 H 483.931 -1.88398 -0.246248 0
M  V30 5139 H 482.081 -3.00869 -2.45784 0
M  V30 5140 H 483.753 -4.59675 -0.386897 0
M  V30 5141 H 481.996 -4.32798 -0.294626 0
M  V30 5142 H 482.667 -5.27514 -1.62584 0
M  V30 5143 H 485.143 -3.46915 -2.2976 0
M  V30 5144 H 484.019 -4.3161 -3.39122 0
M  V30 5145 H 484.28 -2.58968 -3.58313 0
M  V30 5146 N 483.339 0.512053 -1.4905 0
M  V30 5147 C 484.585 1.26874 -1.58212 0
M  V30 5148 C 484.918 1.9241 -0.263073 0
M  V30 5149 O 484.193 1.80181 0.732476 0
M  V30 5150 C 484.476 2.34428 -2.73341 0
M  V30 5151 C 484.329 1.73466 -4.15006 0
M  V30 5152 C 485.648 3.36073 -2.84154 0
M  V30 5153 H 482.767 0.459924 -0.575881 0
M  V30 5154 H 485.409 0.568587 -1.81293 0
M  V30 5155 H 483.559 2.94146 -2.53792 0
M  V30 5156 H 485.231 1.17661 -4.46042 0
M  V30 5157 H 483.474 1.03921 -4.21168 0
M  V30 5158 H 484.145 2.51426 -4.91415 0
M  V30 5159 H 486.621 2.86332 -3.01916 0
M  V30 5160 H 485.497 4.08703 -3.66406 0
M  V30 5161 H 485.758 3.97725 -1.93048 0
M  V30 5162 N 484.817 1.37938 0.762283 0
M  V30 5163 C 486.228 1.30094 1.33912 0
M  V30 5164 C 486.579 -0.0472026 1.96143 0
M  V30 5165 O 485.704 -0.94917 1.94473 0
M  V30 5166 C 486.299 2.35592 2.43478 0
M  V30 5167 C 484.858 2.31353 2.96905 0
M  V30 5168 C 484.005 2.18919 1.70205 0
M  V30 5169 H 486.956 1.48423 0.561816 0
M  V30 5170 H 486.977 2.00806 3.23199 0
M  V30 5171 H 486.489 3.33701 1.98155 0
M  V30 5172 H 484.59 1.36799 3.46579 0
M  V30 5173 H 484.703 3.25147 3.51875 0
M  V30 5174 H 483.067 1.65624 1.93496 0
M  V30 5175 H 483.85 3.18956 1.26973 0
M  V30 5176 N 486.295 -0.989507 1.22664 0
M  V30 5177 C 487.541 -1.7321 1.05481 0
M  V30 5178 C 487.874 -1.89852 -0.408635 0
M  V30 5179 O 487.149 -1.44416 -1.30285 0
M  V30 5180 C 487.432 -3.1357 1.77047 0
M  V30 5181 C 487.285 -3.04555 3.31008 0
M  V30 5182 C 488.604 -4.12812 1.5256 0
M  V30 5183 H 485.723 -0.628697 0.384589 0
M  V30 5184 H 488.365 -1.15258 1.51049 0
M  V30 5185 H 486.515 -3.63046 1.3831 0
M  V30 5186 H 488.187 -2.62674 3.7921 0
M  V30 5187 H 486.43 -2.41278 3.6051 0
M  V30 5188 H 487.101 -4.03894 3.76263 0
M  V30 5189 H 489.577 -3.72106 1.86215 0
M  V30 5190 H 488.453 -5.09132 2.05124 0
M  V30 5191 H 488.714 -4.39711 0.458936 0
M  V30 5192 N 487.773 -1.03688 -1.18687 0
M  V30 5193 C 489.003 -0.756819 -1.92239 0
M  V30 5194 C 489.411 0.689374 -1.76194 0
M  V30 5195 O 488.754 1.48126 -1.08648 0
M  V30 5196 C 488.816 -1.03851 -3.44173 0
M  V30 5197 C 488.48 -2.47785 -3.83994 0
M  V30 5198 C 489.477 -3.4595 -3.88091 0
M  V30 5199 C 487.162 -2.82397 -4.154 0
M  V30 5200 C 489.156 -4.76779 -4.23038 0
M  V30 5201 C 486.843 -4.13433 -4.50018 0
M  V30 5202 C 487.841 -5.10434 -4.53813 0
M  V30 5203 O 487.529 -6.39122 -4.87625 0
M  V30 5204 H 487.261 -0.275678 -0.617234 0
M  V30 5205 H 489.815 -1.38658 -1.51536 0
M  V30 5206 H 488.045 -0.351612 -3.85098 0
M  V30 5207 H 489.734 -0.746846 -3.9897 0
M  V30 5208 H 490.5 -3.20549 -3.63969 0
M  V30 5209 H 486.379 -2.07568 -4.11627 0
M  V30 5210 H 489.923 -5.52488 -4.25914 0
M  V30 5211 H 485.82 -4.38604 -4.736 0
M  V30 5212 H 486.588 -6.43715 -5.05542 0
M  V30 5213 N 489.251 1.34841 -0.815825 0
M  V30 5214 C 490.199 2.31549 -0.220888 0
M  V30 5215 C 491.193 1.5707 0.634457 0
M  V30 5216 O 492.399 1.72125 0.526589 0
M  V30 5217 H 488.774 0.750153 -0.0526782 0
M  V30 5218 H 490.745 2.7926 -1.05149 0
M  V30 5219 C 489.494 3.42335 0.608427 0
M  V30 5220 H 488.817 3.9978 -0.0404121 0
M  V30 5221 H 490.257 4.12258 0.990931 0
M  V30 5222 C 488.716 2.86173 1.77782 0
M  V30 5223 O 489.246 2.80474 2.87571 0
M  V30 5224 N 487.452 2.43093 1.59229 0
M  V30 5225 H 486.999 2.47928 0.699237 0
M  V30 5226 H 486.957 2.05866 2.37627 0
M  V30 5227 N 490.729 0.570148 1.46925 0
M  V30 5228 C 491.677 -0.183181 2.31878 0
M  V30 5229 C 492.671 -0.896721 1.43719 0
M  V30 5230 O 493.877 -0.816536 1.60414 0
M  V30 5231 H 490.252 -0.077944 0.74795 0
M  V30 5232 H 492.223 0.552312 2.93244 0
M  V30 5233 C 490.972 -1.19172 3.2664 0
M  V30 5234 H 490.295 -0.652088 3.94446 0
M  V30 5235 H 491.735 -1.68946 3.88887 0
M  V30 5236 C 490.194 -2.24627 2.51086 0
M  V30 5237 O 490.724 -3.31773 2.26472 0
M  V30 5238 N 488.93 -1.98898 2.11867 0
M  V30 5239 H 488.477 -1.11777 2.32086 0
M  V30 5240 H 488.435 -2.6967 1.61634 0
M  V30 5241 N 492.207 -1.54576 0.307264 0
M  V30 5242 C 493.454 -2.00263 -0.300167 0
M  V30 5243 C 493.782 -1.19561 -1.53413 0
M  V30 5244 O 493.037 -0.261487 -1.93945 0
M  V30 5245 C 493.336 -3.50572 -0.695253 0
M  V30 5246 C 493.002 -4.48771 0.437679 0
M  V30 5247 C 491.664 -4.7534 0.748681 0
M  V30 5248 C 494.016 -5.0721 1.19949 0
M  V30 5249 C 491.344 -5.5761 1.8245 0
M  V30 5250 C 493.696 -5.90651 2.26527 0
M  V30 5251 C 492.36 -6.15528 2.58227 0
M  V30 5252 H 491.63 -0.732814 -0.109839 0
M  V30 5253 H 494.277 -1.86664 0.427661 0
M  V30 5254 H 492.582 -3.61814 -1.50326 0
M  V30 5255 H 494.279 -3.83352 -1.17653 0
M  V30 5256 H 490.869 -4.282 0.185187 0
M  V30 5257 H 495.053 -4.86679 0.972474 0
M  V30 5258 H 490.309 -5.75121 2.07476 0
M  V30 5259 H 494.483 -6.34957 2.86011 0
M  V30 5260 H 492.11 -6.79066 3.4172 0
M  V30 5261 N 493.685 -0.035106 -1.57561 0
M  V30 5262 C 494.913 0.652258 -1.9635 0
M  V30 5263 C 495.328 1.65317 -0.911897 0
M  V30 5264 O 494.685 1.82194 0.105657 0
M  V30 5265 C 494.736 1.35337 -3.35211 0
M  V30 5266 O 494.457 0.392548 -4.36338 0
M  V30 5267 C 495.958 2.13199 -3.88666 0
M  V30 5268 H 493.178 0.179444 -0.646561 0
M  V30 5269 H 495.722 -0.0966459 -2.04271 0
M  V30 5270 H 493.877 2.05362 -3.28489 0
M  V30 5271 H 494.291 0.891097 -5.16875 0
M  V30 5272 H 495.765 2.577 -4.88154 0
M  V30 5273 H 496.242 2.97353 -3.23231 0
M  V30 5274 H 496.848 1.48118 -3.98674 0
M  V30 5275 N 495.163 1.55791 0.238111 0
M  V30 5276 C 496.412 1.77234 0.962868 0
M  V30 5277 C 496.725 0.600661 1.86149 0
M  V30 5278 O 497.931 0.698315 2.62366 0
M  V30 5279 C 496.387 3.13808 1.76218 0
M  V30 5280 C 495.995 4.3865 0.910518 0
M  V30 5281 C 497.739 3.44585 2.47914 0
M  V30 5282 C 495.646 5.66252 1.70623 0
M  V30 5283 H 494.576 0.660731 0.36325 0
M  V30 5284 H 497.227 1.8221 0.217242 0
M  V30 5285 H 495.609 3.02963 2.55009 0
M  V30 5286 H 496.783 4.60507 0.164316 0
M  V30 5287 H 495.098 4.15271 0.30647 0
M  V30 5288 H 497.695 4.3714 3.07917 0
M  V30 5289 H 498.038 2.66314 3.19973 0
M  V30 5290 H 498.571 3.56685 1.76127 0
M  V30 5291 H 495.31 6.47369 1.02923 0
M  V30 5292 H 494.83 5.48483 2.42748 0
M  V30 5293 H 496.509 6.05829 2.27114 0
M  V30 5294 N 496.642 -0.504142 1.49319 0
M  V30 5295 C 497.872 -1.28071 1.62116 0
M  V30 5296 C 498.28 -1.86955 0.290566 0
M  V30 5297 O 497.623 -1.68415 -0.733616 0
M  V30 5298 C 497.685 -2.4521 2.62893 0
M  V30 5299 C 497.349 -2.07218 4.0732 0
M  V30 5300 C 498.346 -1.61375 4.94221 0
M  V30 5301 C 496.031 -2.16949 4.53033 0
M  V30 5302 C 498.025 -1.25763 6.2487 0
M  V30 5303 C 495.712 -1.80949 5.83696 0
M  V30 5304 C 496.71 -1.3543 6.69438 0
M  V30 5305 O 496.398 -0.99915 7.97667 0
M  V30 5306 H 496.13 -0.394763 0.54876 0
M  V30 5307 H 498.684 -0.612118 1.96067 0
M  V30 5308 H 496.914 -3.15134 2.24115 0
M  V30 5309 H 498.603 -3.0724 2.65252 0
M  V30 5310 H 499.369 -1.53306 4.60133 0
M  V30 5311 H 495.248 -2.5133 3.86463 0
M  V30 5312 H 498.792 -0.901631 6.91749 0
M  V30 5313 H 494.689 -1.88667 6.17313 0
M  V30 5314 H 495.457 -1.13089 8.1065 0
M  V30 5315 N 498.12 -1.38341 -0.754957 0
M  V30 5316 C 499.348 -1.37704 -1.54419 0
M  V30 5317 C 499.763 0.0335243 -1.8877 0
M  V30 5318 O 499.12 0.999773 -1.52679 0
M  V30 5319 C 499.171 -2.23136 -2.84416 0
M  V30 5320 O 498.892 -3.58697 -2.51531 0
M  V30 5321 C 500.393 -2.30664 -3.78562 0
M  V30 5322 H 497.613 -0.471061 -0.477852 0
M  V30 5323 H 500.157 -1.81902 -0.934446 0
M  V30 5324 H 498.312 -1.82403 -3.41772 0
M  V30 5325 H 498.726 -4.03665 -3.34896 0
M  V30 5326 H 500.2 -2.9473 -4.66732 0
M  V30 5327 H 500.677 -1.3199 -4.18898 0
M  V30 5328 H 501.283 -2.71781 -3.27131 0
M  V30 5329 N 499.598 0.982988 -1.23187 0
M  V30 5330 C 500.826 1.75921 -1.08901 0
M  V30 5331 C 501.241 1.85341 0.359719 0
M  V30 5332 O 500.598 1.33072 1.24892 0
M  V30 5333 C 500.649 3.18742 -1.70545 0
M  V30 5334 O 500.37 3.09814 -3.09753 0
M  V30 5335 C 501.871 4.1277 -1.61667 0
M  V30 5336 H 499.091 0.552166 -0.381252 0
M  V30 5337 H 501.635 1.23516 -1.62985 0
M  V30 5338 H 499.79 3.68182 -1.20501 0
M  V30 5339 H 500.204 3.99703 -3.39614 0
M  V30 5340 H 501.678 5.10697 -2.09506 0
M  V30 5341 H 502.155 4.3542 -0.575009 0
M  V30 5342 H 502.761 3.69232 -2.11064 0
M  V30 5343 N 501.076 1.04316 1.18135 0
M  V30 5344 C 502.322 0.749128 1.88457 0
M  V30 5345 C 502.655 -0.72149 1.803 0
M  V30 5346 O 501.93 -1.52676 1.205 0
M  V30 5347 C 502.213 1.21905 3.38838 0
M  V30 5348 C 502.066 2.75195 3.55792 0
M  V30 5349 C 503.385 0.811085 4.32561 0
M  V30 5350 H 500.504 0.273611 0.684329 0
M  V30 5351 H 503.146 1.29561 1.38975 0
M  V30 5352 H 501.296 0.754137 3.8111 0
M  V30 5353 H 502.968 3.29743 3.22595 0
M  V30 5354 H 501.211 3.14899 2.98364 0
M  V30 5355 H 501.882 3.03135 4.61317 0
M  V30 5356 H 504.358 1.21118 3.98082 0
M  V30 5357 H 503.234 1.16761 5.36338 0
M  V30 5358 H 503.495 -0.285596 4.41177 0
M  V30 5359 N 502.554 -1.34406 0.822964 0
M  V30 5360 C 503.487 -2.27407 0.190124 0
M  V30 5361 C 504.465 -1.4889 -0.653486 0
M  V30 5362 O 505.649 -1.78109 -0.617216 0
M  V30 5363 C 502.776 -3.3064 -0.734477 0
M  V30 5364 C 501.822 -4.26488 0.0316099 0
M  V30 5365 S 502.655 -5.17445 1.3788 0
M  V30 5366 C 503.811 -6.24214 0.45907 0
M  V30 5367 H 504.044 -2.80733 0.978586 0
M  V30 5368 H 501.577 -1.41455 0.618866 0
M  V30 5369 H 503.535 -3.90607 -1.26238 0
M  V30 5370 H 502.196 -2.76161 -1.49646 0
M  V30 5371 H 501.389 -4.9951 -0.671285 0
M  V30 5372 H 500.991 -3.70775 0.490066 0
M  V30 5373 H 503.283 -6.76599 -0.349357 0
M  V30 5374 H 504.226 -6.98551 1.15896 0
M  V30 5375 H 504.634 -5.6448 0.0474825 0
M  V30 5376 N 504.032 -0.577932 -1.46621 0
M  V30 5377 C 505.257 -0.0652536 -2.07297 0
M  V30 5378 C 505.682 1.22828 -1.4246 0
M  V30 5379 O 505.04 1.74075 -0.506718 0
M  V30 5380 C 505.088 0.0920589 -3.60482 0
M  V30 5381 O 504.192 1.14972 -3.96049 0
M  V30 5382 H 503.533 -0.06065 -0.661224 0
M  V30 5383 H 506.063 -0.799515 -1.88332 0
M  V30 5384 H 506.073 0.299741 -4.06897 0
M  V30 5385 H 504.748 -0.852612 -4.07067 0
M  V30 5386 H 503.325 0.920879 -3.61351 0
M  V30 5387 N 505.51 1.54411 -0.315457 0
M  V30 5388 C 506.473 2.22713 0.54142 0
M  V30 5389 C 507.473 1.2179 1.04995 0
M  V30 5390 O 508.663 1.46426 0.943667 0
M  V30 5391 C 505.795 2.92485 1.75116 0
M  V30 5392 H 506.988 2.99849 -0.0555508 0
M  V30 5393 H 504.541 1.56159 -0.0664453 0
M  V30 5394 H 505.276 2.19466 2.38758 0
M  V30 5395 H 505.061 3.66483 1.39401 0
M  V30 5396 H 506.551 3.44548 2.35959 0
M  V30 5397 N 506.988 0.0434614 1.5754 0
M  V30 5398 C 508.236 -0.630786 1.92004 0
M  V30 5399 C 508.557 -1.71836 0.921807 0
M  V30 5400 O 507.827 -1.9587 -0.034522 0
M  V30 5401 H 506.407 -0.235988 0.708745 0
M  V30 5402 H 509.069 0.0946462 1.9467 0
M  V30 5403 H 508.165 -1.07434 2.93026 0
M  V30 5404 N 508.466 -1.55915 -0.229846 0
M  V30 5405 C 509.691 -1.8296 -0.976743 0
M  V30 5406 C 510.116 -0.622735 -1.77493 0
M  V30 5407 O 509.474 0.428431 -1.76165 0
M  V30 5408 C 509.522 -3.07916 -1.8767 0
M  V30 5409 O 508.626 -2.86028 -2.97088 0
M  V30 5410 H 507.967 -0.603453 -0.277021 0
M  V30 5411 H 510.497 -2.0312 -0.245669 0
M  V30 5412 H 510.507 -3.37802 -2.2881 0
M  V30 5413 H 509.182 -3.95389 -1.28996 0
M  V30 5414 H 507.759 -2.67355 -2.59954 0
M  V30 5415 N 509.944 0.496216 -1.49584 0
M  V30 5416 C 511.355 1.07765 -1.52459 0
M  V30 5417 C 511.706 1.93679 -0.31353 0
M  V30 5418 O 510.831 2.08588 0.576186 0
M  V30 5419 C 511.426 1.96111 -2.76271 0
M  V30 5420 C 509.985 2.49409 -2.81908 0
M  V30 5421 C 509.132 1.27142 -2.46435 0
M  V30 5422 H 512.083 0.279914 -1.56212 0
M  V30 5423 H 512.104 2.80862 -2.56704 0
M  V30 5424 H 511.616 1.33555 -3.64396 0
M  V30 5425 H 509.717 3.1559 -1.98074 0
M  V30 5426 H 509.83 2.86234 -3.84196 0
M  V30 5427 H 508.194 1.59818 -1.98319 0
M  V30 5428 H 508.977 0.662866 -3.3684 0
M  V30 5429 N 511.423 1.38739 0.74761 0
M  V30 5430 C 512.7 1.25791 1.49786 0
M  V30 5431 C 513.08 -0.138075 2.10648 0
M  V30 5432 O 512.428 -1.14815 1.9756 0
M  V30 5433 C 512.638 2.37265 2.55942 0
M  V30 5434 C 513.986 2.75978 3.22679 0
M  V30 5435 O 515.01 2.36621 2.6625 0
M  V30 5436 O 513.869 3.43867 4.24756 0
M  V30 5437 H 510.963 0.492251 0.664543 0
M  V30 5438 H 513.509 1.50582 0.782511 0
M  V30 5439 H 512.281 3.30644 2.0926 0
M  V30 5440 H 511.904 2.14071 3.35051 0
M  V30 5441 N 512.901 -0.976442 1.23707 0
M  V30 5442 C 513.848 -2.06952 1.02174 0
M  V30 5443 C 514.818 -1.65984 -0.0621034 0
M  V30 5444 O 516.003 -1.90584 0.0907906 0
M  V30 5445 C 513.143 -3.39425 0.62327 0
M  V30 5446 C 512.256 -3.9364 1.77966 0
M  V30 5447 C 511.391 -5.14343 1.3276 0
M  V30 5448 C 510.43 -5.60733 2.45449 0
M  V30 5449 N 509.567 -6.72662 2.01172 0
M  V30 5450 H 514.407 -2.24704 1.95734 0
M  V30 5451 H 511.944 -1.10143 0.975034 0
M  V30 5452 H 513.902 -4.15526 0.37332 0
M  V30 5453 H 512.532 -3.21624 -0.275329 0
M  V30 5454 H 511.584 -3.14258 2.14351 0
M  V30 5455 H 512.896 -4.24035 2.62671 0
M  V30 5456 H 512.05 -5.97789 1.03601 0
M  V30 5457 H 510.789 -4.8561 0.450975 0
M  V30 5458 H 509.794 -4.75865 2.75378 0
M  V30 5459 H 511.019 -5.91483 3.33654 0
M  V30 5460 H 508.965 -6.45681 1.15895 0
M  V30 5461 H 508.882 -7.02462 2.79434 0
M  V30 5462 H 510.15 -7.59572 1.75129 0
M  V30 5463 N 514.379 -1.04941 -1.1758 0
M  V30 5464 C 515.609 -0.777166 -1.91425 0
M  V30 5465 C 516.017 0.670647 -1.76915 0
M  V30 5466 O 515.36 1.46965 -1.10213 0
M  V30 5467 C 515.422 -1.07495 -3.43052 0
M  V30 5468 C 515.086 -2.51844 -3.81345 0
M  V30 5469 C 516.083 -3.50047 -3.844 0
M  V30 5470 C 513.768 -2.86787 -4.12382 0
M  V30 5471 C 515.762 -4.81239 -4.17957 0
M  V30 5472 C 513.449 -4.18182 -4.45608 0
M  V30 5473 C 514.447 -5.15219 -4.48373 0
M  V30 5474 O 514.135 -6.44258 -4.80819 0
M  V30 5475 H 513.867 -0.282209 -0.614275 0
M  V30 5476 H 516.421 -1.40258 -1.50056 0
M  V30 5477 H 514.651 -0.392437 -3.84704 0
M  V30 5478 H 516.34 -0.78912 -3.98155 0
M  V30 5479 H 517.106 -3.24391 -3.60548 0
M  V30 5480 H 512.985 -2.11922 -4.09402 0
M  V30 5481 H 516.529 -5.56974 -4.2003 0
M  V30 5482 H 512.426 -4.43602 -4.68922 0
M  V30 5483 H 513.194 -6.49041 -4.98686 0
M  V30 5484 N 515.857 1.33968 -0.830081 0
M  V30 5485 C 516.79 2.27303 -0.202182 0
M  V30 5486 C 517.768 1.49235 0.645581 0
M  V30 5487 O 518.952 1.78433 0.607762 0
M  V30 5488 C 516.079 3.31025 0.716932 0
M  V30 5489 C 515.125 4.26466 -0.0542271 0
M  V30 5490 S 515.958 5.16707 -1.40622 0
M  V30 5491 C 517.114 6.23962 -0.492167 0
M  V30 5492 H 517.347 2.8021 -0.99346 0
M  V30 5493 H 514.88 1.41124 -0.626359 0
M  V30 5494 H 516.838 3.91271 1.24165 0
M  V30 5495 H 515.499 2.76951 1.4818 0
M  V30 5496 H 514.692 4.99858 0.644785 0
M  V30 5497 H 514.294 3.7051 -0.509722 0
M  V30 5498 H 516.586 6.76774 0.31347 0
M  V30 5499 H 517.529 6.97927 -1.19599 0
M  V30 5500 H 517.937 5.64447 -0.0774176 0
M  V30 5501 N 517.335 0.585699 1.46312 0
M  V30 5502 C 518.563 0.0781299 2.06752 0
M  V30 5503 C 518.978 -1.22812 1.43396 0
M  V30 5504 O 518.335 -1.74318 0.540314 0
M  V30 5505 C 518.386 -0.0911927 3.61385 0
M  V30 5506 O 518.107 1.16336 4.22371 0
M  V30 5507 C 519.608 -0.632765 4.38761 0
M  V30 5508 H 516.828 0.0588188 0.668417 0
M  V30 5509 H 519.372 0.807218 1.87894 0
M  V30 5510 H 517.527 -0.770514 3.7966 0
M  V30 5511 H 517.941 0.979082 5.15281 0
M  V30 5512 H 519.415 -0.70041 5.47538 0
M  V30 5513 H 519.892 -1.65039 4.07012 0
M  V30 5514 H 520.498 0.0117856 4.25298 0
M  V30 5515 N 518.813 -1.54241 0.323641 0
M  V30 5516 C 520.229 -1.59574 -0.0290018 0
M  V30 5517 C 520.429 -1.34017 -1.50472 0
M  V30 5518 O 519.485 -1.12464 -2.26071 0
M  V30 5519 C 520.798 -2.98169 0.389295 0
M  V30 5520 C 522.346 -3.11148 0.339958 0
M  V30 5521 C 522.821 -4.5209 0.733418 0
M  V30 5522 N 524.312 -4.5808 0.686827 0
M  V30 5523 C 525.047 -5.65248 0.963464 0
M  V30 5524 N 524.543 -6.80355 1.30724 0
M  V30 5525 N 526.336 -5.55025 0.88902 0
M  V30 5526 H 518.487 -1.6911 1.28512 0
M  V30 5527 H 520.75 -0.790972 0.522558 0
M  V30 5528 H 520.456 -3.21871 1.41746 0
M  V30 5529 H 520.33 -3.76399 -0.245657 0
M  V30 5530 H 522.717 -2.87182 -0.679002 0
M  V30 5531 H 522.798 -2.35023 1.00985 0
M  V30 5532 H 522.442 -4.76788 1.75029 0
M  V30 5533 H 522.372 -5.26584 0.0412189 0
M  V30 5534 H 524.863 -3.75411 0.43298 0
M  V30 5535 H 525.176 -7.58029 1.5037 0
M  V30 5536 H 523.521 -6.81851 1.3455 0
M  V30 5537 H 526.712 -4.63977 0.619939 0
M  V30 5538 H 526.885 -6.38458 1.10797 0
M  V30 5539 N 520.291 -0.0518155 -1.57515 0
M  V30 5540 C 521.54 0.621286 -1.91893 0
M  V30 5541 C 521.853 1.71966 -0.932052 0
M  V30 5542 O 523.059 2.45096 -1.16791 0
M  V30 5543 C 521.515 1.15641 -3.40816 0
M  V30 5544 C 521.123 0.0901146 -4.47909 0
M  V30 5545 C 522.867 1.80472 -3.84227 0
M  V30 5546 C 520.774 0.638154 -5.87947 0
M  V30 5547 H 519.704 0.235835 -0.716169 0
M  V30 5548 H 522.355 -0.120809 -1.83102 0
M  V30 5549 H 520.737 1.95084 -3.44613 0
M  V30 5550 H 521.911 -0.683525 -4.55702 0
M  V30 5551 H 520.226 -0.460774 -4.13843 0
M  V30 5552 H 522.823 2.22471 -4.86221 0
M  V30 5553 H 523.166 2.65669 -3.20508 0
M  V30 5554 H 523.699 1.07683 -3.82948 0
M  V30 5555 H 520.438 -0.176202 -6.55263 0
M  V30 5556 H 519.958 1.37976 -5.83714 0
M  V30 5557 H 521.637 1.12085 -6.37217 0
M  V30 5558 N 521.769 1.56035 0.221574 0
M  V30 5559 C 523.185 1.49026 0.571271 0
M  V30 5560 C 523.385 0.746912 1.87146 0
M  V30 5561 O 522.441 0.286566 2.50869 0
M  V30 5562 C 523.754 2.93579 0.650522 0
M  V30 5563 C 525.302 3.04099 0.741151 0
M  V30 5564 C 525.777 4.5001 0.851747 0
M  V30 5565 N 527.268 4.54053 0.915968 0
M  V30 5566 C 528.003 5.64232 1.02125 0
M  V30 5567 N 527.499 6.84164 1.09049 0
M  V30 5568 N 529.292 5.52084 1.05639 0
M  V30 5569 H 521.443 2.02791 -0.63162 0
M  V30 5570 H 523.706 0.921736 -0.221602 0
M  V30 5571 H 523.412 3.50912 -0.235253 0
M  V30 5572 H 523.286 3.45476 1.51413 0
M  V30 5573 H 525.673 2.4683 1.61737 0
M  V30 5574 H 525.754 2.55371 -0.148128 0
M  V30 5575 H 525.398 5.07896 -0.0200117 0
M  V30 5576 H 525.328 4.96444 1.75644 0
M  V30 5577 H 527.819 3.67683 0.872782 0
M  V30 5578 H 528.132 7.63883 1.1706 0
M  V30 5579 H 526.477 6.86875 1.05962 0
M  V30 5580 H 529.668 4.57317 0.998953 0
M  V30 5581 H 529.841 6.37983 1.13498 0
M  V30 5582 N 523.247 -0.488276 1.49845 0
M  V30 5583 C 524.195 -1.60917 1.67954 0
M  V30 5584 C 525.189 -1.6038 0.54539 0
M  V30 5585 O 526.395 -1.64736 0.7254 0
M  V30 5586 H 522.77 -0.533658 0.529824 0
M  V30 5587 H 524.741 -1.428 2.62013 0
M  V30 5588 C 523.49 -2.98975 1.77509 0
M  V30 5589 H 522.813 -3.00099 2.6416 0
M  V30 5590 H 524.253 -3.76906 1.9421 0
M  V30 5591 C 522.712 -3.3282 0.522745 0
M  V30 5592 O 523.242 -4.00208 -0.345866 0
M  V30 5593 N 521.448 -2.8808 0.381882 0
M  V30 5594 H 520.995 -2.33415 1.08974 0
M  V30 5595 H 520.953 -3.11091 -0.454929 0
M  V30 5596 N 524.725 -1.39134 -0.740242 0
M  V30 5597 C 526.136 -1.32208 -1.31825 0
M  V30 5598 C 526.487 0.0159919 -1.96193 0
M  V30 5599 O 525.612 0.918111 -1.95958 0
M  V30 5600 C 526.207 -2.39436 -2.39699 0
M  V30 5601 C 524.766 -2.36048 -2.93187 0
M  V30 5602 C 523.913 -2.21599 -1.66701 0
M  V30 5603 H 526.864 -1.49298 -0.538133 0
M  V30 5604 H 526.885 -2.05922 -3.19963 0
M  V30 5605 H 526.397 -3.36811 -1.92821 0
M  V30 5606 H 524.498 -1.42295 -3.44359 0
M  V30 5607 H 524.611 -3.30704 -3.46658 0
M  V30 5608 H 522.975 -1.68681 -1.90837 0
M  V30 5609 H 523.758 -3.20936 -1.21882 0
M  V30 5610 N 526.204 0.969867 -1.24223 0
M  V30 5611 C 527.429 1.75289 -1.10853 0
M  V30 5612 C 527.854 1.85091 0.335079 0
M  V30 5613 O 527.212 1.32024 1.24255 0
M  V30 5614 C 527.26 3.15255 -1.75062 0
M  V30 5615 O 526.364 3.99589 -1.01992 0
M  V30 5616 H 525.705 0.538904 -0.387915 0
M  V30 5617 H 528.235 1.21675 -1.64488 0
M  V30 5618 H 528.245 3.65787 -1.80731 0
M  V30 5619 H 526.92 3.07436 -2.801 0
M  V30 5620 H 525.497 3.58077 -1.04094 0
M  V30 5621 N 527.682 1.05563 1.17022 0
M  V30 5622 C 529.098 0.777684 1.39371 0
M  V30 5623 C 529.298 -0.626269 1.91521 0
M  V30 5624 O 528.354 -1.38806 2.10924 0
M  V30 5625 C 529.667 1.83642 2.3811 0
M  V30 5626 C 531.215 1.85907 2.51809 0
M  V30 5627 C 531.69 2.90813 3.53824 0
M  V30 5628 N 533.181 2.898 3.61345 0
M  V30 5629 C 533.916 3.6762 4.40049 0
M  V30 5630 N 533.412 4.55237 5.22237 0
M  V30 5631 N 535.205 3.56044 4.34959 0
M  V30 5632 H 527.356 1.9614 0.815047 0
M  V30 5633 H 529.619 0.849527 0.420722 0
M  V30 5634 H 529.325 2.84425 2.06871 0
M  V30 5635 H 529.199 1.6812 3.37662 0
M  V30 5636 H 531.586 0.857865 2.82356 0
M  V30 5637 H 531.667 2.05506 1.52318 0
M  V30 5638 H 531.311 3.91122 3.24015 0
M  V30 5639 H 531.241 2.68465 4.53028 0
M  V30 5640 H 533.732 2.26274 3.02669 0
M  V30 5641 H 534.045 5.11291 5.79484 0
M  V30 5642 H 532.39 4.59296 5.21605 0
M  V30 5643 H 535.581 2.86986 3.69806 0
M  V30 5644 H 535.754 4.16938 4.96051 0
M  V30 5645 N 529.16 -1.33526 0.837174 0
M  V30 5646 C 530.107 -2.29248 0.267169 0
M  V30 5647 C 531.077 -1.54252 -0.616071 0
M  V30 5648 O 532.262 -1.82559 -0.554699 0
M  V30 5649 C 529.402 -3.40638 -0.553152 0
M  V30 5650 C 528.515 -4.30548 0.353921 0
M  V30 5651 C 527.65 -5.29051 -0.477339 0
M  V30 5652 C 526.689 -6.106 0.42823 0
M  V30 5653 N 525.826 -7.01152 -0.364801 0
M  V30 5654 H 530.666 -2.77398 1.08877 0
M  V30 5655 H 528.203 -1.36496 0.54838 0
M  V30 5656 H 530.161 -4.03921 -1.04422 0
M  V30 5657 H 528.791 -2.93685 -1.33973 0
M  V30 5658 H 527.843 -3.68001 0.963289 0
M  V30 5659 H 529.155 -4.87631 1.04964 0
M  V30 5660 H 528.309 -5.97853 -1.0323 0
M  V30 5661 H 527.048 -4.72541 -1.2065 0
M  V30 5662 H 526.053 -5.40718 0.995219 0
M  V30 5663 H 527.278 -6.69193 1.15573 0
M  V30 5664 H 525.224 -6.47092 -1.07738 0
M  V30 5665 H 525.141 -7.5551 0.272238 0
M  V30 5666 H 526.409 -7.74263 -0.902054 0
M  V30 5667 O 530.677 -0.734023 -1.43855 0
M  V30 5668 H 531.368 -0.285275 -1.91588 0
M  V30 END ATOM
M  V30 BEGIN BOND
M  V30 END BOND
M  V30 END CTAB
M  END
$$$$
