drugbank_target|P16219 Short-chain specific acyl-CoA dehydrogenase, mitochondrial (DB00157; DB03059; DB03147)
 OpenBabel12092119393D

  0  0  0     0  0            999 V3000
M  V30 BEGIN CTAB
M  V30 COUNTS 6257 6313 0 0 0
M  V30 BEGIN ATOM
M  V30 1 H -0.908 1.98254 -0.117106 0
M  V30 2 N 0 1.576 0 0
M  V30 3 C 0.933 2.03868 1.02534 0
M  V30 4 C 1.911 0.928543 1.3348 0
M  V30 5 O 3.095 1.19667 1.45644 0
M  V30 6 C 0.222 2.43627 2.35294 0
M  V30 7 C -0.732 3.65373 2.2001 0
M  V30 8 S 0.101 5.13292 1.52614 0
M  V30 9 C 1.257 5.56322 2.86805 0
M  V30 10 H 1.49 2.90518 0.631377 0
M  V30 11 H -0.977 1.52953 0.210867 0
M  V30 12 H 0.981 2.67203 3.11629 0
M  V30 13 H -0.358 1.57376 2.7183 0
M  V30 14 H -1.165 3.90944 3.18086 0
M  V30 15 H -1.563 3.418 1.51819 0
M  V30 16 H 0.729 5.58782 3.83104 0
M  V30 17 H 1.672 6.56266 2.65933 0
M  V30 18 H 2.08 4.83886 2.90714 0
M  V30 19 N 1.4781 -0.272755 1.55222 0
M  V30 20 C 2.4411 -1.32041 1.87344 0
M  V30 21 C 3.4411 -1.42342 0.74803 0
M  V30 22 O 4.6311 -1.41488 1.0162 0
M  V30 23 C 1.7631 -2.70173 2.07893 0
M  V30 24 H 2.9561 -1.04789 2.80997 0
M  V30 25 H 0.5091 -0.51083 1.47717 0
M  V30 26 H 1.2441 -3.02605 1.16622 0
M  V30 27 H 1.0291 -2.64082 2.89833 0
M  V30 28 H 2.5191 -3.45869 2.34017 0
M  V30 29 N 2.9562 -1.48159 -0.537278 0
M  V30 30 C 3.9192 -1.61665 -1.62472 0
M  V30 31 C 4.9192 -0.490395 -1.5314 0
M  V30 32 O 6.1092 -0.755998 -1.5694 0
M  V30 33 C 3.2412 -1.57997 -3.02076 0
M  V30 34 H 4.4342 -2.58621 -1.51839 0
M  V30 35 H 1.9872 -1.36647 -0.758771 0
M  V30 36 H 2.7222 -0.624913 -3.18222 0
M  V30 37 H 2.5072 -2.39755 -3.10258 0
M  V30 38 H 3.9972 -1.70627 -3.81151 0
M  V30 39 N 4.4343 0.785586 -1.36625 0
M  V30 40 C 5.3973 1.87999 -1.31107 0
M  V30 41 C 6.3973 1.59316 -0.217959 0
M  V30 42 O 7.5873 1.67656 -0.472977 0
M  V30 43 C 4.7193 3.24861 -1.03334 0
M  V30 44 H 5.9123 1.94307 -2.2844 0
M  V30 45 H 3.4653 0.983813 -1.21453 0
M  V30 46 H 4.2003 3.24235 -0.0647432 0
M  V30 47 H 3.9853 3.4707 -1.82441 0
M  V30 48 H 5.4753 4.04929 -1.02088 0
M  V30 49 N 5.9124 1.20967 1.01018 0
M  V30 50 C 6.8424 0.988272 2.11555 0
M  V30 51 C 7.8234 -0.0849778 1.69888 0
M  V30 52 O 9.0084 0.0738202 1.9406 0
M  V30 53 C 6.1384 0.546528 3.42973 0
M  V30 54 C 5.0924 1.56375 3.9841 0
M  V30 55 C 4.4184 0.97842 5.25672 0
M  V30 56 C 5.7184 2.94922 4.31066 0
M  V30 57 H 7.4124 1.91276 2.30334 0
M  V30 58 H 4.9584 0.921073 1.1069 0
M  V30 59 H 6.9114 0.378839 4.19694 0
M  V30 60 H 5.6354 -0.413598 3.23971 0
M  V30 61 H 4.2944 1.71891 3.23804 0
M  V30 62 H 3.9424 0.0101688 5.02999 0
M  V30 63 H 3.6424 1.65784 5.63728 0
M  V30 64 H 5.1664 0.821939 6.05043 0
M  V30 65 H 6.5804 2.8288 4.9865 0
M  V30 66 H 4.9774 3.5983 4.80253 0
M  V30 67 H 6.0474 3.4616 3.39561 0
M  V30 68 N 7.3905 -1.2043 1.01659 0
M  V30 69 C 8.3205 -2.25466 0.607226 0
M  V30 70 C 9.3015 -1.65853 -0.377716 0
M  V30 71 O 10.4865 -1.92409 -0.263149 0
M  V30 72 C 7.6165 -3.47256 -0.0552949 0
M  V30 73 C 6.5705 -4.19462 0.850632 0
M  V30 74 C 5.8965 -5.34673 0.0538859 0
M  V30 75 C 7.1965 -4.75603 2.15868 0
M  V30 76 H 8.8905 -2.59962 1.48526 0
M  V30 77 H 6.4365 -1.2496 0.715605 0
M  V30 78 H 8.3895 -4.19917 -0.353233 0
M  V30 79 H 7.1135 -3.11924 -0.968045 0
M  V30 80 H 5.7725 -3.48667 1.13257 0
M  V30 81 H 5.4205 -4.95585 -0.860514 0
M  V30 82 H 5.1205 -5.83913 0.657192 0
M  V30 83 H 6.6445 -6.10138 -0.237598 0
M  V30 84 H 8.0585 -5.40083 1.92311 0
M  V30 85 H 6.4555 -5.3528 2.71284 0
M  V30 86 H 7.5255 -3.94346 2.82169 0
M  V30 87 N 8.8686 -0.792821 -1.36206 0
M  V30 88 C 9.8316 -0.199459 -2.2833 0
M  V30 89 C 10.8316 0.605189 -1.48977 0
M  V30 90 O 12.0216 0.425685 -1.68919 0
M  V30 91 C 9.1536 0.723523 -3.33134 0
M  V30 92 H 10.3466 -1.01181 -2.82316 0
M  V30 93 H 7.8996 -0.562485 -1.45828 0
M  V30 94 H 8.6346 1.56008 -2.84309 0
M  V30 95 H 8.4196 0.148436 -3.91819 0
M  V30 96 H 9.9096 1.13344 -4.01924 0
M  V30 97 N 10.3467 1.47872 -0.545128 0
M  V30 98 C 11.7627 1.5829 -0.204032 0
M  V30 99 C 11.9627 1.54529 1.29317 0
M  V30 100 O 11.0187 1.44232 2.07252 0
M  V30 101 C 12.3317 2.89304 -0.819987 0
M  V30 102 C 13.8797 3.02864 -0.790105 0
M  V30 103 C 14.3547 4.3656 -1.38491 0
M  V30 104 N 15.8457 4.43165 -1.34755 0
M  V30 105 C 16.5807 5.45153 -1.77753 0
M  V30 106 N 16.0767 6.54016 -2.2855 0
M  V30 107 N 17.8697 5.36125 -1.68897 0
M  V30 108 H 10.0207 1.4856 -1.51802 0
M  V30 109 H 12.2837 0.706305 -0.632327 0
M  V30 110 H 11.9897 2.97757 -1.87173 0
M  V30 111 H 11.8637 3.75957 -0.305915 0
M  V30 112 H 14.2507 2.94014 0.252913 0
M  V30 113 H 14.3317 2.17782 -1.34181 0
M  V30 114 H 13.9757 4.46164 -2.42693 0
M  V30 115 H 13.9057 5.20353 -0.808754 0
M  V30 116 H 16.3967 3.65083 -0.975855 0
M  V30 117 H 16.7097 7.27994 -2.59314 0
M  V30 118 H 15.0547 6.54938 -2.32553 0
M  V30 119 H 18.2457 4.49975 -1.28998 0
M  V30 120 H 18.4187 6.15472 -2.02726 0
M  V30 121 N 11.8248 0.280983 1.55075 0
M  V30 122 C 12.7878 -0.590896 2.21452 0
M  V30 123 C 13.7878 -1.07682 1.19421 0
M  V30 124 O 14.9778 -0.97605 1.44288 0
M  V30 125 C 12.1098 -1.81587 2.88511 0
M  V30 126 H 13.3028 -0.0112554 2.99898 0
M  V30 127 H 10.8558 0.0316438 1.56268 0
M  V30 128 H 11.5908 -2.43587 2.14093 0
M  V30 129 H 11.3758 -1.4753 3.63287 0
M  V30 130 H 12.8658 -2.43575 3.39206 0
M  V30 131 N 13.3029 -1.57598 0.00835791 0
M  V30 132 C 14.5279 -1.95617 -0.689103 0
M  V30 133 C 14.9529 -0.883753 -1.66046 0
M  V30 134 O 14.3109 0.157352 -1.80616 0
M  V30 135 C 14.3589 -3.32736 -1.38994 0
M  V30 136 O 13.4629 -3.27631 -2.50463 0
M  V30 137 H 12.8039 -0.638379 -0.182668 0
M  V30 138 H 15.3339 -2.045 0.064036 0
M  V30 139 H 15.3439 -3.68494 -1.75147 0
M  V30 140 H 14.0189 -4.1034 -0.677778 0
M  V30 141 H 12.5959 -3.03561 -2.16576 0
M  V30 142 N 14.781 0.264519 -1.55364 0
M  V30 143 C 16.029 0.993021 -1.76021 0
M  V30 144 C 16.35 1.86511 -0.569099 0
M  V30 145 O 15.62 1.91438 0.415735 0
M  V30 146 H 14.2 0.369639 -0.649135 0
M  V30 147 H 16.862 0.286707 -1.9278 0
M  V30 148 H 15.958 1.62502 -2.66457 0
M  V30 149 N 16.2591 1.48442 0.529413 0
M  V30 150 C 17.6701 1.5002 1.11134 0
M  V30 151 C 18.0211 0.27031 1.94329 0
M  V30 152 O 17.1461 -0.622507 2.07253 0
M  V30 153 C 17.7411 2.71834 2.02217 0
M  V30 154 C 16.3001 2.76283 2.55627 0
M  V30 155 C 15.4471 2.43542 1.326 0
M  V30 156 H 18.3981 1.5555 0.314641 0
M  V30 157 H 18.4191 2.50384 2.8651 0
M  V30 158 H 17.9311 3.61331 1.41639 0
M  V30 159 H 16.0321 1.90995 3.19924 0
M  V30 160 H 16.1451 3.77725 2.94721 0
M  V30 161 H 14.5091 1.94709 1.64196 0
M  V30 162 H 15.2921 3.3528 0.737734 0
M  V30 163 N 17.7372 -0.778329 1.37039 0
M  V30 164 C 18.7002 -1.87301 1.32102 0
M  V30 165 C 19.7002 -1.59198 0.226405 0
M  V30 166 O 20.8902 -1.67403 0.481861 0
M  V30 167 C 18.0222 -3.24309 1.05055 0
M  V30 168 H 19.2152 -1.93093 2.29467 0
M  V30 169 H 16.7682 -0.977358 1.21973 0
M  V30 170 H 17.5032 -3.24196 0.0819373 0
M  V30 171 H 17.2882 -3.46098 1.84279 0
M  V30 172 H 18.7782 -4.04382 1.04234 0
M  V30 173 N 19.2153 -1.21501 -1.00376 0
M  V30 174 C 20.6313 -0.972629 -1.26539 0
M  V30 175 C 20.8313 0.340257 -1.98606 0
M  V30 176 O 19.8873 1.06561 -2.28913 0
M  V30 177 C 21.2003 -2.16404 -2.08781 0
M  V30 178 C 22.7483 -2.20643 -2.22004 0
M  V30 179 C 23.2233 -3.39306 -3.07629 0
M  V30 180 N 24.7143 -3.39401 -3.15217 0
M  V30 181 C 25.4493 -4.27867 -3.81729 0
M  V30 182 N 24.9453 -5.26533 -4.5026 0
M  V30 183 N 26.7383 -4.15672 -3.78382 0
M  V30 184 H 18.8893 -2.05929 -0.520281 0
M  V30 185 H 21.1523 -0.901803 -0.292328 0
M  V30 186 H 20.8583 -3.11554 -1.63178 0
M  V30 187 H 20.7323 -2.15567 -3.09533 0
M  V30 188 H 23.1193 -1.26048 -2.66825 0
M  V30 189 H 23.2003 -2.25523 -1.20718 0
M  V30 190 H 22.8443 -4.34195 -2.63509 0
M  V30 191 H 22.7743 -3.31665 -4.09031 0
M  V30 192 H 25.2653 -2.67997 -2.66432 0
M  V30 193 H 25.5783 -5.90337 -4.98721 0
M  V30 194 H 23.9233 -5.30457 -4.49044 0
M  V30 195 H 27.1143 -3.3785 -3.23998 0
M  V30 196 H 27.2873 -4.84825 -4.2994 0
M  V30 197 N 20.6934 1.19889 -1.02296 0
M  V30 198 C 22.1094 1.41462 -0.738954 0
M  V30 199 C 22.3094 1.89721 0.678846 0
M  V30 200 O 21.3654 2.07016 1.4457 0
M  V30 201 C 22.6784 2.43083 -1.77005 0
M  V30 202 C 24.2264 2.5684 -1.78892 0
M  V30 203 C 24.7014 3.61709 -2.80945 0
M  V30 204 N 26.1924 3.69199 -2.79725 0
M  V30 205 C 26.9274 4.50019 -3.55345 0
M  V30 206 N 26.4234 5.34592 -4.40662 0
M  V30 207 N 28.2164 4.44612 -3.43914 0
M  V30 208 H 20.3674 0.868827 -1.93817 0
M  V30 209 H 22.6304 0.44399 -0.837602 0
M  V30 210 H 22.3364 2.14636 -2.78612 0
M  V30 211 H 22.2104 3.4217 -1.58744 0
M  V30 212 H 24.5974 2.84614 -0.779674 0
M  V30 213 H 24.6784 1.57927 -2.01228 0
M  V30 214 H 24.3224 3.34678 -3.82038 0
M  V30 215 H 24.2524 4.60259 -2.5587 0
M  V30 216 H 26.7434 3.08794 -2.17842 0
M  V30 217 H 27.0564 5.93363 -4.95116 0
M  V30 218 H 25.4014 5.34073 -4.44737 0
M  V30 219 H 28.5924 3.7758 -2.76679 0
M  V30 220 H 28.7654 5.0736 -4.031 0
M  V30 221 N 22.1715 0.800033 1.35784 0
M  V30 222 C 23.1345 0.211565 2.28221 0
M  V30 223 C 24.1345 -0.59728 1.49296 0
M  V30 224 O 25.3245 -0.416721 1.69142 0
M  V30 225 C 22.4565 -0.705846 3.33513 0
M  V30 226 H 23.6495 1.02677 2.81776 0
M  V30 227 H 21.2025 0.570211 1.45528 0
M  V30 228 H 21.9375 -1.54498 2.85133 0
M  V30 229 H 21.7225 -0.127655 3.91892 0
M  V30 230 H 23.2125 -1.11211 4.02519 0
M  V30 231 N 23.6496 -1.47581 0.552962 0
M  V30 232 C 24.5796 -2.32762 -0.185451 0
M  V30 233 C 25.5606 -1.43527 -0.912905 0
M  V30 234 O 26.7456 -1.72388 -0.894201 0
M  V30 235 C 23.8756 -3.25219 -1.21859 0
M  V30 236 C 22.8296 -4.23661 -0.607864 0
M  V30 237 C 22.1556 -5.05413 -1.74533 0
M  V30 238 C 23.4556 -5.20481 0.435582 0
M  V30 239 H 25.1496 -2.94749 0.525684 0
M  V30 240 H 22.6956 -1.41738 0.254251 0
M  V30 241 H 24.6486 -3.8365 -1.7433 0
M  V30 242 H 23.3726 -2.61279 -1.95961 0
M  V30 243 H 22.0316 -3.66451 -0.104489 0
M  V30 244 H 21.6796 -4.3788 -2.47529 0
M  V30 245 H 21.3796 -5.72059 -1.34249 0
M  V30 246 H 22.9036 -5.66701 -2.27338 0
M  V30 247 H 24.3176 -5.733 -0.00290157 0
M  V30 248 H 22.7146 -5.95305 0.757067 0
M  V30 249 H 23.7846 -4.66217 1.33303 0
M  V30 250 N 25.1277 -0.289203 -1.54924 0
M  V30 251 C 26.3677 0.324536 -2.01807 0
M  V30 252 C 26.7317 1.5199 -1.17316 0
M  V30 253 O 27.9327 2.20422 -1.53843 0
M  V30 254 C 26.2037 0.683578 -3.50802 0
M  V30 255 S 27.7627 1.28185 -4.19659 0
M  V30 256 H 24.5807 0.100236 -0.703899 0
M  V30 257 H 27.1827 -0.414325 -1.91059 0
M  V30 258 H 25.8867 -0.195073 -4.09936 0
M  V30 259 H 25.4177 1.45354 -3.65562 0
M  V30 260 H 27.4327 2.57006 -4.24456 0
M  V30 261 N 26.6058 1.57591 -0.0167156 0
M  V30 262 C 28.0168 1.79201 0.523834 0
M  V30 263 C 28.3678 0.925796 1.72984 0
M  V30 264 O 27.4928 0.132792 2.15992 0
M  V30 265 C 28.0878 3.25 0.957091 0
M  V30 266 C 26.6468 3.47648 1.44283 0
M  V30 267 C 25.7938 2.74374 0.401757 0
M  V30 268 H 28.7448 1.56831 -0.242816 0
M  V30 269 H 28.7658 3.34031 1.82219 0
M  V30 270 H 28.2778 3.88019 0.0791415 0
M  V30 271 H 26.3788 2.89866 2.34113 0
M  V30 272 H 26.4918 4.56352 1.45877 0
M  V30 273 H 24.8558 2.39485 0.867121 0
M  V30 274 H 25.6388 3.40102 -0.467513 0
M  V30 275 N 28.0839 -0.256276 1.55502 0
M  V30 276 C 29.4999 -0.604325 1.47716 0
M  V30 277 C 29.6999 -1.88763 0.705039 0
M  V30 278 O 28.7559 -2.51445 0.230613 0
M  V30 279 C 30.0689 -0.715756 2.92057 0
M  V30 280 C 31.6169 -0.808706 3.02372 0
M  V30 281 C 32.0919 -0.951777 4.48001 0
M  V30 282 N 33.5829 -1.01688 4.519 0
M  V30 283 C 34.3179 -1.14668 5.61817 0
M  V30 284 N 33.8139 -1.24261 6.81565 0
M  V30 285 N 35.6069 -1.1791 5.49594 0
M  V30 286 H 27.7579 0.586291 2.04148 0
M  V30 287 H 30.0209 0.201015 0.926443 0
M  V30 288 H 29.7269 0.157027 3.51349 0
M  V30 289 H 29.6009 -1.59071 3.42018 0
M  V30 290 H 31.9879 -1.67195 2.43166 0
M  V30 291 H 32.0689 0.0912063 2.55637 0
M  V30 292 H 31.7129 -0.0931291 5.07815 0
M  V30 293 H 31.6429 -1.86659 4.92408 0
M  V30 294 H 34.1339 -0.954468 3.65648 0
M  V30 295 H 34.4469 -1.34046 7.61086 0
M  V30 296 H 32.7919 -1.21236 6.84344 0
M  V30 297 H 35.9829 -1.10057 4.54978 0
M  V30 298 H 36.1559 -1.27681 6.35296 0
M  V30 299 N 29.562 -1.4872 -0.521534 0
M  V30 300 C 30.525 -1.63379 -1.60748 0
M  V30 301 C 31.525 -0.50661 -1.52611 0
M  V30 302 O 32.715 -0.772601 -1.5613 0
M  V30 303 C 29.847 -1.61192 -3.00383 0
M  V30 304 H 31.04 -2.60217 -1.49087 0
M  V30 305 H 28.593 -1.37444 -0.744235 0
M  V30 306 H 29.328 -0.65863 -3.17541 0
M  V30 307 H 29.113 -2.43032 -3.07698 0
M  V30 308 H 30.603 -1.7466 -3.7932 0
M  V30 309 N 31.0401 0.771051 -1.3745 0
M  V30 310 C 32.2861 1.53109 -1.339 0
M  V30 311 C 32.6411 1.9225 0.0758401 0
M  V30 312 O 31.9341 1.61264 1.03463 0
M  V30 313 C 32.1281 2.80676 -2.2126 0
M  V30 314 C 31.9571 2.54003 -3.71096 0
M  V30 315 C 30.7271 2.48097 -4.402 0
M  V30 316 C 32.9251 2.21953 -4.63941 0
M  V30 317 N 30.9071 2.13515 -5.75573 0
M  V30 318 C 32.2781 1.97516 -5.87697 0
M  V30 319 C 34.3331 2.08114 -4.5232 0
M  V30 320 C 33.0361 1.60638 -7.01133 0
M  V30 321 C 35.0621 1.72636 -5.65642 0
M  V30 322 C 34.4241 1.4906 -6.88448 0
M  V30 323 H 30.5231 0.56055 -0.54526 0
M  V30 324 H 33.1071 0.899472 -1.72678 0
M  V30 325 H 31.2781 3.41674 -1.84698 0
M  V30 326 H 33.0101 3.46578 -2.08963 0
M  V30 327 H 29.7651 2.63974 -3.93211 0
M  V30 328 H 30.1891 1.98919 -6.47117 0
M  V30 329 H 34.8311 2.25024 -3.57944 0
M  V30 330 H 32.5491 1.42467 -7.95443 0
M  V30 331 H 36.1351 1.62586 -5.58621 0
M  V30 332 H 35.0151 1.22014 -7.7465 0
M  V30 333 N 32.5182 1.22032 0.997298 0
M  V30 334 C 33.9342 0.979326 1.26021 0
M  V30 335 C 34.1342 -0.32972 1.98784 0
M  V30 336 O 33.1902 -1.05345 2.29475 0
M  V30 337 C 34.5032 2.17509 2.07631 0
M  V30 338 C 36.0512 2.21817 2.2083 0
M  V30 339 C 36.5262 3.40933 3.05825 0
M  V30 340 N 38.0172 3.41067 3.13412 0
M  V30 341 C 38.7522 4.29885 3.79455 0
M  V30 342 N 38.2482 5.28914 4.47462 0
M  V30 343 N 40.0412 4.17673 3.76173 0
M  V30 344 H 32.1922 2.06202 0.509352 0
M  V30 345 H 34.4552 0.90334 0.287541 0
M  V30 346 H 34.1612 3.12415 1.61524 0
M  V30 347 H 34.0352 2.17206 3.08385 0
M  V30 348 H 36.4222 1.27462 2.66153 0
M  V30 349 H 36.5032 2.2616 1.1952 0
M  V30 350 H 36.1472 4.35586 2.61203 0
M  V30 351 H 36.0772 3.33829 4.07266 0
M  V30 352 H 38.5682 2.69406 2.65007 0
M  V30 353 H 38.8812 5.92973 4.95583 0
M  V30 354 H 37.2262 5.32831 4.46224 0
M  V30 355 H 40.4172 3.39564 3.22202 0
M  V30 356 H 40.5902 4.87098 4.27363 0
M  V30 357 N 33.9963 -1.19345 1.0293 0
M  V30 358 C 34.9283 -2.22036 0.56857 0
M  V30 359 C 35.9413 -1.58865 -0.355779 0
M  V30 360 O 37.1303 -1.77851 -0.152103 0
M  V30 361 C 34.2303 -3.38363 -0.190752 0
M  V30 362 C 33.4033 -4.31118 0.738643 0
M  V30 363 C 32.4623 -5.26194 0.0246497 0
M  V30 364 O 31.4883 -5.65461 0.651354 0
M  V30 365 N 32.6903 -5.66971 -1.24594 0
M  V30 366 H 35.4553 -2.6219 1.45177 0
M  V30 367 H 33.0163 -1.34015 0.908381 0
M  V30 368 H 35.0083 -3.98981 -0.677961 0
M  V30 369 H 33.5783 -2.96994 -0.975366 0
M  V30 370 H 32.7983 -3.68276 1.40593 0
M  V30 371 H 34.0863 -4.90001 1.37029 0
M  V30 372 H 33.4843 -5.37104 -1.77583 0
M  V30 373 H 32.0413 -6.2984 -1.67764 0
M  V30 374 N 35.4744 -0.807222 -1.35358 0
M  V30 375 C 36.4044 -0.232509 -2.3234 0
M  V30 376 C 37.3854 0.642386 -1.57504 0
M  V30 377 O 38.5704 0.572526 -1.85569 0
M  V30 378 C 35.7004 0.619238 -3.41735 0
M  V30 379 C 34.6544 -0.157215 -4.27711 0
M  V30 380 C 33.9804 0.816273 -5.28433 0
M  V30 381 C 35.2804 -1.35656 -5.04376 0
M  V30 382 H 36.9744 -1.04276 -2.80654 0
M  V30 383 H 34.5204 -0.50288 -1.34934 0
M  V30 384 H 36.4734 1.03137 -4.08584 0
M  V30 385 H 35.1974 1.46239 -2.92031 0
M  V30 386 H 33.8564 -0.550525 -3.62443 0
M  V30 387 H 33.5044 1.65494 -4.74996 0
M  V30 388 H 33.2044 0.301067 -5.86828 0
M  V30 389 H 34.7284 1.22659 -5.98153 0
M  V30 390 H 36.1424 -1.01927 -5.64166 0
M  V30 391 H 34.5394 -1.8063 -5.7227 0
M  V30 392 H 35.6094 -2.14288 -4.34981 0
M  V30 393 N 36.9525 1.47285 -0.560781 0
M  V30 394 C 37.9025 2.27073 0.205384 0
M  V30 395 C 38.8865 1.34569 0.882044 0
M  V30 396 O 40.0785 1.58899 0.77976 0
M  V30 397 C 37.2075 3.20414 1.23247 0
M  V30 398 C 36.2935 4.20399 0.559041 0
M  V30 399 N 36.6845 5.04423 -0.372927 0
M  V30 400 C 34.9825 4.38536 0.812522 0
M  V30 401 C 35.6835 5.76655 -0.764446 0
M  V30 402 N 34.6595 5.43471 -0.11848 0
M  V30 403 H 38.4615 2.89422 -0.511117 0
M  V30 404 H 35.9755 1.57868 -0.380975 0
M  V30 405 H 37.9725 3.76262 1.79534 0
M  V30 406 H 36.6325 2.59623 1.95002 0
M  V30 407 H 37.6435 5.1248 -0.747287 0
M  V30 408 H 34.3205 3.88913 1.51832 0
M  V30 409 H 35.7105 6.54238 -1.53045 0
M  V30 410 N 38.4306 0.297415 1.54768 0
M  V30 411 C 39.6586 -0.315623 2.04478 0
M  V30 412 C 40.0736 -1.47792 1.17486 0
M  V30 413 O 39.4306 -1.81404 0.19971 0
M  V30 414 C 39.4816 -0.7753 3.53088 0
M  V30 415 O 39.2026 0.340732 4.36773 0
M  V30 416 C 40.7036 -1.45386 4.18781 0
M  V30 417 H 37.9236 -0.0690887 0.667434 0
M  V30 418 H 40.4676 0.436003 1.99798 0
M  V30 419 H 38.6226 -1.47696 3.58141 0
M  V30 420 H 39.0366 -0.0165035 5.24497 0
M  V30 421 H 40.5106 -1.72669 5.24299 0
M  V30 422 H 40.9876 -2.39275 3.68299 0
M  V30 423 H 41.5936 -0.795475 4.17795 0
M  V30 424 N 39.9087 -1.5758 0.0250728 0
M  V30 425 C 41.1577 -1.90811 -0.653767 0
M  V30 426 C 41.4707 -0.90273 -1.73523 0
M  V30 427 O 42.6767 -1.12614 -2.47043 0
M  V30 428 C 41.1327 -3.38804 -1.21409 0
M  V30 429 C 40.7407 -4.47692 -0.166126 0
M  V30 430 C 42.4847 -3.81108 -1.86967 0
M  V30 431 C 40.3917 -5.86779 -0.737856 0
M  V30 432 H 39.3217 -0.712063 -0.247956 0
M  V30 433 H 41.9727 -1.83281 0.0897137 0
M  V30 434 H 40.3547 -3.41252 -2.00905 0
M  V30 435 H 41.5287 -4.56797 0.606079 0
M  V30 436 H 39.8437 -4.14565 0.390466 0
M  V30 437 H 42.4407 -4.82375 -2.30692 0
M  V30 438 H 42.7837 -3.15953 -2.71071 0
M  V30 439 H 43.3167 -3.81065 -1.14167 0
M  V30 440 H 40.0557 -6.55468 0.0649577 0
M  V30 441 H 39.5757 -5.81288 -1.47864 0
M  V30 442 H 41.2547 -6.35223 -1.22884 0
M  V30 443 N 41.3868 0.248026 -1.55636 0
M  V30 444 C 42.6168 0.992367 -1.81206 0
M  V30 445 C 43.0248 1.7949 -0.598324 0
M  V30 446 O 42.3678 1.78292 0.442434 0
M  V30 447 C 42.4298 1.97926 -3.00109 0
M  V30 448 C 42.0938 1.36377 -4.36177 0
M  V30 449 C 43.0908 0.76682 -5.14214 0
M  V30 450 C 40.7758 1.38347 -4.82872 0
M  V30 451 C 42.7698 0.197778 -6.37093 0
M  V30 452 C 40.4568 0.810574 -6.057 0
M  V30 453 C 41.4548 0.218754 -6.8265 0
M  V30 454 O 41.1428 -0.345298 -8.03158 0
M  V30 455 H 40.8748 0.297704 -0.606917 0
M  V30 456 H 43.4288 0.276517 -2.0353 0
M  V30 457 H 41.6588 2.73339 -2.73538 0
M  V30 458 H 43.3478 2.58694 -3.12781 0
M  V30 459 H 44.1138 0.744114 -4.79258 0
M  V30 460 H 39.9928 1.8335 -4.2297 0
M  V30 461 H 43.5368 -0.264788 -6.97097 0
M  V30 462 H 39.4338 0.830604 -6.40134 0
M  V30 463 H 40.2018 -0.237055 -8.18157 0
M  V30 464 N 42.8649 1.48995 0.513639 0
M  V30 465 C 43.7969 1.60836 1.63293 0
M  V30 466 C 44.8099 0.491701 1.55197 0
M  V30 467 O 45.9989 0.763238 1.6136 0
M  V30 468 C 43.0989 1.53731 3.02027 0
M  V30 469 C 42.2719 2.80715 3.35437 0
M  V30 470 C 41.3309 2.66837 4.53525 0
M  V30 471 O 40.3569 3.40753 4.55934 0
M  V30 472 N 41.5589 1.77539 5.52684 0
M  V30 473 H 44.3239 2.57366 1.53566 0
M  V30 474 H 41.8849 1.45925 0.701259 0
M  V30 475 H 43.8769 1.42118 3.78926 0
M  V30 476 H 42.4469 0.651092 3.05744 0
M  V30 477 H 41.6669 3.06772 2.47557 0
M  V30 478 H 42.9549 3.64927 3.54551 0
M  V30 479 H 42.3529 1.16719 5.53528 0
M  V30 480 H 40.9099 1.71856 6.28736 0
M  V30 481 N 44.343 -0.763751 1.37857 0
M  V30 482 C 45.568 -1.55805 1.36893 0
M  V30 483 C 45.993 -1.88054 -0.0416135 0
M  V30 484 O 45.351 -1.49825 -1.02089 0
M  V30 485 C 45.399 -2.84012 2.22192 0
M  V30 486 O 44.503 -3.78732 1.63204 0
M  V30 487 H 43.844 -0.471638 0.46739 0
M  V30 488 H 46.374 -0.944657 1.81487 0
M  V30 489 H 46.384 -3.33037 2.35691 0
M  V30 490 H 45.059 -2.59869 3.24716 0
M  V30 491 H 43.636 -3.37402 1.58791 0
M  V30 492 N 45.8211 -1.22559 -0.990812 0
M  V30 493 C 47.0671 -1.05297 -1.73322 0
M  V30 494 C 47.4001 0.410655 -1.89808 0
M  V30 495 O 46.6751 1.30439 -1.44277 0
M  V30 496 C 46.9581 -1.76713 -3.13759 0
M  V30 497 C 46.8111 -3.30684 -3.04907 0
M  V30 498 C 48.1301 -1.52121 -4.12974 0
M  V30 499 H 45.2491 -0.38392 -0.629106 0
M  V30 500 H 47.8911 -1.50926 -1.15418 0
M  V30 501 H 46.0411 -1.37924 -3.63193 0
M  V30 502 H 47.7131 -3.7893 -2.63077 0
M  V30 503 H 45.9561 -3.60253 -2.41661 0
M  V30 504 H 46.6271 -3.75833 -4.04294 0
M  V30 505 H 49.1031 -1.85819 -3.72304 0
M  V30 506 H 47.9791 -2.04582 -5.0935 0
M  V30 507 H 48.2401 -0.454257 -4.3976 0
M  V30 508 N 47.2992 1.18797 -1.03562 0
M  V30 509 C 48.2092 2.25913 -0.632505 0
M  V30 510 C 49.2252 1.70668 0.338882 0
M  V30 511 O 50.4012 2.00453 0.195076 0
M  V30 512 C 47.4662 3.467 0.00350942 0
M  V30 513 C 46.5272 4.17098 -1.01624 0
M  V30 514 C 45.7602 5.32119 -0.410478 0
M  V30 515 O 45.9832 5.64976 0.784725 0
M  V30 516 O 44.9172 5.9107 -1.13667 0
M  V30 517 H 48.7432 2.62648 -1.52478 0
M  V30 518 H 46.3282 1.25781 -0.806195 0
M  V30 519 H 48.2102 4.19878 0.35781 0
M  V30 520 H 46.8852 3.11798 0.869686 0
M  V30 521 H 45.7922 3.4601 -1.42224 0
M  V30 522 H 47.1252 4.55987 -1.85301 0
M  V30 523 N 48.7773 0.814389 1.34928 0
M  V30 524 C 49.7073 0.244827 2.32213 0
M  V30 525 C 50.6883 -0.634024 1.57842 0
M  V30 526 O 51.8733 -0.562676 1.8587 0
M  V30 527 C 49.0033 -0.601106 3.42058 0
M  V30 528 C 47.9573 0.179896 4.27622 0
M  V30 529 C 47.2833 -0.788237 5.28858 0
M  V30 530 C 48.5833 1.38329 5.03649 0
M  V30 531 H 50.2773 1.05763 2.80097 0
M  V30 532 H 47.8233 0.510029 1.34665 0
M  V30 533 H 49.7763 -1.00968 4.09125 0
M  V30 534 H 48.5003 -1.44688 2.92802 0
M  V30 535 H 47.1593 0.569739 3.62146 0
M  V30 536 H 46.8073 -1.62973 4.75866 0
M  V30 537 H 46.5073 -0.269942 5.8698 0
M  V30 538 H 48.0313 -1.19485 5.98795 0
M  V30 539 H 49.4453 1.04918 5.63618 0
M  V30 540 H 47.8423 1.83662 5.71304 0
M  V30 541 H 48.9123 2.16592 4.33839 0
M  V30 542 N 50.2554 -1.46986 0.568584 0
M  V30 543 C 51.6664 -1.86188 0.138219 0
M  V30 544 C 52.0174 -1.47388 -1.29504 0
M  V30 545 O 51.1424 -0.88219 -1.97602 0
M  V30 546 C 51.7374 -3.3792 0.244065 0
M  V30 547 C 50.2964 -3.76171 -0.131335 0
M  V30 548 C 49.4434 -2.71027 0.586465 0
M  V30 549 H 52.3944 -1.38342 0.777645 0
M  V30 550 H 52.4154 -3.76729 -0.534351 0
M  V30 551 H 51.9274 -3.66128 1.28731 0
M  V30 552 H 50.0284 -3.5358 -1.17526 0
M  V30 553 H 50.1414 -4.78523 0.235146 0
M  V30 554 H 48.5054 -2.54684 0.0282722 0
M  V30 555 H 49.2884 -3.02077 1.63109 0
M  V30 556 N 51.7335 -0.305618 -1.54608 0
M  V30 557 C 52.6435 0.57778 -2.27374 0
M  V30 558 C 53.6595 1.14451 -1.31061 0
M  V30 559 O 54.8355 1.16831 -1.6405 0
M  V30 560 C 51.9005 1.73123 -3.00382 0
M  V30 561 C 50.9615 1.19812 -4.12242 0
M  V30 562 C 50.1945 2.2966 -4.81759 0
M  V30 563 O 50.4175 3.49651 -4.50666 0
M  V30 564 O 49.3515 1.96091 -5.69062 0
M  V30 565 H 53.1775 -0.012624 -3.03697 0
M  V30 566 H 50.7625 -0.0719184 -1.49227 0
M  V30 567 H 52.6445 2.40315 -3.4616 0
M  V30 568 H 51.3195 2.30815 -2.26949 0
M  V30 569 H 50.2265 0.491798 -3.70853 0
M  V30 570 H 51.5595 0.666566 -4.87666 0
M  V30 571 N 53.2116 1.57565 -0.0334293 0
M  V30 572 C 54.4396 1.9628 0.654347 0
M  V30 573 C 54.8546 0.910138 1.65414 0
M  V30 574 O 54.2116 -0.107595 1.82183 0
M  V30 575 C 54.2626 3.35067 1.35693 0
M  V30 576 O 53.9836 4.36296 0.397191 0
M  V30 577 C 55.4846 3.88439 2.13613 0
M  V30 578 H 52.7046 0.646369 0.180132 0
M  V30 579 H 55.2486 2.04282 -0.0944721 0
M  V30 580 H 53.4036 3.2827 2.05712 0
M  V30 581 H 53.8176 5.1678 0.896597 0
M  V30 582 H 55.2916 4.8788 2.58219 0
M  V30 583 H 55.7686 3.22914 2.97696 0
M  V30 584 H 56.3746 3.98516 1.48543 0
M  V30 585 N 54.6897 -0.239769 1.55765 0
M  V30 586 C 55.6397 -1.30002 1.87306 0
M  V30 587 C 56.6237 -1.43156 0.73452 0
M  V30 588 O 57.8157 -1.46277 0.99659 0
M  V30 589 C 54.9447 -2.65409 2.17745 0
M  V30 590 C 54.0307 -2.56231 3.37945 0
M  V30 591 N 54.4217 -2.16689 4.57033 0
M  V30 592 C 52.7197 -2.87229 3.41197 0
M  V30 593 C 53.4207 -2.18318 5.39177 0
M  V30 594 N 52.3967 -2.58098 4.78421 0
M  V30 595 H 56.1987 -0.984912 2.76906 0
M  V30 596 H 53.7127 -0.448381 1.56087 0
M  V30 597 H 55.7097 -3.41934 2.38509 0
M  V30 598 H 54.3697 -2.97781 1.29448 0
M  V30 599 H 55.3807 -1.88116 4.82528 0
M  V30 600 H 52.0577 -3.24094 2.63191 0
M  V30 601 H 53.4477 -1.90025 6.44469 0
M  V30 602 N 56.1678 -1.49265 -0.50573 0
M  V30 603 C 57.0998 -1.617 -1.62437 0
M  V30 604 C 58.1128 -0.499924 -1.54934 0
M  V30 605 O 59.3018 -0.771785 -1.60953 0
M  V30 606 C 56.4018 -1.5533 -3.01207 0
M  V30 607 C 55.5748 -2.8249 -3.33943 0
M  V30 608 C 54.6338 -2.69238 -4.52103 0
M  V30 609 O 53.6598 -3.43167 -4.5412 0
M  V30 610 N 54.8618 -1.80468 -5.51735 0
M  V30 611 H 57.6268 -2.58177 -1.52199 0
M  V30 612 H 55.1878 -1.46294 -0.693511 0
M  V30 613 H 57.1798 -1.44125 -3.78167 0
M  V30 614 H 55.7498 -0.667297 -3.05395 0
M  V30 615 H 54.9698 -3.08081 -2.45926 0
M  V30 616 H 56.2578 -3.66802 -3.5261 0
M  V30 617 H 55.6558 -1.19653 -5.52901 0
M  V30 618 H 54.2128 -1.75188 -6.27816 0
M  V30 619 N 57.6459 0.756429 -1.3826 0
M  V30 620 C 58.5789 1.87802 -1.29637 0
M  V30 621 C 59.5569 1.61667 -0.173939 0
M  V30 622 O 60.7409 1.85208 -0.350775 0
M  V30 623 C 57.8679 3.23354 -1.00797 0
M  V30 624 C 56.9139 3.68379 -2.14939 0
M  V30 625 S 57.7469 3.8025 -3.77054 0
M  V30 626 C 58.9029 5.18626 -3.50396 0
M  V30 627 H 59.1359 1.94829 -2.24564 0
M  V30 628 H 56.6689 0.919117 -1.24063 0
M  V30 629 H 58.6269 4.01637 -0.848413 0
M  V30 630 H 57.2879 3.14008 -0.0759369 0
M  V30 631 H 56.4809 4.66693 -1.90299 0
M  V30 632 H 56.0829 2.97242 -2.26988 0
M  V30 633 H 58.3749 6.04289 -3.06334 0
M  V30 634 H 59.3179 5.48286 -4.48094 0
M  V30 635 H 59.7259 4.87289 -2.84973 0
M  V30 636 N 59.124 1.23083 0.984299 0
M  V30 637 C 60.054 1.03292 2.09411 0
M  V30 638 C 61.035 -0.048923 1.7003 0
M  V30 639 O 62.22 0.114967 1.93859 0
M  V30 640 C 59.35 0.619155 3.41736 0
M  V30 641 C 58.304 1.64791 3.95004 0
M  V30 642 C 57.63 1.0897 5.23478 0
M  V30 643 C 58.93 3.03999 4.24714 0
M  V30 644 H 60.624 1.96119 2.26225 0
M  V30 645 H 58.17 0.944344 1.08711 0
M  V30 646 H 60.123 0.467777 4.18796 0
M  V30 647 H 58.847 -0.344786 3.24775 0
M  V30 648 H 57.506 1.78721 3.20085 0
M  V30 649 H 57.154 0.11686 5.02864 0
M  V30 650 H 56.854 1.77704 5.60085 0
M  V30 651 H 58.378 0.950093 6.03163 0
M  V30 652 H 59.792 2.93393 4.92538 0
M  V30 653 H 58.189 3.69936 4.72512 0
M  V30 654 H 59.259 3.53285 3.32142 0
M  V30 655 N 60.6021 -1.18246 1.0419 0
M  V30 656 C 61.5321 -2.24127 0.654914 0
M  V30 657 C 62.5131 -1.66617 -0.342451 0
M  V30 658 O 63.6981 -1.92924 -0.222277 0
M  V30 659 C 60.8281 -3.47295 0.0183757 0
M  V30 660 C 59.7821 -4.17563 0.939414 0
M  V30 661 C 59.1081 -5.34438 0.167286 0
M  V30 662 C 60.4081 -4.70917 2.25908 0
M  V30 663 H 62.1021 -2.56753 1.54007 0
M  V30 664 H 59.6481 -1.23414 0.74195 0
M  V30 665 H 61.6011 -4.20572 -0.264082 0
M  V30 666 H 60.3251 -3.13907 -0.901664 0
M  V30 667 H 58.9841 -3.46186 1.20628 0
M  V30 668 H 58.6321 -4.97298 -0.7552 0
M  V30 669 H 58.3321 -5.82388 0.780901 0
M  V30 670 H 59.8561 -6.10504 -0.108125 0
M  V30 671 H 61.2701 -5.35882 2.03724 0
M  V30 672 H 59.6671 -5.29406 2.82577 0
M  V30 673 H 60.7371 -3.88272 2.9047 0
M  V30 674 N 62.0802 -0.821533 -1.34494 0
M  V30 675 C 63.0122 -0.199946 -2.28326 0
M  V30 676 C 64.0252 0.609377 -1.50965 0
M  V30 677 O 65.2142 0.439285 -1.7301 0
M  V30 678 C 62.3142 0.738431 -3.30757 0
M  V30 679 C 61.4872 -0.0277632 -4.37391 0
M  V30 680 C 60.5462 0.831332 -5.19591 0
M  V30 681 O 59.5722 0.276822 -5.68526 0
M  V30 682 N 60.7742 2.15132 -5.39165 0
M  V30 683 H 63.5392 -1.00609 -2.82308 0
M  V30 684 H 61.1002 -0.678366 -1.47003 0
M  V30 685 H 63.0922 1.31773 -3.82646 0
M  V30 686 H 61.6622 1.44533 -2.7718 0
M  V30 687 H 60.8822 -0.788359 -3.86236 0
M  V30 688 H 62.1702 -0.555251 -5.05761 0
M  V30 689 H 61.5682 2.62559 -5.01078 0
M  V30 690 H 60.1252 2.6795 -5.94177 0
M  V30 691 N 63.5583 1.46682 -0.576371 0
M  V30 692 C 64.7863 2.06798 -0.0649635 0
M  V30 693 C 65.2013 1.42612 1.23723 0
M  V30 694 O 64.5583 0.529203 1.74659 0
M  V30 695 C 64.6093 3.6132 0.114202 0
M  V30 696 O 64.3303 4.23104 -1.13644 0
M  V30 697 C 65.8313 4.38349 0.66069 0
M  V30 698 H 63.0513 0.668778 -0.0545616 0
M  V30 699 H 65.5953 1.88404 -0.795237 0
M  V30 700 H 63.7503 3.79162 0.794673 0
M  V30 701 H 64.1643 5.15894 -0.946253 0
M  V30 702 H 65.6383 5.47081 0.73526 0
M  V30 703 H 66.1153 4.05953 1.67627 0
M  V30 704 H 66.7213 4.25297 0.0152951 0
M  V30 705 N 65.0364 0.313813 1.54444 0
M  V30 706 C 66.2764 -0.292389 2.02298 0
M  V30 707 C 66.6404 -1.50105 1.19719 0
M  V30 708 O 67.8414 -2.17947 1.5733 0
M  V30 709 C 66.1124 -0.627682 3.51845 0
M  V30 710 S 67.6714 -1.21493 4.21646 0
M  V30 711 H 64.4894 -0.0890247 0.705405 0
M  V30 712 H 67.0914 0.444668 1.90376 0
M  V30 713 H 65.7954 0.260265 4.09574 0
M  V30 714 H 65.3264 -1.39519 3.67829 0
M  V30 715 H 67.3414 -2.5022 4.28491 0
M  V30 716 N 66.5145 -1.57545 0.0417849 0
M  V30 717 C 67.9305 -1.56467 -0.314704 0
M  V30 718 C 68.1305 -1.04859 -1.72066 0
M  V30 719 O 67.1865 -0.700983 -2.42575 0
M  V30 720 C 68.4995 -3.00317 -0.15174 0
M  V30 721 C 70.0475 -3.12201 -0.223553 0
M  V30 722 C 70.5225 -4.57913 -0.0892295 0
M  V30 723 N 72.0135 -4.6297 -0.145808 0
M  V30 724 C 72.7485 -5.73362 -0.0658459 0
M  V30 725 N 72.2445 -6.92769 0.0659282 0
M  V30 726 N 74.0375 -5.6197 -0.12075 0
M  V30 727 H 66.1885 -1.89416 0.961014 0
M  V30 728 H 68.4515 -0.871862 0.372237 0
M  V30 729 H 68.1575 -3.42073 0.817254 0
M  V30 730 H 68.0315 -3.65892 -0.916692 0
M  V30 731 H 70.4185 -2.70349 -1.18301 0
M  V30 732 H 70.4995 -2.49323 0.571994 0
M  V30 733 H 70.1435 -5.00448 0.866867 0
M  V30 734 H 70.0735 -5.18786 -0.903802 0
M  V30 735 H 72.5645 -3.7709 -0.247286 0
M  V30 736 H 72.8775 -7.72707 0.119905 0
M  V30 737 H 71.2225 -6.94927 0.100885 0
M  V30 738 H 74.4135 -4.67572 -0.222187 0
M  V30 739 H 74.5865 -6.47977 -0.0549735 0
M  V30 740 N 67.9926 0.231505 -1.5589 0
M  V30 741 C 69.2696 0.981096 -1.69215 0
M  V30 742 C 69.6496 2.02799 -0.586164 0
M  V30 743 O 68.9976 2.24823 0.408253 0
M  V30 744 C 69.2076 1.60054 -3.10135 0
M  V30 745 C 70.5556 2.09658 -3.69227 0
M  V30 746 O 71.5796 1.69967 -3.13033 0
M  V30 747 O 70.4386 2.8258 -4.67772 0
M  V30 748 H 67.5326 0.457653 -0.688827 0
M  V30 749 H 70.0786 0.224073 -1.68214 0
M  V30 750 H 68.8506 0.844105 -3.82087 0
M  V30 751 H 68.4736 2.42336 -3.15212 0
M  V30 752 N 69.4707 1.49531 0.497807 0
M  V30 753 C 70.7177 1.59179 1.25173 0
M  V30 754 C 71.0457 0.279932 1.92475 0
M  V30 755 O 70.3007 -0.732383 1.81479 0
M  V30 756 C 70.5997 2.70252 2.33878 0
M  V30 757 C 70.2657 4.11644 1.84012 0
M  V30 758 C 68.9277 4.50121 1.70132 0
M  V30 759 C 71.2797 5.00121 1.46725 0
M  V30 760 C 68.6077 5.74845 1.17348 0
M  V30 761 C 70.9597 6.25366 0.95392 0
M  V30 762 C 69.6237 6.6267 0.801538 0
M  V30 763 H 68.8937 0.582478 0.45804 0
M  V30 764 H 71.5407 1.83373 0.551948 0
M  V30 765 H 69.8457 2.40041 3.09657 0
M  V30 766 H 71.5427 2.74925 2.9192 0
M  V30 767 H 68.1327 3.81274 1.95775 0
M  V30 768 H 72.3167 4.71048 1.56294 0
M  V30 769 H 67.5727 6.02444 1.04264 0
M  V30 770 H 71.7467 6.93301 0.656225 0
M  V30 771 H 69.3737 7.59197 0.390351 0
M  V30 772 N 70.9488 -0.749086 1.3866 0
M  V30 773 C 71.9118 -1.84457 1.36045 0
M  V30 774 C 72.9118 -1.58682 0.260122 0
M  V30 775 O 74.1018 -1.66343 0.517261 0
M  V30 776 C 71.2338 -3.22008 1.11911 0
M  V30 777 H 72.4268 -1.88182 2.33512 0
M  V30 778 H 69.9798 -0.951266 1.24019 0
M  V30 779 H 70.7148 -3.2395 0.150686 0
M  V30 780 H 70.4998 -3.42111 1.91579 0
M  V30 781 H 71.9898 -4.0208 1.12788 0
M  V30 782 N 72.4269 -1.23603 -0.977757 0
M  V30 783 C 73.3369 -1.03632 -2.1047 0
M  V30 784 C 74.3529 0.0199435 -1.73989 0
M  V30 785 O 75.5289 -0.176076 -2.00629 0
M  V30 786 C 72.5939 -0.63276 -3.40877 0
M  V30 787 C 71.6549 -1.76437 -3.91367 0
M  V30 788 C 70.8879 -1.37997 -5.15551 0
M  V30 789 O 71.1109 -0.265357 -5.69782 0
M  V30 790 O 70.0449 -2.20201 -5.60174 0
M  V30 791 H 73.8709 -1.98086 -2.30208 0
M  V30 792 H 71.4559 -1.02332 -1.08851 0
M  V30 793 H 73.3379 -0.418761 -4.19314 0
M  V30 794 H 72.0129 0.282754 -3.22463 0
M  V30 795 H 70.9199 -2.03304 -3.14036 0
M  V30 796 H 72.2529 -2.6583 -4.14241 0
M  V30 797 N 73.905 1.17692 -1.04816 0
M  V30 798 C 74.852 2.21581 -0.645797 0
M  V30 799 C 75.822 1.62367 0.350159 0
M  V30 800 O 77.007 1.89254 0.242433 0
M  V30 801 C 74.147 3.45092 -0.0227568 0
M  V30 802 C 73.26 4.18613 -1.06709 0
M  V30 803 C 72.395 5.29602 -0.411767 0
M  V30 804 C 71.434 5.94904 -1.44067 0
M  V30 805 N 70.571 6.97414 -0.809781 0
M  V30 806 H 75.411 2.55353 -1.5362 0
M  V30 807 H 72.948 1.25438 -0.768364 0
M  V30 808 H 74.906 4.15679 0.35588 0
M  V30 809 H 73.536 3.11917 0.831122 0
M  V30 810 H 72.588 3.46779 -1.5636 0
M  V30 811 H 73.9 4.63293 -1.84827 0
M  V30 812 H 73.054 6.06696 0.0206623 0
M  V30 813 H 71.793 4.86045 0.401438 0
M  V30 814 H 70.798 5.16544 -1.88316 0
M  V30 815 H 72.023 6.40542 -2.25571 0
M  V30 816 H 69.969 6.55998 -0.0170186 0
M  V30 817 H 69.886 7.40386 -1.52856 0
M  V30 818 H 71.154 7.78463 -0.401999 0
M  V30 819 N 75.3831 0.828654 1.34056 0
M  V30 820 C 76.2931 0.256725 2.33191 0
M  V30 821 C 77.3091 -0.611898 1.62886 0
M  V30 822 O 78.4851 -0.51844 1.94613 0
M  V30 823 C 75.5501 -0.567238 3.42028 0
M  V30 824 C 74.6111 0.324458 4.28072 0
M  V30 825 C 73.8441 -0.460274 5.31712 0
M  V30 826 O 74.0671 -1.693 5.44696 0
M  V30 827 O 73.0011 0.160391 6.01686 0
M  V30 828 H 76.8271 1.07739 2.83947 0
M  V30 829 H 74.4121 0.59093 1.37217 0
M  V30 830 H 76.2941 -1.03582 4.08471 0
M  V30 831 H 74.9691 -1.36513 2.93506 0
M  V30 832 H 73.8761 0.840659 3.64532 0
M  V30 833 H 75.2091 1.08685 4.8005 0
M  V30 834 N 76.8612 -1.46375 0.584142 0
M  V30 835 C 77.7912 -2.33103 -0.136037 0
M  V30 836 C 78.7722 -1.45431 -0.882255 0
M  V30 837 O 79.9572 -1.74246 -0.857434 0
M  V30 838 C 77.0872 -3.27731 -1.14933 0
M  V30 839 C 76.0412 -4.24855 -0.517862 0
M  V30 840 C 75.3672 -5.09001 -1.63773 0
M  V30 841 C 76.6672 -5.19439 0.545886 0
M  V30 842 H 78.3612 -2.93568 0.588086 0
M  V30 843 H 75.9072 -1.41166 0.284259 0
M  V30 844 H 77.8602 -3.87261 -1.66153 0
M  V30 845 H 76.5842 -2.65377 -1.90375 0
M  V30 846 H 75.2432 -3.6659 -0.0267361 0
M  V30 847 H 74.8912 -4.43031 -2.38185 0
M  V30 848 H 74.5912 -5.74777 -1.22085 0
M  V30 849 H 76.1152 -5.71396 -2.15266 0
M  V30 850 H 77.5292 -5.73177 0.118704 0
M  V30 851 H 75.9262 -5.93566 0.88317 0
M  V30 852 H 76.9962 -4.63285 1.43162 0
M  V30 853 N 78.3393 -0.321999 -1.54275 0
M  V30 854 C 79.5863 0.281044 -2.0054 0
M  V30 855 C 79.9143 1.52265 -1.21019 0
M  V30 856 O 79.1693 1.93687 -0.279982 0
M  V30 857 C 79.4683 0.661769 -3.5122 0
M  V30 858 C 79.1343 -0.480482 -4.48333 0
M  V30 859 C 77.7963 -0.794005 -4.74604 0
M  V30 860 C 80.1483 -1.24783 -5.06042 0
M  V30 861 C 77.4763 -1.87763 -5.55844 0
M  V30 862 C 79.8283 -2.32153 -5.88462 0
M  V30 863 C 78.4923 -2.64089 -6.13036 0
M  V30 864 H 77.7623 0.102841 -0.733829 0
M  V30 865 H 80.4093 -0.445453 -1.86247 0
M  V30 866 H 78.7143 1.46867 -3.63232 0
M  V30 867 H 80.4113 1.13989 -3.84457 0
M  V30 868 H 77.0013 -0.226039 -4.28004 0
M  V30 869 H 81.1853 -1.01887 -4.85729 0
M  V30 870 H 76.4413 -2.12954 -5.73115 0
M  V30 871 H 80.6153 -2.92057 -6.32199 0
M  V30 872 H 78.2423 -3.48185 -6.75775 0
M  V30 873 N 79.8174 1.5752 -0.0501392 0
M  V30 874 C 81.2284 1.80271 0.485705 0
M  V30 875 C 81.5794 0.96228 1.70981 0
M  V30 876 O 80.7044 0.178578 2.15662 0
M  V30 877 C 81.2994 3.26957 0.887938 0
M  V30 878 C 79.8584 3.5063 1.36877 0
M  V30 879 C 79.0054 2.75165 0.343468 0
M  V30 880 H 81.9564 1.56281 -0.276028 0
M  V30 881 H 81.9774 3.37821 1.75093 0
M  V30 882 H 81.4894 3.881 -0.0031809 0
M  V30 883 H 79.5904 2.94766 2.27911 0
M  V30 884 H 79.7034 4.59343 1.36164 0
M  V30 885 H 78.0674 2.4127 0.816128 0
M  V30 886 H 78.8504 3.39034 -0.539548 0
M  V30 887 N 81.2955 -0.223234 1.56011 0
M  V30 888 C 82.5445 -0.945912 1.78144 0
M  V30 889 C 82.8575 -1.85567 0.618396 0
M  V30 890 O 84.0635 -2.61688 0.723318 0
M  V30 891 C 82.5195 -1.73216 3.15475 0
M  V30 892 C 82.1275 -0.868619 4.39499 0
M  V30 893 C 83.8715 -2.44615 3.46935 0
M  V30 894 C 81.7785 -1.65212 5.67855 0
M  V30 895 H 80.7085 -0.356929 0.664167 0
M  V30 896 H 83.3595 -0.199845 1.82409 0
M  V30 897 H 81.7415 -2.52107 3.05382 0
M  V30 898 H 82.9155 -0.120366 4.60643 0
M  V30 899 H 81.2305 -0.26683 4.15544 0
M  V30 900 H 83.8275 -3.03732 4.40058 0
M  V30 901 H 84.1705 -3.17417 2.69355 0
M  V30 902 H 84.7035 -1.72715 3.58349 0
M  V30 903 H 81.4425 -0.967407 6.48322 0
M  V30 904 H 80.9625 -2.37503 5.50774 0
M  V30 905 H 82.6415 -2.21322 6.07968 0
M  V30 906 N 82.7736 -1.49793 -0.48987 0
M  V30 907 C 83.7366 -1.66752 -1.57246 0
M  V30 908 C 84.7366 -0.538867 -1.51502 0
M  V30 909 O 85.9266 -0.805545 -1.54456 0
M  V30 910 C 83.0586 -1.67528 -2.96896 0
M  V30 911 H 84.2516 -2.63321 -1.43534 0
M  V30 912 H 81.8046 -1.38992 -0.714914 0
M  V30 913 H 82.5396 -0.725837 -3.16073 0
M  V30 914 H 82.3246 -2.49504 -3.02473 0
M  V30 915 H 83.8146 -1.82667 -3.7553 0
M  V30 916 N 84.2517 0.741722 -1.39055 0
M  V30 917 C 85.2147 1.83733 -1.37021 0
M  V30 918 C 86.2147 1.58542 -0.268534 0
M  V30 919 O 87.4047 1.66067 -0.526076 0
M  V30 920 C 84.5367 3.2141 -1.13617 0
M  V30 921 H 85.7297 1.86941 -2.34506 0
M  V30 922 H 83.2827 0.944676 -1.24521 0
M  V30 923 H 84.0177 3.23865 -0.167863 0
M  V30 924 H 83.8027 3.4109 -1.93391 0
M  V30 925 H 85.2927 4.01477 -1.14918 0
M  V30 926 N 85.7298 1.2412 0.971189 0
M  V30 927 C 86.6618 0.988349 2.06795 0
M  V30 928 C 87.6748 -0.0409541 1.62748 0
M  V30 929 O 88.8638 0.195673 1.77424 0
M  V30 930 C 85.9638 0.469023 3.35639 0
M  V30 931 C 85.1368 1.56065 4.08611 0
M  V30 932 C 84.1958 1.04458 5.15728 0
M  V30 933 O 83.2218 1.73553 5.42096 0
M  V30 934 N 84.4238 -0.122817 5.8037 0
M  V30 935 H 87.1888 1.93265 2.29061 0
M  V30 936 H 84.7498 1.15102 1.13856 0
M  V30 937 H 86.7418 0.108613 4.04554 0
M  V30 938 H 85.3118 -0.380919 3.1027 0
M  V30 939 H 84.5318 2.09341 3.34021 0
M  V30 940 H 85.8198 2.29449 4.54126 0
M  V30 941 H 85.2178 -0.700563 5.61345 0
M  V30 942 H 83.7748 -0.424404 6.50417 0
M  V30 943 N 87.2079 -1.17134 1.05439 0
M  V30 944 C 88.4539 -1.87733 0.767077 0
M  V30 945 C 88.7869 -1.8098 -0.704253 0
M  V30 946 O 88.0619 -1.21951 -1.5152 0
M  V30 947 C 88.3449 -3.37659 1.25133 0
M  V30 948 C 88.1979 -3.53149 2.78578 0
M  V30 949 C 89.5169 -4.31768 0.852324 0
M  V30 950 H 86.6359 -0.681687 0.280129 0
M  V30 951 H 89.2779 -1.37732 1.30881 0
M  V30 952 H 87.4279 -3.80373 0.790469 0
M  V30 953 H 89.0999 -3.19434 3.32806 0
M  V30 954 H 87.3429 -2.95345 3.17732 0
M  V30 955 H 88.0139 -4.58403 3.07523 0
M  V30 956 H 90.4899 -3.96909 1.24911 0
M  V30 957 H 89.3659 -5.35199 1.21873 0
M  V30 958 H 89.6269 -4.41429 -0.243485 0
M  V30 959 N 88.686 -0.835752 -1.33615 0
M  V30 960 C 89.963 -0.352017 -1.92406 0
M  V30 961 C 90.343 1.16225 -1.76224 0
M  V30 962 O 89.691 1.97526 -1.14873 0
M  V30 963 C 89.901 -0.795485 -3.39813 0
M  V30 964 C 91.249 -0.801703 -4.16963 0
M  V30 965 O 92.273 -0.738889 -3.48452 0
M  V30 966 O 91.132 -0.886607 -5.3926 0
M  V30 967 H 88.226 -0.0989641 -0.821057 0
M  V30 968 H 90.772 -0.921397 -1.42507 0
M  V30 969 H 89.544 -1.83795 -3.45449 0
M  V30 970 H 89.167 -0.202505 -3.97084 0
M  V30 971 N 90.1641 1.46063 -0.591896 0
M  V30 972 C 91.1111 2.30399 0.136069 0
M  V30 973 C 92.0811 1.41169 0.875238 0
M  V30 974 O 93.2661 1.70112 0.86409 0
M  V30 975 C 90.4061 3.25804 1.13781 0
M  V30 976 C 89.5191 4.30134 0.401137 0
M  V30 977 C 88.6541 5.12659 1.39121 0
M  V30 978 C 87.6931 6.0873 0.641462 0
M  V30 979 N 86.8301 6.8409 1.58004 0
M  V30 980 H 91.6701 2.92118 -0.589144 0
M  V30 981 H 89.2071 1.43959 -0.302342 0
M  V30 982 H 91.1651 3.79569 1.73156 0
M  V30 983 H 89.7951 2.65872 1.83062 0
M  V30 984 H 88.8471 3.79152 -0.307826 0
M  V30 985 H 90.1591 4.98458 -0.184565 0
M  V30 986 H 89.3131 5.70747 2.05749 0
M  V30 987 H 88.0521 4.44316 2.01084 0
M  V30 988 H 87.0571 5.49786 -0.0385419 0
M  V30 989 H 88.2821 6.79095 0.0270945 0
M  V30 990 H 86.2281 6.18449 2.18761 0
M  V30 991 H 86.1451 7.48709 1.04738 0
M  V30 992 H 87.4131 7.4673 2.23639 0
M  V30 993 N 91.6422 0.330177 1.54103 0
M  V30 994 C 92.5522 -0.541534 2.28264 0
M  V30 995 C 93.5682 -1.12351 1.32866 0
M  V30 996 O 94.7442 -1.14206 1.65888 0
M  V30 997 C 91.8092 -1.68322 3.03098 0
M  V30 998 C 90.8702 -1.13238 4.14096 0
M  V30 999 C 90.1032 -2.21966 4.85352 0
M  V30 1000 O 90.3262 -3.42437 4.56172 0
M  V30 1001 O 89.2602 -1.87013 5.7211 0
M  V30 1002 H 93.0862 0.060938 3.03639 0
M  V30 1003 H 90.6712 0.09565 1.49093 0
M  V30 1004 H 92.5532 -2.34777 3.49939 0
M  V30 1005 H 91.2282 -2.27176 2.30593 0
M  V30 1006 H 90.1352 -0.432736 3.71589 0
M  V30 1007 H 91.4682 -0.588898 4.88664 0
M  V30 1008 N 93.1203 -1.57491 0.0584922 0
M  V30 1009 C 94.0703 -2.08474 -0.923188 0
M  V30 1010 C 95.0543 -0.991479 -1.26722 0
M  V30 1011 O 96.2463 -1.25473 -1.24842 0
M  V30 1012 C 93.3753 -2.6392 -2.19548 0
M  V30 1013 C 92.4613 -3.80227 -1.87852 0
M  V30 1014 N 92.8523 -4.89714 -1.26546 0
M  V30 1015 C 91.1503 -3.89271 -2.17679 0
M  V30 1016 C 91.8513 -5.70689 -1.12644 0
M  V30 1017 N 90.8273 -5.18531 -1.63176 0
M  V30 1018 H 94.6293 -2.90517 -0.444653 0
M  V30 1019 H 92.1433 -1.61745 -0.145764 0
M  V30 1020 H 94.1403 -2.98752 -2.9078 0
M  V30 1021 H 92.8003 -1.83318 -2.68001 0
M  V30 1022 H 93.8113 -5.09358 -0.936757 0
M  V30 1023 H 90.4883 -3.19623 -2.68602 0
M  V30 1024 H 91.8783 -6.6875 -0.6499 0
M  V30 1025 N 94.5984 0.214957 -1.56127 0
M  V30 1026 C 95.5284 1.2695 -1.95974 0
M  V30 1027 C 96.5094 1.48539 -0.828868 0
M  V30 1028 O 97.6944 1.60611 -1.09168 0
M  V30 1029 C 94.8244 2.61794 -2.28214 0
M  V30 1030 C 93.7784 2.54851 -3.43853 0
M  V30 1031 C 93.1044 3.93785 -3.61715 0
M  V30 1032 C 94.4044 2.09065 -4.78632 0
M  V30 1033 H 96.0984 0.93846 -2.84312 0
M  V30 1034 H 93.6444 0.449996 -1.36788 0
M  V30 1035 H 95.5974 3.35731 -2.54682 0
M  V30 1036 H 94.3214 2.96599 -1.36736 0
M  V30 1037 H 92.9804 1.8337 -3.17444 0
M  V30 1038 H 92.6284 4.25908 -2.67602 0
M  V30 1039 H 92.3284 3.90019 -4.39498 0
M  V30 1040 H 93.8524 4.69374 -3.90539 0
M  V30 1041 H 95.2664 2.7275 -5.04262 0
M  V30 1042 H 93.6634 2.16346 -5.59745 0
M  V30 1043 H 94.7334 1.04315 -4.73547 0
M  V30 1044 N 96.0765 1.50051 0.48192 0
M  V30 1045 C 97.3235 1.60498 1.23477 0
M  V30 1046 C 97.6515 0.300331 1.92167 0
M  V30 1047 O 96.9065 -0.713094 1.82246 0
M  V30 1048 C 97.2055 2.72717 2.30998 0
M  V30 1049 C 96.8715 4.13572 1.79636 0
M  V30 1050 C 95.5335 4.519 1.65348 0
M  V30 1051 C 97.8855 5.01649 1.41412 0
M  V30 1052 C 95.2135 5.76057 1.11244 0
M  V30 1053 C 97.5655 6.26343 0.887538 0
M  V30 1054 C 96.2295 6.63483 0.731207 0
M  V30 1055 H 95.4995 0.587303 0.451836 0
M  V30 1056 H 98.1465 1.83948 0.532468 0
M  V30 1057 H 96.4515 2.43312 3.07094 0
M  V30 1058 H 98.1485 2.78006 2.88988 0
M  V30 1059 H 94.7385 3.83329 1.91721 0
M  V30 1060 H 98.9225 4.72679 1.51289 0
M  V30 1061 H 94.1785 6.03516 0.978686 0
M  V30 1062 H 98.3525 6.93958 0.582654 0
M  V30 1063 H 95.9795 7.59568 0.309806 0
M  V30 1064 N 97.5546 -0.734337 1.39446 0
M  V30 1065 C 98.9656 -1.31264 1.32766 0
M  V30 1066 C 99.3166 -1.96198 -0.00767497 0
M  V30 1067 O 98.4416 -1.96346 -0.909796 0
M  V30 1068 C 99.0366 -2.38682 2.4045 0
M  V30 1069 C 97.5956 -2.92184 2.37288 0
M  V30 1070 C 96.7426 -1.6576 2.22304 0
M  V30 1071 H 99.6936 -0.531799 1.49525 0
M  V30 1072 H 99.7146 -3.19087 2.07276 0
M  V30 1073 H 99.2266 -1.91392 3.37625 0
M  V30 1074 H 97.3276 -3.43752 1.43754 0
M  V30 1075 H 97.4406 -3.45253 3.3217 0
M  V30 1076 H 95.8046 -1.9012 1.69489 0
M  V30 1077 H 96.5876 -1.20521 3.21449 0
M  V30 1078 N 99.0327 -1.24633 -0.964593 0
M  V30 1079 C 99.9957 -1.0424 -2.04124 0
M  V30 1080 C 100.996 0.00137563 -1.608 0
M  V30 1081 O 102.186 -0.239883 -1.7254 0
M  V30 1082 C 99.3177 -0.580588 -3.3592 0
M  V30 1083 H 100.511 -1.99803 -2.23649 0
M  V30 1084 H 98.0637 -1.06899 -1.14027 0
M  V30 1085 H 98.7987 0.3781 -3.22088 0
M  V30 1086 H 98.5837 -1.33398 -3.6871 0
M  V30 1087 H 100.074 -0.459034 -4.15069 0
M  V30 1088 N 100.511 1.16574 -1.06058 0
M  V30 1089 C 101.474 2.19085 -0.673392 0
M  V30 1090 C 102.474 1.5835 0.279648 0
M  V30 1091 O 103.664 1.74088 0.0623488 0
M  V30 1092 C 100.796 3.40899 0.00954234 0
M  V30 1093 H 101.989 2.54853 -1.58081 0
M  V30 1094 H 99.5418 1.30808 -0.855516 0
M  V30 1095 H 100.277 3.10684 0.929826 0
M  V30 1096 H 100.062 3.86233 -0.67573 0
M  V30 1097 H 101.552 4.1675 0.266245 0
M  V30 1098 N 101.989 0.842826 1.3317 0
M  V30 1099 C 102.921 0.236245 2.27979 0
M  V30 1100 C 103.934 -0.585282 1.51915 0
M  V30 1101 O 105.123 -0.411705 1.73687 0
M  V30 1102 C 102.223 -0.685717 3.3189 0
M  V30 1103 C 101.396 0.0973448 4.37292 0
M  V30 1104 C 100.455 -0.748565 5.20848 0
M  V30 1105 O 99.4809 -0.186339 5.68895 0
M  V30 1106 N 100.683 -2.06527 5.42519 0
M  V30 1107 H 103.448 1.05088 2.80672 0
M  V30 1108 H 101.009 0.701667 1.45905 0
M  V30 1109 H 103.001 -1.25669 3.84694 0
M  V30 1110 H 101.571 -1.40105 2.79445 0
M  V30 1111 H 100.791 0.849706 3.84933 0
M  V30 1112 H 102.079 0.635643 5.04814 0
M  V30 1113 H 101.477 -2.54554 5.05192 0
M  V30 1114 H 100.034 -2.58464 5.98364 0
M  V30 1115 N 103.467 -1.45747 0.599634 0
M  V30 1116 C 104.713 -2.02592 0.0918643 0
M  V30 1117 C 105.046 -1.46806 -1.27128 0
M  V30 1118 O 104.321 -0.639658 -1.83681 0
M  V30 1119 C 104.604 -3.60073 0.0443398 0
M  V30 1120 C 104.457 -4.26208 1.43759 0
M  V30 1121 C 105.776 -4.35309 -0.647608 0
M  V30 1122 H 102.895 -0.736175 0.034857 0
M  V30 1123 H 105.537 -1.73694 0.770081 0
M  V30 1124 H 103.687 -3.84823 -0.533224 0
M  V30 1125 H 105.359 -4.12668 2.06162 0
M  V30 1126 H 103.602 -3.84916 2.00056 0
M  V30 1127 H 104.273 -5.35069 1.35665 0
M  V30 1128 H 106.749 -4.15805 -0.156776 0
M  V30 1129 H 105.625 -5.45038 -0.649942 0
M  V30 1130 H 105.886 -4.07598 -1.71219 0
M  V30 1131 N 104.945 -0.338344 -1.53925 0
M  V30 1132 C 105.892 0.520845 -2.24846 0
M  V30 1133 C 106.862 1.09976 -1.24477 0
M  V30 1134 O 108.047 1.13735 -1.53196 0
M  V30 1135 C 105.187 1.6685 -3.02084 0
M  V30 1136 C 104.3 1.11739 -4.17299 0
M  V30 1137 C 103.435 2.23193 -4.82036 0
M  V30 1138 C 102.474 1.65407 -5.89328 0
M  V30 1139 N 101.611 2.70582 -6.47866 0
M  V30 1140 H 106.451 -0.0904881 -2.97863 0
M  V30 1141 H 103.988 -0.0564282 -1.46992 0
M  V30 1142 H 105.946 2.34407 -3.45122 0
M  V30 1143 H 104.576 2.2509 -2.31375 0
M  V30 1144 H 103.628 0.332919 -3.7894 0
M  V30 1145 H 104.94 0.654677 -4.94485 0
M  V30 1146 H 104.094 2.98626 -5.28117 0
M  V30 1147 H 102.833 2.72807 -4.04262 0
M  V30 1148 H 101.838 0.884779 -5.42634 0
M  V30 1149 H 103.063 1.16652 -6.69006 0
M  V30 1150 H 101.009 3.1946 -5.72959 0
M  V30 1151 H 100.926 2.28917 -7.20509 0
M  V30 1152 H 102.194 3.45799 -6.98601 0
M  V30 1153 N 106.423 1.57458 -0.0668435 0
M  V30 1154 C 107.37 2.12439 0.902122 0
M  V30 1155 C 108.34 1.03565 1.2986 0
M  V30 1156 O 109.525 1.312 1.38532 0
M  V30 1157 C 106.665 2.6865 2.16614 0
M  V30 1158 C 105.778 3.91663 1.82274 0
M  V30 1159 C 104.913 4.36134 3.0325 0
M  V30 1160 C 103.952 5.51808 2.64904 0
M  V30 1161 N 103.089 5.9126 3.78624 0
M  V30 1162 H 107.929 2.94934 0.426382 0
M  V30 1163 H 105.466 1.4575 0.198819 0
M  V30 1164 H 107.424 2.99346 2.90599 0
M  V30 1165 H 106.054 1.88928 2.61737 0
M  V30 1166 H 105.106 3.6746 0.983719 0
M  V30 1167 H 106.418 4.75693 1.50059 0
M  V30 1168 H 105.572 4.68465 3.85519 0
M  V30 1169 H 104.311 3.50948 3.38655 0
M  V30 1170 H 103.316 5.19133 1.81055 0
M  V30 1171 H 104.541 6.38722 2.30675 0
M  V30 1172 H 102.487 5.09024 4.138 0
M  V30 1173 H 102.404 6.70018 3.5016 0
M  V30 1174 H 103.672 6.28212 4.61486 0
M  V30 1175 N 107.901 -0.206675 1.56239 0
M  V30 1176 C 108.834 -1.28383 1.88661 0
M  V30 1177 C 109.812 -1.44504 0.745481 0
M  V30 1178 O 110.996 -1.60079 0.995336 0
M  V30 1179 C 108.123 -2.65211 2.10667 0
M  V30 1180 C 107.169 -2.66025 3.33366 0
M  V30 1181 S 108.002 -2.18609 4.88846 0
M  V30 1182 C 109.158 -3.57283 5.13906 0
M  V30 1183 H 109.391 -1.00691 2.7973 0
M  V30 1184 H 106.924 -0.409627 1.48867 0
M  V30 1185 H 108.882 -3.43979 2.24029 0
M  V30 1186 H 107.543 -2.90121 1.20369 0
M  V30 1187 H 106.736 -3.66607 3.45855 0
M  V30 1188 H 106.338 -1.95331 3.18938 0
M  V30 1189 H 108.63 -4.53074 5.03717 0
M  V30 1190 H 109.573 -3.49699 6.15724 0
M  V30 1191 H 109.981 -3.51659 4.41583 0
M  V30 1192 N 109.379 -1.50304 -0.473955 0
M  V30 1193 C 110.627 -1.60832 -1.22382 0
M  V30 1194 C 110.948 -0.30939 -1.9253 0
M  V30 1195 O 110.218 0.67296 -1.83978 0
M  V30 1196 H 108.798 -0.592652 -0.454723 0
M  V30 1197 H 111.46 -1.87068 -0.546968 0
M  V30 1198 H 110.556 -2.41803 -1.97327 0
M  V30 1199 N 110.857 0.726932 -1.39834 0
M  V30 1200 C 112.105 1.4837 -1.37225 0
M  V30 1201 C 112.426 1.94979 0.0284857 0
M  V30 1202 O 111.696 1.69555 0.981213 0
M  V30 1203 H 110.276 0.55043 -0.505011 0
M  V30 1204 H 112.938 0.862468 -1.74778 0
M  V30 1205 H 112.034 2.36198 -2.04003 0
M  V30 1206 N 112.336 1.25143 0.95797 0
M  V30 1207 C 113.266 1.07711 2.07173 0
M  V30 1208 C 114.247 -0.0128462 1.70095 0
M  V30 1209 O 115.432 0.156061 1.93572 0
M  V30 1210 C 112.562 0.691503 3.40346 0
M  V30 1211 C 111.516 1.73132 3.9142 0
M  V30 1212 C 110.842 1.20049 5.21049 0
M  V30 1213 C 112.142 3.1294 4.1817 0
M  V30 1214 H 113.836 2.00873 2.22014 0
M  V30 1215 H 111.382 0.967191 1.06684 0
M  V30 1216 H 113.335 0.556505 4.17709 0
M  V30 1217 H 112.059 -0.275819 3.25433 0
M  V30 1218 H 110.718 1.8547 3.16222 0
M  V30 1219 H 110.366 0.223499 5.02503 0
M  V30 1220 H 110.066 1.89545 5.56189 0
M  V30 1221 H 111.59 1.07782 6.01012 0
M  V30 1222 H 113.004 3.03775 4.86203 0
M  V30 1223 H 111.401 3.79875 4.64559 0
M  V30 1224 H 112.471 3.6025 3.24573 0
M  V30 1225 N 113.814 -1.1601 1.06675 0
M  V30 1226 C 115.062 -1.86264 0.784229 0
M  V30 1227 C 115.383 -1.82328 -0.691488 0
M  V30 1228 O 114.653 -1.25947 -1.50047 0
M  V30 1229 H 113.233 -0.689621 0.28711 0
M  V30 1230 H 115.895 -1.40664 1.34906 0
M  V30 1231 H 114.991 -2.91595 1.11259 0
M  V30 1232 N 115.292 -0.849877 -1.32721 0
M  V30 1233 C 116.222 -0.306308 -2.31482 0
M  V30 1234 C 117.203 0.591952 -1.59468 0
M  V30 1235 O 118.388 0.513199 -1.87296 0
M  V30 1236 C 115.518 0.510204 -3.43532 0
M  V30 1237 C 114.472 -0.293209 -4.26994 0
M  V30 1238 C 113.798 0.647743 -5.30762 0
M  V30 1239 C 115.098 -1.51634 -4.99804 0
M  V30 1240 H 116.792 -1.13153 -2.77195 0
M  V30 1241 H 114.338 -0.545553 -1.33266 0
M  V30 1242 H 116.291 0.900856 -4.11658 0
M  V30 1243 H 115.015 1.36874 -2.96535 0
M  V30 1244 H 113.674 -0.665555 -3.60508 0
M  V30 1245 H 113.322 1.50299 -4.8002 0
M  V30 1246 H 113.022 0.11422 -5.87489 0
M  V30 1247 H 114.546 1.03567 -6.01753 0
M  V30 1248 H 115.96 -1.19824 -5.60638 0
M  V30 1249 H 114.357 -1.98745 -5.66234 0
M  V30 1250 H 115.427 -2.28018 -4.27943 0
M  V30 1251 N 116.77 1.45427 -0.607355 0
M  V30 1252 C 117.7 2.3329 0.0989352 0
M  V30 1253 C 118.681 1.46816 0.859007 0
M  V30 1254 O 119.866 1.75588 0.829604 0
M  V30 1255 C 116.996 3.29518 1.09705 0
M  V30 1256 C 115.95 4.25626 0.450206 0
M  V30 1257 C 115.276 5.11542 1.55655 0
M  V30 1258 C 116.576 5.18505 -0.628455 0
M  V30 1259 H 118.27 2.92595 -0.634716 0
M  V30 1260 H 115.816 1.40696 -0.306681 0
M  V30 1261 H 117.769 3.89855 1.59971 0
M  V30 1262 H 116.493 2.68372 1.86129 0
M  V30 1263 H 115.152 3.66586 -0.0315886 0
M  V30 1264 H 114.8 4.46765 2.31107 0
M  V30 1265 H 114.5 5.76647 1.12925 0
M  V30 1266 H 116.024 5.74748 2.06148 0
M  V30 1267 H 117.438 5.72916 -0.209877 0
M  V30 1268 H 115.835 5.92085 -0.977489 0
M  V30 1269 H 116.905 4.60948 -1.50514 0
M  V30 1270 N 118.248 0.346503 1.53744 0
M  V30 1271 C 119.211 -0.496439 2.23759 0
M  V30 1272 C 120.211 -1.0252 1.2388 0
M  V30 1273 O 121.401 -0.913974 1.48297 0
M  V30 1274 C 118.533 -1.69187 2.95954 0
M  V30 1275 H 119.726 0.115952 2.99676 0
M  V30 1276 H 117.279 0.0978939 1.55993 0
M  V30 1277 H 118.014 -2.34288 2.24231 0
M  V30 1278 H 117.799 -1.31989 3.69217 0
M  V30 1279 H 119.289 -2.28969 3.49232 0
M  V30 1280 N 119.726 -1.57421 0.075193 0
M  V30 1281 C 120.659 -2.08528 -0.926904 0
M  V30 1282 C 121.637 -0.991171 -1.28898 0
M  V30 1283 O 122.821 -1.26479 -1.39769 0
M  V30 1284 C 119.948 -2.54576 -2.23402 0
M  V30 1285 C 118.994 -3.75454 -2.02327 0
M  V30 1286 S 119.827 -5.19989 -1.27951 0
M  V30 1287 C 120.983 -5.69372 -2.59935 0
M  V30 1288 H 121.216 -2.932 -0.492048 0
M  V30 1289 H 118.749 -1.53785 -0.137651 0
M  V30 1290 H 120.707 -2.81767 -2.98526 0
M  V30 1291 H 119.368 -1.70166 -2.64012 0
M  V30 1292 H 118.561 -4.05675 -2.99071 0
M  V30 1293 H 118.163 -3.48654 -1.35339 0
M  V30 1294 H 120.455 -5.76424 -3.56008 0
M  V30 1295 H 121.398 -6.68207 -2.34319 0
M  V30 1296 H 121.806 -4.97205 -2.67296 0
M  V30 1297 N 121.204 0.198386 -1.56346 0
M  V30 1298 C 122.481 0.944982 -1.71258 0
M  V30 1299 C 122.861 2.0151 -0.629048 0
M  V30 1300 O 122.209 2.25639 0.360473 0
M  V30 1301 C 122.419 1.5344 -3.1346 0
M  V30 1302 C 123.767 2.01778 -3.73591 0
M  V30 1303 O 124.791 1.63288 -3.16568 0
M  V30 1304 O 123.65 2.72594 -4.73661 0
M  V30 1305 H 120.744 0.442939 -0.69838 0
M  V30 1306 H 123.29 0.188342 -1.68652 0
M  V30 1307 H 122.062 0.762869 -3.83792 0
M  V30 1308 H 121.685 2.35596 -3.20282 0
M  V30 1309 N 122.682 1.50554 0.465978 0
M  V30 1310 C 123.928 1.62038 1.21949 0
M  V30 1311 C 124.261 0.322116 1.9151 0
M  V30 1312 O 123.536 -0.676723 1.82348 0
M  V30 1313 C 123.819 2.80421 2.25912 0
M  V30 1314 C 123.672 4.20144 1.60622 0
M  V30 1315 C 124.991 2.94354 3.27176 0
M  V30 1316 H 122.11 0.589752 0.441998 0
M  V30 1317 H 124.752 1.82956 0.51257 0
M  V30 1318 H 122.902 2.62717 2.86203 0
M  V30 1319 H 124.574 4.49449 1.03889 0
M  V30 1320 H 122.817 4.24165 0.909211 0
M  V30 1321 H 123.488 4.98914 2.36196 0
M  V30 1322 H 125.964 3.10578 2.76913 0
M  V30 1323 H 124.84 3.788 3.97242 0
M  V30 1324 H 125.101 2.05186 3.916 0
M  V30 1325 N 124.16 -0.719506 1.40217 0
M  V30 1326 C 125.571 -1.29848 1.34151 0
M  V30 1327 C 125.922 -1.96196 0.0131349 0
M  V30 1328 O 125.047 -1.973 -0.88892 0
M  V30 1329 C 125.642 -2.36118 2.42968 0
M  V30 1330 C 124.201 -2.8965 2.40374 0
M  V30 1331 C 123.348 -1.63393 2.24049 0
M  V30 1332 H 126.299 -0.51591 1.5008 0
M  V30 1333 H 126.32 -3.16871 2.10649 0
M  V30 1334 H 125.832 -1.878 3.39636 0
M  V30 1335 H 123.933 -3.42208 1.47392 0
M  V30 1336 H 124.046 -3.4171 3.35814 0
M  V30 1337 H 122.41 -1.88312 1.71495 0
M  V30 1338 H 123.193 -1.17104 3.2271 0
M  V30 1339 N 125.638 -1.25649 -0.95132 0
M  V30 1340 C 126.548 -1.08073 -2.08224 0
M  V30 1341 C 127.564 -0.0169666 -1.73992 0
M  V30 1342 O 128.74 -0.218593 -2.0021 0
M  V30 1343 C 125.805 -0.704922 -3.39458 0
M  V30 1344 C 124.866 -1.84699 -3.87537 0
M  V30 1345 C 124.099 -1.48902 -5.12508 0
M  V30 1346 O 124.322 -0.386156 -5.69091 0
M  V30 1347 O 123.256 -2.32033 -5.55378 0
M  V30 1348 H 127.082 -2.02924 -2.25954 0
M  V30 1349 H 124.667 -1.04618 -1.06656 0
M  V30 1350 H 126.549 -0.507609 -4.18332 0
M  V30 1351 H 125.224 0.214291 -3.2299 0
M  V30 1352 H 124.131 -2.09919 -3.09653 0
M  V30 1353 H 125.464 -2.74557 -4.08509 0
M  V30 1354 N 127.117 1.15442 -1.07289 0
M  V30 1355 C 128.027 2.23786 -0.704057 0
M  V30 1356 C 129.043 1.7166 0.284413 0
M  V30 1357 O 130.219 2.00972 0.131205 0
M  V30 1358 C 127.284 3.46535 -0.106792 0
M  V30 1359 C 126.345 4.13654 -1.14842 0
M  V30 1360 C 125.578 5.30544 -0.57956 0
M  V30 1361 O 125.801 5.67187 0.604585 0
M  V30 1362 O 124.735 5.87154 -1.32414 0
M  V30 1363 H 128.561 2.57664 -1.60757 0
M  V30 1364 H 126.146 1.23152 -0.845803 0
M  V30 1365 H 128.028 4.20804 0.224048 0
M  V30 1366 H 126.703 3.14407 0.770049 0
M  V30 1367 H 125.61 3.4131 -1.5316 0
M  V30 1368 H 126.943 4.49861 -1.99714 0
M  V30 1369 N 128.595 0.856903 1.32268 0
M  V30 1370 C 129.525 0.31858 2.31316 0
M  V30 1371 C 130.506 -0.583487 1.59779 0
M  V30 1372 O 131.691 -0.503259 1.87566 0
M  V30 1373 C 128.821 -0.491979 3.43798 0
M  V30 1374 C 127.775 0.315849 4.26833 0
M  V30 1375 C 127.101 -0.619586 5.31098 0
M  V30 1376 C 128.401 1.54282 4.98993 0
M  V30 1377 H 130.095 1.14621 2.76591 0
M  V30 1378 H 127.641 0.552613 1.32974 0
M  V30 1379 H 129.594 -0.879012 4.1213 0
M  V30 1380 H 128.318 -1.35299 2.97257 0
M  V30 1381 H 126.977 0.684664 3.6015 0
M  V30 1382 H 126.625 -1.47751 4.8081 0
M  V30 1383 H 126.325 -0.0830621 5.87541 0
M  V30 1384 H 127.849 -1.00375 6.02293 0
M  V30 1385 H 129.263 1.22796 5.59995 0
M  V30 1386 H 127.66 2.01745 5.65172 0
M  V30 1387 H 128.73 2.30285 4.26728 0
M  V30 1388 N 130.073 -1.45103 0.615059 0
M  V30 1389 C 131.321 -2.01784 0.112955 0
M  V30 1390 C 131.642 -1.48504 -1.26378 0
M  V30 1391 O 130.912 -0.682245 -1.83636 0
M  V30 1392 H 129.492 -0.745993 0.0387668 0
M  V30 1393 H 132.154 -1.77808 0.798141 0
M  V30 1394 H 131.25 -3.12025 0.0684069 0
M  V30 1395 N 131.551 -0.354651 -1.53558 0
M  V30 1396 C 132.799 0.237972 -2.00694 0
M  V30 1397 C 133.12 1.50173 -1.24391 0
M  V30 1398 O 132.39 1.92673 -0.354135 0
M  V30 1399 H 130.97 0.0909256 -0.741446 0
M  V30 1400 H 133.632 -0.478368 -1.88938 0
M  V30 1401 H 132.728 0.47264 -3.085 0
M  V30 1402 N 133.029 1.57378 -0.0835403 0
M  V30 1403 C 133.992 2.12252 0.864959 0
M  V30 1404 C 134.992 1.04916 1.21858 0
M  V30 1405 O 136.182 1.30853 1.14991 0
M  V30 1406 C 133.314 2.63358 2.16461 0
M  V30 1407 H 134.507 2.97371 0.388676 0
M  V30 1408 H 132.06 1.55423 0.165317 0
M  V30 1409 H 132.795 1.81727 2.686 0
M  V30 1410 H 132.58 3.41826 1.92087 0
M  V30 1411 H 134.07 3.05847 2.84337 0
M  V30 1412 N 134.507 -0.190092 1.56449 0
M  V30 1413 C 135.755 -0.907908 1.80559 0
M  V30 1414 C 136.076 -1.83583 0.657438 0
M  V30 1415 O 135.346 -1.93203 -0.323924 0
M  V30 1416 H 133.926 -0.338247 0.666032 0
M  V30 1417 H 136.588 -0.194403 1.93928 0
M  V30 1418 H 135.684 -1.49604 2.73907 0
M  V30 1419 N 135.985 -1.50799 -0.457987 0
M  V30 1420 C 136.915 -1.73553 -1.5621 0
M  V30 1421 C 137.896 -0.584774 -1.59732 0
M  V30 1422 O 139.081 -0.825314 -1.7579 0
M  V30 1423 C 136.211 -1.84169 -2.94447 0
M  V30 1424 C 135.165 -2.99461 -3.0579 0
M  V30 1425 C 134.491 -2.95235 -4.45803 0
M  V30 1426 C 135.791 -4.39766 -2.81786 0
M  V30 1427 H 137.485 -2.66 -1.37421 0
M  V30 1428 H 135.031 -1.28002 -0.659662 0
M  V30 1429 H 136.984 -1.98672 -3.71628 0
M  V30 1430 H 135.708 -0.883545 -3.14422 0
M  V30 1431 H 134.367 -2.8463 -2.31044 0
M  V30 1432 H 134.015 -1.97239 -4.62715 0
M  V30 1433 H 133.715 -3.72642 -4.54326 0
M  V30 1434 H 135.239 -3.11803 -5.24987 0
M  V30 1435 H 136.653 -4.55054 -3.4871 0
M  V30 1436 H 135.05 -5.18722 -3.0174 0
M  V30 1437 H 136.12 -4.51229 -1.7754 0
M  V30 1438 N 137.463 0.71206 -1.40597 0
M  V30 1439 C 138.74 1.46536 -1.29563 0
M  V30 1440 C 139.12 2.10931 0.0844217 0
M  V30 1441 O 138.468 2.00418 1.0975 0
M  V30 1442 C 138.678 2.49821 -2.43701 0
M  V30 1443 C 140.026 3.15551 -2.841 0
M  V30 1444 O 141.05 2.60142 -2.4332 0
M  V30 1445 O 139.909 4.15867 -3.54566 0
M  V30 1446 H 137.003 0.651801 -0.509004 0
M  V30 1447 H 139.549 0.743935 -1.52524 0
M  V30 1448 H 138.321 2.00778 -3.35863 0
M  V30 1449 H 137.944 3.29495 -2.22528 0
M  V30 1450 N 138.941 1.26152 0.944643 0
M  V30 1451 C 140.171 1.14094 1.72239 0
M  V30 1452 C 140.579 -0.306931 1.86694 0
M  V30 1453 O 139.922 -1.22222 1.3714 0
M  V30 1454 C 139.984 1.73316 3.14963 0
M  V30 1455 C 139.648 3.2239 3.23904 0
M  V30 1456 C 140.645 4.19252 3.07447 0
M  V30 1457 C 138.33 3.62788 3.47405 0
M  V30 1458 C 140.324 5.54491 3.14353 0
M  V30 1459 C 138.011 4.98162 3.53947 0
M  V30 1460 C 139.009 5.93823 3.37436 0
M  V30 1461 O 138.697 7.26732 3.43679 0
M  V30 1462 H 138.429 0.398292 0.546205 0
M  V30 1463 H 140.983 1.67201 1.19301 0
M  V30 1464 H 139.213 1.14667 3.69308 0
M  V30 1465 H 140.902 1.56214 3.74636 0
M  V30 1466 H 141.668 3.8938 2.8915 0
M  V30 1467 H 137.547 2.88816 3.59313 0
M  V30 1468 H 141.091 6.29137 3.01384 0
M  V30 1469 H 136.988 5.27695 3.71763 0
M  V30 1470 H 137.756 7.3496 3.60245 0
M  V30 1471 N 140.419 -1.14872 1.07899 0
M  V30 1472 C 141.349 -2.2193 0.725887 0
M  V30 1473 C 142.33 -1.67622 -0.28927 0
M  V30 1474 O 143.515 -1.93533 -0.160787 0
M  V30 1475 C 140.645 -3.47061 0.128856 0
M  V30 1476 C 139.599 -4.14363 1.07178 0
M  V30 1477 C 138.925 -5.33636 0.337229 0
M  V30 1478 C 140.225 -4.63492 2.40775 0
M  V30 1479 H 141.919 -2.51724 1.62097 0
M  V30 1480 H 139.465 -1.20991 0.780838 0
M  V30 1481 H 141.418 -4.21199 -0.130147 0
M  V30 1482 H 140.142 -3.16617 -0.80134 0
M  V30 1483 H 138.801 -3.42173 1.3158 0
M  V30 1484 H 138.449 -4.99449 -0.596606 0
M  V30 1485 H 138.149 -5.79609 0.965788 0
M  V30 1486 H 139.673 -6.10539 0.0861567 0
M  V30 1487 H 141.087 -5.2913 2.20669 0
M  V30 1488 H 139.484 -5.20148 2.99276 0
M  V30 1489 H 140.554 -3.78834 3.02676 0
M  V30 1490 N 141.898 -0.863906 -1.31812 0
M  V30 1491 C 142.861 -0.320212 -2.26952 0
M  V30 1492 C 143.861 0.525369 -1.51975 0
M  V30 1493 O 145.051 0.335547 -1.70938 0
M  V30 1494 C 142.183 0.545919 -3.365 0
M  V30 1495 H 143.376 -1.16004 -2.76556 0
M  V30 1496 H 140.929 -0.638995 -1.42641 0
M  V30 1497 H 141.664 1.40718 -2.92179 0
M  V30 1498 H 141.449 -0.0594674 -3.92055 0
M  V30 1499 H 142.939 0.918796 -4.07367 0
M  V30 1500 N 143.376 1.44774 -0.622745 0
M  V30 1501 C 144.606 2.06187 -0.130532 0
M  V30 1502 C 145.014 1.46547 1.19669 0
M  V30 1503 O 144.357 0.579636 1.74316 0
M  V30 1504 C 144.419 3.59437 0.0674983 0
M  V30 1505 C 144.083 4.41496 -1.18026 0
M  V30 1506 C 145.08 4.75512 -2.102 0
M  V30 1507 C 142.765 4.82007 -1.41333 0
M  V30 1508 C 144.759 5.48912 -3.23998 0
M  V30 1509 C 142.446 5.55157 -2.55429 0
M  V30 1510 C 143.444 5.88528 -3.46589 0
M  V30 1511 O 143.132 6.60191 -4.58697 0
M  V30 1512 H 142.864 0.672045 -0.0730162 0
M  V30 1513 H 145.418 1.86768 -0.854802 0
M  V30 1514 H 143.648 3.77314 0.846825 0
M  V30 1515 H 145.337 4.02642 0.513209 0
M  V30 1516 H 146.103 4.4476 -1.93425 0
M  V30 1517 H 141.982 4.55457 -0.712709 0
M  V30 1518 H 145.526 5.74877 -3.95174 0
M  V30 1519 H 141.423 5.85324 -2.72151 0
M  V30 1520 H 142.191 6.78654 -4.57571 0
M  V30 1521 N 144.854 0.36279 1.53368 0
M  V30 1522 C 145.817 -0.472679 2.24273 0
M  V30 1523 C 146.817 -1.012 1.24961 0
M  V30 1524 O 148.007 -0.898194 1.49259 0
M  V30 1525 C 145.139 -1.66039 2.97731 0
M  V30 1526 H 146.332 0.14773 2.99536 0
M  V30 1527 H 143.885 0.114434 1.55881 0
M  V30 1528 H 144.62 -2.31896 2.26704 0
M  V30 1529 H 144.405 -1.28066 3.70596 0
M  V30 1530 H 145.895 -2.25252 3.51641 0
M  V30 1531 N 146.332 -1.57332 0.0918853 0
M  V30 1532 C 147.581 -1.93412 -0.572249 0
M  V30 1533 C 147.894 -0.975515 -1.69538 0
M  V30 1534 O 149.1 -1.22991 -2.42045 0
M  V30 1535 C 147.556 -3.43648 -1.0693 0
M  V30 1536 C 147.164 -4.47994 0.0239049 0
M  V30 1537 C 148.908 -3.88695 -1.70635 0
M  V30 1538 C 146.815 -5.89381 -0.488319 0
M  V30 1539 H 145.745 -0.721939 -0.217532 0
M  V30 1540 H 148.396 -1.82735 0.167369 0
M  V30 1541 H 146.778 -3.49466 -1.8625 0
M  V30 1542 H 147.952 -4.53815 0.799277 0
M  V30 1543 H 146.267 -4.12536 0.565946 0
M  V30 1544 H 148.864 -4.91725 -2.10025 0
M  V30 1545 H 149.207 -3.27166 -2.57426 0
M  V30 1546 H 149.74 -3.85564 -0.979023 0
M  V30 1547 H 146.479 -6.54602 0.342906 0
M  V30 1548 H 145.999 -5.87037 -1.23077 0
M  V30 1549 H 147.678 -6.39863 -0.958317 0
M  V30 1550 N 147.81 0.181792 -1.56548 0
M  V30 1551 C 148.773 1.20894 -1.94724 0
M  V30 1552 C 149.773 1.37738 -0.829747 0
M  V30 1553 O 150.963 1.35323 -1.09697 0
M  V30 1554 C 148.095 2.57593 -2.23291 0
M  V30 1555 H 149.288 0.882275 -2.86629 0
M  V30 1556 H 146.841 0.423838 -1.50444 0
M  V30 1557 H 147.576 2.95291 -1.34067 0
M  V30 1558 H 147.361 2.46735 -3.04736 0
M  V30 1559 H 148.851 3.31637 -2.53785 0
M  V30 1560 N 149.288 1.51039 0.449983 0
M  V30 1561 C 150.221 1.66105 1.56474 0
M  V30 1562 C 151.199 0.508776 1.54435 0
M  V30 1563 O 152.383 0.731005 1.73749 0
M  V30 1564 C 149.51 1.66304 2.9506 0
M  V30 1565 C 148.556 2.87346 3.15174 0
M  V30 1566 S 149.389 4.4835 2.92818 0
M  V30 1567 C 150.545 4.51274 4.33708 0
M  V30 1568 H 150.778 2.60397 1.43459 0
M  V30 1569 H 148.311 1.40565 0.638805 0
M  V30 1570 H 150.269 1.67103 3.74949 0
M  V30 1571 H 148.93 0.732108 3.05449 0
M  V30 1572 H 148.123 2.83849 4.16468 0
M  V30 1573 H 147.725 2.84223 2.43091 0
M  V30 1574 H 150.017 4.26136 5.26701 0
M  V30 1575 H 150.96 5.53017 4.42242 0
M  V30 1576 H 151.368 3.80738 4.16772 0
M  V30 1577 N 150.766 -0.704594 1.40972 0
M  V30 1578 C 151.676 -1.84856 1.44448 0
M  V30 1579 C 152.692 -1.70726 0.335961 0
M  V30 1580 O 153.868 -1.92799 0.582276 0
M  V30 1581 C 150.933 -3.20758 1.31587 0
M  V30 1582 C 149.994 -3.47063 2.52677 0
M  V30 1583 C 149.227 -4.76481 2.4042 0
M  V30 1584 O 149.45 -5.52341 1.42391 0
M  V30 1585 O 148.384 -5.03367 3.30007 0
M  V30 1586 H 152.21 -1.8488 2.40942 0
M  V30 1587 H 149.795 -0.85647 1.22413 0
M  V30 1588 H 151.677 -4.01913 1.26665 0
M  V30 1589 H 150.352 -3.21438 0.382049 0
M  V30 1590 H 149.259 -2.65873 2.63177 0
M  V30 1591 H 150.592 -3.5119 3.44858 0
M  V30 1592 N 152.244 -1.26651 -0.937939 0
M  V30 1593 C 153.154 -1.10276 -2.07066 0
M  V30 1594 C 154.17 -0.0354197 -1.73964 0
M  V30 1595 O 155.346 -0.239816 -1.99967 0
M  V30 1596 C 152.411 -0.740887 -3.38691 0
M  V30 1597 C 151.472 -1.88799 -3.85556 0
M  V30 1598 C 150.705 -1.54329 -5.10899 0
M  V30 1599 O 150.928 -0.446494 -5.6865 0
M  V30 1600 O 149.862 -2.37911 -5.52885 0
M  V30 1601 H 153.688 -2.05309 -2.23789 0
M  V30 1602 H 151.273 -1.05743 -1.0554 0
M  V30 1603 H 153.155 -0.55195 -4.1777 0
M  V30 1604 H 151.83 0.180022 -3.23199 0
M  V30 1605 H 150.737 -2.13191 -3.07409 0
M  V30 1606 H 152.07 -2.78874 -4.05574 0
M  V30 1607 N 153.722 1.14298 -1.08507 0
M  V30 1608 C 154.971 1.84708 -0.810305 0
M  V30 1609 C 155.284 1.83903 0.666271 0
M  V30 1610 O 156.49 2.50112 1.05624 0
M  V30 1611 C 154.946 3.31572 -1.39957 0
M  V30 1612 C 154.554 3.40791 -2.90801 0
M  V30 1613 C 156.298 4.07087 -1.20334 0
M  V30 1614 C 154.205 4.81872 -3.4286 0
M  V30 1615 H 153.135 0.691985 -0.299454 0
M  V30 1616 H 155.786 1.28841 -1.30661 0
M  V30 1617 H 154.168 3.87183 -0.830976 0
M  V30 1618 H 155.342 2.95225 -3.53806 0
M  V30 1619 H 153.657 2.78732 -3.0935 0
M  V30 1620 H 156.254 5.11225 -1.56693 0
M  V30 1621 H 156.597 4.16054 -0.143237 0
M  V30 1622 H 157.13 3.57779 -1.73893 0
M  V30 1623 H 153.869 4.78094 -4.48449 0
M  V30 1624 H 153.389 5.27972 -2.84615 0
M  V30 1625 H 155.068 5.50765 -3.39509 0
M  V30 1626 N 155.201 0.870884 1.31352 0
M  V30 1627 C 156.426 0.495957 2.01383 0
M  V30 1628 C 156.851 -0.904324 1.64935 0
M  V30 1629 O 156.209 -1.59687 0.858466 0
M  V30 1630 C 156.257 0.661433 3.54482 0
M  V30 1631 O 155.361 -0.298851 4.11316 0
M  V30 1632 H 154.702 0.197158 0.634054 0
M  V30 1633 H 157.232 1.17455 1.67527 0
M  V30 1634 H 157.242 0.555072 4.04207 0
M  V30 1635 H 155.917 1.68246 3.8035 0
M  V30 1636 H 154.494 -0.147368 3.72609 0
M  V30 1637 N 156.679 -1.44442 0.630414 0
M  V30 1638 C 158.095 -1.56832 0.295973 0
M  V30 1639 C 158.295 -1.61806 -1.20088 0
M  V30 1640 O 157.351 -1.5607 -1.9849 0
M  V30 1641 C 158.664 -2.84031 0.987264 0
M  V30 1642 C 160.212 -2.97742 0.96534 0
M  V30 1643 C 160.687 -4.27743 1.63708 0
M  V30 1644 N 162.178 -4.34555 1.60364 0
M  V30 1645 C 162.913 -5.33862 2.09234 0
M  V30 1646 N 162.409 -6.39578 2.66292 0
M  V30 1647 N 164.202 -5.25366 1.99867 0
M  V30 1648 H 156.353 -1.39457 1.60205 0
M  V30 1649 H 158.616 -0.668237 0.672431 0
M  V30 1650 H 158.322 -2.86338 2.04215 0
M  V30 1651 H 158.196 -3.73534 0.524588 0
M  V30 1652 H 160.583 -2.94989 -0.0810639 0
M  V30 1653 H 160.664 -2.09589 1.4665 0
M  V30 1654 H 160.308 -4.31255 2.68293 0
M  V30 1655 H 160.238 -5.14752 1.11076 0
M  V30 1656 H 162.729 -3.58772 1.18705 0
M  V30 1657 H 163.042 -7.11637 3.01317 0
M  V30 1658 H 161.387 -6.40265 2.70343 0
M  V30 1659 H 164.578 -4.41688 1.55013 0
M  V30 1660 H 164.751 -6.02606 2.38265 0
M  V30 1661 N 158.157 -0.370918 -1.53173 0
M  V30 1662 C 159.405 0.216673 -2.00935 0
M  V30 1663 C 159.726 1.48845 -1.25977 0
M  V30 1664 O 158.996 1.92286 -0.374551 0
M  V30 1665 H 157.576 0.0830565 -0.742368 0
M  V30 1666 H 160.238 -0.49838 -1.8842 0
M  V30 1667 H 159.334 0.439893 -3.08984 0
M  V30 1668 N 159.635 1.57281 -0.100228 0
M  V30 1669 C 160.875 1.96419 0.56558 0
M  V30 1670 C 161.239 0.981265 1.65031 0
M  V30 1671 O 162.44 1.26133 2.37369 0
M  V30 1672 C 160.711 3.39996 1.10171 0
M  V30 1673 S 162.27 4.01134 1.77867 0
M  V30 1674 H 159.088 0.68667 0.184406 0
M  V30 1675 H 161.69 1.94662 -0.180851 0
M  V30 1676 H 160.394 4.09296 0.300803 0
M  V30 1677 H 159.925 3.45361 1.88385 0
M  V30 1678 H 161.94 3.90358 3.06326 0
M  V30 1679 N 161.113 -0.173488 1.56642 0
M  V30 1680 C 162.076 -1.19859 1.95362 0
M  V30 1681 C 163.076 -1.37296 0.83704 0
M  V30 1682 O 164.266 -1.34739 1.10413 0
M  V30 1683 C 161.398 -2.56405 2.24654 0
M  V30 1684 H 162.591 -0.867062 2.87092 0
M  V30 1685 H 160.144 -0.415853 1.50666 0
M  V30 1686 H 160.879 -2.94576 1.35631 0
M  V30 1687 H 160.664 -2.45115 3.06041 0
M  V30 1688 H 162.154 -3.30287 2.5554 0
M  V30 1689 N 162.591 -1.51276 -0.441967 0
M  V30 1690 C 163.816 -1.67799 -1.21895 0
M  V30 1691 C 164.241 -0.372864 -1.84367 0
M  V30 1692 O 163.599 0.666501 -1.68604 0
M  V30 1693 C 163.647 -2.79199 -2.28211 0
M  V30 1694 O 162.751 -2.42479 -3.33583 0
M  V30 1695 H 162.092 -0.559649 -0.357336 0
M  V30 1696 H 164.622 -1.97815 -0.522522 0
M  V30 1697 H 164.632 -3.03146 -2.73069 0
M  V30 1698 H 163.307 -3.73906 -1.82118 0
M  V30 1699 H 161.884 -2.29087 -2.94234 0
M  V30 1700 N 164.069 0.697108 -1.41344 0
M  V30 1701 C 165.297 1.48593 -1.43972 0
M  V30 1702 C 165.712 1.88747 -0.0445612 0
M  V30 1703 O 165.069 1.56682 0.935785 0
M  V30 1704 C 165.12 2.74946 -2.34706 0
M  V30 1705 O 164.841 2.36484 -3.68791 0
M  V30 1706 C 166.342 3.687 -2.46121 0
M  V30 1707 H 163.562 0.457964 -0.490418 0
M  V30 1708 H 166.106 0.858429 -1.8561 0
M  V30 1709 H 164.261 3.33937 -1.9638 0
M  V30 1710 H 164.675 3.17918 -4.17167 0
M  V30 1711 H 166.149 4.54145 -3.13777 0
M  V30 1712 H 166.626 4.13081 -1.49199 0
M  V30 1713 H 167.232 3.15613 -2.85076 0
M  V30 1714 N 165.547 1.27147 0.931209 0
M  V30 1715 C 166.795 1.13055 1.6752 0
M  V30 1716 C 167.116 -0.324791 1.92276 0
M  V30 1717 O 166.386 -1.22775 1.52654 0
M  V30 1718 H 164.966 0.415391 0.620854 0
M  V30 1719 H 167.628 1.59623 1.11833 0
M  V30 1720 H 166.724 1.65694 2.64485 0
M  V30 1721 N 167.025 -1.13721 1.09112 0
M  V30 1722 C 168.271 -1.85198 0.826414 0
M  V30 1723 C 168.604 -1.83129 -0.646319 0
M  V30 1724 O 167.879 -1.2671 -1.47563 0
M  V30 1725 C 168.162 -3.33507 1.35812 0
M  V30 1726 C 168.015 -3.44108 2.89672 0
M  V30 1727 C 169.334 -4.28838 0.989256 0
M  V30 1728 H 166.453 -0.67243 0.301675 0
M  V30 1729 H 169.095 -1.33499 1.35197 0
M  V30 1730 H 167.245 -3.77666 0.911082 0
M  V30 1731 H 168.917 -3.08684 3.428 0
M  V30 1732 H 167.16 -2.85087 3.26967 0
M  V30 1733 H 167.831 -4.48388 3.21951 0
M  V30 1734 H 170.307 -3.92734 1.37475 0
M  V30 1735 H 169.183 -5.31051 1.38838 0
M  V30 1736 H 169.444 -4.4198 -0.102924 0
M  V30 1737 N 168.503 -0.877838 -1.30888 0
M  V30 1738 C 169.752 -0.488793 -1.95688 0
M  V30 1739 C 170.065 0.965485 -1.70111 0
M  V30 1740 O 171.271 1.46104 -2.28836 0
M  V30 1741 C 169.727 -0.823201 -3.50359 0
M  V30 1742 C 169.335 -2.29477 -3.84765 0
M  V30 1743 C 171.079 -0.503009 -4.21509 0
M  V30 1744 C 168.986 -2.57118 -5.32583 0
M  V30 1745 H 167.916 -0.179062 -0.732429 0
M  V30 1746 H 170.567 -1.07183 -1.48943 0
M  V30 1747 H 168.949 -0.169331 -3.95638 0
M  V30 1748 H 170.123 -2.99236 -3.5042 0
M  V30 1749 H 168.438 -2.58178 -3.267 0
M  V30 1750 H 171.035 -0.68665 -5.30273 0
M  V30 1751 H 171.378 0.557109 -4.12555 0
M  V30 1752 H 171.911 -1.11376 -3.8189 0
M  V30 1753 H 168.65 -3.61843 -5.4658 0
M  V30 1754 H 168.17 -1.91961 -5.68253 0
M  V30 1755 H 169.849 -2.42251 -5.99936 0
M  V30 1756 N 169.982 1.44106 -0.638065 0
M  V30 1757 C 170.915 2.27924 0.112161 0
M  V30 1758 C 171.893 1.38945 0.844574 0
M  V30 1759 O 173.077 1.68386 0.847248 0
M  V30 1760 C 170.204 3.18029 1.16512 0
M  V30 1761 C 169.25 4.23163 0.532458 0
M  V30 1762 S 170.083 5.31131 -0.682666 0
M  V30 1763 C 171.239 6.24805 0.37013 0
M  V30 1764 H 171.472 2.91205 -0.598887 0
M  V30 1765 H 169.005 1.48394 -0.426441 0
M  V30 1766 H 170.963 3.70492 1.76766 0
M  V30 1767 H 169.624 2.53955 1.8484 0
M  V30 1768 H 168.817 4.86252 1.32571 0
M  V30 1769 H 168.419 3.74 0.00437644 0
M  V30 1770 H 170.711 6.66042 1.24071 0
M  V30 1771 H 171.654 7.07741 -0.225349 0
M  V30 1772 H 172.062 5.60154 0.699141 0
M  V30 1773 N 171.46 0.379036 1.52974 0
M  V30 1774 C 172.685 -0.209353 2.06341 0
M  V30 1775 C 173.11 -1.40583 1.24972 0
M  V30 1776 O 172.468 -1.79246 0.272155 0
M  V30 1777 C 172.516 -0.567786 3.56102 0
M  V30 1778 O 171.62 -1.66318 3.77375 0
M  V30 1779 H 170.961 -0.0272919 0.663439 0
M  V30 1780 H 173.491 0.543536 1.97248 0
M  V30 1781 H 173.501 -0.835003 3.99364 0
M  V30 1782 H 172.176 0.307013 4.14765 0
M  V30 1783 H 170.753 -1.39048 3.46006 0
M  V30 1784 N 172.938 -1.57226 0.108567 0
M  V30 1785 C 174.184 -1.95121 -0.552761 0
M  V30 1786 C 174.517 -0.991345 -1.66991 0
M  V30 1787 O 173.792 -0.0267211 -1.94482 0
M  V30 1788 C 174.075 -3.43039 -1.09528 0
M  V30 1789 C 173.928 -4.49797 0.0177332 0
M  V30 1790 C 175.247 -3.92567 -1.98945 0
M  V30 1791 H 172.366 -0.709496 -0.199461 0
M  V30 1792 H 175.008 -1.89126 0.182011 0
M  V30 1793 H 173.158 -3.48279 -1.72146 0
M  V30 1794 H 174.83 -4.56661 0.652584 0
M  V30 1795 H 173.073 -4.284 0.682309 0
M  V30 1796 H 173.744 -5.50528 -0.402919 0
M  V30 1797 H 176.22 -3.89565 -1.46214 0
M  V30 1798 H 175.096 -4.96605 -2.33827 0
M  V30 1799 H 175.357 -3.32648 -2.91201 0
M  V30 1800 N 174.416 0.165178 -1.56732 0
M  V30 1801 C 175.364 1.22369 -1.97809 0
M  V30 1802 C 176.358 1.45488 -0.867741 0
M  V30 1803 O 177.564 1.45995 -1.05288 0
M  V30 1804 H 173.939 0.411486 -0.629431 0
M  V30 1805 H 175.91 0.850425 -2.86025 0
M  V30 1806 C 174.659 2.55403 -2.35934 0
M  V30 1807 H 173.982 2.38438 -3.20916 0
M  V30 1808 H 175.422 3.2814 -2.68514 0
M  V30 1809 C 173.881 3.14611 -1.20506 0
M  V30 1810 O 174.411 3.98626 -0.496016 0
M  V30 1811 N 172.617 2.7379 -0.97403 0
M  V30 1812 H 172.164 2.0557 -1.55238 0
M  V30 1813 H 172.122 3.1374 -0.203573 0
M  V30 1814 N 175.894 1.51508 0.433938 0
M  V30 1815 C 176.842 1.73646 1.54757 0
M  V30 1816 C 177.836 0.602854 1.5831 0
M  V30 1817 O 179.042 0.784318 1.62014 0
M  V30 1818 H 175.417 0.548718 0.51421 0
M  V30 1819 H 177.388 2.66991 1.33261 0
M  V30 1820 C 176.137 1.88172 2.92381 0
M  V30 1821 H 175.46 2.74808 2.90381 0
M  V30 1822 H 176.9 2.07672 3.6966 0
M  V30 1823 C 175.359 0.64239 3.30719 0
M  V30 1824 O 175.889 -0.201362 4.01195 0
M  V30 1825 N 174.095 0.485489 2.86516 0
M  V30 1826 H 173.642 1.17318 2.29334 0
M  V30 1827 H 173.6 -0.342482 3.12529 0
M  V30 1828 N 177.372 -0.689602 1.41712 0
M  V30 1829 C 178.597 -1.48329 1.44959 0
M  V30 1830 C 179.022 -1.8801 0.0581283 0
M  V30 1831 O 178.38 -1.55026 -0.940035 0
M  V30 1832 C 178.428 -2.71835 2.36935 0
M  V30 1833 O 177.532 -3.69549 1.8305 0
M  V30 1834 H 176.873 -0.446199 0.491734 0
M  V30 1835 H 179.403 -0.847127 1.86239 0
M  V30 1836 H 179.413 -3.20076 2.53013 0
M  V30 1837 H 178.088 -2.42291 3.38035 0
M  V30 1838 H 176.665 -3.2851 1.76452 0
M  V30 1839 N 178.85 -1.27639 -0.924453 0
M  V30 1840 C 179.78 -1.13166 -2.04244 0
M  V30 1841 C 180.761 -0.032256 -1.70069 0
M  V30 1842 O 181.946 -0.207328 -1.9309 0
M  V30 1843 C 179.076 -0.781496 -3.38393 0
M  V30 1844 C 178.03 -1.83449 -3.86692 0
M  V30 1845 C 177.356 -1.33822 -5.17683 0
M  V30 1846 C 178.656 -3.23917 -4.09726 0
M  V30 1847 H 180.35 -2.06689 -2.1661 0
M  V30 1848 H 177.896 -0.995136 -1.04082 0
M  V30 1849 H 179.849 -0.667057 -4.16087 0
M  V30 1850 H 178.573 0.189439 -3.2605 0
M  V30 1851 H 177.232 -1.93789 -3.11193 0
M  V30 1852 H 176.88 -0.35665 -5.01734 0
M  V30 1853 H 176.58 -2.04224 -5.50968 0
M  V30 1854 H 178.104 -1.23679 -5.97943 0
M  V30 1855 H 179.518 -3.16559 -4.77978 0
M  V30 1856 H 177.915 -3.92059 -4.54324 0
M  V30 1857 H 178.985 -3.68729 -3.14908 0
M  V30 1858 N 180.328 1.1314 -1.09713 0
M  V30 1859 C 181.558 1.88048 -0.855656 0
M  V30 1860 C 181.966 1.79537 0.596919 0
M  V30 1861 O 181.309 1.16196 1.42282 0
M  V30 1862 C 181.371 3.38314 -1.21589 0
M  V30 1863 C 181.035 3.70605 -2.67397 0
M  V30 1864 C 182.032 3.69596 -3.65643 0
M  V30 1865 C 179.717 4.0017 -3.03593 0
M  V30 1866 C 181.711 3.977 -4.9811 0
M  V30 1867 C 179.398 4.27935 -4.36251 0
M  V30 1868 C 180.396 4.26685 -5.33318 0
M  V30 1869 O 180.084 4.53767 -6.63589 0
M  V30 1870 H 179.816 0.60208 -0.307368 0
M  V30 1871 H 182.37 1.44128 -1.46343 0
M  V30 1872 H 180.6 3.82752 -0.551177 0
M  V30 1873 H 182.289 3.94552 -0.953083 0
M  V30 1874 H 183.055 3.46826 -3.39023 0
M  V30 1875 H 178.934 4.00289 -2.2867 0
M  V30 1876 H 182.478 3.9664 -5.73866 0
M  V30 1877 H 178.375 4.50178 -4.62613 0
M  V30 1878 H 179.143 4.71422 -6.69107 0
M  V30 1879 N 181.806 0.884767 1.30421 0
M  V30 1880 C 182.736 0.367574 2.30589 0
M  V30 1881 C 183.717 -0.549464 1.60981 0
M  V30 1882 O 184.902 -0.46336 1.88591 0
M  V30 1883 C 182.032 -0.418944 3.44764 0
M  V30 1884 C 180.986 0.406316 4.26067 0
M  V30 1885 C 180.312 -0.506793 5.32293 0
M  V30 1886 C 181.612 1.64832 4.95608 0
M  V30 1887 H 183.306 1.20462 2.74097 0
M  V30 1888 H 180.852 0.580695 1.31772 0
M  V30 1889 H 182.805 -0.791395 4.13902 0
M  V30 1890 H 181.529 -1.28964 3.0006 0
M  V30 1891 H 180.188 0.760903 3.58617 0
M  V30 1892 H 179.836 -1.37519 4.83836 0
M  V30 1893 H 179.536 0.0415828 5.87585 0
M  V30 1894 H 181.06 -0.875764 6.04287 0
M  V30 1895 H 182.474 1.34646 5.57264 0
M  V30 1896 H 180.871 2.13688 5.60765 0
M  V30 1897 H 181.941 2.39284 4.21748 0
M  V30 1898 N 183.284 -1.43765 0.645699 0
M  V30 1899 C 184.532 -2.01499 0.155731 0
M  V30 1900 C 184.853 -1.51151 -1.232 0
M  V30 1901 O 184.123 -0.721044 -1.82148 0
M  V30 1902 H 182.703 -0.745003 0.0545817 0
M  V30 1903 H 185.365 -1.76075 0.835677 0
M  V30 1904 H 184.461 -3.1181 0.134577 0
M  V30 1905 N 184.763 -0.387143 -1.52771 0
M  V30 1906 C 186.174 0.0873634 -1.86495 0
M  V30 1907 C 186.525 1.46336 -1.30691 0
M  V30 1908 O 185.65 2.068 -0.637409 0
M  V30 1909 C 186.245 0.165305 -3.38396 0
M  V30 1910 C 184.804 0.584101 -3.7184 0
M  V30 1911 C 183.951 -0.255279 -2.76122 0
M  V30 1912 H 186.902 -0.605104 -1.46711 0
M  V30 1913 H 186.923 0.984848 -3.67534 0
M  V30 1914 H 186.435 -0.836301 -3.78982 0
M  V30 1915 H 184.536 1.59315 -3.36823 0
M  V30 1916 H 184.649 0.343749 -4.77865 0
M  V30 1917 H 183.013 0.279126 -2.53166 0
M  V30 1918 H 183.796 -1.25482 -3.19545 0
M  V30 1919 N 186.241 1.57166 -0.116904 0
M  V30 1920 C 187.49 1.94298 0.541407 0
M  V30 1921 C 187.803 1.00236 1.67964 0
M  V30 1922 O 189.009 1.26826 2.40057 0
M  V30 1923 C 187.465 3.45306 1.01449 0
M  V30 1924 C 187.073 4.47899 -0.0951738 0
M  V30 1925 C 188.817 3.91361 1.6443 0
M  V30 1926 C 186.724 5.90083 0.394491 0
M  V30 1927 H 185.654 0.725308 0.206019 0
M  V30 1928 H 188.305 1.82446 -0.196419 0
M  V30 1929 H 186.687 3.52385 1.80667 0
M  V30 1930 H 187.861 4.52486 -0.871374 0
M  V30 1931 H 186.176 4.11583 -0.631505 0
M  V30 1932 H 188.773 4.95004 2.02176 0
M  V30 1933 H 189.116 3.3122 2.52189 0
M  V30 1934 H 189.649 3.87073 0.917559 0
M  V30 1935 H 186.388 6.53974 -0.447004 0
M  V30 1936 H 185.908 5.88921 1.13722 0
M  V30 1937 H 187.587 6.41307 0.856399 0
M  V30 1938 N 187.719 -0.156864 1.56817 0
M  V30 1939 C 188.649 -1.19589 2.00551 0
M  V30 1940 C 189.63 -1.4536 0.883426 0
M  V30 1941 O 190.815 -1.56449 1.15054 0
M  V30 1942 C 187.945 -2.53143 2.37773 0
M  V30 1943 C 186.899 -2.41913 3.53075 0
M  V30 1944 C 186.225 -3.80088 3.76081 0
M  V30 1945 C 187.525 -1.91157 4.86062 0
M  V30 1946 H 189.219 -0.832293 2.87599 0
M  V30 1947 H 186.765 -0.398918 1.38364 0
M  V30 1948 H 188.718 -3.26047 2.66967 0
M  V30 1949 H 187.442 -2.91319 1.4765 0
M  V30 1950 H 186.101 -1.71462 3.24031 0
M  V30 1951 H 185.749 -4.15683 2.83225 0
M  V30 1952 H 185.449 -3.73439 4.53671 0
M  V30 1953 H 186.973 -4.54556 4.0769 0
M  V30 1954 H 188.387 -2.53846 5.14038 0
M  V30 1955 H 186.784 -1.95422 5.67389 0
M  V30 1956 H 187.854 -0.866673 4.77092 0
M  V30 1957 N 189.197 -1.51736 -0.425897 0
M  V30 1958 C 190.144 -1.73875 -1.51776 0
M  V30 1959 C 191.114 -0.580702 -1.55618 0
M  V30 1960 O 192.299 -0.81641 -1.72451 0
M  V30 1961 C 189.439 -1.88012 -2.89388 0
M  V30 1962 C 188.552 -3.15606 -2.94986 0
M  V30 1963 C 187.687 -3.20271 -4.23793 0
M  V30 1964 C 186.726 -4.42134 -4.23302 0
M  V30 1965 N 185.863 -4.44284 -5.43651 0
M  V30 1966 H 190.703 -2.67071 -1.32201 0
M  V30 1967 H 188.24 -1.32351 -0.642008 0
M  V30 1968 H 190.198 -1.9419 -3.69251 0
M  V30 1969 H 188.828 -0.98213 -3.07496 0
M  V30 1970 H 187.88 -3.18681 -2.07717 0
M  V30 1971 H 189.192 -4.05486 -2.90486 0
M  V30 1972 H 188.346 -3.25428 -5.12036 0
M  V30 1973 H 187.085 -2.28299 -4.30965 0
M  V30 1974 H 186.09 -4.3714 -3.3345 0
M  V30 1975 H 187.315 -5.35382 -4.17783 0
M  V30 1976 H 185.261 -3.55188 -5.51523 0
M  V30 1977 H 185.178 -5.27988 -5.41078 0
M  V30 1978 H 186.446 -4.53649 -6.33895 0
M  V30 1979 N 190.675 0.682077 -1.42076 0
M  V30 1980 C 191.922 1.44215 -1.42156 0
M  V30 1981 C 192.25 1.94468 -0.0354186 0
M  V30 1982 O 191.505 1.70816 0.955002 0
M  V30 1983 C 191.804 2.66036 -2.38662 0
M  V30 1984 C 191.47 2.34366 -3.85206 0
M  V30 1985 C 190.132 2.25439 -4.25124 0
M  V30 1986 C 192.484 2.08513 -4.77673 0
M  V30 1987 C 189.812 1.88775 -5.55501 0
M  V30 1988 C 192.164 1.73354 -6.08384 0
M  V30 1989 C 190.828 1.62933 -6.47309 0
M  V30 1990 H 190.098 0.527718 -0.520187 0
M  V30 1991 H 192.745 0.778387 -1.74967 0
M  V30 1992 H 191.05 3.3741 -1.99152 0
M  V30 1993 H 192.747 3.24205 -2.35991 0
M  V30 1994 H 189.337 2.42213 -3.53597 0
M  V30 1995 H 193.521 2.14346 -4.47626 0
M  V30 1996 H 188.777 1.7927 -5.84527 0
M  V30 1997 H 192.951 1.52373 -6.79526 0
M  V30 1998 H 190.578 1.34292 -7.48244 0
M  V30 1999 N 192.153 1.28127 0.917671 0
M  V30 2000 C 193.401 1.14825 1.66312 0
M  V30 2001 C 193.722 -0.304379 1.9261 0
M  V30 2002 O 192.992 -1.21149 1.53947 0
M  V30 2003 H 191.572 0.421953 0.616413 0
M  V30 2004 H 194.234 1.608 1.10134 0
M  V30 2005 H 193.33 1.68489 2.62712 0
M  V30 2006 N 193.631 -1.12557 1.10312 0
M  V30 2007 C 194.856 -1.88405 0.867085 0
M  V30 2008 C 195.281 -1.79038 -0.576817 0
M  V30 2009 O 194.639 -1.14439 -1.40618 0
M  V30 2010 C 194.687 -3.3563 1.31851 0
M  V30 2011 O 193.791 -4.09565 0.482734 0
M  V30 2012 H 193.132 -0.585455 0.313271 0
M  V30 2013 H 195.662 -1.42352 1.4696 0
M  V30 2014 H 195.672 -3.86469 1.3079 0
M  V30 2015 H 194.347 -3.41765 2.37001 0
M  V30 2016 H 192.924 -3.68695 0.558448 0
M  V30 2017 N 195.109 -0.891671 -1.2995 0
M  V30 2018 C 196.056 -0.361736 -2.27948 0
M  V30 2019 C 197.026 0.551761 -1.56668 0
M  V30 2020 O 198.211 0.478736 -1.84696 0
M  V30 2021 C 195.351 0.411825 -3.42634 0
M  V30 2022 C 194.464 -0.531651 -4.28716 0
M  V30 2023 C 193.599 0.258167 -5.30572 0
M  V30 2024 C 192.638 -0.680349 -6.08307 0
M  V30 2025 N 191.775 0.0745613 -7.0206 0
M  V30 2026 H 196.615 -1.20254 -2.72659 0
M  V30 2027 H 194.152 -0.604352 -1.34112 0
M  V30 2028 H 196.11 0.876304 -4.07893 0
M  V30 2029 H 194.74 1.21715 -2.98974 0
M  V30 2030 H 193.792 -1.11463 -3.63703 0
M  V30 2031 H 195.104 -1.25038 -4.82874 0
M  V30 2032 H 194.258 0.784204 -6.0161 0
M  V30 2033 H 192.997 1.01008 -4.77126 0
M  V30 2034 H 192.002 -1.21796 -5.3614 0
M  V30 2035 H 193.227 -1.43145 -6.63842 0
M  V30 2036 H 191.173 0.808883 -6.50994 0
M  V30 2037 H 191.09 -0.584409 -7.53738 0
M  V30 2038 H 192.358 0.581123 -7.77331 0
M  V30 2039 N 196.587 1.43421 -0.653314 0
M  V30 2040 C 197.497 2.34568 0.0388565 0
M  V30 2041 C 198.513 1.53888 0.81207 0
M  V30 2042 O 199.689 1.86539 0.759294 0
M  V30 2043 C 196.754 3.32167 0.993269 0
M  V30 2044 C 195.815 4.28751 0.216977 0
M  V30 2045 C 195.048 5.21688 1.12593 0
M  V30 2046 O 195.271 5.19052 2.36519 0
M  V30 2047 O 194.205 5.98919 0.598284 0
M  V30 2048 H 198.031 2.95251 -0.711386 0
M  V30 2049 H 195.616 1.43564 -0.413502 0
M  V30 2050 H 197.498 3.92183 1.54176 0
M  V30 2051 H 196.173 2.73987 1.72374 0
M  V30 2052 H 195.08 3.72215 -0.375101 0
M  V30 2053 H 196.413 4.89913 -0.473924 0
M  V30 2054 N 198.065 0.39524 1.52563 0
M  V30 2055 C 198.997 -0.472201 2.24283 0
M  V30 2056 C 200.01 -1.02178 1.26742 0
M  V30 2057 O 201.199 -0.923097 1.52778 0
M  V30 2058 C 198.299 -1.66775 2.95024 0
M  V30 2059 C 197.472 -1.2445 4.19322 0
M  V30 2060 C 196.531 -2.30539 4.7301 0
M  V30 2061 O 195.557 -1.91702 5.35947 0
M  V30 2062 N 196.759 -3.6253 4.53379 0
M  V30 2063 H 199.524 0.142282 2.99362 0
M  V30 2064 H 197.085 0.2219 1.60372 0
M  V30 2065 H 199.077 -2.37283 3.27839 0
M  V30 2066 H 197.647 -2.18845 2.23217 0
M  V30 2067 H 196.867 -0.368069 3.92478 0
M  V30 2068 H 198.155 -0.938457 5.0007 0
M  V30 2069 H 197.553 -3.96841 4.03154 0
M  V30 2070 H 196.11 -4.29055 4.90668 0
M  V30 2071 N 199.544 -1.57102 0.125237 0
M  V30 2072 C 200.491 -2.15641 -0.822655 0
M  V30 2073 C 201.461 -1.08313 -1.25927 0
M  V30 2074 O 202.646 -1.36251 -1.33567 0
M  V30 2075 C 199.786 -2.76504 -2.06494 0
M  V30 2076 C 198.899 -3.98158 -1.67612 0
M  V30 2077 C 198.034 -4.47088 -2.86854 0
M  V30 2078 C 197.073 -5.6126 -2.44242 0
M  V30 2079 N 196.21 -6.04905 -3.56419 0
M  V30 2080 H 201.05 -2.96313 -0.316625 0
M  V30 2081 H 198.587 -1.46388 -0.144588 0
M  V30 2082 H 200.545 -3.09925 -2.79289 0
M  V30 2083 H 199.175 -1.98512 -2.54545 0
M  V30 2084 H 198.227 -3.70858 -0.846661 0
M  V30 2085 H 199.539 -4.80934 -1.32301 0
M  V30 2086 H 198.693 -4.82451 -3.67867 0
M  V30 2087 H 197.432 -3.63275 -3.25396 0
M  V30 2088 H 196.437 -5.25495 -1.61663 0
M  V30 2089 H 197.662 -6.46843 -2.0681 0
M  V30 2090 H 195.608 -5.24032 -3.94623 0
M  V30 2091 H 195.525 -6.82552 -3.25051 0
M  V30 2092 H 196.793 -6.44907 -4.37853 0
M  V30 2093 N 201.022 0.148545 -1.56898 0
M  V30 2094 C 201.954 1.20852 -1.9475 0
M  V30 2095 C 202.967 1.39265 -0.843152 0
M  V30 2096 O 204.156 1.38864 -1.12156 0
M  V30 2097 C 201.256 2.57362 -2.20495 0
M  V30 2098 C 200.429 2.59947 -3.51776 0
M  V30 2099 C 199.488 3.77984 -3.6608 0
M  V30 2100 O 198.514 3.62929 -4.38487 0
M  V30 2101 N 199.716 4.95375 -3.02629 0
M  V30 2102 H 202.481 0.886804 -2.86279 0
M  V30 2103 H 200.042 0.338121 -1.5833 0
M  V30 2104 H 202.034 3.34833 -2.27307 0
M  V30 2105 H 200.604 2.81832 -1.35238 0
M  V30 2106 H 199.824 1.68403 -3.56419 0
M  V30 2107 H 201.112 2.58704 -4.38121 0
M  V30 2108 H 200.51 5.10509 -2.43715 0
M  V30 2109 H 199.067 5.70627 -3.15004 0
M  V30 2110 N 202.5 1.5196 0.417844 0
M  V30 2111 C 203.463 1.74065 1.49111 0
M  V30 2112 C 204.463 0.610537 1.48758 0
M  V30 2113 O 205.653 0.87832 1.50437 0
M  V30 2114 C 202.785 1.81502 2.88565 0
M  V30 2115 H 203.978 2.69869 1.30807 0
M  V30 2116 H 201.531 1.42244 0.647785 0
M  V30 2117 H 202.266 0.875813 3.1225 0
M  V30 2118 H 202.051 2.63651 2.90225 0
M  V30 2119 H 203.541 2.00376 3.66387 0
M  V30 2120 N 203.978 -0.674533 1.42435 0
M  V30 2121 C 205.224 -1.43521 1.4413 0
M  V30 2122 C 205.579 -1.92316 0.0567773 0
M  V30 2123 O 204.872 -1.68008 -0.921076 0
M  V30 2124 C 205.066 -2.64767 2.40069 0
M  V30 2125 C 204.895 -2.27836 3.87713 0
M  V30 2126 C 203.665 -2.17183 4.56245 0
M  V30 2127 C 205.863 -1.89466 4.78129 0
M  V30 2128 N 203.845 -1.73358 5.88915 0
M  V30 2129 C 205.216 -1.56561 5.99907 0
M  V30 2130 C 207.271 -1.7646 4.65582 0
M  V30 2131 C 205.974 -1.11957 7.10534 0
M  V30 2132 C 208 -1.3326 5.76191 0
M  V30 2133 C 207.362 -1.0128 6.97081 0
M  V30 2134 H 203.461 -0.521656 0.582579 0
M  V30 2135 H 206.045 -0.778381 1.78464 0
M  V30 2136 H 204.216 -3.28139 2.07796 0
M  V30 2137 H 205.948 -3.3136 2.32342 0
M  V30 2138 H 202.703 -2.3626 4.10461 0
M  V30 2139 H 203.127 -1.53867 6.59283 0
M  V30 2140 H 207.769 -1.99831 3.72595 0
M  V30 2141 H 205.487 -0.873318 8.03367 0
M  V30 2142 H 209.073 -1.23717 5.68494 0
M  V30 2143 H 207.953 -0.683597 7.81215 0
M  V30 2144 N 205.456 -1.28612 -0.910864 0
M  V30 2145 C 206.702 -1.16106 -1.66274 0
M  V30 2146 C 207.035 0.289113 -1.92036 0
M  V30 2147 O 206.31 1.21 -1.52281 0
M  V30 2148 C 206.593 -1.96309 -3.01885 0
M  V30 2149 C 206.446 -3.49405 -2.8326 0
M  V30 2150 C 207.765 -1.78076 -4.02463 0
M  V30 2151 H 204.884 -0.423152 -0.603417 0
M  V30 2152 H 207.526 -1.57961 -1.05586 0
M  V30 2153 H 205.676 -1.60742 -3.53687 0
M  V30 2154 H 207.348 -3.94894 -2.38446 0
M  V30 2155 H 205.591 -3.74893 -2.18261 0
M  V30 2156 H 206.262 -4.00784 -3.79574 0
M  V30 2157 H 208.738 -2.0912 -3.59733 0
M  V30 2158 H 207.614 -2.36561 -4.95308 0
M  V30 2159 H 207.875 -0.733008 -4.35981 0
M  V30 2160 N 206.934 1.1197 -1.10907 0
M  V30 2161 C 208.162 1.87402 -0.876824 0
M  V30 2162 C 208.577 1.79894 0.573025 0
M  V30 2163 O 207.934 1.17629 1.39534 0
M  V30 2164 C 207.985 3.36428 -1.32282 0
M  V30 2165 O 207.706 3.43765 -2.71582 0
M  V30 2166 C 209.207 4.28783 -1.12518 0
M  V30 2167 H 206.427 0.592793 -0.314384 0
M  V30 2168 H 208.971 1.41649 -1.47499 0
M  V30 2169 H 207.126 3.79706 -0.768229 0
M  V30 2170 H 207.54 4.3652 -2.90776 0
M  V30 2171 H 209.014 5.31613 -1.48633 0
M  V30 2172 H 209.491 4.39153 -0.0642394 0
M  V30 2173 H 210.097 3.91291 -1.66648 0
M  V30 2174 N 208.412 0.89855 1.29475 0
M  V30 2175 C 209.823 0.572537 1.77705 0
M  V30 2176 C 210.174 -0.911778 1.73727 0
M  V30 2177 O 209.299 -1.71288 1.32247 0
M  V30 2178 C 209.894 1.03252 3.22683 0
M  V30 2179 C 208.453 0.757687 3.68695 0
M  V30 2180 C 207.6 1.20787 2.49612 0
M  V30 2181 H 210.551 1.08139 1.16153 0
M  V30 2182 H 210.572 0.367307 3.78723 0
M  V30 2183 H 210.084 2.11285 3.25546 0
M  V30 2184 H 208.185 -0.310079 3.71308 0
M  V30 2185 H 208.298 1.35476 4.59547 0
M  V30 2186 H 206.662 0.626888 2.46865 0
M  V30 2187 H 207.445 2.29622 2.55203 0
M  V30 2188 N 209.89 -1.43072 0.660911 0
M  V30 2189 C 211.137 -2.01721 0.177445 0
M  V30 2190 C 211.465 -1.5218 -1.21126 0
M  V30 2191 O 210.72 -0.708659 -1.82419 0
M  V30 2192 C 211.019 -3.57103 0.145563 0
M  V30 2193 C 210.685 -4.26021 1.47705 0
M  V30 2194 C 209.347 -4.44563 1.84165 0
M  V30 2195 C 211.699 -4.64983 2.35458 0
M  V30 2196 C 209.027 -4.99334 3.0803 0
M  V30 2197 C 211.379 -5.21127 3.58622 0
M  V30 2198 C 210.043 -5.37884 3.95268 0
M  V30 2199 H 209.313 -0.73815 0.0649317 0
M  V30 2200 H 211.96 -1.71446 0.853144 0
M  V30 2201 H 210.265 -3.86965 -0.61361 0
M  V30 2202 H 211.962 -4.00248 -0.2455 0
M  V30 2203 H 208.552 -4.11939 1.18339 0
M  V30 2204 H 212.736 -4.50343 2.08579 0
M  V30 2205 H 207.992 -5.10493 3.36462 0
M  V30 2206 H 212.166 -5.50262 4.26831 0
M  V30 2207 H 209.793 -5.80089 4.91325 0
M  V30 2208 N 211.368 -0.403325 -1.52352 0
M  V30 2209 C 212.596 0.174012 -2.06167 0
M  V30 2210 C 213.011 1.39347 -1.27388 0
M  V30 2211 O 212.368 1.79597 -0.324201 0
M  V30 2212 C 212.419 0.530223 -3.5759 0
M  V30 2213 O 212.14 -0.640806 -4.33388 0
M  V30 2214 C 213.641 1.16192 -4.27802 0
M  V30 2215 H 210.861 0.0229464 -0.670608 0
M  V30 2216 H 213.405 -0.572604 -1.9632 0
M  V30 2217 H 211.56 1.22673 -3.67464 0
M  V30 2218 H 211.974 -0.344851 -5.23365 0
M  V30 2219 H 213.448 1.36141 -5.34948 0
M  V30 2220 H 213.925 2.13335 -3.83907 0
M  V30 2221 H 214.531 0.505775 -4.22282 0
M  V30 2222 N 212.846 1.57033 -0.133567 0
M  V30 2223 C 214.071 2.00475 0.531477 0
M  V30 2224 C 214.496 1.01291 1.58499 0
M  V30 2225 O 213.854 -0.0133279 1.81295 0
M  V30 2226 C 213.902 3.42729 1.12113 0
M  V30 2227 O 213.006 3.46498 2.23636 0
M  V30 2228 H 212.347 0.650876 0.131362 0
M  V30 2229 H 214.877 2.03344 -0.22634 0
M  V30 2230 H 214.887 3.81246 1.4531 0
M  V30 2231 H 213.562 4.14428 0.349557 0
M  V30 2232 H 212.139 3.19811 1.91769 0
M  V30 2233 N 214.325 -0.140222 1.56975 0
M  V30 2234 C 215.573 -0.850005 1.83356 0
M  V30 2235 C 215.894 -1.81399 0.71551 0
M  V30 2236 O 215.164 -1.94136 -0.262294 0
M  V30 2237 H 213.744 -0.316886 0.676456 0
M  V30 2238 H 216.406 -0.132608 1.94448 0
M  V30 2239 H 215.502 -1.40814 2.78528 0
M  V30 2240 N 215.803 -1.52179 -0.40978 0
M  V30 2241 C 217.08 -1.56769 -1.16974 0
M  V30 2242 C 217.46 -0.348322 -2.08206 0
M  V30 2243 O 216.808 0.664862 -2.18613 0
M  V30 2244 C 217.018 -2.89603 -1.9476 0
M  V30 2245 C 218.366 -3.42579 -2.50849 0
M  V30 2246 O 219.39 -2.91338 -2.04941 0
M  V30 2247 O 218.249 -4.32054 -3.34652 0
M  V30 2248 H 215.343 -0.631439 -0.534054 0
M  V30 2249 H 217.889 -1.64507 -0.416613 0
M  V30 2250 H 216.661 -3.698 -1.27921 0
M  V30 2251 H 216.284 -2.85155 -2.77079 0
M  V30 2252 N 217.281 0.66697 -1.42791 0
M  V30 2253 C 218.228 1.7803 -1.4688 0
M  V30 2254 C 219.198 1.6299 -0.319919 0
M  V30 2255 O 220.383 1.83432 -0.525118 0
M  V30 2256 C 217.523 3.1611 -1.38451 0
M  V30 2257 C 216.636 3.42381 -2.63437 0
M  V30 2258 C 215.771 4.70232 -2.47094 0
M  V30 2259 C 214.81 4.89564 -3.67415 0
M  V30 2260 N 213.947 6.08661 -3.49966 0
M  V30 2261 H 218.787 1.7387 -2.42019 0
M  V30 2262 H 216.324 0.84868 -1.20149 0
M  V30 2263 H 218.282 3.95914 -1.31561 0
M  V30 2264 H 216.912 3.19374 -0.469033 0
M  V30 2265 H 215.964 2.56774 -2.80662 0
M  V30 2266 H 217.276 3.52557 -3.52853 0
M  V30 2267 H 216.43 5.5814 -2.37834 0
M  V30 2268 H 215.169 4.62353 -1.5518 0
M  V30 2269 H 214.174 4.00096 -3.77099 0
M  V30 2270 H 215.399 4.99282 -4.6032 0
M  V30 2271 H 213.345 6.0194 -2.60776 0
M  V30 2272 H 213.262 6.19733 -4.32975 0
M  V30 2273 H 214.53 6.99226 -3.44532 0
M  V30 2274 N 218.759 1.29093 0.90403 0
M  V30 2275 C 220.008 1.16187 1.64874 0
M  V30 2276 C 220.321 -0.286742 1.93487 0
M  V30 2277 O 221.527 -0.537062 2.66135 0
M  V30 2278 C 219.983 2.03177 2.97064 0
M  V30 2279 C 219.591 3.52836 2.76062 0
M  V30 2280 C 221.335 1.98984 3.74974 0
M  V30 2281 C 219.242 4.31945 4.03952 0
M  V30 2282 H 218.172 0.431246 0.618501 0
M  V30 2283 H 220.823 1.53699 1.00243 0
M  V30 2284 H 219.205 1.5853 3.62883 0
M  V30 2285 H 220.379 4.05507 2.18863 0
M  V30 2286 H 218.694 3.58656 2.11553 0
M  V30 2287 H 221.291 2.55351 4.69787 0
M  V30 2288 H 221.634 0.968815 4.0487 0
M  V30 2289 H 222.167 2.41652 3.15989 0
M  V30 2290 H 218.906 5.34667 3.79225 0
M  V30 2291 H 218.426 3.84045 4.60727 0
M  V30 2292 H 220.105 4.42379 4.72133 0
M  V30 2293 N 220.237 -1.11381 1.11499 0
M  V30 2294 C 221.485 -1.8277 0.862524 0
M  V30 2295 C 221.806 -1.85097 -0.613534 0
M  V30 2296 O 221.076 -1.32198 -1.4457 0
M  V30 2297 H 219.656 -0.676823 0.316101 0
M  V30 2298 H 222.318 -1.34816 1.4075 0
M  V30 2299 H 221.414 -2.86614 1.23527 0
M  V30 2300 N 221.715 -0.905404 -1.28997 0
M  V30 2301 C 222.955 -0.541232 -1.97104 0
M  V30 2302 C 223.319 0.896841 -1.69767 0
M  V30 2303 O 224.52 1.36817 -2.31375 0
M  V30 2304 C 222.791 -0.832134 -3.47578 0
M  V30 2305 S 224.35 -0.573127 -4.35041 0
M  V30 2306 H 221.168 -0.200576 -0.682122 0
M  V30 2307 H 223.77 -1.16906 -1.56694 0
M  V30 2308 H 222.474 -1.87687 -3.64968 0
M  V30 2309 H 222.005 -0.192636 -3.92928 0
M  V30 2310 H 224.02 0.579297 -4.92807 0
M  V30 2311 N 223.193 1.4272 -0.668489 0
M  V30 2312 C 224.44 2.01624 -0.18814 0
M  V30 2313 C 224.768 1.5282 1.20317 0
M  V30 2314 O 224.023 0.718323 1.8204 0
M  V30 2315 C 224.322 3.57021 -0.164499 0
M  V30 2316 C 223.988 4.25232 -1.49962 0
M  V30 2317 C 222.65 4.4358 -1.8652 0
M  V30 2318 C 225.002 4.63727 -2.37921 0
M  V30 2319 C 222.33 4.97694 -3.10674 0
M  V30 2320 C 224.682 5.19218 -3.6138 0
M  V30 2321 C 223.346 5.3578 -3.98115 0
M  V30 2322 H 222.616 0.737795 -0.0688454 0
M  V30 2323 H 225.263 1.70991 -0.862225 0
M  V30 2324 H 223.568 3.87285 0.593079 0
M  V30 2325 H 225.265 4.00372 0.224271 0
M  V30 2326 H 221.855 4.11306 -1.20522 0
M  V30 2327 H 226.039 4.4923 -2.10964 0
M  V30 2328 H 221.295 5.08702 -3.39164 0
M  V30 2329 H 225.469 5.4799 -4.29743 0
M  V30 2330 H 223.096 5.77475 -4.94395 0
M  V30 2331 N 224.671 0.411399 1.52136 0
M  V30 2332 C 225.634 -0.401089 2.25663 0
M  V30 2333 C 226.634 -0.971732 1.28117 0
M  V30 2334 O 227.824 -0.850254 1.52041 0
M  V30 2335 C 224.956 -1.56483 3.02863 0
M  V30 2336 H 226.149 0.24295 2.98914 0
M  V30 2337 H 223.702 0.163968 1.55438 0
M  V30 2338 H 224.437 -2.24567 2.33967 0
M  V30 2339 H 224.222 -1.16211 3.74483 0
M  V30 2340 H 225.712 -2.13951 3.58629 0
M  V30 2341 N 226.149 -1.5696 0.141893 0
M  V30 2342 C 227.079 -2.19516 -0.795936 0
M  V30 2343 C 228.06 -1.14187 -1.26077 0
M  V30 2344 O 229.245 -1.42511 -1.31925 0
M  V30 2345 C 226.375 -2.81272 -2.03723 0
M  V30 2346 C 225.329 -3.92384 -1.70936 0
M  V30 2347 C 224.655 -4.41052 -3.02287 0
M  V30 2348 C 225.955 -5.13403 -0.959954 0
M  V30 2349 H 227.649 -2.98138 -0.274596 0
M  V30 2350 H 225.195 -1.43406 -0.130636 0
M  V30 2351 H 227.148 -3.237 -2.69808 0
M  V30 2352 H 225.872 -1.99973 -2.58221 0
M  V30 2353 H 224.531 -3.50566 -1.07232 0
M  V30 2354 H 224.179 -3.56582 -3.54765 0
M  V30 2355 H 223.879 -5.15993 -2.81114 0
M  V30 2356 H 225.403 -4.86146 -3.69451 0
M  V30 2357 H 226.817 -5.52706 -1.52279 0
M  V30 2358 H 225.214 -5.94073 -0.848357 0
M  V30 2359 H 226.284 -4.84875 0.0492434 0
M  V30 2360 N 227.627 0.131896 -1.57047 0
M  V30 2361 C 228.852 0.860418 -1.8871 0
M  V30 2362 C 229.277 1.73251 -0.73251 0
M  V30 2363 O 228.635 1.785 0.317429 0
M  V30 2364 C 228.683 1.68047 -3.19049 0
M  V30 2365 O 227.787 2.7862 -3.04047 0
M  V30 2366 H 227.128 0.238743 -0.619595 0
M  V30 2367 H 229.658 0.118169 -2.04258 0
M  V30 2368 H 229.668 2.07238 -3.51449 0
M  V30 2369 H 228.343 1.04018 -4.02682 0
M  V30 2370 H 226.92 2.42726 -2.83088 0
M  V30 2371 N 229.106 1.52395 0.401703 0
M  V30 2372 C 230.016 1.7917 1.51444 0
M  V30 2373 C 231.032 0.677691 1.6026 0
M  V30 2374 O 232.208 0.963909 1.76835 0
M  V30 2375 C 229.273 1.94347 2.87107 0
M  V30 2376 C 228.334 3.18257 2.88116 0
M  V30 2377 C 227.567 3.32701 4.17308 0
M  V30 2378 O 227.79 2.52238 5.11598 0
M  V30 2379 O 226.724 4.25891 4.25324 0
M  V30 2380 H 230.55 2.73633 1.31752 0
M  V30 2381 H 228.135 1.3733 0.588296 0
M  V30 2382 H 230.017 2.06109 3.67555 0
M  V30 2383 H 228.692 1.03073 3.06851 0
M  V30 2384 H 227.599 3.11947 2.06494 0
M  V30 2385 H 228.932 4.09336 2.73322 0
M  V30 2386 N 230.584 -0.659388 1.43143 0
M  V30 2387 C 231.995 -1.24041 1.39537 0
M  V30 2388 C 232.346 -1.95963 0.0963364 0
M  V30 2389 O 231.471 -2.00892 -0.804438 0
M  V30 2390 C 232.066 -2.25601 2.52764 0
M  V30 2391 C 230.625 -2.79195 2.52443 0
M  V30 2392 C 229.772 -1.53743 2.30778 0
M  V30 2393 H 232.723 -0.451792 1.52133 0
M  V30 2394 H 232.744 -3.07651 2.23899 0
M  V30 2395 H 232.256 -1.73226 3.47296 0
M  V30 2396 H 230.357 -3.35649 1.61773 0
M  V30 2397 H 230.47 -3.2716 3.50004 0
M  V30 2398 H 228.834 -1.80869 1.79328 0
M  V30 2399 H 229.617 -1.03312 3.27386 0
M  V30 2400 N 232.062 -1.29571 -0.897171 0
M  V30 2401 C 233.31 -1.17456 -1.64464 0
M  V30 2402 C 233.631 0.273698 -1.9307 0
M  V30 2403 O 232.901 1.18684 -1.55855 0
M  V30 2404 H 231.481 -0.431706 -0.609622 0
M  V30 2405 H 234.143 -1.62531 -1.07562 0
M  V30 2406 H 233.239 -1.72648 -2.59998 0
M  V30 2407 N 233.54 1.10788 -1.12088 0
M  V30 2408 C 234.488 2.19111 -0.780587 0
M  V30 2409 C 235.482 1.67818 0.230961 0
M  V30 2410 O 236.688 1.79777 0.0895427 0
M  V30 2411 H 233.063 0.714477 -0.234578 0
M  V30 2412 H 235.034 2.45055 -1.70266 0
M  V30 2413 C 233.783 3.46818 -0.24747 0
M  V30 2414 H 233.106 3.86646 -1.01712 0
M  V30 2415 H 234.546 4.23973 -0.0476291 0
M  V30 2416 C 233.005 3.20968 1.02378 0
M  V30 2417 O 233.535 3.42298 2.10226 0
M  V30 2418 N 231.741 2.74658 0.949271 0
M  V30 2419 H 231.288 2.57501 0.0715173 0
M  V30 2420 H 231.246 2.57739 1.80049 0
M  V30 2421 N 235.018 0.912232 1.28515 0
M  V30 2422 C 236.266 0.543523 1.94654 0
M  V30 2423 C 236.587 -0.9155 1.72173 0
M  V30 2424 O 235.857 -1.64708 1.06058 0
M  V30 2425 H 234.437 0.198017 0.720277 0
M  V30 2426 H 237.099 1.16126 1.56527 0
M  V30 2427 H 236.195 0.736684 3.03281 0
M  V30 2428 N 236.496 -1.42363 0.676048 0
M  V30 2429 C 237.721 -2.06377 0.205705 0
M  V30 2430 C 238.146 -1.50463 -1.12883 0
M  V30 2431 O 237.504 -0.623619 -1.70237 0
M  V30 2432 C 237.552 -3.60277 0.152655 0
M  V30 2433 O 236.656 -4.02935 -0.87845 0
M  V30 2434 H 235.997 -0.655588 0.105359 0
M  V30 2435 H 238.527 -1.82475 0.925412 0
M  V30 2436 H 238.537 -4.07993 -0.0230675 0
M  V30 2437 H 237.212 -4.00346 1.12675 0
M  V30 2438 H 235.789 -3.66764 -0.673668 0
M  V30 2439 N 237.974 -0.419461 -1.51915 0
M  V30 2440 C 239.251 0.211999 -1.94448 0
M  V30 2441 C 239.631 1.61703 -1.35703 0
M  V30 2442 O 238.979 2.22102 -0.536931 0
M  V30 2443 C 239.189 0.207872 -3.4838 0
M  V30 2444 C 240.537 0.422192 -4.22496 0
M  V30 2445 O 241.561 0.286778 -3.55044 0
M  V30 2446 O 240.42 0.690009 -5.42126 0
M  V30 2447 H 237.514 0.139586 -0.815135 0
M  V30 2448 H 240.06 -0.476151 -1.62883 0
M  V30 2449 H 238.832 -0.775102 -3.83546 0
M  V30 2450 H 238.455 0.939688 -3.86336 0
M  V30 2451 N 239.452 1.56882 -0.150215 0
M  V30 2452 C 240.415 2.1573 0.774157 0
M  V30 2453 C 241.415 1.0999 1.17298 0
M  V30 2454 O 242.605 1.35613 1.09338 0
M  V30 2455 C 239.737 2.72302 2.05096 0
M  V30 2456 H 240.93 2.98752 0.262201 0
M  V30 2457 H 238.483 1.55985 0.099248 0
M  V30 2458 H 239.218 1.92956 2.6065 0
M  V30 2459 H 239.003 3.49665 1.77416 0
M  V30 2460 H 240.493 3.17632 2.71109 0
M  V30 2461 N 240.93 -0.123565 1.57115 0
M  V30 2462 C 242.178 -0.83051 1.84247 0
M  V30 2463 C 242.499 -1.80629 0.73471 0
M  V30 2464 O 241.769 -1.94403 -0.241688 0
M  V30 2465 H 240.349 -0.309694 0.679778 0
M  V30 2466 H 243.011 -0.111976 1.94578 0
M  V30 2467 H 242.107 -1.37852 2.80006 0
M  V30 2468 N 242.408 -1.52605 -0.393616 0
M  V30 2469 C 243.371 -1.76415 -1.46323 0
M  V30 2470 C 244.371 -0.634126 -1.47768 0
M  V30 2471 O 245.561 -0.902142 -1.4902 0
M  V30 2472 C 242.693 -1.8607 -2.85641 0
M  V30 2473 H 243.886 -2.71916 -1.26498 0
M  V30 2474 H 241.439 -1.43257 -0.625073 0
M  V30 2475 H 242.174 -0.925378 -3.10817 0
M  V30 2476 H 241.959 -2.68235 -2.85993 0
M  V30 2477 H 243.449 -2.06179 -3.63153 0
M  V30 2478 N 243.887 0.651787 -1.4349 0
M  V30 2479 C 244.85 1.74647 -1.48429 0
M  V30 2480 C 245.85 1.56513 -0.368817 0
M  V30 2481 O 247.04 1.62385 -0.630623 0
M  V30 2482 C 244.172 3.13533 -1.33827 0
M  V30 2483 H 245.365 1.71649 -2.4592 0
M  V30 2484 H 242.918 0.863573 -1.30277 0
M  V30 2485 H 243.653 3.22142 -0.37349 0
M  V30 2486 H 243.438 3.28101 -2.14691 0
M  V30 2487 H 244.928 3.93356 -1.40218 0
M  V30 2488 N 245.365 1.30045 0.890287 0
M  V30 2489 C 246.59 1.21598 1.68014 0
M  V30 2490 C 247.015 -0.218678 1.86825 0
M  V30 2491 O 246.373 -1.15756 1.39536 0
M  V30 2492 C 246.421 1.94434 3.03691 0
M  V30 2493 O 245.525 1.2678 3.92429 0
M  V30 2494 H 244.866 0.420856 0.513592 0
M  V30 2495 H 247.396 1.71775 1.11151 0
M  V30 2496 H 247.406 2.03251 3.5377 0
M  V30 2497 H 246.081 2.98777 2.89318 0
M  V30 2498 H 244.658 1.26282 3.50866 0
M  V30 2499 N 246.843 -1.10192 1.12674 0
M  V30 2500 C 248.071 -1.85983 0.906527 0
M  V30 2501 C 248.486 -1.80783 -0.544333 0
M  V30 2502 O 247.843 -1.19834 -1.37645 0
M  V30 2503 C 247.894 -3.34281 1.37618 0
M  V30 2504 O 247.615 -3.39401 2.77017 0
M  V30 2505 C 249.116 -4.26938 1.19325 0
M  V30 2506 H 246.336 -0.587716 0.323775 0
M  V30 2507 H 248.88 -1.39284 1.49734 0
M  V30 2508 H 247.035 -3.78436 0.828539 0
M  V30 2509 H 247.449 -4.31838 2.97684 0
M  V30 2510 H 248.923 -5.29181 1.57071 0
M  V30 2511 H 249.4 -4.38995 0.134097 0
M  V30 2512 H 250.006 -3.8859 1.72852 0
M  V30 2513 N 248.321 -0.919034 -1.28029 0
M  V30 2514 C 249.549 -0.570971 -1.98866 0
M  V30 2515 C 249.964 0.848996 -1.68634 0
M  V30 2516 O 249.321 1.56307 -0.942036 0
M  V30 2517 C 249.372 -0.776876 -3.53054 0
M  V30 2518 O 249.093 -2.14097 -3.82222 0
M  V30 2519 C 250.594 -0.436356 -4.41147 0
M  V30 2520 H 247.814 -0.217175 -0.634883 0
M  V30 2521 H 250.358 -1.23368 -1.63097 0
M  V30 2522 H 248.513 -0.161085 -3.87065 0
M  V30 2523 H 248.927 -2.18455 -4.76841 0
M  V30 2524 H 250.401 -0.63117 -5.4838 0
M  V30 2525 H 250.878 0.627686 -4.34692 0
M  V30 2526 H 251.484 -1.02991 -4.12641 0
M  V30 2527 N 249.799 1.42003 -0.683588 0
M  V30 2528 C 250.762 2.29191 -0.0198243 0
M  V30 2529 C 251.762 1.43773 0.72013 0
M  V30 2530 O 252.952 1.65061 0.556815 0
M  V30 2531 C 250.084 3.26435 0.982487 0
M  V30 2532 H 251.277 2.8938 -0.787345 0
M  V30 2533 H 248.83 1.49789 -0.446418 0
M  V30 2534 H 249.565 2.71203 1.77819 0
M  V30 2535 H 249.35 3.89449 0.455182 0
M  V30 2536 H 250.84 3.918 1.44508 0
M  V30 2537 N 251.277 0.427512 1.51691 0
M  V30 2538 C 252.693 0.0792977 1.59403 0
M  V30 2539 C 252.893 -1.41035 1.43914 0
M  V30 2540 O 251.949 -2.17922 1.27539 0
M  V30 2541 C 253.262 0.590636 2.94842 0
M  V30 2542 C 254.81 0.550215 3.08126 0
M  V30 2543 C 255.285 1.03836 4.46074 0
M  V30 2544 N 256.776 0.995943 4.52366 0
M  V30 2545 C 257.511 1.34463 5.57411 0
M  V30 2546 N 257.007 1.76569 6.69922 0
M  V30 2547 N 258.8 1.26343 5.47717 0
M  V30 2548 H 250.951 1.39687 1.60004 0
M  V30 2549 H 253.214 0.575003 0.753708 0
M  V30 2550 H 252.92 1.63251 3.11516 0
M  V30 2551 H 252.794 0.0102061 3.77199 0
M  V30 2552 H 255.181 -0.482654 2.91126 0
M  V30 2553 H 255.262 1.16693 2.27632 0
M  V30 2554 H 254.906 2.06965 4.63819 0
M  V30 2555 H 254.836 0.398286 5.25092 0
M  V30 2556 H 257.327 0.68661 3.7161 0
M  V30 2557 H 257.64 2.01438 7.46085 0
M  V30 2558 H 255.985 1.80488 6.71155 0
M  V30 2559 H 259.176 0.933209 4.58703 0
M  V30 2560 H 259.349 1.53846 6.29472 0
M  V30 2561 N 252.755 -1.56801 0.158532 0
M  V30 2562 C 253.718 -2.16138 -0.762705 0
M  V30 2563 C 254.718 -1.1061 -1.16713 0
M  V30 2564 O 255.908 -1.36191 -1.08617 0
M  V30 2565 C 253.04 -2.73386 -2.03649 0
M  V30 2566 H 254.233 -2.98886 -0.246354 0
M  V30 2567 H 251.786 -1.56035 -0.0909744 0
M  V30 2568 H 252.521 -1.94335 -2.59623 0
M  V30 2569 H 252.306 -3.50601 -1.75559 0
M  V30 2570 H 253.796 -3.19065 -2.6942 0
M  V30 2571 N 254.233 0.115231 -1.57178 0
M  V30 2572 C 255.143 1.15994 -2.03918 0
M  V30 2573 C 256.159 1.45103 -0.960268 0
M  V30 2574 O 257.335 1.56144 -1.27204 0
M  V30 2575 C 254.4 2.46568 -2.43732 0
M  V30 2576 C 253.461 2.24822 -3.65723 0
M  V30 2577 C 252.694 3.4917 -4.03629 0
M  V30 2578 O 252.917 4.56623 -3.41835 0
M  V30 2579 O 251.851 3.39949 -4.96708 0
M  V30 2580 H 255.677 0.793019 -2.93164 0
M  V30 2581 H 253.262 0.3263 -1.45793 0
M  V30 2582 H 255.144 3.23492 -2.70057 0
M  V30 2583 H 253.819 2.82726 -1.57631 0
M  V30 2584 H 252.726 1.45744 -3.44542 0
M  V30 2585 H 254.059 1.93566 -4.52541 0
M  V30 2586 N 255.711 1.52812 0.385517 0
M  V30 2587 C 256.959 1.67694 1.12797 0
M  V30 2588 C 257.28 0.421115 1.90399 0
M  V30 2589 O 256.55 -0.564551 1.87589 0
M  V30 2590 H 255.13 0.618155 0.419396 0
M  V30 2591 H 257.792 1.89938 0.436972 0
M  V30 2592 H 256.888 2.52896 1.82894 0
M  V30 2593 N 257.189 -0.644168 1.43834 0
M  V30 2594 C 258.466 -1.40188 1.36406 0
M  V30 2595 C 258.846 -2.11094 0.0163124 0
M  V30 2596 O 258.194 -2.05426 -1.00062 0
M  V30 2597 C 258.404 -2.3791 2.55343 0
M  V30 2598 C 259.752 -3.01637 2.98832 0
M  V30 2599 O 260.776 -2.48237 2.55455 0
M  V30 2600 O 259.635 -3.98477 3.74003 0
M  V30 2601 H 256.729 -0.626773 0.539523 0
M  V30 2602 H 259.275 -0.670317 1.559 0
M  V30 2603 H 258.047 -1.84525 3.4506 0
M  V30 2604 H 257.67 -3.18503 2.37995 0
M  V30 2605 N 258.668 -1.30515 -0.883378 0
M  V30 2606 C 259.893 -1.22487 -1.67367 0
M  V30 2607 C 260.318 0.208767 -1.86938 0
M  V30 2608 O 259.676 1.15015 -1.40148 0
M  V30 2609 C 259.724 -1.96041 -3.02655 0
M  V30 2610 O 258.828 -1.28859 -3.91751 0
M  V30 2611 H 258.169 -0.423573 -0.511353 0
M  V30 2612 H 260.699 -1.72362 -1.10239 0
M  V30 2613 H 260.709 -2.05124 -3.52687 0
M  V30 2614 H 259.384 -3.00307 -2.8773 0
M  V30 2615 H 257.961 -1.28141 -3.50192 0
M  V30 2616 N 260.146 1.09593 -1.13257 0
M  V30 2617 C 261.392 1.82181 -0.904521 0
M  V30 2618 C 261.747 1.83967 0.563358 0
M  V30 2619 O 261.04 1.29566 1.41149 0
M  V30 2620 C 261.234 3.27802 -1.42411 0
M  V30 2621 C 261.063 3.40201 -2.94097 0
M  V30 2622 C 259.833 3.52104 -3.62424 0
M  V30 2623 C 262.031 3.32875 -3.92044 0
M  V30 2624 N 260.013 3.53169 -5.0214 0
M  V30 2625 C 261.384 3.40789 -5.17941 0
M  V30 2626 C 263.439 3.16531 -3.84334 0
M  V30 2627 C 262.142 3.34042 -6.37031 0
M  V30 2628 C 264.168 3.11109 -5.02956 0
M  V30 2629 C 263.53 3.19614 -6.27715 0
M  V30 2630 H 259.629 0.681015 -0.384373 0
M  V30 2631 H 262.213 1.3099 -1.44048 0
M  V30 2632 H 260.384 3.77466 -0.915086 0
M  V30 2633 H 262.116 3.88393 -1.13722 0
M  V30 2634 H 258.871 3.5548 -3.12939 0
M  V30 2635 H 259.295 3.57291 -5.75041 0
M  V30 2636 H 263.937 3.08827 -2.88766 0
M  V30 2637 H 261.655 3.4051 -7.32857 0
M  V30 2638 H 265.241 2.99601 -4.98729 0
M  V30 2639 H 264.121 3.15432 -7.17964 0
M  V30 2640 N 261.624 0.925811 1.2754 0
M  V30 2641 C 262.87 0.566092 1.94739 0
M  V30 2642 C 263.203 -0.890057 1.72603 0
M  V30 2643 O 262.478 -1.63467 1.05399 0
M  V30 2644 C 262.761 0.89054 3.48915 0
M  V30 2645 C 262.614 2.4003 3.80402 0
M  V30 2646 C 263.933 0.395101 4.38323 0
M  V30 2647 H 261.052 0.20714 0.707292 0
M  V30 2648 H 263.694 1.15725 1.50691 0
M  V30 2649 H 261.844 0.387452 3.86563 0
M  V30 2650 H 263.516 2.97494 3.52555 0
M  V30 2651 H 261.759 2.85028 3.2702 0
M  V30 2652 H 262.43 2.57785 4.8811 0
M  V30 2653 H 264.906 0.826241 4.07814 0
M  V30 2654 H 263.782 0.651086 5.45025 0
M  V30 2655 H 264.043 -0.704798 4.36446 0
M  V30 2656 N 263.102 -1.41638 0.69111 0
M  V30 2657 C 264.032 -2.3347 0.037248 0
M  V30 2658 C 265.013 -1.51575 -0.771947 0
M  V30 2659 O 266.198 -1.80126 -0.72582 0
M  V30 2660 C 263.328 -3.35354 -0.903064 0
M  V30 2661 C 262.282 -4.27526 -0.201288 0
M  V30 2662 C 261.608 -5.19747 -1.25565 0
M  V30 2663 C 262.908 -5.13959 0.929689 0
M  V30 2664 H 264.602 -2.88397 0.804227 0
M  V30 2665 H 262.148 -1.38669 0.388189 0
M  V30 2666 H 264.101 -3.98519 -1.36969 0
M  V30 2667 H 262.825 -2.78767 -1.70166 0
M  V30 2668 H 261.484 -3.65779 0.245265 0
M  V30 2669 H 261.132 -4.59479 -2.04666 0
M  V30 2670 H 260.832 -5.8225 -0.791128 0
M  V30 2671 H 262.356 -5.85789 -1.72288 0
M  V30 2672 H 263.77 -5.70718 0.543546 0
M  V30 2673 H 262.167 -5.85379 1.32103 0
M  V30 2674 H 263.237 -4.51389 1.77133 0
M  V30 2675 N 264.58 -0.43555 -1.51462 0
M  V30 2676 C 265.528 0.391205 -2.29287 0
M  V30 2677 C 266.522 1.02247 -1.35062 0
M  V30 2678 O 267.728 0.957646 -1.52411 0
M  V30 2679 H 264.103 0.144968 -0.737895 0
M  V30 2680 H 266.074 -0.286051 -2.97026 0
M  V30 2681 C 264.823 1.48096 -3.14583 0
M  V30 2682 H 264.146 1.00457 -3.86973 0
M  V30 2683 H 265.586 2.03273 -3.72097 0
M  V30 2684 C 264.045 2.46321 -2.29843 0
M  V30 2685 O 264.575 3.50815 -1.95682 0
M  V30 2686 N 262.781 2.17166 -1.931 0
M  V30 2687 H 262.328 1.32218 -2.21079 0
M  V30 2688 H 262.286 2.83127 -1.36698 0
M  V30 2689 N 266.058 1.56714 -0.166846 0
M  V30 2690 C 267.306 1.96358 0.478305 0
M  V30 2691 C 267.627 1.0537 1.6408 0
M  V30 2692 O 266.897 0.119154 1.95537 0
M  V30 2693 H 265.477 0.725065 0.179692 0
M  V30 2694 H 268.139 1.93329 -0.246985 0
M  V30 2695 H 267.235 3.00547 0.841292 0
M  V30 2696 N 267.536 -0.106894 1.57237 0
M  V30 2697 C 268.764 -0.826389 1.8968 0
M  V30 2698 C 269.179 -1.72856 0.759353 0
M  V30 2699 O 268.536 -1.80503 -0.269263 0
M  V30 2700 C 268.587 -1.64967 3.21665 0
M  V30 2701 O 268.308 -0.783804 4.31031 0
M  V30 2702 C 269.809 -2.47326 3.67892 0
M  V30 2703 H 267.029 -0.236927 0.627779 0
M  V30 2704 H 269.573 -0.0876593 2.04312 0
M  V30 2705 H 267.728 -2.34103 3.08666 0
M  V30 2706 H 268.142 -1.35284 5.06753 0
M  V30 2707 H 269.616 -3.00604 4.6297 0
M  V30 2708 H 270.093 -3.25247 2.95146 0
M  V30 2709 H 270.699 -1.83411 3.83719 0
M  V30 2710 N 269.014 -1.53014 -0.377408 0
M  V30 2711 C 269.961 -1.78616 -1.46168 0
M  V30 2712 C 270.931 -0.629917 -1.53692 0
M  V30 2713 O 272.116 -0.870861 -1.69766 0
M  V30 2714 C 269.256 -1.97123 -2.8326 0
M  V30 2715 C 268.369 -3.24831 -2.84796 0
M  V30 2716 C 267.504 -3.33591 -4.13389 0
M  V30 2717 C 266.543 -4.55377 -4.09021 0
M  V30 2718 N 265.68 -4.61355 -5.29241 0
M  V30 2719 H 270.52 -2.71142 -1.23637 0
M  V30 2720 H 268.057 -1.34326 -0.599577 0
M  V30 2721 H 270.015 -2.05839 -3.62886 0
M  V30 2722 H 268.645 -1.07946 -3.04216 0
M  V30 2723 H 267.697 -3.25128 -1.97474 0
M  V30 2724 H 269.009 -4.14523 -2.77439 0
M  V30 2725 H 268.163 -3.41554 -5.01424 0
M  V30 2726 H 266.902 -2.41894 -4.23484 0
M  V30 2727 H 265.907 -4.47527 -3.19373 0
M  V30 2728 H 267.132 -5.48402 -4.00539 0
M  V30 2729 H 265.078 -3.72554 -5.39944 0
M  V30 2730 H 264.995 -5.44935 -5.24006 0
M  V30 2731 H 266.263 -4.73586 -6.19141 0
M  V30 2732 N 270.492 0.636531 -1.44174 0
M  V30 2733 C 271.455 1.73063 -1.50273 0
M  V30 2734 C 272.455 1.56113 -0.385397 0
M  V30 2735 O 273.645 1.61707 -0.64781 0
M  V30 2736 C 270.777 3.12096 -1.37145 0
M  V30 2737 H 271.97 1.69031 -2.47727 0
M  V30 2738 H 269.523 0.849706 -1.31186 0
M  V30 2739 H 270.258 3.21728 -0.407636 0
M  V30 2740 H 270.043 3.25805 -2.18159 0
M  V30 2741 H 271.533 3.91846 -1.44382 0
M  V30 2742 N 271.97 1.30982 0.876444 0
M  V30 2743 C 273.216 1.21484 1.63136 0
M  V30 2744 C 273.571 -0.226339 1.91064 0
M  V30 2745 O 272.864 -1.15788 1.52656 0
M  V30 2746 C 273.058 1.98572 2.9716 0
M  V30 2747 C 272.887 3.50039 2.82317 0
M  V30 2748 C 271.657 4.19393 2.81847 0
M  V30 2749 C 273.855 4.45111 2.57644 0
M  V30 2750 N 271.837 5.57061 2.57985 0
M  V30 2751 C 273.208 5.70402 2.42986 0
M  V30 2752 C 275.263 4.3461 2.42937 0
M  V30 2753 C 273.966 6.8638 2.15115 0
M  V30 2754 C 275.992 5.50365 2.16454 0
M  V30 2755 C 275.354 6.74642 2.02578 0
M  V30 2756 H 271.453 0.499632 0.601575 0
M  V30 2757 H 274.037 1.65094 1.03209 0
M  V30 2758 H 272.208 1.5734 3.55104 0
M  V30 2759 H 273.94 1.81146 3.61895 0
M  V30 2760 H 270.695 3.71303 2.93991 0
M  V30 2761 H 271.119 6.29529 2.49043 0
M  V30 2762 H 275.761 3.39199 2.52396 0
M  V30 2763 H 273.479 7.81824 2.04394 0
M  V30 2764 H 277.065 5.44154 2.05884 0
M  V30 2765 H 275.945 7.62699 1.82374 0
M  V30 2766 N 273.449 -1.08991 1.13837 0
M  V30 2767 C 274.698 -1.80631 0.897509 0
M  V30 2768 C 275.011 -1.86872 -0.57777 0
M  V30 2769 O 276.217 -2.54866 -0.935701 0
M  V30 2770 C 274.673 -3.24517 1.55618 0
M  V30 2771 C 274.281 -3.26529 3.0673 0
M  V30 2772 C 276.025 -4.00882 1.3962 0
M  V30 2773 C 273.932 -4.64965 3.65461 0
M  V30 2774 H 272.862 -0.67691 0.332129 0
M  V30 2775 H 275.513 -1.2246 1.3666 0
M  V30 2776 H 273.895 -3.82778 1.01476 0
M  V30 2777 H 275.069 -2.78008 3.67489 0
M  V30 2778 H 273.384 -2.63656 3.22296 0
M  V30 2779 H 275.981 -5.03167 1.80906 0
M  V30 2780 H 276.324 -4.14896 0.341578 0
M  V30 2781 H 276.857 -3.49075 1.90766 0
M  V30 2782 H 273.596 -4.56153 4.70749 0
M  V30 2783 H 273.116 -5.13792 3.09481 0
M  V30 2784 H 274.795 -5.3394 3.654 0
M  V30 2785 N 274.927 -0.932562 -1.27047 0
M  V30 2786 C 276.155 -0.592031 -1.98249 0
M  V30 2787 C 276.57 0.831062 -1.69525 0
M  V30 2788 O 275.927 1.55299 -0.958561 0
M  V30 2789 C 275.978 -0.814279 -3.5221 0
M  V30 2790 O 275.699 -2.18139 -3.7993 0
M  V30 2791 C 277.2 -0.483121 -4.4066 0
M  V30 2792 H 274.42 -0.223896 -0.632544 0
M  V30 2793 H 276.964 -1.25091 -1.61779 0
M  V30 2794 H 275.119 -0.20213 -3.86872 0
M  V30 2795 H 275.533 -2.235 -4.74498 0
M  V30 2796 H 277.007 -0.689298 -5.47679 0
M  V30 2797 H 277.484 0.581546 -4.35333 0
M  V30 2798 H 278.09 -1.07362 -4.11526 0
M  V30 2799 N 276.405 1.4127 -0.698611 0
M  V30 2800 C 277.353 2.32588 -0.023855 0
M  V30 2801 C 278.347 1.51128 0.765292 0
M  V30 2802 O 279.553 1.67043 0.670571 0
M  V30 2803 H 275.928 0.751918 0.0110871 0
M  V30 2804 H 277.899 2.87167 -0.811031 0
M  V30 2805 C 276.648 3.35947 0.896369 0
M  V30 2806 H 275.971 3.98684 0.298548 0
M  V30 2807 H 277.411 4.02376 1.33676 0
M  V30 2808 C 275.87 2.70076 2.01396 0
M  V30 2809 O 276.4 2.55093 3.10307 0
M  V30 2810 N 274.606 2.28724 1.79259 0
M  V30 2811 H 274.153 2.4111 0.906841 0
M  V30 2812 H 274.111 1.84986 2.54219 0
M  V30 2813 N 277.883 0.443576 1.51229 0
M  V30 2814 C 278.846 -0.353132 2.26463 0
M  V30 2815 C 279.846 -0.944338 1.3015 0
M  V30 2816 O 281.036 -0.817813 1.5381 0
M  V30 2817 C 278.168 -1.50023 3.06114 0
M  V30 2818 H 279.361 0.3063 2.98332 0
M  V30 2819 H 276.914 0.196902 1.55055 0
M  V30 2820 H 277.649 -2.19553 2.38677 0
M  V30 2821 H 277.434 -1.08241 3.76864 0
M  V30 2822 H 278.924 -2.06296 3.63087 0
M  V30 2823 N 279.361 -1.56624 0.175154 0
M  V30 2824 C 280.607 -1.98061 -0.462976 0
M  V30 2825 C 280.962 -1.05949 -1.60601 0
M  V30 2826 O 280.255 -0.0999027 -1.91339 0
M  V30 2827 C 280.449 -3.43419 -0.989864 0
M  V30 2828 C 280.278 -4.49587 0.100583 0
M  V30 2829 C 279.048 -5.02281 0.551539 0
M  V30 2830 C 281.246 -5.06322 0.902369 0
M  V30 2831 N 279.228 -5.92088 1.62189 0
M  V30 2832 C 280.599 -5.92607 1.82256 0
M  V30 2833 C 282.654 -4.88811 0.947019 0
M  V30 2834 C 281.357 -6.63254 2.78364 0
M  V30 2835 C 283.383 -5.60182 1.89606 0
M  V30 2836 C 282.745 -6.46197 2.80372 0
M  V30 2837 H 278.844 -0.769833 -0.137409 0
M  V30 2838 H 281.428 -1.9273 0.276256 0
M  V30 2839 H 279.599 -3.49288 -1.6986 0
M  V30 2840 H 281.331 -3.7186 -1.59694 0
M  V30 2841 H 278.086 -4.73367 0.148537 0
M  V30 2842 H 278.51 -6.41696 2.15767 0
M  V30 2843 H 283.152 -4.22004 0.259304 0
M  V30 2844 H 280.87 -7.29271 3.48122 0
M  V30 2845 H 284.456 -5.48617 1.93676 0
M  V30 2846 H 283.336 -7.00453 3.52612 0
M  V30 2847 N 280.839 0.0985539 -1.57292 0
M  V30 2848 C 281.749 1.13824 -2.05137 0
M  V30 2849 C 282.765 1.44076 -0.975604 0
M  V30 2850 O 283.941 1.54786 -1.28853 0
M  V30 2851 C 281.006 2.43969 -2.46333 0
M  V30 2852 C 280.067 2.2093 -3.68087 0
M  V30 2853 C 279.3 3.44869 -4.0731 0
M  V30 2854 O 279.523 4.52972 -3.46659 0
M  V30 2855 O 278.457 3.34661 -5.00285 0
M  V30 2856 H 282.283 0.761881 -2.93988 0
M  V30 2857 H 279.868 0.310818 -1.46131 0
M  V30 2858 H 281.75 3.20609 -2.73473 0
M  V30 2859 H 280.425 2.81038 -1.60621 0
M  V30 2860 H 279.332 1.42081 -3.46069 0
M  V30 2861 H 280.665 1.88755 -4.54568 0
M  V30 2862 N 282.317 1.53212 0.369288 0
M  V30 2863 C 283.28 1.7872 1.43498 0
M  V30 2864 C 284.28 0.657554 1.46741 0
M  V30 2865 O 285.47 0.925736 1.47566 0
M  V30 2866 C 282.602 1.90591 2.82645 0
M  V30 2867 H 283.795 2.73894 1.22156 0
M  V30 2868 H 281.348 1.44233 0.602203 0
M  V30 2869 H 282.083 0.974709 3.09306 0
M  V30 2870 H 281.868 2.72751 2.8169 0
M  V30 2871 H 283.358 2.11931 3.59826 0
M  V30 2872 N 283.795 -0.628877 1.44509 0
M  V30 2873 C 285.02 -1.42048 1.5112 0
M  V30 2874 C 285.445 -1.87594 0.137818 0
M  V30 2875 O 284.803 -1.58873 -0.873437 0
M  V30 2876 C 284.851 -2.61541 2.48251 0
M  V30 2877 O 283.955 -3.61453 1.98559 0
M  V30 2878 H 283.296 -0.424942 0.510216 0
M  V30 2879 H 285.826 -0.767374 1.89664 0
M  V30 2880 H 285.836 -3.09057 2.66361 0
M  V30 2881 H 284.511 -2.27736 3.48007 0
M  V30 2882 H 283.088 -3.20731 1.90227 0
M  V30 2883 N 285.273 -1.31445 -0.869486 0
M  V30 2884 C 286.236 -1.19094 -1.9583 0
M  V30 2885 C 287.236 -0.117906 -1.60367 0
M  V30 2886 O 288.426 -0.367208 -1.70286 0
M  V30 2887 C 285.558 -0.828165 -3.30688 0
M  V30 2888 H 286.751 -2.15842 -2.08212 0
M  V30 2889 H 284.304 -1.15063 -1.05784 0
M  V30 2890 H 285.039 0.138142 -3.24006 0
M  V30 2891 H 284.824 -1.6038 -3.578 0
M  V30 2892 H 286.314 -0.765658 -4.10521 0
M  V30 2893 N 286.751 1.08385 -1.14413 0
M  V30 2894 C 287.714 2.13486 -0.834048 0
M  V30 2895 C 288.714 1.59988 0.161418 0
M  V30 2896 O 289.904 1.74071 -0.0669575 0
M  V30 2897 C 287.036 3.4003 -0.243354 0
M  V30 2898 H 288.229 2.42425 -1.7655 0
M  V30 2899 H 285.782 1.24101 -0.950189 0
M  V30 2900 H 286.517 3.16726 0.696807 0
M  V30 2901 H 286.302 3.80157 -0.960367 0
M  V30 2902 H 287.792 4.17577 -0.0436242 0
M  V30 2903 N 288.23 0.939286 1.26551 0
M  V30 2904 C 289.476 0.586715 1.94128 0
M  V30 2905 C 289.809 -0.8717 1.73537 0
M  V30 2906 O 289.084 -1.62339 1.07127 0
M  V30 2907 C 289.367 0.927497 3.4795 0
M  V30 2908 C 289.22 2.44052 3.77834 0
M  V30 2909 C 290.539 0.441569 4.37879 0
M  V30 2910 H 287.658 0.21463 0.705055 0
M  V30 2911 H 290.3 1.17316 1.49455 0
M  V30 2912 H 288.45 0.428431 3.8613 0
M  V30 2913 H 290.122 3.01216 3.4938 0
M  V30 2914 H 288.365 2.8848 3.23978 0
M  V30 2915 H 289.036 2.62947 4.85348 0
M  V30 2916 H 291.512 0.869448 4.06915 0
M  V30 2917 H 290.388 0.708856 5.44304 0
M  V30 2918 H 290.649 -0.658467 4.37169 0
M  V30 2919 N 289.708 -1.40897 0.706093 0
M  V30 2920 C 290.954 -2.01352 0.241889 0
M  V30 2921 C 291.287 -1.55832 -1.15888 0
M  V30 2922 O 290.562 -0.774145 -1.7843 0
M  V30 2923 C 290.845 -3.58752 0.311311 0
M  V30 2924 C 290.698 -4.1437 1.74978 0
M  V30 2925 C 292.017 -4.38914 -0.322922 0
M  V30 2926 H 289.136 -0.731562 0.0893687 0
M  V30 2927 H 291.778 -1.67504 0.896802 0
M  V30 2928 H 289.928 -3.87718 -0.246302 0
M  V30 2929 H 291.6 -3.96239 2.36205 0
M  V30 2930 H 289.843 -3.69016 2.28057 0
M  V30 2931 H 290.514 -5.23532 1.74981 0
M  V30 2932 H 292.99 -4.15822 0.152089 0
M  V30 2933 H 291.866 -5.48358 -0.243855 0
M  V30 2934 H 292.127 -4.19176 -1.40513 0
M  V30 2935 N 291.186 -0.45159 -1.50991 0
M  V30 2936 C 292.433 0.110074 -2.02201 0
M  V30 2937 C 292.761 1.4146 -1.33489 0
M  V30 2938 O 292.016 1.90617 -0.443125 0
M  V30 2939 C 292.315 0.361728 -3.55565 0
M  V30 2940 C 291.981 -0.858717 -4.42648 0
M  V30 2941 C 290.643 -1.19338 -4.66167 0
M  V30 2942 C 292.995 -1.67221 -4.93646 0
M  V30 2943 C 290.323 -2.34195 -5.37931 0
M  V30 2944 C 292.675 -2.8119 -5.6667 0
M  V30 2945 C 291.339 -3.15094 -5.88449 0
M  V30 2946 H 290.609 0.040279 -0.739904 0
M  V30 2947 H 293.256 -0.601696 -1.81802 0
M  V30 2948 H 291.561 1.15554 -3.74372 0
M  V30 2949 H 293.258 0.80996 -3.92735 0
M  V30 2950 H 289.848 -0.58796 -4.24548 0
M  V30 2951 H 294.032 -1.42686 -4.75347 0
M  V30 2952 H 289.288 -2.6076 -5.53005 0
M  V30 2953 H 293.462 -3.44585 -6.05173 0
M  V30 2954 H 291.089 -4.04204 -6.43835 0
M  V30 2955 N 292.664 1.56529 -0.183458 0
M  V30 2956 C 293.627 2.17324 0.728223 0
M  V30 2957 C 294.627 1.12453 1.14939 0
M  V30 2958 O 295.817 1.37902 1.06437 0
M  V30 2959 C 292.949 2.76591 1.99274 0
M  V30 2960 H 294.142 2.99241 0.198772 0
M  V30 2961 H 291.695 1.5616 0.0661391 0
M  V30 2962 H 292.43 1.98441 2.56499 0
M  V30 2963 H 292.215 3.5335 1.69959 0
M  V30 2964 H 293.705 3.23311 2.6431 0
M  V30 2965 N 294.142 -0.090211 1.57342 0
M  V30 2966 C 295.367 -0.810082 1.90925 0
M  V30 2967 C 295.792 -1.71248 0.778187 0
M  V30 2968 O 295.15 -1.79278 -0.269991 0
M  V30 2969 C 295.198 -1.59529 3.23393 0
M  V30 2970 O 294.302 -2.70461 3.11327 0
M  V30 2971 H 293.643 -0.222231 0.625707 0
M  V30 2972 H 296.173 -0.0639716 2.045 0
M  V30 2973 H 296.183 -1.97847 3.5682 0
M  V30 2974 H 294.858 -0.933055 4.05299 0
M  V30 2975 H 293.435 -2.35135 2.89423 0
M  V30 2976 N 295.62 -1.53406 -0.361157 0
M  V30 2977 C 296.848 -1.73717 -1.12383 0
M  V30 2978 C 297.263 -0.468161 -1.82904 0
M  V30 2979 O 296.62 0.559198 -1.73722 0
M  V30 2980 C 296.671 -2.90558 -2.15078 0
M  V30 2981 O 296.392 -4.12549 -1.47428 0
M  V30 2982 C 297.893 -3.22777 -3.03858 0
M  V30 2983 H 295.113 -0.580896 -0.335858 0
M  V30 2984 H 297.657 -2.00167 -0.418728 0
M  V30 2985 H 295.812 -2.66489 -2.8118 0
M  V30 2986 H 296.226 -4.78009 -2.15887 0
M  V30 2987 H 297.7 -4.07927 -3.71887 0
M  V30 2988 H 298.177 -2.38329 -3.68912 0
M  V30 2989 H 298.783 -3.48787 -2.43367 0
M  V30 2990 N 297.098 0.621204 -1.44841 0
M  V30 2991 C 298.375 1.38 -1.38619 0
M  V30 2992 C 298.755 2.11041 -0.0498935 0
M  V30 2993 O 298.103 2.06992 0.967816 0
M  V30 2994 C 298.313 2.33817 -2.59096 0
M  V30 2995 C 299.661 2.96844 -3.03593 0
M  V30 2996 O 300.685 2.44141 -2.59371 0
M  V30 2997 O 299.544 3.92476 -3.80296 0
M  V30 2998 H 296.638 0.61811 -0.549426 0
M  V30 2999 H 299.184 0.645429 -1.56947 0
M  V30 3000 H 297.956 1.79012 -3.47952 0
M  V30 3001 H 297.579 3.14676 -2.43032 0
M  V30 3002 N 298.576 1.31904 0.862503 0
M  V30 3003 C 299.992 1.10724 1.14945 0
M  V30 3004 C 300.192 -0.117421 2.01158 0
M  V30 3005 O 299.248 -0.804595 2.39338 0
M  V30 3006 C 300.561 2.38267 1.83437 0
M  V30 3007 C 302.109 2.43949 1.96106 0
M  V30 3008 C 302.584 3.71394 2.68013 0
M  V30 3009 N 304.075 3.72331 2.75543 0
M  V30 3010 C 304.81 4.67641 3.31812 0
M  V30 3011 N 304.306 5.73313 3.88953 0
M  V30 3012 N 306.099 4.5515 3.29841 0
M  V30 3013 H 298.25 2.10436 0.288191 0
M  V30 3014 H 300.513 0.928705 0.190292 0
M  V30 3015 H 300.219 3.27759 1.27542 0
M  V30 3016 H 300.093 2.48633 2.83657 0
M  V30 3017 H 302.48 1.54922 2.51164 0
M  V30 3018 H 302.561 2.37543 0.949059 0
M  V30 3019 H 302.205 4.60791 2.13621 0
M  V30 3020 H 302.135 3.75069 3.69636 0
M  V30 3021 H 304.626 2.95947 2.34997 0
M  V30 3022 H 304.939 6.42107 4.30022 0
M  V30 3023 H 303.284 5.77077 3.87308 0
M  V30 3024 H 306.475 3.71766 2.84443 0
M  V30 3025 H 306.648 5.29604 3.73394 0
M  V30 3026 N 300.054 -1.07777 1.14986 0
M  V30 3027 C 301.017 -2.13041 0.845358 0
M  V30 3028 C 302.017 -1.60071 -0.152931 0
M  V30 3029 O 303.207 -1.74033 0.0761879 0
M  V30 3030 C 300.339 -3.39896 0.261383 0
M  V30 3031 H 301.532 -2.41485 1.77834 0
M  V30 3032 H 299.085 -1.23595 0.956757 0
M  V30 3033 H 299.82 -3.17091 -0.68 0
M  V30 3034 H 299.605 -3.79642 0.980514 0
M  V30 3035 H 301.095 -4.17548 0.0657687 0
M  V30 3036 N 301.532 -0.945985 -1.26051 0
M  V30 3037 C 302.462 -0.477172 -2.28572 0
M  V30 3038 C 303.443 0.472032 -1.63419 0
M  V30 3039 O 304.628 0.372853 -1.90587 0
M  V30 3040 C 301.758 0.253975 -3.4637 0
M  V30 3041 C 300.712 -0.609135 -4.23643 0
M  V30 3042 C 300.038 0.252252 -5.34105 0
M  V30 3043 C 301.338 -1.8829 -4.8718 0
M  V30 3044 H 303.032 -1.33402 -2.68038 0
M  V30 3045 H 300.578 -0.642904 -1.28852 0
M  V30 3046 H 302.531 0.593016 -4.17207 0
M  V30 3047 H 301.255 1.145 -3.05871 0
M  V30 3048 H 299.914 -0.931138 -3.54578 0
M  V30 3049 H 299.562 1.14278 -4.89846 0
M  V30 3050 H 299.262 -0.32188 -5.86718 0
M  V30 3051 H 300.786 0.586454 -6.07777 0
M  V30 3052 H 302.2 -1.61081 -5.50205 0
M  V30 3053 H 300.597 -2.40199 -5.49931 0
M  V30 3054 H 301.667 -2.59134 -4.09851 0
M  V30 3055 N 303.011 1.40521 -0.713556 0
M  V30 3056 C 303.943 2.29191 -0.0203126 0
M  V30 3057 C 304.956 1.45723 0.725864 0
M  V30 3058 O 306.145 1.69033 0.573581 0
M  V30 3059 C 303.245 3.2395 0.995486 0
M  V30 3060 C 302.418 4.36262 0.315256 0
M  V30 3061 C 301.477 5.11474 1.23616 0
M  V30 3062 O 300.503 5.64606 0.721719 0
M  V30 3063 N 301.705 5.20638 2.56743 0
M  V30 3064 H 304.47 2.89327 -0.781652 0
M  V30 3065 H 302.031 1.51869 -0.561022 0
M  V30 3066 H 304.023 3.71137 1.61368 0
M  V30 3067 H 302.593 2.64995 1.6582 0
M  V30 3068 H 301.813 3.91228 -0.483106 0
M  V30 3069 H 303.101 5.08558 -0.157004 0
M  V30 3070 H 302.499 4.7895 3.01037 0
M  V30 3071 H 301.056 5.71339 3.13712 0
M  V30 3072 N 304.489 0.459591 1.5075 0
M  V30 3073 C 305.437 -0.354678 2.2988 0
M  V30 3074 C 306.431 -1.00086 1.36672 0
M  V30 3075 O 307.637 -0.933277 1.53915 0
M  V30 3076 H 304.012 -0.13321 0.740107 0
M  V30 3077 H 305.983 0.333269 2.96533 0
M  V30 3078 C 304.732 -1.43073 3.169 0
M  V30 3079 H 304.055 -0.942882 3.88523 0
M  V30 3080 H 305.495 -1.97328 3.75284 0
M  V30 3081 C 303.954 -2.42633 2.33732 0
M  V30 3082 O 304.484 -3.47658 2.01238 0
M  V30 3083 N 302.69 -2.14066 1.9653 0
M  V30 3084 H 302.237 -1.28685 2.23155 0
M  V30 3085 H 302.195 -2.80917 1.41185 0
M  V30 3086 N 305.967 -1.56429 0.191757 0
M  V30 3087 C 306.914 -2.18936 -0.730454 0
M  V30 3088 C 307.884 -1.13557 -1.21219 0
M  V30 3089 O 309.069 -1.41794 -1.27668 0
M  V30 3090 C 306.209 -2.85013 -1.9458 0
M  V30 3091 C 305.322 -4.04909 -1.50574 0
M  V30 3092 C 304.457 -4.58853 -2.67634 0
M  V30 3093 C 303.496 -5.71114 -2.20217 0
M  V30 3094 N 302.633 -6.19478 -3.30442 0
M  V30 3095 H 307.473 -2.97389 -0.190664 0
M  V30 3096 H 305.01 -1.46869 -0.0823694 0
M  V30 3097 H 306.968 -3.21492 -2.65893 0
M  V30 3098 H 305.598 -2.09129 -2.45896 0
M  V30 3099 H 304.65 -3.74115 -0.688605 0
M  V30 3100 H 305.962 -4.86113 -1.11784 0
M  V30 3101 H 305.116 -4.97619 -3.47074 0
M  V30 3102 H 303.855 -3.76749 -3.09696 0
M  V30 3103 H 302.86 -5.31879 -1.3923 0
M  V30 3104 H 304.085 -6.55033 -1.79189 0
M  V30 3105 H 302.031 -5.40297 -3.72041 0
M  V30 3106 H 301.948 -6.95725 -2.9581 0
M  V30 3107 H 303.216 -6.62898 -4.10106 0
M  V30 3108 N 307.445 0.0818655 -1.57387 0
M  V30 3109 C 308.693 0.781368 -1.86384 0
M  V30 3110 C 309.014 1.78618 -0.782342 0
M  V30 3111 O 308.284 1.94976 0.190061 0
M  V30 3112 H 306.864 0.291562 -0.687751 0
M  V30 3113 H 309.526 0.060348 -1.94807 0
M  V30 3114 H 308.622 1.3038 -2.83562 0
M  V30 3115 N 308.923 1.53595 0.353017 0
M  V30 3116 C 310.172 1.69603 1.09168 0
M  V30 3117 C 310.485 0.460925 1.90092 0
M  V30 3118 O 311.691 0.501774 2.66823 0
M  V30 3119 C 310.147 2.99872 1.9901 0
M  V30 3120 C 309.755 4.30687 1.23339 0
M  V30 3121 C 311.499 3.25246 2.72792 0
M  V30 3122 C 309.406 5.52036 2.12156 0
M  V30 3123 H 308.336 0.631966 0.411261 0
M  V30 3124 H 310.987 1.80096 0.351802 0
M  V30 3125 H 309.369 2.83212 2.7678 0
M  V30 3126 H 310.543 4.58019 0.505456 0
M  V30 3127 H 308.858 4.11853 0.613663 0
M  V30 3128 H 311.455 4.13095 3.39495 0
M  V30 3129 H 311.798 2.41846 3.38846 0
M  V30 3130 H 312.331 3.42638 2.021 0
M  V30 3131 H 309.07 6.37951 1.50659 0
M  V30 3132 H 308.59 5.28966 2.82764 0
M  V30 3133 H 310.269 5.87313 2.71427 0
M  V30 3134 N 310.401 -0.613514 1.45168 0
M  V30 3135 C 311.626 -1.40437 1.52618 0
M  V30 3136 C 312.051 -1.87438 0.157707 0
M  V30 3137 O 311.409 -1.59791 -0.856537 0
M  V30 3138 C 311.457 -2.58894 2.51011 0
M  V30 3139 O 310.561 -3.59326 2.02382 0
M  V30 3140 H 309.902 -0.419506 0.514695 0
M  V30 3141 H 312.432 -0.747215 1.90467 0
M  V30 3142 H 312.442 -3.06214 2.69624 0
M  V30 3143 H 311.117 -2.24032 3.50403 0
M  V30 3144 H 309.694 -3.18695 1.93618 0
M  V30 3145 N 311.879 -1.3236 -0.855495 0
M  V30 3146 C 312.842 -1.21164 -1.94556 0
M  V30 3147 C 313.842 -0.134908 -1.60233 0
M  V30 3148 O 315.032 -0.385249 -1.69887 0
M  V30 3149 C 312.164 -0.863192 -3.29791 0
M  V30 3150 H 313.357 -2.18038 -2.05911 0
M  V30 3151 H 310.91 -1.16179 -1.04557 0
M  V30 3152 H 311.645 0.103769 -3.24134 0
M  V30 3153 H 311.43 -1.64166 -3.56078 0
M  V30 3154 H 312.92 -0.809156 -4.09686 0
M  V30 3155 N 313.357 1.07166 -1.15556 0
M  V30 3156 C 314.604 1.79798 -0.931604 0
M  V30 3157 C 314.932 1.8682 0.54115 0
M  V30 3158 O 314.187 1.34942 1.41736 0
M  V30 3159 C 314.486 3.24707 -1.49332 0
M  V30 3160 C 314.152 3.37781 -2.98688 0
M  V30 3161 C 312.814 3.41057 -3.39461 0
M  V30 3162 C 315.166 3.40424 -3.94665 0
M  V30 3163 C 312.494 3.4458 -4.74849 0
M  V30 3164 C 314.846 3.45485 -5.29927 0
M  V30 3165 C 313.51 3.47039 -5.70193 0
M  V30 3166 H 312.78 0.657928 -0.340898 0
M  V30 3167 H 315.427 1.26091 -1.44129 0
M  V30 3168 H 313.732 3.81208 -0.904859 0
M  V30 3169 H 315.429 3.79486 -1.29582 0
M  V30 3170 H 312.019 3.35932 -2.66172 0
M  V30 3171 H 316.203 3.37113 -3.64237 0
M  V30 3172 H 311.459 3.44083 -5.05388 0
M  V30 3173 H 315.633 3.46476 -6.04092 0
M  V30 3174 H 313.26 3.49522 -6.75084 0
M  V30 3175 N 314.835 0.952656 1.25548 0
M  V30 3176 C 315.765 0.489287 2.28316 0
M  V30 3177 C 316.746 -0.463359 1.63667 0
M  V30 3178 O 317.931 -0.36274 1.90782 0
M  V30 3179 C 315.061 -0.235603 3.465 0
M  V30 3180 C 314.015 0.631593 4.23314 0
M  V30 3181 C 313.341 -0.223923 5.34231 0
M  V30 3182 C 314.641 1.90871 4.86174 0
M  V30 3183 H 316.335 1.34822 2.67326 0
M  V30 3184 H 313.881 0.649728 1.28509 0
M  V30 3185 H 315.834 -0.570882 4.17515 0
M  V30 3186 H 314.558 -1.12877 3.06474 0
M  V30 3187 H 313.217 0.949929 3.54079 0
M  V30 3188 H 312.865 -1.11678 4.90446 0
M  V30 3189 H 312.565 0.35299 5.86539 0
M  V30 3190 H 314.089 -0.554214 6.0808 0
M  V30 3191 H 315.503 1.63997 5.49343 0
M  V30 3192 H 313.9 2.43112 5.4865 0
M  V30 3193 H 314.97 2.61304 4.08471 0
M  V30 3194 N 316.313 -1.40141 0.720998 0
M  V30 3195 C 317.559 -2.01084 0.263231 0
M  V30 3196 C 317.892 -1.57052 -1.14229 0
M  V30 3197 O 317.167 -0.793027 -1.77599 0
M  V30 3198 C 317.45 -3.58401 0.349344 0
M  V30 3199 C 317.303 -4.12491 1.79363 0
M  V30 3200 C 318.622 -4.39231 -0.276351 0
M  V30 3201 H 315.741 -0.730572 0.0971228 0
M  V30 3202 H 318.383 -1.66543 0.914518 0
M  V30 3203 H 316.533 -3.87958 -0.205165 0
M  V30 3204 H 318.205 -3.93711 2.40394 0
M  V30 3205 H 316.448 -3.66576 2.31958 0
M  V30 3206 H 317.119 -5.21646 1.80524 0
M  V30 3207 H 319.595 -4.15637 0.196184 0
M  V30 3208 H 318.471 -5.48586 -0.185681 0
M  V30 3209 H 318.732 -4.20643 -1.36059 0
M  V30 3210 N 317.792 -0.46758 -1.50504 0
M  V30 3211 C 319.203 -0.0116166 -1.86696 0
M  V30 3212 C 319.554 1.39202 -1.38265 0
M  V30 3213 O 318.679 2.0313 -0.746132 0
M  V30 3214 C 319.274 -0.0143044 -3.38797 0
M  V30 3215 C 317.833 0.386175 -3.74414 0
M  V30 3216 C 316.98 -0.401287 -2.74381 0
M  V30 3217 H 319.931 -0.682022 -1.43297 0
M  V30 3218 H 319.952 0.788641 -3.72237 0
M  V30 3219 H 319.464 -1.03602 -3.74016 0
M  V30 3220 H 317.565 1.41237 -3.44794 0
M  V30 3221 H 317.678 0.0899596 -4.79016 0
M  V30 3222 H 316.042 0.144536 -2.5429 0
M  V30 3223 H 316.825 -1.42244 -3.12444 0
M  V30 3224 N 319.27 1.56325 -0.20005 0
M  V30 3225 C 320.203 2.15234 0.758267 0
M  V30 3226 C 321.181 1.09046 1.20614 0
M  V30 3227 O 322.365 1.37186 1.29276 0
M  V30 3228 C 319.492 2.71524 2.02466 0
M  V30 3229 C 318.538 3.90345 1.71852 0
M  V30 3230 S 319.371 5.28513 0.862249 0
M  V30 3231 C 320.527 5.88227 2.13868 0
M  V30 3232 H 320.76 2.96183 0.2575 0
M  V30 3233 H 318.293 1.54393 0.0150099 0
M  V30 3234 H 320.251 3.04598 2.75191 0
M  V30 3235 H 318.912 1.90607 2.49655 0
M  V30 3236 H 318.105 4.28158 2.65888 0
M  V30 3237 H 317.707 3.58306 1.07205 0
M  V30 3238 H 319.999 6.02891 3.09076 0
M  V30 3239 H 320.942 6.84714 1.80479 0
M  V30 3240 H 321.35 5.16874 2.2694 0
M  V30 3241 N 320.748 -0.0735177 1.57428 0
M  V30 3242 C 322.159 -0.625551 1.75908 0
M  V30 3243 C 322.51 -1.78 0.825261 0
M  V30 3244 O 321.635 -2.16398 0.00893964 0
M  V30 3245 C 322.23 -1.14155 3.18989 0
M  V30 3246 C 320.789 -1.63946 3.38819 0
M  V30 3247 C 319.936 -0.558151 2.71625 0
M  V30 3248 H 322.887 0.152647 1.57964 0
M  V30 3249 H 322.908 -2.0104 3.23053 0
M  V30 3250 H 322.42 -0.301116 3.8693 0
M  V30 3251 H 320.521 -2.50321 2.7599 0
M  V30 3252 H 320.634 -1.71759 4.47253 0
M  V30 3253 H 318.998 -1.00278 2.34129 0
M  V30 3254 H 319.781 0.272071 3.4222 0
M  V30 3255 N 322.226 -1.5378 -0.344866 0
M  V30 3256 C 323.454 -1.74899 -1.10534 0
M  V30 3257 C 323.869 -0.487534 -1.82397 0
M  V30 3258 O 323.226 0.540741 -1.74305 0
M  V30 3259 C 323.277 -2.92822 -2.11984 0
M  V30 3260 O 322.998 -4.14089 -1.43044 0
M  V30 3261 C 324.499 -3.25982 -3.00417 0
M  V30 3262 H 321.719 -0.584426 -0.329678 0
M  V30 3263 H 324.263 -2.006 -0.397474 0
M  V30 3264 H 322.418 -2.69457 -2.78338 0
M  V30 3265 H 322.832 -4.80272 -2.10805 0
M  V30 3266 H 324.306 -4.11848 -3.67539 0
M  V30 3267 H 324.783 -2.42228 -3.66363 0
M  V30 3268 H 325.389 -3.51349 -2.39654 0
M  V30 3269 N 323.704 0.605807 -1.45491 0
M  V30 3270 C 325.115 1.18777 -1.44045 0
M  V30 3271 C 325.466 1.95471 -0.169001 0
M  V30 3272 O 324.591 2.0374 0.729324 0
M  V30 3273 C 325.186 2.16064 -2.60963 0
M  V30 3274 C 323.745 2.69633 -2.62631 0
M  V30 3275 C 322.892 1.45072 -2.36325 0
M  V30 3276 H 325.843 0.395017 -1.53705 0
M  V30 3277 H 325.864 2.9913 -2.35163 0
M  V30 3278 H 325.376 1.60217 -3.53486 0
M  V30 3279 H 323.477 3.29414 -1.74119 0
M  V30 3280 H 323.59 3.13944 -3.61906 0
M  V30 3281 H 321.954 1.74089 -1.85917 0
M  V30 3282 H 322.737 0.910899 -3.30995 0
M  V30 3283 N 325.182 1.32811 0.848464 0
M  V30 3284 C 326.43 1.23479 1.59991 0
M  V30 3285 C 326.751 -0.201853 1.93952 0
M  V30 3286 O 326.021 -1.12818 1.60153 0
M  V30 3287 H 324.601 0.454034 0.593179 0
M  V30 3288 H 327.263 1.66412 1.01455 0
M  V30 3289 H 326.359 1.82178 2.53412 0
M  V30 3290 N 326.66 -1.06551 1.16123 0
M  V30 3291 C 327.59 -2.15935 0.88851 0
M  V30 3292 C 328.571 -1.69306 -0.164135 0
M  V30 3293 O 329.756 -1.94193 -0.0167857 0
M  V30 3294 C 326.886 -3.45149 0.385942 0
M  V30 3295 C 325.84 -4.05271 1.3762 0
M  V30 3296 C 325.166 -5.29664 0.732137 0
M  V30 3297 C 326.466 -4.44355 2.74493 0
M  V30 3298 H 328.16 -2.39006 1.80323 0
M  V30 3299 H 325.706 -1.14866 0.868435 0
M  V30 3300 H 327.659 -4.21004 0.182647 0
M  V30 3301 H 326.383 -3.21689 -0.564274 0
M  V30 3302 H 325.042 -3.3147 1.56599 0
M  V30 3303 H 324.69 -5.02499 -0.224483 0
M  V30 3304 H 324.39 -5.70848 1.39307 0
M  V30 3305 H 325.914 -6.08218 0.538802 0
M  V30 3306 H 327.328 -5.11303 2.59311 0
M  V30 3307 H 325.725 -4.96515 3.37035 0
M  V30 3308 H 326.795 -3.55339 3.29943 0
M  V30 3309 N 328.138 -0.959301 -1.25041 0
M  V30 3310 C 329.366 -0.633949 -1.96948 0
M  V30 3311 C 329.781 0.794916 -1.7125 0
M  V30 3312 O 329.138 1.53231 -0.991287 0
M  V30 3313 C 329.189 -0.888805 -3.50403 0
M  V30 3314 O 328.91 -2.26149 -3.75218 0
M  V30 3315 C 330.411 -0.576482 -4.39536 0
M  V30 3316 H 327.631 -0.237263 -0.627652 0
M  V30 3317 H 330.175 -1.28495 -1.59089 0
M  V30 3318 H 328.33 -0.284145 -3.86357 0
M  V30 3319 H 328.744 -2.33514 -4.6965 0
M  V30 3320 H 330.218 -0.805314 -5.46094 0
M  V30 3321 H 330.695 0.489075 -4.36468 0
M  V30 3322 H 331.301 -1.16067 -4.09156 0
M  V30 3323 N 329.616 1.39756 -0.72842 0
M  V30 3324 C 330.546 2.33289 -0.0991354 0
M  V30 3325 C 331.527 1.53568 0.731489 0
M  V30 3326 O 332.712 1.81987 0.677807 0
M  V30 3327 C 329.842 3.3763 0.813834 0
M  V30 3328 C 328.796 4.2791 0.0878663 0
M  V30 3329 C 328.122 5.22894 1.11741 0
M  V30 3330 C 329.422 5.11314 -1.06563 0
M  V30 3331 H 331.116 2.86163 -0.880408 0
M  V30 3332 H 328.662 1.37591 -0.424819 0
M  V30 3333 H 330.615 4.0201 1.26355 0
M  V30 3334 H 329.339 2.83181 1.62715 0
M  V30 3335 H 327.998 3.65 -0.342159 0
M  V30 3336 H 327.646 4.64744 1.92412 0
M  V30 3337 H 327.346 5.84143 0.636477 0
M  V30 3338 H 328.87 5.90151 1.56697 0
M  V30 3339 H 330.284 5.69076 -0.694671 0
M  V30 3340 H 328.681 5.81671 -1.47577 0
M  V30 3341 H 329.751 4.46534 -1.89038 0
M  V30 3342 N 331.094 0.475555 1.50254 0
M  V30 3343 C 332.342 -0.077738 2.0195 0
M  V30 3344 C 332.663 -1.39813 1.35931 0
M  V30 3345 O 331.933 -1.89249 0.506123 0
M  V30 3346 H 330.513 -0.031719 0.746326 0
M  V30 3347 H 333.175 0.626995 1.84539 0
M  V30 3348 H 332.271 -0.225995 3.11281 0
M  V30 3349 N 332.573 -1.56217 0.208337 0
M  V30 3350 C 333.52 -2.19699 -0.707192 0
M  V30 3351 C 334.49 -1.14836 -1.20008 0
M  V30 3352 O 335.675 -1.4314 -1.26157 0
M  V30 3353 C 332.815 -2.87061 -1.91546 0
M  V30 3354 C 331.928 -4.06483 -1.46271 0
M  V30 3355 C 331.063 -4.61665 -2.62752 0
M  V30 3356 C 330.102 -5.73417 -2.14147 0
M  V30 3357 N 329.239 -6.22948 -3.23853 0
M  V30 3358 H 334.079 -2.97575 -0.159111 0
M  V30 3359 H 331.616 -1.46948 -0.0667874 0
M  V30 3360 H 333.574 -3.24294 -2.62468 0
M  V30 3361 H 332.204 -2.11725 -2.43664 0
M  V30 3362 H 331.256 -3.74825 -0.648886 0
M  V30 3363 H 332.568 -4.87271 -1.06622 0
M  V30 3364 H 331.722 -5.01272 -3.41776 0
M  V30 3365 H 330.461 -3.80013 -3.05682 0
M  V30 3366 H 329.466 -5.33326 -1.33581 0
M  V30 3367 H 330.691 -6.56897 -1.72232 0
M  V30 3368 H 328.637 -5.44213 -3.6629 0
M  V30 3369 H 328.554 -6.98823 -2.88414 0
M  V30 3370 H 329.822 -6.6721 -4.03052 0
M  V30 3371 N 334.051 0.0651679 -1.57465 0
M  V30 3372 C 334.998 1.07675 -2.04144 0
M  V30 3373 C 335.968 1.38071 -0.923335 0
M  V30 3374 O 337.153 1.49026 -1.19146 0
M  V30 3375 C 334.293 2.38337 -2.49579 0
M  V30 3376 C 333.406 2.14413 -3.75035 0
M  V30 3377 C 332.541 3.38686 -4.09225 0
M  V30 3378 C 331.58 3.10156 -5.27702 0
M  V30 3379 N 330.717 4.26778 -5.57499 0
M  V30 3380 H 335.557 0.671716 -2.90331 0
M  V30 3381 H 333.094 0.3201 -1.43575 0
M  V30 3382 H 335.052 3.14632 -2.73975 0
M  V30 3383 H 333.682 2.7663 -1.6636 0
M  V30 3384 H 332.734 1.2878 -3.57939 0
M  V30 3385 H 334.046 1.89344 -4.61466 0
M  V30 3386 H 333.2 4.23373 -4.34558 0
M  V30 3387 H 331.939 3.66837 -3.21374 0
M  V30 3388 H 330.944 2.23866 -5.02159 0
M  V30 3389 H 332.169 2.8332 -6.17176 0
M  V30 3390 H 330.115 4.54948 -4.72608 0
M  V30 3391 H 330.032 4.05005 -6.38362 0
M  V30 3392 H 331.3 5.12443 -5.87386 0
M  V30 3393 N 335.529 1.53961 0.336706 0
M  V30 3394 C 336.439 1.85432 1.43708 0
M  V30 3395 C 337.455 0.745053 1.57242 0
M  V30 3396 O 338.631 1.03804 1.72588 0
M  V30 3397 C 335.696 2.06349 2.78605 0
M  V30 3398 C 334.757 3.30191 2.74358 0
M  V30 3399 C 333.99 3.50101 4.02822 0
M  V30 3400 O 334.213 2.7371 5.00439 0
M  V30 3401 O 333.147 4.43547 4.06878 0
M  V30 3402 H 336.973 2.78975 1.20028 0
M  V30 3403 H 334.558 1.39701 0.52952 0
M  V30 3404 H 336.44 2.21513 3.58483 0
M  V30 3405 H 335.115 1.15995 3.02203 0
M  V30 3406 H 334.022 3.20425 1.93078 0
M  V30 3407 H 335.355 4.2056 2.55715 0
M  V30 3408 N 337.007 -0.598083 1.45811 0
M  V30 3409 C 338.284 -1.35777 1.40797 0
M  V30 3410 C 338.664 -2.10935 0.083462 0
M  V30 3411 O 338.012 -2.08505 -0.934763 0
M  V30 3412 C 338.222 -2.29666 2.62783 0
M  V30 3413 C 339.57 -2.91977 3.08277 0
M  V30 3414 O 340.594 -2.39984 2.63223 0
M  V30 3415 O 339.453 -3.86376 3.86491 0
M  V30 3416 H 336.547 -0.609291 0.55919 0
M  V30 3417 H 339.093 -0.620379 1.57954 0
M  V30 3418 H 337.865 -1.73454 3.50756 0
M  V30 3419 H 337.488 -3.1077 2.48008 0
M  V30 3420 N 338.485 -1.33259 -0.841409 0
M  V30 3421 C 339.432 -1.23302 -1.95103 0
M  V30 3422 C 340.402 -0.112204 -1.65721 0
M  V30 3423 O 341.587 -0.290038 -1.88583 0
M  V30 3424 C 338.727 -0.975583 -3.31023 0
M  V30 3425 C 337.84 -2.18243 -3.72819 0
M  V30 3426 C 336.975 -1.85936 -4.97595 0
M  V30 3427 C 336.014 -3.02866 -5.3192 0
M  V30 3428 N 335.151 -2.70565 -6.47873 0
M  V30 3429 H 339.991 -2.18207 -2.02952 0
M  V30 3430 H 337.528 -1.0851 -0.993173 0
M  V30 3431 H 339.486 -0.80677 -4.09325 0
M  V30 3432 H 338.116 -0.0632755 -3.22738 0
M  V30 3433 H 337.168 -2.46107 -2.90061 0
M  V30 3434 H 338.48 -3.05666 -3.94169 0
M  V30 3435 H 337.634 -1.65684 -5.83638 0
M  V30 3436 H 336.373 -0.957452 -4.78209 0
M  V30 3437 H 335.378 -3.23736 -4.44382 0
M  V30 3438 H 336.603 -3.93809 -5.53255 0
M  V30 3439 H 334.549 -1.8293 -6.29978 0
M  V30 3440 H 334.466 -3.51519 -6.69306 0
M  V30 3441 H 335.734 -2.53774 -7.37034 0
M  V30 3442 N 339.963 1.05934 -1.16686 0
M  V30 3443 C 340.893 2.1546 -0.899949 0
M  V30 3444 C 341.874 1.69391 0.155154 0
M  V30 3445 O 343.059 1.94199 0.00648693 0
M  V30 3446 C 340.189 3.44939 -0.404241 0
M  V30 3447 C 339.143 4.04536 -1.39767 0
M  V30 3448 C 338.469 5.29268 -0.760216 0
M  V30 3449 C 339.769 4.42893 -2.76845 0
M  V30 3450 H 341.463 2.38046 -1.81588 0
M  V30 3451 H 339.009 1.14404 -0.874514 0
M  V30 3452 H 340.962 4.20901 -0.204971 0
M  V30 3453 H 339.686 3.21983 0.547206 0
M  V30 3454 H 338.345 3.30635 -1.58355 0
M  V30 3455 H 337.993 5.02611 0.197831 0
M  V30 3456 H 337.693 5.70101 -1.42332 0
M  V30 3457 H 339.217 6.07924 -0.57105 0
M  V30 3458 H 340.631 5.09921 -2.62019 0
M  V30 3459 H 339.028 4.94721 -3.39663 0
M  V30 3460 H 340.098 3.53584 -3.31823 0
M  V30 3461 N 341.441 0.965919 1.2453 0
M  V30 3462 C 342.689 0.625593 1.92174 0
M  V30 3463 C 343.01 -0.841652 1.75901 0
M  V30 3464 O 342.28 -1.60061 1.12948 0
M  V30 3465 H 340.86 0.228388 0.71123 0
M  V30 3466 H 343.522 1.2266 1.51461 0
M  V30 3467 H 342.618 0.864653 2.99884 0
M  V30 3468 N 342.919 -1.39368 0.735821 0
M  V30 3469 C 344.168 -1.99733 0.281004 0
M  V30 3470 C 344.481 -1.59055 -1.13846 0
M  V30 3471 O 345.687 -2.12262 -1.69284 0
M  V30 3472 C 344.143 -3.57057 0.451462 0
M  V30 3473 C 343.751 -4.06697 1.87886 0
M  V30 3474 C 345.495 -4.2446 0.0584616 0
M  V30 3475 C 343.402 -5.56598 1.99883 0
M  V30 3476 H 342.332 -0.747163 0.101311 0
M  V30 3477 H 344.983 -1.59357 0.909819 0
M  V30 3478 H 343.365 -3.95234 -0.246263 0
M  V30 3479 H 344.539 -3.79853 2.60861 0
M  V30 3480 H 342.854 -3.5196 2.22515 0
M  V30 3481 H 345.451 -5.34549 0.127099 0
M  V30 3482 H 345.794 -4.04444 -0.986433 0
M  V30 3483 H 346.327 -3.9146 0.707374 0
M  V30 3484 H 343.066 -5.81494 3.02564 0
M  V30 3485 H 342.586 -5.85242 1.31346 0
M  V30 3486 H 344.265 -6.22022 1.78039 0
M  V30 3487 N 344.397 -0.483516 -1.5 0
M  V30 3488 C 345.813 -0.138404 -1.58999 0
M  V30 3489 C 346.013 1.35597 -1.4905 0
M  V30 3490 O 345.069 2.13039 -1.35539 0
M  V30 3491 C 346.382 -0.699658 -2.92447 0
M  V30 3492 C 347.93 -0.664195 -3.05872 0
M  V30 3493 C 348.405 -1.20321 -4.41913 0
M  V30 3494 N 349.896 -1.16315 -4.48358 0
M  V30 3495 C 350.631 -1.55058 -5.52037 0
M  V30 3496 N 350.127 -2.01311 -6.62907 0
M  V30 3497 N 351.92 -1.46584 -5.42651 0
M  V30 3498 H 344.071 -1.45529 -1.5471 0
M  V30 3499 H 346.334 -0.60258 -0.731848 0
M  V30 3500 H 346.04 -1.747 -3.05242 0
M  V30 3501 H 345.914 -0.150194 -3.76901 0
M  V30 3502 H 348.301 0.374272 -2.92717 0
M  V30 3503 H 348.382 -1.25061 -2.23144 0
M  V30 3504 H 348.026 -2.24037 -4.55818 0
M  V30 3505 H 347.956 -0.592896 -5.23252 0
M  V30 3506 H 350.447 -0.824058 -3.68806 0
M  V30 3507 H 350.76 -2.2899 -7.38095 0
M  V30 3508 H 349.105 -2.05273 -6.63994 0
M  V30 3509 H 352.296 -1.10281 -4.54924 0
M  V30 3510 H 352.469 -1.77103 -6.23329 0
M  V30 3511 N 345.875 1.56104 -0.216619 0
M  V30 3512 C 347.123 1.97781 0.415593 0
M  V30 3513 C 347.444 1.10536 1.60645 0
M  V30 3514 O 346.714 0.181303 1.95059 0
M  V30 3515 H 345.294 0.730415 0.156534 0
M  V30 3516 H 347.956 1.92445 -0.308366 0
M  V30 3517 H 347.052 3.03072 0.74525 0
M  V30 3518 N 347.353 -0.0568162 1.57498 0
M  V30 3519 C 348.578 -0.769402 1.92601 0
M  V30 3520 C 349.003 -1.69559 0.814336 0
M  V30 3521 O 348.361 -1.79811 -0.231903 0
M  V30 3522 C 348.409 -1.52634 3.26704 0
M  V30 3523 O 347.513 -2.63797 3.16994 0
M  V30 3524 H 346.854 -0.208909 0.63028 0
M  V30 3525 H 349.384 -0.0205798 2.0459 0
M  V30 3526 H 349.394 -1.90234 3.60936 0
M  V30 3527 H 348.069 -0.846875 4.07186 0
M  V30 3528 H 346.646 -2.28943 2.94346 0
M  V30 3529 N 348.832 -1.54138 -0.328536 0
M  V30 3530 C 350.057 -1.76378 -1.09112 0
M  V30 3531 C 350.482 -0.508596 -1.81094 0
M  V30 3532 O 349.84 0.539598 -1.73084 0
M  V30 3533 C 349.888 -2.95358 -2.06872 0
M  V30 3534 O 348.992 -2.66556 -3.14677 0
M  V30 3535 H 348.333 -0.584614 -0.314838 0
M  V30 3536 H 350.863 -2.01146 -0.374348 0
M  V30 3537 H 350.873 -3.22566 -2.4983 0
M  V30 3538 H 349.548 -3.86385 -1.5388 0
M  V30 3539 H 348.125 -2.50282 -2.7643 0
M  V30 3540 N 350.31 0.590341 -1.46126 0
M  V30 3541 C 351.538 1.37504 -1.54597 0
M  V30 3542 C 351.953 1.87897 -0.184447 0
M  V30 3543 O 351.31 1.63192 0.816984 0
M  V30 3544 C 351.361 2.56779 -2.54454 0
M  V30 3545 O 351.082 2.08476 -3.85317 0
M  V30 3546 C 352.583 3.49427 -2.72792 0
M  V30 3547 H 349.803 0.420325 -0.523037 0
M  V30 3548 H 352.347 0.718383 -1.91467 0
M  V30 3549 H 350.502 3.1845 -2.20609 0
M  V30 3550 H 350.916 2.86097 -4.396 0
M  V30 3551 H 352.39 4.29619 -3.466 0
M  V30 3552 H 352.867 4.00876 -1.79429 0
M  V30 3553 H 353.473 2.93598 -3.07702 0
M  V30 3554 N 351.788 1.33704 0.83433 0
M  V30 3555 C 352.751 1.24244 1.92603 0
M  V30 3556 C 353.751 0.160383 1.59998 0
M  V30 3557 O 354.941 0.412228 1.69252 0
M  V30 3558 C 352.073 0.91555 3.28376 0
M  V30 3559 H 353.266 2.21287 2.02416 0
M  V30 3560 H 350.819 1.17827 1.02696 0
M  V30 3561 H 351.554 -0.0521886 3.24258 0
M  V30 3562 H 351.339 1.69811 3.53422 0
M  V30 3563 H 352.829 0.874231 4.08347 0
M  V30 3564 N 353.266 -1.05314 1.17247 0
M  V30 3565 C 354.214 -2.15137 0.884238 0
M  V30 3566 C 355.208 -1.68729 -0.15063 0
M  V30 3567 O 356.414 -1.8 -0.00366673 0
M  V30 3568 H 352.789 -0.702471 0.2684 0
M  V30 3569 H 354.76 -2.36652 1.81764 0
M  V30 3570 C 353.509 -3.45243 0.412659 0
M  V30 3571 H 352.832 -3.81352 1.20043 0
M  V30 3572 H 354.272 -4.23263 0.249858 0
M  V30 3573 C 352.731 -3.25487 -0.86948 0
M  V30 3574 O 353.261 -3.51938 -1.93655 0
M  V30 3575 N 351.467 -2.78875 -0.817147 0
M  V30 3576 H 351.014 -2.57549 0.0514211 0
M  V30 3577 H 350.972 -2.66036 -1.67547 0
M  V30 3578 N 354.744 -0.972509 -1.24016 0
M  V30 3579 C 355.674 -0.525548 -2.27509 0
M  V30 3580 C 356.655 0.437262 -1.64384 0
M  V30 3581 O 357.84 0.332343 -1.91335 0
M  V30 3582 C 354.97 0.180448 -3.46831 0
M  V30 3583 C 353.924 -0.698859 -4.22256 0
M  V30 3584 C 353.25 0.138903 -5.3452 0
M  V30 3585 C 354.55 -1.98582 -4.83076 0
M  V30 3586 H 356.244 -1.39058 -2.65148 0
M  V30 3587 H 353.79 -0.67009 -1.27459 0
M  V30 3588 H 355.743 0.504387 -4.18371 0
M  V30 3589 H 354.467 1.07987 -3.08231 0
M  V30 3590 H 353.126 -1.00614 -3.52523 0
M  V30 3591 H 352.774 1.03862 -4.9216 0
M  V30 3592 H 352.474 -0.446259 -5.85903 0
M  V30 3593 H 353.998 0.457404 -6.08884 0
M  V30 3594 H 355.412 -1.72715 -5.46665 0
M  V30 3595 H 353.809 -2.5181 -5.44713 0
M  V30 3596 H 354.879 -2.67769 -4.04262 0
M  V30 3597 N 356.222 1.38976 -0.743202 0
M  V30 3598 C 357.471 1.99581 -0.291592 0
M  V30 3599 C 357.784 1.59656 1.13001 0
M  V30 3600 O 358.99 2.13157 1.68156 0
M  V30 3601 C 357.446 3.56813 -0.470391 0
M  V30 3602 C 357.054 4.05695 -1.90041 0
M  V30 3603 C 358.798 4.24423 -0.0809709 0
M  V30 3604 C 356.705 5.5553 -2.02832 0
M  V30 3605 H 355.635 0.746615 -0.105272 0
M  V30 3606 H 358.286 1.58872 -0.918258 0
M  V30 3607 H 356.668 3.95359 0.225299 0
M  V30 3608 H 357.842 3.78464 -2.62872 0
M  V30 3609 H 356.157 3.50775 -2.24379 0
M  V30 3610 H 358.754 5.34474 -0.155445 0
M  V30 3611 H 359.097 4.04962 0.96497 0
M  V30 3612 H 359.63 3.9108 -0.728124 0
M  V30 3613 H 356.369 5.79881 -3.05643 0
M  V30 3614 H 355.889 5.84537 -1.34448 0
M  V30 3615 H 357.568 6.21069 -1.81335 0
M  V30 3616 N 357.7 0.491464 1.49741 0
M  V30 3617 C 358.947 -0.0564256 2.02421 0
M  V30 3618 C 359.275 -1.37872 1.37192 0
M  V30 3619 O 358.53 -1.89375 0.493508 0
M  V30 3620 C 358.829 -0.267329 3.56399 0
M  V30 3621 C 358.495 0.975775 4.40215 0
M  V30 3622 C 357.157 1.31655 4.62839 0
M  V30 3623 C 359.509 1.80251 4.89039 0
M  V30 3624 C 356.837 2.48375 5.31532 0
M  V30 3625 C 359.189 2.96116 5.59015 0
M  V30 3626 C 357.853 3.30585 5.79888 0
M  V30 3627 H 357.123 -0.0206476 0.740712 0
M  V30 3628 H 359.77 0.649686 1.80143 0
M  V30 3629 H 358.075 -1.05588 3.77304 0
M  V30 3630 H 359.772 -0.705549 3.94744 0
M  V30 3631 H 356.362 0.700315 4.2284 0
M  V30 3632 H 360.546 1.55239 4.71396 0
M  V30 3633 H 355.802 2.7533 5.45897 0
M  V30 3634 H 359.976 3.60509 5.95824 0
M  V30 3635 H 357.603 4.21132 6.32892 0
M  V30 3636 N 359.178 -1.55987 0.224894 0
M  V30 3637 C 360.088 -2.24066 -0.69511 0
M  V30 3638 C 361.104 -1.24939 -1.21104 0
M  V30 3639 O 362.28 -1.5776 -1.25195 0
M  V30 3640 C 359.345 -2.90983 -1.88493 0
M  V30 3641 C 358.406 -4.05462 -1.41064 0
M  V30 3642 C 357.639 -4.69179 -2.54375 0
M  V30 3643 O 357.862 -4.31895 -3.72589 0
M  V30 3644 O 356.796 -5.58108 -2.25386 0
M  V30 3645 H 360.622 -3.03353 -0.145149 0
M  V30 3646 H 358.207 -1.49399 -0.00569476 0
M  V30 3647 H 360.089 -3.33209 -2.57972 0
M  V30 3648 H 358.764 -2.14653 -2.42293 0
M  V30 3649 H 357.671 -3.67798 -0.683774 0
M  V30 3650 H 359.004 -4.83545 -0.918985 0
M  V30 3651 N 360.656 0.0484629 -1.57525 0
M  V30 3652 C 361.933 0.777447 -1.79486 0
M  V30 3653 C 362.313 1.94597 -0.818251 0
M  V30 3654 O 361.661 2.28047 0.143767 0
M  V30 3655 C 361.871 1.22864 -3.26658 0
M  V30 3656 C 363.219 1.65251 -3.91123 0
M  V30 3657 O 364.243 1.32372 -3.3069 0
M  V30 3658 O 363.102 2.26207 -4.97486 0
M  V30 3659 H 360.196 0.374357 -0.737419 0
M  V30 3660 H 362.742 0.0267359 -1.69679 0
M  V30 3661 H 361.514 0.393589 -3.89316 0
M  V30 3662 H 361.137 2.03996 -3.41279 0
M  V30 3663 N 362.134 1.5431 0.320358 0
M  V30 3664 C 363.374 1.74395 1.0661 0
M  V30 3665 C 363.738 0.508602 1.85141 0
M  V30 3666 O 364.939 0.586856 2.62316 0
M  V30 3667 C 363.21 2.98619 1.96371 0
M  V30 3668 S 364.769 3.39621 2.77854 0
M  V30 3669 H 361.587 0.613204 0.359863 0
M  V30 3670 H 364.189 1.9249 0.341727 0
M  V30 3671 H 362.893 3.86673 1.3752 0
M  V30 3672 H 362.424 2.83055 2.73209 0
M  V30 3673 H 364.439 2.95172 3.98858 0
M  V30 3674 N 363.613 -0.582584 1.46437 0
M  V30 3675 C 365.029 -0.905962 1.31394 0
M  V30 3676 C 365.229 -1.99468 0.285476 0
M  V30 3677 O 364.285 -2.50566 -0.311914 0
M  V30 3678 C 365.598 -1.3232 2.70022 0
M  V30 3679 C 367.146 -1.43604 2.78113 0
M  V30 3680 C 367.621 -1.88694 4.17323 0
M  V30 3681 N 369.112 -1.95887 4.19741 0
M  V30 3682 C 369.847 -2.32051 5.24347 0
M  V30 3683 N 369.343 -2.67006 6.39281 0
M  V30 3684 N 371.136 -2.32606 5.11713 0
M  V30 3685 H 363.287 0.1366 2.1196 0
M  V30 3686 H 365.55 -0.00155736 0.947999 0
M  V30 3687 H 365.256 -0.597242 3.46592 0
M  V30 3688 H 365.13 -2.28469 3.00136 0
M  V30 3689 H 367.517 -2.15286 2.01832 0
M  V30 3690 H 367.598 -0.457059 2.51684 0
M  V30 3691 H 367.242 -1.1759 4.941 0
M  V30 3692 H 367.172 -2.8755 4.4116 0
M  V30 3693 H 369.663 -1.71362 3.36814 0
M  V30 3694 H 369.976 -2.93554 7.14875 0
M  V30 3695 H 368.321 -2.64644 6.42642 0
M  V30 3696 H 371.512 -2.04721 4.2096 0
M  V30 3697 H 371.685 -2.60462 5.93349 0
M  V30 3698 N 365.091 -1.34144 -0.827227 0
M  V30 3699 C 366.34 -1.25602 -1.5782 0
M  V30 3700 C 366.653 0.173445 -1.94829 0
M  V30 3701 O 367.859 0.380984 -2.68814 0
M  V30 3702 C 366.315 -2.20151 -2.84713 0
M  V30 3703 C 365.923 -3.68331 -2.55021 0
M  V30 3704 C 367.667 -2.20508 -3.62735 0
M  V30 3705 C 365.574 -4.54762 -3.78082 0
M  V30 3706 H 364.504 -0.466573 -0.592306 0
M  V30 3707 H 367.155 -1.59283 -0.911116 0
M  V30 3708 H 365.537 -1.79417 -3.53023 0
M  V30 3709 H 366.711 -4.17577 -1.94849 0
M  V30 3710 H 365.026 -3.7038 -1.90283 0
M  V30 3711 H 367.623 -2.82306 -4.54101 0
M  V30 3712 H 367.966 -1.20322 -3.98533 0
M  V30 3713 H 368.499 -2.59664 -3.01362 0
M  V30 3714 H 365.238 -5.55867 -3.47407 0
M  V30 3715 H 364.758 -4.10254 -4.37552 0
M  V30 3716 H 366.437 -4.69153 -4.45538 0
M  V30 3717 N 366.569 1.04691 -1.17803 0
M  V30 3718 C 367.98 1.59238 -0.974689 0
M  V30 3719 C 368.331 1.90306 0.477292 0
M  V30 3720 O 367.456 1.68846 1.35352 0
M  V30 3721 C 368.051 2.89318 -1.76296 0
M  V30 3722 C 366.61 3.40506 -1.60414 0
M  V30 3723 C 365.757 2.14172 -1.76141 0
M  V30 3724 H 368.708 0.874395 -1.32439 0
M  V30 3725 H 368.729 3.5944 -1.24833 0
M  V30 3726 H 368.241 2.66675 -2.81968 0
M  V30 3727 H 366.342 3.68175 -0.572519 0
M  V30 3728 H 366.455 4.14753 -2.39827 0
M  V30 3729 H 364.819 2.25176 -1.19028 0
M  V30 3730 H 365.602 1.93992 -2.83235 0
M  V30 3731 N 368.047 0.979072 1.23499 0
M  V30 3732 C 368.994 0.517904 2.24914 0
M  V30 3733 C 369.964 -0.442525 1.60097 0
M  V30 3734 O 371.149 -0.350365 1.87556 0
M  V30 3735 C 368.289 -0.174813 3.44657 0
M  V30 3736 C 367.402 0.825721 4.24035 0
M  V30 3737 C 366.537 0.107946 5.3109 0
M  V30 3738 C 365.576 1.09778 6.02175 0
M  V30 3739 N 364.713 0.40925 7.00906 0
M  V30 3740 H 369.553 1.38751 2.63727 0
M  V30 3741 H 367.09 0.695303 1.2963 0
M  V30 3742 H 369.048 -0.593233 4.12961 0
M  V30 3743 H 367.678 -1.0083 3.06648 0
M  V30 3744 H 366.73 1.36253 3.55161 0
M  V30 3745 H 368.042 1.58005 4.73113 0
M  V30 3746 H 367.196 -0.367904 6.05583 0
M  V30 3747 H 365.935 -0.678994 4.8295 0
M  V30 3748 H 364.94 1.5844 5.26476 0
M  V30 3749 H 366.165 1.88536 6.52404 0
M  V30 3750 H 364.111 -0.358506 6.5502 0
M  V30 3751 H 364.028 1.10226 7.47921 0
M  V30 3752 H 365.296 -0.0442557 7.79487 0
M  V30 3753 N 369.525 -1.3858 0.750561 0
M  V30 3754 C 370.802 -1.94231 0.231009 0
M  V30 3755 C 371.182 -1.68611 -1.27018 0
M  V30 3756 O 370.53 -1.02296 -2.04323 0
M  V30 3757 C 370.74 -3.44123 0.581428 0
M  V30 3758 C 372.088 -4.2116 0.539389 0
M  V30 3759 O 373.112 -3.52391 0.519541 0
M  V30 3760 O 371.971 -5.43749 0.54765 0
M  V30 3761 H 369.065 -0.825639 0.0474263 0
M  V30 3762 H 371.611 -1.4799 0.830478 0
M  V30 3763 H 370.383 -3.56267 1.61833 0
M  V30 3764 H 370.006 -3.97573 -0.0462047 0
M  V30 3765 N 371.003 -0.499398 -1.49478 0
M  V30 3766 C 372.228 0.044722 -2.07352 0
M  V30 3767 C 372.653 1.30207 -1.35749 0
M  V30 3768 O 372.011 1.76516 -0.413732 0
M  V30 3769 C 372.059 0.283013 -3.59488 0
M  V30 3770 O 371.163 1.35804 -3.89398 0
M  V30 3771 H 370.504 -0.0255147 -0.66351 0
M  V30 3772 H 373.034 -0.698561 -1.92305 0
M  V30 3773 H 373.044 0.515007 -4.04737 0
M  V30 3774 H 371.719 -0.635636 -4.11014 0
M  V30 3775 H 370.296 1.11113 -3.55961 0
M  V30 3776 N 372.481 1.55866 -0.233164 0
M  V30 3777 C 373.73 1.97779 0.39579 0
M  V30 3778 C 374.043 1.12419 1.60066 0
M  V30 3779 O 375.249 1.44283 2.29988 0
M  V30 3780 C 373.705 3.5188 0.755556 0
M  V30 3781 C 373.313 4.45959 -0.427152 0
M  V30 3782 C 375.057 4.02479 1.34946 0
M  V30 3783 C 372.964 5.91383 -0.0443043 0
M  V30 3784 H 371.894 0.738592 0.15165 0
M  V30 3785 H 374.545 1.80486 -0.331212 0
M  V30 3786 H 372.927 3.64816 1.5403 0
M  V30 3787 H 374.101 4.44776 -1.20462 0
M  V30 3788 H 372.416 4.05765 -0.935068 0
M  V30 3789 H 375.013 5.08637 1.649 0
M  V30 3790 H 375.356 3.49014 2.26925 0
M  V30 3791 H 375.889 3.92813 0.62791 0
M  V30 3792 H 372.628 6.48857 -0.930874 0
M  V30 3793 H 372.148 5.95734 0.697238 0
M  V30 3794 H 373.827 6.45893 0.378334 0
M  V30 3795 N 373.959 -0.0401083 1.57549 0
M  V30 3796 C 374.889 -1.04384 2.08869 0
M  V30 3797 C 375.87 -1.38407 0.988817 0
M  V30 3798 O 377.055 -1.47483 1.26342 0
M  V30 3799 C 374.185 -2.34808 2.55895 0
M  V30 3800 C 373.139 -2.15057 3.70047 0
M  V30 3801 C 372.465 -3.51145 4.03239 0
M  V30 3802 C 373.765 -1.54576 4.98902 0
M  V30 3803 H 375.459 -0.616666 2.92981 0
M  V30 3804 H 373.005 -0.295184 1.40942 0
M  V30 3805 H 374.958 -3.05346 2.90417 0
M  V30 3806 H 373.682 -2.79565 1.68853 0
M  V30 3807 H 372.341 -1.46954 3.35857 0
M  V30 3808 H 371.989 -3.93529 3.13279 0
M  V30 3809 H 371.689 -3.38758 4.80122 0
M  V30 3810 H 373.213 -4.23062 4.40285 0
M  V30 3811 H 374.627 -2.15017 5.31451 0
M  V30 3812 H 373.024 -1.52796 5.80322 0
M  V30 3813 H 374.094 -0.51039 4.82206 0
M  V30 3814 N 375.437 -1.54477 -0.31217 0
M  V30 3815 C 376.685 -1.72884 -1.04668 0
M  V30 3816 C 377.006 -0.511477 -1.88173 0
M  V30 3817 O 376.276 0.474407 -1.90069 0
M  V30 3818 H 374.856 -0.637461 -0.389425 0
M  V30 3819 H 377.518 -1.91807 -0.345852 0
M  V30 3820 H 376.614 -2.61334 -1.70619 0
M  V30 3821 N 376.915 0.57481 -1.46744 0
M  V30 3822 C 377.825 1.711 -1.60505 0
M  V30 3823 C 378.841 1.67008 -0.488307 0
M  V30 3824 O 380.017 1.86774 -0.753495 0
M  V30 3825 C 377.082 3.07608 -1.59932 0
M  V30 3826 C 376.143 3.22904 -2.82898 0
M  V30 3827 C 375.376 4.529 -2.82343 0
M  V30 3828 O 375.599 5.37278 -1.91542 0
M  V30 3829 O 374.533 4.71611 -3.73987 0
M  V30 3830 H 378.359 1.62436 -2.56609 0
M  V30 3831 H 375.944 0.742779 -1.29627 0
M  V30 3832 H 377.826 3.88877 -1.62336 0
M  V30 3833 H 376.501 3.16692 -0.669898 0
M  V30 3834 H 375.408 2.41099 -2.86046 0
M  V30 3835 H 376.741 3.18715 -3.75076 0
M  V30 3836 N 378.394 1.34581 0.820102 0
M  V30 3837 C 379.805 1.24298 1.39309 0
M  V30 3838 C 380.156 -0.130351 1.95767 0
M  V30 3839 O 379.281 -1.0308 1.90272 0
M  V30 3840 C 379.876 2.25054 2.53251 0
M  V30 3841 C 378.435 2.18552 3.0645 0
M  V30 3842 C 377.582 2.11503 1.79337 0
M  V30 3843 H 380.533 1.45906 0.624262 0
M  V30 3844 H 380.554 1.86917 3.31425 0
M  V30 3845 H 380.066 3.24996 2.1213 0
M  V30 3846 H 378.167 1.21976 3.52069 0
M  V30 3847 H 378.28 3.0993 3.65349 0
M  V30 3848 H 376.644 1.57268 2.00347 0
M  V30 3849 H 377.427 3.13284 1.40386 0
M  V30 3850 N 379.872 -1.04064 1.18357 0
M  V30 3851 C 381.12 -1.76915 0.977013 0
M  V30 3852 C 381.441 -1.88624 -0.494577 0
M  V30 3853 O 380.711 -1.41125 -1.3587 0
M  V30 3854 H 379.291 -0.65535 0.358504 0
M  V30 3855 H 381.953 -1.25592 1.49039 0
M  V30 3856 H 381.049 -2.78178 1.41504 0
M  V30 3857 N 381.35 -0.985608 -1.22978 0
M  V30 3858 C 382.283 -0.47487 -2.23204 0
M  V30 3859 C 383.261 0.460865 -1.55932 0
M  V30 3860 O 384.445 0.388105 -1.84461 0
M  V30 3861 C 381.572 0.312427 -3.37256 0
M  V30 3862 C 380.618 -0.568219 -4.22698 0
M  V30 3863 S 381.451 -2.01919 -4.95973 0
M  V30 3864 C 382.607 -1.24118 -6.1347 0
M  V30 3865 H 382.84 -1.32419 -2.66181 0
M  V30 3866 H 380.373 -0.792005 -1.32539 0
M  V30 3867 H 382.331 0.760645 -4.03391 0
M  V30 3868 H 380.992 1.13693 -2.92801 0
M  V30 3869 H 380.185 0.0371657 -5.03986 0
M  V30 3870 H 379.787 -0.952897 -3.61657 0
M  V30 3871 H 382.079 -0.505121 -6.75614 0
M  V30 3872 H 383.022 -2.02907 -6.78406 0
M  V30 3873 H 383.43 -0.757669 -5.59392 0
M  V30 3874 N 382.828 1.3818 -0.7579 0
M  V30 3875 C 384.076 1.99624 -0.315361 0
M  V30 3876 C 384.397 1.60464 1.10799 0
M  V30 3877 O 383.667 0.863507 1.75842 0
M  V30 3878 H 382.247 0.73831 -0.113611 0
M  V30 3879 H 384.909 1.68878 -0.972952 0
M  V30 3880 H 384.005 3.09754 -0.381931 0
M  V30 3881 N 384.306 0.507319 1.49211 0
M  V30 3882 C 385.553 -0.0349529 2.0247 0
M  V30 3883 C 385.881 -1.36409 1.38647 0
M  V30 3884 O 385.136 -1.88841 0.513566 0
M  V30 3885 C 385.435 -0.229513 3.56662 0
M  V30 3886 C 385.101 1.02241 4.39156 0
M  V30 3887 C 383.763 1.36557 4.61417 0
M  V30 3888 C 386.115 1.85428 4.871 0
M  V30 3889 C 383.443 2.53999 5.28868 0
M  V30 3890 C 385.795 3.02028 5.55843 0
M  V30 3891 C 384.459 3.36717 5.76349 0
M  V30 3892 H 383.729 -0.0127902 0.74089 0
M  V30 3893 H 386.376 0.668756 1.79443 0
M  V30 3894 H 384.681 -1.0158 3.78403 0
M  V30 3895 H 386.378 -0.663641 3.9547 0
M  V30 3896 H 382.968 0.745124 4.22073 0
M  V30 3897 H 387.152 1.6023 4.69723 0
M  V30 3898 H 382.408 2.81105 5.42946 0
M  V30 3899 H 386.582 3.66808 5.91967 0
M  V30 3900 H 384.209 4.27821 6.28389 0
M  V30 3901 N 385.784 -1.5574 0.241426 0
M  V30 3902 C 386.731 -2.21149 -0.660432 0
M  V30 3903 C 387.701 -1.17356 -1.17545 0
M  V30 3904 O 388.886 -1.45784 -1.23093 0
M  V30 3905 C 386.026 -2.91059 -1.85414 0
M  V30 3906 C 385.139 -4.09495 -1.37616 0
M  V30 3907 C 384.274 -4.67135 -2.529 0
M  V30 3908 C 383.313 -5.77831 -2.01936 0
M  V30 3909 N 382.45 -6.29677 -3.10566 0
M  V30 3910 H 387.29 -2.97845 -0.095955 0
M  V30 3911 H 384.827 -1.47057 -0.0356024 0
M  V30 3912 H 386.785 -3.29788 -2.5553 0
M  V30 3913 H 385.415 -2.16846 -2.39118 0
M  V30 3914 H 384.467 -3.76117 -0.569235 0
M  V30 3915 H 385.779 -4.89423 -0.962618 0
M  V30 3916 H 384.933 -5.08409 -3.31067 0
M  V30 3917 H 383.672 -3.86411 -2.97553 0
M  V30 3918 H 382.677 -5.36039 -1.22238 0
M  V30 3919 H 383.902 -6.60402 -1.58259 0
M  V30 3920 H 381.848 -5.5186 -3.54664 0
M  V30 3921 H 381.765 -7.04783 -2.73526 0
M  V30 3922 H 383.033 -6.75609 -3.88809 0
M  V30 3923 N 387.262 0.0317525 -1.57568 0
M  V30 3924 C 388.511 0.722131 -1.8833 0
M  V30 3925 C 388.824 1.76664 -0.839587 0
M  V30 3926 O 390.03 2.50942 -1.03635 0
M  V30 3927 C 388.486 1.33544 -3.34207 0
M  V30 3928 C 388.094 0.327415 -4.46802 0
M  V30 3929 C 389.838 2.00585 -3.7412 0
M  V30 3930 C 387.745 0.948915 -5.83738 0
M  V30 3931 H 386.675 0.273466 -0.702661 0
M  V30 3932 H 389.326 -0.0235811 -1.83485 0
M  V30 3933 H 387.708 2.13077 -3.33788 0
M  V30 3934 H 388.882 -0.441006 -4.58685 0
M  V30 3935 H 387.197 -0.240758 -4.15703 0
M  V30 3936 H 389.794 2.47932 -4.73744 0
M  V30 3937 H 390.137 2.82285 -3.05975 0
M  V30 3938 H 390.67 1.27831 -3.76702 0
M  V30 3939 H 387.409 0.171387 -6.55276 0
M  V30 3940 H 386.929 1.68724 -5.7558 0
M  V30 3941 H 388.608 1.45705 -6.3038 0
M  V30 3942 N 388.74 1.54641 0.303973 0
M  V30 3943 C 389.703 1.84646 1.35789 0
M  V30 3944 C 390.703 0.7192 1.4382 0
M  V30 3945 O 391.893 0.987491 1.43507 0
M  V30 3946 C 389.025 2.02407 2.74307 0
M  V30 3947 H 390.218 2.78829 1.10429 0
M  V30 3948 H 387.771 1.46658 0.540487 0
M  V30 3949 H 388.506 1.10502 3.04893 0
M  V30 3950 H 388.291 2.84453 2.69868 0
M  V30 3951 H 389.781 2.27002 3.50514 0
M  V30 3952 N 390.218 -0.567019 1.47046 0
M  V30 3953 C 391.151 -1.69016 1.53326 0
M  V30 3954 C 392.129 -1.57949 0.386126 0
M  V30 3955 O 393.313 -1.78945 0.592529 0
M  V30 3956 C 390.44 -3.07191 1.42658 0
M  V30 3957 C 389.486 -3.36733 2.6175 0
M  V30 3958 S 390.319 -3.27069 4.24012 0
M  V30 3959 C 391.475 -4.67755 4.1588 0
M  V30 3960 H 391.708 -1.63434 2.48348 0
M  V30 3961 H 389.241 -0.747048 1.35124 0
M  V30 3962 H 391.199 -3.86897 1.37191 0
M  V30 3963 H 389.86 -3.10249 0.490369 0
M  V30 3964 H 389.053 -4.37441 2.50323 0
M  V30 3965 H 388.655 -2.64627 2.64289 0
M  V30 3966 H 390.947 -5.58491 3.83529 0
M  V30 3967 H 391.89 -4.84239 5.16641 0
M  V30 3968 H 392.298 -4.45341 3.46889 0
M  V30 3969 N 391.696 -1.35014 -0.812953 0
M  V30 3970 C 392.628 -1.23262 -1.93233 0
M  V30 3971 C 393.641 -0.157371 -1.62038 0
M  V30 3972 O 394.83 -0.410096 -1.73725 0
M  V30 3973 C 391.93 -0.87392 -3.27438 0
M  V30 3974 C 391.103 -2.04622 -3.86586 0
M  V30 3975 C 390.162 -1.66432 -4.99186 0
M  V30 3976 O 389.188 -2.38222 -5.16951 0
M  V30 3977 N 390.39 -0.584248 -5.77552 0
M  V30 3978 H 393.155 -2.19699 -2.03844 0
M  V30 3979 H 390.716 -1.281 -0.99005 0
M  V30 3980 H 392.708 -0.600039 -4.00227 0
M  V30 3981 H 391.278 0.00057392 -3.126 0
M  V30 3982 H 390.498 -2.48427 -3.06068 0
M  V30 3983 H 391.786 -2.82999 -4.22835 0
M  V30 3984 H 391.184 0.0123526 -5.65699 0
M  V30 3985 H 389.741 -0.37013 -6.50748 0
M  V30 3986 N 393.175 1.03435 -1.18907 0
M  V30 3987 C 394.403 1.80381 -1.01342 0
M  V30 3988 C 394.818 1.83649 0.438005 0
M  V30 3989 O 394.175 1.27655 1.30424 0
M  V30 3990 C 394.226 3.25689 -1.56873 0
M  V30 3991 O 393.947 3.22673 -2.96334 0
M  V30 3992 C 395.448 4.19255 -1.44014 0
M  V30 3993 H 392.668 0.56784 -0.35749 0
M  V30 3994 H 395.212 1.30317 -1.576 0
M  V30 3995 H 393.367 3.72962 -1.04777 0
M  V30 3996 H 393.781 4.13748 -3.22355 0
M  V30 3997 H 395.255 5.19123 -1.87657 0
M  V30 3998 H 395.732 4.37467 -0.389815 0
M  V30 3999 H 396.338 3.77851 -1.95214 0
M  V30 4000 N 394.653 0.992116 1.22453 0
M  V30 4001 C 395.583 0.561677 2.26644 0
M  V30 4002 C 396.564 -0.411055 1.65059 0
M  V30 4003 O 397.749 -0.301861 1.9184 0
M  V30 4004 C 394.879 -0.125247 3.47074 0
M  V30 4005 C 393.833 0.765948 4.21091 0
M  V30 4006 C 393.159 -0.0538484 5.34673 0
M  V30 4007 C 394.459 2.06242 4.79856 0
M  V30 4008 H 396.153 1.43259 2.62902 0
M  V30 4009 H 393.699 0.690283 1.26377 0
M  V30 4010 H 395.652 -0.437764 4.1912 0
M  V30 4011 H 394.376 -1.03069 3.0991 0
M  V30 4012 H 393.035 1.0621 3.50878 0
M  V30 4013 H 392.683 -0.960188 4.9375 0
M  V30 4014 H 392.383 0.539415 5.85119 0
M  V30 4015 H 393.907 -0.360477 6.09535 0
M  V30 4016 H 395.321 1.8139 5.43848 0
M  V30 4017 H 393.718 2.60444 5.40638 0
M  V30 4018 H 394.788 2.74167 3.99951 0
M  V30 4019 N 396.131 -1.37776 0.765217 0
M  V30 4020 C 397.408 -1.93975 0.251596 0
M  V30 4021 C 397.788 -1.69949 -1.25222 0
M  V30 4022 O 397.136 -1.04457 -2.03226 0
M  V30 4023 C 397.346 -3.43487 0.617895 0
M  V30 4024 C 398.694 -4.20564 0.584029 0
M  V30 4025 O 399.718 -3.5182 0.556888 0
M  V30 4026 O 398.577 -5.43138 0.605291 0
M  V30 4027 H 395.671 -0.82509 0.0561806 0
M  V30 4028 H 398.217 -1.47101 0.846128 0
M  V30 4029 H 396.989 -3.5453 1.65602 0
M  V30 4030 H 396.612 -3.976 -0.00403411 0
M  V30 4031 N 397.609 -0.515225 -1.4894 0
M  V30 4032 C 398.542 0.302518 -2.26186 0
M  V30 4033 C 399.52 0.957895 -1.31389 0
M  V30 4034 O 400.704 0.985198 -1.60705 0
M  V30 4035 C 397.831 1.42719 -3.07163 0
M  V30 4036 C 396.877 0.884736 -4.17223 0
M  V30 4037 S 397.71 -0.235767 -5.34981 0
M  V30 4038 C 398.866 0.891731 -6.19515 0
M  V30 4039 H 399.099 -0.353076 -2.95196 0
M  V30 4040 H 396.632 -0.300753 -1.51443 0
M  V30 4041 H 398.59 2.07152 -3.54398 0
M  V30 4042 H 397.251 2.05445 -2.37595 0
M  V30 4043 H 396.444 1.72801 -4.73451 0
M  V30 4044 H 396.046 0.317362 -3.72651 0
M  V30 4045 H 398.338 1.79377 -6.53322 0
M  V30 4046 H 399.281 0.367751 -7.07144 0
M  V30 4047 H 399.689 1.16548 -5.52338 0
M  V30 4048 N 399.087 1.5561 -0.249682 0
M  V30 4049 C 400.335 1.98618 0.373548 0
M  V30 4050 C 400.656 1.13919 1.58264 0
M  V30 4051 O 399.926 0.222637 1.94631 0
M  V30 4052 H 398.506 0.733571 0.141006 0
M  V30 4053 H 401.168 1.91748 -0.349117 0
M  V30 4054 H 400.264 3.04584 0.680796 0
M  V30 4055 N 400.565 -0.0233959 1.57583 0
M  V30 4056 C 401.981 -0.379134 1.55031 0
M  V30 4057 C 402.181 -1.76255 0.976548 0
M  V30 4058 O 401.237 -2.45266 0.600078 0
M  V30 4059 C 402.55 -0.275792 2.99433 0
M  V30 4060 C 404.098 -0.352458 3.11009 0
M  V30 4061 C 404.573 -0.278501 4.57152 0
M  V30 4062 N 406.064 -0.337123 4.61972 0
M  V30 4063 C 406.799 -0.302876 5.726 0
M  V30 4064 N 406.295 -0.220589 6.92449 0
M  V30 4065 N 408.088 -0.353023 5.6099 0
M  V30 4066 H 400.239 0.881869 1.93227 0
M  V30 4067 H 402.502 0.335867 0.886509 0
M  V30 4068 H 402.208 0.675108 3.4516 0
M  V30 4069 H 402.082 -1.06721 3.61788 0
M  V30 4070 H 404.469 -1.29379 2.65226 0
M  V30 4071 H 404.55 0.468409 2.51475 0
M  V30 4072 H 404.194 0.659189 5.03604 0
M  V30 4073 H 404.124 -1.11755 5.14605 0
M  V30 4074 H 406.615 -0.403002 3.75745 0
M  V30 4075 H 406.928 -0.199713 7.72542 0
M  V30 4076 H 405.273 -0.186555 6.9475 0
M  V30 4077 H 408.464 -0.415339 4.66254 0
M  V30 4078 H 408.637 -0.322866 6.47195 0
M  V30 4079 N 402.043 -1.548 -0.295768 0
M  V30 4080 C 403.292 -1.73538 -1.02798 0
M  V30 4081 C 403.605 -0.531159 -1.8825 0
M  V30 4082 O 404.811 -0.600458 -2.64777 0
M  V30 4083 C 403.267 -3.07051 -1.87744 0
M  V30 4084 C 402.875 -4.34968 -1.07269 0
M  V30 4085 C 404.619 -3.35146 -2.60533 0
M  V30 4086 C 402.526 -5.5953 -1.91521 0
M  V30 4087 H 401.456 -0.646794 -0.387522 0
M  V30 4088 H 404.107 -1.81278 -0.284718 0
M  V30 4089 H 402.489 -2.93289 -2.66078 0
M  V30 4090 H 403.663 -4.5958 -0.335117 0
M  V30 4091 H 401.978 -4.13847 -0.460384 0
M  V30 4092 H 404.575 -4.2541 -3.23929 0
M  V30 4093 H 404.918 -2.54255 -3.29636 0
M  V30 4094 H 405.451 -3.49902 -1.89244 0
M  V30 4095 H 402.19 -6.43103 -1.26878 0
M  V30 4096 H 401.71 -5.39096 -2.62937 0
M  V30 4097 H 403.389 -5.96982 -2.49442 0
M  V30 4098 N 403.521 0.559213 -1.47345 0
M  V30 4099 C 404.769 1.31388 -1.53563 0
M  V30 4100 C 405.09 1.93985 -0.198678 0
M  V30 4101 O 404.36 1.79825 0.777167 0
M  V30 4102 H 402.94 0.487901 -0.565652 0
M  V30 4103 H 405.602 0.65315 -1.8363 0
M  V30 4104 H 404.698 2.10844 -2.30111 0
M  V30 4105 N 404.999 1.35443 0.805782 0
M  V30 4106 C 406.248 1.28097 1.55801 0
M  V30 4107 C 406.561 -0.142428 1.95081 0
M  V30 4108 O 407.767 -0.33817 2.69386 0
M  V30 4109 C 406.223 2.24653 2.81174 0
M  V30 4110 C 405.831 3.72342 2.49129 0
M  V30 4111 C 407.575 2.2625 3.59181 0
M  V30 4112 C 405.482 4.60719 3.70799 0
M  V30 4113 H 404.412 0.475937 0.584808 0
M  V30 4114 H 407.063 1.60712 0.885661 0
M  V30 4115 H 405.445 1.85011 3.50124 0
M  V30 4116 H 406.619 4.20624 1.88181 0
M  V30 4117 H 404.934 3.73361 1.84366 0
M  V30 4118 H 407.531 2.89495 4.49552 0
M  V30 4119 H 407.874 1.26647 3.96568 0
M  V30 4120 H 408.407 2.64426 2.97193 0
M  V30 4121 H 405.146 5.61324 3.3852 0
M  V30 4122 H 404.666 4.17163 4.3097 0
M  V30 4123 H 406.345 4.76182 4.38018 0
M  V30 4124 N 406.477 -1.02803 1.19454 0
M  V30 4125 C 407.44 -2.09264 0.934955 0
M  V30 4126 C 408.44 -1.60576 -0.0849015 0
M  V30 4127 O 409.63 -1.73554 0.149933 0
M  V30 4128 C 406.762 -3.38482 0.40531 0
M  V30 4129 H 407.955 -2.33726 1.87916 0
M  V30 4130 H 405.508 -1.19426 1.00832 0
M  V30 4131 H 406.243 -3.19689 -0.544899 0
M  V30 4132 H 406.028 -3.75142 1.14065 0
M  V30 4133 H 407.518 -4.16894 0.242806 0
M  V30 4134 N 407.956 -0.998596 -1.21925 0
M  V30 4135 C 409.181 -0.696015 -1.95372 0
M  V30 4136 C 409.606 0.733826 -1.73195 0
M  V30 4137 O 408.964 1.50242 -1.01474 0
M  V30 4138 C 409.012 -1.01466 -3.4603 0
M  V30 4139 O 408.116 -0.116415 -4.12236 0
M  V30 4140 H 407.457 -0.259938 -0.611006 0
M  V30 4141 H 409.987 -1.33711 -1.54863 0
M  V30 4142 H 409.997 -0.958855 -3.96573 0
M  V30 4143 H 408.672 -2.05653 -3.61497 0
M  V30 4144 H 407.249 -0.228193 -3.72201 0
M  V30 4145 N 409.434 1.37368 -0.772513 0
M  V30 4146 C 410.366 2.28899 -0.117502 0
M  V30 4147 C 411.379 1.4867 0.663405 0
M  V30 4148 O 412.568 1.71314 0.501372 0
M  V30 4149 C 409.668 3.2788 0.857192 0
M  V30 4150 C 408.841 4.37207 0.129938 0
M  V30 4151 C 407.9 5.16257 1.01811 0
M  V30 4152 O 406.926 5.67159 0.481601 0
M  V30 4153 N 408.128 5.31058 2.3443 0
M  V30 4154 H 410.893 2.85752 -0.903662 0
M  V30 4155 H 408.454 1.49353 -0.62493 0
M  V30 4156 H 410.446 3.77647 1.45482 0
M  V30 4157 H 409.016 2.7179 1.54432 0
M  V30 4158 H 408.236 3.88827 -0.648605 0
M  V30 4159 H 409.524 5.07434 -0.372559 0
M  V30 4160 H 408.922 4.91287 2.80452 0
M  V30 4161 H 407.479 5.84131 2.89197 0
M  V30 4162 N 410.912 0.523116 1.48665 0
M  V30 4163 C 411.875 -0.232592 2.28017 0
M  V30 4164 C 412.875 -0.874021 1.34972 0
M  V30 4165 O 414.065 -0.735132 1.57929 0
M  V30 4166 C 411.197 -1.33586 3.13636 0
M  V30 4167 H 412.39 0.464008 2.96289 0
M  V30 4168 H 409.943 0.278816 1.53793 0
M  V30 4169 H 410.678 -2.06593 2.4998 0
M  V30 4170 H 410.463 -0.881125 3.82071 0
M  V30 4171 H 411.953 -1.86759 3.73511 0
M  V30 4172 N 412.39 -1.55475 0.257931 0
M  V30 4173 C 413.32 -2.24815 -0.630912 0
M  V30 4174 C 414.301 -1.23224 -1.17259 0
M  V30 4175 O 415.486 -1.51904 -1.20991 0
M  V30 4176 C 412.616 -2.95609 -1.82298 0
M  V30 4177 C 411.57 -4.03982 -1.41359 0
M  V30 4178 C 410.896 -4.6226 -2.68738 0
M  V30 4179 C 412.196 -5.19109 -0.57648 0
M  V30 4180 H 413.89 -2.99354 -0.0526878 0
M  V30 4181 H 411.436 -1.4398 -0.023901 0
M  V30 4182 H 413.389 -3.42822 -2.45054 0
M  V30 4183 H 412.113 -2.18577 -2.42676 0
M  V30 4184 H 410.772 -3.57555 -0.809324 0
M  V30 4185 H 410.42 -3.81915 -3.27338 0
M  V30 4186 H 410.12 -5.35424 -2.42065 0
M  V30 4187 H 411.644 -5.12212 -3.32372 0
M  V30 4188 H 413.058 -5.62479 -1.10861 0
M  V30 4189 H 411.455 -5.98729 -0.405351 0
M  V30 4190 H 412.525 -4.83174 0.408776 0
M  V30 4191 N 413.868 0.0150385 -1.57593 0
M  V30 4192 C 415.116 0.701613 -1.8953 0
M  V30 4193 C 415.437 1.75139 -0.857396 0
M  V30 4194 O 414.707 1.95607 0.107194 0
M  V30 4195 H 413.287 0.26213 -0.699498 0
M  V30 4196 H 415.949 -0.0223304 -1.94887 0
M  V30 4197 H 415.045 1.18236 -2.88837 0
M  V30 4198 N 415.346 1.54954 0.287554 0
M  V30 4199 C 416.595 1.74081 1.01877 0
M  V30 4200 C 416.908 0.541135 1.87966 0
M  V30 4201 O 418.114 0.614491 2.64455 0
M  V30 4202 C 416.57 3.08042 1.86113 0
M  V30 4203 C 416.178 4.35531 1.04961 0
M  V30 4204 C 417.922 3.36523 2.58752 0
M  V30 4205 C 415.829 5.60538 1.88551 0
M  V30 4206 H 414.759 0.64884 0.384087 0
M  V30 4207 H 417.41 1.81426 0.275101 0
M  V30 4208 H 415.792 2.94696 2.64519 0
M  V30 4209 H 416.966 4.59751 0.31074 0
M  V30 4210 H 415.281 4.14085 0.43843 0
M  V30 4211 H 417.878 4.27122 3.21668 0
M  V30 4212 H 418.221 2.56 3.28283 0
M  V30 4213 H 418.754 3.50901 1.87386 0
M  V30 4214 H 415.493 6.43767 1.23466 0
M  V30 4215 H 415.013 5.40483 2.60074 0
M  V30 4216 H 416.692 5.98297 2.46273 0
M  V30 4217 N 416.824 -0.551391 1.4764 0
M  V30 4218 C 417.787 -1.64007 1.60107 0
M  V30 4219 C 418.787 -1.53601 0.47576 0
M  V30 4220 O 419.977 -1.57655 0.740988 0
M  V30 4221 C 417.109 -3.03569 1.55108 0
M  V30 4222 H 418.302 -1.543 2.57161 0
M  V30 4223 H 415.855 -0.771776 1.35917 0
M  V30 4224 H 416.59 -3.18804 0.594519 0
M  V30 4225 H 416.375 -3.12532 2.36783 0
M  V30 4226 H 417.865 -3.82762 1.66982 0
M  V30 4227 N 418.302 -1.35869 -0.798587 0
M  V30 4228 C 419.234 -1.25305 -1.91915 0
M  V30 4229 C 420.247 -0.174548 -1.61862 0
M  V30 4230 O 421.436 -0.428499 -1.73281 0
M  V30 4231 C 418.536 -0.9086 -3.26493 0
M  V30 4232 C 417.709 -2.08711 -3.84394 0
M  V30 4233 C 416.768 -1.71717 -4.97393 0
M  V30 4234 O 415.794 -2.43692 -5.14396 0
M  V30 4235 N 416.996 -0.645473 -5.769 0
M  V30 4236 H 419.761 -2.21849 -2.01502 0
M  V30 4237 H 417.322 -1.29143 -0.976408 0
M  V30 4238 H 419.314 -0.642455 -3.99568 0
M  V30 4239 H 417.884 -0.0325815 -3.12583 0
M  V30 4240 H 417.104 -2.51659 -3.03416 0
M  V30 4241 H 418.392 -2.87468 -4.19809 0
M  V30 4242 H 417.79 -0.047648 -5.6568 0
M  V30 4243 H 416.347 -0.43913 -6.50319 0
M  V30 4244 N 419.78 1.02168 -1.19998 0
M  V30 4245 C 421.008 1.79296 -1.03249 0
M  V30 4246 C 421.423 1.84103 0.418502 0
M  V30 4247 O 420.78 1.29031 1.29063 0
M  V30 4248 C 420.831 3.24007 -1.60319 0
M  V30 4249 O 420.552 3.19512 -2.99739 0
M  V30 4250 C 422.053 4.17704 -1.48453 0
M  V30 4251 H 419.273 0.564016 -0.363493 0
M  V30 4252 H 421.817 1.28639 -1.58973 0
M  V30 4253 H 419.972 3.7183 -1.08727 0
M  V30 4254 H 420.386 4.10306 -3.26725 0
M  V30 4255 H 421.86 5.17104 -1.93153 0
M  V30 4256 H 422.337 4.37029 -0.436193 0
M  V30 4257 H 422.943 3.7576 -1.99211 0
M  V30 4258 N 421.258 1.00505 1.21394 0
M  V30 4259 C 422.221 0.570459 2.21987 0
M  V30 4260 C 423.221 -0.353211 1.56873 0
M  V30 4261 O 424.411 -0.14349 1.73608 0
M  V30 4262 C 421.543 -0.168555 3.40483 0
M  V30 4263 H 422.736 1.46021 2.6195 0
M  V30 4264 H 420.289 0.793565 1.34656 0
M  V30 4265 H 421.024 -1.07374 3.06009 0
M  V30 4266 H 420.809 0.494823 3.88965 0
M  V30 4267 H 422.299 -0.460362 4.15055 0
M  V30 4268 N 422.737 -1.36956 0.779787 0
M  V30 4269 C 423.667 -2.32761 0.185651 0
M  V30 4270 C 424.648 -1.56177 -0.673989 0
M  V30 4271 O 425.833 -1.84378 -0.609797 0
M  V30 4272 C 422.963 -3.40418 -0.687964 0
M  V30 4273 C 421.917 -4.27941 0.0710102 0
M  V30 4274 C 421.243 -5.26681 -0.922573 0
M  V30 4275 C 422.543 -5.07006 1.25467 0
M  V30 4276 H 424.237 -2.82698 0.986008 0
M  V30 4277 H 421.783 -1.3592 0.475592 0
M  V30 4278 H 423.736 -4.06423 -1.11348 0
M  V30 4279 H 422.46 -2.89025 -1.52093 0
M  V30 4280 H 421.119 -3.63478 0.47739 0
M  V30 4281 H 420.767 -4.71565 -1.7503 0
M  V30 4282 H 420.467 -5.86103 -0.419237 0
M  V30 4283 H 421.991 -5.9556 -1.34686 0
M  V30 4284 H 423.405 -5.66105 0.905401 0
M  V30 4285 H 421.802 -5.75793 1.69063 0
M  V30 4286 H 422.872 -4.3921 2.05481 0
M  V30 4287 N 424.215 -0.530993 -1.48385 0
M  V30 4288 C 425.492 0.0671788 -1.95485 0
M  V30 4289 C 425.872 1.51191 -1.47324 0
M  V30 4290 O 425.22 2.17507 -0.700202 0
M  V30 4291 C 425.43 -0.0511206 -3.48963 0
M  V30 4292 C 426.778 0.107632 -4.24464 0
M  V30 4293 O 427.802 0.0226248 -3.56193 0
M  V30 4294 O 426.661 0.285972 -5.45751 0
M  V30 4295 H 423.755 0.0787365 -0.823243 0
M  V30 4296 H 426.301 -0.595662 -1.58902 0
M  V30 4297 H 425.073 -1.05747 -3.7674 0
M  V30 4298 H 424.696 0.650525 -3.92242 0
M  V30 4299 N 425.693 1.55336 -0.266172 0
M  V30 4300 C 426.933 2.01303 0.354459 0
M  V30 4301 C 427.297 1.15046 1.53715 0
M  V30 4302 O 428.498 1.50554 2.22681 0
M  V30 4303 C 426.769 3.49748 0.735579 0
M  V30 4304 S 428.328 4.1771 1.34401 0
M  V30 4305 H 425.146 0.702333 0.110674 0
M  V30 4306 H 427.748 1.91653 -0.385916 0
M  V30 4307 H 426.452 4.10181 -0.134196 0
M  V30 4308 H 425.983 3.63364 1.50764 0
M  V30 4309 H 427.998 4.20594 2.63278 0
M  V30 4310 N 427.171 -0.0066808 1.57599 0
M  V30 4311 C 428.134 -0.985035 2.06953 0
M  V30 4312 C 429.134 -1.27663 0.977687 0
M  V30 4313 O 430.324 -1.22293 1.24057 0
M  V30 4314 C 427.456 -2.3118 2.50536 0
M  V30 4315 H 428.649 -0.558255 2.94658 0
M  V30 4316 H 426.202 -0.254011 1.54222 0
M  V30 4317 H 426.937 -2.78561 1.66054 0
M  V30 4318 H 426.722 -2.11338 3.3027 0
M  V30 4319 H 428.212 -3.01377 2.8907 0
M  V30 4320 N 428.649 -1.55105 -0.279332 0
M  V30 4321 C 429.895 -1.75672 -1.01327 0
M  V30 4322 C 430.228 -0.552739 -1.86168 0
M  V30 4323 O 429.503 0.449827 -1.89227 0
M  V30 4324 C 429.786 -3.05825 -1.90114 0
M  V30 4325 C 429.639 -4.36565 -1.08309 0
M  V30 4326 C 430.958 -3.31975 -2.8893 0
M  V30 4327 H 428.077 -0.639149 -0.366957 0
M  V30 4328 H 430.719 -1.87833 -0.286154 0
M  V30 4329 H 428.869 -2.95588 -2.52111 0
M  V30 4330 H 430.541 -4.58751 -0.484314 0
M  V30 4331 H 428.784 -4.32076 -0.386362 0
M  V30 4332 H 429.455 -5.23946 -1.73737 0
M  V30 4333 H 431.931 -3.41963 -2.37067 0
M  V30 4334 H 430.807 -4.2432 -3.48201 0
M  V30 4335 H 431.068 -2.51309 -3.63725 0
M  V30 4336 N 430.127 0.543554 -1.4793 0
M  V30 4337 C 431.075 1.67039 -1.61866 0
M  V30 4338 C 432.069 1.62294 -0.48549 0
M  V30 4339 O 433.275 1.67315 -0.66376 0
M  V30 4340 H 429.65 0.552954 -0.509652 0
M  V30 4341 H 431.621 1.52426 -2.56533 0
M  V30 4342 C 430.37 3.05357 -1.6629 0
M  V30 4343 H 429.693 3.09696 -2.5284 0
M  V30 4344 H 431.133 3.83855 -1.80088 0
M  V30 4345 C 429.592 3.34531 -0.398861 0
M  V30 4346 O 430.122 3.98649 0.494162 0
M  V30 4347 N 428.328 2.89299 -0.2747 0
M  V30 4348 H 427.875 2.37298 -1.00236 0
M  V30 4349 H 427.833 3.09188 0.570075 0
M  V30 4350 N 431.605 1.3629 0.791371 0
M  V30 4351 C 432.835 1.33368 1.57786 0
M  V30 4352 C 433.243 -0.0875188 1.88997 0
M  V30 4353 O 432.586 -1.05427 1.50435 0
M  V30 4354 C 432.648 2.08802 2.92646 0
M  V30 4355 C 432.312 3.57903 2.84174 0
M  V30 4356 C 433.309 4.52191 2.56553 0
M  V30 4357 C 430.994 4.00762 3.02812 0
M  V30 4358 C 432.988 5.87315 2.47669 0
M  V30 4359 C 430.675 5.35977 2.93551 0
M  V30 4360 C 431.673 6.29066 2.66017 0
M  V30 4361 O 431.361 7.61798 2.56746 0
M  V30 4362 H 431.093 0.459166 0.496128 0
M  V30 4363 H 433.647 1.79952 0.990269 0
M  V30 4364 H 431.877 1.56878 3.53449 0
M  V30 4365 H 433.566 1.98762 3.53904 0
M  V30 4366 H 434.332 4.20393 2.41858 0
M  V30 4367 H 430.211 3.2868 3.2325 0
M  V30 4368 H 433.755 6.59943 2.26099 0
M  V30 4369 H 429.652 5.67384 3.07808 0
M  V30 4370 H 430.42 7.71898 2.72242 0
M  V30 4371 N 433.083 -1.0153 1.20538 0
M  V30 4372 C 434.046 -2.0826 0.957098 0
M  V30 4373 C 435.046 -1.60657 -0.0678655 0
M  V30 4374 O 436.236 -1.73385 0.168332 0
M  V30 4375 C 433.368 -3.38033 0.441188 0
M  V30 4376 H 434.561 -2.31719 1.90384 0
M  V30 4377 H 432.114 -1.1835 1.02093 0
M  V30 4378 H 432.849 -3.20249 -0.510961 0
M  V30 4379 H 432.634 -3.73911 1.18038 0
M  V30 4380 H 434.124 -4.16613 0.287009 0
M  V30 4381 N 434.561 -1.01147 -1.20859 0
M  V30 4382 C 435.471 -0.58686 -2.27141 0
M  V30 4383 C 436.487 0.373198 -1.69951 0
M  V30 4384 O 437.663 0.235423 -2.00019 0
M  V30 4385 C 434.728 0.0733602 -3.46622 0
M  V30 4386 C 433.789 -0.931995 -4.19061 0
M  V30 4387 C 433.022 -0.303186 -5.32838 0
M  V30 4388 O 433.245 0.898395 -5.63281 0
M  V30 4389 O 432.179 -1.01735 -5.9324 0
M  V30 4390 H 436.005 -1.47155 -2.65667 0
M  V30 4391 H 433.59 -0.780689 -1.2738 0
M  V30 4392 H 435.472 0.442333 -4.19072 0
M  V30 4393 H 434.147 0.932329 -3.09983 0
M  V30 4394 H 433.054 -1.35224 -3.48805 0
M  V30 4395 H 434.387 -1.76076 -4.59628 0
M  V30 4396 N 436.039 1.36541 -0.78704 0
M  V30 4397 C 436.987 2.31965 -0.171724 0
M  V30 4398 C 437.981 1.55689 0.667631 0
M  V30 4399 O 439.187 1.70969 0.562981 0
M  V30 4400 H 435.562 0.751101 -0.0367545 0
M  V30 4401 H 437.533 2.81428 -0.992017 0
M  V30 4402 C 436.282 3.40968 0.680904 0
M  V30 4403 H 435.605 3.99775 0.0443961 0
M  V30 4404 H 437.045 4.10063 1.07815 0
M  V30 4405 C 435.504 2.82338 1.83813 0
M  V30 4406 O 436.034 2.74311 2.93456 0
M  V30 4407 N 434.24 2.39661 1.6435 0
M  V30 4408 H 433.787 2.46389 0.751668 0
M  V30 4409 H 433.745 2.00779 2.4194 0
M  V30 4410 N 437.518 0.538854 1.48102 0
M  V30 4411 C 438.934 0.19732 1.58376 0
M  V30 4412 C 439.134 -1.29971 1.5398 0
M  V30 4413 O 438.19 -2.07861 1.43352 0
M  V30 4414 C 439.503 0.807716 2.89649 0
M  V30 4415 C 441.051 0.77726 3.03196 0
M  V30 4416 C 441.526 1.36639 4.37143 0
M  V30 4417 N 443.017 1.32875 4.43732 0
M  V30 4418 C 443.752 1.7544 5.45901 0
M  V30 4419 N 443.248 2.25776 6.54979 0
M  V30 4420 N 445.041 1.66623 5.36836 0
M  V30 4421 H 437.192 1.5117 1.49202 0
M  V30 4422 H 439.455 0.629327 0.708979 0
M  V30 4423 H 439.161 1.85909 2.98548 0
M  V30 4424 H 439.035 0.289975 3.76084 0
M  V30 4425 H 441.422 -0.265374 2.93904 0
M  V30 4426 H 441.503 1.33256 2.18349 0
M  V30 4427 H 441.147 2.408 4.47189 0
M  V30 4428 H 441.077 0.786689 5.20691 0
M  V30 4429 H 443.568 0.96037 3.65493 0
M  V30 4430 H 443.881 2.56226 7.29087 0
M  V30 4431 H 442.226 2.29775 6.55918 0
M  V30 4432 H 445.417 1.27089 4.50517 0
M  V30 4433 H 445.59 2.00115 6.16326 0
M  V30 4434 N 438.996 -1.55193 0.274407 0
M  V30 4435 C 439.929 -2.18606 -0.654712 0
M  V30 4436 C 440.907 -1.14677 -1.15273 0
M  V30 4437 O 442.091 -1.43198 -1.22583 0
M  V30 4438 C 439.218 -2.80875 -1.89281 0
M  V30 4439 C 438.264 -3.981 -1.53032 0
M  V30 4440 S 439.097 -5.32025 -0.609107 0
M  V30 4441 C 440.253 -5.97761 -1.85559 0
M  V30 4442 H 440.486 -2.97074 -0.115894 0
M  V30 4443 H 438.019 -1.54288 0.05867 0
M  V30 4444 H 439.977 -3.17381 -2.60345 0
M  V30 4445 H 438.638 -2.02302 -2.40277 0
M  V30 4446 H 437.831 -4.40356 -2.45158 0
M  V30 4447 H 437.433 -3.63013 -0.899874 0
M  V30 4448 H 439.725 -6.16951 -2.7996 0
M  V30 4449 H 440.668 -6.92545 -1.47605 0
M  V30 4450 H 441.076 -5.27113 -2.02021 0
M  V30 4451 N 440.474 -0.00167713 -1.576 0
M  V30 4452 C 441.437 0.974046 -2.07473 0
M  V30 4453 C 442.437 1.27143 -0.984444 0
M  V30 4454 O 443.627 1.21633 -1.24703 0
M  V30 4455 C 440.759 2.29849 -2.51759 0
M  V30 4456 H 441.952 0.54262 -2.9495 0
M  V30 4457 H 439.505 0.245829 -1.54355 0
M  V30 4458 H 440.24 2.77677 -1.67529 0
M  V30 4459 H 440.025 2.09584 -3.31386 0
M  V30 4460 H 441.515 2.9984 -2.90664 0
M  V30 4461 N 441.952 1.55251 0.271103 0
M  V30 4462 C 443.199 1.75946 1.00245 0
M  V30 4463 C 443.527 0.561611 1.86215 0
M  V30 4464 O 442.782 -0.455832 1.90317 0
M  V30 4465 C 443.081 3.01879 1.91321 0
M  V30 4466 C 442.747 4.34337 1.21086 0
M  V30 4467 C 441.409 4.70338 1.01666 0
M  V30 4468 C 443.761 5.16325 0.71119 0
M  V30 4469 C 441.089 5.8588 0.310099 0
M  V30 4470 C 443.441 6.32597 0.0182157 0
M  V30 4471 C 442.105 6.67236 -0.18768 0
M  V30 4472 H 441.375 0.643833 0.366824 0
M  V30 4473 H 444.022 1.89521 0.27458 0
M  V30 4474 H 442.327 2.83212 2.70736 0
M  V30 4475 H 444.024 3.15088 2.48033 0
M  V30 4476 H 440.614 4.06043 1.37213 0
M  V30 4477 H 444.798 4.88987 0.848844 0
M  V30 4478 H 440.054 6.1124 0.139873 0
M  V30 4479 H 444.228 6.9538 -0.376711 0
M  V30 4480 H 441.855 7.56618 -0.73715 0
M  V30 4481 N 443.43 -0.535701 1.48216 0
M  V30 4482 C 444.678 -1.28928 1.55634 0
M  V30 4483 C 444.999 -1.93645 0.229514 0
M  V30 4484 O 444.269 -1.81038 -0.74846 0
M  V30 4485 H 442.849 -0.47884 0.573342 0
M  V30 4486 H 445.511 -0.623853 1.84646 0
M  V30 4487 H 444.607 -2.07157 2.33436 0
M  V30 4488 N 444.908 -1.36708 -0.784132 0
M  V30 4489 C 445.871 -1.31307 -1.87859 0
M  V30 4490 C 446.871 -0.219654 -1.59293 0
M  V30 4491 O 448.061 -0.47476 -1.67606 0
M  V30 4492 C 445.193 -1.03679 -3.24751 0
M  V30 4493 H 446.386 -2.28647 -1.94064 0
M  V30 4494 H 443.939 -1.21558 -0.98252 0
M  V30 4495 H 444.674 -0.0681936 -3.24228 0
M  V30 4496 H 444.459 -1.82811 -3.46876 0
M  V30 4497 H 445.949 -1.02518 -4.04821 0
M  V30 4498 N 446.386 1.0089 -1.21074 0
M  V30 4499 C 447.797 1.56056 -1.02486 0
M  V30 4500 C 448.148 1.91728 0.416506 0
M  V30 4501 O 447.273 1.73066 1.29912 0
M  V30 4502 C 447.868 2.83563 -1.85411 0
M  V30 4503 C 446.427 3.3523 -1.71166 0
M  V30 4504 C 445.574 2.0846 -1.82865 0
M  V30 4505 H 448.525 0.831818 -1.35154 0
M  V30 4506 H 448.546 3.55286 -1.36205 0
M  V30 4507 H 448.058 2.57569 -2.9031 0
M  V30 4508 H 446.159 3.66167 -0.689361 0
M  V30 4509 H 446.272 4.06913 -2.52901 0
M  V30 4510 H 444.636 2.21275 -1.26132 0
M  V30 4511 H 445.419 1.84883 -2.89263 0
M  V30 4512 N 447.864 1.01787 1.20321 0
M  V30 4513 C 448.794 0.609625 2.25401 0
M  V30 4514 C 449.775 -0.375951 1.65893 0
M  V30 4515 O 450.96 -0.261101 1.92437 0
M  V30 4516 C 448.09 -0.0515995 3.47262 0
M  V30 4517 C 447.044 0.855095 4.19371 0
M  V30 4518 C 446.37 0.0595757 5.34667 0
M  V30 4519 C 447.67 2.16374 4.75373 0
M  V30 4520 H 449.364 1.48803 2.59804 0
M  V30 4521 H 446.91 0.716934 1.24884 0
M  V30 4522 H 448.863 -0.348764 4.19954 0
M  V30 4523 H 447.587 -0.964726 3.12027 0
M  V30 4524 H 446.246 1.13628 3.48546 0
M  V30 4525 H 445.894 -0.85524 4.95676 0
M  V30 4526 H 445.594 0.663406 5.83843 0
M  V30 4527 H 447.118 -0.231105 6.10162 0
M  V30 4528 H 448.532 1.92885 5.39878 0
M  V30 4529 H 446.929 2.71853 5.34991 0
M  V30 4530 H 447.999 2.82589 3.94045 0
M  V30 4531 N 449.342 -1.36122 0.79427 0
M  V30 4532 C 450.57 -2.03362 0.380989 0
M  V30 4533 C 450.985 -1.59881 -1.00416 0
M  V30 4534 O 450.342 -0.790515 -1.6449 0
M  V30 4535 C 450.393 -3.58804 0.440649 0
M  V30 4536 O 450.114 -4.007 1.77118 0
M  V30 4537 C 451.615 -4.43296 0.0186117 0
M  V30 4538 H 448.835 -0.652526 0.156367 0
M  V30 4539 H 451.379 -1.73998 1.07447 0
M  V30 4540 H 449.534 -3.8686 -0.204458 0
M  V30 4541 H 449.948 -4.95309 1.72538 0
M  V30 4542 H 451.422 -5.51887 0.111488 0
M  V30 4543 H 451.899 -4.2684 -1.03461 0
M  V30 4544 H 452.505 -4.20512 0.636395 0
M  V30 4545 N 450.82 -0.546701 -1.47814 0
M  V30 4546 C 451.767 0.206854 -2.29871 0
M  V30 4547 C 452.737 0.918235 -1.38411 0
M  V30 4548 O 453.922 0.915991 -1.67375 0
M  V30 4549 C 451.062 1.23746 -3.22151 0
M  V30 4550 C 450.175 0.533216 -4.28697 0
M  V30 4551 C 449.31 1.5482 -5.08138 0
M  V30 4552 C 448.349 0.828347 -6.06469 0
M  V30 4553 N 447.486 1.78966 -6.78908 0
M  V30 4554 H 452.326 -0.499037 -2.93792 0
M  V30 4555 H 449.863 -0.25793 -1.44821 0
M  V30 4556 H 451.821 1.84746 -3.74065 0
M  V30 4557 H 450.451 1.91151 -2.60117 0
M  V30 4558 H 449.503 -0.191089 -3.7992 0
M  V30 4559 H 450.815 -0.0311987 -4.9879 0
M  V30 4560 H 449.969 2.23202 -5.6415 0
M  V30 4561 H 448.708 2.14652 -4.37922 0
M  V30 4562 H 447.713 0.130539 -5.49645 0
M  V30 4563 H 448.938 0.235907 -6.7869 0
M  V30 4564 H 446.884 2.37675 -6.1143 0
M  V30 4565 H 446.801 1.27712 -7.45135 0
M  V30 4566 H 448.069 2.46496 -7.395 0
M  V30 4567 N 452.299 1.55045 -0.282633 0
M  V30 4568 C 453.229 2.2579 0.595066 0
M  V30 4569 C 454.21 1.25074 1.15284 0
M  V30 4570 O 455.395 1.5381 1.18559 0
M  V30 4571 C 452.525 2.98472 1.77572 0
M  V30 4572 C 451.479 4.0618 1.34914 0
M  V30 4573 C 450.805 4.66477 2.6135 0
M  V30 4574 C 452.105 5.1996 0.493821 0
M  V30 4575 H 453.799 2.994 0.00505653 0
M  V30 4576 H 451.345 1.44 0.000992001 0
M  V30 4577 H 453.298 3.46677 2.39568 0
M  V30 4578 H 452.022 2.2241 2.39168 0
M  V30 4579 H 450.681 3.58797 0.752338 0
M  V30 4580 H 450.329 3.87074 3.2122 0
M  V30 4581 H 450.029 5.39207 2.33516 0
M  V30 4582 H 451.553 5.17435 3.24181 0
M  V30 4583 H 452.967 5.64172 1.01898 0
M  V30 4584 H 451.364 5.99299 0.310047 0
M  V30 4585 H 452.434 4.82462 -0.485593 0
M  V30 4586 N 453.777 0.010035 1.57597 0
M  V30 4587 C 454.709 -1.00649 2.05918 0
M  V30 4588 C 455.722 -1.30077 0.978964 0
M  V30 4589 O 456.911 -1.26878 1.25556 0
M  V30 4590 C 454.011 -2.33876 2.45265 0
M  V30 4591 C 453.184 -2.23242 3.7614 0
M  V30 4592 C 452.243 -3.39242 4.02245 0
M  V30 4593 O 451.269 -3.1698 4.72771 0
M  V30 4594 N 452.471 -4.6242 3.50924 0
M  V30 4595 H 455.236 -0.594333 2.93748 0
M  V30 4596 H 452.797 -0.17714 1.60928 0
M  V30 4597 H 454.789 -3.1027 2.59836 0
M  V30 4598 H 453.359 -2.66799 1.62902 0
M  V30 4599 H 452.579 -1.31696 3.71551 0
M  V30 4600 H 453.867 -2.13321 4.61922 0
M  V30 4601 H 453.265 -4.83404 2.93832 0
M  V30 4602 H 451.822 -5.36046 3.70807 0
M  V30 4603 N 455.255 -1.55392 -0.262866 0
M  V30 4604 C 456.501 -1.76737 -0.99458 0
M  V30 4605 C 456.834 -0.572453 -1.85571 0
M  V30 4606 O 456.109 0.429732 -1.89693 0
M  V30 4607 C 456.392 -3.07824 -1.8686 0
M  V30 4608 C 456.245 -4.3769 -1.03672 0
M  V30 4609 C 457.564 -3.35021 -2.85393 0
M  V30 4610 H 454.683 -0.643005 -0.360157 0
M  V30 4611 H 457.325 -1.88126 -0.266216 0
M  V30 4612 H 455.475 -2.98245 -2.48962 0
M  V30 4613 H 457.147 -4.59238 -0.43563 0
M  V30 4614 H 455.39 -4.32461 -0.340513 0
M  V30 4615 H 456.061 -5.25759 -1.6817 0
M  V30 4616 H 458.537 -3.44458 -2.33426 0
M  V30 4617 H 457.413 -4.27989 -3.43681 0
M  V30 4618 H 457.674 -2.55153 -3.61039 0
M  V30 4619 N 456.733 0.527833 -1.48498 0
M  V30 4620 C 457.982 1.28003 -1.55878 0
M  V30 4621 C 458.295 1.9414 -0.238577 0
M  V30 4622 O 459.501 2.7083 -0.190643 0
M  V30 4623 C 457.957 2.32272 -2.74914 0
M  V30 4624 C 457.565 1.72196 -4.13585 0
M  V30 4625 C 459.309 3.08488 -2.91608 0
M  V30 4626 C 457.216 2.74417 -5.23879 0
M  V30 4627 H 456.146 0.481413 -0.580308 0
M  V30 4628 H 458.797 0.557195 -1.74836 0
M  V30 4629 H 457.179 3.07601 -2.49395 0
M  V30 4630 H 458.353 1.03041 -4.49132 0
M  V30 4631 H 456.668 1.08464 -4.02025 0
M  V30 4632 H 459.265 3.84879 -3.71177 0
M  V30 4633 H 459.608 3.64481 -2.01145 0
M  V30 4634 H 460.141 2.40274 -3.17038 0
M  V30 4635 H 456.88 2.23242 -6.16314 0
M  V30 4636 H 456.4 3.41893 -4.92818 0
M  V30 4637 H 458.079 3.37362 -5.52083 0
M  V30 4638 N 458.211 1.37122 0.776871 0
M  V30 4639 C 459.143 1.28342 1.89897 0
M  V30 4640 C 460.156 0.200277 1.61563 0
M  V30 4641 O 461.345 0.456012 1.72577 0
M  V30 4642 C 458.445 0.960427 3.25006 0
M  V30 4643 C 457.618 2.148 3.81025 0
M  V30 4644 C 456.677 1.79608 4.94598 0
M  V30 4645 O 455.703 2.51845 5.10454 0
M  V30 4646 N 456.905 0.737171 5.758 0
M  V30 4647 H 459.67 2.25027 1.97947 0
M  V30 4648 H 457.231 1.3068 0.955739 0
M  V30 4649 H 459.223 0.705942 3.98495 0
M  V30 4650 H 457.793 0.0823066 3.12492 0
M  V30 4651 H 457.013 2.56454 2.99374 0
M  V30 4652 H 458.301 2.9411 4.15183 0
M  V30 4653 H 457.699 0.137637 5.65533 0
M  V30 4654 H 456.256 0.542534 6.49538 0
M  V30 4655 N 459.689 -1.00246 1.21608 0
M  V30 4656 C 460.936 -1.74061 1.03485 0
M  V30 4657 C 461.264 -1.89658 -0.431308 0
M  V30 4658 O 460.519 -1.42976 -1.33627 0
M  V30 4659 C 460.818 -3.15448 1.68009 0
M  V30 4660 C 460.484 -3.19792 3.17874 0
M  V30 4661 C 459.146 -3.20685 3.58768 0
M  V30 4662 C 461.498 -3.16835 4.13842 0
M  V30 4663 C 458.826 -3.16309 4.94131 0
M  V30 4664 C 461.178 -3.14001 5.49169 0
M  V30 4665 C 459.842 -3.13204 5.89457 0
M  V30 4666 H 459.112 -0.636934 0.378677 0
M  V30 4667 H 461.759 -1.17473 1.51236 0
M  V30 4668 H 460.064 -3.75284 1.12557 0
M  V30 4669 H 461.761 -3.71285 1.51487 0
M  V30 4670 H 458.351 -3.19842 2.85305 0
M  V30 4671 H 462.535 -3.15303 3.83272 0
M  V30 4672 H 457.791 -3.14032 5.24589 0
M  V30 4673 H 461.965 -3.10667 6.23265 0
M  V30 4674 H 459.592 -3.09568 6.94314 0
M  V30 4675 N 461.167 -1.02423 -1.1978 0
M  V30 4676 C 462.114 -0.601023 -2.22837 0
M  V30 4677 C 463.084 0.382801 -1.61629 0
M  V30 4678 O 464.269 0.280514 -1.88727 0
M  V30 4679 C 461.409 0.0467755 -3.45068 0
M  V30 4680 C 460.522 -0.98253 -4.20678 0
M  V30 4681 C 459.657 -0.304982 -5.30324 0
M  V30 4682 C 458.696 -1.32052 -5.97686 0
M  V30 4683 N 457.833 -0.669105 -6.98904 0
M  V30 4684 H 462.673 -1.48444 -2.58396 0
M  V30 4685 H 460.21 -0.742936 -1.2696 0
M  V30 4686 H 462.168 0.439556 -4.14878 0
M  V30 4687 H 460.798 0.893796 -3.10179 0
M  V30 4688 H 459.85 -1.49341 -3.49859 0
M  V30 4689 H 461.162 -1.75455 -4.66923 0
M  V30 4690 H 460.316 0.142893 -6.06532 0
M  V30 4691 H 459.055 0.499283 -4.85138 0
M  V30 4692 H 458.06 -1.7787 -5.20233 0
M  V30 4693 H 459.285 -2.1262 -6.44957 0
M  V30 4694 H 457.231 0.115152 -6.55899 0
M  V30 4695 H 457.148 -1.37908 -7.43315 0
M  V30 4696 H 458.416 -0.245076 -7.79115 0
M  V30 4697 N 462.645 1.35699 -0.801477 0
M  V30 4698 C 463.575 2.32436 -0.222658 0
M  V30 4699 C 464.556 1.5723 0.649057 0
M  V30 4700 O 465.741 1.85324 0.580387 0
M  V30 4701 C 462.871 3.41469 0.633719 0
M  V30 4702 C 461.825 4.27774 -0.139083 0
M  V30 4703 C 461.151 5.28082 0.838666 0
M  V30 4704 C 462.451 5.04946 -1.33517 0
M  V30 4705 H 464.145 2.81094 -1.03086 0
M  V30 4706 H 461.691 1.35146 -0.497155 0
M  V30 4707 H 463.644 4.08143 1.04868 0
M  V30 4708 H 462.368 2.91408 1.47475 0
M  V30 4709 H 461.027 3.62673 -0.535156 0
M  V30 4710 H 460.675 4.7429 1.67506 0
M  V30 4711 H 460.375 5.86695 0.32594 0
M  V30 4712 H 461.899 5.97628 1.25194 0
M  V30 4713 H 463.313 5.64593 -0.995349 0
M  V30 4714 H 461.71 5.7303 -1.78202 0
M  V30 4715 H 462.78 4.35886 -2.12442 0
M  V30 4716 N 464.123 0.554532 1.47522 0
M  V30 4717 C 465.086 -0.184174 2.28459 0
M  V30 4718 C 466.086 -0.845195 1.36796 0
M  V30 4719 O 467.276 -0.701467 1.59452 0
M  V30 4720 C 464.408 -1.26903 3.16399 0
M  V30 4721 H 465.601 0.526751 2.95238 0
M  V30 4722 H 463.154 0.311375 1.53167 0
M  V30 4723 H 463.889 -2.01244 2.54306 0
M  V30 4724 H 463.674 -0.799883 3.83854 0
M  V30 4725 H 465.164 -1.78794 3.77389 0
M  V30 4726 N 465.601 -1.54893 0.290851 0
M  V30 4727 C 466.878 -1.91991 -0.373989 0
M  V30 4728 C 467.258 -1.21694 -1.72493 0
M  V30 4729 O 466.606 -0.34917 -2.25816 0
M  V30 4730 C 466.816 -3.45419 -0.498703 0
M  V30 4731 C 468.164 -4.1748 -0.774298 0
M  V30 4732 O 469.188 -3.51398 -0.582908 0
M  V30 4733 O 468.047 -5.3445 -1.14129 0
M  V30 4734 H 465.141 -0.800593 -0.207315 0
M  V30 4735 H 467.687 -1.66297 0.338164 0
M  V30 4736 H 466.459 -3.88688 0.451392 0
M  V30 4737 H 466.082 -3.77117 -1.25972 0
M  V30 4738 N 467.08 -0.0183926 -1.57589 0
M  V30 4739 C 468.013 1.00148 -2.0505 0
M  V30 4740 C 468.991 1.32387 -0.944058 0
M  V30 4741 O 470.175 1.44237 -1.21358 0
M  V30 4742 C 467.302 2.32435 -2.46357 0
M  V30 4743 C 466.348 2.15731 -3.67916 0
M  V30 4744 S 467.181 1.46613 -5.15039 0
M  V30 4745 C 468.337 2.80293 -5.59631 0
M  V30 4746 H 468.57 0.597429 -2.91235 0
M  V30 4747 H 466.103 0.193002 -1.53189 0
M  V30 4748 H 468.061 3.0849 -2.70822 0
M  V30 4749 H 466.722 2.69975 -1.60537 0
M  V30 4750 H 465.915 3.13502 -3.9463 0
M  V30 4751 H 465.517 1.4782 -3.43548 0
M  V30 4752 H 467.809 3.76557 -5.63215 0
M  V30 4753 H 468.752 2.58256 -6.59325 0
M  V30 4754 H 469.16 2.85047 -4.87246 0
M  V30 4755 N 468.558 1.5553 0.254621 0
M  V30 4756 C 469.521 1.88872 1.29846 0
M  V30 4757 C 470.521 0.764591 1.41459 0
M  V30 4758 O 471.711 1.03265 1.40293 0
M  V30 4759 C 468.843 2.11032 2.67728 0
M  V30 4760 H 470.036 2.82201 1.01502 0
M  V30 4761 H 467.589 1.48303 0.493556 0
M  V30 4762 H 468.324 1.20146 3.01223 0
M  V30 4763 H 468.109 2.92895 2.60682 0
M  V30 4764 H 469.599 2.38038 3.43115 0
M  V30 4765 N 470.036 -0.519951 1.48776 0
M  V30 4766 C 470.966 -1.63253 1.66945 0
M  V30 4767 C 471.947 -1.62014 0.518224 0
M  V30 4768 O 473.132 -1.79053 0.751919 0
M  V30 4769 C 470.262 -3.0181 1.71836 0
M  V30 4770 C 469.216 -3.17911 2.8656 0
M  V30 4771 C 468.542 -4.5763 2.76548 0
M  V30 4772 C 469.842 -2.99729 4.27738 0
M  V30 4773 H 471.536 -1.48302 2.6009 0
M  V30 4774 H 469.082 -0.712026 1.25165 0
M  V30 4775 H 471.035 -3.79525 1.83135 0
M  V30 4776 H 469.759 -3.17806 0.752775 0
M  V30 4777 H 468.418 -2.42616 2.74833 0
M  V30 4778 H 468.066 -4.70476 1.77937 0
M  V30 4779 H 467.766 -4.69346 3.53536 0
M  V30 4780 H 469.29 -5.37431 2.89828 0
M  V30 4781 H 470.704 -3.67228 4.40246 0
M  V30 4782 H 469.101 -3.22932 5.05801 0
M  V30 4783 H 470.171 -1.96047 4.43502 0
M  V30 4784 N 471.514 -1.37532 -0.769588 0
M  V30 4785 C 472.477 -1.33292 -1.86456 0
M  V30 4786 C 473.477 -0.236537 -1.59051 0
M  V30 4787 O 474.667 -0.492511 -1.67093 0
M  V30 4788 C 471.799 -1.07118 -3.23633 0
M  V30 4789 H 472.992 -2.30692 -1.91628 0
M  V30 4790 H 470.545 -1.22593 -0.969572 0
M  V30 4791 H 471.28 -0.102578 -3.24138 0
M  V30 4792 H 471.065 -1.86479 -3.44917 0
M  V30 4793 H 472.555 -1.06806 -4.03711 0
M  V30 4794 N 472.992 0.995999 -1.22138 0
M  V30 4795 C 473.922 2.10387 -1.01289 0
M  V30 4796 C 474.903 1.69975 0.0651454 0
M  V30 4797 O 476.088 1.9396 -0.0964628 0
M  V30 4798 C 473.218 3.42312 -0.586517 0
M  V30 4799 C 472.172 3.96558 -1.61014 0
M  V30 4800 C 471.498 5.24494 -1.0397 0
M  V30 4801 C 472.798 4.27595 -2.99933 0
M  V30 4802 H 474.492 2.28086 -1.93951 0
M  V30 4803 H 472.038 1.09607 -0.933928 0
M  V30 4804 H 473.991 4.19223 -0.427793 0
M  V30 4805 H 472.715 3.24431 0.375761 0
M  V30 4806 H 471.374 3.21776 -1.75658 0
M  V30 4807 H 471.022 5.02953 -0.0688703 0
M  V30 4808 H 470.722 5.61755 -1.72352 0
M  V30 4809 H 472.246 6.04042 -0.892494 0
M  V30 4810 H 473.66 4.95315 -2.8868 0
M  V30 4811 H 472.057 4.76021 -3.6541 0
M  V30 4812 H 473.127 3.35498 -3.50099 0
M  V30 4813 N 474.47 1.03057 1.19235 0
M  V30 4814 C 475.38 0.622922 2.26179 0
M  V30 4815 C 476.396 -0.346113 1.70523 0
M  V30 4816 O 477.572 -0.203572 2.00369 0
M  V30 4817 C 474.637 -0.0182063 3.46695 0
M  V30 4818 C 473.698 0.998546 4.17526 0
M  V30 4819 C 472.931 0.387917 5.32288 0
M  V30 4820 O 473.154 -0.808668 5.64639 0
M  V30 4821 O 472.088 1.1116 5.91546 0
M  V30 4822 H 475.914 1.51363 2.63292 0
M  V30 4823 H 473.499 0.800856 1.26122 0
M  V30 4824 H 475.381 -0.375606 4.19723 0
M  V30 4825 H 474.056 -0.882895 3.11427 0
M  V30 4826 H 472.963 1.40756 3.4661 0
M  V30 4827 H 474.296 1.83366 4.56769 0
M  V30 4828 N 475.948 -1.35272 0.808662 0
M  V30 4829 C 477.173 -2.03477 0.401475 0
M  V30 4830 C 477.598 -1.60537 -0.980279 0
M  V30 4831 O 476.956 -0.78304 -1.63518 0
M  V30 4832 C 477.004 -3.57181 0.495354 0
M  V30 4833 O 476.108 -4.09474 -0.490397 0
M  V30 4834 H 475.449 -0.642561 0.167366 0
M  V30 4835 H 477.979 -1.72824 1.09512 0
M  V30 4836 H 477.989 -4.06356 0.365912 0
M  V30 4837 H 476.664 -3.87784 1.5032 0
M  V30 4838 H 475.241 -3.71516 -0.321023 0
M  V30 4839 N 477.426 -0.562348 -1.47226 0
M  V30 4840 C 478.389 0.172056 -2.28553 0
M  V30 4841 C 479.389 0.837928 -1.37242 0
M  V30 4842 O 480.579 0.693001 -1.59822 0
M  V30 4843 C 477.711 1.25223 -3.17068 0
M  V30 4844 H 478.904 -0.542401 -2.94954 0
M  V30 4845 H 476.457 -0.319493 -1.53 0
M  V30 4846 H 477.192 1.99892 -2.55369 0
M  V30 4847 H 476.977 0.779515 -3.84273 0
M  V30 4848 H 478.467 1.76791 -3.78332 0
M  V30 4849 N 478.904 1.54736 -0.299062 0
M  V30 4850 C 480.32 1.59507 0.0543849 0
M  V30 4851 C 480.52 1.31606 1.52585 0
M  V30 4852 O 479.576 1.08853 2.27832 0
M  V30 4853 C 480.889 2.98751 -0.34181 0
M  V30 4854 C 482.437 3.1165 -0.290414 0
M  V30 4855 C 482.912 4.53199 -0.661402 0
M  V30 4856 N 484.403 4.59114 -0.613863 0
M  V30 4857 C 485.138 5.66709 -0.873417 0
M  V30 4858 N 484.634 6.82349 -1.19884 0
M  V30 4859 N 486.427 5.56369 -0.800608 0
M  V30 4860 H 478.578 1.71133 -1.25806 0
M  V30 4861 H 480.841 0.799186 -0.509908 0
M  V30 4862 H 480.547 3.24085 -1.36608 0
M  V30 4863 H 480.421 3.75961 0.305508 0
M  V30 4864 H 482.808 2.86066 0.724605 0
M  V30 4865 H 482.889 2.366 -0.972327 0
M  V30 4866 H 482.533 4.79513 -1.67422 0
M  V30 4867 H 482.463 5.26583 0.0425612 0
M  V30 4868 H 484.954 3.76053 -0.3732 0
M  V30 4869 H 485.267 7.60326 -1.38291 0
M  V30 4870 H 483.612 6.83906 -1.23685 0
M  V30 4871 H 486.803 4.64904 -0.546045 0
M  V30 4872 H 486.976 6.40139 -1.00626 0
M  V30 4873 N 480.382 0.0267497 1.57577 0
M  V30 4874 C 481.312 -0.954308 2.13108 0
M  V30 4875 C 482.293 -1.34088 1.04663 0
M  V30 4876 O 483.478 -1.41992 1.32484 0
M  V30 4877 C 480.608 -2.23744 2.65624 0
M  V30 4878 C 479.562 -1.99168 3.78835 0
M  V30 4879 C 478.888 -3.33726 4.17769 0
M  V30 4880 C 480.188 -1.33277 5.0501 0
M  V30 4881 H 481.882 -0.491848 2.95332 0
M  V30 4882 H 479.428 -0.23514 1.42067 0
M  V30 4883 H 481.381 -2.92754 3.03106 0
M  V30 4884 H 480.105 -2.72151 1.80558 0
M  V30 4885 H 478.764 -1.32577 3.41788 0
M  V30 4886 H 478.412 -3.79888 3.29688 0
M  V30 4887 H 478.112 -3.18089 4.94058 0
M  V30 4888 H 479.636 -4.04008 4.57832 0
M  V30 4889 H 481.05 -1.92283 5.40093 0
M  V30 4890 H 479.447 -1.28045 5.8628 0
M  V30 4891 H 480.517 -0.305411 4.83937 0
M  V30 4892 N 481.861 -1.55662 -0.24637 0
M  V30 4893 C 482.791 -1.93377 -1.30873 0
M  V30 4894 C 483.772 -0.798773 -1.50179 0
M  V30 4895 O 484.957 -1.0591 -1.62778 0
M  V30 4896 C 482.087 -2.22893 -2.66338 0
M  V30 4897 C 481.041 -3.38649 -2.61727 0
M  V30 4898 C 480.367 -3.53708 -4.00992 0
M  V30 4899 C 481.667 -4.74323 -2.18666 0
M  V30 4900 H 483.361 -2.82363 -0.995552 0
M  V30 4901 H 480.907 -1.35854 -0.477464 0
M  V30 4902 H 482.86 -2.47866 -3.40794 0
M  V30 4903 H 481.584 -1.30733 -2.99293 0
M  V30 4904 H 480.243 -3.13685 -1.89729 0
M  V30 4905 H 479.891 -2.58967 -4.31214 0
M  V30 4906 H 479.591 -4.31551 -3.98795 0
M  V30 4907 H 481.115 -3.81003 -4.77147 0
M  V30 4908 H 482.529 -4.98665 -2.82854 0
M  V30 4909 H 480.926 -5.55273 -2.27579 0
M  V30 4910 H 481.996 -4.71349 -1.13834 0
M  V30 4911 N 483.339 0.512053 -1.4905 0
M  V30 4912 C 484.567 1.29116 -1.61669 0
M  V30 4913 C 484.982 1.86655 -0.283787 0
M  V30 4914 O 484.339 1.67293 0.729331 0
M  V30 4915 C 484.39 2.4293 -2.67707 0
M  V30 4916 O 484.111 1.87758 -3.95826 0
M  V30 4917 C 485.612 3.34476 -2.90931 0
M  V30 4918 H 482.832 0.392009 -0.544583 0
M  V30 4919 H 485.376 0.615881 -1.95006 0
M  V30 4920 H 483.531 3.06308 -2.37179 0
M  V30 4921 H 483.945 2.62393 -4.54148 0
M  V30 4922 H 485.419 4.10642 -3.68886 0
M  V30 4923 H 485.896 3.90801 -2.00427 0
M  V30 4924 H 486.502 2.76874 -3.22832 0
M  V30 4925 N 484.817 1.37938 0.762283 0
M  V30 4926 C 486.063 1.34873 1.52253 0
M  V30 4927 C 486.418 -0.0635972 1.92295 0
M  V30 4928 O 485.711 -1.02434 1.61919 0
M  V30 4929 C 485.905 2.23042 2.79261 0
M  V30 4930 C 485.734 3.72706 2.51635 0
M  V30 4931 C 484.504 4.41771 2.45289 0
M  V30 4932 C 486.702 4.65345 2.18994 0
M  V30 4933 N 484.684 5.76921 2.09846 0
M  V30 4934 C 486.055 5.88943 1.9377 0
M  V30 4935 C 488.11 4.53636 2.0523 0
M  V30 4936 C 486.813 7.02142 1.5617 0
M  V30 4937 C 488.839 5.6673 1.69031 0
M  V30 4938 C 488.201 6.89383 1.44673 0
M  V30 4939 H 484.3 0.548818 0.557067 0
M  V30 4940 H 486.884 1.73247 0.888458 0
M  V30 4941 H 485.055 1.8687 3.40491 0
M  V30 4942 H 486.787 2.11165 3.45241 0
M  V30 4943 H 483.542 3.94883 2.61465 0
M  V30 4944 H 483.966 6.4837 1.94794 0
M  V30 4945 H 488.608 3.5937 2.2274 0
M  V30 4946 H 486.326 7.96334 1.37399 0
M  V30 4947 H 489.912 5.59645 1.59026 0
M  V30 4948 H 488.792 7.75411 1.17079 0
M  V30 4949 N 486.295 -0.989507 1.22664 0
M  V30 4950 C 487.711 -1.25395 0.987331 0
M  V30 4951 C 487.911 -1.9899 -0.317056 0
M  V30 4952 O 486.967 -2.30141 -1.03882 0
M  V30 4953 C 488.28 -2.06242 2.18826 0
M  V30 4954 C 489.828 -2.19413 2.23219 0
M  V30 4955 C 490.303 -3.03648 3.42873 0
M  V30 4956 N 491.794 -3.11234 3.43056 0
M  V30 4957 C 492.529 -3.7671 4.32293 0
M  V30 4958 N 492.025 -4.44085 5.31752 0
M  V30 4959 N 493.818 -3.73505 4.2006 0
M  V30 4960 H 485.969 -0.496212 2.06522 0
M  V30 4961 H 488.232 -0.281784 0.905153 0
M  V30 4962 H 487.938 -1.59531 3.13437 0
M  V30 4963 H 487.812 -3.06996 2.19165 0
M  V30 4964 H 490.199 -2.65336 1.29154 0
M  V30 4965 H 490.28 -1.18078 2.26917 0
M  V30 4966 H 489.924 -2.58424 4.37241 0
M  V30 4967 H 489.854 -4.05132 3.36416 0
M  V30 4968 H 492.345 -2.63287 2.71088 0
M  V30 4969 H 492.658 -4.91797 5.96117 0
M  V30 4970 H 491.003 -4.42822 5.35662 0
M  V30 4971 H 494.194 -3.20033 3.41609 0
M  V30 4972 H 494.367 -4.24253 4.8981 0
M  V30 4973 N 487.773 -1.03688 -1.18687 0
M  V30 4974 C 488.736 -0.629115 -2.20397 0
M  V30 4975 C 489.736 0.311495 -1.57754 0
M  V30 4976 O 490.926 0.0974107 -1.73927 0
M  V30 4977 C 488.058 0.0782231 -3.4081 0
M  V30 4978 H 489.251 -1.52915 -2.57987 0
M  V30 4979 H 486.804 -0.828988 -1.32505 0
M  V30 4980 H 487.539 0.992233 -3.08748 0
M  V30 4981 H 487.324 -0.597776 -3.87517 0
M  V30 4982 H 488.814 0.350156 -4.16129 0
M  V30 4983 N 489.251 1.34841 -0.815825 0
M  V30 4984 C 490.214 2.27959 -0.238185 0
M  V30 4985 C 491.214 1.49983 0.579816 0
M  V30 4986 O 492.404 1.69617 0.396953 0
M  V30 4987 C 489.536 3.34314 0.666876 0
M  V30 4988 H 490.729 2.80558 -1.05958 0
M  V30 4989 H 488.282 1.44852 -0.587156 0
M  V30 4990 H 489.017 2.86916 1.5116 0
M  V30 4991 H 488.802 3.92014 0.0819106 0
M  V30 4992 H 490.292 4.0379 1.06506 0
M  V30 4993 N 490.729 0.570148 1.46925 0
M  V30 4994 C 491.662 -0.218362 2.27153 0
M  V30 4995 C 492.64 -0.90847 1.34854 0
M  V30 4996 O 493.824 -0.924875 1.64251 0
M  V30 4997 C 490.951 -1.3122 3.12248 0
M  V30 4998 C 489.997 -0.729277 4.20219 0
M  V30 4999 S 490.83 0.434159 5.33737 0
M  V30 5000 C 491.986 -0.661188 6.22398 0
M  V30 5001 H 492.219 0.462393 2.93682 0
M  V30 5002 H 489.752 0.356753 1.50222 0
M  V30 5003 H 491.71 -1.93856 3.61842 0
M  V30 5004 H 490.371 -1.96485 2.45056 0
M  V30 5005 H 489.564 -1.5511 4.79538 0
M  V30 5006 H 489.166 -0.178836 3.73572 0
M  V30 5007 H 491.458 -1.55006 6.5953 0
M  V30 5008 H 492.401 -0.105046 7.08022 0
M  V30 5009 H 492.809 -0.959682 5.56283 0
M  V30 5010 N 492.207 -1.54576 0.307264 0
M  V30 5011 C 493.137 -2.26708 -0.55907 0
M  V30 5012 C 494.118 -1.26893 -1.1328 0
M  V30 5013 O 495.303 -1.55677 -1.16097 0
M  V30 5014 C 492.433 -3.01259 -1.72801 0
M  V30 5015 C 491.387 -4.08275 -1.28435 0
M  V30 5016 C 490.713 -4.70575 -2.53895 0
M  V30 5017 C 492.013 -5.2068 -0.411038 0
M  V30 5018 H 493.707 -2.9937 0.042576 0
M  V30 5019 H 491.253 -1.43983 0.0219173 0
M  V30 5020 H 493.206 -3.50444 -2.34023 0
M  V30 5021 H 491.93 -2.26187 -2.356 0
M  V30 5022 H 490.589 -3.59949 -0.695161 0
M  V30 5023 H 490.237 -3.92136 -3.15021 0
M  V30 5024 H 489.937 -5.42854 -2.24908 0
M  V30 5025 H 491.461 -5.22527 -3.15908 0
M  V30 5026 H 492.875 -5.65721 -0.929097 0
M  V30 5027 H 491.272 -5.99716 -0.214664 0
M  V30 5028 H 492.342 -4.81629 0.562287 0
M  V30 5029 N 493.685 -0.035106 -1.57561 0
M  V30 5030 C 494.632 0.94474 -2.10578 0
M  V30 5031 C 495.602 1.3192 -1.00927 0
M  V30 5032 O 496.787 1.41147 -1.28382 0
M  V30 5033 C 493.927 2.21982 -2.64231 0
M  V30 5034 C 493.04 1.90128 -3.87911 0
M  V30 5035 C 492.175 3.11975 -4.29936 0
M  V30 5036 C 491.214 2.75968 -5.46359 0
M  V30 5037 N 490.351 3.90459 -5.83512 0
M  V30 5038 H 495.191 0.485717 -2.94015 0
M  V30 5039 H 492.728 0.228143 -1.4532 0
M  V30 5040 H 494.686 2.96572 -2.9343 0
M  V30 5041 H 493.316 2.6549 -1.83616 0
M  V30 5042 H 492.368 1.05755 -3.65404 0
M  V30 5043 H 493.68 1.59613 -4.72573 0
M  V30 5044 H 492.834 3.9488 -4.60603 0
M  V30 5045 H 491.573 3.45657 -3.44053 0
M  V30 5046 H 490.578 1.91478 -5.1538 0
M  V30 5047 H 491.803 2.43497 -6.33945 0
M  V30 5048 H 489.749 4.23971 -5.00584 0
M  V30 5049 H 489.666 3.63588 -6.62827 0
M  V30 5050 H 490.934 4.7405 -6.18787 0
M  V30 5051 N 495.163 1.55791 0.238111 0
M  V30 5052 C 496.44 1.68798 0.98826 0
M  V30 5053 C 496.82 0.577562 2.03045 0
M  V30 5054 O 496.168 -0.41778 2.24648 0
M  V30 5055 C 496.378 3.09454 1.61367 0
M  V30 5056 C 497.726 3.68335 2.11221 0
M  V30 5057 O 498.75 3.1231 1.71292 0
M  V30 5058 O 497.609 4.6657 2.84561 0
M  V30 5059 H 494.703 0.686881 0.460568 0
M  V30 5060 H 497.249 1.68118 0.231202 0
M  V30 5061 H 496.021 3.81726 0.860295 0
M  V30 5062 H 495.644 3.14182 2.4367 0
M  V30 5063 N 496.642 -0.504142 1.49319 0
M  V30 5064 C 497.59 -1.62689 1.66238 0
M  V30 5065 C 498.584 -1.6095 0.528349 0
M  V30 5066 O 499.79 -1.65496 0.707887 0
M  V30 5067 H 496.165 -0.539247 0.524134 0
M  V30 5068 H 498.136 -1.45571 2.60484 0
M  V30 5069 C 496.885 -3.00841 1.74328 0
M  V30 5070 H 496.208 -3.02884 2.60963 0
M  V30 5071 H 497.648 -3.78945 1.90202 0
M  V30 5072 C 496.107 -3.33355 0.487416 0
M  V30 5073 O 496.637 -3.99819 -0.388294 0
M  V30 5074 N 494.843 -2.88469 0.351306 0
M  V30 5075 H 494.39 -2.34557 1.06492 0
M  V30 5076 H 494.348 -3.10591 -0.487899 0
M  V30 5077 N 498.12 -1.38341 -0.754957 0
M  V30 5078 C 499.067 -1.3546 -1.86867 0
M  V30 5079 C 500.037 -0.217369 -1.64672 0
M  V30 5080 O 501.222 -0.409383 -1.86356 0
M  V30 5081 C 498.362 -1.18413 -3.24149 0
M  V30 5082 C 497.475 -2.41511 -3.58185 0
M  V30 5083 C 496.61 -2.17205 -4.84763 0
M  V30 5084 C 495.649 -3.36081 -5.11582 0
M  V30 5085 N 494.786 -3.11219 -6.29354 0
M  V30 5086 H 499.626 -2.30672 -1.88664 0
M  V30 5087 H 497.163 -1.14607 -0.922154 0
M  V30 5088 H 499.121 -1.06545 -4.03366 0
M  V30 5089 H 497.751 -0.268397 -3.21682 0
M  V30 5090 H 496.803 -2.64056 -2.73822 0
M  V30 5091 H 498.115 -3.30115 -3.73932 0
M  V30 5092 H 497.269 -2.02465 -5.7192 0
M  V30 5093 H 496.008 -1.25964 -4.71152 0
M  V30 5094 H 495.013 -3.51341 -4.22894 0
M  V30 5095 H 496.238 -4.28196 -5.27091 0
M  V30 5096 H 494.184 -2.22624 -6.17069 0
M  V30 5097 H 494.101 -3.93373 -6.45596 0
M  V30 5098 H 495.369 -3.00132 -7.19403 0
M  V30 5099 N 499.598 0.982988 -1.23187 0
M  V30 5100 C 500.545 2.07491 -1.01075 0
M  V30 5101 C 501.515 1.65949 0.070905 0
M  V30 5102 O 502.7 1.90629 -0.0806822 0
M  V30 5103 C 499.84 3.39751 -0.605261 0
M  V30 5104 C 498.953 3.94578 -1.75876 0
M  V30 5105 C 498.088 5.15039 -1.3003 0
M  V30 5106 C 497.127 5.62027 -2.42472 0
M  V30 5107 N 496.264 6.73719 -1.97602 0
M  V30 5108 H 501.104 2.25739 -1.9454 0
M  V30 5109 H 498.641 1.10659 -0.969179 0
M  V30 5110 H 500.599 4.15719 -0.351279 0
M  V30 5111 H 499.229 3.21473 0.292382 0
M  V30 5112 H 498.281 3.1539 -2.12681 0
M  V30 5113 H 499.593 4.25422 -2.60418 0
M  V30 5114 H 498.747 5.9833 -1.00429 0
M  V30 5115 H 497.486 4.85843 -0.425216 0
M  V30 5116 H 496.491 4.77318 -2.7285 0
M  V30 5117 H 497.716 5.93244 -3.30512 0
M  V30 5118 H 495.662 6.46287 -1.1247 0
M  V30 5119 H 495.579 7.03934 -2.75705 0
M  V30 5120 H 496.847 7.6049 -1.71098 0
M  V30 5121 N 501.076 1.04316 1.18135 0
M  V30 5122 C 502.487 0.775505 1.69832 0
M  V30 5123 C 502.838 -0.703348 1.8316 0
M  V30 5124 O 501.963 -1.54729 1.51287 0
M  V30 5125 C 502.558 1.40112 3.0847 0
M  V30 5126 C 501.117 1.18172 3.57368 0
M  V30 5127 C 500.264 1.49022 2.33854 0
M  V30 5128 H 503.215 1.20925 1.02775 0
M  V30 5129 H 503.236 0.805672 3.71873 0
M  V30 5130 H 502.748 2.47744 2.98738 0
M  V30 5131 H 500.849 0.124258 3.72393 0
M  V30 5132 H 500.962 1.8805 4.40652 0
M  V30 5133 H 499.326 0.909995 2.37889 0
M  V30 5134 H 500.109 2.57768 2.26738 0
M  V30 5135 N 502.554 -1.34406 0.822964 0
M  V30 5136 C 503.801 -1.98284 0.411057 0
M  V30 5137 C 504.129 -1.65245 -1.02588 0
M  V30 5138 O 503.384 -0.91619 -1.72929 0
M  V30 5139 C 503.683 -3.52981 0.560268 0
M  V30 5140 C 503.349 -4.05931 1.96293 0
M  V30 5141 C 502.011 -4.20103 2.34664 0
M  V30 5142 C 504.363 -4.34412 2.87985 0
M  V30 5143 C 501.691 -4.60082 3.64062 0
M  V30 5144 C 504.043 -4.75838 4.16847 0
M  V30 5145 C 502.707 -4.88215 4.55195 0
M  V30 5146 H 501.977 -0.725573 0.150416 0
M  V30 5147 H 504.624 -1.60349 1.04692 0
M  V30 5148 H 502.929 -3.91477 -0.158982 0
M  V30 5149 H 504.626 -4.00385 0.222087 0
M  V30 5150 H 501.216 -3.95363 1.65487 0
M  V30 5151 H 505.4 -4.23001 2.59584 0
M  V30 5152 H 500.656 -4.67856 3.93599 0
M  V30 5153 H 504.83 -4.96834 4.87984 0
M  V30 5154 H 502.457 -5.18952 5.55512 0
M  V30 5155 N 504.032 -0.577932 -1.46621 0
M  V30 5156 C 505.281 -0.0594281 -2.01612 0
M  V30 5157 C 505.594 1.30663 -1.45556 0
M  V30 5158 O 506.8 1.91621 -1.92337 0
M  V30 5159 C 505.256 -0.0556666 -3.59857 0
M  V30 5160 C 504.864 -1.41975 -4.24908 0
M  V30 5161 C 506.608 0.409143 -4.22524 0
M  V30 5162 C 504.515 -1.37397 -5.75218 0
M  V30 5163 H 503.445 -0.0184469 -0.753774 0
M  V30 5164 H 506.096 -0.728869 -1.68404 0
M  V30 5165 H 504.478 0.679843 -3.90121 0
M  V30 5166 H 505.652 -2.17461 -4.0626 0
M  V30 5167 H 503.967 -1.82419 -3.74316 0
M  V30 5168 H 506.564 0.46211 -5.32699 0
M  V30 5169 H 506.907 1.42565 -3.91128 0
M  V30 5170 H 507.44 -0.272152 -3.96868 0
M  V30 5171 H 504.179 -2.36714 -6.11267 0
M  V30 5172 H 503.699 -0.661239 -5.96144 0
M  V30 5173 H 505.378 -1.08484 -6.3784 0
M  V30 5174 N 505.51 1.54411 -0.315457 0
M  V30 5175 C 506.457 2.24048 0.554166 0
M  V30 5176 C 507.427 1.2283 1.11812 0
M  V30 5177 O 508.612 1.51491 1.15997 0
M  V30 5178 C 505.752 2.99574 1.71316 0
M  V30 5179 C 504.865 4.15594 1.17922 0
M  V30 5180 C 504 4.78669 2.30324 0
M  V30 5181 C 503.039 5.86807 1.74137 0
M  V30 5182 N 502.176 6.43777 2.8017 0
M  V30 5183 H 507.016 2.97964 -0.0462602 0
M  V30 5184 H 504.553 1.47059 -0.0346009 0
M  V30 5185 H 506.511 3.41604 2.39505 0
M  V30 5186 H 505.141 2.28008 2.285 0
M  V30 5187 H 504.193 3.78404 0.389136 0
M  V30 5188 H 505.505 4.93459 0.728012 0
M  V30 5189 H 504.659 5.23626 3.06433 0
M  V30 5190 H 503.398 4.00168 2.78778 0
M  V30 5191 H 502.403 5.41261 0.965236 0
M  V30 5192 H 503.628 6.67201 1.2657 0
M  V30 5193 H 501.574 5.68153 3.2793 0
M  V30 5194 H 501.491 7.17031 2.39588 0
M  V30 5195 H 502.759 6.9339 3.56132 0
M  V30 5196 N 506.988 0.0434614 1.5754 0
M  V30 5197 C 507.898 -0.94893 2.14552 0
M  V30 5198 C 508.914 -1.34707 1.10136 0
M  V30 5199 O 510.09 -1.42557 1.42266 0
M  V30 5200 C 507.155 -2.208 2.67298 0
M  V30 5201 C 506.216 -1.86893 3.86484 0
M  V30 5202 C 505.449 -3.06797 4.36705 0
M  V30 5203 O 505.672 -4.19921 3.86034 0
M  V30 5204 O 504.606 -2.8826 5.28384 0
M  V30 5205 H 508.432 -0.494099 2.99654 0
M  V30 5206 H 506.017 -0.177989 1.48336 0
M  V30 5207 H 507.899 -2.94686 3.01228 0
M  V30 5208 H 506.574 -2.65436 1.85272 0
M  V30 5209 H 505.481 -1.10347 3.57455 0
M  V30 5210 H 506.814 -1.47062 4.69716 0
M  V30 5211 N 508.466 -1.55915 -0.229846 0
M  V30 5212 C 509.429 -1.90914 -1.26824 0
M  V30 5213 C 510.429 -0.786999 -1.40225 0
M  V30 5214 O 511.619 -1.05484 -1.38632 0
M  V30 5215 C 508.751 -2.15264 -2.64337 0
M  V30 5216 H 509.944 -2.8378 -0.969998 0
M  V30 5217 H 507.497 -1.49069 -0.4699 0
M  V30 5218 H 508.232 -1.24923 -2.99274 0
M  V30 5219 H 508.017 -2.97005 -2.55989 0
M  V30 5220 H 509.507 -2.43467 -3.39284 0
M  V30 5221 N 509.944 0.496216 -1.49584 0
M  V30 5222 C 510.907 1.57952 -1.66084 0
M  V30 5223 C 511.907 1.51729 -0.53244 0
M  V30 5224 O 513.097 1.54796 -0.79899 0
M  V30 5225 C 510.229 2.97604 -1.66268 0
M  V30 5226 H 511.422 1.44649 -2.6271 0
M  V30 5227 H 508.975 0.7208 -1.38687 0
M  V30 5228 H 509.71 3.16378 -0.712432 0
M  V30 5229 H 509.495 3.03528 -2.4822 0
M  V30 5230 H 510.985 3.76301 -1.81073 0
M  V30 5231 N 511.423 1.38739 0.74761 0
M  V30 5232 C 512.356 1.3083 1.86972 0
M  V30 5233 C 513.334 0.184229 1.61553 0
M  V30 5234 O 514.518 0.36256 1.8498 0
M  V30 5235 C 511.645 1.02854 3.22705 0
M  V30 5236 C 510.691 2.17281 3.67003 0
M  V30 5237 S 511.524 3.79468 3.77842 0
M  V30 5238 C 512.68 3.53692 5.16385 0
M  V30 5239 H 512.913 2.258 1.93395 0
M  V30 5240 H 510.446 1.24646 0.911199 0
M  V30 5241 H 512.404 0.87397 4.01089 0
M  V30 5242 H 511.065 0.0959295 3.13953 0
M  V30 5243 H 510.258 1.93267 4.65472 0
M  V30 5244 H 509.86 2.28876 2.9579 0
M  V30 5245 H 512.152 3.10176 6.02327 0
M  V30 5246 H 513.095 4.51576 5.45422 0
M  V30 5247 H 513.503 2.8807 4.85464 0
M  V30 5248 N 512.901 -0.976442 1.23707 0
M  V30 5249 C 513.864 -2.0511 1.02287 0
M  V30 5250 C 514.864 -1.60791 -0.0167195 0
M  V30 5251 O 516.054 -1.72761 0.223408 0
M  V30 5252 C 513.186 -3.36458 0.548507 0
M  V30 5253 H 514.379 -2.25545 1.9766 0
M  V30 5254 H 511.932 -1.15042 1.05806 0
M  V30 5255 H 512.667 -3.21713 -0.408818 0
M  V30 5256 H 512.452 -3.69967 1.29874 0
M  V30 5257 H 513.942 -4.15489 0.419406 0
M  V30 5258 N 514.379 -1.04941 -1.1758 0
M  V30 5259 C 515.326 -0.648155 -2.21512 0
M  V30 5260 C 516.296 0.348431 -1.62404 0
M  V30 5261 O 517.481 0.240419 -1.89279 0
M  V30 5262 C 514.621 -0.0264291 -3.4509 0
M  V30 5263 C 513.734 -1.07154 -4.185 0
M  V30 5264 C 512.869 -0.417403 -5.29558 0
M  V30 5265 C 511.908 -1.447 -5.94751 0
M  V30 5266 N 511.045 -0.817203 -6.97328 0
M  V30 5267 H 515.885 -1.53891 -2.55189 0
M  V30 5268 H 513.422 -0.769699 -1.25356 0
M  V30 5269 H 515.38 0.351456 -4.15717 0
M  V30 5270 H 514.01 0.827802 -3.12005 0
M  V30 5271 H 513.062 -1.56728 -3.46613 0
M  V30 5272 H 514.374 -1.8532 -4.63096 0
M  V30 5273 H 513.528 0.0142061 -6.06698 0
M  V30 5274 H 512.267 0.396265 -4.86087 0
M  V30 5275 H 511.272 -1.88865 -5.16343 0
M  V30 5276 H 512.497 -2.26252 -6.40302 0
M  V30 5277 H 510.443 -0.0239995 -6.55996 0
M  V30 5278 H 510.36 -1.53644 -7.40223 0
M  V30 5279 H 511.628 -0.410283 -7.7842 0
M  V30 5280 N 515.857 1.33968 -0.830081 0
M  V30 5281 C 516.787 2.31911 -0.271911 0
M  V30 5282 C 517.768 1.58571 0.61556 0
M  V30 5283 O 518.953 1.86514 0.540946 0
M  V30 5284 C 516.083 3.42737 0.561146 0
M  V30 5285 C 515.037 4.27383 -0.229789 0
M  V30 5286 C 514.363 5.29742 0.726463 0
M  V30 5287 C 515.663 5.02 -1.44197 0
M  V30 5288 H 517.357 2.78844 -1.09025 0
M  V30 5289 H 514.903 1.34061 -0.52571 0
M  V30 5290 H 516.856 4.10276 0.961867 0
M  V30 5291 H 515.58 2.94471 1.41261 0
M  V30 5292 H 514.239 3.61456 -0.611964 0
M  V30 5293 H 513.887 4.77736 1.57408 0
M  V30 5294 H 513.587 5.87255 0.20142 0
M  V30 5295 H 515.111 6.00149 1.12489 0
M  V30 5296 H 516.525 5.62355 -1.11488 0
M  V30 5297 H 514.922 5.69122 -1.90317 0
M  V30 5298 H 515.992 4.31281 -2.2164 0
M  V30 5299 N 517.335 0.585699 1.46312 0
M  V30 5300 C 518.298 -0.135673 2.28798 0
M  V30 5301 C 519.298 -0.815988 1.38558 0
M  V30 5302 O 520.488 -0.667487 1.60904 0
M  V30 5303 C 517.62 -1.20163 3.1902 0
M  V30 5304 H 518.813 0.589257 2.94054 0
M  V30 5305 H 516.366 0.343794 1.52472 0
M  V30 5306 H 517.101 -1.95804 2.58517 0
M  V30 5307 H 516.886 -0.718282 3.85465 0
M  V30 5308 H 518.376 -1.70749 3.81096 0
M  V30 5309 N 518.813 -1.54241 0.323641 0
M  V30 5310 C 519.776 -2.22997 -0.529602 0
M  V30 5311 C 520.776 -1.22345 -1.04347 0
M  V30 5312 O 521.966 -1.46924 -0.935889 0
M  V30 5313 C 519.098 -2.93409 -1.73562 0
M  V30 5314 H 520.291 -2.99815 0.0714518 0
M  V30 5315 H 517.844 -1.56121 0.0747258 0
M  V30 5316 H 518.579 -2.20729 -2.37591 0
M  V30 5317 H 518.364 -3.67217 -1.37456 0
M  V30 5318 H 519.854 -3.45794 -2.34128 0
M  V30 5319 N 520.291 -0.0518155 -1.57515 0
M  V30 5320 C 521.516 0.634896 -1.97443 0
M  V30 5321 C 521.941 1.63546 -0.929207 0
M  V30 5322 O 521.299 1.80981 0.107484 0
M  V30 5323 C 521.347 1.29765 -3.36442 0
M  V30 5324 O 520.451 2.41333 -3.34413 0
M  V30 5325 H 519.792 0.164994 -0.643174 0
M  V30 5326 H 522.322 -0.120407 -2.04245 0
M  V30 5327 H 522.332 1.64918 -3.73184 0
M  V30 5328 H 521.007 0.564361 -4.12053 0
M  V30 5329 H 519.584 2.08122 -3.09418 0
M  V30 5330 N 521.769 1.56035 0.221574 0
M  V30 5331 C 522.679 1.95581 1.29558 0
M  V30 5332 C 523.695 0.859639 1.51282 0
M  V30 5333 O 524.871 1.16321 1.64413 0
M  V30 5334 C 521.936 2.26447 2.62531 0
M  V30 5335 C 520.997 3.49632 2.4911 0
M  V30 5336 C 520.23 3.79017 3.75742 0
M  V30 5337 O 520.453 3.10077 4.78757 0
M  V30 5338 O 519.387 4.72507 3.72855 0
M  V30 5339 H 523.213 2.8711 0.990035 0
M  V30 5340 H 520.798 1.43244 0.424434 0
M  V30 5341 H 522.68 2.47494 3.41064 0
M  V30 5342 H 521.355 1.38092 2.92766 0
M  V30 5343 H 520.262 3.33864 1.68777 0
M  V30 5344 H 521.595 4.3837 2.23814 0
M  V30 5345 N 523.247 -0.488276 1.49845 0
M  V30 5346 C 524.21 -1.57069 1.66919 0
M  V30 5347 C 525.21 -1.51445 0.540479 0
M  V30 5348 O 526.4 -1.5437 0.807188 0
M  V30 5349 C 523.532 -2.96718 1.67844 0
M  V30 5350 H 524.725 -1.43254 2.63474 0
M  V30 5351 H 522.278 -0.713435 1.39068 0
M  V30 5352 H 523.013 -3.15996 0.7292 0
M  V30 5353 H 522.798 -3.02208 2.49826 0
M  V30 5354 H 524.288 -3.75335 1.83066 0
M  V30 5355 N 524.725 -1.39134 -0.740242 0
M  V30 5356 C 525.688 -1.37217 -1.83587 0
M  V30 5357 C 526.688 -0.270221 -1.58513 0
M  V30 5358 O 527.878 -0.527843 -1.6601 0
M  V30 5359 C 525.01 -1.13959 -3.21288 0
M  V30 5360 H 526.203 -2.34705 -1.86691 0
M  V30 5361 H 523.756 -1.24622 -0.94335 0
M  V30 5362 H 524.491 -0.17131 -3.23847 0
M  V30 5363 H 524.276 -1.93754 -3.40884 0
M  V30 5364 H 525.766 -1.15346 -4.01354 0
M  V30 5365 N 526.204 0.969867 -1.24223 0
M  V30 5366 C 527.432 1.74756 -1.10761 0
M  V30 5367 C 527.847 1.85713 0.340041 0
M  V30 5368 O 527.204 1.34389 1.23474 0
M  V30 5369 C 527.255 3.16915 -1.73917 0
M  V30 5370 O 526.976 3.06511 -3.13021 0
M  V30 5371 C 528.477 4.11032 -1.66036 0
M  V30 5372 H 525.697 0.548092 -0.387087 0
M  V30 5373 H 528.241 1.2178 -1.64286 0
M  V30 5374 H 526.396 3.66884 -1.244 0
M  V30 5375 H 526.81 3.96079 -3.43834 0
M  V30 5376 H 528.284 5.08446 -2.14911 0
M  V30 5377 H 528.761 4.34785 -0.621159 0
M  V30 5378 H 529.367 3.66972 -2.14969 0
M  V30 5379 N 527.682 1.05563 1.17022 0
M  V30 5380 C 528.645 0.664098 2.19368 0
M  V30 5381 C 529.645 -0.286358 1.5823 0
M  V30 5382 O 530.835 -0.069728 1.7406 0
M  V30 5383 C 527.967 -0.0239932 3.40892 0
M  V30 5384 H 529.16 1.57 2.55521 0
M  V30 5385 H 526.713 0.849964 1.31169 0
M  V30 5386 H 527.448 -0.942988 3.10287 0
M  V30 5387 H 527.233 0.659351 3.86516 0
M  V30 5388 H 528.723 -0.283909 4.16634 0
M  V30 5389 N 529.16 -1.33526 0.837174 0
M  V30 5390 C 530.409 -1.97098 0.428387 0
M  V30 5391 C 530.722 -1.67062 -1.01734 0
M  V30 5392 O 531.928 -2.24235 -1.53072 0
M  V30 5393 C 530.384 -3.52725 0.715075 0
M  V30 5394 C 529.992 -3.9164 2.17537 0
M  V30 5395 C 531.736 -4.22857 0.373154 0
M  V30 5396 C 529.643 -5.40237 2.40619 0
M  V30 5397 H 528.573 -0.737589 0.156455 0
M  V30 5398 H 531.224 -1.52169 1.02552 0
M  V30 5399 H 529.606 -3.95971 0.0475904 0
M  V30 5400 H 530.78 -3.59456 2.88319 0
M  V30 5401 H 529.095 -3.34485 2.4801 0
M  V30 5402 H 531.692 -5.32133 0.523264 0
M  V30 5403 H 532.035 -4.10647 -0.683708 0
M  V30 5404 H 532.568 -3.85135 0.995801 0
M  V30 5405 H 529.307 -5.57449 3.44864 0
M  V30 5406 H 528.827 -5.73887 1.74396 0
M  V30 5407 H 530.506 -6.07102 2.23688 0
M  V30 5408 N 530.638 -0.59345 -1.46 0
M  V30 5409 C 531.863 -0.0872365 -2.07216 0
M  V30 5410 C 532.288 1.2131 -1.43755 0
M  V30 5411 O 531.646 1.73528 -0.525152 0
M  V30 5412 C 531.694 0.0538197 -3.6056 0
M  V30 5413 O 530.798 1.10765 -3.97247 0
M  V30 5414 H 530.139 -0.0676598 -0.660544 0
M  V30 5415 H 532.669 -0.819445 -1.87473 0
M  V30 5416 H 532.679 0.256567 -4.07193 0
M  V30 5417 H 531.354 -0.895739 -4.0614 0
M  V30 5418 H 529.931 0.882501 -3.62307 0
M  V30 5419 N 532.116 1.54067 -0.331816 0
M  V30 5420 C 533.066 2.21363 0.546101 0
M  V30 5421 C 534.05 1.19698 1.07523 0
M  V30 5422 O 535.242 1.45293 1.01088 0
M  V30 5423 C 532.371 2.98115 1.70242 0
M  V30 5424 C 531.457 4.07127 1.18779 0
M  V30 5425 N 531.848 5.04267 0.393465 0
M  V30 5426 C 530.146 4.21226 1.46576 0
M  V30 5427 C 530.847 5.81585 0.115572 0
M  V30 5428 N 529.823 5.39022 0.703987 0
M  V30 5429 H 533.625 2.93821 -0.0679751 0
M  V30 5430 H 531.139 1.61812 -0.138085 0
M  V30 5431 H 533.136 3.44818 2.34321 0
M  V30 5432 H 531.796 2.27181 2.31989 0
M  V30 5433 H 532.807 5.17888 0.0355757 0
M  V30 5434 H 529.484 3.61509 2.08848 0
M  V30 5435 H 530.874 6.6985 -0.524426 0
M  V30 5436 N 533.594 0.0601682 1.57485 0
M  V30 5437 C 534.526 -0.94047 2.09016 0
M  V30 5438 C 535.539 -1.26897 1.01985 0
M  V30 5439 O 536.728 -1.22819 1.29529 0
M  V30 5440 C 533.828 -2.25955 2.52582 0
M  V30 5441 C 533.001 -2.11163 3.83052 0
M  V30 5442 C 532.06 -3.26273 4.12835 0
M  V30 5443 O 531.086 -3.01779 4.82616 0
M  V30 5444 N 532.288 -4.51022 3.65458 0
M  V30 5445 H 535.053 -0.500578 2.9549 0
M  V30 5446 H 532.614 -0.125852 1.6141 0
M  V30 5447 H 534.606 -3.01846 2.69575 0
M  V30 5448 H 533.176 -2.61481 1.71308 0
M  V30 5449 H 532.396 -1.19808 3.75552 0
M  V30 5450 H 533.684 -1.98517 4.68475 0
M  V30 5451 H 533.082 -4.73811 3.09062 0
M  V30 5452 H 531.639 -5.23978 3.87673 0
M  V30 5453 N 535.072 -1.5615 -0.213296 0
M  V30 5454 C 536.035 -1.92249 -1.24792 0
M  V30 5455 C 537.035 -0.801828 -1.39382 0
M  V30 5456 O 538.225 -1.06948 -1.37506 0
M  V30 5457 C 535.357 -2.18056 -2.62039 0
M  V30 5458 H 536.55 -2.84793 -0.939845 0
M  V30 5459 H 534.103 -1.49559 -0.454062 0
M  V30 5460 H 534.838 -1.2809 -2.97932 0
M  V30 5461 H 534.623 -2.99703 -2.52825 0
M  V30 5462 H 536.113 -2.47051 -3.36683 0
M  V30 5463 N 536.55 0.480323 -1.50102 0
M  V30 5464 C 537.799 1.22979 -1.59872 0
M  V30 5465 C 538.112 1.93282 -0.30022 0
M  V30 5466 O 539.318 2.70086 -0.276709 0
M  V30 5467 C 537.774 2.23408 -2.82164 0
M  V30 5468 C 537.382 1.5895 -4.18854 0
M  V30 5469 C 539.126 2.99055 -3.01275 0
M  V30 5470 C 537.033 2.57611 -5.32344 0
M  V30 5471 H 535.963 0.462707 -0.59533 0
M  V30 5472 H 538.614 0.501291 -1.7652 0
M  V30 5473 H 536.996 2.99511 -2.59055 0
M  V30 5474 H 538.17 0.887 -4.52182 0
M  V30 5475 H 536.485 0.956191 -4.05273 0
M  V30 5476 H 539.082 3.72876 -3.83233 0
M  V30 5477 H 539.425 3.57897 -2.12639 0
M  V30 5478 H 539.958 2.30066 -3.24522 0
M  V30 5479 H 536.697 2.03521 -6.23105 0
M  V30 5480 H 536.217 3.26041 -5.03445 0
M  V30 5481 H 537.896 3.19627 -5.62537 0
M  V30 5482 N 538.028 1.39524 0.732853 0
M  V30 5483 C 538.96 1.34318 1.85718 0
M  V30 5484 C 539.973 0.251576 1.60844 0
M  V30 5485 O 541.162 0.510685 1.71039 0
M  V30 5486 C 538.262 1.06334 3.21786 0
M  V30 5487 C 537.435 2.26813 3.73998 0
M  V30 5488 C 536.494 1.95253 4.88634 0
M  V30 5489 O 535.52 2.67957 5.02183 0
M  V30 5490 N 536.722 0.919984 5.73164 0
M  V30 5491 H 539.487 2.3121 1.90688 0
M  V30 5492 H 537.048 1.33654 0.91368 0
M  V30 5493 H 539.04 0.832363 3.96048 0
M  V30 5494 H 537.61 0.181682 3.12072 0
M  V30 5495 H 536.83 2.65849 2.91064 0
M  V30 5496 H 538.118 3.0717 4.05616 0
M  V30 5497 H 537.516 0.317487 5.64808 0
M  V30 5498 H 536.073 0.748905 6.47483 0
M  V30 5499 N 539.506 -0.963266 1.24736 0
M  V30 5500 C 540.755 -1.70115 1.08369 0
M  V30 5501 C 541.068 -1.91939 -0.376688 0
M  V30 5502 O 542.274 -2.6334 -0.660624 0
M  V30 5503 C 540.73 -3.06218 1.89099 0
M  V30 5504 C 540.338 -2.92221 3.39574 0
M  V30 5505 C 542.082 -3.83848 1.81275 0
M  V30 5506 C 539.989 -4.23662 4.12631 0
M  V30 5507 H 538.919 -0.637944 0.401924 0
M  V30 5508 H 541.57 -1.07304 1.48856 0
M  V30 5509 H 539.952 -3.69884 1.41429 0
M  V30 5510 H 541.126 -2.37541 3.94856 0
M  V30 5511 H 539.441 -2.28054 3.48397 0
M  V30 5512 H 542.038 -4.81188 2.33158 0
M  V30 5513 H 542.381 -4.08949 0.778895 0
M  V30 5514 H 542.914 -3.26918 2.26649 0
M  V30 5515 H 539.653 -4.03753 5.16395 0
M  V30 5516 H 539.173 -4.78141 3.62135 0
M  V30 5517 H 540.852 -4.92256 4.19873 0
M  V30 5518 N 540.985 -1.06182 -1.16461 0
M  V30 5519 C 541.915 -0.692861 -2.22984 0
M  V30 5520 C 542.896 0.314122 -1.67174 0
M  V30 5521 O 544.081 0.189499 -1.93273 0
M  V30 5522 C 541.211 -0.07732 -3.47214 0
M  V30 5523 C 540.165 -1.01015 -4.15909 0
M  V30 5524 C 539.491 -0.257973 -5.34077 0
M  V30 5525 C 540.791 -2.33868 -4.67015 0
M  V30 5526 H 542.485 -1.58343 -2.54102 0
M  V30 5527 H 540.031 -0.76279 -1.22137 0
M  V30 5528 H 541.984 0.19266 -4.20959 0
M  V30 5529 H 540.708 0.848254 -3.15392 0
M  V30 5530 H 539.367 -1.26486 -3.44088 0
M  V30 5531 H 539.015 0.670684 -4.98509 0
M  V30 5532 H 538.715 -0.879638 -5.80979 0
M  V30 5533 H 540.239 0.00448788 -6.106 0
M  V30 5534 H 541.653 -2.1279 -5.32347 0
M  V30 5535 H 540.05 -2.91522 -5.24533 0
M  V30 5536 H 541.12 -2.97019 -3.83286 0
M  V30 5537 N 542.463 1.3308 -0.844243 0
M  V30 5538 C 543.711 1.97215 -0.441676 0
M  V30 5539 C 544.032 1.67185 1.0037 0
M  V30 5540 O 543.302 0.973588 1.69994 0
M  V30 5541 H 541.882 0.72959 -0.160335 0
M  V30 5542 H 544.544 1.62348 -1.07838 0
M  V30 5543 H 543.64 3.06698 -0.57815 0
M  V30 5544 N 543.941 0.601185 1.45683 0
M  V30 5545 C 545.189 0.0936957 2.01883 0
M  V30 5546 C 545.51 -1.2779 1.47291 0
M  V30 5547 O 544.78 -1.84279 0.664691 0
M  V30 5548 H 543.36 0.0316466 0.746329 0
M  V30 5549 H 546.022 0.781137 1.78562 0
M  V30 5550 H 545.118 0.0386297 3.12076 0
M  V30 5551 N 545.419 -1.53889 0.339982 0
M  V30 5552 C 546.352 -2.21187 -0.561405 0
M  V30 5553 C 547.33 -1.19463 -1.10306 0
M  V30 5554 O 548.514 -1.48268 -1.164 0
M  V30 5555 C 545.641 -2.8865 -1.77198 0
M  V30 5556 C 544.687 -4.04232 -1.3601 0
M  V30 5557 S 545.52 -5.34129 -0.382909 0
M  V30 5558 C 546.676 -6.05094 -1.60039 0
M  V30 5559 H 546.909 -2.97298 0.0102092 0
M  V30 5560 H 544.442 -1.53901 0.124056 0
M  V30 5561 H 546.4 -3.28138 -2.4665 0
M  V30 5562 H 545.061 -2.12311 -2.3148 0
M  V30 5563 H 544.254 -4.50358 -2.2626 0
M  V30 5564 H 543.856 -3.66503 -0.745098 0
M  V30 5565 H 546.148 -6.2827 -2.53541 0
M  V30 5566 H 547.091 -6.98182 -1.18099 0
M  V30 5567 H 547.499 -5.35207 -1.79483 0
M  V30 5568 N 546.897 -0.0685191 -1.57451 0
M  V30 5569 C 548.145 0.60016 -1.92983 0
M  V30 5570 C 548.466 1.70348 -0.949028 0
M  V30 5571 O 547.736 1.959 0.00335647 0
M  V30 5572 H 546.316 0.224682 -0.712409 0
M  V30 5573 H 548.978 -0.125605 -1.94495 0
M  V30 5574 H 548.074 1.02759 -2.94698 0
M  V30 5575 N 548.375 1.56261 0.205012 0
M  V30 5576 C 549.605 1.83874 0.942018 0
M  V30 5577 C 550.013 0.647595 1.77772 0
M  V30 5578 O 549.356 -0.393098 1.79445 0
M  V30 5579 C 549.418 3.05453 1.89575 0
M  V30 5580 C 549.082 4.39772 1.24296 0
M  V30 5581 C 550.079 5.16133 0.624724 0
M  V30 5582 C 547.764 4.86504 1.24978 0
M  V30 5583 C 549.758 6.37396 0.0220117 0
M  V30 5584 C 547.445 6.07705 0.643232 0
M  V30 5585 C 548.443 6.82993 0.0304164 0
M  V30 5586 O 548.131 8.019 -0.566654 0
M  V30 5587 H 547.863 0.614896 0.280854 0
M  V30 5588 H 550.417 2.04215 0.220285 0
M  V30 5589 H 548.647 2.80972 2.65691 0
M  V30 5590 H 550.336 3.19797 2.4997 0
M  V30 5591 H 551.102 4.81127 0.611666 0
M  V30 5592 H 546.981 4.27865 1.71616 0
M  V30 5593 H 550.525 6.96102 -0.456926 0
M  V30 5594 H 546.422 6.42181 0.653759 0
M  V30 5595 H 547.19 8.17192 -0.462588 0
M  V30 5596 N 549.853 -0.472356 1.50355 0
M  V30 5597 C 551.099 -1.22634 1.6152 0
M  V30 5598 C 551.432 -1.91645 0.313995 0
M  V30 5599 O 550.707 -1.82059 -0.684446 0
M  V30 5600 C 550.99 -2.27099 2.7946 0
M  V30 5601 C 550.843 -1.62402 4.19459 0
M  V30 5602 C 552.162 -3.28421 2.92964 0
M  V30 5603 H 549.281 -0.444494 0.587873 0
M  V30 5604 H 551.923 -0.520321 1.82737 0
M  V30 5605 H 550.073 -2.87314 2.61501 0
M  V30 5606 H 551.745 -1.05793 4.49005 0
M  V30 5607 H 549.988 -0.927184 4.23776 0
M  V30 5608 H 550.659 -2.38309 4.97909 0
M  V30 5609 H 553.135 -2.78227 3.09401 0
M  V30 5610 H 552.011 -3.98845 3.77113 0
M  V30 5611 H 552.272 -3.92467 2.03525 0
M  V30 5612 N 551.331 -1.39911 -0.725443 0
M  V30 5613 C 552.559 -1.40949 -1.51463 0
M  V30 5614 C 552.974 -0.0065242 -1.88799 0
M  V30 5615 O 552.331 0.967163 -1.54765 0
M  V30 5616 C 552.382 -2.29119 -2.79619 0
M  V30 5617 O 552.103 -3.63952 -2.43866 0
M  V30 5618 C 553.604 -2.38642 -3.73584 0
M  V30 5619 H 550.824 -0.481091 -0.467752 0
M  V30 5620 H 553.368 -1.83843 -0.895651 0
M  V30 5621 H 551.523 -1.89612 -3.37826 0
M  V30 5622 H 551.937 -4.10677 -3.26258 0
M  V30 5623 H 553.411 -3.04563 -4.60375 0
M  V30 5624 H 553.888 -1.40846 -4.16004 0
M  V30 5625 H 554.494 -2.78659 -3.21293 0
M  V30 5626 N 552.809 0.956637 -1.25245 0
M  V30 5627 C 553.719 2.0868 -1.0719 0
M  V30 5628 C 554.735 1.73997 -0.00959074 0
M  V30 5629 O 555.911 2.00301 -0.210104 0
M  V30 5630 C 552.976 3.39754 -0.690526 0
M  V30 5631 C 552.037 3.88316 -1.83055 0
M  V30 5632 C 551.27 5.13134 -1.46728 0
M  V30 5633 O 551.493 5.6925 -0.362029 0
M  V30 5634 O 550.427 5.56356 -2.29677 0
M  V30 5635 H 554.253 2.26813 -2.01965 0
M  V30 5636 H 551.838 1.07098 -1.04165 0
M  V30 5637 H 553.72 4.18543 -0.489871 0
M  V30 5638 H 552.395 3.22896 0.227981 0
M  V30 5639 H 551.302 3.1054 -2.08604 0
M  V30 5640 H 552.635 4.09669 -2.72822 0
M  V30 5641 N 554.287 1.06798 1.15896 0
M  V30 5642 C 555.22 0.627503 2.19403 0
M  V30 5643 C 556.198 -0.352352 1.58736 0
M  V30 5644 O 557.382 -0.260111 1.86697 0
M  V30 5645 C 554.509 -0.079356 3.38607 0
M  V30 5646 C 553.555 0.858057 4.17779 0
M  V30 5647 S 554.388 2.35605 4.80885 0
M  V30 5648 C 555.544 1.66083 6.03463 0
M  V30 5649 H 555.777 1.50441 2.56427 0
M  V30 5650 H 553.31 0.881427 1.26768 0
M  V30 5651 H 555.268 -0.48095 4.07673 0
M  V30 5652 H 553.929 -0.932524 2.99938 0
M  V30 5653 H 553.122 0.310108 5.03045 0
M  V30 5654 H 552.724 1.19977 3.54234 0
M  V30 5655 H 555.016 0.969337 6.7053 0
M  V30 5656 H 555.959 2.49159 6.62816 0
M  V30 5657 H 556.367 1.14122 5.52844 0
M  V30 5658 N 555.766 -1.3263 0.851289 0
M  V30 5659 C 557.177 -1.79653 0.5081 0
M  V30 5660 C 557.528 -1.70327 -0.973815 0
M  V30 5661 O 556.653 -1.25986 -1.75944 0
M  V30 5662 C 557.248 -3.26196 0.915515 0
M  V30 5663 C 555.807 -3.71187 0.624277 0
M  V30 5664 C 554.954 -2.53804 1.11709 0
M  V30 5665 H 557.905 -1.19976 1.03882 0
M  V30 5666 H 557.926 -3.79801 0.230535 0
M  V30 5667 H 557.438 -3.32952 1.99411 0
M  V30 5668 H 555.539 -3.69948 -0.443737 0
M  V30 5669 H 555.652 -4.64132 1.18821 0
M  V30 5670 H 554.016 -2.48964 0.537484 0
M  V30 5671 H 554.799 -2.63315 2.20272 0
M  V30 5672 N 557.244 -0.608902 -1.45362 0
M  V30 5673 C 558.207 0.0992563 -2.28985 0
M  V30 5674 C 559.207 0.793841 -1.39838 0
M  V30 5675 O 560.397 0.641804 -1.61946 0
M  V30 5676 C 557.529 1.15073 -3.20891 0
M  V30 5677 H 558.722 -0.635964 -2.93079 0
M  V30 5678 H 556.275 -0.368007 -1.51906 0
M  V30 5679 H 557.01 1.91667 -2.616 0
M  V30 5680 H 556.795 0.656867 -3.86559 0
M  V30 5681 H 558.285 1.64665 -3.83765 0
M  V30 5682 N 558.722 1.53707 -0.348139 0
M  V30 5683 C 559.632 2.28881 0.514857 0
M  V30 5684 C 560.648 1.34168 1.10793 0
M  V30 5685 O 561.824 1.6721 1.12262 0
M  V30 5686 C 558.889 3.05042 1.64774 0
M  V30 5687 C 557.95 4.15389 1.08398 0
M  V30 5688 C 557.183 4.87909 2.16287 0
M  V30 5689 O 557.406 4.60137 3.3709 0
M  V30 5690 O 556.34 5.74254 1.80323 0
M  V30 5691 H 560.166 3.03547 -0.0963699 0
M  V30 5692 H 557.751 1.48972 -0.113043 0
M  V30 5693 H 559.633 3.52656 2.30677 0
M  V30 5694 H 558.308 2.33228 2.24469 0
M  V30 5695 H 557.215 3.72068 0.389341 0
M  V30 5696 H 558.548 4.89318 0.531829 0
M  V30 5697 N 560.2 0.0768682 1.57412 0
M  V30 5698 C 561.616 -0.279772 1.57129 0
M  V30 5699 C 561.816 -1.69688 1.08666 0
M  V30 5700 O 560.872 -2.40953 0.754843 0
M  V30 5701 C 562.185 -0.0848055 3.0058 0
M  V30 5702 C 563.733 -0.153954 3.12621 0
M  V30 5703 C 564.208 0.0127946 4.57998 0
M  V30 5704 N 565.699 -0.0426435 4.6318 0
M  V30 5705 C 566.434 0.0618892 5.73367 0
M  V30 5706 N 565.93 0.220229 6.9245 0
M  V30 5707 N 567.723 0.00446072 5.621 0
M  V30 5708 H 559.874 1.00297 1.87228 0
M  V30 5709 H 562.137 0.391565 0.863354 0
M  V30 5710 H 561.843 0.89325 3.40168 0
M  V30 5711 H 561.717 -0.834961 3.67843 0
M  V30 5712 H 564.104 -1.1225 2.72917 0
M  V30 5713 H 564.185 0.627389 2.47987 0
M  V30 5714 H 563.829 0.978128 4.98392 0
M  V30 5715 H 563.759 -0.788016 5.20671 0
M  V30 5716 H 566.25 -0.163226 3.77547 0
M  V30 5717 H 566.563 0.291999 7.72248 0
M  V30 5718 H 564.908 0.255658 6.9453 0
M  V30 5719 H 568.099 -0.117979 4.67951 0
M  V30 5720 H 568.272 0.0893796 6.47938 0
M  V30 5721 N 561.678 -1.56367 -0.196722 0
M  V30 5722 C 562.628 -1.9082 -1.24787 0
M  V30 5723 C 563.612 -0.773719 -1.41076 0
M  V30 5724 O 564.804 -1.03655 -1.43474 0
M  V30 5725 C 561.933 -2.24982 -2.59303 0
M  V30 5726 C 561.019 -3.44882 -2.46814 0
M  V30 5727 N 561.41 -4.62835 -2.04003 0
M  V30 5728 C 559.708 -3.48988 -2.77711 0
M  V30 5729 C 560.409 -5.44993 -2.03366 0
M  V30 5730 N 559.385 -4.85356 -2.44807 0
M  V30 5731 H 563.187 -2.79516 -0.908175 0
M  V30 5732 H 560.701 -1.57265 -0.405166 0
M  V30 5733 H 562.698 -2.47848 -3.35227 0
M  V30 5734 H 561.358 -1.37611 -2.94098 0
M  V30 5735 H 562.369 -4.87532 -1.74738 0
M  V30 5736 H 559.046 -2.72029 -3.16712 0
M  V30 5737 H 560.436 -6.49464 -1.72181 0
M  V30 5738 N 563.156 0.464375 -1.50603 0
M  V30 5739 C 564.386 1.23727 -1.65454 0
M  V30 5740 C 564.794 1.86119 -0.340032 0
M  V30 5741 O 564.137 1.70301 0.688706 0
M  V30 5742 C 564.199 2.38153 -2.69301 0
M  V30 5743 C 563.863 1.96345 -4.12671 0
M  V30 5744 C 564.86 1.48215 -4.98326 0
M  V30 5745 C 562.545 2.04861 -4.58625 0
M  V30 5746 C 564.539 1.09152 -6.27985 0
M  V30 5747 C 562.226 1.65409 -5.88288 0
M  V30 5748 C 563.224 1.17634 -6.72794 0
M  V30 5749 O 562.912 0.787312 -8.00035 0
M  V30 5750 H 562.644 0.380075 -0.559034 0
M  V30 5751 H 565.198 0.559919 -1.97621 0
M  V30 5752 H 563.428 3.09081 -2.32392 0
M  V30 5753 H 565.117 3.00099 -2.73304 0
M  V30 5754 H 565.883 1.41052 -4.64036 0
M  V30 5755 H 561.762 2.40996 -3.92991 0
M  V30 5756 H 565.306 0.717909 -6.93896 0
M  V30 5757 H 561.203 1.72233 -6.22098 0
M  V30 5758 H 561.971 0.915567 -8.13363 0
M  V30 5759 N 564.634 1.40294 0.718013 0
M  V30 5760 C 566.05 1.2227 1.02577 0
M  V30 5761 C 566.25 0.0961976 2.0127 0
M  V30 5762 O 565.306 -0.546695 2.46511 0
M  V30 5763 C 566.619 2.56348 1.57182 0
M  V30 5764 C 568.167 2.6334 1.69178 0
M  V30 5765 C 568.642 3.9768 2.27188 0
M  V30 5766 N 570.133 3.99409 2.34578 0
M  V30 5767 C 570.868 5.00141 2.8044 0
M  V30 5768 N 570.364 6.11268 3.26073 0
M  V30 5769 N 572.157 4.87511 2.79802 0
M  V30 5770 H 564.308 2.12304 0.0637899 0
M  V30 5771 H 566.571 0.943632 0.0909036 0
M  V30 5772 H 566.277 3.3942 0.921262 0
M  V30 5773 H 566.151 2.77266 2.55741 0
M  V30 5774 H 568.538 1.80641 2.33351 0
M  V30 5775 H 568.619 2.46255 0.692247 0
M  V30 5776 H 568.263 4.80817 1.63638 0
M  V30 5777 H 568.193 4.12093 3.27852 0
M  V30 5778 H 570.684 3.19162 2.02346 0
M  V30 5779 H 570.997 6.84023 3.59628 0
M  V30 5780 H 569.342 6.14837 3.24038 0
M  V30 5781 H 572.533 3.9979 2.43487 0
M  V30 5782 H 572.706 5.66158 3.15228 0
M  V30 5783 N 566.112 -0.949982 1.2575 0
M  V30 5784 C 567.389 -1.6718 1.01539 0
M  V30 5785 C 567.769 -2.06095 -0.456942 0
M  V30 5786 O 567.117 -1.77792 -1.43534 0
M  V30 5787 C 567.327 -2.8906 1.95564 0
M  V30 5788 C 568.675 -3.60909 2.23673 0
M  V30 5789 O 569.699 -2.9915 1.9336 0
M  V30 5790 O 568.558 -4.72127 2.75243 0
M  V30 5791 H 565.652 -0.731697 0.385419 0
M  V30 5792 H 568.198 -1.00249 1.36924 0
M  V30 5793 H 566.97 -2.57128 2.94959 0
M  V30 5794 H 566.593 -3.63719 1.60605 0
M  V30 5795 N 567.59 -1.07411 -1.15328 0
M  V30 5796 C 568.553 -0.698914 -2.18284 0
M  V30 5797 C 569.553 0.261149 -1.58665 0
M  V30 5798 O 570.743 0.0420277 -1.74149 0
M  V30 5799 C 567.875 -0.0302427 -3.40887 0
M  V30 5800 H 569.068 -1.61045 -2.52991 0
M  V30 5801 H 566.621 -0.870724 -1.298 0
M  V30 5802 H 567.356 0.893505 -3.11748 0
M  V30 5803 H 567.141 -0.720759 -3.85419 0
M  V30 5804 H 568.631 0.21759 -4.17033 0
M  V30 5805 N 569.068 1.32177 -0.85831 0
M  V30 5806 C 570.484 1.49873 -0.548656 0
M  V30 5807 C 570.684 1.79278 0.919874 0
M  V30 5808 O 569.74 1.86451 1.70271 0
M  V30 5809 C 571.053 2.64043 -1.4388 0
M  V30 5810 C 572.601 2.77928 -1.43961 0
M  V30 5811 C 573.076 3.95182 -2.31506 0
M  V30 5812 N 574.567 4.0245 -2.29321 0
M  V30 5813 C 575.302 4.9242 -2.93786 0
M  V30 5814 N 574.798 5.87373 -3.67376 0
M  V30 5815 N 576.591 4.85572 -2.83155 0
M  V30 5816 H 568.742 1.11357 -1.80868 0
M  V30 5817 H 571.005 0.549175 -0.772729 0
M  V30 5818 H 570.711 2.49055 -2.48324 0
M  V30 5819 H 570.585 3.59912 -1.12885 0
M  V30 5820 H 572.972 2.92338 -0.402813 0
M  V30 5821 H 573.053 1.82762 -1.78974 0
M  V30 5822 H 572.697 3.81531 -3.35256 0
M  V30 5823 H 572.627 4.89633 -1.93823 0
M  V30 5824 H 575.118 3.34507 -1.75822 0
M  V30 5825 H 575.431 6.52728 -4.13722 0
M  V30 5826 H 573.776 5.87388 -3.71484 0
M  V30 5827 H 576.967 4.10363 -2.25211 0
M  V30 5828 H 577.14 5.55486 -3.33676 0
M  V30 5829 N 570.547 0.616602 1.45037 0
M  V30 5830 C 571.796 0.112861 2.01384 0
M  V30 5831 C 572.109 -1.26758 1.48969 0
M  V30 5832 O 573.315 -1.86454 1.9735 0
M  V30 5833 C 571.771 0.151057 3.59583 0
M  V30 5834 C 571.379 1.53191 4.20995 0
M  V30 5835 C 573.123 -0.296974 4.2346 0
M  V30 5836 C 571.03 1.526 5.71373 0
M  V30 5837 H 569.96 0.0384254 0.75302 0
M  V30 5838 H 572.611 0.773262 1.66412 0
M  V30 5839 H 570.993 -0.57617 3.91786 0
M  V30 5840 H 572.167 2.28156 4.00352 0
M  V30 5841 H 570.482 1.92279 3.69348 0
M  V30 5842 H 573.079 -0.320712 5.33737 0
M  V30 5843 H 573.422 -1.32145 3.9477 0
M  V30 5844 H 573.955 0.377279 3.96007 0
M  V30 5845 H 570.694 2.52837 6.04776 0
M  V30 5846 H 570.214 0.819064 5.94181 0
M  V30 5847 H 571.893 1.25357 6.3474 0
M  V30 5848 N 572.025 -1.5352 0.356285 0
M  V30 5849 C 573.253 -2.05534 -0.237328 0
M  V30 5850 C 573.668 -1.23043 -1.43199 0
M  V30 5851 O 573.025 -0.268821 -1.80509 0
M  V30 5852 C 573.076 -3.55791 -0.639933 0
M  V30 5853 O 572.797 -4.35154 0.507233 0
M  V30 5854 C 574.298 -4.24027 -1.29292 0
M  V30 5855 H 571.518 -0.669585 -0.0435572 0
M  V30 5856 H 574.062 -1.97988 0.511963 0
M  V30 5857 H 572.217 -3.63518 -1.33915 0
M  V30 5858 H 572.631 -5.24178 0.18375 0
M  V30 5859 H 574.105 -5.30509 -1.52527 0
M  V30 5860 H 574.582 -3.77166 -2.25039 0
M  V30 5861 H 575.188 -4.20527 -0.63539 0
M  V30 5862 N 573.503 -0.0852151 -1.57369 0
M  V30 5863 C 574.413 0.891712 -2.16992 0
M  V30 5864 C 575.429 1.3174 -1.13669 0
M  V30 5865 O 576.605 1.38735 -1.45995 0
M  V30 5866 C 573.67 2.13635 -2.73059 0
M  V30 5867 C 572.731 1.7658 -3.91303 0
M  V30 5868 C 571.964 2.95111 -4.44686 0
M  V30 5869 O 572.187 4.09539 -3.97032 0
M  V30 5870 O 571.121 2.74149 -5.35841 0
M  V30 5871 H 574.947 0.414477 -3.00858 0
M  V30 5872 H 572.532 0.138598 -1.48756 0
M  V30 5873 H 574.414 2.86595 -3.08935 0
M  V30 5874 H 573.089 2.6043 -1.92244 0
M  V30 5875 H 571.996 1.00831 -3.60255 0
M  V30 5876 H 573.329 1.34557 -4.7345 0
M  V30 5877 N 574.981 1.5647 0.188427 0
M  V30 5878 C 576.23 1.80207 0.905995 0
M  V30 5879 C 576.543 0.659579 1.84144 0
M  V30 5880 O 577.749 0.781431 2.60011 0
M  V30 5881 C 576.205 3.19255 1.66145 0
M  V30 5882 C 575.813 4.41324 0.770504 0
M  V30 5883 C 577.557 3.52298 2.36826 0
M  V30 5884 C 575.464 5.71394 1.52521 0
M  V30 5885 H 574.394 0.671953 0.342045 0
M  V30 5886 H 577.045 1.82808 0.159164 0
M  V30 5887 H 575.427 3.10922 2.45242 0
M  V30 5888 H 576.601 4.60797 0.0177261 0
M  V30 5889 H 574.916 4.16035 0.174199 0
M  V30 5890 H 577.513 4.46715 2.93854 0
M  V30 5891 H 577.856 2.76359 3.11338 0
M  V30 5892 H 578.389 3.62108 1.6469 0
M  V30 5893 H 575.128 6.50316 0.82275 0
M  V30 5894 H 574.648 5.55928 2.25175 0
M  V30 5895 H 576.327 6.12747 2.07725 0
M  V30 5896 N 576.459 -0.456382 1.50847 0
M  V30 5897 C 577.689 -1.22848 1.66108 0
M  V30 5898 C 578.097 -1.85936 0.349897 0
M  V30 5899 O 577.44 -1.70664 -0.679665 0
M  V30 5900 C 577.502 -2.36722 2.70561 0
M  V30 5901 C 577.166 -1.94154 4.13707 0
M  V30 5902 C 578.163 -1.4557 4.99105 0
M  V30 5903 C 575.848 -2.02426 4.59705 0
M  V30 5904 C 577.842 -1.0582 6.28555 0
M  V30 5905 C 575.529 -1.62287 5.89157 0
M  V30 5906 C 576.527 -1.14064 6.73408 0
M  V30 5907 O 576.215 -0.744873 8.00442 0
M  V30 5908 H 575.947 -0.377105 0.561042 0
M  V30 5909 H 578.501 -0.549431 1.97915 0
M  V30 5910 H 576.731 -3.07844 2.34027 0
M  V30 5911 H 578.42 -2.98646 2.74892 0
M  V30 5912 H 579.186 -1.38589 4.64777 0
M  V30 5913 H 575.065 -2.38908 3.94264 0
M  V30 5914 H 578.609 -0.6811 6.94267 0
M  V30 5915 H 574.506 -1.68932 6.23003 0
M  V30 5916 H 575.274 -0.87242 8.13837 0
M  V30 5917 N 577.937 -1.40673 -0.710563 0
M  V30 5918 C 578.847 -1.43663 -1.85467 0
M  V30 5919 C 579.863 -0.328721 -1.70867 0
M  V30 5920 O 581.039 -0.574098 -1.93044 0
M  V30 5921 C 578.104 -1.30226 -3.21313 0
M  V30 5922 C 577.165 -2.51204 -3.48131 0
M  V30 5923 C 576.398 -2.38398 -4.77495 0
M  V30 5924 O 576.621 -1.40048 -5.5294 0
M  V30 5925 O 575.555 -3.2787 -5.04762 0
M  V30 5926 H 579.381 -2.40156 -1.859 0
M  V30 5927 H 576.966 -1.22049 -0.861652 0
M  V30 5928 H 578.848 -1.2496 -4.02446 0
M  V30 5929 H 577.523 -0.368419 -3.21597 0
M  V30 5930 H 576.43 -2.62048 -2.66987 0
M  V30 5931 H 577.763 -3.43366 -3.52648 0
M  V30 5932 N 579.415 0.9433 -1.26252 0
M  V30 5933 C 580.663 1.68592 -1.11451 0
M  V30 5934 C 580.984 1.91957 0.343123 0
M  V30 5935 O 580.254 1.51475 1.24226 0
M  V30 5936 H 578.834 0.624789 -0.409448 0
M  V30 5937 H 581.496 1.13351 -1.58548 0
M  V30 5938 H 580.592 2.66054 -1.63162 0
M  V30 5939 N 580.893 1.08022 1.14757 0
M  V30 5940 C 582.121 0.828847 1.89572 0
M  V30 5941 C 582.536 -0.618621 1.78377 0
M  V30 5942 O 581.893 -1.42482 1.1404 0
M  V30 5943 C 581.944 1.23677 3.39685 0
M  V30 5944 O 581.665 2.62746 3.50566 0
M  V30 5945 C 583.166 1.01569 4.31507 0
M  V30 5946 H 580.386 0.299196 0.600602 0
M  V30 5947 H 582.93 1.43846 1.45357 0
M  V30 5948 H 581.085 0.671347 3.81539 0
M  V30 5949 H 581.499 2.79573 4.43778 0
M  V30 5950 H 582.973 1.35055 5.35223 0
M  V30 5951 H 583.45 -0.0475433 4.39174 0
M  V30 5952 H 584.056 1.56636 3.95405 0
M  V30 5953 N 582.371 -1.3172 0.865308 0
M  V30 5954 C 583.596 -2.01591 0.487415 0
M  V30 5955 C 584.021 -1.6455 -0.911307 0
M  V30 5956 O 583.379 -0.851689 -1.6005 0
M  V30 5957 C 583.427 -3.54759 0.646401 0
M  V30 5958 O 582.531 -4.11185 -0.316284 0
M  V30 5959 H 581.872 -0.634884 0.194468 0
M  V30 5960 H 584.402 -1.68024 1.16744 0
M  V30 5961 H 584.412 -4.04438 0.537932 0
M  V30 5962 H 583.087 -3.8106 1.66632 0
M  V30 5963 H 581.664 -3.72543 -0.163162 0
M  V30 5964 N 583.85 -0.624285 -1.44708 0
M  V30 5965 C 584.76 0.0861083 -2.34442 0
M  V30 5966 C 585.776 0.84291 -1.5222 0
M  V30 5967 O 586.952 0.796723 -1.84971 0
M  V30 5968 C 584.017 1.05999 -3.30099 0
M  V30 5969 C 583.077 0.303316 -4.28227 0
M  V30 5970 C 582.311 1.23081 -5.19314 0
M  V30 5971 O 582.534 2.46929 -5.14181 0
M  V30 5972 O 581.468 0.71883 -5.97592 0
M  V30 5973 H 585.293 -0.651756 -2.96624 0
M  V30 5974 H 582.879 -0.384493 -1.44368 0
M  V30 5975 H 584.76 1.62046 -3.88997 0
M  V30 5976 H 583.436 1.77859 -2.70459 0
M  V30 5977 H 582.343 -0.300033 -3.72895 0
M  V30 5978 H 583.676 -0.375123 -4.90768 0
M  V30 5979 N 585.328 1.53329 -0.364422 0
M  V30 5980 C 586.577 2.00421 0.226747 0
M  V30 5981 C 586.89 1.25581 1.49963 0
M  V30 5982 O 588.096 1.63256 2.16933 0
M  V30 5983 C 586.552 3.57017 0.454618 0
M  V30 5984 C 586.16 4.40734 -0.803568 0
M  V30 5985 C 587.904 4.12468 1.00351 0
M  V30 5986 C 585.811 5.8888 -0.545345 0
M  V30 5987 H 584.741 0.748787 0.0885082 0
M  V30 5988 H 587.392 1.7703 -0.482983 0
M  V30 5989 H 585.774 3.76558 1.22558 0
M  V30 5990 H 586.948 4.32967 -1.57723 0
M  V30 5991 H 585.263 3.96381 -1.27559 0
M  V30 5992 H 587.86 5.20783 1.212 0
M  V30 5993 H 588.203 3.6699 1.9653 0
M  V30 5994 H 588.736 3.96721 0.29274 0
M  V30 5995 H 585.475 6.38633 -1.47743 0
M  V30 5996 H 584.995 5.99499 0.189842 0
M  V30 5997 H 586.674 6.46776 -0.170425 0
M  V30 5998 N 586.806 0.0935595 1.57322 0
M  V30 5999 C 587.738 -0.895923 2.10964 0
M  V30 6000 C 588.751 -1.24705 1.04654 0
M  V30 6001 O 589.94 -1.20044 1.32105 0
M  V30 6002 C 587.04 -2.20546 2.57318 0
M  V30 6003 C 586.213 -2.0299 3.87445 0
M  V30 6004 C 585.272 -3.17443 4.19662 0
M  V30 6005 O 584.298 -2.91474 4.88909 0
M  V30 6006 N 585.5 -4.43168 3.74943 0
M  V30 6007 H 588.265 -0.437788 2.96485 0
M  V30 6008 H 585.826 -0.0915863 1.61641 0
M  V30 6009 H 587.818 -2.9606 2.75917 0
M  V30 6010 H 586.388 -2.57789 1.76816 0
M  V30 6011 H 585.608 -1.11815 3.78009 0
M  V30 6012 H 586.896 -1.88535 4.7258 0
M  V30 6013 H 586.294 -4.67149 3.19043 0
M  V30 6014 H 584.851 -5.15637 3.987 0
M  V30 6015 N 588.284 -1.56567 -0.180126 0
M  V30 6016 C 589.7 -1.50488 -0.531559 0
M  V30 6017 C 589.9 -0.796267 -1.851 0
M  V30 6018 O 588.956 -0.352978 -2.50021 0
M  V30 6019 C 590.269 -2.95201 -0.572456 0
M  V30 6020 C 591.817 -3.05957 -0.660264 0
M  V30 6021 C 592.292 -4.5211 -0.732135 0
M  V30 6022 N 593.783 -4.56322 -0.795262 0
M  V30 6023 C 594.518 -5.66742 -0.871296 0
M  V30 6024 N 594.014 -6.86815 -0.908708 0
M  V30 6025 N 595.807 -5.54691 -0.909639 0
M  V30 6026 H 587.958 -2.01045 0.685165 0
M  V30 6027 H 590.221 -0.915536 0.245962 0
M  V30 6028 H 589.927 -3.50165 0.328208 0
M  V30 6029 H 589.801 -3.49369 -1.422 0
M  V30 6030 H 592.188 -2.51032 -1.55136 0
M  V30 6031 H 592.269 -2.54888 0.215783 0
M  V30 6032 H 591.913 -5.07664 0.154664 0
M  V30 6033 H 591.843 -5.00926 -1.6242 0
M  V30 6034 H 594.334 -3.69868 -0.77499 0
M  V30 6035 H 594.647 -7.66718 -0.967654 0
M  V30 6036 H 592.992 -6.89443 -0.877132 0
M  V30 6037 H 596.183 -4.59804 -0.877353 0
M  V30 6038 H 596.356 -6.40768 -0.965434 0
M  V30 6039 N 589.762 0.448376 -1.51087 0
M  V30 6040 C 590.692 1.55102 -1.74544 0
M  V30 6041 C 591.673 1.59357 -0.594932 0
M  V30 6042 O 592.858 1.75261 -0.836491 0
M  V30 6043 C 589.988 2.93268 -1.86041 0
M  V30 6044 C 588.942 3.03877 -3.01402 0
M  V30 6045 C 588.268 4.43914 -2.98068 0
M  V30 6046 C 589.568 2.7898 -4.41551 0
M  V30 6047 H 591.262 1.35724 -2.66869 0
M  V30 6048 H 588.808 0.651498 -1.28419 0
M  V30 6049 H 590.761 3.70356 -2.01034 0
M  V30 6050 H 589.485 3.13853 -0.903548 0
M  V30 6051 H 588.144 2.29227 -2.86096 0
M  V30 6052 H 587.792 4.6145 -2.00182 0
M  V30 6053 H 587.492 4.51944 -3.75527 0
M  V30 6054 H 589.016 5.22991 -3.1514 0
M  V30 6055 H 590.43 3.45805 -4.57265 0
M  V30 6056 H 588.827 2.98431 -5.20633 0
M  V30 6057 H 589.897 1.74663 -4.5235 0
M  V30 6058 N 591.24 1.41047 0.703093 0
M  V30 6059 C 592.486 1.40207 1.46526 0
M  V30 6060 C 592.819 0.00847763 1.94198 0
M  V30 6061 O 592.094 -0.962437 1.69019 0
M  V30 6062 C 592.377 2.40238 2.6825 0
M  V30 6063 C 592.23 3.88674 2.26391 0
M  V30 6064 C 593.549 2.37627 3.70434 0
M  V30 6065 H 590.668 0.510594 0.531472 0
M  V30 6066 H 593.31 1.72271 0.801422 0
M  V30 6067 H 591.46 2.13026 3.24888 0
M  V30 6068 H 593.132 4.2676 1.75138 0
M  V30 6069 H 591.375 4.03903 1.58255 0
M  V30 6070 H 592.046 4.542 3.13698 0
M  V30 6071 H 594.522 2.61759 3.23452 0
M  V30 6072 H 593.398 3.09645 4.53223 0
M  V30 6073 H 593.659 1.39223 4.19606 0
M  V30 6074 N 592.718 -0.936591 1.26751 0
M  V30 6075 C 593.967 -1.67778 1.11953 0
M  V30 6076 C 594.28 -1.92694 -0.33589 0
M  V30 6077 O 595.486 -2.64682 -0.604618 0
M  V30 6078 C 593.942 -3.02138 1.95551 0
M  V30 6079 C 593.55 -2.84953 3.45696 0
M  V30 6080 C 595.294 -3.79917 1.89377 0
M  V30 6081 C 593.201 -4.14814 4.21525 0
M  V30 6082 H 592.131 -0.629275 0.415366 0
M  V30 6083 H 594.782 -1.04122 1.51099 0
M  V30 6084 H 593.164 -3.668 1.49243 0
M  V30 6085 H 594.338 -2.29112 3.99805 0
M  V30 6086 H 592.653 -2.20612 3.53156 0
M  V30 6087 H 595.25 -4.76134 2.43312 0
M  V30 6088 H 595.593 -4.07204 0.865464 0
M  V30 6089 H 596.126 -3.22037 2.33532 0
M  V30 6090 H 592.865 -3.92709 5.24843 0
M  V30 6091 H 592.385 -4.70352 3.72195 0
M  V30 6092 H 594.064 -4.83239 4.3022 0
M  V30 6093 N 594.196 -1.08629 -1.14182 0
M  V30 6094 C 595.159 -0.722027 -2.1753 0
M  V30 6095 C 596.159 0.244305 -1.58933 0
M  V30 6096 O 597.349 0.0235545 -1.74184 0
M  V30 6097 C 594.481 -0.0663966 -3.40835 0
M  V30 6098 H 595.674 -1.63719 -2.51269 0
M  V30 6099 H 593.227 -0.884442 -1.28869 0
M  V30 6100 H 593.962 0.860389 -3.12678 0
M  V30 6101 H 593.747 -0.761598 -3.84632 0
M  V30 6102 H 595.237 0.173346 -4.1724 0
M  V30 6103 N 595.674 1.31259 -0.872281 0
M  V30 6104 C 596.922 1.96233 -0.483409 0
M  V30 6105 C 597.243 1.69276 0.968012 0
M  V30 6106 O 596.513 1.00943 1.67891 0
M  V30 6107 H 595.093 0.726025 -0.175774 0
M  V30 6108 H 597.755 1.60024 -1.11258 0
M  V30 6109 H 596.851 3.05403 -0.643075 0
M  V30 6110 N 597.152 0.631951 1.44375 0
M  V30 6111 C 598.102 -0.0943862 2.27805 0
M  V30 6112 C 599.086 -0.815359 1.38711 0
M  V30 6113 O 600.278 -0.701331 1.62513 0
M  V30 6114 C 597.407 -1.07472 3.26044 0
M  V30 6115 C 596.493 -0.353329 4.22626 0
M  V30 6116 N 596.884 0.618512 5.02004 0
M  V30 6117 C 595.182 -0.597662 4.41977 0
M  V30 6118 C 595.883 1.0448 5.7224 0
M  V30 6119 N 594.859 0.383413 5.42246 0
M  V30 6120 H 598.661 0.651672 2.86584 0
M  V30 6121 H 596.175 0.45752 1.55822 0
M  V30 6122 H 598.172 -1.60969 3.84571 0
M  V30 6123 H 596.832 -1.82107 2.68825 0
M  V30 6124 H 597.843 0.996356 5.08226 0
M  V30 6125 H 594.52 -1.32682 3.95856 0
M  V30 6126 H 595.91 1.84773 6.45994 0
M  V30 6127 N 598.631 -1.53133 0.372548 0
M  V30 6128 C 599.561 -2.28876 -0.462412 0
M  V30 6129 C 600.542 -1.31583 -1.07796 0
M  V30 6130 O 601.727 -1.60461 -1.09389 0
M  V30 6131 C 598.857 -3.08317 -1.59868 0
M  V30 6132 C 597.811 -4.13355 -1.11003 0
M  V30 6133 C 597.137 -4.8092 -2.33708 0
M  V30 6134 C 598.437 -5.21955 -0.18983 0
M  V30 6135 H 600.131 -2.9892 0.169511 0
M  V30 6136 H 597.677 -1.43761 0.0829658 0
M  V30 6137 H 599.63 -3.60055 -2.18949 0
M  V30 6138 H 598.354 -2.35976 -2.25794 0
M  V30 6139 H 597.013 -3.62573 -0.541869 0
M  V30 6140 H 596.661 -4.05144 -2.98106 0
M  V30 6141 H 596.361 -5.51904 -2.01682 0
M  V30 6142 H 597.885 -5.35455 -2.93462 0
M  V30 6143 H 599.299 -5.69153 -0.688319 0
M  V30 6144 H 597.696 -6.00087 0.0398887 0
M  V30 6145 H 598.766 -4.78811 0.766057 0
M  V30 6146 N 600.109 -0.101901 -1.5727 0
M  V30 6147 C 601.039 0.851544 -2.17419 0
M  V30 6148 C 602.02 1.28942 -1.10941 0
M  V30 6149 O 603.205 1.35509 -1.39107 0
M  V30 6150 C 600.335 2.10816 -2.75996 0
M  V30 6151 C 599.289 1.80867 -3.87906 0
M  V30 6152 C 598.615 3.13413 -4.33216 0
M  V30 6153 C 599.915 1.0903 -5.10793 0
M  V30 6154 H 601.609 0.350381 -2.97343 0
M  V30 6155 H 599.155 0.16709 -1.43027 0
M  V30 6156 H 601.108 2.77959 -3.16729 0
M  V30 6157 H 599.832 2.63227 -1.93337 0
M  V30 6158 H 598.491 1.16119 -3.47724 0
M  V30 6159 H 598.139 3.63725 -3.47438 0
M  V30 6160 H 597.839 2.94155 -5.08671 0
M  V30 6161 H 599.363 3.81704 -4.76586 0
M  V30 6162 H 600.777 1.66295 -5.48652 0
M  V30 6163 H 599.174 0.99927 -5.91722 0
M  V30 6164 H 600.244 0.0741704 -4.84843 0
M  V30 6165 N 601.587 1.56661 0.17182 0
M  V30 6166 C 603.003 1.50768 0.52357 0
M  V30 6167 C 603.203 0.806072 1.84675 0
M  V30 6168 O 602.259 0.366233 2.4983 0
M  V30 6169 C 603.572 2.955 0.556793 0
M  V30 6170 C 605.12 3.06303 0.644029 0
M  V30 6171 C 605.595 4.52492 0.708148 0
M  V30 6172 N 607.086 4.56737 0.771051 0
M  V30 6173 C 607.821 5.67196 0.841229 0
M  V30 6174 N 607.317 6.87287 0.872272 0
M  V30 6175 N 609.11 5.55165 0.88021 0
M  V30 6176 H 601.261 2.00679 -0.695817 0
M  V30 6177 H 603.524 0.914219 -0.250814 0
M  V30 6178 H 603.23 3.49986 -0.346774 0
M  V30 6179 H 603.104 3.50119 1.40346 0
M  V30 6180 H 605.491 2.51851 1.53802 0
M  V30 6181 H 605.572 2.5477 -0.229297 0
M  V30 6182 H 605.216 5.07575 -0.181585 0
M  V30 6183 H 605.146 5.01781 1.59761 0
M  V30 6184 H 607.637 3.70274 0.755364 0
M  V30 6185 H 607.95 7.6722 0.92698 0
M  V30 6186 H 606.295 6.89898 0.840557 0
M  V30 6187 H 609.486 4.60263 0.852956 0
M  V30 6188 H 609.659 6.41271 0.931439 0
M  V30 6189 N 603.065 -0.440357 1.51323 0
M  V30 6190 C 604.29 -1.21716 1.67928 0
M  V30 6191 C 604.715 -1.84328 0.374826 0
M  V30 6192 O 604.073 -1.68675 -0.664706 0
M  V30 6193 C 604.121 -2.27914 2.79442 0
M  V30 6194 O 603.225 -3.33325 2.42834 0
M  V30 6195 H 602.566 -0.35674 0.560029 0
M  V30 6196 H 605.096 -0.520417 1.97871 0
M  V30 6197 H 605.106 -2.72746 3.03436 0
M  V30 6198 H 603.781 -1.8172 3.741 0
M  V30 6199 H 602.358 -2.9399 2.294 0
M  V30 6200 N 604.543 -1.41418 -0.695603 0
M  V30 6201 C 605.773 -1.43921 -1.48224 0
M  V30 6202 C 606.181 -0.0428855 -1.89151 0
M  V30 6203 O 605.524 0.948138 -1.5734 0
M  V30 6204 C 605.586 -2.28466 -2.77567 0
M  V30 6205 C 605.25 -3.76629 -2.58844 0
M  V30 6206 C 606.247 -4.6879 -2.24793 0
M  V30 6207 C 603.932 -4.2067 -2.74485 0
M  V30 6208 C 605.926 -6.02981 -2.06622 0
M  V30 6209 C 603.613 -5.54926 -2.55931 0
M  V30 6210 C 604.611 -6.45897 -2.2205 0
M  V30 6211 O 604.299 -7.77675 -2.03657 0
M  V30 6212 H 604.031 -0.492252 -0.463318 0
M  V30 6213 H 606.585 -1.86347 -0.863952 0
M  V30 6214 H 604.815 -1.80853 -3.41802 0
M  V30 6215 H 606.504 -2.2267 -3.39371 0
M  V30 6216 H 607.27 -4.36055 -2.12323 0
M  V30 6217 H 603.149 -3.50167 -2.9984 0
M  V30 6218 H 606.693 -6.73951 -1.80099 0
M  V30 6219 H 602.59 -5.8724 -2.67991 0
M  V30 6220 H 603.358 -7.88819 -2.1842 0
M  V30 6221 N 606.021 0.929856 -1.27246 0
M  V30 6222 C 607.437 1.20542 -1.04603 0
M  V30 6223 C 607.637 2.00276 0.221754 0
M  V30 6224 O 606.693 2.34835 0.927833 0
M  V30 6225 C 608.006 1.95566 -2.28417 0
M  V30 6226 C 609.554 2.08513 -2.33433 0
M  V30 6227 C 610.029 2.86943 -3.5697 0
M  V30 6228 N 611.52 2.94512 -3.57515 0
M  V30 6229 C 612.255 3.55656 -4.49774 0
M  V30 6230 N 611.751 4.18209 -5.52334 0
M  V30 6231 N 613.544 3.53038 -4.37402 0
M  V30 6232 H 605.695 0.397113 -2.08655 0
M  V30 6233 H 607.958 0.238277 -0.917566 0
M  V30 6234 H 607.664 1.44395 -3.20691 0
M  V30 6235 H 607.538 2.9619 -2.33563 0
M  V30 6236 H 609.925 2.58872 -1.41666 0
M  V30 6237 H 610.006 1.07117 -2.32292 0
M  V30 6238 H 609.65 2.37268 -4.49072 0
M  V30 6239 H 609.58 3.8862 -3.55362 0
M  V30 6240 H 612.071 2.50053 -2.83341 0
M  V30 6241 H 612.384 4.62796 -6.18902 0
M  V30 6242 H 610.729 4.16761 -5.56179 0
M  V30 6243 H 613.92 3.0337 -3.56489 0
M  V30 6244 H 614.093 4.004 -5.09493 0
M  V30 6245 N 607.499 1.09233 1.13605 0
M  V30 6246 C 608.724 0.849067 1.89224 0
M  V30 6247 C 609.149 -0.593875 1.78479 0
M  V30 6248 O 608.507 -1.41703 1.13092 0
M  V30 6249 C 608.555 1.28642 3.36873 0
M  V30 6250 O 607.659 0.44363 4.10007 0
M  V30 6251 H 607 0.30767 0.588417 0
M  V30 6252 H 609.53 1.45595 1.43748 0
M  V30 6253 H 609.54 1.27096 3.87699 0
M  V30 6254 H 608.215 2.33729 3.44011 0
M  V30 6255 H 606.792 0.523241 3.69211 0
M  V30 6256 O 609.016 -1.25824 1.01246 0
M  V30 6257 H 609.707 -1.81718 0.670699 0
M  V30 END ATOM
M  V30 BEGIN BOND
M  V30 END BOND
M  V30 END CTAB
M  END
$$$$
