drugbank_target|Q14003 Potassium voltage-gated channel subfamily C member 3 (DB00228; DB01069; DB01110)
 OpenBabel12092120583D

  0  0  0     0  0            999 V3000
M  V30 BEGIN CTAB
M  V30 COUNTS 11243 11437 0 0 0
M  V30 BEGIN ATOM
M  V30 1 H -0.908 1.98254 -0.117106 0
M  V30 2 N 0 1.576 0 0
M  V30 3 C 0.933 2.03868 1.02534 0
M  V30 4 C 1.911 0.928543 1.3348 0
M  V30 5 O 3.095 1.19667 1.45644 0
M  V30 6 C 0.222 2.43627 2.35294 0
M  V30 7 C -0.732 3.65373 2.2001 0
M  V30 8 S 0.101 5.13292 1.52614 0
M  V30 9 C 1.257 5.56322 2.86805 0
M  V30 10 H 1.49 2.90518 0.631377 0
M  V30 11 H -0.977 1.52953 0.210867 0
M  V30 12 H 0.981 2.67203 3.11629 0
M  V30 13 H -0.358 1.57376 2.7183 0
M  V30 14 H -1.165 3.90944 3.18086 0
M  V30 15 H -1.563 3.418 1.51819 0
M  V30 16 H 0.729 5.58782 3.83104 0
M  V30 17 H 1.672 6.56266 2.65933 0
M  V30 18 H 2.08 4.83886 2.90714 0
M  V30 19 N 1.4781 -0.272755 1.55222 0
M  V30 20 C 2.4081 -1.34136 1.91127 0
M  V30 21 C 3.3891 -1.51513 0.773168 0
M  V30 22 O 4.5741 -1.64552 1.03132 0
M  V30 23 C 1.7041 -2.70083 2.1834 0
M  V30 24 C 0.6581 -2.67437 3.34158 0
M  V30 25 C -0.0159 -4.06938 3.46851 0
M  V30 26 C 1.2841 -2.26686 4.70543 0
M  V30 27 H 2.9781 -1.04333 2.80633 0
M  V30 28 H 0.5241 -0.500454 1.35024 0
M  V30 29 H 2.4771 -3.44952 2.42046 0
M  V30 30 H 1.2011 -3.01469 1.25634 0
M  V30 31 H -0.1399 -1.95026 3.1042 0
M  V30 32 H -0.4919 -4.35547 2.51611 0
M  V30 33 H -0.7919 -4.06062 4.2472 0
M  V30 34 H 0.7321 -4.83545 3.72849 0
M  V30 35 H 2.1461 -2.91277 4.93792 0
M  V30 36 H 0.5431 -2.36971 5.5133 0
M  V30 37 H 1.6131 -1.21818 4.69349 0
M  V30 38 N 2.9562 -1.48159 -0.537278 0
M  V30 39 C 4.1812 -1.59707 -1.32319 0
M  V30 40 C 4.6062 -0.254859 -1.86365 0
M  V30 41 O 3.9642 0.772378 -1.64024 0
M  V30 42 C 4.0122 -2.6412 -2.45505 0
M  V30 43 O 3.1162 -2.20774 -3.48328 0
M  V30 44 H 2.4572 -0.535791 -0.392204 0
M  V30 45 H 4.9872 -1.94092 -0.647268 0
M  V30 46 H 4.9972 -2.85166 -2.91795 0
M  V30 47 H 3.6722 -3.61567 -2.05528 0
M  V30 48 H 2.2492 -2.09911 -3.08207 0
M  V30 49 N 4.4343 0.785586 -1.36625 0
M  V30 50 C 5.6593 1.57963 -1.34397 0
M  V30 51 C 6.0843 1.87964 0.071526 0
M  V30 52 O 5.4423 1.48182 1.0446 0
M  V30 53 C 5.4903 2.87511 -2.17646 0
M  V30 54 O 4.5943 3.81281 -1.57158 0
M  V30 55 H 3.9353 0.479014 -0.459828 0
M  V30 56 H 6.4653 0.973411 -1.79961 0
M  V30 57 H 6.4753 3.36745 -2.30362 0
M  V30 58 H 5.1503 2.65002 -3.20541 0
M  V30 59 H 3.7273 3.39885 -1.53403 0
M  V30 60 N 5.9124 1.20967 1.01018 0
M  V30 61 C 7.1584 1.02526 1.74975 0
M  V30 62 C 7.4914 -0.4408 1.89131 0
M  V30 63 O 6.7664 -1.32718 1.42184 0
M  V30 64 C 7.0494 1.71699 3.1653 0
M  V30 65 C 6.9024 3.25791 3.10129 0
M  V30 66 C 8.2214 1.45531 4.15342 0
M  V30 67 H 5.3404 0.373863 0.635134 0
M  V30 68 H 7.9824 1.49071 1.17805 0
M  V30 69 H 6.1324 1.32128 3.65341 0
M  V30 70 H 7.8044 3.74697 2.69072 0
M  V30 71 H 6.0474 3.56363 2.47362 0
M  V30 72 H 6.7184 3.69353 4.10222 0
M  V30 73 H 9.1944 1.79872 3.75213 0
M  V30 74 H 8.0704 1.96453 5.1254 0
M  V30 75 H 8.3314 0.384237 4.40427 0
M  V30 76 N 7.3905 -1.2043 1.01659 0
M  V30 77 C 8.6305 -1.91507 0.714456 0
M  V30 78 C 8.9945 -1.77073 -0.742237 0
M  V30 79 O 10.1955 -2.42631 -1.15688 0
M  V30 80 C 8.4665 -3.38795 1.13809 0
M  V30 81 S 10.0255 -4.28216 0.957925 0
M  V30 82 H 6.8435 -0.661571 0.260471 0
M  V30 83 H 9.4455 -1.45671 1.30384 0
M  V30 84 H 8.1495 -3.46822 2.19415 0
M  V30 85 H 7.6805 -3.89656 0.541474 0
M  V30 86 H 9.6955 -4.96007 -0.138531 0
M  V30 87 N 8.8686 -0.792821 -1.36206 0
M  V30 88 C 10.1146 -0.36733 -1.99446 0
M  V30 89 C 10.4476 1.05917 -1.62774 0
M  V30 90 O 9.7226 1.7324 -0.88421 0
M  V30 91 C 10.0056 -0.535044 -3.56103 0
M  V30 92 C 9.8586 -2.00548 -4.02617 0
M  V30 93 C 11.1776 0.0478191 -4.40074 0
M  V30 94 H 8.2966 -0.134941 -0.724541 0
M  V30 95 H 10.9386 -0.999794 -1.61568 0
M  V30 96 H 9.0886 0.00336329 -3.885 0
M  V30 97 H 10.7606 -2.60521 -3.80692 0
M  V30 98 H 9.0036 -2.50686 -3.54032 0
M  V30 99 H 9.6746 -2.07377 -5.11565 0
M  V30 100 H 12.1506 -0.411822 -4.14057 0
M  V30 101 H 11.0266 -0.0995336 -5.4881 0
M  V30 102 H 11.2876 1.14025 -4.27142 0
M  V30 103 N 10.3467 1.47872 -0.545128 0
M  V30 104 C 11.5717 2.07391 -0.0190611 0
M  V30 105 C 11.9967 1.39688 1.25971 0
M  V30 106 O 11.3547 0.467816 1.7516 0
M  V30 107 C 11.4027 3.60188 0.172335 0
M  V30 108 O 10.5067 3.9339 1.23766 0
M  V30 109 H 9.8477 0.662411 -0.0459059 0
M  V30 110 H 12.3777 1.90066 -0.757365 0
M  V30 111 H 12.3877 4.06129 0.390305 0
M  V30 112 H 11.0627 4.08865 -0.761725 0
M  V30 113 H 9.6397 3.5921 1.00114 0
M  V30 114 N 11.8248 0.280983 1.55075 0
M  V30 115 C 13.0498 -0.340154 2.04592 0
M  V30 116 C 13.4748 -1.48246 1.15779 0
M  V30 117 O 12.8328 -1.80614 0.15761 0
M  V30 118 C 12.8808 -0.793104 3.5177 0
M  V30 119 O 11.9848 -1.89981 3.66034 0
M  V30 120 H 11.3258 -0.0694289 0.66036 0
M  V30 121 H 13.8558 0.416993 2.00306 0
M  V30 122 H 13.8658 -1.08729 3.93245 0
M  V30 123 H 12.5408 0.0426163 4.15878 0
M  V30 124 H 11.1178 -1.60771 3.36463 0
M  V30 125 N 13.3029 -1.57598 0.00835791 0
M  V30 126 C 14.5499 -1.90928 -0.674732 0
M  V30 127 C 14.8779 -0.88277 -1.73313 0
M  V30 128 O 14.1329 0.111294 -1.95383 0
M  V30 129 C 14.4319 -3.3101 -1.34787 0
M  V30 130 C 14.0979 -4.48922 -0.421861 0
M  V30 131 C 12.7599 -4.8091 -0.166927 0
M  V30 132 C 15.1119 -5.20755 0.215211 0
M  V30 133 C 12.4399 -5.821 0.733232 0
M  V30 134 C 14.7919 -6.22905 1.1033 0
M  V30 135 C 13.4559 -6.53346 1.36733 0
M  V30 136 H 12.7259 -0.698656 -0.246902 0
M  V30 137 H 15.3729 -1.91387 0.0656779 0
M  V30 138 H 13.6779 -3.26714 -2.16253 0
M  V30 139 H 15.3749 -3.54061 -1.8826 0
M  V30 140 H 11.9649 -4.23934 -0.630729 0
M  V30 141 H 16.1489 -4.9629 0.0312829 0
M  V30 142 H 11.4049 -6.04042 0.945712 0
M  V30 143 H 15.5789 -6.77694 1.60325 0
M  V30 144 H 13.2059 -7.31573 2.06652 0
M  V30 145 N 14.781 0.264519 -1.55364 0
M  V30 146 C 16.197 0.61215 -1.47394 0
M  V30 147 C 16.397 1.89134 -0.695018 0
M  V30 148 O 15.453 2.51563 -0.217275 0
M  V30 149 C 16.766 0.731235 -2.91674 0
M  V30 150 C 18.314 0.82473 -3.01939 0
M  V30 151 C 18.789 0.975522 -4.4749 0
M  V30 152 N 20.28 1.04083 -4.51354 0
M  V30 153 C 21.015 1.17646 -5.61201 0
M  V30 154 N 20.511 1.27874 -6.80896 0
M  V30 155 N 22.304 1.20823 -5.48961 0
M  V30 156 H 14.455 -0.575456 -2.04456 0
M  V30 157 H 16.718 -0.196099 -0.927496 0
M  V30 158 H 16.424 -0.138392 -3.51428 0
M  V30 159 H 16.298 1.60883 -3.41169 0
M  V30 160 H 18.685 1.68482 -2.42276 0
M  V30 161 H 18.766 -0.0776479 -2.55682 0
M  V30 162 H 18.41 0.120058 -5.07758 0
M  V30 163 H 18.34 1.89268 -4.91412 0
M  V30 164 H 20.831 0.973846 -3.65136 0
M  V30 165 H 21.144 1.38081 -7.60364 0
M  V30 166 H 19.489 1.24863 -6.83692 0
M  V30 167 H 22.68 1.12469 -4.54388 0
M  V30 168 H 22.853 1.31049 -6.3461 0
M  V30 169 N 16.2591 1.48442 0.529413 0
M  V30 170 C 17.5071 1.56179 1.28267 0
M  V30 171 C 17.8281 0.237721 1.93546 0
M  V30 172 O 17.0981 -0.740779 1.81354 0
M  V30 173 H 15.6781 0.575367 0.476405 0
M  V30 174 H 18.3401 1.84909 0.61602 0
M  V30 175 H 17.4361 2.34312 2.06165 0
M  V30 176 N 17.7372 -0.778329 1.37039 0
M  V30 177 C 19.1532 -1.07796 1.17695 0
M  V30 178 C 19.3532 -2.01498 0.00860115 0
M  V30 179 O 18.4092 -2.43901 -0.653352 0
M  V30 180 C 19.7222 -1.68178 2.49272 0
M  V30 181 C 21.2702 -1.80467 2.55735 0
M  V30 182 C 21.7452 -2.44263 3.87427 0
M  V30 183 N 23.2362 -2.51721 3.88833 0
M  V30 184 C 23.9712 -3.01919 4.87476 0
M  V30 185 N 23.4672 -3.5234 5.96513 0
M  V30 186 N 25.2602 -3.00733 4.74885 0
M  V30 187 H 17.4112 -0.156032 2.11826 0
M  V30 188 H 19.6742 -0.131844 0.938787 0
M  V30 189 H 19.3802 -1.06796 3.35093 0
M  V30 190 H 19.2542 -2.67554 2.65885 0
M  V30 191 H 21.6412 -2.40984 1.70325 0
M  V30 192 H 21.7222 -0.798656 2.43013 0
M  V30 193 H 21.3662 -1.84388 4.73248 0
M  V30 194 H 21.2962 -3.45458 3.9745 0
M  V30 195 H 23.7872 -2.1603 3.10063 0
M  V30 196 H 24.1002 -3.89027 6.67741 0
M  V30 197 H 22.4452 -3.50462 6.00168 0
M  V30 198 H 25.6362 -2.60638 3.88826 0
M  V30 199 H 25.8092 -3.39545 5.51918 0
M  V30 200 N 19.2153 -1.21501 -1.00376 0
M  V30 201 C 20.1473 -0.933174 -2.09343 0
M  V30 202 C 21.1603 0.0840896 -1.62583 0
M  V30 203 O 22.3493 -0.148563 -1.77881 0
M  V30 204 C 19.4493 -0.379869 -3.36764 0
M  V30 205 C 18.6223 -1.45176 -4.12605 0
M  V30 206 C 17.6813 -0.907476 -5.18316 0
M  V30 207 O 16.7073 -1.5912 -5.46507 0
M  V30 208 N 17.9093 0.276649 -5.7984 0
M  V30 209 H 20.6743 -1.87124 -2.34104 0
M  V30 210 H 18.2353 -1.12043 -1.16867 0
M  V30 211 H 20.2273 -0.00131488 -4.047 0
M  V30 212 H 18.7973 0.463048 -3.09151 0
M  V30 213 H 18.0173 -2.00411 -3.39454 0
M  V30 214 H 19.3053 -2.17328 -4.6005 0
M  V30 215 H 18.7033 0.849147 -5.59291 0
M  V30 216 H 17.2603 0.596702 -6.49063 0
M  V30 217 N 20.6934 1.19889 -1.02296 0
M  V30 218 C 21.9414 1.89046 -0.714558 0
M  V30 219 C 22.2624 1.79636 0.758681 0
M  V30 220 O 21.5324 1.20292 1.54618 0
M  V30 221 H 20.1124 0.699802 -0.261317 0
M  V30 222 H 22.7744 1.45574 -1.29592 0
M  V30 223 H 21.8704 2.95524 -1.0036 0
M  V30 224 N 22.1715 0.800033 1.35784 0
M  V30 225 C 23.1345 0.211565 2.28221 0
M  V30 226 C 24.1345 -0.59728 1.49296 0
M  V30 227 O 25.3245 -0.416721 1.69142 0
M  V30 228 C 22.4565 -0.705846 3.33513 0
M  V30 229 H 23.6495 1.02677 2.81776 0
M  V30 230 H 21.2025 0.570211 1.45528 0
M  V30 231 H 21.9375 -1.54498 2.85133 0
M  V30 232 H 21.7225 -0.127655 3.91892 0
M  V30 233 H 23.2125 -1.11211 4.02519 0
M  V30 234 N 23.6496 -1.47581 0.552962 0
M  V30 235 C 24.8746 -2.07378 0.0300593 0
M  V30 236 C 25.2996 -1.40355 -1.25229 0
M  V30 237 O 24.6576 -0.477099 -1.7491 0
M  V30 238 C 24.7056 -3.60274 -0.153231 0
M  V30 239 O 23.8096 -3.94041 -1.21678 0
M  V30 240 H 23.1506 -0.662158 0.0494182 0
M  V30 241 H 25.6806 -1.89662 0.767434 0
M  V30 242 H 25.6906 -4.0633 -0.368761 0
M  V30 243 H 24.3656 -4.08455 0.783397 0
M  V30 244 H 22.9426 -3.59735 -0.982079 0
M  V30 245 N 25.1277 -0.289203 -1.54924 0
M  V30 246 C 26.0747 0.592115 -2.23075 0
M  V30 247 C 27.0447 1.13881 -1.20915 0
M  V30 248 O 28.2297 1.18551 -1.495 0
M  V30 249 C 25.3697 1.76376 -2.96623 0
M  V30 250 C 24.4827 1.24959 -4.13533 0
M  V30 251 C 23.6177 2.38416 -4.74691 0
M  V30 252 C 22.6567 1.84072 -5.83767 0
M  V30 253 N 21.7937 2.91057 -6.38929 0
M  V30 254 H 26.6337 0.00432038 -2.98 0
M  V30 255 H 24.1707 -0.00963529 -1.47097 0
M  V30 256 H 26.1287 2.45268 -3.3749 0
M  V30 257 H 24.7587 2.32337 -2.24097 0
M  V30 258 H 23.8107 0.453307 -3.77689 0
M  V30 259 H 25.1227 0.811662 -4.92152 0
M  V30 260 H 24.2767 3.15276 -5.18349 0
M  V30 261 H 23.0157 2.8553 -3.95378 0
M  V30 262 H 22.0207 1.05697 -5.39545 0
M  V30 263 H 23.2457 1.37877 -6.64956 0
M  V30 264 H 21.1917 3.37526 -5.62505 0
M  V30 265 H 21.1087 2.51724 -7.12861 0
M  V30 266 H 22.3767 3.6785 -6.87246 0
M  V30 267 N 26.6058 1.57591 -0.0167156 0
M  V30 268 C 27.5378 2.06343 0.997753 0
M  V30 269 C 28.5508 0.984469 1.29661 0
M  V30 270 O 29.7398 1.26093 1.26344 0
M  V30 271 C 26.8398 2.46255 2.32834 0
M  V30 272 C 26.0128 3.77083 2.21646 0
M  V30 273 C 25.0718 4.0368 3.37534 0
M  V30 274 O 24.0978 4.7411 3.14973 0
M  V30 275 N 25.2998 3.52881 4.60929 0
M  V30 276 H 28.0648 2.93997 0.581875 0
M  V30 277 H 25.6258 1.61002 0.170316 0
M  V30 278 H 27.6178 2.61149 3.09166 0
M  V30 279 H 26.1878 1.64032 2.66106 0
M  V30 280 H 25.4078 3.72106 1.30119 0
M  V30 281 H 26.6958 4.62822 2.11361 0
M  V30 282 H 26.0938 2.95878 4.82154 0
M  V30 283 H 24.6508 3.73076 5.34469 0
M  V30 284 N 28.0839 -0.256276 1.55502 0
M  V30 285 C 29.0159 -1.33981 1.85962 0
M  V30 286 C 30.0289 -1.44743 0.745212 0
M  V30 287 O 31.2179 -1.4626 1.02324 0
M  V30 288 C 28.3179 -2.7194 2.02242 0
M  V30 289 C 27.4909 -2.83562 3.33033 0
M  V30 290 C 26.5499 -4.02304 3.39172 0
M  V30 291 O 25.5759 -3.92273 4.12444 0
M  V30 292 N 26.7779 -5.15045 2.67784 0
M  V30 293 H 29.5429 -1.08191 2.7949 0
M  V30 294 H 27.1039 -0.446388 1.55624 0
M  V30 295 H 29.0959 -3.49697 2.03701 0
M  V30 296 H 27.6659 -2.90479 1.15502 0
M  V30 297 H 26.8859 -1.92555 3.43971 0
M  V30 298 H 28.1739 -2.88271 4.19258 0
M  V30 299 H 27.5719 -5.26085 2.07968 0
M  V30 300 H 26.1289 -5.90972 2.74947 0
M  V30 301 N 29.562 -1.4872 -0.521534 0
M  V30 302 C 30.973 -1.50607 -1.10337 0
M  V30 303 C 31.324 -0.280612 -1.94183 0
M  V30 304 O 30.449 0.611507 -2.0758 0
M  V30 305 C 31.044 -2.72903 -2.00772 0
M  V30 306 C 29.603 -2.77634 -2.54158 0
M  V30 307 C 28.75 -2.44241 -1.31307 0
M  V30 308 H 31.701 -1.55714 -0.306388 0
M  V30 309 H 31.722 -2.519 -2.85178 0
M  V30 310 H 31.234 -3.62077 -1.39721 0
M  V30 311 H 29.335 -1.92689 -3.18907 0
M  V30 312 H 29.448 -3.79283 -2.92714 0
M  V30 313 H 27.812 -1.95577 -1.63161 0
M  V30 314 H 28.595 -3.35666 -0.719943 0
M  V30 315 N 31.0401 0.771051 -1.3745 0
M  V30 316 C 32.0031 1.86598 -1.33093 0
M  V30 317 C 33.0031 1.59076 -0.234845 0
M  V30 318 O 34.1931 1.67145 -0.490732 0
M  V30 319 C 31.3251 3.23747 -1.06773 0
M  V30 320 H 32.5181 1.91873 -2.30488 0
M  V30 321 H 30.0711 0.970876 -1.2249 0
M  V30 322 H 30.8061 3.24148 -0.099129 0
M  V30 323 H 30.5911 3.45115 -1.86112 0
M  V30 324 H 32.0811 4.03824 -1.06377 0
M  V30 325 N 32.5182 1.22032 0.997298 0
M  V30 326 C 33.9292 1.0397 1.55071 0
M  V30 327 C 34.2802 -0.398192 1.92117 0
M  V30 328 O 33.4052 -1.28254 1.74298 0
M  V30 329 C 34.0002 1.88109 2.81781 0
M  V30 330 C 32.5592 1.74357 3.33581 0
M  V30 331 C 31.7062 1.84846 2.06706 0
M  V30 332 H 34.6572 1.35941 0.818883 0
M  V30 333 H 34.6782 1.39589 3.53971 0
M  V30 334 H 34.1902 2.92754 2.54787 0
M  V30 335 H 32.2912 0.72427 3.65493 0
M  V30 336 H 32.4042 2.56772 4.04481 0
M  V30 337 H 30.7682 1.28238 2.20062 0
M  V30 338 H 31.5512 2.91014 1.82114 0
M  V30 339 N 33.9963 -1.19345 1.0293 0
M  V30 340 C 35.4073 -1.70725 0.755633 0
M  V30 341 C 35.7583 -1.82326 -0.724676 0
M  V30 342 O 34.8833 -1.49471 -1.56484 0
M  V30 343 C 35.4783 -3.10084 1.36503 0
M  V30 344 C 34.0373 -3.58723 1.13994 0
M  V30 345 C 33.1843 -2.35577 1.46283 0
M  V30 346 H 36.1353 -1.0418 1.19718 0
M  V30 347 H 36.1563 -3.72787 0.762217 0
M  V30 348 H 35.6683 -3.01609 2.44241 0
M  V30 349 H 33.7693 -3.72512 0.0807901 0
M  V30 350 H 33.8823 -4.42816 1.82894 0
M  V30 351 H 32.2463 -2.38935 0.88217 0
M  V30 352 H 33.0293 -2.29731 2.55105 0
M  V30 353 N 35.4744 -0.807222 -1.35358 0
M  V30 354 C 36.8854 -0.44876 -1.81226 0
M  V30 355 C 37.2364 1.02929 -1.67033 0
M  V30 356 O 36.3614 1.79991 -1.20133 0
M  V30 357 C 36.9564 -0.807774 -3.2903 0
M  V30 358 C 35.5154 -0.501901 -3.73039 0
M  V30 359 C 34.6624 -1.03304 -2.57339 0
M  V30 360 H 37.6134 -0.998808 -1.23327 0
M  V30 361 H 37.6344 -0.10554 -3.80354 0
M  V30 362 H 37.1464 -1.88357 -3.39328 0
M  V30 363 H 35.2474 0.565128 -3.68289 0
M  V30 364 H 35.3604 -1.03497 -4.67787 0
M  V30 365 H 33.7244 -0.455339 -2.50597 0
M  V30 366 H 34.5074 -2.11496 -2.70415 0
M  V30 367 N 36.9525 1.47285 -0.560781 0
M  V30 368 C 37.8845 2.28118 0.222438 0
M  V30 369 C 38.8975 1.37219 0.876056 0
M  V30 370 O 40.0865 1.62011 0.749307 0
M  V30 371 C 37.1865 3.1159 1.33285 0
M  V30 372 C 36.3595 4.30473 0.77534 0
M  V30 373 C 35.4185 4.95513 1.77069 0
M  V30 374 O 34.4445 5.53792 1.31539 0
M  V30 375 N 35.6465 4.90531 3.10418 0
M  V30 376 H 38.4115 2.95976 -0.470958 0
M  V30 377 H 35.9725 1.56955 -0.39709 0
M  V30 378 H 37.9645 3.51967 1.99752 0
M  V30 379 H 36.5345 2.45951 1.92943 0
M  V30 380 H 35.7545 3.94144 -0.0662113 0
M  V30 381 H 37.0425 5.07362 0.382272 0
M  V30 382 H 36.4405 4.44389 3.5005 0
M  V30 383 H 34.9975 5.34917 3.72434 0
M  V30 384 N 38.4306 0.297415 1.54768 0
M  V30 385 C 39.8416 -0.195947 1.85669 0
M  V30 386 C 40.1926 -1.53707 1.21937 0
M  V30 387 O 39.3176 -2.10164 0.515754 0
M  V30 388 C 39.9126 -0.362318 3.36857 0
M  V30 389 C 38.4716 -0.799901 3.67802 0
M  V30 390 C 37.6186 0.0938578 2.77141 0
M  V30 391 H 40.5696 0.518538 1.4999 0
M  V30 392 H 40.5906 -1.19745 3.61167 0
M  V30 393 H 40.1026 0.613921 3.83214 0
M  V30 394 H 38.2036 -1.78682 3.26961 0
M  V30 395 H 38.3166 -0.621773 4.75048 0
M  V30 396 H 36.6806 -0.426254 2.51108 0
M  V30 397 H 37.4636 1.06639 3.26318 0
M  V30 398 N 39.9087 -1.5758 0.0250728 0
M  V30 399 C 41.3197 -1.79476 -0.514323 0
M  V30 400 C 41.6707 -0.934956 -1.72491 0
M  V30 401 O 40.7957 -0.144245 -2.15919 0
M  V30 402 C 41.3907 -3.25503 -0.939842 0
M  V30 403 C 39.9497 -3.48408 -1.42438 0
M  V30 404 C 39.0967 -2.74583 -0.387201 0
M  V30 405 H 42.0477 -1.567 0.25113 0
M  V30 406 H 42.0687 -3.34992 -1.80445 0
M  V30 407 H 41.5807 -3.88056 -0.0585628 0
M  V30 408 H 39.6817 -2.91103 -2.32572 0
M  V30 409 H 39.7947 -4.57119 -1.43455 0
M  V30 410 H 38.1587 -2.39942 -0.854409 0
M  V30 411 H 38.9417 -3.39849 0.485543 0
M  V30 412 N 41.3868 0.248026 -1.55636 0
M  V30 413 C 42.2968 1.32859 -1.93354 0
M  V30 414 C 43.3128 1.52719 -0.833838 0
M  V30 415 O 44.4888 1.66363 -1.13513 0
M  V30 416 C 41.5538 2.66337 -2.21958 0
M  V30 417 C 40.6148 2.55008 -3.45354 0
M  V30 418 C 39.8478 3.82121 -3.72584 0
M  V30 419 O 40.0708 4.83951 -3.01907 0
M  V30 420 O 39.0048 3.80822 -4.6611 0
M  V30 421 H 42.8308 1.03862 -2.85388 0
M  V30 422 H 40.4158 0.448686 -1.42503 0
M  V30 423 H 42.2978 3.45216 -2.4167 0
M  V30 424 H 40.9728 2.95068 -1.33103 0
M  V30 425 H 39.8798 1.7442 -3.30951 0
M  V30 426 H 41.2128 2.31222 -4.34508 0
M  V30 427 N 42.8649 1.48995 0.513639 0
M  V30 428 C 44.0899 1.61792 1.29762 0
M  V30 429 C 44.5149 0.284475 1.85936 0
M  V30 430 O 43.8729 -0.746185 1.65232 0
M  V30 431 C 43.9209 2.67993 2.41272 0
M  V30 432 O 43.0249 2.26287 3.44772 0
M  V30 433 H 42.3659 0.541963 0.38363 0
M  V30 434 H 44.8959 1.95097 0.616307 0
M  V30 435 H 44.9059 2.89772 2.87221 0
M  V30 436 H 43.5809 3.64791 1.9975 0
M  V30 437 H 42.1579 2.14788 3.04829 0
M  V30 438 N 44.343 -0.763751 1.37857 0
M  V30 439 C 45.754 -1.3405 1.29952 0
M  V30 440 C 46.105 -1.96138 -0.0492898 0
M  V30 441 O 45.23 -1.94372 -0.951239 0
M  V30 442 C 45.825 -2.43729 2.35333 0
M  V30 443 C 44.384 -2.97151 2.31037 0
M  V30 444 C 43.531 -1.70438 2.18738 0
M  V30 445 H 46.482 -0.563396 1.48363 0
M  V30 446 H 46.503 -3.23412 2.00462 0
M  V30 447 H 46.015 -1.9851 3.33489 0
M  V30 448 H 44.116 -3.46724 1.3643 0
M  V30 449 H 44.229 -3.52221 3.24772 0
M  V30 450 H 42.593 -1.93673 1.65418 0
M  V30 451 H 43.376 -1.27312 3.18821 0
M  V30 452 N 45.8211 -1.22559 -0.990812 0
M  V30 453 C 47.2321 -1.04791 -1.54518 0
M  V30 454 C 47.5831 0.387998 -1.92325 0
M  V30 455 O 46.7081 1.27328 -1.74976 0
M  V30 456 C 47.3031 -1.896 -2.80779 0
M  V30 457 C 45.8621 -1.76124 -3.32652 0
M  V30 458 C 45.0091 -1.8594 -2.05722 0
M  V30 459 H 47.9601 -1.36374 -0.811662 0
M  V30 460 H 47.9811 -1.41464 -3.53225 0
M  V30 461 H 47.4931 -2.94101 -2.53231 0
M  V30 462 H 45.5941 -0.743643 -3.65104 0
M  V30 463 H 45.7071 -2.58913 -4.03114 0
M  V30 464 H 44.0711 -1.29403 -2.19379 0
M  V30 465 H 44.8541 -2.91976 -1.80568 0
M  V30 466 N 47.2992 1.18797 -1.03562 0
M  V30 467 C 48.7102 1.70322 -0.764676 0
M  V30 468 C 49.0612 1.82708 0.714996 0
M  V30 469 O 48.1862 1.50299 1.55689 0
M  V30 470 C 48.7812 3.09356 -1.38145 0
M  V30 471 C 47.3402 3.58114 -1.15895 0
M  V30 472 C 46.4872 2.34798 -1.4753 0
M  V30 473 H 49.4382 1.03543 -1.20268 0
M  V30 474 H 49.4592 3.72378 -0.781977 0
M  V30 475 H 48.9712 3.00309 -2.45837 0
M  V30 476 H 47.0722 3.72464 -0.100544 0
M  V30 477 H 47.1852 4.4184 -1.8524 0
M  V30 478 H 45.5492 2.38464 -0.894829 0
M  V30 479 H 46.3322 2.28375 -2.56319 0
M  V30 480 N 48.7773 0.814389 1.34928 0
M  V30 481 C 50.1883 0.458364 1.80986 0
M  V30 482 C 50.5393 -1.02042 1.67577 0
M  V30 483 O 49.6643 -1.79352 1.21086 0
M  V30 484 C 50.2593 0.825212 3.28597 0
M  V30 485 C 48.8183 0.521677 3.72767 0
M  V30 486 C 47.9653 1.04668 2.56788 0
M  V30 487 H 50.9163 1.00533 1.22795 0
M  V30 488 H 50.9373 0.12571 3.80292 0
M  V30 489 H 50.4493 1.90154 3.38324 0
M  V30 490 H 48.5503 -0.545589 3.68584 0
M  V30 491 H 48.6633 1.05977 4.67232 0
M  V30 492 H 47.0273 0.468622 2.50352 0
M  V30 493 H 47.8103 2.12927 2.6929 0
M  V30 494 N 50.2554 -1.46986 0.568584 0
M  V30 495 C 51.6664 -1.86188 0.138219 0
M  V30 496 C 52.0174 -1.47388 -1.29504 0
M  V30 497 O 51.1424 -0.88219 -1.97602 0
M  V30 498 C 51.7374 -3.3792 0.244065 0
M  V30 499 C 50.2964 -3.76171 -0.131335 0
M  V30 500 C 49.4434 -2.71027 0.586465 0
M  V30 501 H 52.3944 -1.38342 0.777645 0
M  V30 502 H 52.4154 -3.76729 -0.534351 0
M  V30 503 H 51.9274 -3.66128 1.28731 0
M  V30 504 H 50.0284 -3.5358 -1.17526 0
M  V30 505 H 50.1414 -4.78523 0.235146 0
M  V30 506 H 48.5054 -2.54684 0.0282722 0
M  V30 507 H 49.2884 -3.02077 1.63109 0
M  V30 508 N 51.7335 -0.305618 -1.54608 0
M  V30 509 C 52.6635 0.561482 -2.26649 0
M  V30 510 C 53.6445 1.13415 -1.26772 0
M  V30 511 O 54.8295 1.16262 -1.55553 0
M  V30 512 C 51.9595 1.73122 -3.01075 0
M  V30 513 C 50.9135 1.2887 -4.08138 0
M  V30 514 C 50.2395 2.54396 -4.70305 0
M  V30 515 C 51.5395 0.416578 -5.20636 0
M  V30 516 H 53.2335 -0.0393902 -2.99374 0
M  V30 517 H 50.7795 -0.020385 -1.43986 0
M  V30 518 H 52.7325 2.34396 -3.50195 0
M  V30 519 H 51.4565 2.3584 -2.25936 0
M  V30 520 H 50.1155 0.698991 -3.59875 0
M  V30 521 H 49.7635 3.15439 -3.918 0
M  V30 522 H 49.4635 2.25486 -5.42614 0
M  V30 523 H 50.9875 3.16464 -5.2219 0
M  V30 524 H 52.4015 0.935116 -5.65622 0
M  V30 525 H 50.7985 0.221046 -5.99693 0
M  V30 526 H 51.8685 -0.557162 -4.81688 0
M  V30 527 N 53.2116 1.57565 -0.0334293 0
M  V30 528 C 54.6226 1.79746 0.504798 0
M  V30 529 C 54.9736 0.944091 1.71992 0
M  V30 530 O 54.0986 0.155694 2.15839 0
M  V30 531 C 54.6936 3.25997 0.922567 0
M  V30 532 C 53.2526 3.49159 1.40588 0
M  V30 533 C 52.3996 2.74785 0.372633 0
M  V30 534 H 55.3506 1.56565 -0.259436 0
M  V30 535 H 55.3716 3.35945 1.78666 0
M  V30 536 H 54.8836 3.88081 0.0379825 0
M  V30 537 H 52.9846 2.92332 2.31025 0
M  V30 538 H 53.0976 4.57873 1.41028 0
M  V30 539 H 51.4616 2.40391 0.841672 0
M  V30 540 H 52.2446 3.39587 -0.503559 0
M  V30 541 N 54.6897 -0.239769 1.55765 0
M  V30 542 C 56.1007 -0.808263 1.68297 0
M  V30 543 C 56.4517 -1.85736 0.632181 0
M  V30 544 O 55.5767 -2.15277 -0.220204 0
M  V30 545 C 56.1717 -1.47284 3.05111 0
M  V30 546 C 54.7307 -1.98895 3.19559 0
M  V30 547 C 53.8777 -0.842575 2.64189 0
M  V30 548 H 56.8287 -0.0154422 1.58692 0
M  V30 549 H 56.8497 -2.34111 2.99954 0
M  V30 550 H 56.3617 -0.709053 3.81568 0
M  V30 551 H 54.4627 -2.78132 2.47938 0
M  V30 552 H 54.5757 -2.18143 4.26556 0
M  V30 553 H 52.9397 -1.24501 2.22197 0
M  V30 554 H 53.7227 -0.0917552 3.43177 0
M  V30 555 N 56.1678 -1.49265 -0.50573 0
M  V30 556 C 57.0998 -1.617 -1.62437 0
M  V30 557 C 58.1128 -0.499924 -1.54934 0
M  V30 558 O 59.3018 -0.771785 -1.60953 0
M  V30 559 C 56.4018 -1.5533 -3.01207 0
M  V30 560 C 55.5748 -2.8249 -3.33943 0
M  V30 561 C 54.6338 -2.69238 -4.52103 0
M  V30 562 O 53.6598 -3.43167 -4.5412 0
M  V30 563 N 54.8618 -1.80468 -5.51735 0
M  V30 564 H 57.6268 -2.58177 -1.52199 0
M  V30 565 H 55.1878 -1.46294 -0.693511 0
M  V30 566 H 57.1798 -1.44125 -3.78167 0
M  V30 567 H 55.7498 -0.667297 -3.05395 0
M  V30 568 H 54.9698 -3.08081 -2.45926 0
M  V30 569 H 56.2578 -3.66802 -3.5261 0
M  V30 570 H 55.6558 -1.19653 -5.52901 0
M  V30 571 H 54.2128 -1.75188 -6.27816 0
M  V30 572 N 57.6459 0.756429 -1.3826 0
M  V30 573 C 58.5779 1.87971 -1.31147 0
M  V30 574 C 59.5909 1.61248 -0.224239 0
M  V30 575 O 60.7799 1.71881 -0.481581 0
M  V30 576 C 57.8799 3.23545 -1.00857 0
M  V30 577 C 57.0529 3.77794 -2.20432 0
M  V30 578 C 56.1119 4.91877 -1.86931 0
M  V30 579 O 55.1379 5.06659 -2.59395 0
M  V30 580 N 56.3399 5.74643 -0.822568 0
M  V30 581 H 59.1049 1.94585 -2.2794 0
M  V30 582 H 56.6659 0.936234 -1.32084 0
M  V30 583 H 58.6579 3.97403 -0.765021 0
M  V30 584 H 57.2279 3.12335 -0.128687 0
M  V30 585 H 56.4479 2.95534 -2.6087 0
M  V30 586 H 57.7359 4.10771 -3.00241 0
M  V30 587 H 57.1339 5.65266 -0.221575 0
M  V30 588 H 55.6909 6.48661 -0.638899 0
M  V30 589 N 59.124 1.23083 0.984299 0
M  V30 590 C 60.056 0.96636 2.07832 0
M  V30 591 C 61.069 -0.0582135 1.62696 0
M  V30 592 O 62.258 0.176843 1.77622 0
M  V30 593 C 59.358 0.433397 3.36117 0
M  V30 594 C 58.531 1.51722 4.10243 0
M  V30 595 C 57.59 0.989821 5.16807 0
M  V30 596 O 56.616 1.67794 5.43906 0
M  V30 597 N 57.818 -0.184367 5.80207 0
M  V30 598 H 60.583 1.90824 2.31098 0
M  V30 599 H 58.144 1.13888 1.1507 0
M  V30 600 H 60.136 0.065699 4.04647 0
M  V30 601 H 58.706 -0.413806 3.09849 0
M  V30 602 H 57.926 2.05786 3.36223 0
M  V30 603 H 59.214 2.24619 4.56534 0
M  V30 604 H 58.612 -0.760062 5.60571 0
M  V30 605 H 57.169 -0.493366 6.4993 0
M  V30 606 N 60.6021 -1.18246 1.0419 0
M  V30 607 C 61.5341 -2.2142 0.592088 0
M  V30 608 C 62.5471 -1.59233 -0.338909 0
M  V30 609 O 63.7361 -1.78002 -0.133231 0
M  V30 610 C 60.8361 -3.38546 -0.154854 0
M  V30 611 C 60.0091 -4.3031 0.784328 0
M  V30 612 C 59.0681 -5.26138 0.0804583 0
M  V30 613 O 58.0941 -5.64738 0.711292 0
M  V30 614 N 59.2961 -5.68261 -1.18574 0
M  V30 615 H 62.0611 -2.60636 1.47949 0
M  V30 616 H 59.6221 -1.33044 0.922544 0
M  V30 617 H 61.6141 -3.99678 -0.635606 0
M  V30 618 H 60.1841 -2.98012 -0.943811 0
M  V30 619 H 59.4041 -3.66764 1.44491 0
M  V30 620 H 60.6921 -4.8852 1.42218 0
M  V30 621 H 60.0901 -5.38957 -1.71876 0
M  V30 622 H 58.6471 -6.31584 -1.61074 0
M  V30 623 N 62.0802 -0.821533 -1.34494 0
M  V30 624 C 63.4912 -0.467956 -1.8074 0
M  V30 625 C 63.8422 1.01151 -1.68116 0
M  V30 626 O 62.9672 1.78707 -1.22036 0
M  V30 627 C 63.5622 -0.842627 -3.28154 0
M  V30 628 C 62.1212 -0.541439 -3.72485 0
M  V30 629 C 61.2682 -1.06028 -2.56229 0
M  V30 630 H 64.2192 -1.01183 -1.22261 0
M  V30 631 H 64.2402 -0.145876 -3.8022 0
M  V30 632 H 63.7522 -1.91945 -3.37311 0
M  V30 633 H 61.8532 0.526034 -3.68868 0
M  V30 634 H 61.9662 -1.08453 -4.66663 0
M  V30 635 H 60.3302 -0.481892 -2.501 0
M  V30 636 H 61.1132 -2.14352 -2.68157 0
M  V30 637 N 63.5583 1.46682 -0.576371 0
M  V30 638 C 64.5213 2.28707 0.150239 0
M  V30 639 C 65.5213 1.38035 0.824794 0
M  V30 640 O 66.7113 1.60476 0.677719 0
M  V30 641 C 63.8433 3.18248 1.22192 0
M  V30 642 H 65.0363 2.94423 -0.570521 0
M  V30 643 H 62.5893 1.52688 -0.334078 0
M  V30 644 H 63.3243 2.57265 1.97447 0
M  V30 645 H 63.1093 3.85 0.742812 0
M  V30 646 H 64.5993 3.80001 1.73172 0
M  V30 647 N 65.0364 0.313813 1.54444 0
M  V30 648 C 65.9684 -0.590425 2.21465 0
M  V30 649 C 66.9814 -1.08753 1.21147 0
M  V30 650 O 68.1704 -1.00278 1.4767 0
M  V30 651 C 65.2704 -1.82179 2.85769 0
M  V30 652 C 64.4434 -1.46502 4.12136 0
M  V30 653 C 63.5024 -2.55288 4.60124 0
M  V30 654 O 62.5284 -2.19842 5.25032 0
M  V30 655 N 63.7304 -3.86053 4.33525 0
M  V30 656 H 66.4954 -0.0166033 2.99695 0
M  V30 657 H 64.0564 0.136578 1.61323 0
M  V30 658 H 66.0484 -2.54328 3.14801 0
M  V30 659 H 64.6184 -2.30369 2.11303 0
M  V30 660 H 63.8384 -0.575595 3.89975 0
M  V30 661 H 65.1264 -1.20221 4.94393 0
M  V30 662 H 64.5244 -4.17654 3.81552 0
M  V30 663 H 63.0814 -4.54461 4.67235 0
M  V30 664 N 66.5145 -1.57545 0.0417849 0
M  V30 665 C 67.9255 -1.80011 -0.495259 0
M  V30 666 C 68.2765 -0.953199 -1.71489 0
M  V30 667 O 67.4015 -0.167138 -2.15754 0
M  V30 668 C 67.9965 -3.26482 -0.905265 0
M  V30 669 C 66.5555 -3.499 -1.38734 0
M  V30 670 C 65.7025 -2.74979 -0.358056 0
M  V30 671 H 68.6535 -1.56425 0.267736 0
M  V30 672 H 68.6745 -3.36887 -1.76882 0
M  V30 673 H 68.1865 -3.88096 -0.017401 0
M  V30 674 H 66.2875 -2.93553 -2.29471 0
M  V30 675 H 66.4005 -4.58615 -1.38598 0
M  V30 676 H 64.7645 -2.40834 -0.828912 0
M  V30 677 H 65.5475 -3.39315 0.521561 0
M  V30 678 N 67.9926 0.231505 -1.5589 0
M  V30 679 C 69.2406 0.955461 -1.78088 0
M  V30 680 C 69.5616 1.85262 -0.608533 0
M  V30 681 O 68.8316 1.92277 0.375035 0
M  V30 682 H 67.4116 0.355787 -0.656829 0
M  V30 683 H 70.0736 0.245751 -1.93344 0
M  V30 684 H 69.1696 1.56814 -2.69844 0
M  V30 685 N 69.4707 1.49531 0.497807 0
M  V30 686 C 70.8817 1.52344 1.07927 0
M  V30 687 C 71.2327 0.311469 1.93712 0
M  V30 688 O 70.3577 -0.578405 2.08527 0
M  V30 689 C 70.9527 2.76062 1.96405 0
M  V30 690 C 69.5117 2.81643 2.49709 0
M  V30 691 C 68.6587 2.46299 1.27404 0
M  V30 692 H 71.6097 1.56182 0.281576 0
M  V30 693 H 71.6307 2.56405 2.81135 0
M  V30 694 H 71.1427 3.64254 1.33943 0
M  V30 695 H 69.2437 1.97739 3.15801 0
M  V30 696 H 69.3567 3.83891 2.86643 0
M  V30 697 H 67.7207 1.98148 1.60029 0
M  V30 698 H 68.5037 3.36769 0.66645 0
M  V30 699 N 70.9488 -0.749086 1.3866 0
M  V30 700 C 71.9118 -1.84457 1.36045 0
M  V30 701 C 72.9118 -1.58682 0.260122 0
M  V30 702 O 74.1018 -1.66343 0.517261 0
M  V30 703 C 71.2338 -3.22008 1.11911 0
M  V30 704 H 72.4268 -1.88182 2.33512 0
M  V30 705 H 69.9798 -0.951266 1.24019 0
M  V30 706 H 70.7148 -3.2395 0.150686 0
M  V30 707 H 70.4998 -3.42111 1.91579 0
M  V30 708 H 71.9898 -4.0208 1.12788 0
M  V30 709 N 72.4269 -1.23603 -0.977757 0
M  V30 710 C 73.3899 -1.02069 -2.05218 0
M  V30 711 C 74.3899 0.0184305 -1.60789 0
M  V30 712 O 75.5799 -0.221569 -1.72785 0
M  V30 713 C 72.7119 -0.544926 -3.36517 0
M  V30 714 H 73.9049 -1.9742 -2.25755 0
M  V30 715 H 71.4579 -1.05684 -1.15155 0
M  V30 716 H 72.1929 0.412241 -3.21669 0
M  V30 717 H 71.9779 -1.2948 -3.70105 0
M  V30 718 H 73.4679 -0.414985 -4.15533 0
M  V30 719 N 73.905 1.17692 -1.04816 0
M  V30 720 C 75.13 1.92327 -0.776207 0
M  V30 721 C 75.555 1.76082 0.661581 0
M  V30 722 O 74.913 1.076 1.45917 0
M  V30 723 C 74.961 3.41539 -1.15687 0
M  V30 724 O 74.065 4.11402 -0.286775 0
M  V30 725 H 73.406 0.599735 -0.284981 0
M  V30 726 H 75.936 1.49201 -1.4 0
M  V30 727 H 75.946 3.92269 -1.12202 0
M  V30 728 H 74.621 3.52684 -2.20425 0
M  V30 729 H 73.198 3.70939 -0.381903 0
M  V30 730 N 75.3831 0.828654 1.34056 0
M  V30 731 C 76.7941 0.477534 1.8049 0
M  V30 732 C 77.1451 -1.00258 1.6865 0
M  V30 733 O 76.2701 -1.78057 1.22982 0
M  V30 734 C 76.8651 0.860018 3.27703 0
M  V30 735 C 75.4241 0.561185 3.72193 0
M  V30 736 C 74.5711 1.07385 2.55663 0
M  V30 737 H 77.5221 1.0183 1.21722 0
M  V30 738 H 77.5431 0.166038 3.80138 0
M  V30 739 H 77.0551 1.93731 3.36288 0
M  V30 740 H 75.1561 -0.506465 3.69142 0
M  V30 741 H 75.2691 1.10926 4.66082 0
M  V30 742 H 73.6331 0.495149 2.49841 0
M  V30 743 H 74.4161 2.15771 2.67016 0
M  V30 744 N 76.8612 -1.46375 0.584142 0
M  V30 745 C 77.8242 -2.28784 -0.138108 0
M  V30 746 C 78.8242 -1.38471 -0.817462 0
M  V30 747 O 80.0142 -1.60833 -0.669199 0
M  V30 748 C 77.1462 -3.18892 -1.20503 0
M  V30 749 H 78.3392 -2.94117 0.586127 0
M  V30 750 H 75.8922 -1.52509 0.342171 0
M  V30 751 H 76.6272 -2.58309 -1.96079 0
M  V30 752 H 76.4122 -3.85388 -0.722384 0
M  V30 753 H 77.9022 -3.80914 -1.71155 0
M  V30 754 N 78.3393 -0.321999 -1.54275 0
M  V30 755 C 79.5873 0.280489 -2.00144 0
M  V30 756 C 79.9083 1.52777 -1.21178 0
M  V30 757 O 79.1783 1.9338 -0.313187 0
M  V30 758 H 77.7583 0.106632 -0.73935 0
M  V30 759 H 80.4203 -0.438184 -1.8991 0
M  V30 760 H 79.5163 0.537972 -3.07428 0
M  V30 761 N 79.8174 1.5752 -0.0501392 0
M  V30 762 C 81.2284 1.80271 0.485705 0
M  V30 763 C 81.5794 0.96228 1.70981 0
M  V30 764 O 80.7044 0.178578 2.15662 0
M  V30 765 C 81.2994 3.26957 0.887938 0
M  V30 766 C 79.8584 3.5063 1.36877 0
M  V30 767 C 79.0054 2.75165 0.343468 0
M  V30 768 H 81.9564 1.56281 -0.276028 0
M  V30 769 H 81.9774 3.37821 1.75093 0
M  V30 770 H 81.4894 3.881 -0.0031809 0
M  V30 771 H 79.5904 2.94766 2.27911 0
M  V30 772 H 79.7034 4.59343 1.36164 0
M  V30 773 H 78.0674 2.4127 0.816128 0
M  V30 774 H 78.8504 3.39034 -0.539548 0
M  V30 775 N 81.2955 -0.223234 1.56011 0
M  V30 776 C 82.7065 -0.790368 1.69145 0
M  V30 777 C 83.0575 -1.85055 0.651845 0
M  V30 778 O 82.1825 -2.15498 -0.197359 0
M  V30 779 C 82.7775 -1.4404 3.06656 0
M  V30 780 C 81.3365 -1.95494 3.2165 0
M  V30 781 C 80.4835 -0.814506 2.65068 0
M  V30 782 H 83.4345 0.00139011 1.587 0
M  V30 783 H 83.4555 -2.30916 3.0242 0
M  V30 784 H 82.9675 -0.668543 3.82298 0
M  V30 785 H 81.0685 -2.75487 2.50874 0
M  V30 786 H 81.1815 -2.13607 4.28846 0
M  V30 787 H 79.5455 -1.22137 2.23505 0
M  V30 788 H 80.3285 -0.0553515 3.43255 0
M  V30 789 N 82.7736 -1.49793 -0.48987 0
M  V30 790 C 83.7366 -1.66752 -1.57246 0
M  V30 791 C 84.7366 -0.538867 -1.51502 0
M  V30 792 O 85.9266 -0.805545 -1.54456 0
M  V30 793 C 83.0586 -1.67528 -2.96896 0
M  V30 794 H 84.2516 -2.63321 -1.43534 0
M  V30 795 H 81.8046 -1.38992 -0.714914 0
M  V30 796 H 82.5396 -0.725837 -3.16073 0
M  V30 797 H 82.3246 -2.49504 -3.02473 0
M  V30 798 H 83.8146 -1.82667 -3.7553 0
M  V30 799 N 84.2517 0.741722 -1.39055 0
M  V30 800 C 85.6627 1.31966 -1.32068 0
M  V30 801 C 86.0137 1.96192 0.0180797 0
M  V30 802 O 85.1387 1.95861 0.920196 0
M  V30 803 C 85.7337 2.39954 -2.39181 0
M  V30 804 C 84.2927 2.93438 -2.35735 0
M  V30 805 C 83.4397 1.66936 -2.21422 0
M  V30 806 H 86.3907 0.539721 -1.4924 0
M  V30 807 H 86.4117 3.20182 -2.05581 0
M  V30 808 H 85.9237 1.9318 -3.36605 0
M  V30 809 H 84.0247 3.4451 -1.41929 0
M  V30 810 H 84.1377 3.4701 -3.30335 0
M  V30 811 H 82.5017 1.91016 -1.68478 0
M  V30 812 H 83.2847 1.22224 -3.20806 0
M  V30 813 N 85.7298 1.2412 0.971189 0
M  V30 814 C 87.1458 1.00584 1.23916 0
M  V30 815 C 87.3458 -0.287481 1.99439 0
M  V30 816 O 86.4018 -1.00454 2.31658 0
M  V30 817 C 87.7148 2.21864 2.0297 0
M  V30 818 C 89.2628 2.26452 2.16076 0
M  V30 819 C 89.7378 3.47343 2.98524 0
M  V30 820 N 91.2288 3.47639 3.06107 0
M  V30 821 C 91.9638 4.37837 3.70251 0
M  V30 822 N 91.4598 5.38286 4.36142 0
M  V30 823 N 93.2528 4.25558 3.67228 0
M  V30 824 H 85.4038 2.07236 0.465499 0
M  V30 825 H 87.6668 0.909236 0.268315 0
M  V30 826 H 87.3728 3.15771 1.54861 0
M  V30 827 H 87.2468 2.23698 3.03709 0
M  V30 828 H 89.6338 1.33078 2.6339 0
M  V30 829 H 89.7148 2.28645 1.14696 0
M  V30 830 H 89.3588 4.41029 2.51905 0
M  V30 831 H 89.2888 3.42393 4.00093 0
M  V30 832 H 91.7798 2.74966 2.59233 0
M  V30 833 H 92.0928 6.03352 4.82894 0
M  V30 834 H 90.4378 5.42176 4.34822 0
M  V30 835 H 93.6288 3.46322 3.14927 0
M  V30 836 H 93.8018 4.96054 4.16935 0
M  V30 837 N 87.2079 -1.17134 1.05439 0
M  V30 838 C 88.4559 -1.87085 0.764429 0
M  V30 839 C 88.7769 -1.81584 -0.710787 0
M  V30 840 O 88.0469 -1.24349 -1.51374 0
M  V30 841 H 86.6269 -0.692627 0.279779 0
M  V30 842 H 89.2889 -1.42087 1.33406 0
M  V30 843 H 88.3849 -2.92759 1.0816 0
M  V30 844 N 88.686 -0.835752 -1.33615 0
M  V30 845 C 90.097 -0.487099 -1.80234 0
M  V30 846 C 90.448 0.993627 -1.69179 0
M  V30 847 O 89.573 1.77403 -1.23924 0
M  V30 848 C 90.168 -0.877385 -3.27242 0
M  V30 849 C 88.727 -0.580915 -3.7189 0
M  V30 850 C 87.874 -1.0874 -2.5509 0
M  V30 851 H 90.825 -1.02474 -1.2118 0
M  V30 852 H 90.846 -0.186195 -3.80044 0
M  V30 853 H 90.358 -1.95512 -3.35256 0
M  V30 854 H 88.459 0.486881 -3.69405 0
M  V30 855 H 88.572 -1.13396 -4.65487 0
M  V30 856 H 86.936 -0.508392 -2.49575 0
M  V30 857 H 87.719 -2.17184 -2.65868 0
M  V30 858 N 90.1641 1.46063 -0.591896 0
M  V30 859 C 91.4121 2.01938 -0.0808391 0
M  V30 860 C 91.7331 1.46475 1.28725 0
M  V30 861 O 91.0031 0.652944 1.84698 0
M  V30 862 H 89.5831 0.746516 -0.0268938 0
M  V30 863 H 92.2451 1.79055 -0.769752 0
M  V30 864 H 91.3411 3.12094 -0.0187578 0
M  V30 865 N 91.6422 0.330177 1.54103 0
M  V30 866 C 92.9192 -0.325007 1.92881 0
M  V30 867 C 93.2992 -1.6934 1.26045 0
M  V30 868 O 92.6472 -2.24855 0.406526 0
M  V30 869 C 92.8572 -0.410634 3.46576 0
M  V30 870 C 94.2052 -0.667801 4.19316 0
M  V30 871 O 95.2292 -0.49329 3.52768 0
M  V30 872 O 94.0882 -1.00491 5.37181 0
M  V30 873 H 91.1822 -0.186873 0.80561 0
M  V30 874 H 93.7282 0.380376 1.65382 0
M  V30 875 H 92.5002 0.550164 3.87413 0
M  V30 876 H 92.1232 -1.16333 3.802 0
M  V30 877 N 93.1203 -1.57491 0.0584922 0
M  V30 878 C 94.5363 -1.56792 -0.298091 0
M  V30 879 C 94.7363 -1.06679 -1.70944 0
M  V30 880 O 93.7923 -0.726672 -2.41818 0
M  V30 881 C 95.1053 -3.00461 -0.119879 0
M  V30 882 C 96.6533 -3.1242 -0.190428 0
M  V30 883 C 97.1283 -4.57982 -0.0406567 0
M  V30 884 N 98.6193 -4.63099 -0.0966958 0
M  V30 885 C 99.3543 -5.734 -0.00502943 0
M  V30 886 N 98.8503 -6.9266 0.139402 0
M  V30 887 N 100.643 -5.62067 -0.0611391 0
M  V30 888 H 92.7943 -1.88386 0.98105 0
M  V30 889 H 95.0573 -0.867865 0.381463 0
M  V30 890 H 94.7633 -3.41187 0.85349 0
M  V30 891 H 94.6373 -3.66843 -0.877833 0
M  V30 892 H 97.0243 -2.71589 -1.15427 0
M  V30 893 H 97.1053 -2.48702 0.598405 0
M  V30 894 H 96.7493 -4.995 0.919897 0
M  V30 895 H 96.6793 -5.19715 -0.848727 0
M  V30 896 H 99.1703 -3.77331 -0.207277 0
M  V30 897 H 99.4833 -7.72536 0.201855 0
M  V30 898 H 97.8283 -6.94781 0.174586 0
M  V30 899 H 101.019 -4.67782 -0.172583 0
M  V30 900 H 101.192 -6.47999 0.0137562 0
M  V30 901 N 94.5984 0.214957 -1.56127 0
M  V30 902 C 96.0144 0.564948 -1.49267 0
M  V30 903 C 96.2144 1.86827 -0.754838 0
M  V30 904 O 95.2704 2.50745 -0.297198 0
M  V30 905 C 96.5834 0.638071 -2.93852 0
M  V30 906 C 98.1314 0.728253 -3.0441 0
M  V30 907 C 98.6064 0.832663 -4.50367 0
M  V30 908 N 100.097 0.896712 -4.54437 0
M  V30 909 C 100.832 0.997324 -5.6466 0
M  V30 910 N 100.328 1.06147 -6.8462 0
M  V30 911 N 102.121 1.03297 -5.52527 0
M  V30 912 H 94.2724 -0.640211 -2.02522 0
M  V30 913 H 96.5354 -0.225507 -0.920788 0
M  V30 914 H 96.2414 -0.250126 -3.50809 0
M  V30 915 H 96.1154 1.49947 -3.46115 0
M  V30 916 H 98.5024 1.60689 -2.47514 0
M  V30 917 H 98.5834 -0.158952 -2.55306 0
M  V30 918 H 98.2274 -0.0415417 -5.07883 0
M  V30 919 H 98.1574 1.73538 -4.97184 0
M  V30 920 H 100.648 0.857188 -3.6805 0
M  V30 921 H 100.961 1.1382 -7.64372 0
M  V30 922 H 99.3064 1.03049 -6.87318 0
M  V30 923 H 102.497 0.979558 -4.57736 0
M  V30 924 H 102.67 1.10793 -6.38458 0
M  V30 925 N 96.0765 1.50051 0.48192 0
M  V30 926 C 97.0395 1.67584 1.5636 0
M  V30 927 C 98.0395 0.546894 1.51214 0
M  V30 928 O 99.2295 0.813725 1.54026 0
M  V30 929 C 96.3615 1.691 2.96003 0
M  V30 930 H 97.5545 2.64078 1.42136 0
M  V30 931 H 95.1075 1.39369 0.707533 0
M  V30 932 H 95.8425 0.742589 3.15684 0
M  V30 933 H 95.6275 2.51105 3.01146 0
M  V30 934 H 97.1175 1.84656 3.74556 0
M  V30 935 N 97.5546 -0.734337 1.39446 0
M  V30 936 C 98.4646 -1.87879 1.40495 0
M  V30 937 C 99.4806 -1.714 0.299672 0
M  V30 938 O 100.657 -1.93991 0.541249 0
M  V30 939 C 97.7216 -3.23477 1.24754 0
M  V30 940 C 96.7826 -3.52344 2.45259 0
M  V30 941 C 96.0156 -4.81473 2.30259 0
M  V30 942 O 96.2386 -5.55237 1.30643 0
M  V30 943 O 95.1726 -5.10254 3.19256 0
M  V30 944 H 98.9986 -1.89949 2.36966 0
M  V30 945 H 96.5836 -0.882243 1.20569 0
M  V30 946 H 98.4656 -4.04509 1.18111 0
M  V30 947 H 97.1406 -3.22176 0.313781 0
M  V30 948 H 96.0476 -2.71396 2.57478 0
M  V30 949 H 97.3806 -3.58426 3.37331 0
M  V30 950 N 99.0327 -1.24633 -0.964593 0
M  V30 951 C 100.444 -1.08045 -1.5226 0
M  V30 952 C 100.795 0.347116 -1.93105 0
M  V30 953 O 99.9197 1.23588 -1.77637 0
M  V30 954 C 100.515 -1.95514 -2.76695 0
M  V30 955 C 99.0737 -1.8314 -3.28841 0
M  V30 956 C 98.2207 -1.90262 -2.01732 0
M  V30 957 H 101.172 -1.38064 -0.782553 0
M  V30 958 H 101.193 -1.48925 -3.50145 0
M  V30 959 H 100.705 -2.99407 -2.46936 0
M  V30 960 H 98.8057 -0.82092 -3.63444 0
M  V30 961 H 98.9187 -2.67406 -3.97531 0
M  V30 962 H 97.2827 -1.34027 -2.16584 0
M  V30 963 H 98.0657 -2.9574 -1.74334 0
M  V30 964 N 100.511 1.16574 -1.06058 0
M  V30 965 C 101.751 1.88723 -0.78504 0
M  V30 966 C 102.115 1.79706 0.676006 0
M  V30 967 O 103.316 2.46757 1.06603 0
M  V30 968 C 101.587 3.34338 -1.26304 0
M  V30 969 S 103.146 4.24366 -1.1162 0
M  V30 970 H 99.9638 0.651448 -0.284846 0
M  V30 971 H 102.566 1.40732 -1.35701 0
M  V30 972 H 101.27 3.38439 -2.32136 0
M  V30 973 H 100.801 3.87378 -0.685719 0
M  V30 974 H 102.816 4.96179 -0.0456539 0
M  V30 975 N 101.989 0.842826 1.3317 0
M  V30 976 C 103.4 0.496651 1.79973 0
M  V30 977 C 103.751 -0.984641 1.69703 0
M  V30 978 O 102.876 -1.76743 1.24863 0
M  V30 979 C 103.471 0.894727 3.26772 0
M  V30 980 C 102.03 0.600629 3.71577 0
M  V30 981 C 101.177 1.10091 2.5451 0
M  V30 982 H 104.128 1.03116 1.20635 0
M  V30 983 H 104.149 0.206347 3.7994 0
M  V30 984 H 103.661 1.97287 3.34215 0
M  V30 985 H 101.762 -0.467284 3.69658 0
M  V30 986 H 101.875 1.15863 4.64879 0
M  V30 987 H 100.239 0.52162 2.49301 0
M  V30 988 H 101.022 2.18591 2.64713 0
M  V30 989 N 103.467 -1.45747 0.599634 0
M  V30 990 C 104.715 -2.01893 0.0915472 0
M  V30 991 C 105.036 -1.47155 -1.27946 0
M  V30 992 O 104.306 -0.66273 -1.84349 0
M  V30 993 H 102.886 -0.746363 0.0308524 0
M  V30 994 H 105.548 -1.78645 0.779237 0
M  V30 995 H 104.644 -3.1208 0.0353086 0
M  V30 996 N 104.945 -0.338344 -1.53925 0
M  V30 997 C 105.875 0.51328 -2.27789 0
M  V30 998 C 106.856 1.107 -1.29149 0
M  V30 999 O 108.041 1.12937 -1.57984 0
M  V30 1000 C 105.171 1.66697 -3.04679 0
M  V30 1001 C 104.125 1.20183 -4.1078 0
M  V30 1002 C 103.451 2.44363 -4.75595 0
M  V30 1003 C 104.751 0.30605 -5.21403 0
M  V30 1004 H 106.445 -0.102883 -2.99223 0
M  V30 1005 H 103.991 -0.0509219 -1.4391 0
M  V30 1006 H 105.944 2.26915 -3.55088 0
M  V30 1007 H 104.668 2.30995 -2.30887 0
M  V30 1008 H 103.327 0.622499 -3.61276 0
M  V30 1009 H 102.975 3.07057 -3.98403 0
M  V30 1010 H 102.675 2.13925 -5.47275 0
M  V30 1011 H 104.199 3.05317 -5.28786 0
M  V30 1012 H 105.613 0.814929 -5.67478 0
M  V30 1013 H 104.01 0.0937929 -6.00027 0
M  V30 1014 H 105.08 -0.65921 -4.80398 0
M  V30 1015 N 106.423 1.57458 -0.0668435 0
M  V30 1016 C 107.834 1.80776 0.466558 0
M  V30 1017 C 108.185 0.980361 1.69951 0
M  V30 1018 O 107.31 0.201441 2.1546 0
M  V30 1019 C 107.905 3.27881 0.85321 0
M  V30 1020 C 106.464 3.52062 1.3315 0
M  V30 1021 C 105.611 2.75513 0.314264 0
M  V30 1022 H 108.562 1.5598 -0.292588 0
M  V30 1023 H 108.583 3.39659 1.715 0
M  V30 1024 H 108.095 3.88075 -0.0443439 0
M  V30 1025 H 106.196 2.97167 2.24772 0
M  V30 1026 H 106.309 4.60762 1.31285 0
M  V30 1027 H 104.673 2.42123 0.790492 0
M  V30 1028 H 105.456 3.38442 -0.575477 0
M  V30 1029 N 107.901 -0.206675 1.56239 0
M  V30 1030 C 108.864 -1.23976 1.92776 0
M  V30 1031 C 109.864 -1.39041 0.807729 0
M  V30 1032 O 111.054 -1.37051 1.0753 0
M  V30 1033 C 108.186 -2.61112 2.19165 0
M  V30 1034 H 109.379 -0.927764 2.85189 0
M  V30 1035 H 106.932 -0.447718 1.4975 0
M  V30 1036 H 107.667 -2.97386 1.29352 0
M  V30 1037 H 107.452 -2.51552 3.00772 0
M  V30 1038 H 108.942 -3.35633 2.48476 0
M  V30 1039 N 109.379 -1.50304 -0.473955 0
M  V30 1040 C 110.342 -1.6841 -1.55469 0
M  V30 1041 C 111.342 -0.554905 -1.50922 0
M  V30 1042 O 112.532 -0.821882 -1.53593 0
M  V30 1043 C 109.664 -1.70667 -2.95102 0
M  V30 1044 H 110.857 -2.64828 -1.40733 0
M  V30 1045 H 108.41 -1.39742 -0.700132 0
M  V30 1046 H 109.145 -0.75932 -3.15285 0
M  V30 1047 H 108.93 -2.52698 -2.9981 0
M  V30 1048 H 110.42 -1.8664 -3.73571 0
M  V30 1049 N 110.857 0.726932 -1.39834 0
M  V30 1050 C 111.82 1.82269 -1.38962 0
M  V30 1051 C 112.82 1.58248 -0.285334 0
M  V30 1052 O 114.01 1.65499 -0.54366 0
M  V30 1053 C 111.142 3.20186 -1.17019 0
M  V30 1054 H 112.335 1.84443 -2.36476 0
M  V30 1055 H 109.888 0.931416 -1.25516 0
M  V30 1056 H 110.623 3.23669 -0.202204 0
M  V30 1057 H 110.408 3.3902 -1.96998 0
M  V30 1058 H 111.898 4.00235 -1.1917 0
M  V30 1059 N 112.336 1.25143 0.95797 0
M  V30 1060 C 113.269 0.995565 2.05338 0
M  V30 1061 C 114.247 -0.0740423 1.62431 0
M  V30 1062 O 115.431 0.0649212 1.88388 0
M  V30 1063 C 112.558 0.504298 3.34925 0
M  V30 1064 C 111.604 1.56393 3.96792 0
M  V30 1065 S 112.437 3.14815 4.33188 0
M  V30 1066 C 113.593 2.67415 5.65898 0
M  V30 1067 H 113.826 1.92309 2.26726 0
M  V30 1068 H 111.359 1.08635 1.09716 0
M  V30 1069 H 113.317 0.227497 4.09869 0
M  V30 1070 H 111.978 -0.402671 3.11508 0
M  V30 1071 H 111.171 1.17082 4.90212 0
M  V30 1072 H 110.773 1.79124 3.28315 0
M  V30 1073 H 113.065 2.10833 6.4386 0
M  V30 1074 H 114.008 3.59463 6.10076 0
M  V30 1075 H 114.416 2.07521 5.24972 0
M  V30 1076 N 113.814 -1.1601 1.06675 0
M  V30 1077 C 115.062 -1.86264 0.784229 0
M  V30 1078 C 115.383 -1.82328 -0.691488 0
M  V30 1079 O 114.653 -1.25947 -1.50047 0
M  V30 1080 H 113.233 -0.689621 0.28711 0
M  V30 1081 H 115.895 -1.40664 1.34906 0
M  V30 1082 H 114.991 -2.91595 1.11259 0
M  V30 1083 N 115.292 -0.849877 -1.32721 0
M  V30 1084 C 116.708 -0.539102 -1.50219 0
M  V30 1085 C 116.908 0.931271 -1.78689 0
M  V30 1086 O 115.964 1.71455 -1.85363 0
M  V30 1087 C 117.277 -1.42196 -2.64954 0
M  V30 1088 C 118.825 -1.42189 -2.78839 0
M  V30 1089 C 119.3 -2.28985 -3.96648 0
M  V30 1090 N 120.791 -2.26754 -4.03902 0
M  V30 1091 C 121.526 -2.90644 -4.94281 0
M  V30 1092 N 121.022 -3.63629 -5.897 0
M  V30 1093 N 122.815 -2.80057 -4.87365 0
M  V30 1094 H 114.966 -1.80156 -1.12506 0
M  V30 1095 H 117.229 -0.769217 -0.554085 0
M  V30 1096 H 116.935 -2.46733 -2.50631 0
M  V30 1097 H 116.809 -1.10591 -3.60624 0
M  V30 1098 H 119.196 -0.38419 -2.92588 0
M  V30 1099 H 119.277 -1.77807 -1.83898 0
M  V30 1100 H 118.921 -3.32819 -3.83658 0
M  V30 1101 H 118.851 -1.90702 -4.90857 0
M  V30 1102 H 121.342 -1.73688 -3.3562 0
M  V30 1103 H 121.655 -4.09558 -6.55349 0
M  V30 1104 H 120 -3.67737 -5.89741 0
M  V30 1105 H 123.191 -2.22593 -4.11789 0
M  V30 1106 H 123.364 -3.30132 -5.57599 0
M  V30 1107 N 116.77 1.45427 -0.607355 0
M  V30 1108 C 117.72 2.27612 0.133038 0
M  V30 1109 C 118.704 1.37307 0.838785 0
M  V30 1110 O 119.896 1.61299 0.728813 0
M  V30 1111 C 117.025 3.24173 1.12991 0
M  V30 1112 C 116.111 4.21965 0.425011 0
M  V30 1113 N 116.502 5.02982 -0.533217 0
M  V30 1114 C 114.8 4.40899 0.672593 0
M  V30 1115 C 115.501 5.73931 -0.947518 0
M  V30 1116 N 114.477 5.42819 -0.291321 0
M  V30 1117 H 118.279 2.87649 -0.602935 0
M  V30 1118 H 115.793 1.56576 -0.431006 0
M  V30 1119 H 117.79 3.81783 1.67473 0
M  V30 1120 H 116.45 2.65696 1.86644 0
M  V30 1121 H 117.461 5.09843 -0.90995 0
M  V30 1122 H 114.138 3.93547 1.39382 0
M  V30 1123 H 115.528 6.49037 -1.73782 0
M  V30 1124 N 118.248 0.346503 1.53744 0
M  V30 1125 C 119.496 -0.248612 2.00565 0
M  V30 1126 C 119.817 -1.5083 1.23593 0
M  V30 1127 O 119.087 -1.92858 0.343912 0
M  V30 1128 H 117.667 -0.0948564 0.740953 0
M  V30 1129 H 120.329 0.468341 1.89189 0
M  V30 1130 H 119.425 -0.488994 3.08245 0
M  V30 1131 N 119.726 -1.57421 0.075193 0
M  V30 1132 C 120.974 -1.93236 -0.591974 0
M  V30 1133 C 121.295 -0.956241 -1.69944 0
M  V30 1134 O 120.565 -0.00494792 -1.95899 0
M  V30 1135 H 119.145 -0.713355 -0.22166 0
M  V30 1136 H 121.807 -1.9444 0.133848 0
M  V30 1137 H 120.903 -2.95131 -1.01509 0
M  V30 1138 N 121.204 0.198386 -1.56346 0
M  V30 1139 C 122.452 0.91747 -1.80075 0
M  V30 1140 C 122.773 1.83929 -0.647692 0
M  V30 1141 O 122.043 1.93029 0.334166 0
M  V30 1142 H 120.623 0.341774 -0.664228 0
M  V30 1143 H 123.285 0.204684 -1.93822 0
M  V30 1144 H 122.381 1.51055 -2.7311 0
M  V30 1145 N 122.682 1.50554 0.465978 0
M  V30 1146 C 123.93 1.61479 1.21528 0
M  V30 1147 C 124.251 0.319596 1.92363 0
M  V30 1148 O 123.521 -0.663194 1.84333 0
M  V30 1149 H 122.101 0.595055 0.451573 0
M  V30 1150 H 124.763 1.87355 0.53704 0
M  V30 1151 H 123.859 2.42846 1.96042 0
M  V30 1152 N 124.16 -0.719506 1.40217 0
M  V30 1153 C 125.408 -1.47641 1.3801 0
M  V30 1154 C 125.729 -1.94992 -0.018145 0
M  V30 1155 O 124.999 -1.70073 -0.972207 0
M  V30 1156 H 123.579 -0.547744 0.507923 0
M  V30 1157 H 126.241 -0.853187 1.75233 0
M  V30 1158 H 125.337 -2.35112 2.05253 0
M  V30 1159 N 125.638 -1.25649 -0.95132 0
M  V30 1160 C 126.915 -1.01361 -1.67288 0
M  V30 1161 C 127.295 0.459135 -2.06046 0
M  V30 1162 O 126.643 1.43723 -1.7764 0
M  V30 1163 C 126.853 -1.95256 -2.89268 0
M  V30 1164 C 128.201 -2.23289 -3.61147 0
M  V30 1165 O 129.225 -1.93041 -2.99355 0
M  V30 1166 O 128.084 -2.74741 -4.72419 0
M  V30 1167 H 125.178 -0.38464 -0.732107 0
M  V30 1168 H 127.724 -1.36817 -1.00395 0
M  V30 1169 H 126.496 -2.94685 -2.57442 0
M  V30 1170 H 126.119 -1.60218 -3.6389 0
M  V30 1171 N 127.117 1.15442 -1.07289 0
M  V30 1172 C 128.342 1.90638 -0.816828 0
M  V30 1173 C 128.767 1.77445 0.624083 0
M  V30 1174 O 128.125 1.10671 1.43602 0
M  V30 1175 C 128.173 3.39008 -1.22906 0
M  V30 1176 O 127.277 4.10701 -0.373975 0
M  V30 1177 H 126.618 0.593555 -0.297638 0
M  V30 1178 H 129.148 1.46198 -1.43134 0
M  V30 1179 H 129.158 3.89801 -1.20497 0
M  V30 1180 H 127.833 3.47929 -2.27856 0
M  V30 1181 H 126.41 3.70046 -0.460499 0
M  V30 1182 N 128.595 0.856903 1.32268 0
M  V30 1183 C 129.843 0.460474 1.96784 0
M  V30 1184 C 130.164 -0.987701 1.68135 0
M  V30 1185 O 129.434 -1.69058 0.989765 0
M  V30 1186 H 128.014 0.167289 0.728027 0
M  V30 1187 H 130.676 1.09383 1.61312 0
M  V30 1188 H 129.772 0.60739 3.06133 0
M  V30 1189 N 130.073 -1.45103 0.615059 0
M  V30 1190 C 131.02 -2.30586 -0.0993978 0
M  V30 1191 C 131.99 -1.42544 -0.852669 0
M  V30 1192 O 133.175 -1.71465 -0.836917 0
M  V30 1193 C 130.315 -3.27572 -1.08583 0
M  V30 1194 C 129.428 -4.30717 -0.332656 0
M  V30 1195 C 128.563 -5.14807 -1.30947 0
M  V30 1196 C 127.602 -6.09673 -0.544538 0
M  V30 1197 N 126.739 -6.86517 -1.47101 0
M  V30 1198 H 131.579 -2.91144 0.635542 0
M  V30 1199 H 129.116 -1.4346 0.325206 0
M  V30 1200 H 131.074 -3.82276 -1.67095 0
M  V30 1201 H 129.704 -2.68751 -1.78809 0
M  V30 1202 H 128.756 -3.78615 0.368107 0
M  V30 1203 H 130.068 -4.98102 0.263842 0
M  V30 1204 H 129.222 -5.73948 -1.96643 0
M  V30 1205 H 127.961 -4.47458 -1.9399 0
M  V30 1206 H 126.966 -5.49656 0.126003 0
M  V30 1207 H 128.191 -6.79052 0.080947 0
M  V30 1208 H 126.137 -6.21851 -2.08895 0
M  V30 1209 H 126.054 -7.50281 -0.928137 0
M  V30 1210 H 127.322 -7.50194 -2.11731 0
M  V30 1211 N 131.551 -0.354651 -1.53558 0
M  V30 1212 C 132.8 0.239504 -2.00273 0
M  V30 1213 C 133.113 1.50759 -1.24623 0
M  V30 1214 O 134.319 2.17968 -1.61871 0
M  V30 1215 C 132.775 0.477341 -3.5672 0
M  V30 1216 C 132.383 -0.775488 -4.41237 0
M  V30 1217 C 134.127 1.02975 -4.11821 0
M  V30 1218 C 132.034 -0.507838 -5.89216 0
M  V30 1219 H 130.964 0.0932743 -0.748208 0
M  V30 1220 H 133.615 -0.471701 -1.77334 0
M  V30 1221 H 131.997 1.24953 -3.7577 0
M  V30 1222 H 133.171 -1.54963 -4.33962 0
M  V30 1223 H 131.486 -1.25033 -3.97185 0
M  V30 1224 H 134.083 1.24513 -5.2 0
M  V30 1225 H 134.426 1.98862 -3.65731 0
M  V30 1226 H 134.959 0.317994 -3.96527 0
M  V30 1227 H 131.698 -1.43674 -6.39561 0
M  V30 1228 H 131.218 0.228011 -5.99366 0
M  V30 1229 H 132.897 -0.129238 -6.46871 0
M  V30 1230 N 133.029 1.57378 -0.0835403 0
M  V30 1231 C 134.275 1.94217 0.583733 0
M  V30 1232 C 134.608 0.964653 1.68547 0
M  V30 1233 O 133.883 -0.00422258 1.945 0
M  V30 1234 C 134.166 3.41253 1.14972 0
M  V30 1235 C 134.019 4.49768 0.0538277 0
M  V30 1236 C 135.338 3.89352 2.05166 0
M  V30 1237 H 132.457 0.706233 0.210724 0
M  V30 1238 H 135.099 1.89392 -0.1519 0
M  V30 1239 H 133.249 3.45496 1.77665 0
M  V30 1240 H 134.921 4.57641 -0.579851 0
M  V30 1241 H 133.164 4.29432 -0.614068 0
M  V30 1242 H 133.835 5.49817 0.490452 0
M  V30 1243 H 136.311 3.87189 1.52393 0
M  V30 1244 H 135.187 4.92822 2.41698 0
M  V30 1245 H 135.448 3.27973 2.96456 0
M  V30 1246 N 134.507 -0.190092 1.56449 0
M  V30 1247 C 135.756 -0.907912 1.80111 0
M  V30 1248 C 136.069 -1.84214 0.657619 0
M  V30 1249 O 137.275 -2.60094 0.778663 0
M  V30 1250 C 135.731 -1.66485 3.19078 0
M  V30 1251 C 135.339 -0.7752 4.41242 0
M  V30 1252 C 137.083 -2.37201 3.52045 0
M  V30 1253 C 134.99 -1.53129 5.71231 0
M  V30 1254 H 133.92 -0.34276 0.671589 0
M  V30 1255 H 136.571 -0.161109 1.82791 0
M  V30 1256 H 134.953 -2.45572 3.10661 0
M  V30 1257 H 136.127 -0.0226298 4.60794 0
M  V30 1258 H 134.442 -0.178627 4.16017 0
M  V30 1259 H 137.039 -2.94329 4.46402 0
M  V30 1260 H 137.382 -3.11632 2.76028 0
M  V30 1261 H 137.915 -1.65075 3.61932 0
M  V30 1262 H 134.654 -0.82967 6.50228 0
M  V30 1263 H 134.174 -2.25767 5.55688 0
M  V30 1264 H 135.853 -2.08377 6.12526 0
M  V30 1265 N 135.985 -1.50799 -0.457987 0
M  V30 1266 C 136.933 -1.71162 -1.575 0
M  V30 1267 C 137.927 -0.577592 -1.59249 0
M  V30 1268 O 139.133 -0.758443 -1.63241 0
M  V30 1269 H 135.508 -0.540468 -0.522875 0
M  V30 1270 H 137.479 -2.64837 -1.37492 0
M  V30 1271 C 136.228 -1.83496 -2.95338 0
M  V30 1272 H 135.551 -2.70153 -2.94716 0
M  V30 1273 H 136.991 -2.01765 -3.72917 0
M  V30 1274 C 135.45 -0.589694 -3.31699 0
M  V30 1275 O 135.98 0.265163 -4.00824 0
M  V30 1276 N 134.186 -0.439845 -2.87252 0
M  V30 1277 H 133.733 -1.13655 -2.31172 0
M  V30 1278 H 133.691 0.392159 -3.11945 0
M  V30 1279 N 137.463 0.71206 -1.40597 0
M  V30 1280 C 138.709 1.47416 -1.39271 0
M  V30 1281 C 139.042 1.942 0.00388791 0
M  V30 1282 O 138.317 1.68403 0.973179 0
M  V30 1283 C 138.6 2.69774 -2.38525 0
M  V30 1284 C 138.453 2.28861 -3.87224 0
M  V30 1285 C 139.772 3.71939 -2.35264 0
M  V30 1286 H 136.891 0.534713 -0.5072 0
M  V30 1287 H 139.533 0.812375 -1.71757 0
M  V30 1288 H 137.683 3.26238 -2.10953 0
M  V30 1289 H 139.355 1.77852 -4.25636 0
M  V30 1290 H 137.598 1.60824 -4.02887 0
M  V30 1291 H 138.269 3.16584 -4.52193 0
M  V30 1292 H 140.745 3.25113 -2.59694 0
M  V30 1293 H 139.621 4.55186 -3.06753 0
M  V30 1294 H 139.882 4.20484 -1.36549 0
M  V30 1295 N 138.941 1.26152 0.944643 0
M  V30 1296 C 140.189 1.11271 1.6871 0
M  V30 1297 C 140.51 -0.345166 1.91921 0
M  V30 1298 O 139.78 -1.24387 1.51343 0
M  V30 1299 H 138.36 0.408783 0.625224 0
M  V30 1300 H 141.022 1.58427 1.1352 0
M  V30 1301 H 140.118 1.62879 2.66227 0
M  V30 1302 N 140.419 -1.14872 1.07899 0
M  V30 1303 C 141.667 -1.85422 0.803941 0
M  V30 1304 C 141.988 -1.83051 -0.67211 0
M  V30 1305 O 141.258 -1.27532 -1.48703 0
M  V30 1306 H 139.838 -0.686537 0.294408 0
M  V30 1307 H 142.5 -1.39226 1.3639 0
M  V30 1308 H 141.596 -2.90399 1.14346 0
M  V30 1309 N 141.898 -0.863906 -1.31812 0
M  V30 1310 C 143.144 -0.472535 -1.97218 0
M  V30 1311 C 143.477 0.971394 -1.68159 0
M  V30 1312 O 142.752 1.68309 -0.974798 0
M  V30 1313 C 143.035 -0.723054 -3.52766 0
M  V30 1314 C 142.888 -2.21608 -3.91421 0
M  V30 1315 C 144.207 -0.185522 -4.39709 0
M  V30 1316 H 141.326 -0.173158 -0.71637 0
M  V30 1317 H 143.968 -1.08403 -1.56041 0
M  V30 1318 H 142.118 -0.202577 -3.87971 0
M  V30 1319 H 143.79 -2.80334 -3.66347 0
M  V30 1320 H 142.033 -2.691 -3.40246 0
M  V30 1321 H 142.704 -2.34203 -4.99853 0
M  V30 1322 H 145.18 -0.630726 -4.11292 0
M  V30 1323 H 144.056 -0.390306 -5.47511 0
M  V30 1324 H 144.317 0.912229 -4.32586 0
M  V30 1325 N 143.376 1.44774 -0.622745 0
M  V30 1326 C 144.792 1.56986 -0.287652 0
M  V30 1327 C 144.992 1.61167 1.20944 0
M  V30 1328 O 144.048 1.55015 1.99315 0
M  V30 1329 C 145.361 2.84551 -0.972188 0
M  V30 1330 C 146.909 2.9825 -0.949536 0
M  V30 1331 C 147.384 4.28605 -1.61437 0
M  V30 1332 N 148.875 4.35399 -1.58057 0
M  V30 1333 C 149.61 5.34964 -2.064 0
M  V30 1334 N 149.106 6.40981 -2.62897 0
M  V30 1335 N 150.899 5.26419 -1.97078 0
M  V30 1336 H 143.05 1.40304 -1.59463 0
M  V30 1337 H 145.313 0.671794 -0.668878 0
M  V30 1338 H 145.019 2.87417 -2.02693 0
M  V30 1339 H 144.893 3.73807 -0.504771 0
M  V30 1340 H 147.28 2.94941 0.0967067 0
M  V30 1341 H 147.361 2.10364 -1.45536 0
M  V30 1342 H 147.005 4.32672 -2.66002 0
M  V30 1343 H 146.935 5.15334 -1.08344 0
M  V30 1344 H 149.426 3.59397 -1.16801 0
M  V30 1345 H 149.739 7.13225 -2.97539 0
M  V30 1346 H 148.084 6.4169 -2.66943 0
M  V30 1347 H 151.275 4.42504 -1.52669 0
M  V30 1348 H 151.448 6.03861 -2.35066 0
M  V30 1349 N 144.854 0.36279 1.53368 0
M  V30 1350 C 145.804 -0.501391 2.22419 0
M  V30 1351 C 146.788 -1.0509 1.2184 0
M  V30 1352 O 147.98 -0.981404 1.47301 0
M  V30 1353 C 145.109 -1.64201 3.01484 0
M  V30 1354 C 144.195 -1.10552 4.09438 0
M  V30 1355 N 144.586 -0.291788 5.04958 0
M  V30 1356 C 142.884 -1.3806 4.24094 0
M  V30 1357 C 143.585 0.00162655 5.817 0
M  V30 1358 N 142.561 -0.595244 5.40331 0
M  V30 1359 H 146.363 0.127159 2.93625 0
M  V30 1360 H 143.877 0.170658 1.61501 0
M  V30 1361 H 145.874 -2.27326 3.49469 0
M  V30 1362 H 144.534 -2.27365 2.31809 0
M  V30 1363 H 145.545 0.0687731 5.17854 0
M  V30 1364 H 142.222 -2.01522 3.65644 0
M  V30 1365 H 143.612 0.659278 6.68658 0
M  V30 1366 N 146.332 -1.57332 0.0918853 0
M  V30 1367 C 147.242 -2.17368 -0.882505 0
M  V30 1368 C 148.258 -1.14226 -1.31257 0
M  V30 1369 O 149.434 -1.46582 -1.38115 0
M  V30 1370 C 146.499 -2.73962 -2.12476 0
M  V30 1371 C 145.56 -3.92048 -1.7492 0
M  V30 1372 C 144.793 -4.45933 -2.93223 0
M  V30 1373 O 145.016 -3.98764 -4.07852 0
M  V30 1374 O 143.95 -5.36999 -2.71875 0
M  V30 1375 H 147.776 -3.01031 -0.40172 0
M  V30 1376 H 145.361 -1.48813 -0.132291 0
M  V30 1377 H 147.243 -3.10147 -2.85283 0
M  V30 1378 H 145.918 -1.93347 -2.59613 0
M  V30 1379 H 144.825 -3.6068 -0.993025 0
M  V30 1380 H 146.158 -4.74017 -1.32548 0
M  V30 1381 N 147.81 0.181792 -1.56548 0
M  V30 1382 C 149.038 0.915947 -1.85521 0
M  V30 1383 C 149.453 1.76282 -0.676016 0
M  V30 1384 O 148.81 1.79012 0.355077 0
M  V30 1385 C 148.861 1.80126 -3.13427 0
M  V30 1386 O 148.582 0.988562 -4.26801 0
M  V30 1387 C 150.083 2.64597 -3.55673 0
M  V30 1388 H 147.303 0.26661 -0.61576 0
M  V30 1389 H 149.847 0.185039 -2.03661 0
M  V30 1390 H 148.002 2.48563 -2.97145 0
M  V30 1391 H 148.416 1.59308 -4.99721 0
M  V30 1392 H 149.89 3.2235 -4.48101 0
M  V30 1393 H 150.367 3.38958 -2.79292 0
M  V30 1394 H 150.973 2.0151 -3.74532 0
M  V30 1395 N 149.288 1.51039 0.449983 0
M  V30 1396 C 150.518 1.66627 1.22143 0
M  V30 1397 C 150.926 0.357776 1.85786 0
M  V30 1398 O 150.269 -0.672424 1.70951 0
M  V30 1399 C 150.331 2.71562 2.35573 0
M  V30 1400 C 149.995 4.14526 1.92399 0
M  V30 1401 C 150.992 4.99717 1.43453 0
M  V30 1402 C 148.677 4.60559 2.00475 0
M  V30 1403 C 150.671 6.28998 1.03155 0
M  V30 1404 C 148.358 5.8984 1.59788 0
M  V30 1405 C 149.356 6.73886 1.11208 0
M  V30 1406 O 149.044 8.0075 0.710935 0
M  V30 1407 H 148.776 0.562635 0.374724 0
M  V30 1408 H 151.33 1.98146 0.541036 0
M  V30 1409 H 149.56 2.3533 3.06849 0
M  V30 1410 H 151.249 2.76156 2.97478 0
M  V30 1411 H 152.015 4.65361 1.36618 0
M  V30 1412 H 147.894 3.95273 2.37235 0
M  V30 1413 H 151.438 6.9455 0.651663 0
M  V30 1414 H 147.335 6.23713 1.66289 0
M  V30 1415 H 148.103 8.142 0.837913 0
M  V30 1416 N 150.766 -0.704594 1.40972 0
M  V30 1417 C 152.182 -1.01406 1.23244 0
M  V30 1418 C 152.382 -2.01169 0.115399 0
M  V30 1419 O 151.438 -2.47021 -0.523147 0
M  V30 1420 C 152.751 -1.54728 2.57836 0
M  V30 1421 C 154.299 -1.66658 2.64942 0
M  V30 1422 C 154.774 -2.23383 3.9983 0
M  V30 1423 N 156.265 -2.30756 4.01629 0
M  V30 1424 C 157 -2.75655 5.02794 0
M  V30 1425 N 156.496 -3.20225 6.14352 0
M  V30 1426 N 158.289 -2.75138 4.90159 0
M  V30 1427 H 150.44 -0.0435285 2.12355 0
M  V30 1428 H 152.703 -0.0818951 0.944456 0
M  V30 1429 H 152.409 -0.888832 3.40283 0
M  V30 1430 H 152.283 -2.53084 2.79693 0
M  V30 1431 H 154.67 -2.31617 1.8286 0
M  V30 1432 H 154.751 -0.668717 2.46904 0
M  V30 1433 H 154.395 -1.59043 4.82357 0
M  V30 1434 H 154.325 -3.23904 4.15203 0
M  V30 1435 H 156.816 -1.99291 3.21079 0
M  V30 1436 H 157.129 -3.53084 6.87424 0
M  V30 1437 H 155.474 -3.18156 6.17901 0
M  V30 1438 H 158.665 -2.39661 4.02095 0
M  V30 1439 H 158.838 -3.09812 5.6914 0
M  V30 1440 N 152.244 -1.26651 -0.937939 0
M  V30 1441 C 153.469 -1.15279 -1.72411 0
M  V30 1442 C 153.894 0.287866 -1.85884 0
M  V30 1443 O 153.252 1.20855 -1.35143 0
M  V30 1444 C 153.3 -1.83028 -3.10698 0
M  V30 1445 O 152.404 -1.12128 -3.96864 0
M  V30 1446 H 151.745 -0.401504 -0.528858 0
M  V30 1447 H 154.275 -1.67531 -1.1745 0
M  V30 1448 H 154.285 -1.89981 -3.6107 0
M  V30 1449 H 152.96 -2.87833 -3.00208 0
M  V30 1450 H 151.537 -1.13173 -3.55312 0
M  V30 1451 N 153.722 1.14298 -1.08507 0
M  V30 1452 C 154.95 1.89219 -0.836876 0
M  V30 1453 C 155.365 1.78638 0.611054 0
M  V30 1454 O 154.722 1.14643 1.41998 0
M  V30 1455 C 154.773 3.39158 -1.25116 0
M  V30 1456 O 154.494 3.49449 -2.64229 0
M  V30 1457 C 155.995 4.31073 -1.03398 0
M  V30 1458 H 153.215 0.599328 -0.301739 0
M  V30 1459 H 155.759 1.44746 -1.44461 0
M  V30 1460 H 153.914 3.81251 -0.687514 0
M  V30 1461 H 154.328 4.42589 -2.81452 0
M  V30 1462 H 155.802 5.34646 -1.37323 0
M  V30 1463 H 156.279 4.3919 0.0289259 0
M  V30 1464 H 156.885 3.94738 -1.58311 0
M  V30 1465 N 155.201 0.870884 1.31352 0
M  V30 1466 C 156.131 0.343096 2.30966 0
M  V30 1467 C 157.112 -0.566507 1.60389 0
M  V30 1468 O 158.297 -0.483336 1.88089 0
M  V30 1469 C 155.427 -0.455487 3.443 0
M  V30 1470 C 154.381 0.361103 4.26474 0
M  V30 1471 C 153.707 -0.563221 5.31725 0
M  V30 1472 C 155.007 1.59566 4.97329 0
M  V30 1473 H 156.701 1.17548 2.75359 0
M  V30 1474 H 154.247 0.566686 1.32381 0
M  V30 1475 H 156.2 -0.83525 4.13039 0
M  V30 1476 H 154.924 -1.32139 2.98675 0
M  V30 1477 H 153.583 0.722825 3.59403 0
M  V30 1478 H 153.231 -1.42643 4.82351 0
M  V30 1479 H 152.931 -0.0207409 5.87596 0
M  V30 1480 H 154.455 -0.939808 6.03324 0
M  V30 1481 H 155.869 1.28728 5.58661 0
M  V30 1482 H 154.266 2.07728 5.63 0
M  V30 1483 H 155.336 2.34798 4.24262 0
M  V30 1484 N 156.679 -1.44442 0.630414 0
M  V30 1485 C 158.095 -1.56832 0.295973 0
M  V30 1486 C 158.295 -1.61806 -1.20088 0
M  V30 1487 O 157.351 -1.5607 -1.9849 0
M  V30 1488 C 158.664 -2.84031 0.987264 0
M  V30 1489 C 160.212 -2.97742 0.96534 0
M  V30 1490 C 160.687 -4.27743 1.63708 0
M  V30 1491 N 162.178 -4.34555 1.60364 0
M  V30 1492 C 162.913 -5.33862 2.09234 0
M  V30 1493 N 162.409 -6.39578 2.66292 0
M  V30 1494 N 164.202 -5.25366 1.99867 0
M  V30 1495 H 156.353 -1.39457 1.60205 0
M  V30 1496 H 158.616 -0.668237 0.672431 0
M  V30 1497 H 158.322 -2.86338 2.04215 0
M  V30 1498 H 158.196 -3.73534 0.524588 0
M  V30 1499 H 160.583 -2.94989 -0.0810639 0
M  V30 1500 H 160.664 -2.09589 1.4665 0
M  V30 1501 H 160.308 -4.31255 2.68293 0
M  V30 1502 H 160.238 -5.14752 1.11076 0
M  V30 1503 H 162.729 -3.58772 1.18705 0
M  V30 1504 H 163.042 -7.11637 3.01317 0
M  V30 1505 H 161.387 -6.40265 2.70343 0
M  V30 1506 H 164.578 -4.41688 1.55013 0
M  V30 1507 H 164.751 -6.02606 2.38265 0
M  V30 1508 N 158.157 -0.370918 -1.53173 0
M  V30 1509 C 159.385 0.217704 -2.05751 0
M  V30 1510 C 159.8 1.42018 -1.24404 0
M  V30 1511 O 159.157 1.80245 -0.286033 0
M  V30 1512 C 159.208 0.605954 -3.56385 0
M  V30 1513 O 158.929 -0.548734 -4.3465 0
M  V30 1514 C 160.43 1.2524 -4.25241 0
M  V30 1515 H 157.65 0.0371659 -0.66997 0
M  V30 1516 H 160.194 -0.530832 -1.9749 0
M  V30 1517 H 158.349 1.3044 -3.6478 0
M  V30 1518 H 158.763 -0.23376 -5.23979 0
M  V30 1519 H 160.237 1.47458 -5.3194 0
M  V30 1520 H 160.714 2.2143 -3.79296 0
M  V30 1521 H 161.32 0.595233 -4.21114 0
M  V30 1522 N 159.635 1.57281 -0.100228 0
M  V30 1523 C 160.565 2.17328 0.853857 0
M  V30 1524 C 161.546 1.10804 1.2906 0
M  V30 1525 O 162.731 1.38963 1.35657 0
M  V30 1526 C 159.861 2.75772 2.11109 0
M  V30 1527 C 158.815 3.87713 1.81279 0
M  V30 1528 C 158.141 4.32882 3.13874 0
M  V30 1529 C 159.441 5.10677 1.09574 0
M  V30 1530 H 161.135 2.97305 0.353545 0
M  V30 1531 H 158.681 1.43009 0.168612 0
M  V30 1532 H 160.634 3.16433 2.78296 0
M  V30 1533 H 159.358 1.93057 2.63432 0
M  V30 1534 H 158.017 3.476 1.16489 0
M  V30 1535 H 157.665 3.47051 3.64095 0
M  V30 1536 H 157.365 5.08358 2.94696 0
M  V30 1537 H 158.889 4.7618 3.82211 0
M  V30 1538 H 160.303 5.48474 1.66879 0
M  V30 1539 H 158.7 5.91615 1.00557 0
M  V30 1540 H 159.77 4.84835 0.0793299 0
M  V30 1541 N 161.113 -0.173488 1.56642 0
M  V30 1542 C 162.524 -0.736155 1.71574 0
M  V30 1543 C 162.875 -1.82888 0.710389 0
M  V30 1544 O 162 -2.16017 -0.1287 0
M  V30 1545 C 162.595 -1.34211 3.11083 0
M  V30 1546 C 161.154 -1.85162 3.27707 0
M  V30 1547 C 160.301 -0.729765 2.67525 0
M  V30 1548 H 163.252 0.0518786 1.58615 0
M  V30 1549 H 163.273 -2.21178 3.09613 0
M  V30 1550 H 162.785 -0.546579 3.84232 0
M  V30 1551 H 160.886 -2.67366 2.59512 0
M  V30 1552 H 160.999 -1.99855 4.35425 0
M  V30 1553 H 159.363 -1.14965 2.27278 0
M  V30 1554 H 160.146 0.0538806 3.43258 0
M  V30 1555 N 162.591 -1.51276 -0.441967 0
M  V30 1556 C 163.839 -1.63392 -1.18943 0
M  V30 1557 C 164.16 -0.350159 -1.9183 0
M  V30 1558 O 163.43 0.633784 -1.85364 0
M  V30 1559 H 162.01 -0.602164 -0.442049 0
M  V30 1560 H 164.672 -1.88186 -0.507165 0
M  V30 1561 H 163.768 -2.45934 -1.92154 0
M  V30 1562 N 164.069 0.697108 -1.41344 0
M  V30 1563 C 165.297 1.48593 -1.43972 0
M  V30 1564 C 165.712 1.88747 -0.0445612 0
M  V30 1565 O 165.069 1.56682 0.935785 0
M  V30 1566 C 165.12 2.74946 -2.34706 0
M  V30 1567 O 164.841 2.36484 -3.68791 0
M  V30 1568 C 166.342 3.687 -2.46121 0
M  V30 1569 H 163.562 0.457964 -0.490418 0
M  V30 1570 H 166.106 0.858429 -1.8561 0
M  V30 1571 H 164.261 3.33937 -1.9638 0
M  V30 1572 H 164.675 3.17918 -4.17167 0
M  V30 1573 H 166.149 4.54145 -3.13777 0
M  V30 1574 H 166.626 4.13081 -1.49199 0
M  V30 1575 H 167.232 3.15613 -2.85076 0
M  V30 1576 N 165.547 1.27147 0.931209 0
M  V30 1577 C 166.963 1.04475 1.20653 0
M  V30 1578 C 167.163 -0.223885 2.00252 0
M  V30 1579 O 166.219 -0.930332 2.34736 0
M  V30 1580 C 167.532 2.28209 1.95809 0
M  V30 1581 C 169.08 2.33211 2.08762 0
M  V30 1582 C 169.555 3.56665 2.87323 0
M  V30 1583 N 171.046 3.57201 2.94892 0
M  V30 1584 C 171.781 4.49395 3.56134 0
M  V30 1585 N 171.277 5.51889 4.18796 0
M  V30 1586 N 173.07 4.37026 3.53504 0
M  V30 1587 H 165.221 2.08612 0.399333 0
M  V30 1588 H 167.484 0.917312 0.239253 0
M  V30 1589 H 167.19 3.20538 1.44736 0
M  V30 1590 H 167.064 2.33247 2.96438 0
M  V30 1591 H 169.451 1.41391 2.59023 0
M  V30 1592 H 169.532 2.32178 1.07364 0
M  V30 1593 H 169.176 4.4882 2.37746 0
M  V30 1594 H 169.106 3.54948 3.88998 0
M  V30 1595 H 171.597 2.83074 2.50354 0
M  V30 1596 H 171.91 6.18409 4.63454 0
M  V30 1597 H 170.255 5.55735 4.17353 0
M  V30 1598 H 173.446 3.56166 3.03749 0
M  V30 1599 H 173.619 5.09067 4.00942 0
M  V30 1600 N 167.025 -1.13721 1.09112 0
M  V30 1601 C 167.955 -2.21148 0.749385 0
M  V30 1602 C 168.936 -1.6792 -0.271475 0
M  V30 1603 O 170.121 -1.93693 -0.140251 0
M  V30 1604 C 167.251 -3.46905 0.165659 0
M  V30 1605 C 166.205 -4.13203 1.11567 0
M  V30 1606 C 165.531 -5.33248 0.393809 0
M  V30 1607 C 166.831 -4.60912 2.45678 0
M  V30 1608 H 168.525 -2.4999 1.64758 0
M  V30 1609 H 166.071 -1.20156 0.793626 0
M  V30 1610 H 168.024 -4.21313 -0.085466 0
M  V30 1611 H 166.748 -3.17449 -0.767714 0
M  V30 1612 H 165.407 -3.40758 1.35202 0
M  V30 1613 H 165.055 -5.00054 -0.543599 0
M  V30 1614 H 164.755 -5.78552 1.02721 0
M  V30 1615 H 166.279 -6.10413 0.150908 0
M  V30 1616 H 167.693 -5.26759 2.26269 0
M  V30 1617 H 166.09 -5.16944 3.04776 0
M  V30 1618 H 167.16 -3.75603 3.06677 0
M  V30 1619 N 168.503 -0.877838 -1.30888 0
M  V30 1620 C 169.466 -0.344265 -2.266 0
M  V30 1621 C 170.466 0.50922 -1.52524 0
M  V30 1622 O 171.656 0.317398 -1.71284 0
M  V30 1623 C 168.788 0.510198 -3.37061 0
M  V30 1624 H 169.981 -1.1893 -2.7531 0
M  V30 1625 H 167.534 -0.654088 -1.41956 0
M  V30 1626 H 168.269 1.37612 -2.93655 0
M  V30 1627 H 168.054 -0.101047 -3.9197 0
M  V30 1628 H 169.544 0.875537 -4.08319 0
M  V30 1629 N 169.982 1.44106 -0.638065 0
M  V30 1630 C 171.23 2.01579 -0.145043 0
M  V30 1631 C 171.551 1.50496 1.24 0
M  V30 1632 O 170.821 0.711374 1.82527 0
M  V30 1633 H 169.401 0.745282 -0.05063 0
M  V30 1634 H 172.063 1.76516 -0.826327 0
M  V30 1635 H 171.159 3.11877 -0.118039 0
M  V30 1636 N 171.46 0.379036 1.52974 0
M  V30 1637 C 172.39 -0.452706 2.29069 0
M  V30 1638 C 173.371 -1.07237 1.32039 0
M  V30 1639 O 174.556 -1.08708 1.60923 0
M  V30 1640 C 171.686 -1.5856 3.08992 0
M  V30 1641 C 170.64 -1.0925 4.13822 0
M  V30 1642 C 169.966 -2.31668 4.81907 0
M  V30 1643 C 171.266 -0.167702 5.22031 0
M  V30 1644 H 172.96 0.182181 2.98845 0
M  V30 1645 H 170.506 0.0890592 1.43724 0
M  V30 1646 H 172.459 -2.1742 3.6098 0
M  V30 1647 H 171.183 -2.24792 2.36931 0
M  V30 1648 H 169.842 -0.526494 3.628 0
M  V30 1649 H 169.49 -2.96386 4.06404 0
M  V30 1650 H 169.19 -1.9934 5.52754 0
M  V30 1651 H 170.714 -2.91189 5.36695 0
M  V30 1652 H 172.128 -0.664186 5.6944 0
M  V30 1653 H 170.525 0.0653265 6.00064 0
M  V30 1654 H 171.595 0.786347 4.78482 0
M  V30 1655 N 172.938 -1.57226 0.108567 0
M  V30 1656 C 174.166 -1.99179 -0.559954 0
M  V30 1657 C 174.581 -0.988022 -1.60884 0
M  V30 1658 O 173.938 0.0205512 -1.82488 0
M  V30 1659 C 173.989 -3.41159 -1.19552 0
M  V30 1660 O 173.71 -4.37694 -0.188577 0
M  V30 1661 C 175.211 -3.98188 -1.94837 0
M  V30 1662 H 172.431 -0.654228 -0.149088 0
M  V30 1663 H 174.975 -2.03598 0.19183 0
M  V30 1664 H 173.13 -3.37711 -1.89815 0
M  V30 1665 H 173.544 -5.20469 -0.649014 0
M  V30 1666 H 175.018 -4.99644 -2.34648 0
M  V30 1667 H 175.495 -3.3675 -2.81951 0
M  V30 1668 H 176.101 -4.0515 -1.2936 0
M  V30 1669 N 174.416 0.165178 -1.56732 0
M  V30 1670 C 175.326 1.22423 -2.00125 0
M  V30 1671 C 176.342 1.48084 -0.913619 0
M  V30 1672 O 177.518 1.60112 -1.22172 0
M  V30 1673 C 174.583 2.54197 -2.35764 0
M  V30 1674 C 173.644 2.36343 -3.58386 0
M  V30 1675 C 172.877 3.61834 -3.92316 0
M  V30 1676 O 173.1 4.67267 -3.27135 0
M  V30 1677 O 172.034 3.55579 -4.85641 0
M  V30 1678 H 175.86 0.885886 -2.90492 0
M  V30 1679 H 173.445 0.372518 -1.44681 0
M  V30 1680 H 175.327 3.3192 -2.59629 0
M  V30 1681 H 174.002 2.87598 -1.48557 0
M  V30 1682 H 172.909 1.56632 -3.39731 0
M  V30 1683 H 174.242 2.07865 -4.46154 0
M  V30 1684 N 175.894 1.51508 0.433938 0
M  V30 1685 C 177.305 1.56784 1.01369 0
M  V30 1686 C 177.656 0.393349 1.92217 0
M  V30 1687 O 176.781 -0.489441 2.10792 0
M  V30 1688 C 177.376 2.84144 1.8452 0
M  V30 1689 C 175.935 2.9198 2.37539 0
M  V30 1690 C 175.082 2.51482 1.16843 0
M  V30 1691 H 178.033 1.57236 0.215081 0
M  V30 1692 H 178.054 2.68098 2.70007 0
M  V30 1693 H 177.566 3.69607 1.18373 0
M  V30 1694 H 175.667 2.10955 3.0713 0
M  V30 1695 H 175.78 3.95704 2.70103 0
M  V30 1696 H 174.144 2.04758 1.51481 0
M  V30 1697 H 174.927 3.39293 0.523015 0
M  V30 1698 N 177.372 -0.689602 1.41712 0
M  V30 1699 C 178.282 -1.83314 1.46401 0
M  V30 1700 C 179.298 -1.7036 0.35405 0
M  V30 1701 O 180.474 -1.92171 0.602692 0
M  V30 1702 C 177.539 -3.19344 1.34982 0
M  V30 1703 C 176.6 -3.44363 2.56344 0
M  V30 1704 C 175.833 -4.73904 2.45461 0
M  V30 1705 O 176.056 -5.508 1.48241 0
M  V30 1706 O 174.99 -4.99839 3.35328 0
M  V30 1707 H 178.816 -1.82314 2.42889 0
M  V30 1708 H 176.401 -0.843438 1.23315 0
M  V30 1709 H 178.283 -4.00547 1.3092 0
M  V30 1710 H 176.958 -3.21014 0.41612 0
M  V30 1711 H 175.865 -2.63067 2.65982 0
M  V30 1712 H 177.198 -3.47512 3.48563 0
M  V30 1713 N 178.85 -1.27639 -0.924453 0
M  V30 1714 C 179.813 -1.10681 -2.00705 0
M  V30 1715 C 180.813 -0.0497823 -1.60723 0
M  V30 1716 O 182.003 -0.294654 -1.7169 0
M  V30 1717 C 179.135 -0.687164 -3.33902 0
M  V30 1718 H 180.328 -2.06817 -2.17179 0
M  V30 1719 H 177.881 -1.10473 -1.10569 0
M  V30 1720 H 178.616 0.275439 -3.23128 0
M  V30 1721 H 178.401 -1.45061 -3.6428 0
M  V30 1722 H 179.891 -0.590853 -4.13399 0
M  V30 1723 N 180.328 1.1314 -1.09713 0
M  V30 1724 C 181.291 2.16831 -0.742751 0
M  V30 1725 C 182.291 1.59159 0.229129 0
M  V30 1726 O 183.481 1.74199 0.00693237 0
M  V30 1727 C 180.613 3.40756 -0.0989168 0
M  V30 1728 H 181.806 2.49695 -1.66109 0
M  V30 1729 H 179.359 1.2802 -0.896699 0
M  V30 1730 H 180.094 3.13485 0.830514 0
M  V30 1731 H 179.879 3.83888 -0.798265 0
M  V30 1732 H 181.369 4.17386 0.133524 0
M  V30 1733 N 181.806 0.884767 1.30421 0
M  V30 1734 C 182.769 0.356277 2.26414 0
M  V30 1735 C 183.769 -0.501124 1.52792 0
M  V30 1736 O 184.959 -0.30831 1.7145 0
M  V30 1737 C 182.091 -0.492316 3.37326 0
M  V30 1738 H 183.284 1.20389 2.74675 0
M  V30 1739 H 180.837 0.661607 1.41607 0
M  V30 1740 H 181.572 -1.36052 2.94381 0
M  V30 1741 H 181.357 0.121832 3.91911 0
M  V30 1742 H 182.847 -0.853871 4.08777 0
M  V30 1743 N 183.284 -1.43765 0.645699 0
M  V30 1744 C 184.7 -1.56509 0.312591 0
M  V30 1745 C 184.9 -1.6307 -1.18365 0
M  V30 1746 O 183.956 -1.58167 -1.96824 0
M  V30 1747 C 185.269 -2.82968 1.01733 0
M  V30 1748 C 186.817 -2.96701 0.996865 0
M  V30 1749 C 187.292 -4.25982 1.68236 0
M  V30 1750 N 188.783 -4.32829 1.64964 0
M  V30 1751 C 189.518 -5.31613 2.14885 0
M  V30 1752 N 189.014 -6.36718 2.73061 0
M  V30 1753 N 190.807 -5.23217 2.05428 0
M  V30 1754 H 182.958 -1.3775 1.61675 0
M  V30 1755 H 185.221 -0.661067 0.679481 0
M  V30 1756 H 184.927 -2.84156 2.0724 0
M  V30 1757 H 184.801 -3.72957 0.564177 0
M  V30 1758 H 187.188 -2.95058 -0.0497719 0
M  V30 1759 H 187.269 -2.08022 1.48865 0
M  V30 1760 H 186.913 -4.28386 2.72852 0
M  V30 1761 H 186.843 -5.13545 1.16529 0
M  V30 1762 H 189.334 -3.57493 1.22503 0
M  V30 1763 H 189.647 -7.08401 3.08848 0
M  V30 1764 H 187.992 -6.37362 2.77118 0
M  V30 1765 H 191.183 -4.40019 1.59689 0
M  V30 1766 H 191.356 -6.00045 2.44643 0
M  V30 1767 N 184.763 -0.387143 -1.52771 0
M  V30 1768 C 186.01 0.195735 -2.01552 0
M  V30 1769 C 186.338 1.46995 -1.27369 0
M  V30 1770 O 185.593 1.92325 -0.361879 0
M  V30 1771 C 185.892 0.512209 -3.53711 0
M  V30 1772 C 185.558 -0.670202 -4.45891 0
M  V30 1773 C 184.22 -0.994586 -4.70809 0
M  V30 1774 C 186.572 -1.46134 -5.00294 0
M  V30 1775 C 183.9 -2.11169 -5.4738 0
M  V30 1776 C 186.252 -2.56903 -5.78086 0
M  V30 1777 C 184.916 -2.89852 -6.01284 0
M  V30 1778 H 184.186 0.0716246 -0.73753 0
M  V30 1779 H 186.833 -0.524046 -1.8419 0
M  V30 1780 H 185.138 1.31329 -3.69134 0
M  V30 1781 H 186.835 0.975804 -3.88946 0
M  V30 1782 H 183.425 -0.407366 -4.2666 0
M  V30 1783 H 187.609 -1.22397 -4.80971 0
M  V30 1784 H 182.865 -2.3707 -5.63567 0
M  V30 1785 H 187.039 -3.18608 -6.19243 0
M  V30 1786 H 184.666 -3.76533 -6.60399 0
M  V30 1787 N 186.241 1.57166 -0.116904 0
M  V30 1788 C 187.518 1.86645 0.585049 0
M  V30 1789 C 187.898 1.0177 1.84949 0
M  V30 1790 O 187.246 0.0960379 2.28298 0
M  V30 1791 C 187.456 3.37736 0.879507 0
M  V30 1792 C 188.804 4.06289 1.23348 0
M  V30 1793 O 189.828 3.42743 0.969836 0
M  V30 1794 O 188.687 5.18455 1.7282 0
M  V30 1795 H 185.781 0.772593 0.295007 0
M  V30 1796 H 188.327 1.69025 -0.151249 0
M  V30 1797 H 187.099 3.91296 -0.0166136 0
M  V30 1798 H 186.722 3.6078 1.67103 0
M  V30 1799 N 187.719 -0.156864 1.56817 0
M  V30 1800 C 188.949 -0.885031 1.86684 0
M  V30 1801 C 189.357 -1.75696 0.701954 0
M  V30 1802 O 188.7 -1.80569 -0.337732 0
M  V30 1803 C 188.762 -1.80092 3.11138 0
M  V30 1804 C 188.426 -1.10714 4.43386 0
M  V30 1805 C 189.423 -0.465714 5.1781 0
M  V30 1806 C 187.108 -1.09959 4.90117 0
M  V30 1807 C 189.102 0.174002 6.37162 0
M  V30 1808 C 186.789 -0.456055 6.09396 0
M  V30 1809 C 187.787 0.179622 6.82764 0
M  V30 1810 O 187.475 0.812975 7.99779 0
M  V30 1811 H 187.207 -0.261813 0.623242 0
M  V30 1812 H 189.761 -0.157383 2.04796 0
M  V30 1813 H 187.991 -2.56926 2.89009 0
M  V30 1814 H 189.68 -2.40018 3.27332 0
M  V30 1815 H 190.446 -0.463427 4.82781 0
M  V30 1816 H 186.325 -1.58378 4.3294 0
M  V30 1817 H 189.869 0.670765 6.94368 0
M  V30 1818 H 185.766 -0.455975 6.43888 0
M  V30 1819 H 186.534 0.71366 8.15383 0
M  V30 1820 N 189.197 -1.51736 -0.425897 0
M  V30 1821 C 190.474 -1.55519 -1.1863 0
M  V30 1822 C 190.854 -0.326219 -2.08564 0
M  V30 1823 O 190.202 0.688012 -2.17896 0
M  V30 1824 C 190.412 -2.87521 -1.9782 0
M  V30 1825 C 191.76 -3.39899 -2.54468 0
M  V30 1826 O 192.784 -2.89148 -2.08019 0
M  V30 1827 O 191.643 -4.2848 -3.39215 0
M  V30 1828 H 188.737 -0.625739 -0.540721 0
M  V30 1829 H 191.283 -1.64055 -0.434038 0
M  V30 1830 H 190.055 -3.68422 -1.31836 0
M  V30 1831 H 189.678 -2.822 -2.80088 0
M  V30 1832 N 190.675 0.682077 -1.42076 0
M  V30 1833 C 192.086 1.26246 -1.37546 0
M  V30 1834 C 192.437 1.96092 -0.0651481 0
M  V30 1835 O 191.562 1.99587 0.836297 0
M  V30 1836 C 192.157 2.29594 -2.49143 0
M  V30 1837 C 190.716 2.83175 -2.47969 0
M  V30 1838 C 189.863 1.57395 -2.28303 0
M  V30 1839 H 192.814 0.475937 -1.51395 0
M  V30 1840 H 192.835 3.11175 -2.18976 0
M  V30 1841 H 192.347 1.78729 -3.44496 0
M  V30 1842 H 190.448 3.3818 -1.56413 0
M  V30 1843 H 190.561 3.32687 -3.44755 0
M  V30 1844 H 188.925 1.83699 -1.76428 0
M  V30 1845 H 189.708 1.08507 -3.25701 0
M  V30 1846 N 192.153 1.28127 0.917671 0
M  V30 1847 C 193.401 1.14825 1.66312 0
M  V30 1848 C 193.722 -0.304379 1.9261 0
M  V30 1849 O 192.992 -1.21149 1.53947 0
M  V30 1850 H 191.572 0.421953 0.616413 0
M  V30 1851 H 194.234 1.608 1.10134 0
M  V30 1852 H 193.33 1.68489 2.62712 0
M  V30 1853 N 193.631 -1.12557 1.10312 0
M  V30 1854 C 194.594 -2.16434 0.75424 0
M  V30 1855 C 195.594 -1.59278 -0.220685 0
M  V30 1856 O 196.784 -1.742 0.00230591 0
M  V30 1857 C 193.916 -3.40699 0.116987 0
M  V30 1858 H 195.109 -2.48811 1.67431 0
M  V30 1859 H 192.662 -1.27542 0.903475 0
M  V30 1860 H 193.397 -3.13921 -0.813877 0
M  V30 1861 H 193.182 -3.83459 0.818613 0
M  V30 1862 H 194.672 -4.17451 -0.111387 0
M  V30 1863 N 195.109 -0.891671 -1.2995 0
M  V30 1864 C 196.386 -0.433307 -1.9074 0
M  V30 1865 C 196.766 1.08646 -1.80995 0
M  V30 1866 O 196.114 1.92476 -1.23147 0
M  V30 1867 C 196.324 -0.938895 -3.36134 0
M  V30 1868 C 197.672 -0.977829 -4.13187 0
M  V30 1869 O 198.696 -0.886015 -3.45005 0
M  V30 1870 O 197.555 -1.11453 -5.35015 0
M  V30 1871 H 194.649 -0.133699 -0.816121 0
M  V30 1872 H 197.195 -0.981011 -1.38471 0
M  V30 1873 H 195.967 -1.98281 -3.37343 0
M  V30 1874 H 195.59 -0.37074 -3.95868 0
M  V30 1875 N 196.587 1.43421 -0.653314 0
M  V30 1876 C 197.497 2.34568 0.0388565 0
M  V30 1877 C 198.513 1.53888 0.81207 0
M  V30 1878 O 199.689 1.86539 0.759294 0
M  V30 1879 C 196.754 3.32167 0.993269 0
M  V30 1880 C 195.815 4.28751 0.216977 0
M  V30 1881 C 195.048 5.21688 1.12593 0
M  V30 1882 O 195.271 5.19052 2.36519 0
M  V30 1883 O 194.205 5.98919 0.598284 0
M  V30 1884 H 198.031 2.95251 -0.711386 0
M  V30 1885 H 195.616 1.43564 -0.413502 0
M  V30 1886 H 197.498 3.92183 1.54176 0
M  V30 1887 H 196.173 2.73987 1.72374 0
M  V30 1888 H 195.08 3.72215 -0.375101 0
M  V30 1889 H 196.413 4.89913 -0.473924 0
M  V30 1890 N 198.065 0.39524 1.52563 0
M  V30 1891 C 199.312 -0.185044 2.01653 0
M  V30 1892 C 199.64 -1.46317 1.28146 0
M  V30 1893 O 198.895 -1.9213 0.372074 0
M  V30 1894 C 199.194 -0.493444 3.53977 0
M  V30 1895 C 198.86 0.69384 4.4553 0
M  V30 1896 C 197.522 1.01954 4.70275 0
M  V30 1897 C 199.874 1.48785 4.99512 0
M  V30 1898 C 197.202 2.14069 5.46252 0
M  V30 1899 C 199.554 2.59965 5.76716 0
M  V30 1900 C 198.218 2.93037 5.99738 0
M  V30 1901 H 197.488 -0.0677123 0.7379 0
M  V30 1902 H 200.135 0.533807 1.8391 0
M  V30 1903 H 198.44 -1.29369 3.69825 0
M  V30 1904 H 200.137 -0.955163 3.89458 0
M  V30 1905 H 196.727 0.429987 4.26438 0
M  V30 1906 H 200.911 1.24946 4.80315 0
M  V30 1907 H 196.167 2.40056 5.62302 0
M  V30 1908 H 200.341 3.21887 6.17545 0
M  V30 1909 H 197.968 3.8003 6.58393 0
M  V30 1910 N 199.544 -1.57102 0.125237 0
M  V30 1911 C 200.791 -1.95407 -0.531248 0
M  V30 1912 C 201.119 -1.0089 -1.66287 0
M  V30 1913 O 200.374 -0.0339431 -1.95671 0
M  V30 1914 C 200.673 -3.40096 -1.09862 0
M  V30 1915 C 200.339 -4.50815 -0.0876989 0
M  V30 1916 C 199.001 -4.80824 0.19026 0
M  V30 1917 C 201.353 -5.17724 0.600902 0
M  V30 1918 C 198.681 -5.75058 1.163 0
M  V30 1919 C 201.033 -6.13005 1.56231 0
M  V30 1920 C 199.697 -6.41403 1.8482 0
M  V30 1921 H 198.967 -0.715046 -0.194397 0
M  V30 1922 H 201.614 -1.90373 0.207463 0
M  V30 1923 H 199.919 -3.41855 -1.91422 0
M  V30 1924 H 201.616 -3.6705 -1.61478 0
M  V30 1925 H 198.206 -4.27444 -0.314528 0
M  V30 1926 H 202.39 -4.94691 0.399333 0
M  V30 1927 H 197.646 -5.95362 1.39117 0
M  V30 1928 H 201.82 -6.63934 2.10153 0
M  V30 1929 H 199.447 -7.14229 2.60349 0
M  V30 1930 N 201.022 0.148545 -1.56898 0
M  V30 1931 C 202.269 0.861418 -1.83264 0
M  V30 1932 C 202.597 1.81239 -0.705883 0
M  V30 1933 O 201.852 1.93305 0.305212 0
M  V30 1934 C 202.151 1.67064 -3.1595 0
M  V30 1935 C 201.817 0.866591 -4.42494 0
M  V30 1936 C 200.479 0.644762 -4.76861 0
M  V30 1937 C 202.831 0.30418 -5.20312 0
M  V30 1938 C 200.159 -0.15021 -5.86508 0
M  V30 1939 C 202.511 -0.477824 -6.30793 0
M  V30 1940 C 201.175 -0.710244 -6.63711 0
M  V30 1941 H 200.445 0.315215 -0.670612 0
M  V30 1942 H 203.092 0.125142 -1.91091 0
M  V30 1943 H 201.397 2.47698 -3.03567 0
M  V30 1944 H 203.094 2.22566 -3.33565 0
M  V30 1945 H 199.684 1.04955 -4.15551 0
M  V30 1946 H 203.868 0.462844 -4.94137 0
M  V30 1947 H 199.124 -0.339796 -6.10455 0
M  V30 1948 H 203.298 -0.92076 -6.90286 0
M  V30 1949 H 200.925 -1.3281 -7.48509 0
M  V30 1950 N 202.5 1.5196 0.417844 0
M  V30 1951 C 203.777 1.56146 1.17803 0
M  V30 1952 C 204.157 0.337275 2.08388 0
M  V30 1953 O 203.505 -0.676447 2.18258 0
M  V30 1954 C 203.715 2.88566 1.96293 0
M  V30 1955 C 205.063 3.41244 2.52662 0
M  V30 1956 O 206.087 2.90247 2.06483 0
M  V30 1957 O 204.946 4.30273 3.36938 0
M  V30 1958 H 202.04 0.628598 0.537395 0
M  V30 1959 H 204.586 1.64283 0.425331 0
M  V30 1960 H 203.358 3.69116 1.2988 0
M  V30 1961 H 202.981 2.83681 2.78587 0
M  V30 1962 N 203.978 -0.674533 1.42435 0
M  V30 1963 C 205.394 -0.98769 1.25367 0
M  V30 1964 C 205.594 -2.00879 0.158044 0
M  V30 1965 O 204.65 -2.48075 -0.470633 0
M  V30 1966 C 205.963 -1.49224 2.6106 0
M  V30 1967 C 207.511 -1.61 2.68417 0
M  V30 1968 C 207.986 -2.14852 4.04478 0
M  V30 1969 N 209.477 -2.22185 4.06434 0
M  V30 1970 C 210.212 -2.64928 5.08528 0
M  V30 1971 N 209.708 -3.07121 6.21006 0
M  V30 1972 N 211.501 -2.64679 4.95885 0
M  V30 1973 H 203.652 0.00152503 2.124 0
M  V30 1974 H 205.915 -0.0618434 0.945981 0
M  V30 1975 H 205.621 -0.816453 3.42092 0
M  V30 1976 H 205.495 -2.47094 2.84999 0
M  V30 1977 H 207.882 -2.27686 1.87732 0
M  V30 1978 H 207.963 -0.616195 2.48267 0
M  V30 1979 H 207.607 -1.48775 4.85622 0
M  V30 1980 H 207.537 -3.15024 4.2198 0
M  V30 1981 H 210.028 -1.92435 3.25234 0
M  V30 1982 H 210.341 -3.38423 6.94759 0
M  V30 1983 H 208.686 -3.04978 6.24511 0
M  V30 1984 H 211.877 -2.31078 4.07088 0
M  V30 1985 H 212.05 -2.9767 5.75584 0
M  V30 1986 N 205.456 -1.28612 -0.910864 0
M  V30 1987 C 206.406 -1.09423 -2.00026 0
M  V30 1988 C 207.39 -0.0170079 -1.60891 0
M  V30 1989 O 208.582 -0.237472 -1.754 0
M  V30 1990 C 205.711 -0.76114 -3.34756 0
M  V30 1991 C 204.797 -1.87735 -3.80285 0
M  V30 1992 N 205.188 -3.11938 -3.98156 0
M  V30 1993 C 203.486 -1.76786 -4.09467 0
M  V30 1994 C 204.187 -3.84687 -4.36338 0
M  V30 1995 N 203.163 -3.12555 -4.44759 0
M  V30 1996 H 206.965 -2.03658 -2.11898 0
M  V30 1997 H 204.479 -1.19573 -1.09891 0
M  V30 1998 H 206.476 -0.604743 -4.12491 0
M  V30 1999 H 205.136 0.173403 -3.24237 0
M  V30 2000 H 206.147 -3.47516 -3.83996 0
M  V30 2001 H 202.824 -0.905284 -4.07567 0
M  V30 2002 H 204.214 -4.91518 -4.58104 0
M  V30 2003 N 206.934 1.1197 -1.10907 0
M  V30 2004 C 208.345 1.65114 -0.871446 0
M  V30 2005 C 208.696 1.86885 0.597353 0
M  V30 2006 O 207.821 1.59896 1.45816 0
M  V30 2007 C 208.416 2.99944 -1.5754 0
M  V30 2008 C 206.975 3.50018 -1.38435 0
M  V30 2009 C 206.122 2.24941 -1.62164 0
M  V30 2010 H 209.073 0.956851 -1.2661 0
M  V30 2011 H 209.094 3.66651 -1.01721 0
M  V30 2012 H 208.606 2.84067 -2.64438 0
M  V30 2013 H 206.707 3.71071 -0.337214 0
M  V30 2014 H 206.82 4.29165 -2.12965 0
M  V30 2015 H 205.184 2.3229 -1.04467 0
M  V30 2016 H 205.967 2.11612 -2.70324 0
M  V30 2017 N 208.412 0.89855 1.29475 0
M  V30 2018 C 209.66 0.522847 1.9522 0
M  V30 2019 C 209.981 -0.93371 1.71192 0
M  V30 2020 O 209.251 -1.65823 1.04305 0
M  V30 2021 H 207.831 0.190366 0.722336 0
M  V30 2022 H 210.493 1.14459 1.5775 0
M  V30 2023 H 209.589 0.704476 3.04045 0
M  V30 2024 N 209.89 -1.43072 0.660911 0
M  V30 2025 C 211.136 -2.0202 0.177708 0
M  V30 2026 C 211.469 -1.52066 -1.20787 0
M  V30 2027 O 210.744 -0.716987 -1.80802 0
M  V30 2028 C 211.027 -3.59561 0.197019 0
M  V30 2029 C 210.88 -4.19727 1.61706 0
M  V30 2030 C 212.199 -4.37664 -0.462396 0
M  V30 2031 H 209.318 -0.734034 0.0660494 0
M  V30 2032 H 211.96 -1.70272 0.843058 0
M  V30 2033 H 210.11 -3.86739 -0.369527 0
M  V30 2034 H 211.782 -4.03553 2.23479 0
M  V30 2035 H 210.025 -3.76084 2.16201 0
M  V30 2036 H 210.696 -5.28834 1.58237 0
M  V30 2037 H 213.172 -4.16095 0.0197215 0
M  V30 2038 H 212.048 -5.47305 -0.418188 0
M  V30 2039 H 212.309 -4.14493 -1.53778 0
M  V30 2040 N 211.368 -0.403325 -1.52352 0
M  V30 2041 C 212.615 0.174347 -2.01748 0
M  V30 2042 C 212.943 1.45636 -1.2892 0
M  V30 2043 O 212.198 1.9193 -0.382258 0
M  V30 2044 C 212.497 0.474665 -3.54234 0
M  V30 2045 C 212.163 -0.717458 -4.45155 0
M  V30 2046 C 210.825 -1.04447 -4.69728 0
M  V30 2047 C 213.177 -1.51432 -4.98716 0
M  V30 2048 C 210.505 -2.16963 -5.45109 0
M  V30 2049 C 212.857 -2.6302 -5.75329 0
M  V30 2050 C 211.521 -2.96213 -5.98175 0
M  V30 2051 H 210.791 0.0637981 -0.738248 0
M  V30 2052 H 213.438 -0.543553 -1.83624 0
M  V30 2053 H 211.743 1.27406 -3.70506 0
M  V30 2054 H 213.44 0.934496 -3.89959 0
M  V30 2055 H 210.03 -0.452596 -4.26204 0
M  V30 2056 H 214.214 -1.27491 -4.79645 0
M  V30 2057 H 209.47 -2.43034 -5.61021 0
M  V30 2058 H 213.644 -3.25158 -6.15829 0
M  V30 2059 H 211.271 -3.83516 -6.56368 0
M  V30 2060 N 212.846 1.57033 -0.133567 0
M  V30 2061 C 213.809 2.14897 0.796995 0
M  V30 2062 C 214.809 1.0874 1.18458 0
M  V30 2063 O 215.999 1.34446 1.1077 0
M  V30 2064 C 213.131 2.70112 2.07973 0
M  V30 2065 H 214.324 2.98457 0.293873 0
M  V30 2066 H 211.877 1.55871 0.115787 0
M  V30 2067 H 212.612 1.9018 2.62682 0
M  V30 2068 H 212.397 3.47764 1.81115 0
M  V30 2069 H 213.887 3.14738 2.74462 0
M  V30 2070 N 214.325 -0.140222 1.56975 0
M  V30 2071 C 215.555 -0.865181 1.87612 0
M  V30 2072 C 215.963 -1.74942 0.72055 0
M  V30 2073 O 215.306 -1.80917 -0.318561 0
M  V30 2074 C 215.368 -1.76782 3.13031 0
M  V30 2075 C 215.032 -1.06005 4.44536 0
M  V30 2076 C 216.029 -0.410768 5.18275 0
M  V30 2077 C 213.714 -1.04754 4.91255 0
M  V30 2078 C 215.708 0.241572 6.36942 0
M  V30 2079 C 213.395 -0.391394 6.09845 0
M  V30 2080 C 214.393 0.252029 6.82535 0
M  V30 2081 O 214.081 0.897757 7.98871 0
M  V30 2082 H 213.813 -0.255188 0.625983 0
M  V30 2083 H 216.367 -0.135653 2.04952 0
M  V30 2084 H 214.597 -2.53846 2.91718 0
M  V30 2085 H 216.286 -2.36533 3.29859 0
M  V30 2086 H 217.052 -0.412195 4.83245 0
M  V30 2087 H 212.931 -1.53777 4.34596 0
M  V30 2088 H 216.475 0.744375 6.93617 0
M  V30 2089 H 212.372 -0.387656 6.44335 0
M  V30 2090 H 213.14 0.800102 8.1458 0
M  V30 2091 N 215.803 -1.52179 -0.40978 0
M  V30 2092 C 217.049 -1.66453 -1.15851 0
M  V30 2093 C 217.382 -0.392972 -1.90182 0
M  V30 2094 O 216.657 0.608579 -1.84734 0
M  V30 2095 C 216.94 -2.88612 -2.15349 0
M  V30 2096 C 216.793 -4.25815 -1.44918 0
M  V30 2097 C 218.112 -3.06294 -3.16026 0
M  V30 2098 H 215.231 -0.60575 -0.419805 0
M  V30 2099 H 217.873 -1.84732 -0.444314 0
M  V30 2100 H 216.023 -2.73158 -2.76255 0
M  V30 2101 H 217.695 -4.52995 -0.871365 0
M  V30 2102 H 215.938 -4.27247 -0.751159 0
M  V30 2103 H 216.609 -5.07337 -2.17516 0
M  V30 2104 H 219.085 -3.20641 -2.65195 0
M  V30 2105 H 217.961 -3.93283 -3.8291 0
M  V30 2106 H 218.222 -2.19579 -3.83715 0
M  V30 2107 N 217.281 0.66697 -1.42791 0
M  V30 2108 C 218.211 1.79218 -1.49677 0
M  V30 2109 C 219.192 1.66405 -0.352623 0
M  V30 2110 O 220.377 1.85708 -0.567993 0
M  V30 2111 C 217.507 3.17565 -1.40605 0
M  V30 2112 C 216.461 3.45124 -2.53127 0
M  V30 2113 C 215.787 4.83127 -2.29112 0
M  V30 2114 C 217.087 3.41236 -3.95418 0
M  V30 2115 H 218.781 1.73713 -2.43853 0
M  V30 2116 H 216.327 0.83432 -1.17367 0
M  V30 2117 H 218.28 3.96022 -1.44029 0
M  V30 2118 H 217.004 3.23767 -0.429271 0
M  V30 2119 H 215.663 2.69031 -2.49034 0
M  V30 2120 H 215.311 4.85988 -1.29709 0
M  V30 2121 H 215.011 5.02528 -3.04531 0
M  V30 2122 H 216.535 5.63859 -2.34297 0
M  V30 2123 H 217.949 4.09651 -4.01073 0
M  V30 2124 H 216.346 3.72173 -4.70752 0
M  V30 2125 H 217.416 2.39665 -4.21532 0
M  V30 2126 N 218.759 1.29093 0.90403 0
M  V30 2127 C 219.707 1.13727 2.02901 0
M  V30 2128 C 220.701 0.0539853 1.69314 0
M  V30 2129 O 221.907 0.213469 1.7873 0
M  V30 2130 H 218.282 0.35117 0.664969 0
M  V30 2131 H 220.253 2.08982 2.13001 0
M  V30 2132 C 219.002 0.826066 3.37745 0
M  V30 2133 H 218.325 1.65164 3.64089 0
M  V30 2134 H 219.765 0.758559 4.17159 0
M  V30 2135 C 218.224 -0.470541 3.33598 0
M  V30 2136 O 218.754 -1.49792 3.72727 0
M  V30 2137 N 216.96 -0.474812 2.86695 0
M  V30 2138 H 216.507 0.361692 2.55048 0
M  V30 2139 H 216.465 -1.34236 2.84303 0
M  V30 2140 N 220.237 -1.11381 1.11499 0
M  V30 2141 C 221.467 -1.86663 0.885464 0
M  V30 2142 C 221.875 -1.80464 -0.568281 0
M  V30 2143 O 221.218 -1.18445 -1.40415 0
M  V30 2144 C 221.28 -3.36337 1.26956 0
M  V30 2145 C 220.944 -3.66304 2.73259 0
M  V30 2146 C 221.941 -3.63733 3.71476 0
M  V30 2147 C 219.626 -3.9529 3.09921 0
M  V30 2148 C 221.62 -3.89725 5.04374 0
M  V30 2149 C 219.307 -4.20941 4.43004 0
M  V30 2150 C 220.305 -4.18147 5.40039 0
M  V30 2151 O 219.993 -4.43153 6.70724 0
M  V30 2152 H 219.725 -0.597114 0.316908 0
M  V30 2153 H 222.279 -1.41782 1.48617 0
M  V30 2154 H 220.509 -3.81826 0.611999 0
M  V30 2155 H 222.198 -3.92986 1.01573 0
M  V30 2156 H 222.964 -3.41389 3.44498 0
M  V30 2157 H 218.843 -3.966 2.35009 0
M  V30 2158 H 222.387 -3.8746 5.80104 0
M  V30 2159 H 218.284 -4.42761 4.69716 0
M  V30 2160 H 219.052 -4.60717 6.76522 0
M  V30 2161 N 221.715 -0.905404 -1.28997 0
M  V30 2162 C 222.945 -0.549049 -1.99171 0
M  V30 2163 C 223.353 0.87203 -1.67906 0
M  V30 2164 O 222.696 1.58796 -0.923561 0
M  V30 2165 C 222.758 -0.668306 -3.53234 0
M  V30 2166 C 222.422 -2.0574 -4.08069 0
M  V30 2167 C 223.419 -3.0292 -4.22534 0
M  V30 2168 C 221.104 -2.36833 -4.42962 0
M  V30 2169 C 223.098 -4.29314 -4.71135 0
M  V30 2170 C 220.785 -3.63467 -4.91258 0
M  V30 2171 C 221.783 -4.59522 -5.053 0
M  V30 2172 O 221.471 -5.83907 -5.52546 0
M  V30 2173 H 221.203 -0.208784 -0.64295 0
M  V30 2174 H 223.757 -1.21836 -1.65363 0
M  V30 2175 H 221.987 0.0580547 -3.86656 0
M  V30 2176 H 223.676 -0.320273 -4.04634 0
M  V30 2177 H 224.442 -2.80216 -3.95859 0
M  V30 2178 H 220.321 -1.62824 -4.31288 0
M  V30 2179 H 223.865 -5.04293 -4.8201 0
M  V30 2180 H 219.762 -3.86 -5.17372 0
M  V30 2181 H 220.53 -5.86578 -5.70849 0
M  V30 2182 N 223.193 1.4272 -0.668489 0
M  V30 2183 C 224.609 1.55992 -0.33745 0
M  V30 2184 C 224.809 1.64933 1.15756 0
M  V30 2185 O 223.865 1.61278 1.94282 0
M  V30 2186 C 225.178 2.81314 -1.06222 0
M  V30 2187 C 226.726 2.95078 -1.04394 0
M  V30 2188 C 227.201 4.23252 -1.74991 0
M  V30 2189 N 228.692 4.3015 -1.71829 0
M  V30 2190 C 229.427 5.28127 -2.23315 0
M  V30 2191 N 228.923 6.32293 -2.83156 0
M  V30 2192 N 230.716 5.19882 -2.13726 0
M  V30 2193 H 222.867 1.3516 -1.63846 0
M  V30 2194 H 225.13 0.650174 -0.689912 0
M  V30 2195 H 224.836 2.80823 -2.11734 0
M  V30 2196 H 224.71 3.72012 -0.62344 0
M  V30 2197 H 227.097 2.951 0.0028244 0
M  V30 2198 H 227.178 2.05627 -1.52155 0
M  V30 2199 H 226.822 4.2399 -2.79633 0
M  V30 2200 H 226.752 5.11626 -1.24685 0
M  V30 2201 H 229.243 3.55499 -1.28175 0
M  V30 2202 H 229.556 7.03398 -3.20079 0
M  V30 2203 H 227.901 6.32873 -2.87223 0
M  V30 2204 H 231.092 4.37423 -1.66669 0
M  V30 2205 H 231.265 5.96077 -2.54158 0
M  V30 2206 N 224.671 0.411399 1.52136 0
M  V30 2207 C 225.899 -0.163076 2.06256 0
M  V30 2208 C 226.314 -1.3867 1.28125 0
M  V30 2209 O 225.671 -1.79423 0.333721 0
M  V30 2210 C 225.722 -0.511252 3.57867 0
M  V30 2211 O 225.443 0.66378 4.33042 0
M  V30 2212 C 226.944 -1.13921 4.28412 0
M  V30 2213 H 224.164 -0.0193897 0.67072 0
M  V30 2214 H 226.708 0.583007 1.96013 0
M  V30 2215 H 224.863 -1.20723 3.6811 0
M  V30 2216 H 225.277 0.372601 5.23175 0
M  V30 2217 H 226.751 -1.33302 5.35663 0
M  V30 2218 H 227.228 -2.11296 3.85033 0
M  V30 2219 H 227.834 -0.483373 4.22544 0
M  V30 2220 N 226.149 -1.5696 0.141893 0
M  V30 2221 C 227.397 -1.95573 -0.509484 0
M  V30 2222 C 227.718 -1.02746 -1.65736 0
M  V30 2223 O 226.988 -0.0880311 -1.95702 0
M  V30 2224 H 225.568 -0.722115 -0.191205 0
M  V30 2225 H 228.23 -1.93697 0.216196 0
M  V30 2226 H 227.326 -2.99171 -0.889 0
M  V30 2227 N 227.627 0.131896 -1.57047 0
M  V30 2228 C 228.574 1.16236 -1.99393 0
M  V30 2229 C 229.544 1.41863 -0.863943 0
M  V30 2230 O 230.729 1.53946 -1.12718 0
M  V30 2231 C 227.869 2.48708 -2.39245 0
M  V30 2232 C 226.982 2.30127 -3.65603 0
M  V30 2233 C 226.117 3.55738 -3.94492 0
M  V30 2234 C 225.156 3.32259 -5.14073 0
M  V30 2235 N 224.293 4.50039 -5.38896 0
M  V30 2236 H 229.133 0.794251 -2.87221 0
M  V30 2237 H 226.67 0.380707 -1.42088 0
M  V30 2238 H 228.628 3.25969 -2.60384 0
M  V30 2239 H 227.258 2.83437 -1.54478 0
M  V30 2240 H 226.31 1.43845 -3.52154 0
M  V30 2241 H 227.622 2.08746 -4.5302 0
M  V30 2242 H 226.776 4.41423 -4.1621 0
M  V30 2243 H 225.515 3.80138 -3.05526 0
M  V30 2244 H 224.52 2.44963 -4.92212 0
M  V30 2245 H 225.745 3.09242 -6.04604 0
M  V30 2246 H 223.691 4.74584 -4.52886 0
M  V30 2247 H 223.608 4.31716 -6.2061 0
M  V30 2248 H 224.876 5.36895 -5.65123 0
M  V30 2249 N 229.106 1.52395 0.401703 0
M  V30 2250 C 230.036 1.79231 1.49661 0
M  V30 2251 C 231.017 0.643654 1.57452 0
M  V30 2252 O 232.202 0.889989 1.72606 0
M  V30 2253 C 229.332 1.94971 2.87409 0
M  V30 2254 C 228.286 3.10604 2.94465 0
M  V30 2255 C 227.612 3.11577 4.34538 0
M  V30 2256 C 228.912 4.49921 2.6527 0
M  V30 2257 H 230.606 2.70917 1.27454 0
M  V30 2258 H 228.152 1.30362 0.6117 0
M  V30 2259 H 230.105 2.12328 3.63999 0
M  V30 2260 H 228.829 0.999632 3.10926 0
M  V30 2261 H 227.488 2.93009 2.20321 0
M  V30 2262 H 227.136 2.14277 4.55076 0
M  V30 2263 H 226.836 3.89247 4.40183 0
M  V30 2264 H 228.36 3.31073 5.13053 0
M  V30 2265 H 229.774 4.67683 3.31581 0
M  V30 2266 H 228.171 5.29564 2.82281 0
M  V30 2267 H 229.241 4.57507 1.60671 0
M  V30 2268 N 230.584 -0.659388 1.43143 0
M  V30 2269 C 231.534 -1.7655 1.44271 0
M  V30 2270 C 232.518 -1.57847 0.311961 0
M  V30 2271 O 233.71 -1.68064 0.555306 0
M  V30 2272 C 230.839 -3.15104 1.36251 0
M  V30 2273 C 229.925 -3.39377 2.54331 0
M  V30 2274 N 230.316 -3.34153 3.79704 0
M  V30 2275 C 228.614 -3.70072 2.48922 0
M  V30 2276 C 229.315 -3.58337 4.58225 0
M  V30 2277 N 228.291 -3.79851 3.88863 0
M  V30 2278 H 232.093 -1.70928 2.39083 0
M  V30 2279 H 229.607 -0.860823 1.37708 0
M  V30 2280 H 231.604 -3.94389 1.35141 0
M  V30 2281 H 230.264 -3.21913 0.424531 0
M  V30 2282 H 231.275 -3.13704 4.1208 0
M  V30 2283 H 227.952 -3.84034 1.63781 0
M  V30 2284 H 229.342 -3.60129 5.67236 0
M  V30 2285 N 232.062 -1.29571 -0.897171 0
M  V30 2286 C 233.302 -1.18959 -1.66217 0
M  V30 2287 C 233.666 0.254271 -1.90309 0
M  V30 2288 O 234.867 0.483407 -2.64417 0
M  V30 2289 C 233.138 -1.98302 -2.9734 0
M  V30 2290 S 234.697 -2.04253 -3.88364 0
M  V30 2291 H 231.515 -0.424137 -0.570639 0
M  V30 2292 H 234.117 -1.6389 -1.06585 0
M  V30 2293 H 232.821 -3.02342 -2.77521 0
M  V30 2294 H 232.352 -1.53986 -3.62011 0
M  V30 2295 H 234.367 -1.16105 -4.82425 0
M  V30 2296 N 233.54 1.10788 -1.12088 0
M  V30 2297 C 234.951 1.64181 -0.88891 0
M  V30 2298 C 235.302 1.87508 0.577498 0
M  V30 2299 O 234.427 1.61434 1.44112 0
M  V30 2300 C 235.022 2.98257 -1.60712 0
M  V30 2301 C 233.581 3.4853 -1.42139 0
M  V30 2302 C 232.728 2.23208 -1.6454 0
M  V30 2303 H 235.679 0.943368 -1.27618 0
M  V30 2304 H 235.7 3.65552 -1.05604 0
M  V30 2305 H 235.212 2.81246 -2.67436 0
M  V30 2306 H 233.313 3.70692 -0.376552 0
M  V30 2307 H 233.426 4.26882 -2.17505 0
M  V30 2308 H 231.79 2.31169 -1.06925 0
M  V30 2309 H 232.573 2.08733 -2.72554 0
M  V30 2310 N 235.018 0.912232 1.28515 0
M  V30 2311 C 235.981 0.404223 2.25607 0
M  V30 2312 C 236.981 -0.468602 1.53821 0
M  V30 2313 O 238.171 -0.271873 1.72065 0
M  V30 2314 C 235.303 -0.420653 3.38295 0
M  V30 2315 H 236.496 1.26188 2.7206 0
M  V30 2316 H 234.049 0.691495 1.40171 0
M  V30 2317 H 234.784 -1.29777 2.97201 0
M  V30 2318 H 234.569 0.204935 3.91564 0
M  V30 2319 H 236.059 -0.766971 4.10496 0
M  V30 2320 N 236.496 -1.42363 0.676048 0
M  V30 2321 C 237.773 -1.95183 0.127726 0
M  V30 2322 C 238.153 -1.61641 -1.35777 0
M  V30 2323 O 237.501 -0.913216 -2.09458 0
M  V30 2324 C 237.711 -3.46721 0.398199 0
M  V30 2325 C 239.059 -4.23427 0.315383 0
M  V30 2326 O 240.083 -3.54649 0.332016 0
M  V30 2327 O 238.942 -5.45888 0.25865 0
M  V30 2328 H 236.036 -0.826992 0.00359427 0
M  V30 2329 H 238.582 -1.52184 0.750864 0
M  V30 2330 H 237.354 -3.64344 1.4272 0
M  V30 2331 H 236.977 -3.96769 -0.256885 0
M  V30 2332 N 237.974 -0.419461 -1.51915 0
M  V30 2333 C 239.22 0.153166 -2.02221 0
M  V30 2334 C 239.553 1.43907 -1.30401 0
M  V30 2335 O 238.828 1.90055 -0.413438 0
M  V30 2336 C 239.111 0.390291 -3.57979 0
M  V30 2337 C 238.964 -0.913014 -4.40436 0
M  V30 2338 C 240.283 1.16794 -4.2432 0
M  V30 2339 H 237.402 0.0541924 -0.735005 0
M  V30 2340 H 240.044 -0.554955 -1.81715 0
M  V30 2341 H 238.194 0.993491 -3.75582 0
M  V30 2342 H 239.866 -1.54882 -4.34522 0
M  V30 2343 H 238.109 -1.52168 -4.06236 0
M  V30 2344 H 238.78 -0.701361 -5.47526 0
M  V30 2345 H 241.256 0.657161 -4.10878 0
M  V30 2346 H 240.132 1.3026 -5.3322 0
M  V30 2347 H 240.393 2.19132 -3.83971 0
M  V30 2348 N 239.452 1.56882 -0.150215 0
M  V30 2349 C 240.692 1.98119 0.502804 0
M  V30 2350 C 241.056 1.03327 1.61826 0
M  V30 2351 O 242.257 1.33621 2.33236 0
M  V30 2352 C 240.528 3.43329 0.992988 0
M  V30 2353 S 242.087 4.0659 1.65015 0
M  V30 2354 H 238.905 0.692189 0.162467 0
M  V30 2355 H 241.507 1.93988 -0.242689 0
M  V30 2356 H 240.211 4.10046 0.170436 0
M  V30 2357 H 239.742 3.5118 1.77303 0
M  V30 2358 H 241.757 3.99906 2.93752 0
M  V30 2359 N 240.93 -0.123565 1.57115 0
M  V30 2360 C 242.178 -0.83051 1.84247 0
M  V30 2361 C 242.499 -1.80629 0.73471 0
M  V30 2362 O 241.769 -1.94403 -0.241688 0
M  V30 2363 H 240.349 -0.309694 0.679778 0
M  V30 2364 H 243.011 -0.111976 1.94578 0
M  V30 2365 H 242.107 -1.37852 2.80006 0
M  V30 2366 N 242.408 -1.52605 -0.393616 0
M  V30 2367 C 243.819 -1.59417 -0.971761 0
M  V30 2368 C 244.17 -0.444173 -1.91106 0
M  V30 2369 O 243.295 0.433382 -2.12016 0
M  V30 2370 C 243.89 -2.88936 -1.76921 0
M  V30 2371 C 242.449 -2.98175 -2.29714 0
M  V30 2372 C 241.596 -2.54491 -1.10135 0
M  V30 2373 H 244.547 -1.57751 -0.173317 0
M  V30 2374 H 244.568 -2.75163 -2.62804 0
M  V30 2375 H 244.08 -3.72616 -1.08532 0
M  V30 2376 H 242.181 -2.19024 -3.01429 0
M  V30 2377 H 242.294 -4.02726 -2.59517 0
M  V30 2378 H 240.658 -2.08702 -1.45999 0
M  V30 2379 H 241.441 -3.4056 -0.432874 0
M  V30 2380 N 243.887 0.651787 -1.4349 0
M  V30 2381 C 244.817 1.77621 -1.51569 0
M  V30 2382 C 245.798 1.66022 -0.370253 0
M  V30 2383 O 246.983 1.85095 -0.587658 0
M  V30 2384 C 244.113 3.16056 -1.43966 0
M  V30 2385 C 243.067 3.4242 -2.56774 0
M  V30 2386 C 242.393 4.8067 -2.34223 0
M  V30 2387 C 243.693 3.37023 -3.99015 0
M  V30 2388 H 245.387 1.71117 -2.45681 0
M  V30 2389 H 242.933 0.821825 -1.18246 0
M  V30 2390 H 244.886 3.94472 -1.48221 0
M  V30 2391 H 243.61 3.23293 -0.463586 0
M  V30 2392 H 242.269 2.66375 -2.51873 0
M  V30 2393 H 241.917 4.84585 -1.34856 0
M  V30 2394 H 241.617 4.9927 -3.09844 0
M  V30 2395 H 243.141 5.61342 -2.40265 0
M  V30 2396 H 244.555 4.05374 -4.05395 0
M  V30 2397 H 242.952 3.67159 -4.74673 0
M  V30 2398 H 244.022 2.3518 -4.2405 0
M  V30 2399 N 245.365 1.30045 0.890287 0
M  V30 2400 C 246.612 1.18561 1.64163 0
M  V30 2401 C 246.94 -0.260852 1.92743 0
M  V30 2402 O 246.195 -1.20376 1.54299 0
M  V30 2403 C 246.494 1.95409 2.99249 0
M  V30 2404 C 246.16 3.45066 2.90242 0
M  V30 2405 C 244.822 3.85878 2.87492 0
M  V30 2406 C 247.174 4.4039 2.78758 0
M  V30 2407 C 244.502 5.20314 2.7109 0
M  V30 2408 C 246.854 5.74928 2.63894 0
M  V30 2409 C 245.518 6.14986 2.59516 0
M  V30 2410 H 244.788 0.433846 0.600715 0
M  V30 2411 H 247.435 1.61088 1.03552 0
M  V30 2412 H 245.74 1.45501 3.63781 0
M  V30 2413 H 247.437 1.8392 3.56334 0
M  V30 2414 H 244.027 3.12631 2.93189 0
M  V30 2415 H 248.211 4.09806 2.79952 0
M  V30 2416 H 243.467 5.50449 2.66112 0
M  V30 2417 H 247.641 6.48434 2.53981 0
M  V30 2418 H 245.268 7.19104 2.46565 0
M  V30 2419 N 246.843 -1.10192 1.12674 0
M  V30 2420 C 247.753 -2.20172 0.810026 0
M  V30 2421 C 248.769 -1.72821 -0.202188 0
M  V30 2422 O 249.945 -2.01369 -0.0351691 0
M  V30 2423 C 247.01 -3.45631 0.272007 0
M  V30 2424 C 246.071 -4.07704 1.34447 0
M  V30 2425 C 245.304 -5.27175 0.832029 0
M  V30 2426 O 245.527 -5.69425 -0.333284 0
M  V30 2427 O 244.461 -5.80168 1.60277 0
M  V30 2428 H 248.287 -2.49701 1.72867 0
M  V30 2429 H 245.872 -1.18977 0.903597 0
M  V30 2430 H 247.754 -4.21394 -0.0230219 0
M  V30 2431 H 246.429 -3.17723 -0.619164 0
M  V30 2432 H 245.336 -3.33614 1.6927 0
M  V30 2433 H 246.669 -4.3982 2.2095 0
M  V30 2434 N 248.321 -0.919034 -1.28029 0
M  V30 2435 C 249.231 -0.416756 -2.30869 0
M  V30 2436 C 250.247 0.498235 -1.66714 0
M  V30 2437 O 251.423 0.383144 -1.97722 0
M  V30 2438 C 248.488 0.330274 -3.45123 0
M  V30 2439 C 247.549 -0.618578 -4.2482 0
M  V30 2440 C 246.782 0.0928959 -5.33619 0
M  V30 2441 O 247.005 1.31375 -5.55065 0
M  V30 2442 O 245.939 -0.574499 -5.99152 0
M  V30 2443 H 249.765 -1.27043 -2.75851 0
M  V30 2444 H 247.35 -0.684052 -1.3282 0
M  V30 2445 H 249.232 0.751972 -4.14636 0
M  V30 2446 H 247.907 1.1597 -3.02213 0
M  V30 2447 H 246.814 -1.08978 -3.57875 0
M  V30 2448 H 248.147 -1.41497 -4.71423 0
M  V30 2449 N 249.799 1.42003 -0.683588 0
M  V30 2450 C 250.709 2.34597 -0.0109075 0
M  V30 2451 C 251.725 1.55576 0.779245 0
M  V30 2452 O 252.901 1.88107 0.719555 0
M  V30 2453 C 249.966 3.34199 0.922588 0
M  V30 2454 C 249.027 4.29115 0.125984 0
M  V30 2455 C 248.26 5.23959 1.01502 0
M  V30 2456 O 248.483 5.23952 2.25456 0
M  V30 2457 O 247.417 6.00053 0.47111 0
M  V30 2458 H 251.243 2.93675 -0.773853 0
M  V30 2459 H 248.828 1.42654 -0.443861 0
M  V30 2460 H 250.71 3.95365 1.45823 0
M  V30 2461 H 249.385 2.77582 1.66523 0
M  V30 2462 H 248.292 3.71335 -0.453969 0
M  V30 2463 H 249.625 4.88798 -0.577736 0
M  V30 2464 N 251.277 0.427512 1.51691 0
M  V30 2465 C 252.207 -0.3796 2.30394 0
M  V30 2466 C 253.188 -1.02982 1.35384 0
M  V30 2467 O 254.373 -1.03534 1.643 0
M  V30 2468 C 251.503 -1.48649 3.1388 0
M  V30 2469 C 250.457 -0.960294 4.17088 0
M  V30 2470 C 249.783 -2.16219 4.89033 0
M  V30 2471 C 251.083 -0.00153679 5.223 0
M  V30 2472 H 252.777 0.277164 2.98114 0
M  V30 2473 H 250.323 0.134739 1.43368 0
M  V30 2474 H 252.276 -2.05826 3.67714 0
M  V30 2475 H 251 -2.1714 2.43962 0
M  V30 2476 H 249.659 -0.410806 3.64291 0
M  V30 2477 H 249.307 -2.83307 4.15628 0
M  V30 2478 H 249.007 -1.81654 5.58816 0
M  V30 2479 H 250.531 -2.73968 5.45687 0
M  V30 2480 H 251.945 -0.482687 5.71264 0
M  V30 2481 H 250.342 0.256199 5.99553 0
M  V30 2482 H 251.412 0.938174 4.75738 0
M  V30 2483 N 252.755 -1.56801 0.158532 0
M  V30 2484 C 254.003 -1.96102 -0.488712 0
M  V30 2485 C 254.324 -1.04498 -1.64636 0
M  V30 2486 O 253.594 -0.108783 -1.95598 0
M  V30 2487 H 252.174 -0.724102 -0.183535 0
M  V30 2488 H 254.836 -1.93457 0.236728 0
M  V30 2489 H 253.932 -3.00097 -0.857219 0
M  V30 2490 N 254.233 0.115231 -1.57178 0
M  V30 2491 C 255.48 0.822351 -1.8505 0
M  V30 2492 C 255.808 1.79701 -0.744168 0
M  V30 2493 O 255.063 1.93909 0.26414 0
M  V30 2494 C 255.362 1.60324 -3.19423 0
M  V30 2495 C 255.028 0.772536 -4.44233 0
M  V30 2496 C 253.69 0.543468 -4.78121 0
M  V30 2497 C 256.042 0.193746 -5.2084 0
M  V30 2498 C 253.37 -0.274583 -5.86057 0
M  V30 2499 C 255.722 -0.611517 -6.29637 0
M  V30 2500 C 254.386 -0.850867 -6.62055 0
M  V30 2501 H 253.656 0.30092 -0.677147 0
M  V30 2502 H 256.303 0.0845802 -1.91313 0
M  V30 2503 H 254.608 2.41203 -3.08753 0
M  V30 2504 H 256.305 2.1544 -3.38211 0
M  V30 2505 H 252.895 0.96117 -4.17683 0
M  V30 2506 H 257.079 0.357926 -4.95008 0
M  V30 2507 H 252.335 -0.469206 -6.09597 0
M  V30 2508 H 256.509 -1.06697 -6.88178 0
M  V30 2509 H 254.136 -1.48657 -7.45523 0
M  V30 2510 N 255.711 1.52812 0.385517 0
M  V30 2511 C 256.957 1.69225 1.12847 0
M  V30 2512 C 257.312 0.42864 1.87564 0
M  V30 2513 O 256.605 -0.57779 1.8268 0
M  V30 2514 C 256.799 2.86856 2.13187 0
M  V30 2515 C 256.628 4.24535 1.48325 0
M  V30 2516 C 255.398 4.89701 1.24585 0
M  V30 2517 C 257.596 5.05794 0.931501 0
M  V30 2518 N 255.578 6.11353 0.558644 0
M  V30 2519 C 256.949 6.1888 0.372552 0
M  V30 2520 C 259.004 4.90963 0.828248 0
M  V30 2521 C 257.707 7.18757 -0.279556 0
M  V30 2522 C 259.733 5.91095 0.189956 0
M  V30 2523 C 259.095 7.03489 -0.358207 0
M  V30 2524 H 255.194 0.67268 0.39878 0
M  V30 2525 H 257.778 1.9017 0.417528 0
M  V30 2526 H 255.949 2.67484 2.81614 0
M  V30 2527 H 257.681 2.92188 2.80014 0
M  V30 2528 H 254.436 4.48485 1.52178 0
M  V30 2529 H 254.86 6.76606 0.230983 0
M  V30 2530 H 259.502 4.04274 1.23784 0
M  V30 2531 H 257.22 8.05052 -0.701152 0
M  V30 2532 H 260.806 5.81694 0.111264 0
M  V30 2533 H 259.686 7.79642 -0.844314 0
M  V30 2534 N 257.189 -0.644168 1.43834 0
M  V30 2535 C 258.437 -1.40117 1.45642 0
M  V30 2536 C 258.758 -1.94814 0.0852413 0
M  V30 2537 O 258.028 -1.74988 -0.880688 0
M  V30 2538 H 256.608 -0.52005 0.536243 0
M  V30 2539 H 259.27 -0.7591 1.7951 0
M  V30 2540 H 258.366 -2.23902 2.17427 0
M  V30 2541 N 258.668 -1.30515 -0.883378 0
M  V30 2542 C 259.917 -1.18795 -1.63005 0
M  V30 2543 C 260.23 0.255923 -1.93919 0
M  V30 2544 O 261.436 0.494654 -2.66956 0
M  V30 2545 C 259.892 -2.07878 -2.93794 0
M  V30 2546 C 259.5 -3.57184 -2.70414 0
M  V30 2547 C 261.244 -2.04924 -3.71761 0
M  V30 2548 C 259.151 -4.38317 -3.97029 0
M  V30 2549 H 258.081 -0.441031 -0.611562 0
M  V30 2550 H 260.732 -1.55275 -0.977854 0
M  V30 2551 H 259.114 -1.64283 -3.60315 0
M  V30 2552 H 260.288 -4.08937 -2.12384 0
M  V30 2553 H 258.603 -3.61976 -2.0582 0
M  V30 2554 H 261.2 -2.62792 -4.65665 0
M  V30 2555 H 261.543 -1.0331 -4.03277 0
M  V30 2556 H 262.076 -2.46649 -3.12104 0
M  V30 2557 H 258.815 -5.40632 -3.70671 0
M  V30 2558 H 258.335 -3.91326 -4.54559 0
M  V30 2559 H 260.014 -4.49834 -4.65036 0
M  V30 2560 N 260.146 1.09593 -1.13257 0
M  V30 2561 C 261.423 1.78293 -0.804432 0
M  V30 2562 C 261.803 1.99004 0.70431 0
M  V30 2563 O 261.151 1.59007 1.641 0
M  V30 2564 C 261.361 3.10707 -1.5894 0
M  V30 2565 C 262.709 3.85443 -1.78099 0
M  V30 2566 O 263.733 3.20454 -1.55525 0
M  V30 2567 O 262.592 5.02108 -2.15753 0
M  V30 2568 H 259.686 0.773156 -0.293528 0
M  V30 2569 H 262.232 1.16164 -1.23709 0
M  V30 2570 H 261.004 2.91106 -2.61482 0
M  V30 2571 H 260.627 3.80558 -1.15157 0
M  V30 2572 N 261.624 0.925811 1.2754 0
M  V30 2573 C 262.534 0.428993 2.30644 0
M  V30 2574 C 263.55 -0.489387 1.66976 0
M  V30 2575 O 264.726 -0.372653 1.97922 0
M  V30 2576 C 261.791 -0.311967 3.45294 0
M  V30 2577 C 260.852 0.641098 4.24486 0
M  V30 2578 C 260.085 -0.0645955 5.33661 0
M  V30 2579 O 260.308 -1.28429 5.55754 0
M  V30 2580 O 259.242 0.606265 5.98839 0
M  V30 2581 H 263.068 1.28504 2.75173 0
M  V30 2582 H 260.653 0.691086 1.32455 0
M  V30 2583 H 262.535 -0.729972 4.15029 0
M  V30 2584 H 261.21 -1.14365 3.02824 0
M  V30 2585 H 260.117 1.10874 3.57292 0
M  V30 2586 H 261.45 1.43995 4.70666 0
M  V30 2587 N 263.102 -1.41638 0.69111 0
M  V30 2588 C 264.33 -2.05628 0.22909 0
M  V30 2589 C 264.745 -1.51992 -1.11999 0
M  V30 2590 O 264.102 -0.666322 -1.69901 0
M  V30 2591 C 264.153 -3.61084 0.173283 0
M  V30 2592 O 263.874 -4.12735 1.46907 0
M  V30 2593 C 265.375 -4.42213 -0.310266 0
M  V30 2594 H 262.595 -0.662327 0.107534 0
M  V30 2595 H 265.139 -1.81489 0.942438 0
M  V30 2596 H 263.294 -3.84278 -0.490858 0
M  V30 2597 H 263.708 -5.06743 1.35322 0
M  V30 2598 H 265.182 -5.51194 -0.298196 0
M  V30 2599 H 265.659 -4.1799 -1.34838 0
M  V30 2600 H 266.265 -4.24074 0.322716 0
M  V30 2601 N 264.58 -0.43555 -1.51462 0
M  V30 2602 C 265.857 0.191364 -1.94662 0
M  V30 2603 C 266.237 1.60254 -1.37411 0
M  V30 2604 O 265.585 2.2152 -0.560458 0
M  V30 2605 C 265.795 0.17091 -3.48581 0
M  V30 2606 C 267.143 0.377357 -4.2292 0
M  V30 2607 O 268.167 0.249104 -3.55328 0
M  V30 2608 O 267.026 0.63247 -5.42828 0
M  V30 2609 H 264.12 0.130932 -0.816569 0
M  V30 2610 H 266.666 -0.4934 -1.62369 0
M  V30 2611 H 265.438 -0.815738 -3.82703 0
M  V30 2612 H 265.061 0.898659 -3.87311 0
M  V30 2613 N 266.058 1.56714 -0.166846 0
M  V30 2614 C 267.304 1.97039 0.479962 0
M  V30 2615 C 267.637 1.05264 1.63197 0
M  V30 2616 O 266.912 0.0988833 1.94248 0
M  V30 2617 C 267.195 3.46867 0.967212 0
M  V30 2618 C 267.048 4.49421 -0.18466 0
M  V30 2619 C 268.367 3.9968 1.84238 0
M  V30 2620 H 265.486 0.71641 0.172992 0
M  V30 2621 H 268.128 1.8832 -0.252079 0
M  V30 2622 H 266.278 3.54428 1.59101 0
M  V30 2623 H 267.95 4.53924 -0.821621 0
M  V30 2624 H 266.193 4.25573 -0.840837 0
M  V30 2625 H 266.864 5.51644 0.198317 0
M  V30 2626 H 269.34 3.94723 1.31655 0
M  V30 2627 H 268.216 5.04941 2.15234 0
M  V30 2628 H 268.477 3.43226 2.78654 0
M  V30 2629 N 267.536 -0.106894 1.57237 0
M  V30 2630 C 268.446 -1.14911 2.0453 0
M  V30 2631 C 269.462 -1.44592 0.96795 0
M  V30 2632 O 270.638 -1.55468 1.2803 0
M  V30 2633 C 267.703 -2.45272 2.45036 0
M  V30 2634 C 266.764 -2.22879 3.66911 0
M  V30 2635 C 265.997 -3.47024 4.05475 0
M  V30 2636 O 266.22 -4.54804 3.44252 0
M  V30 2637 O 265.154 -3.3731 4.98504 0
M  V30 2638 H 268.98 -0.777461 2.9358 0
M  V30 2639 H 266.565 -0.318563 1.45964 0
M  V30 2640 H 268.447 -3.22055 2.71769 0
M  V30 2641 H 267.122 -2.81886 1.59129 0
M  V30 2642 H 266.029 -1.43915 3.45311 0
M  V30 2643 H 267.362 -1.91163 4.53561 0
M  V30 2644 N 269.014 -1.53014 -0.377408 0
M  V30 2645 C 269.977 -1.77957 -1.44444 0
M  V30 2646 C 270.977 -0.649763 -1.47087 0
M  V30 2647 O 272.167 -0.917897 -1.48055 0
M  V30 2648 C 269.299 -1.89089 -2.83651 0
M  V30 2649 H 270.492 -2.73243 -1.23606 0
M  V30 2650 H 268.045 -1.43912 -0.609844 0
M  V30 2651 H 268.78 -0.958293 -3.09818 0
M  V30 2652 H 268.565 -2.71254 -2.83132 0
M  V30 2653 H 270.055 -2.1002 -3.60945 0
M  V30 2654 N 270.492 0.636531 -1.44174 0
M  V30 2655 C 271.732 1.40781 -1.48189 0
M  V30 2656 C 272.096 1.91688 -0.10944 0
M  V30 2657 O 273.297 2.68789 -0.0242741 0
M  V30 2658 C 271.568 2.54575 -2.50851 0
M  V30 2659 S 273.127 3.4284 -2.73873 0
M  V30 2660 H 269.945 0.480345 -0.524204 0
M  V30 2661 H 272.547 0.737416 -1.81059 0
M  V30 2662 H 271.251 2.15478 -3.49281 0
M  V30 2663 H 270.782 3.26447 -2.19536 0
M  V30 2664 H 272.797 4.51846 -2.05059 0
M  V30 2665 N 271.97 1.30982 0.876444 0
M  V30 2666 C 273.21 1.21589 1.64303 0
M  V30 2667 C 273.574 -0.223962 1.90689 0
M  V30 2668 O 274.775 -0.44128 2.65153 0
M  V30 2669 C 273.046 2.03007 2.94148 0
M  V30 2670 S 274.605 2.10405 3.85065 0
M  V30 2671 H 271.423 0.433161 0.563819 0
M  V30 2672 H 274.025 1.65565 1.03964 0
M  V30 2673 H 272.729 3.06719 2.72675 0
M  V30 2674 H 272.26 1.59725 3.59515 0
M  V30 2675 H 274.275 1.23765 4.80517 0
M  V30 2676 N 273.449 -1.08991 1.13837 0
M  V30 2677 C 274.695 -1.81699 0.91417 0
M  V30 2678 C 275.05 -1.84264 -0.553594 0
M  V30 2679 O 274.343 -1.30313 -1.4046 0
M  V30 2680 C 274.537 -3.27042 1.44147 0
M  V30 2681 C 274.366 -3.38637 2.95897 0
M  V30 2682 C 273.136 -3.50177 3.64286 0
M  V30 2683 C 275.334 -3.30791 3.93804 0
M  V30 2684 N 273.316 -3.50501 5.04006 0
M  V30 2685 C 274.687 -3.38037 5.19741 0
M  V30 2686 C 276.742 -3.14488 3.86007 0
M  V30 2687 C 275.445 -3.30659 6.38793 0
M  V30 2688 C 277.471 -3.08438 5.04599 0
M  V30 2689 C 276.833 -3.1628 6.29402 0
M  V30 2690 H 272.932 -0.678967 0.387979 0
M  V30 2691 H 275.516 -1.30224 1.4474 0
M  V30 2692 H 273.687 -3.76976 0.935091 0
M  V30 2693 H 275.419 -3.87785 1.1578 0
M  V30 2694 H 272.174 -3.53815 3.1482 0
M  V30 2695 H 272.598 -3.54236 5.76928 0
M  V30 2696 H 277.24 -3.07291 2.90399 0
M  V30 2697 H 274.958 -3.36618 7.34652 0
M  V30 2698 H 278.544 -2.96952 5.0031 0
M  V30 2699 H 277.424 -3.1162 7.19627 0
M  V30 2700 N 274.927 -0.932562 -1.27047 0
M  V30 2701 C 275.86 -0.379774 -2.25018 0
M  V30 2702 C 276.838 0.526587 -1.53837 0
M  V30 2703 O 278.022 0.465992 -1.82649 0
M  V30 2704 C 275.149 0.455187 -3.35627 0
M  V30 2705 C 274.195 -0.388428 -4.24728 0
M  V30 2706 S 275.028 -1.80701 -5.04091 0
M  V30 2707 C 276.184 -0.979865 -6.18182 0
M  V30 2708 H 276.417 -1.2101 -2.71558 0
M  V30 2709 H 273.95 -0.735078 -1.35779 0
M  V30 2710 H 275.908 0.931052 -3.99802 0
M  V30 2711 H 274.569 1.26009 -2.87716 0
M  V30 2712 H 273.762 0.25089 -5.03375 0
M  V30 2713 H 273.364 -0.798649 -3.65373 0
M  V30 2714 H 275.656 -0.218115 -6.77149 0
M  V30 2715 H 276.599 -1.73951 -6.86401 0
M  V30 2716 H 277.007 -0.51973 -5.62102 0
M  V30 2717 N 276.405 1.4127 -0.698611 0
M  V30 2718 C 277.633 2.05503 -0.239992 0
M  V30 2719 C 278.048 1.52584 1.11191 0
M  V30 2720 O 277.405 0.675323 1.69545 0
M  V30 2721 C 277.456 3.60987 -0.192429 0
M  V30 2722 O 277.177 4.1195 -1.49094 0
M  V30 2723 C 278.678 4.42371 0.28681 0
M  V30 2724 H 275.898 0.661748 -0.111045 0
M  V30 2725 H 278.442 1.80987 -0.95205 0
M  V30 2726 H 276.597 3.84533 0.470472 0
M  V30 2727 H 277.011 5.06018 -1.38007 0
M  V30 2728 H 278.485 5.51344 0.26896 0
M  V30 2729 H 278.962 4.18699 1.32619 0
M  V30 2730 H 279.568 4.23897 -0.345201 0
M  V30 2731 N 277.883 0.443576 1.51229 0
M  V30 2732 C 279.113 -0.119117 2.06256 0
M  V30 2733 C 279.521 -1.36471 1.31043 0
M  V30 2734 O 278.864 -1.80034 0.365151 0
M  V30 2735 C 278.926 -0.500546 3.55998 0
M  V30 2736 C 278.59 0.639125 4.52509 0
M  V30 2737 C 279.587 1.51311 4.97394 0
M  V30 2738 C 277.272 0.821632 4.95535 0
M  V30 2739 C 279.266 2.55425 5.83984 0
M  V30 2740 C 276.953 1.86603 5.81913 0
M  V30 2741 C 277.951 2.73072 6.26036 0
M  V30 2742 O 277.639 3.75718 7.10698 0
M  V30 2743 H 277.371 -0.00857665 0.675946 0
M  V30 2744 H 279.925 0.623288 1.95715 0
M  V30 2745 H 278.155 -1.29575 3.64345 0
M  V30 2746 H 279.844 -0.995116 3.93513 0
M  V30 2747 H 280.61 1.38367 4.64844 0
M  V30 2748 H 276.489 0.158149 4.60729 0
M  V30 2749 H 280.033 3.22949 6.18344 0
M  V30 2750 H 275.93 1.99564 6.13876 0
M  V30 2751 H 276.698 3.72374 7.2889 0
M  V30 2752 N 279.361 -1.56624 0.175154 0
M  V30 2753 C 280.777 -1.58571 -0.180966 0
M  V30 2754 C 280.977 -1.19065 -1.6256 0
M  V30 2755 O 280.033 -0.904044 -2.35761 0
M  V30 2756 C 281.346 -3.00522 0.103326 0
M  V30 2757 C 282.894 -3.12972 0.0418426 0
M  V30 2758 C 283.369 -4.57022 0.299175 0
M  V30 2759 N 284.86 -4.62541 0.247086 0
M  V30 2760 C 285.595 -5.71857 0.420318 0
M  V30 2761 N 285.091 -6.89717 0.652816 0
M  V30 2762 N 286.884 -5.60972 0.355957 0
M  V30 2763 H 279.035 -1.80589 1.11809 0
M  V30 2764 H 281.298 -0.837178 0.444788 0
M  V30 2765 H 281.004 -3.33916 1.10422 0
M  V30 2766 H 280.878 -3.72344 -0.603299 0
M  V30 2767 H 283.265 -2.79403 -0.949636 0
M  V30 2768 H 283.346 -2.43578 0.781238 0
M  V30 2769 H 282.99 -4.913 1.28788 0
M  V30 2770 H 282.92 -5.24579 -0.460876 0
M  V30 2771 H 285.411 -3.77829 0.0731895 0
M  V30 2772 H 285.724 -7.68911 0.774347 0
M  V30 2773 H 284.069 -6.91572 0.689476 0
M  V30 2774 H 287.26 -4.67773 0.174882 0
M  V30 2775 H 287.433 -6.46111 0.494388 0
M  V30 2776 N 280.839 0.0985539 -1.57292 0
M  V30 2777 C 281.771 1.14595 -1.98496 0
M  V30 2778 C 282.784 1.36512 -0.887031 0
M  V30 2779 O 283.973 1.35225 -1.16518 0
M  V30 2780 C 281.073 2.50216 -2.28572 0
M  V30 2781 C 280.246 2.48624 -3.59868 0
M  V30 2782 C 279.305 3.66146 -3.7792 0
M  V30 2783 O 278.331 3.48795 -4.49812 0
M  V30 2784 N 279.533 4.85496 -3.18235 0
M  V30 2785 H 282.298 0.795277 -2.88956 0
M  V30 2786 H 279.859 0.287579 -1.59325 0
M  V30 2787 H 281.851 3.27432 -2.37845 0
M  V30 2788 H 280.421 2.77387 -1.44136 0
M  V30 2789 H 279.641 1.56978 -3.61596 0
M  V30 2790 H 280.929 2.44635 -4.46129 0
M  V30 2791 H 280.327 5.02497 -2.59833 0
M  V30 2792 H 278.884 5.60317 -3.32999 0
M  V30 2793 N 282.317 1.53212 0.369288 0
M  V30 2794 C 283.267 1.75769 1.45222 0
M  V30 2795 C 284.251 0.612136 1.48801 0
M  V30 2796 O 285.443 0.870674 1.54105 0
M  V30 2797 C 282.572 1.94769 2.82701 0
M  V30 2798 C 281.658 3.15315 2.83615 0
M  V30 2799 N 282.049 4.37295 2.54178 0
M  V30 2800 C 280.347 3.15962 3.14776 0
M  V30 2801 C 281.048 5.19015 2.62675 0
M  V30 2802 N 280.024 4.55142 2.97232 0
M  V30 2803 H 283.826 2.67691 1.2132 0
M  V30 2804 H 281.34 1.51787 0.577438 0
M  V30 2805 H 283.337 2.09056 3.60696 0
M  V30 2806 H 281.997 1.04073 3.07569 0
M  V30 2807 H 283.008 4.65091 2.27839 0
M  V30 2808 H 279.685 2.35144 3.44983 0
M  V30 2809 H 281.075 6.26305 2.43294 0
M  V30 2810 N 283.795 -0.628877 1.44509 0
M  V30 2811 C 285.211 -0.947305 1.28446 0
M  V30 2812 C 285.411 -2.00275 0.221872 0
M  V30 2813 O 284.467 -2.49447 -0.391471 0
M  V30 2814 C 285.78 -1.40843 2.65676 0
M  V30 2815 C 287.328 -1.52379 2.73404 0
M  V30 2816 C 287.803 -2.01875 4.11109 0
M  V30 2817 N 289.294 -2.09142 4.13296 0
M  V30 2818 C 290.029 -2.48615 5.16699 0
M  V30 2819 N 289.525 -2.87209 6.30462 0
M  V30 2820 N 291.318 -2.48768 5.04054 0
M  V30 2821 H 283.469 0.0690977 2.12288 0
M  V30 2822 H 285.732 -0.0317164 0.947469 0
M  V30 2823 H 285.438 -0.707206 3.44516 0
M  V30 2824 H 285.312 -2.37902 2.92716 0
M  V30 2825 H 287.699 -2.21598 1.9488 0
M  V30 2826 H 287.78 -0.536898 2.50102 0
M  V30 2827 H 287.424 -1.3325 4.90109 0
M  V30 2828 H 287.354 -3.0144 4.31789 0
M  V30 2829 H 289.845 -1.81991 3.31191 0
M  V30 2830 H 290.158 -3.16149 7.05174 0
M  V30 2831 H 288.503 -2.84955 6.33897 0
M  V30 2832 H 291.694 -2.18009 4.14234 0
M  V30 2833 H 291.867 -2.79207 5.84763 0
M  V30 2834 N 285.273 -1.31445 -0.869486 0
M  V30 2835 C 286.55 -1.11795 -1.60503 0
M  V30 2836 C 286.93 0.327168 -2.08549 0
M  V30 2837 O 286.278 1.32135 -1.8642 0
M  V30 2838 C 286.488 -2.13258 -2.76265 0
M  V30 2839 C 287.836 -2.45805 -3.46215 0
M  V30 2840 O 288.86 -2.11688 -2.86473 0
M  V30 2841 O 287.719 -3.04228 -4.5399 0
M  V30 2842 H 284.813 -0.430421 -0.706163 0
M  V30 2843 H 287.359 -1.42925 -0.914907 0
M  V30 2844 H 286.131 -3.10461 -2.3818 0
M  V30 2845 H 285.754 -1.83035 -3.52964 0
M  V30 2846 N 286.751 1.08385 -1.14413 0
M  V30 2847 C 287.714 2.13486 -0.834048 0
M  V30 2848 C 288.714 1.59988 0.161418 0
M  V30 2849 O 289.904 1.74071 -0.0669575 0
M  V30 2850 C 287.036 3.4003 -0.243354 0
M  V30 2851 H 288.229 2.42425 -1.7655 0
M  V30 2852 H 285.782 1.24101 -0.950189 0
M  V30 2853 H 286.517 3.16726 0.696807 0
M  V30 2854 H 286.302 3.80157 -0.960367 0
M  V30 2855 H 287.792 4.17577 -0.0436242 0
M  V30 2856 N 288.23 0.939286 1.26551 0
M  V30 2857 C 289.14 0.453432 2.30176 0
M  V30 2858 C 290.156 -0.471649 1.67486 0
M  V30 2859 O 291.332 -0.35164 1.98306 0
M  V30 2860 C 288.397 -0.275326 3.45605 0
M  V30 2861 C 287.458 0.686084 4.23782 0
M  V30 2862 C 286.691 -0.00798994 5.33699 0
M  V30 2863 O 286.914 -1.22528 5.57085 0
M  V30 2864 O 285.848 0.669746 5.98162 0
M  V30 2865 H 289.674 1.31416 2.73795 0
M  V30 2866 H 287.259 0.705095 1.31715 0
M  V30 2867 H 289.141 -0.685911 4.1578 0
M  V30 2868 H 287.816 -1.11147 3.0402 0
M  V30 2869 H 286.723 1.14658 3.56096 0
M  V30 2870 H 288.056 1.48979 4.69112 0
M  V30 2871 N 289.708 -1.40897 0.706093 0
M  V30 2872 C 290.618 -2.3455 0.0482286 0
M  V30 2873 C 291.634 -1.56796 -0.754396 0
M  V30 2874 O 292.81 -1.89228 -0.689538 0
M  V30 2875 C 289.875 -3.35625 -0.869303 0
M  V30 2876 C 288.936 -4.29261 -0.0576994 0
M  V30 2877 C 288.169 -5.25508 -0.931531 0
M  V30 2878 O 288.392 -5.27472 -2.17092 0
M  V30 2879 O 287.326 -6.00727 -0.375587 0
M  V30 2880 H 291.152 -2.92407 0.820476 0
M  V30 2881 H 288.737 -1.4193 0.4665 0
M  V30 2882 H 290.619 -3.97635 -1.39514 0
M  V30 2883 H 289.294 -2.80196 -1.62086 0
M  V30 2884 H 288.201 -3.70566 0.512988 0
M  V30 2885 H 289.534 -4.87817 0.655426 0
M  V30 2886 N 291.186 -0.45159 -1.50991 0
M  V30 2887 C 292.149 0.341117 -2.26647 0
M  V30 2888 C 293.149 0.937422 -1.30649 0
M  V30 2889 O 294.339 0.809644 -1.54241 0
M  V30 2890 C 291.471 1.48398 -3.06905 0
M  V30 2891 H 292.664 -0.322117 -2.98165 0
M  V30 2892 H 290.217 -0.205122 -1.54948 0
M  V30 2893 H 290.952 2.18284 -2.39838 0
M  V30 2894 H 290.737 1.06241 -3.77432 0
M  V30 2895 H 292.227 2.04367 -3.64176 0
M  V30 2896 N 292.664 1.56529 -0.183458 0
M  V30 2897 C 293.594 2.21549 0.737456 0
M  V30 2898 C 294.575 1.17489 1.23005 0
M  V30 2899 O 295.76 1.45959 1.281 0
M  V30 2900 C 292.89 2.86575 1.96194 0
M  V30 2901 C 291.844 3.96778 1.60473 0
M  V30 2902 C 291.17 4.48911 2.90487 0
M  V30 2903 C 292.47 5.15767 0.823497 0
M  V30 2904 H 294.164 2.98761 0.195453 0
M  V30 2905 H 291.71 1.43702 0.0925686 0
M  V30 2906 H 293.663 3.30739 2.61131 0
M  V30 2907 H 292.387 2.06749 2.52828 0
M  V30 2908 H 291.046 3.53286 0.978997 0
M  V30 2909 H 290.694 3.65862 3.45186 0
M  V30 2910 H 290.394 5.23265 2.67335 0
M  V30 2911 H 291.918 4.95771 3.56432 0
M  V30 2912 H 293.332 5.56549 1.37571 0
M  V30 2913 H 291.729 5.96114 0.690551 0
M  V30 2914 H 292.799 4.84574 -0.177782 0
M  V30 2915 N 294.142 -0.090211 1.57342 0
M  V30 2916 C 295.419 -0.824761 1.77361 0
M  V30 2917 C 295.799 -1.96698 0.76637 0
M  V30 2918 O 295.147 -2.27586 -0.204179 0
M  V30 2919 C 295.357 -1.31481 3.23286 0
M  V30 2920 C 296.705 -1.75563 3.86604 0
M  V30 2921 O 297.729 -1.41093 3.27065 0
M  V30 2922 O 296.588 -2.39317 4.91314 0
M  V30 2923 H 293.682 -0.393776 0.727234 0
M  V30 2924 H 296.228 -0.0717138 1.69548 0
M  V30 2925 H 295 -0.496671 3.88135 0
M  V30 2926 H 294.623 -2.12973 3.35751 0
M  V30 2927 N 295.62 -1.53406 -0.361157 0
M  V30 2928 C 296.845 -1.74024 -1.12829 0
M  V30 2929 C 297.27 -0.470069 -1.82132 0
M  V30 2930 O 296.628 0.57619 -1.719 0
M  V30 2931 C 296.676 -2.90903 -2.13091 0
M  V30 2932 O 295.78 -2.59821 -3.20261 0
M  V30 2933 H 295.121 -0.577804 -0.327168 0
M  V30 2934 H 297.651 -2.00307 -0.41693 0
M  V30 2935 H 297.661 -3.17194 -2.56616 0
M  V30 2936 H 296.336 -3.83034 -1.62042 0
M  V30 2937 H 294.913 -2.44362 -2.81677 0
M  V30 2938 N 297.098 0.621204 -1.44841 0
M  V30 2939 C 298.345 1.38055 -1.48145 0
M  V30 2940 C 298.673 1.94143 -0.117867 0
M  V30 2941 O 297.928 1.74713 0.881694 0
M  V30 2942 C 298.227 2.55675 -2.4973 0
M  V30 2943 C 297.893 2.17817 -3.94799 0
M  V30 2944 C 296.555 2.07205 -4.34303 0
M  V30 2945 C 298.907 1.88065 -4.86087 0
M  V30 2946 C 296.235 1.65045 -5.63007 0
M  V30 2947 C 298.587 1.47394 -6.15189 0
M  V30 2948 C 297.251 1.35331 -6.53637 0
M  V30 2949 H 296.521 0.505181 -0.542101 0
M  V30 2950 H 299.168 0.703477 -1.78111 0
M  V30 2951 H 297.473 3.2866 -2.13284 0
M  V30 2952 H 299.17 3.13904 -2.4953 0
M  V30 2953 H 295.76 2.26998 -3.63552 0
M  V30 2954 H 299.944 1.95168 -4.56315 0
M  V30 2955 H 295.2 1.54317 -5.91605 0
M  V30 2956 H 299.374 1.23415 -6.85377 0
M  V30 2957 H 297.001 1.02435 -7.53267 0
M  V30 2958 N 298.576 1.31904 0.862503 0
M  V30 2959 C 299.486 1.22161 2.00285 0
M  V30 2960 C 300.502 0.136785 1.73462 0
M  V30 2961 O 301.678 0.355994 1.98229 0
M  V30 2962 C 298.743 0.937093 3.33796 0
M  V30 2963 C 297.804 2.10957 3.73893 0
M  V30 2964 C 297.037 1.83853 5.01033 0
M  V30 2965 O 297.26 0.777274 5.65079 0
M  V30 2966 O 296.194 2.69741 5.38074 0
M  V30 2967 H 300.02 2.18008 2.11439 0
M  V30 2968 H 297.605 1.11716 0.991957 0
M  V30 2969 H 299.487 0.794583 4.13841 0
M  V30 2970 H 298.162 0.00871894 3.23699 0
M  V30 2971 H 297.069 2.30752 2.94456 0
M  V30 2972 H 298.402 3.02046 3.88625 0
M  V30 2973 N 300.054 -1.07777 1.14986 0
M  V30 2974 C 301.017 -2.13041 0.845358 0
M  V30 2975 C 302.017 -1.60071 -0.152931 0
M  V30 2976 O 303.207 -1.74033 0.0761879 0
M  V30 2977 C 300.339 -3.39896 0.261383 0
M  V30 2978 H 301.532 -2.41485 1.77834 0
M  V30 2979 H 299.085 -1.23595 0.956757 0
M  V30 2980 H 299.82 -3.17091 -0.68 0
M  V30 2981 H 299.605 -3.79642 0.980514 0
M  V30 2982 H 301.095 -4.17548 0.0657687 0
M  V30 2983 N 301.532 -0.945985 -1.26051 0
M  V30 2984 C 302.943 -0.638096 -1.75457 0
M  V30 2985 C 303.294 0.846672 -1.76991 0
M  V30 2986 O 302.419 1.66262 -1.38513 0
M  V30 2987 C 303.014 -1.15157 -3.18629 0
M  V30 2988 C 301.573 -0.894004 -3.65629 0
M  V30 2989 C 300.72 -1.29967 -2.44957 0
M  V30 2990 H 303.671 -1.12376 -1.1206 0
M  V30 2991 H 303.692 -0.507615 -3.77099 0
M  V30 2992 H 303.204 -2.23222 -3.1748 0
M  V30 2993 H 301.305 0.172057 -3.72203 0
M  V30 2994 H 301.418 -1.52439 -4.54202 0
M  V30 2995 H 299.782 -0.718078 -2.44368 0
M  V30 2996 H 300.565 -2.38935 -2.46505 0
M  V30 2997 N 303.011 1.40521 -0.713556 0
M  V30 2998 C 304.288 1.94775 -0.17943 0
M  V30 2999 C 304.668 1.65184 1.31444 0
M  V30 3000 O 304.016 0.968429 2.06963 0
M  V30 3001 C 304.226 3.45543 -0.489986 0
M  V30 3002 C 305.574 4.22442 -0.427536 0
M  V30 3003 O 306.598 3.53644 -0.425929 0
M  V30 3004 O 305.457 5.4501 -0.403292 0
M  V30 3005 H 302.551 0.826606 -0.0255192 0
M  V30 3006 H 305.097 1.5014 -0.790949 0
M  V30 3007 H 303.869 3.60432 -1.5233 0
M  V30 3008 H 303.492 3.97311 0.151598 0
M  V30 3009 N 304.489 0.459591 1.5075 0
M  V30 3010 C 305.9 0.00171547 1.867 0
M  V30 3011 C 306.251 -1.39934 1.37525 0
M  V30 3012 O 305.376 -2.03523 0.735349 0
M  V30 3013 C 305.971 -0.00366298 3.388 0
M  V30 3014 C 304.53 -0.406026 3.74204 0
M  V30 3015 C 303.677 0.38673 2.7459 0
M  V30 3016 H 306.628 0.674413 1.43657 0
M  V30 3017 H 306.649 -0.808371 3.71814 0
M  V30 3018 H 306.161 1.01617 3.74561 0
M  V30 3019 H 304.262 -1.43063 3.4404 0
M  V30 3020 H 304.375 -0.115362 4.78961 0
M  V30 3021 H 302.739 -0.158019 2.54209 0
M  V30 3022 H 303.522 1.40585 3.13194 0
M  V30 3023 N 305.967 -1.56429 0.191757 0
M  V30 3024 C 306.93 -2.17707 -0.716688 0
M  V30 3025 C 307.93 -1.13061 -1.14341 0
M  V30 3026 O 309.12 -1.38464 -1.05704 0
M  V30 3027 C 306.252 -2.77644 -1.97804 0
M  V30 3028 H 307.445 -2.99342 -0.1829 0
M  V30 3029 H 304.998 -1.56193 -0.0578566 0
M  V30 3030 H 305.733 -1.99799 -2.55443 0
M  V30 3031 H 305.518 -3.54246 -1.68083 0
M  V30 3032 H 307.008 -3.24708 -2.62592 0
M  V30 3033 N 307.445 0.0818655 -1.57387 0
M  V30 3034 C 308.693 0.781368 -1.86384 0
M  V30 3035 C 309.014 1.78618 -0.782342 0
M  V30 3036 O 308.284 1.94976 0.190061 0
M  V30 3037 H 306.864 0.291562 -0.687751 0
M  V30 3038 H 309.526 0.060348 -1.94807 0
M  V30 3039 H 308.622 1.3038 -2.83562 0
M  V30 3040 N 308.923 1.53595 0.353017 0
M  V30 3041 C 309.886 1.80232 1.41594 0
M  V30 3042 C 310.886 0.673081 1.46035 0
M  V30 3043 O 312.076 0.941335 1.46576 0
M  V30 3044 C 309.208 1.93578 2.80607 0
M  V30 3045 H 310.401 2.75174 1.19244 0
M  V30 3046 H 307.954 1.44864 0.586872 0
M  V30 3047 H 308.689 1.00746 3.08254 0
M  V30 3048 H 308.474 2.75724 2.78781 0
M  V30 3049 H 309.964 2.15735 3.57558 0
M  V30 3050 N 310.401 -0.613514 1.45168 0
M  V30 3051 C 311.364 -1.7065 1.53007 0
M  V30 3052 C 312.364 -1.5548 0.410184 0
M  V30 3053 O 313.554 -1.60656 0.673455 0
M  V30 3054 C 310.686 -3.09875 1.42093 0
M  V30 3055 H 311.879 -1.65068 2.50385 0
M  V30 3056 H 309.432 -0.828728 1.32521 0
M  V30 3057 H 310.167 -3.21039 0.458769 0
M  V30 3058 H 309.952 -3.22293 2.23315 0
M  V30 3059 H 311.442 -3.895 1.50598 0
M  V30 3060 N 311.879 -1.3236 -0.855495 0
M  V30 3061 C 312.827 -1.2118 -1.9854 0
M  V30 3062 C 313.821 -0.116788 -1.68997 0
M  V30 3063 O 315.027 -0.279657 -1.77814 0
M  V30 3064 H 311.402 -0.375608 -0.651477 0
M  V30 3065 H 313.373 -2.16743 -2.05098 0
M  V30 3066 C 312.122 -0.950849 -3.34446 0
M  V30 3067 H 311.445 -1.78563 -3.57708 0
M  V30 3068 H 312.885 -0.912863 -4.14057 0
M  V30 3069 C 311.344 0.346404 -3.35114 0
M  V30 3070 O 311.874 1.35855 -3.7803 0
M  V30 3071 N 310.08 0.36808 -2.88259 0
M  V30 3072 H 309.627 -0.456102 -2.5353 0
M  V30 3073 H 309.585 1.23591 -2.89089 0
M  V30 3074 N 313.357 1.07166 -1.15556 0
M  V30 3075 C 314.32 2.12589 -0.856644 0
M  V30 3076 C 315.32 1.6015 0.14444 0
M  V30 3077 O 316.51 1.7399 -0.0854163 0
M  V30 3078 C 313.642 3.39753 -0.279405 0
M  V30 3079 H 314.835 2.40539 -1.79112 0
M  V30 3080 H 312.388 1.23086 -0.963298 0
M  V30 3081 H 313.123 3.17447 0.663174 0
M  V30 3082 H 312.908 3.79117 -1.00063 0
M  V30 3083 H 314.398 4.17507 -0.0879113 0
M  V30 3084 N 314.835 0.952656 1.25548 0
M  V30 3085 C 315.798 0.475794 2.24207 0
M  V30 3086 C 316.798 -0.419428 1.55234 0
M  V30 3087 O 317.988 -0.216994 1.72843 0
M  V30 3088 C 315.12 -0.312814 3.39462 0
M  V30 3089 H 316.313 1.34779 2.67908 0
M  V30 3090 H 313.866 0.735739 1.37901 0
M  V30 3091 H 314.601 -1.20257 3.01179 0
M  V30 3092 H 314.386 0.329404 3.90714 0
M  V30 3093 H 315.876 -0.635986 4.12729 0
M  V30 3094 N 316.313 -1.40141 0.720998 0
M  V30 3095 C 317.261 -2.3252 0.0608547 0
M  V30 3096 C 318.255 -1.52326 -0.741152 0
M  V30 3097 O 319.461 -1.68089 -0.643911 0
M  V30 3098 H 315.836 -0.751999 0.000876664 0
M  V30 3099 H 317.807 -2.8584 0.856614 0
M  V30 3100 C 316.556 -3.37331 -0.842809 0
M  V30 3101 H 315.879 -3.99108 -0.235084 0
M  V30 3102 H 317.319 -4.04452 -1.27257 0
M  V30 3103 C 315.778 -2.73246 -1.97074 0
M  V30 3104 O 316.308 -2.59998 -3.06209 0
M  V30 3105 N 314.514 -2.31547 -1.75597 0
M  V30 3106 H 314.061 -2.42522 -0.868368 0
M  V30 3107 H 314.019 -1.89007 -2.51244 0
M  V30 3108 N 317.792 -0.46758 -1.50504 0
M  V30 3109 C 318.755 0.317059 -2.26996 0
M  V30 3110 C 319.755 0.923513 -1.31635 0
M  V30 3111 O 320.945 0.793239 -1.55091 0
M  V30 3112 C 318.077 1.45134 -3.08462 0
M  V30 3113 H 319.27 -0.353723 -2.97807 0
M  V30 3114 H 316.823 -0.221545 -1.54722 0
M  V30 3115 H 317.558 2.15728 -2.4214 0
M  V30 3116 H 317.343 1.02232 -3.78538 0
M  V30 3117 H 318.833 2.00493 -3.66323 0
M  V30 3118 N 319.27 1.56325 -0.20005 0
M  V30 3119 C 320.233 2.18084 0.705132 0
M  V30 3120 C 321.233 1.13666 1.1374 0
M  V30 3121 O 322.423 1.39023 1.04968 0
M  V30 3122 C 319.555 2.78689 1.96329 0
M  V30 3123 H 320.748 2.99435 0.167023 0
M  V30 3124 H 318.301 1.56221 0.0495725 0
M  V30 3125 H 319.036 2.0115 2.5438 0
M  V30 3126 H 318.821 3.55133 1.66202 0
M  V30 3127 H 320.311 3.26096 2.60866 0
M  V30 3128 N 320.748 -0.0735177 1.57428 0
M  V30 3129 C 321.996 -0.771472 1.86796 0
M  V30 3130 C 322.317 -1.78201 0.791804 0
M  V30 3131 O 321.587 -1.95074 -0.179718 0
M  V30 3132 H 320.167 -0.28791 0.689287 0
M  V30 3133 H 322.829 -0.0500161 1.94836 0
M  V30 3134 H 321.925 -1.28874 2.8425 0
M  V30 3135 N 322.226 -1.5378 -0.344866 0
M  V30 3136 C 323.189 -1.80981 -1.40637 0
M  V30 3137 C 324.189 -0.680816 -1.45676 0
M  V30 3138 O 325.379 -0.949095 -1.46075 0
M  V30 3139 C 322.511 -1.95063 -2.79577 0
M  V30 3140 H 323.704 -2.75803 -1.17783 0
M  V30 3141 H 321.257 -1.45173 -0.579181 0
M  V30 3142 H 321.992 -1.02379 -3.07716 0
M  V30 3143 H 321.777 -2.77198 -2.77315 0
M  V30 3144 H 323.267 -2.17629 -3.56409 0
M  V30 3145 N 323.704 0.605807 -1.45491 0
M  V30 3146 C 324.654 1.71074 -1.50724 0
M  V30 3147 C 325.638 1.5658 -0.37033 0
M  V30 3148 O 326.83 1.65887 -0.617299 0
M  V30 3149 C 323.959 3.0983 -1.47852 0
M  V30 3150 C 323.045 3.29704 -2.66751 0
M  V30 3151 N 323.436 3.19831 -3.91844 0
M  V30 3152 C 321.734 3.60579 -2.62486 0
M  V30 3153 C 322.435 3.41083 -4.71208 0
M  V30 3154 N 321.411 3.65157 -4.02693 0
M  V30 3155 H 325.213 1.61937 -2.45263 0
M  V30 3156 H 322.727 0.80912 -1.40808 0
M  V30 3157 H 324.724 3.89101 -1.49686 0
M  V30 3158 H 323.384 3.20115 -0.543714 0
M  V30 3159 H 324.395 2.98194 -4.23439 0
M  V30 3160 H 321.072 3.7769 -1.77922 0
M  V30 3161 H 322.462 3.38828 -5.80211 0
M  V30 3162 N 325.182 1.32811 0.848464 0
M  V30 3163 C 326.459 1.14334 1.58704 0
M  V30 3164 C 326.839 -0.293948 2.09043 0
M  V30 3165 O 326.187 -1.29153 1.88499 0
M  V30 3166 C 326.397 2.17626 2.72837 0
M  V30 3167 C 327.745 2.51282 3.42261 0
M  V30 3168 O 328.769 2.16219 2.83068 0
M  V30 3169 O 327.628 3.11413 4.49093 0
M  V30 3170 H 324.722 0.441601 0.699226 0
M  V30 3171 H 327.268 1.44362 0.892053 0
M  V30 3172 H 326.04 3.14211 2.3321 0
M  V30 3173 H 325.663 1.88628 3.50008 0
M  V30 3174 N 326.66 -1.06551 1.16123 0
M  V30 3175 C 327.908 -1.78947 0.939267 0
M  V30 3176 C 328.229 -1.87532 -0.534476 0
M  V30 3177 O 327.499 -1.38211 -1.38833 0
M  V30 3178 H 326.079 -0.662807 0.344523 0
M  V30 3179 H 328.741 -1.28725 1.46342 0
M  V30 3180 H 327.837 -2.81117 1.35572 0
M  V30 3181 N 328.138 -0.959301 -1.25041 0
M  V30 3182 C 329.386 -0.615393 -1.92503 0
M  V30 3183 C 329.707 0.850969 -1.75452 0
M  V30 3184 O 328.977 1.60658 -1.12098 0
M  V30 3185 H 327.557 -0.224613 -0.712431 0
M  V30 3186 H 330.219 -1.21855 -1.5211 0
M  V30 3187 H 329.315 -0.848738 -3.00338 0
M  V30 3188 N 329.616 1.39756 -0.72842 0
M  V30 3189 C 330.546 2.33289 -0.0991354 0
M  V30 3190 C 331.527 1.53568 0.731489 0
M  V30 3191 O 332.712 1.81987 0.677807 0
M  V30 3192 C 329.842 3.3763 0.813834 0
M  V30 3193 C 328.796 4.2791 0.0878663 0
M  V30 3194 C 328.122 5.22894 1.11741 0
M  V30 3195 C 329.422 5.11314 -1.06563 0
M  V30 3196 H 331.116 2.86163 -0.880408 0
M  V30 3197 H 328.662 1.37591 -0.424819 0
M  V30 3198 H 330.615 4.0201 1.26355 0
M  V30 3199 H 329.339 2.83181 1.62715 0
M  V30 3200 H 327.998 3.65 -0.342159 0
M  V30 3201 H 327.646 4.64744 1.92412 0
M  V30 3202 H 327.346 5.84143 0.636477 0
M  V30 3203 H 328.87 5.90151 1.56697 0
M  V30 3204 H 330.284 5.69076 -0.694671 0
M  V30 3205 H 328.681 5.81671 -1.47577 0
M  V30 3206 H 329.751 4.46534 -1.89038 0
M  V30 3207 N 331.094 0.475555 1.50254 0
M  V30 3208 C 332.371 -0.139685 1.95101 0
M  V30 3209 C 332.751 -1.56555 1.41611 0
M  V30 3210 O 332.099 -2.19956 0.618993 0
M  V30 3211 C 332.309 -0.0784298 3.48912 0
M  V30 3212 C 333.657 -0.265095 4.23772 0
M  V30 3213 O 334.681 -0.154808 3.55863 0
M  V30 3214 O 333.54 -0.488327 5.44314 0
M  V30 3215 H 330.634 -0.109236 0.819754 0
M  V30 3216 H 333.18 0.536276 1.61004 0
M  V30 3217 H 331.952 0.916918 3.80405 0
M  V30 3218 H 331.575 -0.795655 3.89558 0
M  V30 3219 N 332.573 -1.56217 0.208337 0
M  V30 3220 C 333.85 -1.89739 -0.475234 0
M  V30 3221 C 334.23 -1.1238 -1.78701 0
M  V30 3222 O 333.578 -0.228979 -2.2735 0
M  V30 3223 C 333.788 -3.42289 -0.681101 0
M  V30 3224 C 335.136 -4.12789 -0.994507 0
M  V30 3225 O 336.16 -3.47814 -0.768357 0
M  V30 3226 O 335.019 -5.27649 -1.42299 0
M  V30 3227 H 332.113 -0.788478 -0.249461 0
M  V30 3228 H 334.659 -1.67855 0.249538 0
M  V30 3229 H 333.431 -3.90534 0.244722 0
M  V30 3230 H 333.054 -3.69909 -1.45785 0
M  V30 3231 N 334.051 0.0651679 -1.57465 0
M  V30 3232 C 334.961 1.09448 -2.07505 0
M  V30 3233 C 335.977 1.41974 -1.00595 0
M  V30 3234 O 337.153 1.52018 -1.32107 0
M  V30 3235 C 334.218 2.38689 -2.51453 0
M  V30 3236 C 333.279 2.13073 -3.72691 0
M  V30 3237 C 332.512 3.36152 -4.14533 0
M  V30 3238 O 332.735 4.45517 -3.56189 0
M  V30 3239 O 331.669 3.23974 -5.07272 0
M  V30 3240 H 335.495 0.69935 -2.95538 0
M  V30 3241 H 333.08 0.279752 -1.46757 0
M  V30 3242 H 334.962 3.14736 -2.80212 0
M  V30 3243 H 333.637 2.77568 -1.66546 0
M  V30 3244 H 332.544 1.34709 -3.49005 0
M  V30 3245 H 333.877 1.79071 -4.5847 0
M  V30 3246 N 335.529 1.53961 0.336706 0
M  V30 3247 C 336.492 1.81724 1.39675 0
M  V30 3248 C 337.492 0.688532 1.45313 0
M  V30 3249 O 338.682 0.956829 1.45569 0
M  V30 3250 C 335.814 1.96543 2.78538 0
M  V30 3251 H 337.007 2.76424 1.16318 0
M  V30 3252 H 334.56 1.45478 0.571474 0
M  V30 3253 H 335.295 1.0401 3.07168 0
M  V30 3254 H 335.08 2.78665 2.75841 0
M  V30 3255 H 336.57 2.19516 3.5525 0
M  V30 3256 N 337.007 -0.598083 1.45811 0
M  V30 3257 C 338.255 -1.35413 1.50026 0
M  V30 3258 C 338.576 -1.94444 0.147177 0
M  V30 3259 O 337.846 -1.77701 -0.824571 0
M  V30 3260 H 336.426 -0.502727 0.552517 0
M  V30 3261 H 339.088 -0.701606 1.81834 0
M  V30 3262 H 338.184 -2.16871 2.2444 0
M  V30 3263 N 338.485 -1.33259 -0.841409 0
M  V30 3264 C 339.448 -1.23221 -1.9326 0
M  V30 3265 C 340.448 -0.151895 -1.60081 0
M  V30 3266 O 341.638 -0.403246 -1.69468 0
M  V30 3267 C 338.77 -0.898123 -3.28856 0
M  V30 3268 H 339.963 -2.2021 -2.03587 0
M  V30 3269 H 337.516 -1.17281 -1.03319 0
M  V30 3270 H 338.251 0.0693841 -3.24226 0
M  V30 3271 H 338.036 -1.67934 -3.54317 0
M  V30 3272 H 339.526 -0.852563 -4.08805 0
M  V30 3273 N 339.963 1.05934 -1.16686 0
M  V30 3274 C 341.211 1.78447 -0.948744 0
M  V30 3275 C 341.532 1.87813 0.524523 0
M  V30 3276 O 340.802 1.38945 1.38098 0
M  V30 3277 H 339.382 0.660971 -0.348033 0
M  V30 3278 H 342.044 1.27947 -1.47022 0
M  V30 3279 H 341.14 2.80394 -1.37061 0
M  V30 3280 N 341.441 0.965919 1.2453 0
M  V30 3281 C 342.689 0.625593 1.92174 0
M  V30 3282 C 343.01 -0.841652 1.75901 0
M  V30 3283 O 342.28 -1.60061 1.12948 0
M  V30 3284 H 340.86 0.228388 0.71123 0
M  V30 3285 H 343.522 1.2266 1.51461 0
M  V30 3286 H 342.618 0.864653 2.99884 0
M  V30 3287 N 342.919 -1.39368 0.735821 0
M  V30 3288 C 344.167 -2.00101 0.283562 0
M  V30 3289 C 344.488 -1.5868 -1.13338 0
M  V30 3290 O 343.758 -0.835423 -1.77193 0
M  V30 3291 H 342.338 -0.740024 0.101851 0
M  V30 3292 H 345 -1.70404 0.945962 0
M  V30 3293 H 344.096 -3.10323 0.332604 0
M  V30 3294 N 344.397 -0.483516 -1.5 0
M  V30 3295 C 345.645 0.067027 -2.01989 0
M  V30 3296 C 345.966 1.3909 -1.36671 0
M  V30 3297 O 345.236 1.88978 -0.516152 0
M  V30 3298 H 343.816 0.0277606 -0.746484 0
M  V30 3299 H 346.478 -0.636773 -1.84204 0
M  V30 3300 H 345.574 0.209484 -3.11396 0
M  V30 3301 N 345.875 1.56104 -0.216619 0
M  V30 3302 C 346.805 2.23063 0.690296 0
M  V30 3303 C 347.786 1.20072 1.20485 0
M  V30 3304 O 348.971 1.48643 1.24976 0
M  V30 3305 C 346.101 2.90672 1.90072 0
M  V30 3306 C 345.055 4.00092 1.5202 0
M  V30 3307 C 344.381 4.54972 2.80899 0
M  V30 3308 C 345.681 5.17398 0.71391 0
M  V30 3309 H 347.375 2.99109 0.132038 0
M  V30 3310 H 344.921 1.43866 0.0620664 0
M  V30 3311 H 346.874 3.36204 2.54057 0
M  V30 3312 H 345.598 2.12066 2.48386 0
M  V30 3313 H 344.257 3.55283 0.903839 0
M  V30 3314 H 343.905 3.73102 3.37348 0
M  V30 3315 H 343.605 5.28817 2.56176 0
M  V30 3316 H 345.129 5.0322 3.45836 0
M  V30 3317 H 346.543 5.59342 1.25735 0
M  V30 3318 H 344.94 5.97444 0.563951 0
M  V30 3319 H 346.01 4.84088 -0.280527 0
M  V30 3320 N 347.353 -0.0568162 1.57498 0
M  V30 3321 C 348.63 -0.786954 1.79071 0
M  V30 3322 C 349.01 -1.95028 0.80792 0
M  V30 3323 O 348.358 -2.27968 -0.155858 0
M  V30 3324 C 348.568 -1.24594 3.26002 0
M  V30 3325 C 349.916 -1.67323 3.90241 0
M  V30 3326 O 350.94 -1.34124 3.29984 0
M  V30 3327 O 349.799 -2.28842 4.9628 0
M  V30 3328 H 346.893 -0.378262 0.735423 0
M  V30 3329 H 349.439 -0.035734 1.69662 0
M  V30 3330 H 348.211 -0.41423 3.89101 0
M  V30 3331 H 347.834 -2.05803 3.40192 0
M  V30 3332 N 348.832 -1.54138 -0.328536 0
M  V30 3333 C 350.08 -1.71765 -1.06496 0
M  V30 3334 C 350.401 -0.49149 -1.88704 0
M  V30 3335 O 349.671 0.494539 -1.89555 0
M  V30 3336 H 348.251 -0.633295 -0.396164 0
M  V30 3337 H 350.913 -1.91429 -0.366176 0
M  V30 3338 H 350.009 -2.5951 -1.73381 0
M  V30 3339 N 350.31 0.590341 -1.46126 0
M  V30 3340 C 351.273 1.68194 -1.55703 0
M  V30 3341 C 352.273 1.54808 -0.434868 0
M  V30 3342 O 353.463 1.59564 -0.698928 0
M  V30 3343 C 350.595 3.07575 -1.47005 0
M  V30 3344 H 351.788 1.61064 -2.52979 0
M  V30 3345 H 349.341 0.807541 -1.33823 0
M  V30 3346 H 350.076 3.20268 -0.509785 0
M  V30 3347 H 349.861 3.187 -2.28414 0
M  V30 3348 H 351.351 3.87055 -1.56776 0
M  V30 3349 N 351.788 1.33704 0.83433 0
M  V30 3350 C 353.036 1.25169 1.58673 0
M  V30 3351 C 353.357 -0.18127 1.94156 0
M  V30 3352 O 352.627 -1.11113 1.6134 0
M  V30 3353 H 351.207 0.4603 0.58833 0
M  V30 3354 H 353.869 1.67478 0.996847 0
M  V30 3355 H 352.965 1.84856 2.51465 0
M  V30 3356 N 353.266 -1.05314 1.17247 0
M  V30 3357 C 354.514 -1.77941 0.958194 0
M  V30 3358 C 354.835 -1.88089 -0.514556 0
M  V30 3359 O 354.105 -1.39676 -1.37359 0
M  V30 3360 H 352.685 -0.659116 0.351533 0
M  V30 3361 H 355.347 -1.27166 1.47699 0
M  V30 3362 H 354.443 -2.79663 1.38546 0
M  V30 3363 N 354.744 -0.972509 -1.24016 0
M  V30 3364 C 355.654 -0.5143 -2.28893 0
M  V30 3365 C 356.67 0.427078 -1.68677 0
M  V30 3366 O 357.846 0.298939 -1.99169 0
M  V30 3367 C 354.911 0.183598 -3.46214 0
M  V30 3368 C 353.972 -0.798202 -4.21814 0
M  V30 3369 C 353.205 -0.133514 -5.33533 0
M  V30 3370 O 353.428 1.07714 -5.60137 0
M  V30 3371 O 352.362 -0.828103 -5.96176 0
M  V30 3372 H 356.188 -1.38629 -2.70214 0
M  V30 3373 H 353.773 -0.739769 -1.29799 0
M  V30 3374 H 355.655 0.575433 -4.17453 0
M  V30 3375 H 354.33 1.03048 -3.0686 0
M  V30 3376 H 353.237 -1.24059 -3.52931 0
M  V30 3377 H 354.57 -1.61364 -4.64997 0
M  V30 3378 N 356.222 1.38976 -0.743202 0
M  V30 3379 C 357.152 2.33171 -0.123873 0
M  V30 3380 C 358.133 1.54336 0.71516 0
M  V30 3381 O 359.318 1.82696 0.658467 0
M  V30 3382 C 356.448 3.38474 0.777978 0
M  V30 3383 C 355.402 4.27979 0.0424758 0
M  V30 3384 C 354.728 5.2405 1.06189 0
M  V30 3385 C 356.028 5.10155 -1.1198 0
M  V30 3386 H 357.722 2.85213 -0.910709 0
M  V30 3387 H 355.268 1.37133 -0.439388 0
M  V30 3388 H 357.221 4.03328 1.22084 0
M  V30 3389 H 355.945 2.84891 1.59702 0
M  V30 3390 H 354.604 3.64616 -0.380853 0
M  V30 3391 H 354.252 4.66758 1.87472 0
M  V30 3392 H 353.952 5.84785 0.574485 0
M  V30 3393 H 355.476 5.9178 1.50428 0
M  V30 3394 H 356.89 5.68307 -0.75499 0
M  V30 3395 H 355.287 5.80073 -1.53738 0
M  V30 3396 H 356.357 4.44504 -1.93764 0
M  V30 3397 N 357.7 0.491464 1.49741 0
M  V30 3398 C 358.647 -0.292027 2.28945 0
M  V30 3399 C 359.617 -0.968973 1.34908 0
M  V30 3400 O 360.802 -0.97748 1.6386 0
M  V30 3401 C 357.942 -1.35617 3.17336 0
M  V30 3402 C 357.055 -0.691957 4.26422 0
M  V30 3403 C 356.19 -1.73572 5.02042 0
M  V30 3404 C 355.229 -1.05286 6.02977 0
M  V30 3405 N 354.366 -2.0404 6.71798 0
M  V30 3406 H 359.206 0.389654 2.95442 0
M  V30 3407 H 356.743 0.204003 1.45679 0
M  V30 3408 H 358.701 -1.98502 3.66951 0
M  V30 3409 H 357.331 -2.00674 2.52844 0
M  V30 3410 H 356.383 0.0499523 3.80367 0
M  V30 3411 H 357.695 -0.153946 4.98562 0
M  V30 3412 H 356.849 -2.43987 5.55478 0
M  V30 3413 H 355.588 -2.30757 4.29654 0
M  V30 3414 H 354.593 -0.334446 5.48782 0
M  V30 3415 H 355.818 -0.487636 6.77347 0
M  V30 3416 H 353.764 -2.60205 6.02187 0
M  V30 3417 H 353.681 -1.55279 7.39881 0
M  V30 3418 H 354.949 -2.73772 7.29842 0
M  V30 3419 N 359.178 -1.55987 0.224894 0
M  V30 3420 C 360.594 -1.59066 -0.130426 0
M  V30 3421 C 360.794 -1.24176 -1.5869 0
M  V30 3422 O 359.85 -0.978592 -2.32766 0
M  V30 3423 C 361.163 -3.00042 0.198883 0
M  V30 3424 C 362.711 -3.1268 0.141391 0
M  V30 3425 C 363.186 -4.55839 0.444422 0
M  V30 3426 N 364.677 -4.6152 0.394115 0
M  V30 3427 C 365.412 -5.70231 0.602038 0
M  V30 3428 N 364.908 -6.87291 0.871914 0
M  V30 3429 N 366.701 -5.59555 0.534245 0
M  V30 3430 H 358.852 -1.76941 1.17497 0
M  V30 3431 H 361.115 -0.822604 0.471197 0
M  V30 3432 H 360.821 -3.30234 1.2099 0
M  V30 3433 H 360.695 -3.74075 -0.484535 0
M  V30 3434 H 363.082 -2.82283 -0.860265 0
M  V30 3435 H 363.163 -2.40969 0.858335 0
M  V30 3436 H 362.807 -4.86954 1.44353 0
M  V30 3437 H 362.737 -5.2578 -0.293752 0
M  V30 3438 H 365.228 -3.77405 0.193356 0
M  V30 3439 H 365.541 -7.66058 1.01858 0
M  V30 3440 H 363.886 -6.89028 0.909145 0
M  V30 3441 H 367.077 -4.6698 0.323612 0
M  V30 3442 H 367.25 -6.44211 0.699693 0
M  V30 3443 N 360.656 0.0484629 -1.57525 0
M  V30 3444 C 361.586 1.0549 -2.08313 0
M  V30 3445 C 362.567 1.38929 -0.981463 0
M  V30 3446 O 363.752 1.48151 -1.25558 0
M  V30 3447 C 360.882 2.36162 -2.54646 0
M  V30 3448 C 359.836 2.17016 -3.68901 0
M  V30 3449 C 359.162 3.53278 -4.01371 0
M  V30 3450 C 360.462 1.57219 -4.98076 0
M  V30 3451 H 362.156 0.632195 -2.92649 0
M  V30 3452 H 359.702 0.302654 -1.40784 0
M  V30 3453 H 361.655 3.06882 -2.88793 0
M  V30 3454 H 360.379 2.80456 -1.67368 0
M  V30 3455 H 359.038 1.48733 -3.35073 0
M  V30 3456 H 358.686 3.95185 -3.11188 0
M  V30 3457 H 358.386 3.41299 -4.78318 0
M  V30 3458 H 359.91 4.25391 -4.38035 0
M  V30 3459 H 361.324 2.17832 -5.30304 0
M  V30 3460 H 359.721 1.55871 -5.79503 0
M  V30 3461 H 360.791 0.535956 -4.81929 0
M  V30 3462 N 362.134 1.5431 0.320358 0
M  V30 3463 C 363.374 1.74395 1.0661 0
M  V30 3464 C 363.738 0.508602 1.85141 0
M  V30 3465 O 364.939 0.586856 2.62316 0
M  V30 3466 C 363.21 2.98619 1.96371 0
M  V30 3467 S 364.769 3.39621 2.77854 0
M  V30 3468 H 361.587 0.613204 0.359863 0
M  V30 3469 H 364.189 1.9249 0.341727 0
M  V30 3470 H 362.893 3.86673 1.3752 0
M  V30 3471 H 362.424 2.83055 2.73209 0
M  V30 3472 H 364.439 2.95172 3.98858 0
M  V30 3473 N 363.613 -0.582584 1.46437 0
M  V30 3474 C 364.86 -1.34079 1.51753 0
M  V30 3475 C 365.188 -1.93762 0.169299 0
M  V30 3476 O 364.443 -1.76989 -0.835062 0
M  V30 3477 C 364.742 -2.48964 2.56421 0
M  V30 3478 C 364.408 -2.07273 4.00436 0
M  V30 3479 C 363.07 -1.95618 4.39644 0
M  V30 3480 C 365.422 -1.75111 4.90903 0
M  V30 3481 C 362.75 -1.5006 5.67185 0
M  V30 3482 C 365.102 -1.31032 6.18881 0
M  V30 3483 C 363.766 -1.17954 6.56996 0
M  V30 3484 H 363.036 -0.49063 0.555304 0
M  V30 3485 H 365.683 -0.656007 1.79913 0
M  V30 3486 H 363.988 -3.22889 2.21923 0
M  V30 3487 H 365.685 -3.07178 2.57765 0
M  V30 3488 H 362.275 -2.17279 3.69443 0
M  V30 3489 H 366.459 -1.83001 4.61329 0
M  V30 3490 H 361.715 -1.38577 5.95488 0
M  V30 3491 H 365.889 -1.052 6.88408 0
M  V30 3492 H 363.516 -0.824279 7.55718 0
M  V30 3493 N 365.091 -1.34144 -0.827227 0
M  V30 3494 C 366.023 -1.21206 -1.9453 0
M  V30 3495 C 367.036 -0.140176 -1.62195 0
M  V30 3496 O 368.225 -0.391647 -1.7415 0
M  V30 3497 C 365.325 -0.839141 -3.28347 0
M  V30 3498 C 364.498 -2.0051 -3.88734 0
M  V30 3499 C 363.557 -1.61128 -5.00923 0
M  V30 3500 O 362.583 -2.32726 -5.19449 0
M  V30 3501 N 363.785 -0.522958 -5.7814 0
M  V30 3502 H 366.55 -2.17525 -2.06162 0
M  V30 3503 H 364.111 -1.27043 -1.00358 0
M  V30 3504 H 366.103 -0.557556 -4.00841 0
M  V30 3505 H 364.673 0.0337293 -3.12582 0
M  V30 3506 H 363.893 -2.45166 -3.08686 0
M  V30 3507 H 365.181 -2.78498 -4.25812 0
M  V30 3508 H 364.579 0.0723518 -5.65654 0
M  V30 3509 H 363.136 -0.301089 -6.51104 0
M  V30 3510 N 366.569 1.04691 -1.17803 0
M  V30 3511 C 367.846 1.7472 -0.879328 0
M  V30 3512 C 368.226 2.01812 0.619271 0
M  V30 3513 O 367.574 1.65824 1.57209 0
M  V30 3514 C 367.784 3.03686 -1.71976 0
M  V30 3515 C 369.132 3.77542 -1.94286 0
M  V30 3516 O 370.156 3.13569 -1.68976 0
M  V30 3517 O 369.015 4.92506 -2.36855 0
M  V30 3518 H 366.109 0.760011 -0.326056 0
M  V30 3519 H 368.655 1.10813 -1.28525 0
M  V30 3520 H 367.427 2.79754 -2.73594 0
M  V30 3521 H 367.05 3.75332 -1.31194 0
M  V30 3522 N 368.047 0.979072 1.23499 0
M  V30 3523 C 369.01 0.523244 2.23147 0
M  V30 3524 C 370.01 -0.386406 1.56088 0
M  V30 3525 O 371.2 -0.180283 1.73265 0
M  V30 3526 C 368.332 -0.240739 3.40049 0
M  V30 3527 H 369.525 1.40432 2.64989 0
M  V30 3528 H 367.078 0.764824 1.36309 0
M  V30 3529 H 367.813 -1.13841 3.03662 0
M  V30 3530 H 367.598 0.412207 3.89927 0
M  V30 3531 H 369.088 -0.548297 4.13985 0
M  V30 3532 N 369.525 -1.3858 0.750561 0
M  V30 3533 C 370.773 -1.99789 0.30477 0
M  V30 3534 C 371.094 -1.59874 -1.11649 0
M  V30 3535 O 370.364 -0.85417 -1.76297 0
M  V30 3536 H 368.944 -0.738902 0.109694 0
M  V30 3537 H 371.606 -1.69391 0.963983 0
M  V30 3538 H 370.702 -3.09952 0.365499 0
M  V30 3539 N 371.003 -0.499398 -1.49478 0
M  V30 3540 C 372.251 0.0455996 -2.02049 0
M  V30 3541 C 372.572 1.37633 -1.38138 0
M  V30 3542 O 371.842 1.8842 -0.536166 0
M  V30 3543 H 370.422 0.0198416 -0.746736 0
M  V30 3544 H 373.084 -0.656274 -1.83519 0
M  V30 3545 H 372.18 0.176445 -3.11601 0
M  V30 3546 N 372.481 1.55866 -0.233164 0
M  V30 3547 C 373.729 1.9821 0.394593 0
M  V30 3548 C 374.05 1.12234 1.59463 0
M  V30 3549 O 373.32 0.201981 1.94856 0
M  V30 3550 H 371.9 0.732034 0.148778 0
M  V30 3551 H 374.562 1.92107 -0.32876 0
M  V30 3552 H 373.658 3.03845 0.713063 0
M  V30 3553 N 373.959 -0.0401083 1.57549 0
M  V30 3554 C 374.922 -1.02871 2.04817 0
M  V30 3555 C 375.922 -1.29708 0.950388 0
M  V30 3556 O 377.112 -1.24897 1.21435 0
M  V30 3557 C 374.244 -2.36443 2.45576 0
M  V30 3558 H 375.437 -0.620631 2.93408 0
M  V30 3559 H 372.99 -0.286667 1.53649 0
M  V30 3560 H 373.725 -2.82021 1.60108 0
M  V30 3561 H 373.51 -2.18296 3.25713 0
M  V30 3562 H 375 -3.07441 2.82612 0
M  V30 3563 N 375.437 -1.54477 -0.31217 0
M  V30 3564 C 376.685 -1.72884 -1.04668 0
M  V30 3565 C 377.006 -0.511477 -1.88173 0
M  V30 3566 O 376.276 0.474407 -1.90069 0
M  V30 3567 H 374.856 -0.637461 -0.389425 0
M  V30 3568 H 377.518 -1.91807 -0.345852 0
M  V30 3569 H 376.614 -2.61334 -1.70619 0
M  V30 3570 N 376.915 0.57481 -1.46744 0
M  V30 3571 C 378.163 1.33009 -1.52161 0
M  V30 3572 C 378.484 1.94185 -0.178092 0
M  V30 3573 O 377.754 1.7899 0.796196 0
M  V30 3574 H 376.334 0.493873 -0.560445 0
M  V30 3575 H 378.996 0.672589 -1.82927 0
M  V30 3576 H 378.092 2.13273 -2.27862 0
M  V30 3577 N 378.394 1.34581 0.820102 0
M  V30 3578 C 379.805 1.24298 1.39309 0
M  V30 3579 C 380.156 -0.130351 1.95767 0
M  V30 3580 O 379.281 -1.0308 1.90272 0
M  V30 3581 C 379.876 2.25054 2.53251 0
M  V30 3582 C 378.435 2.18552 3.0645 0
M  V30 3583 C 377.582 2.11503 1.79337 0
M  V30 3584 H 380.533 1.45906 0.624262 0
M  V30 3585 H 380.554 1.86917 3.31425 0
M  V30 3586 H 380.066 3.24996 2.1213 0
M  V30 3587 H 378.167 1.21976 3.52069 0
M  V30 3588 H 378.28 3.0993 3.65349 0
M  V30 3589 H 376.644 1.57268 2.00347 0
M  V30 3590 H 377.427 3.13284 1.40386 0
M  V30 3591 N 379.872 -1.04064 1.18357 0
M  V30 3592 C 381.283 -1.58719 0.98312 0
M  V30 3593 C 381.634 -1.90556 -0.467193 0
M  V30 3594 O 380.759 -1.69561 -1.34454 0
M  V30 3595 C 381.354 -2.88379 1.77828 0
M  V30 3596 C 379.913 -3.3965 1.62218 0
M  V30 3597 C 379.06 -2.13235 1.77274 0
M  V30 3598 H 382.011 -0.867359 1.32901 0
M  V30 3599 H 382.032 -3.58773 1.26737 0
M  V30 3600 H 381.544 -2.65176 2.83379 0
M  V30 3601 H 379.645 -3.67866 0.592036 0
M  V30 3602 H 379.758 -4.13475 2.42023 0
M  V30 3603 H 378.122 -2.24542 1.20221 0
M  V30 3604 H 378.905 -1.92487 2.8426 0
M  V30 3605 N 381.35 -0.985608 -1.22978 0
M  V30 3606 C 382.598 -0.656087 -1.91154 0
M  V30 3607 C 382.919 0.813561 -1.77218 0
M  V30 3608 O 382.189 1.58244 -1.1548 0
M  V30 3609 H 380.769 -0.239674 -0.707506 0
M  V30 3610 H 383.431 -1.25054 -1.49491 0
M  V30 3611 H 382.527 -0.912253 -2.9847 0
M  V30 3612 N 382.828 1.3818 -0.7579 0
M  V30 3613 C 384.076 1.99624 -0.315361 0
M  V30 3614 C 384.397 1.60464 1.10799 0
M  V30 3615 O 383.667 0.863507 1.75842 0
M  V30 3616 H 382.247 0.73831 -0.113611 0
M  V30 3617 H 384.909 1.68878 -0.972952 0
M  V30 3618 H 384.005 3.09754 -0.381931 0
M  V30 3619 N 384.306 0.507319 1.49211 0
M  V30 3620 C 385.269 -0.256763 2.27757 0
M  V30 3621 C 386.269 -0.888287 1.34038 0
M  V30 3622 O 387.459 -0.751841 1.5714 0
M  V30 3623 C 384.591 -1.36905 3.12202 0
M  V30 3624 H 385.784 0.432557 2.96764 0
M  V30 3625 H 383.337 0.262488 1.5408 0
M  V30 3626 H 384.072 -2.09233 2.47775 0
M  V30 3627 H 383.857 -0.921599 3.81115 0
M  V30 3628 H 385.347 -1.9071 3.7151 0
M  V30 3629 N 385.784 -1.5574 0.241426 0
M  V30 3630 C 387.032 -1.98417 -0.384075 0
M  V30 3631 C 387.353 -1.13078 -1.58866 0
M  V30 3632 O 386.623 -0.212312 -1.94746 0
M  V30 3633 H 385.203 -0.732813 -0.144894 0
M  V30 3634 H 387.865 -1.9193 0.338943 0
M  V30 3635 H 386.961 -3.04219 -0.696939 0
M  V30 3636 N 387.262 0.0317525 -1.57568 0
M  V30 3637 C 388.51 0.721676 -1.88776 0
M  V30 3638 C 388.831 1.76039 -0.838772 0
M  V30 3639 O 388.101 1.95482 0.127935 0
M  V30 3640 H 386.681 0.269534 -0.696678 0
M  V30 3641 H 389.343 -0.00165879 -1.949 0
M  V30 3642 H 388.439 1.21293 -2.87566 0
M  V30 3643 N 388.74 1.54641 0.303973 0
M  V30 3644 C 389.703 1.84646 1.35789 0
M  V30 3645 C 390.703 0.7192 1.4382 0
M  V30 3646 O 391.893 0.987491 1.43507 0
M  V30 3647 C 389.025 2.02407 2.74307 0
M  V30 3648 H 390.218 2.78829 1.10429 0
M  V30 3649 H 387.771 1.46658 0.540487 0
M  V30 3650 H 388.506 1.10502 3.04893 0
M  V30 3651 H 388.291 2.84453 2.69868 0
M  V30 3652 H 389.781 2.27002 3.50514 0
M  V30 3653 N 390.218 -0.567019 1.47046 0
M  V30 3654 C 391.466 -1.322 1.52864 0
M  V30 3655 C 391.787 -1.94088 0.188388 0
M  V30 3656 O 391.057 -1.7941 -0.786693 0
M  V30 3657 H 389.637 -0.490894 0.563056 0
M  V30 3658 H 392.299 -0.662879 1.83281 0
M  V30 3659 H 391.395 -2.12062 2.2899 0
M  V30 3660 N 391.696 -1.35014 -0.812953 0
M  V30 3661 C 392.944 -1.27678 -1.56661 0
M  V30 3662 C 393.265 0.150359 -1.94419 0
M  V30 3663 O 392.535 1.08532 -1.63088 0
M  V30 3664 H 391.115 -0.469602 -0.580933 0
M  V30 3665 H 393.777 -1.69043 -0.970076 0
M  V30 3666 H 392.873 -1.88833 -2.48492 0
M  V30 3667 N 393.175 1.03435 -1.18907 0
M  V30 3668 C 394.403 1.80381 -1.01342 0
M  V30 3669 C 394.818 1.83649 0.438005 0
M  V30 3670 O 394.175 1.27655 1.30424 0
M  V30 3671 C 394.226 3.25689 -1.56873 0
M  V30 3672 O 393.947 3.22673 -2.96334 0
M  V30 3673 C 395.448 4.19255 -1.44014 0
M  V30 3674 H 392.668 0.56784 -0.35749 0
M  V30 3675 H 395.212 1.30317 -1.576 0
M  V30 3676 H 393.367 3.72962 -1.04777 0
M  V30 3677 H 393.781 4.13748 -3.22355 0
M  V30 3678 H 395.255 5.19123 -1.87657 0
M  V30 3679 H 395.732 4.37467 -0.389815 0
M  V30 3680 H 396.338 3.77851 -1.95214 0
M  V30 3681 N 394.653 0.992116 1.22453 0
M  V30 3682 C 395.899 0.678177 1.91761 0
M  V30 3683 C 396.254 -0.781141 1.75829 0
M  V30 3684 O 395.547 -1.55747 1.11595 0
M  V30 3685 C 395.741 1.01832 3.42586 0
M  V30 3686 C 395.57 2.50916 3.73191 0
M  V30 3687 C 394.34 3.17308 3.93248 0
M  V30 3688 C 396.538 3.49032 3.77732 0
M  V30 3689 N 394.52 4.55876 4.11157 0
M  V30 3690 C 395.891 4.73055 4.00773 0
M  V30 3691 C 397.946 3.43349 3.60577 0
M  V30 3692 C 396.649 5.92089 4.0844 0
M  V30 3693 C 398.675 4.61759 3.69503 0
M  V30 3694 C 398.037 5.84582 3.92993 0
M  V30 3695 H 394.136 0.299425 0.722405 0
M  V30 3696 H 396.72 1.27197 1.47408 0
M  V30 3697 H 394.891 0.453118 3.85748 0
M  V30 3698 H 396.623 0.660454 3.99274 0
M  V30 3699 H 393.378 2.67778 3.9063 0
M  V30 3700 H 393.802 5.27748 4.24042 0
M  V30 3701 H 398.444 2.49408 3.41402 0
M  V30 3702 H 396.162 6.86435 4.26418 0
M  V30 3703 H 399.748 4.58951 3.57569 0
M  V30 3704 H 398.628 6.74676 3.99728 0
M  V30 3705 N 396.131 -1.37776 0.765217 0
M  V30 3706 C 397.377 -2.00604 0.336066 0
M  V30 3707 C 397.732 -1.59657 -1.07366 0
M  V30 3708 O 397.025 -0.829565 -1.7271 0
M  V30 3709 C 397.219 -3.5504 0.410053 0
M  V30 3710 C 397.048 -4.10985 1.82542 0
M  V30 3711 C 395.818 -4.42229 2.44461 0
M  V30 3712 C 398.016 -4.32438 2.78392 0
M  V30 3713 N 395.998 -4.8385 3.77839 0
M  V30 3714 C 397.369 -4.76596 3.96556 0
M  V30 3715 C 399.424 -4.14559 2.75764 0
M  V30 3716 C 398.127 -5.04748 5.12466 0
M  V30 3717 C 400.153 -4.43843 3.90842 0
M  V30 3718 C 399.515 -4.88235 5.07746 0
M  V30 3719 H 395.614 -0.763325 0.169881 0
M  V30 3720 H 398.198 -1.67197 0.997656 0
M  V30 3721 H 396.369 -3.87769 -0.221325 0
M  V30 3722 H 398.101 -4.0468 -0.0405285 0
M  V30 3723 H 394.856 -4.31079 1.96131 0
M  V30 3724 H 395.28 -5.08979 4.46396 0
M  V30 3725 H 399.922 -3.79415 1.86558 0
M  V30 3726 H 397.64 -5.38783 6.02277 0
M  V30 3727 H 401.226 -4.31603 3.90141 0
M  V30 3728 H 400.106 -5.10461 5.95315 0
M  V30 3729 N 397.609 -0.515225 -1.4894 0
M  V30 3730 C 399.025 -0.172099 -1.58669 0
M  V30 3731 C 399.225 1.32405 -1.51892 0
M  V30 3732 O 398.281 2.10116 -1.40027 0
M  V30 3733 C 399.594 -0.761533 -2.90897 0
M  V30 3734 C 401.142 -0.728926 -3.04394 0
M  V30 3735 C 401.617 -1.29667 -4.39261 0
M  V30 3736 N 403.108 -1.25799 -4.4579 0
M  V30 3737 C 403.843 -1.66733 -5.48623 0
M  V30 3738 N 403.339 -2.15327 -6.58488 0
M  V30 3739 N 405.132 -1.58061 -5.39419 0
M  V30 3740 H 397.283 -1.48778 -1.51588 0
M  V30 3741 H 399.546 -0.617968 -0.718901 0
M  V30 3742 H 399.252 -1.81136 -3.01468 0
M  V30 3743 H 399.126 -0.230106 -3.76497 0
M  V30 3744 H 401.513 0.312098 -2.93445 0
M  V30 3745 H 401.594 -1.29766 -2.20442 0
M  V30 3746 H 401.238 -2.33655 -4.50963 0
M  V30 3747 H 401.168 -0.703752 -5.21876 0
M  V30 3748 H 403.659 -0.902102 -3.66975 0
M  V30 3749 H 403.972 -2.44594 -7.33071 0
M  V30 3750 H 402.317 -2.19311 -6.59491 0
M  V30 3751 H 405.508 -1.19906 -4.52482 0
M  V30 3752 H 405.681 -1.90284 -6.19432 0
M  V30 3753 N 399.087 1.5561 -0.249682 0
M  V30 3754 C 400.503 1.59254 0.105103 0
M  V30 3755 C 400.703 1.26685 1.56694 0
M  V30 3756 O 399.759 1.0155 2.31179 0
M  V30 3757 C 401.072 2.99687 -0.246592 0
M  V30 3758 C 402.62 3.12416 -0.191118 0
M  V30 3759 C 403.095 4.55074 -0.516885 0
M  V30 3760 N 404.586 4.60835 -0.467489 0
M  V30 3761 C 405.321 5.69201 -0.69268 0
M  V30 3762 N 404.817 6.85817 -0.981146 0
M  V30 3763 N 406.61 5.58635 -0.623198 0
M  V30 3764 H 398.761 1.75049 -1.20298 0
M  V30 3765 H 401.024 0.815003 -0.484225 0
M  V30 3766 H 400.73 3.28267 -1.26228 0
M  V30 3767 H 400.604 3.74798 0.424962 0
M  V30 3768 H 402.991 2.83615 0.815247 0
M  V30 3769 H 403.072 2.39573 -0.896563 0
M  V30 3770 H 402.716 4.84596 -1.52082 0
M  V30 3771 H 402.646 5.26181 0.210068 0
M  V30 3772 H 405.137 3.7705 -0.253373 0
M  V30 3773 H 405.45 7.64341 -1.14032 0
M  V30 3774 H 403.795 6.87494 -1.01865 0
M  V30 3775 H 406.986 4.66406 -0.397863 0
M  V30 3776 H 407.159 6.43017 -0.802093 0
M  V30 3777 N 400.565 -0.0233959 1.57583 0
M  V30 3778 C 401.811 -0.708611 1.90657 0
M  V30 3779 C 402.166 -1.7266 0.848895 0
M  V30 3780 O 401.459 -1.91075 -0.141749 0
M  V30 3781 C 401.653 -1.41428 3.28227 0
M  V30 3782 C 401.482 -0.466155 4.47277 0
M  V30 3783 C 400.252 -0.085117 5.05228 0
M  V30 3784 C 402.45 0.257836 5.13653 0
M  V30 3785 N 400.432 0.863672 6.07794 0
M  V30 3786 C 401.803 1.06209 6.10835 0
M  V30 3787 C 403.858 0.324174 4.96844 0
M  V30 3788 C 402.561 1.9266 6.93018 0
M  V30 3789 C 404.587 1.17583 5.79593 0
M  V30 3790 C 403.949 1.96799 6.7635 0
M  V30 3791 H 400.048 -0.233222 0.746412 0
M  V30 3792 H 402.632 0.0314512 1.94675 0
M  V30 3793 H 400.803 -2.12477 3.25128 0
M  V30 3794 H 402.535 -2.05233 3.488 0
M  V30 3795 H 399.29 -0.448516 4.71471 0
M  V30 3796 H 399.714 1.33274 6.63752 0
M  V30 3797 H 404.356 -0.273975 4.21911 0
M  V30 3798 H 402.074 2.53552 7.67292 0
M  V30 3799 H 405.66 1.23076 5.68633 0
M  V30 3800 H 404.54 2.61635 7.39268 0
M  V30 3801 N 402.043 -1.548 -0.295768 0
M  V30 3802 C 402.975 -1.82492 -1.3867 0
M  V30 3803 C 403.988 -0.708134 -1.46592 0
M  V30 3804 O 405.177 -0.985686 -1.48817 0
M  V30 3805 C 402.277 -1.95256 -2.76999 0
M  V30 3806 C 401.45 -3.25709 -2.91946 0
M  V30 3807 C 400.509 -3.28824 -4.10806 0
M  V30 3808 O 399.535 -4.02328 -4.02643 0
M  V30 3809 N 400.737 -2.5459 -5.21694 0
M  V30 3810 H 403.502 -2.76646 -1.15269 0
M  V30 3811 H 401.063 -1.54438 -0.485849 0
M  V30 3812 H 403.055 -1.94736 -3.54768 0
M  V30 3813 H 401.625 -1.08072 -2.93324 0
M  V30 3814 H 400.845 -3.38959 -2.01247 0
M  V30 3815 H 402.133 -4.11786 -2.98847 0
M  V30 3816 H 401.531 -1.94512 -5.31208 0
M  V30 3817 H 400.088 -2.59818 -5.97778 0
M  V30 3818 N 403.521 0.559213 -1.47345 0
M  V30 3819 C 404.932 1.14134 -1.47751 0
M  V30 3820 C 405.283 1.94834 -0.231103 0
M  V30 3821 O 404.408 2.05957 0.664137 0
M  V30 3822 C 405.003 2.07653 -2.67705 0
M  V30 3823 C 403.562 2.61141 -2.71076 0
M  V30 3824 C 402.709 1.3748 -2.40821 0
M  V30 3825 H 405.66 0.345917 -1.54884 0
M  V30 3826 H 405.681 2.91497 -2.44561 0
M  V30 3827 H 405.193 1.4889 -3.58404 0
M  V30 3828 H 403.294 3.23707 -1.84511 0
M  V30 3829 H 403.407 3.02272 -3.7171 0
M  V30 3830 H 401.771 1.68086 -1.91362 0
M  V30 3831 H 402.554 0.805135 -3.33725 0
M  V30 3832 N 404.999 1.35443 0.805782 0
M  V30 3833 C 406.415 1.15499 1.10146 0
M  V30 3834 C 406.615 -0.0319975 2.01475 0
M  V30 3835 O 405.671 -0.70236 2.42535 0
M  V30 3836 C 406.984 2.45833 1.73166 0
M  V30 3837 C 408.532 2.52047 1.85583 0
M  V30 3838 C 409.007 3.82427 2.52019 0
M  V30 3839 N 410.498 3.83682 2.59504 0
M  V30 3840 C 411.233 4.81294 3.11679 0
M  V30 3841 N 410.729 5.89294 3.64287 0
M  V30 3842 N 412.522 4.6873 3.1024 0
M  V30 3843 H 404.673 2.11469 0.198678 0
M  V30 3844 H 406.936 0.93594 0.150731 0
M  V30 3845 H 406.642 3.32874 1.13526 0
M  V30 3846 H 406.516 2.6044 2.72857 0
M  V30 3847 H 408.903 1.65435 2.44367 0
M  V30 3848 H 408.984 2.41354 0.847455 0
M  V30 3849 H 408.628 4.69437 1.93885 0
M  V30 3850 H 408.558 3.90409 3.53395 0
M  V30 3851 H 411.049 3.05648 2.22234 0
M  V30 3852 H 411.362 6.59768 4.02401 0
M  V30 3853 H 409.707 5.92985 3.62483 0
M  V30 3854 H 412.898 3.83496 2.68419 0
M  V30 3855 H 413.071 5.44965 3.50596 0
M  V30 3856 N 406.477 -1.02803 1.19454 0
M  V30 3857 C 407.723 -1.76478 0.999171 0
M  V30 3858 C 408.056 -1.88456 -0.468828 0
M  V30 3859 O 407.331 -1.40198 -1.34814 0
M  V30 3860 C 407.614 -3.19044 1.66981 0
M  V30 3861 C 407.467 -3.14932 3.21151 0
M  V30 3862 C 408.786 -4.17456 1.39349 0
M  V30 3863 H 405.905 -0.640614 0.364393 0
M  V30 3864 H 408.547 -1.20005 1.47305 0
M  V30 3865 H 406.697 -3.67263 1.2669 0
M  V30 3866 H 408.369 -2.74605 3.70661 0
M  V30 3867 H 406.612 -2.52625 3.52652 0
M  V30 3868 H 407.283 -4.1566 3.63223 0
M  V30 3869 H 409.759 -3.77842 1.74283 0
M  V30 3870 H 408.635 -5.154 1.88823 0
M  V30 3871 H 408.896 -4.40949 0.318813 0
M  V30 3872 N 407.956 -0.998596 -1.21925 0
M  V30 3873 C 409.202 -0.688337 -1.91399 0
M  V30 3874 C 409.557 0.771805 -1.76241 0
M  V30 3875 O 408.85 1.55153 -1.1242 0
M  V30 3876 C 409.044 -1.03648 -3.42041 0
M  V30 3877 C 408.873 -2.52892 -3.71855 0
M  V30 3878 C 407.643 -3.19389 -3.91559 0
M  V30 3879 C 409.841 -3.5103 -3.75875 0
M  V30 3880 N 407.823 -4.5805 -4.08734 0
M  V30 3881 C 409.194 -4.75174 -3.98259 0
M  V30 3882 C 411.249 -3.45257 -3.58751 0
M  V30 3883 C 409.952 -5.94247 -4.05294 0
M  V30 3884 C 411.978 -4.63712 -3.67049 0
M  V30 3885 C 411.34 -5.86658 -3.89887 0
M  V30 3886 H 407.439 -0.303251 -0.720807 0
M  V30 3887 H 410.023 -1.27977 -1.46731 0
M  V30 3888 H 408.194 -0.473569 -3.85502 0
M  V30 3889 H 409.926 -0.681619 -3.98919 0
M  V30 3890 H 406.681 -2.69846 -3.89205 0
M  V30 3891 H 407.105 -5.29989 -4.21237 0
M  V30 3892 H 411.747 -2.51215 -3.40075 0
M  V30 3893 H 409.465 -6.88687 -4.22772 0
M  V30 3894 H 413.051 -4.6084 -3.5513 0
M  V30 3895 H 411.931 -6.76786 -3.96144 0
M  V30 3896 N 409.434 1.37368 -0.772513 0
M  V30 3897 C 410.397 2.28601 -0.165541 0
M  V30 3898 C 411.397 1.48062 0.627238 0
M  V30 3899 O 412.587 1.68268 0.450715 0
M  V30 3900 C 409.719 3.32023 0.772897 0
M  V30 3901 H 410.912 2.83787 -0.969787 0
M  V30 3902 H 408.465 1.46647 -0.540775 0
M  V30 3903 H 409.2 2.81962 1.60212 0
M  V30 3904 H 408.985 3.91555 0.206585 0
M  V30 3905 H 410.475 4.00197 1.19298 0
M  V30 3906 N 410.912 0.523116 1.48665 0
M  V30 3907 C 411.842 -0.23231 2.32342 0
M  V30 3908 C 412.823 -0.941637 1.41659 0
M  V30 3909 O 414.008 -0.928751 1.70552 0
M  V30 3910 C 411.138 -1.28387 3.22698 0
M  V30 3911 C 410.092 -0.693098 4.22351 0
M  V30 3912 C 409.418 -1.8468 5.01794 0
M  V30 3913 C 410.718 0.33063 5.21252 0
M  V30 3914 H 412.412 0.466192 2.95748 0
M  V30 3915 H 409.958 0.225643 1.42221 0
M  V30 3916 H 411.911 -1.82024 3.80059 0
M  V30 3917 H 410.635 -2.01186 2.57278 0
M  V30 3918 H 409.294 -0.178299 3.66166 0
M  V30 3919 H 408.942 -2.56301 4.32804 0
M  V30 3920 H 408.642 -1.45747 5.69238 0
M  V30 3921 H 410.166 -2.38709 5.62006 0
M  V30 3922 H 411.58 -0.118407 5.73178 0
M  V30 3923 H 409.977 0.636974 5.9671 0
M  V30 3924 H 411.047 1.23883 4.68808 0
M  V30 3925 N 412.39 -1.55475 0.257931 0
M  V30 3926 C 413.637 -1.99207 -0.363728 0
M  V30 3927 C 413.965 -1.1462 -1.57139 0
M  V30 3928 O 413.22 -0.199653 -1.94679 0
M  V30 3929 C 413.519 -3.48183 -0.806433 0
M  V30 3930 C 413.185 -4.49936 0.294684 0
M  V30 3931 C 411.847 -4.77481 0.597076 0
M  V30 3932 C 414.199 -5.10769 1.03751 0
M  V30 3933 C 411.527 -5.63132 1.64618 0
M  V30 3934 C 413.879 -5.97558 2.07622 0
M  V30 3935 C 412.543 -6.23432 2.38514 0
M  V30 3936 H 411.813 -0.728949 -0.133097 0
M  V30 3937 H 414.46 -1.8793 0.368059 0
M  V30 3938 H 412.765 -3.56848 -1.61761 0
M  V30 3939 H 414.462 -3.79415 -1.29789 0
M  V30 3940 H 411.052 -4.28572 0.0488649 0
M  V30 3941 H 415.236 -4.89527 0.817149 0
M  V30 3942 H 410.492 -5.8143 1.89074 0
M  V30 3943 H 414.666 -6.43735 2.65666 0
M  V30 3944 H 412.293 -6.89594 3.19943 0
M  V30 3945 N 413.868 0.0150385 -1.57593 0
M  V30 3946 C 414.778 1.02791 -2.10882 0
M  V30 3947 C 415.794 1.38702 -1.0506 0
M  V30 3948 O 416.97 1.47739 -1.36877 0
M  V30 3949 C 414.035 2.30568 -2.58919 0
M  V30 3950 C 413.096 2.01108 -3.79281 0
M  V30 3951 C 412.329 3.22794 -4.25018 0
M  V30 3952 O 412.552 4.33959 -3.70183 0
M  V30 3953 O 411.486 3.07672 -5.17322 0
M  V30 3954 H 415.312 0.604973 -2.97613 0
M  V30 3955 H 412.897 0.23292 -1.47573 0
M  V30 3956 H 414.779 3.05662 -2.90084 0
M  V30 3957 H 413.454 2.72129 -1.75293 0
M  V30 3958 H 412.361 1.23537 -3.53114 0
M  V30 3959 H 413.694 1.64394 -4.63935 0
M  V30 3960 N 415.346 1.54954 0.287554 0
M  V30 3961 C 416.623 1.65569 1.04146 0
M  V30 3962 C 417.003 0.512672 2.0478 0
M  V30 3963 O 416.351 -0.489038 2.23205 0
M  V30 3964 C 416.561 3.04163 1.71131 0
M  V30 3965 C 417.909 3.61429 2.22832 0
M  V30 3966 O 418.933 3.06702 1.81141 0
M  V30 3967 O 417.792 4.57281 2.9926 0
M  V30 3968 H 414.886 0.671881 0.482188 0
M  V30 3969 H 417.432 1.67297 0.28457 0
M  V30 3970 H 416.204 3.78796 0.981303 0
M  V30 3971 H 415.827 3.06271 2.53543 0
M  V30 3972 N 416.824 -0.551391 1.4764 0
M  V30 3973 C 418.235 -1.13349 1.48354 0
M  V30 3974 C 418.586 -1.94709 0.241432 0
M  V30 3975 O 417.711 -2.06306 -0.653205 0
M  V30 3976 C 418.306 -2.0623 2.68802 0
M  V30 3977 C 416.865 -2.597 2.72457 0
M  V30 3978 C 416.012 -1.36201 2.41546 0
M  V30 3979 H 418.963 -0.337698 1.55065 0
M  V30 3980 H 418.984 -2.90196 2.46103 0
M  V30 3981 H 418.496 -1.46987 3.59188 0
M  V30 3982 H 416.597 -3.22724 1.86225 0
M  V30 3983 H 416.71 -3.00296 3.73308 0
M  V30 3984 H 415.074 -1.67068 1.9225 0
M  V30 3985 H 415.857 -0.787425 3.34147 0
M  V30 3986 N 418.302 -1.35869 -0.798587 0
M  V30 3987 C 419.532 -1.32529 -1.58491 0
M  V30 3988 C 419.94 0.0975405 -1.88948 0
M  V30 3989 O 419.283 1.06224 -1.49874 0
M  V30 3990 C 419.345 -2.07247 -2.9375 0
M  V30 3991 C 419.009 -3.56391 -2.86068 0
M  V30 3992 C 420.006 -4.50824 -2.58947 0
M  V30 3993 C 417.691 -3.9915 -3.04933 0
M  V30 3994 C 419.685 -5.85993 -2.5078 0
M  V30 3995 C 417.372 -5.34413 -2.96389 0
M  V30 3996 C 418.37 -6.27646 -2.69349 0
M  V30 3997 O 418.058 -7.60426 -2.60782 0
M  V30 3998 H 417.79 -0.456529 -0.498556 0
M  V30 3999 H 420.344 -1.79425 -0.999799 0
M  V30 4000 H 418.574 -1.55001 -3.54276 0
M  V30 4001 H 420.263 -1.96883 -3.54954 0
M  V30 4002 H 421.029 -4.19104 -2.44084 0
M  V30 4003 H 416.908 -3.26961 -3.24989 0
M  V30 4004 H 420.452 -6.58735 -2.29595 0
M  V30 4005 H 416.349 -5.65743 -3.10813 0
M  V30 4006 H 417.117 -7.70444 -2.76331 0
M  V30 4007 N 419.78 1.02168 -1.19998 0
M  V30 4008 C 421.005 1.79833 -1.03319 0
M  V30 4009 C 421.43 1.83504 0.413281 0
M  V30 4010 O 420.788 1.26635 1.29743 0
M  V30 4011 C 420.836 3.22396 -1.61533 0
M  V30 4012 O 419.94 4.03555 -0.849519 0
M  V30 4013 H 419.281 0.554872 -0.364709 0
M  V30 4014 H 421.811 1.28542 -1.59179 0
M  V30 4015 H 421.821 3.73124 -1.65054 0
M  V30 4016 H 420.496 3.19039 -2.66809 0
M  V30 4017 H 419.073 3.62169 -0.888129 0
M  V30 4018 N 421.258 1.00505 1.21394 0
M  V30 4019 C 422.483 0.706367 1.95001 0
M  V30 4020 C 422.908 -0.72463 1.73582 0
M  V30 4021 O 422.266 -1.49702 1.0227 0
M  V30 4022 C 422.314 1.03299 3.45487 0
M  V30 4023 O 421.418 0.138275 4.12168 0
M  V30 4024 H 420.759 0.263175 0.609619 0
M  V30 4025 H 423.289 1.34531 1.54151 0
M  V30 4026 H 423.299 0.979872 3.96059 0
M  V30 4027 H 421.974 2.07567 3.60401 0
M  V30 4028 H 420.551 0.247928 3.72075 0
M  V30 4029 N 422.737 -1.36956 0.779787 0
M  V30 4030 C 424.153 -1.52817 0.460342 0
M  V30 4031 C 424.353 -1.7361 -1.02283 0
M  V30 4032 O 423.409 -1.76207 -1.80852 0
M  V30 4033 C 424.722 -2.71983 1.28241 0
M  V30 4034 C 426.27 -2.85849 1.27512 0
M  V30 4035 C 426.745 -4.08008 2.08072 0
M  V30 4036 N 428.236 -4.15135 2.05467 0
M  V30 4037 C 428.971 -5.08711 2.64577 0
M  V30 4038 N 428.467 -6.07792 3.32506 0
M  V30 4039 N 430.26 -5.01254 2.54363 0
M  V30 4040 H 422.411 -1.21713 1.74068 0
M  V30 4041 H 424.674 -0.593294 0.739396 0
M  V30 4042 H 424.38 -2.63109 2.33381 0
M  V30 4043 H 424.254 -3.65882 0.917088 0
M  V30 4044 H 426.641 -2.94189 0.231686 0
M  V30 4045 H 426.722 -1.92886 1.68014 0
M  V30 4046 H 426.366 -4.00429 3.12441 0
M  V30 4047 H 426.296 -5.001 1.64947 0
M  V30 4048 H 428.787 -3.44189 1.5602 0
M  V30 4049 H 429.1 -6.75739 3.74963 0
M  V30 4050 H 427.445 -6.08047 3.36606 0
M  V30 4051 H 430.636 -4.22795 2.00902 0
M  V30 4052 H 430.809 -5.73995 3.00722 0
M  V30 4053 N 424.215 -0.530993 -1.48385 0
M  V30 4054 C 425.178 0.220497 -2.28137 0
M  V30 4055 C 426.178 0.866851 -1.35434 0
M  V30 4056 O 427.368 0.726746 -1.58316 0
M  V30 4057 C 424.5 1.31921 -3.1434 0
M  V30 4058 H 425.693 -0.479714 -2.96038 0
M  V30 4059 H 423.246 -0.286968 -1.53643 0
M  V30 4060 H 423.981 2.05264 -2.51072 0
M  V30 4061 H 423.766 0.86085 -3.82533 0
M  V30 4062 H 425.256 1.84776 -3.74497 0
M  V30 4063 N 425.693 1.55336 -0.266172 0
M  V30 4064 C 426.656 2.20878 0.612001 0
M  V30 4065 C 427.656 1.18388 1.08816 0
M  V30 4066 O 428.846 1.4335 0.989774 0
M  V30 4067 C 425.978 2.86765 1.84332 0
M  V30 4068 H 427.171 2.99873 0.0398718 0
M  V30 4069 H 424.724 1.56291 -0.0167309 0
M  V30 4070 H 425.459 2.11759 2.45619 0
M  V30 4071 H 425.244 3.61862 1.5099 0
M  V30 4072 H 426.734 3.36867 2.46801 0
M  V30 4073 N 427.171 -0.0066808 1.57599 0
M  V30 4074 C 428.587 -0.36267 1.55425 0
M  V30 4075 C 428.787 -1.75209 0.995187 0
M  V30 4076 O 427.843 -2.44616 0.626058 0
M  V30 4077 C 429.156 -0.244017 2.99708 0
M  V30 4078 C 430.704 -0.319451 3.11366 0
M  V30 4079 C 431.179 -0.229998 4.57422 0
M  V30 4080 N 432.67 -0.288105 4.62303 0
M  V30 4081 C 433.405 -0.242127 5.72889 0
M  V30 4082 N 432.901 -0.147133 6.92644 0
M  V30 4083 N 434.694 -0.293502 5.61333 0
M  V30 4084 H 426.845 0.902314 1.92281 0
M  V30 4085 H 429.108 0.34525 0.882896 0
M  V30 4086 H 428.814 0.711678 3.44424 0
M  V30 4087 H 428.688 -1.02877 3.629 0
M  V30 4088 H 431.075 -1.26559 2.66584 0
M  V30 4089 H 431.156 0.495055 2.50964 0
M  V30 4090 H 430.8 0.712566 5.02877 0
M  V30 4091 H 430.73 -1.0629 5.15761 0
M  V30 4092 H 433.221 -0.363126 3.76151 0
M  V30 4093 H 433.534 -0.117763 7.7271 0
M  V30 4094 H 431.879 -0.112857 6.94908 0
M  V30 4095 H 435.07 -0.365864 4.66668 0
M  V30 4096 H 435.243 -0.254204 6.47501 0
M  V30 4097 N 428.649 -1.55105 -0.279332 0
M  V30 4098 C 429.879 -1.7917 -1.02867 0
M  V30 4099 C 430.287 -0.56204 -1.80659 0
M  V30 4100 O 429.63 0.478266 -1.77365 0
M  V30 4101 C 429.692 -2.96061 -2.03932 0
M  V30 4102 C 429.356 -4.33341 -1.45137 0
M  V30 4103 C 430.353 -5.12565 -0.870266 0
M  V30 4104 C 428.038 -4.79987 -1.48048 0
M  V30 4105 C 430.032 -6.36565 -0.326097 0
M  V30 4106 C 427.719 -6.03944 -0.932443 0
M  V30 4107 C 428.717 -6.8207 -0.356247 0
M  V30 4108 O 428.405 -8.03691 0.183412 0
M  V30 4109 H 428.137 -0.600796 -0.309872 0
M  V30 4110 H 430.691 -2.02932 -0.317468 0
M  V30 4111 H 428.921 -2.67975 -2.78794 0
M  V30 4112 H 430.61 -3.07506 -2.64943 0
M  V30 4113 H 431.376 -4.77661 -0.840521 0
M  V30 4114 H 427.255 -4.1919 -1.91835 0
M  V30 4115 H 430.799 -6.97489 0.124286 0
M  V30 4116 H 426.696 -6.3833 -0.959407 0
M  V30 4117 H 427.464 -8.18468 0.0721681 0
M  V30 4118 N 430.127 0.543554 -1.4793 0
M  V30 4119 C 431.373 1.30201 -1.55485 0
M  V30 4120 C 431.706 1.92925 -0.222201 0
M  V30 4121 O 430.981 1.78586 0.77053 0
M  V30 4122 C 431.264 2.40174 -2.68307 0
M  V30 4123 C 431.117 1.8223 -4.11233 0
M  V30 4124 C 432.436 3.42024 -2.76961 0
M  V30 4125 H 429.555 0.472036 -0.565996 0
M  V30 4126 H 432.197 0.606914 -1.80046 0
M  V30 4127 H 430.347 2.99463 -2.47495 0
M  V30 4128 H 432.019 1.27096 -4.43446 0
M  V30 4129 H 430.262 1.12832 -4.18869 0
M  V30 4130 H 430.933 2.61793 -4.85972 0
M  V30 4131 H 433.409 2.92672 -2.95774 0
M  V30 4132 H 432.285 4.16383 -3.57654 0
M  V30 4133 H 432.546 4.0173 -1.84568 0
M  V30 4134 N 431.605 1.3629 0.791371 0
M  V30 4135 C 432.568 1.30309 1.88553 0
M  V30 4136 C 433.568 0.211204 1.59407 0
M  V30 4137 O 434.758 0.465865 1.67855 0
M  V30 4138 C 431.89 1.01956 3.25297 0
M  V30 4139 H 433.083 2.27614 1.95273 0
M  V30 4140 H 430.636 1.21035 0.988953 0
M  V30 4141 H 431.371 0.050998 3.2426 0
M  V30 4142 H 431.156 1.80968 3.4784 0
M  V30 4143 H 432.646 1.0037 4.05359 0
M  V30 4144 N 433.083 -1.0153 1.20538 0
M  V30 4145 C 434.33 -1.75149 1.01633 0
M  V30 4146 C 434.658 -1.89189 -0.451399 0
M  V30 4147 O 433.913 -1.41551 -1.35136 0
M  V30 4148 C 434.212 -3.17213 1.64654 0
M  V30 4149 C 433.878 -3.23146 3.14464 0
M  V30 4150 C 432.54 -3.24472 3.55347 0
M  V30 4151 C 434.892 -3.21207 4.10458 0
M  V30 4152 C 432.22 -3.21532 4.90748 0
M  V30 4153 C 434.572 -3.19808 5.45807 0
M  V30 4154 C 433.236 -3.19439 5.86102 0
M  V30 4155 H 432.506 -0.640914 0.3719 0
M  V30 4156 H 435.153 -1.19071 1.49981 0
M  V30 4157 H 433.458 -3.76457 1.08571 0
M  V30 4158 H 435.155 -3.72871 1.4754 0
M  V30 4159 H 431.745 -3.2285 2.81897 0
M  V30 4160 H 435.929 -3.19351 3.79906 0
M  V30 4161 H 431.185 -3.19578 5.21229 0
M  V30 4162 H 435.359 -3.1726 6.19935 0
M  V30 4163 H 432.986 -3.16915 6.90991 0
M  V30 4164 N 434.561 -1.01147 -1.20859 0
M  V30 4165 C 435.524 -0.582224 -2.21682 0
M  V30 4166 C 436.524 0.344887 -1.57058 0
M  V30 4167 O 437.714 0.134281 -1.73682 0
M  V30 4168 C 434.846 0.150496 -3.40568 0
M  V30 4169 H 436.039 -1.47408 -2.61172 0
M  V30 4170 H 433.592 -0.800695 -1.34233 0
M  V30 4171 H 434.327 1.0575 -3.06574 0
M  V30 4172 H 434.112 -0.515444 -3.88697 0
M  V30 4173 H 435.602 0.438344 -4.15293 0
M  V30 4174 N 436.039 1.36541 -0.78704 0
M  V30 4175 C 437.264 2.0409 -0.369053 0
M  V30 4176 C 437.689 1.58957 1.00569 0
M  V30 4177 O 437.047 0.756926 1.64743 0
M  V30 4178 C 437.095 3.57924 -0.438466 0
M  V30 4179 O 436.199 4.08642 0.555479 0
M  V30 4180 H 435.54 0.645142 -0.157122 0
M  V30 4181 H 438.07 1.74545 -1.06749 0
M  V30 4182 H 438.08 4.06887 -0.301218 0
M  V30 4183 H 436.755 3.90127 -1.44132 0
M  V30 4184 H 435.332 3.70958 0.380088 0
M  V30 4185 N 437.518 0.538854 1.48102 0
M  V30 4186 C 438.448 -0.207654 2.32575 0
M  V30 4187 C 439.429 -0.926559 1.4265 0
M  V30 4188 O 440.614 -0.91061 1.71527 0
M  V30 4189 C 437.744 -1.24957 3.24042 0
M  V30 4190 C 436.698 -0.648263 4.23062 0
M  V30 4191 C 436.024 -1.79348 5.03725 0
M  V30 4192 C 437.324 0.385897 5.20872 0
M  V30 4193 H 439.018 0.497534 2.95237 0
M  V30 4194 H 436.564 0.240715 1.41974 0
M  V30 4195 H 438.517 -1.77983 3.81969 0
M  V30 4196 H 437.241 -1.98446 2.59397 0
M  V30 4197 H 435.9 -0.139452 3.66335 0
M  V30 4198 H 435.548 -2.51696 4.35498 0
M  V30 4199 H 435.248 -1.39702 5.70751 0
M  V30 4200 H 436.772 -2.32735 5.64506 0
M  V30 4201 H 438.186 -0.057607 5.73271 0
M  V30 4202 H 436.583 0.700227 5.96001 0
M  V30 4203 H 437.653 1.28848 4.67468 0
M  V30 4204 N 438.996 -1.55193 0.274407 0
M  V30 4205 C 440.243 -1.99581 -0.342579 0
M  V30 4206 C 440.571 -1.1628 -1.55914 0
M  V30 4207 O 439.826 -0.22029 -1.94456 0
M  V30 4208 C 440.125 -3.49019 -0.769458 0
M  V30 4209 C 439.791 -4.49598 0.342389 0
M  V30 4210 C 438.453 -4.76821 0.647686 0
M  V30 4211 C 440.805 -5.0964 1.09163 0
M  V30 4212 C 438.133 -5.61354 1.70581 0
M  V30 4213 C 440.485 -5.95323 2.13948 0
M  V30 4214 C 439.149 -6.20867 2.45113 0
M  V30 4215 H 438.419 -0.730319 -0.125358 0
M  V30 4216 H 441.066 -1.87529 0.387971 0
M  V30 4217 H 439.371 -3.58544 -1.57967 0
M  V30 4218 H 441.068 -3.8077 -1.25757 0
M  V30 4219 H 437.658 -4.28496 0.094318 0
M  V30 4220 H 441.842 -4.88632 0.869024 0
M  V30 4221 H 437.098 -5.79392 1.9523 0
M  V30 4222 H 441.272 -6.40881 2.72478 0
M  V30 4223 H 438.899 -6.86162 3.27239 0
M  V30 4224 N 440.474 -0.00167713 -1.576 0
M  V30 4225 C 441.721 0.68282 -1.90641 0
M  V30 4226 C 442.049 1.73686 -0.875415 0
M  V30 4227 O 441.304 1.95334 0.119575 0
M  V30 4228 C 441.603 1.36189 -3.30435 0
M  V30 4229 C 441.269 0.440887 -4.48739 0
M  V30 4230 C 439.931 0.187312 -4.80835 0
M  V30 4231 C 442.283 -0.193134 -5.20842 0
M  V30 4232 C 439.611 -0.70855 -5.82406 0
M  V30 4233 C 441.963 -1.07688 -6.23367 0
M  V30 4234 C 440.627 -1.33962 -6.53919 0
M  V30 4235 H 439.897 0.249862 -0.697603 0
M  V30 4236 H 442.544 -0.0575642 -1.91413 0
M  V30 4237 H 440.849 2.17636 -3.25794 0
M  V30 4238 H 442.546 1.89759 -3.5326 0
M  V30 4239 H 439.136 0.648694 -4.23663 0
M  V30 4240 H 443.32 -0.0102445 -4.96299 0
M  V30 4241 H 438.576 -0.920097 -6.04437 0
M  V30 4242 H 442.75 -1.57451 -6.78367 0
M  V30 4243 H 440.377 -2.03549 -7.32442 0
M  V30 4244 N 441.952 1.55251 0.271103 0
M  V30 4245 C 443.201 1.75151 1.00025 0
M  V30 4246 C 443.514 0.561041 1.87381 0
M  V30 4247 O 444.72 0.642506 2.63788 0
M  V30 4248 C 443.176 3.09999 1.82835 0
M  V30 4249 C 442.784 4.3662 1.00336 0
M  V30 4250 C 444.528 3.39249 2.55168 0
M  V30 4251 C 442.435 5.62506 1.82595 0
M  V30 4252 H 441.365 0.652877 0.377183 0
M  V30 4253 H 444.016 1.81708 0.255843 0
M  V30 4254 H 442.398 2.97485 2.61378 0
M  V30 4255 H 443.572 4.60055 0.261959 0
M  V30 4256 H 441.887 4.14527 0.394486 0
M  V30 4257 H 444.484 4.3051 3.1712 0
M  V30 4258 H 444.827 2.59467 3.2555 0
M  V30 4259 H 445.36 3.52869 1.83653 0
M  V30 4260 H 442.099 6.45041 1.16631 0
M  V30 4261 H 441.619 5.43211 2.54327 0
M  V30 4262 H 443.298 6.00875 2.39913 0
M  V30 4263 N 443.43 -0.535701 1.48216 0
M  V30 4264 C 444.36 -1.65014 1.65204 0
M  V30 4265 C 445.341 -1.62554 0.501011 0
M  V30 4266 O 446.526 -1.7984 0.732886 0
M  V30 4267 C 443.656 -3.03616 1.68626 0
M  V30 4268 C 442.61 -3.20932 2.83172 0
M  V30 4269 C 441.936 -4.60537 2.71679 0
M  V30 4270 C 443.236 -3.04249 4.24535 0
M  V30 4271 H 444.93 -1.51053 2.58502 0
M  V30 4272 H 442.476 -0.725262 1.24402 0
M  V30 4273 H 444.429 -3.81446 1.79099 0
M  V30 4274 H 443.153 -3.18587 0.719026 0
M  V30 4275 H 441.812 -2.45517 2.72244 0
M  V30 4276 H 441.46 -4.72336 1.72937 0
M  V30 4277 H 441.16 -4.73069 3.48538 0
M  V30 4278 H 442.684 -5.40475 2.84112 0
M  V30 4279 H 444.098 -3.71877 4.36326 0
M  V30 4280 H 442.495 -3.28278 5.02348 0
M  V30 4281 H 443.565 -2.00739 4.41397 0
M  V30 4282 N 444.908 -1.36708 -0.784132 0
M  V30 4283 C 446.157 -1.30559 -1.53744 0
M  V30 4284 C 446.47 0.111374 -1.95283 0
M  V30 4285 O 447.676 0.29527 -2.6989 0
M  V30 4286 C 446.132 -2.29098 -2.77565 0
M  V30 4287 C 445.74 -3.76258 -2.43174 0
M  V30 4288 C 447.484 -2.31936 -3.55536 0
M  V30 4289 C 445.391 -4.6656 -3.63422 0
M  V30 4290 H 444.321 -0.48518 -0.577162 0
M  V30 4291 H 446.972 -1.62101 -0.859981 0
M  V30 4292 H 445.354 -1.90557 -3.47137 0
M  V30 4293 H 446.528 -4.23565 -1.81465 0
M  V30 4294 H 444.843 -3.76246 -1.78403 0
M  V30 4295 H 447.44 -2.9661 -4.44889 0
M  V30 4296 H 447.783 -1.3294 -3.94503 0
M  V30 4297 H 448.316 -2.6912 -2.92949 0
M  V30 4298 H 445.055 -5.66638 -3.29547 0
M  V30 4299 H 444.575 -4.23966 -4.24279 0
M  V30 4300 H 446.254 -4.8309 -4.30387 0
M  V30 4301 N 446.386 1.0089 -1.21074 0
M  V30 4302 C 447.611 1.78727 -1.05221 0
M  V30 4303 C 448.036 1.83932 0.393795 0
M  V30 4304 O 447.394 1.28004 1.28393 0
M  V30 4305 C 447.442 3.20665 -1.64944 0
M  V30 4306 O 446.546 4.02632 -0.892273 0
M  V30 4307 H 445.887 0.550973 -0.370574 0
M  V30 4308 H 448.417 1.26847 -1.60534 0
M  V30 4309 H 448.427 3.71352 -1.69002 0
M  V30 4310 H 447.102 3.16191 -2.70177 0
M  V30 4311 H 445.679 3.61207 -0.926492 0
M  V30 4312 N 447.864 1.01787 1.20321 0
M  V30 4313 C 449.113 0.703249 1.89043 0
M  V30 4314 C 449.426 -0.770445 1.79787 0
M  V30 4315 O 450.632 -1.19767 2.43656 0
M  V30 4316 C 449.088 1.20749 3.3904 0
M  V30 4317 C 448.696 2.70817 3.56878 0
M  V30 4318 C 450.44 0.968352 4.13308 0
M  V30 4319 C 448.347 3.14716 5.00708 0
M  V30 4320 H 447.277 0.259354 0.707991 0
M  V30 4321 H 449.928 1.23072 1.36108 0
M  V30 4322 H 448.31 0.607989 3.91305 0
M  V30 4323 H 449.484 3.36327 3.14993 0
M  V30 4324 H 447.799 2.92888 2.95983 0
M  V30 4325 H 450.396 1.27173 5.19356 0
M  V30 4326 H 450.739 -0.095149 4.16191 0
M  V30 4327 H 451.272 1.53129 3.67146 0
M  V30 4328 H 448.011 4.20347 5.02979 0
M  V30 4329 H 447.531 2.53927 5.43398 0
M  V30 4330 H 449.21 3.07426 5.69296 0
M  V30 4331 N 449.342 -1.36122 0.79427 0
M  V30 4332 C 450.57 -2.03362 0.380989 0
M  V30 4333 C 450.985 -1.59881 -1.00416 0
M  V30 4334 O 450.342 -0.790515 -1.6449 0
M  V30 4335 C 450.393 -3.58804 0.440649 0
M  V30 4336 O 450.114 -4.007 1.77118 0
M  V30 4337 C 451.615 -4.43296 0.0186117 0
M  V30 4338 H 448.835 -0.652526 0.156367 0
M  V30 4339 H 451.379 -1.73998 1.07447 0
M  V30 4340 H 449.534 -3.8686 -0.204458 0
M  V30 4341 H 449.948 -4.95309 1.72538 0
M  V30 4342 H 451.422 -5.51887 0.111488 0
M  V30 4343 H 451.899 -4.2684 -1.03461 0
M  V30 4344 H 452.505 -4.20512 0.636395 0
M  V30 4345 N 450.82 -0.546701 -1.47814 0
M  V30 4346 C 452.048 -0.0232857 -2.06887 0
M  V30 4347 C 452.463 1.26571 -1.4009 0
M  V30 4348 O 451.82 1.7569 -0.493906 0
M  V30 4349 C 451.871 0.186975 -3.61016 0
M  V30 4350 O 451.592 -1.05097 -4.25307 0
M  V30 4351 C 453.093 0.748872 -4.36929 0
M  V30 4352 H 450.313 -0.0410763 -0.669742 0
M  V30 4353 H 452.857 -0.757117 -1.89968 0
M  V30 4354 H 451.012 0.870903 -3.77484 0
M  V30 4355 H 451.426 -0.842121 -5.17695 0
M  V30 4356 H 452.9 0.845334 -5.45489 0
M  V30 4357 H 453.377 1.75772 -4.02493 0
M  V30 4358 H 453.983 0.100979 -4.2518 0
M  V30 4359 N 452.299 1.55045 -0.282633 0
M  V30 4360 C 453.546 1.9976 0.33199 0
M  V30 4361 C 453.874 1.17105 1.55295 0
M  V30 4362 O 453.129 0.230599 1.94337 0
M  V30 4363 C 453.428 3.49422 0.750938 0
M  V30 4364 C 453.094 4.4941 -0.366228 0
M  V30 4365 C 451.756 4.76471 -0.672964 0
M  V30 4366 C 454.108 5.09054 -1.11864 0
M  V30 4367 C 451.436 5.60442 -1.73556 0
M  V30 4368 C 453.788 5.9418 -2.17102 0
M  V30 4369 C 452.452 6.19558 -2.48402 0
M  V30 4370 H 451.722 0.730974 0.121484 0
M  V30 4371 H 454.369 1.8732 -0.39791 0
M  V30 4372 H 452.674 3.59377 1.56063 0
M  V30 4373 H 454.371 3.81432 1.23736 0
M  V30 4374 H 450.961 4.2844 -0.117041 0
M  V30 4375 H 455.145 4.88165 -0.894925 0
M  V30 4376 H 450.401 5.78349 -1.983 0
M  V30 4377 H 454.575 6.39427 -2.75873 0
M  V30 4378 H 452.202 6.84417 -3.30874 0
M  V30 4379 N 453.777 0.010035 1.57597 0
M  V30 4380 C 455.017 -0.677084 1.9286 0
M  V30 4381 C 455.381 -1.70377 0.885192 0
M  V30 4382 O 456.582 -2.44199 1.12339 0
M  V30 4383 C 454.853 -1.29452 3.33132 0
M  V30 4384 S 456.412 -2.00537 3.90295 0
M  V30 4385 H 453.23 -0.223409 0.674989 0
M  V30 4386 H 455.832 0.0691289 1.95378 0
M  V30 4387 H 454.536 -0.534593 4.06903 0
M  V30 4388 H 454.067 -2.07845 3.34012 0
M  V30 4389 H 456.082 -3.28168 3.72183 0
M  V30 4390 N 455.255 -1.55392 -0.262866 0
M  V30 4391 C 456.185 -1.91978 -1.32917 0
M  V30 4392 C 457.166 -0.7828 -1.51017 0
M  V30 4393 O 458.351 -1.04178 -1.63892 0
M  V30 4394 C 455.481 -2.20055 -2.68687 0
M  V30 4395 C 454.435 -3.35854 -2.65304 0
M  V30 4396 C 453.761 -3.49435 -4.04721 0
M  V30 4397 C 455.061 -4.71977 -2.23685 0
M  V30 4398 H 456.755 -2.81292 -1.02544 0
M  V30 4399 H 454.301 -1.3534 -0.491846 0
M  V30 4400 H 456.254 -2.44237 -3.43404 0
M  V30 4401 H 454.978 -1.27551 -3.00663 0
M  V30 4402 H 453.637 -3.11655 -1.93045 0
M  V30 4403 H 453.285 -2.54379 -4.33936 0
M  V30 4404 H 452.985 -4.27297 -4.0335 0
M  V30 4405 H 454.509 -3.7592 -4.81161 0
M  V30 4406 H 455.923 -4.95637 -2.88127 0
M  V30 4407 H 454.32 -5.52828 -2.33456 0
M  V30 4408 H 455.39 -4.70115 -1.18827 0
M  V30 4409 N 456.733 0.527833 -1.48498 0
M  V30 4410 C 457.643 1.65907 -1.65867 0
M  V30 4411 C 458.659 1.6537 -0.541192 0
M  V30 4412 O 459.835 1.84282 -0.812534 0
M  V30 4413 C 456.9 3.02364 -1.69637 0
M  V30 4414 C 455.961 3.1374 -2.93028 0
M  V30 4415 C 455.194 4.43688 -2.96609 0
M  V30 4416 O 455.417 5.30913 -2.08538 0
M  V30 4417 O 454.351 4.59475 -3.88802 0
M  V30 4418 H 458.177 1.5419 -2.61647 0
M  V30 4419 H 455.762 0.701163 -1.31924 0
M  V30 4420 H 457.644 3.83515 -1.74625 0
M  V30 4421 H 456.319 3.14401 -0.770312 0
M  V30 4422 H 455.226 2.31877 -2.93571 0
M  V30 4423 H 456.559 3.06621 -3.85026 0
M  V30 4424 N 458.211 1.37122 0.776871 0
M  V30 4425 C 459.439 1.3523 1.5659 0
M  V30 4426 C 459.854 -0.0635518 1.88693 0
M  V30 4427 O 459.211 -1.02394 1.51069 0
M  V30 4428 C 459.262 2.18583 2.8793 0
M  V30 4429 O 458.983 3.5465 2.57206 0
M  V30 4430 C 460.484 2.24612 3.82183 0
M  V30 4431 H 457.704 0.4634 0.485285 0
M  V30 4432 H 460.248 1.80392 0.963266 0
M  V30 4433 H 458.403 1.76943 3.4463 0
M  V30 4434 H 458.817 3.98286 3.41275 0
M  V30 4435 H 460.291 2.87267 4.71361 0
M  V30 4436 H 460.768 1.25309 4.20944 0
M  V30 4437 H 461.374 2.66543 3.31414 0
M  V30 4438 N 459.689 -1.00246 1.21608 0
M  V30 4439 C 460.639 -2.07492 0.945051 0
M  V30 4440 C 461.623 -1.60585 -0.100675 0
M  V30 4441 O 462.815 -1.76667 0.10859 0
M  V30 4442 C 459.944 -3.39425 0.514342 0
M  V30 4443 C 459.03 -3.92993 1.59428 0
M  V30 4444 N 459.421 -4.19898 2.81991 0
M  V30 4445 C 457.719 -4.21297 1.46374 0
M  V30 4446 C 458.42 -4.63297 3.51754 0
M  V30 4447 N 457.396 -4.66421 2.79199 0
M  V30 4448 H 461.198 -2.26222 1.87619 0
M  V30 4449 H 458.712 -1.18339 1.11219 0
M  V30 4450 H 460.709 -4.15808 0.301527 0
M  V30 4451 H 459.369 -3.22101 -0.410008 0
M  V30 4452 H 460.38 -4.08377 3.1851 0
M  V30 4453 H 457.057 -4.13095 0.604863 0
M  V30 4454 H 458.447 -4.92816 4.56708 0
M  V30 4455 N 461.167 -1.02423 -1.1978 0
M  V30 4456 C 462.077 -0.610919 -2.26506 0
M  V30 4457 C 463.093 0.355152 -1.70337 0
M  V30 4458 O 464.269 0.214195 -2.00258 0
M  V30 4459 C 461.334 0.0365921 -3.46681 0
M  V30 4460 C 460.395 -0.976389 -4.18049 0
M  V30 4461 C 459.628 -0.359683 -5.32487 0
M  V30 4462 O 459.851 0.838601 -5.64202 0
M  V30 4463 O 458.785 -1.08022 -5.92127 0
M  V30 4464 H 462.611 -1.49965 -2.64091 0
M  V30 4465 H 460.196 -0.794156 -1.26545 0
M  V30 4466 H 462.078 0.39786 -4.19518 0
M  V30 4467 H 460.753 0.899398 -3.10954 0
M  V30 4468 H 459.66 -1.38916 -3.47352 0
M  V30 4469 H 460.993 -1.80941 -4.57735 0
M  V30 4470 N 462.645 1.35699 -0.801477 0
M  V30 4471 C 463.893 1.9852 -0.37871 0
M  V30 4472 C 464.214 1.63907 1.05638 0
M  V30 4473 O 463.484 0.919013 1.73006 0
M  V30 4474 H 462.064 0.734322 -0.137042 0
M  V30 4475 H 464.726 1.65697 -1.02619 0
M  V30 4476 H 463.822 3.08382 -0.480284 0
M  V30 4477 N 464.123 0.554532 1.47522 0
M  V30 4478 C 465.37 0.029479 2.02479 0
M  V30 4479 C 465.698 -1.31929 1.42916 0
M  V30 4480 O 464.953 -1.87112 0.573385 0
M  V30 4481 C 465.252 -0.115927 3.57212 0
M  V30 4482 C 464.918 1.16161 4.3568 0
M  V30 4483 C 463.58 1.51168 4.56839 0
M  V30 4484 C 465.932 2.0083 4.80954 0
M  V30 4485 C 463.26 2.70696 5.2052 0
M  V30 4486 C 465.612 3.19559 5.45953 0
M  V30 4487 C 464.276 3.54882 5.65345 0
M  V30 4488 H 463.546 0.0107871 0.740921 0
M  V30 4489 H 466.193 0.725506 1.77225 0
M  V30 4490 H 464.498 -0.894902 3.81443 0
M  V30 4491 H 466.195 -0.53749 3.97381 0
M  V30 4492 H 462.785 0.879026 4.19489 0
M  V30 4493 H 466.969 1.75093 4.64388 0
M  V30 4494 H 462.225 2.98236 5.33728 0
M  V30 4495 H 466.399 3.85456 5.79997 0
M  V30 4496 H 464.026 4.47596 6.1446 0
M  V30 4497 N 465.601 -1.54893 0.290851 0
M  V30 4498 C 466.85 -1.99111 -0.322113 0
M  V30 4499 C 467.163 -1.18283 -1.55784 0
M  V30 4500 O 468.369 -1.5272 -2.24475 0
M  V30 4501 C 466.825 -3.54442 -0.624438 0
M  V30 4502 C 466.433 -4.44066 0.592373 0
M  V30 4503 C 468.177 -4.07211 -1.19916 0
M  V30 4504 C 466.084 -5.90812 0.263762 0
M  V30 4505 H 465.014 -0.743712 -0.124133 0
M  V30 4506 H 467.665 -1.79132 0.39797 0
M  V30 4507 H 466.047 -3.70281 -1.40384 0
M  V30 4508 H 467.221 -4.39999 1.36886 0
M  V30 4509 H 465.536 -4.02015 1.08502 0
M  V30 4510 H 468.133 -5.14407 -1.45909 0
M  V30 4511 H 468.476 -3.57196 -2.13815 0
M  V30 4512 H 469.009 -3.94873 -0.481687 0
M  V30 4513 H 465.748 -6.44955 1.17105 0
M  V30 4514 H 465.268 -5.97911 -0.475655 0
M  V30 4515 H 466.947 -6.46852 -0.138354 0
M  V30 4516 N 467.08 -0.0183926 -1.57589 0
M  V30 4517 C 468.03 0.975944 -2.06057 0
M  V30 4518 C 469.014 1.29204 -0.958908 0
M  V30 4519 O 470.206 1.27995 -1.22255 0
M  V30 4520 C 467.335 2.26194 -2.58247 0
M  V30 4521 C 466.421 1.97467 -3.75323 0
M  V30 4522 N 466.812 1.38968 -4.86335 0
M  V30 4523 C 465.11 2.27515 -3.83605 0
M  V30 4524 C 465.811 1.27131 -5.67638 0
M  V30 4525 N 464.787 1.76319 -5.14211 0
M  V30 4526 H 468.589 0.518444 -2.89291 0
M  V30 4527 H 466.103 0.18688 -1.61321 0
M  V30 4528 H 468.1 2.98289 -2.91255 0
M  V30 4529 H 466.76 2.7258 -1.76438 0
M  V30 4530 H 467.771 1.06608 -5.06809 0
M  V30 4531 H 464.448 2.76649 -3.12684 0
M  V30 4532 H 465.838 0.819882 -6.66879 0
M  V30 4533 N 468.558 1.5553 0.254621 0
M  V30 4534 C 469.807 1.76202 0.981612 0
M  V30 4535 C 470.12 0.580883 1.86776 0
M  V30 4536 O 471.326 0.670448 2.63092 0
M  V30 4537 C 469.782 3.11921 1.79537 0
M  V30 4538 C 469.39 4.37659 0.956991 0
M  V30 4539 C 471.134 3.41936 2.51555 0
M  V30 4540 C 469.041 5.64411 1.76619 0
M  V30 4541 H 467.971 0.656841 0.370237 0
M  V30 4542 H 470.622 1.81969 0.236556 0
M  V30 4543 H 469.004 3.00241 2.58208 0
M  V30 4544 H 470.178 4.60307 0.21315 0
M  V30 4545 H 468.493 4.14922 0.350497 0
M  V30 4546 H 471.09 4.33849 3.12536 0
M  V30 4547 H 471.433 2.62905 3.22779 0
M  V30 4548 H 471.966 3.54797 1.799 0
M  V30 4549 H 468.705 6.46241 1.09783 0
M  V30 4550 H 468.225 5.45877 2.48551 0
M  V30 4551 H 469.904 6.03386 2.33527 0
M  V30 4552 N 470.036 -0.519951 1.48776 0
M  V30 4553 C 471.261 -1.30447 1.6124 0
M  V30 4554 C 471.686 -1.86055 0.276591 0
M  V30 4555 O 471.044 -1.64915 -0.753183 0
M  V30 4556 C 471.092 -2.42406 2.66967 0
M  V30 4557 O 470.196 -3.45728 2.24824 0
M  V30 4558 H 469.537 -0.385924 0.540332 0
M  V30 4559 H 472.067 -0.624572 1.94834 0
M  V30 4560 H 472.077 -2.88447 2.88552 0
M  V30 4561 H 470.752 -2.01294 3.63941 0
M  V30 4562 H 469.329 -3.05737 2.13494 0
M  V30 4563 N 471.514 -1.37532 -0.769588 0
M  V30 4564 C 472.462 -1.33561 -1.90432 0
M  V30 4565 C 473.456 -0.224027 -1.67912 0
M  V30 4566 O 474.662 -0.392174 -1.75676 0
M  V30 4567 H 471.037 -0.416279 -0.626271 0
M  V30 4568 H 473.008 -2.29348 -1.90899 0
M  V30 4569 C 471.757 -1.16162 -3.27722 0
M  V30 4570 H 471.08 -2.00951 -3.45628 0
M  V30 4571 H 472.52 -1.17434 -4.07413 0
M  V30 4572 C 470.979 0.132583 -3.36639 0
M  V30 4573 O 471.509 1.11539 -3.85904 0
M  V30 4574 N 469.715 0.184013 -2.90017 0
M  V30 4575 H 469.262 -0.616415 -2.50116 0
M  V30 4576 H 469.22 1.04956 -2.96364 0
M  V30 4577 N 472.992 0.995999 -1.22138 0
M  V30 4578 C 473.939 2.08551 -0.988687 0
M  V30 4579 C 474.909 1.65864 0.0885021 0
M  V30 4580 O 476.094 1.90704 -0.0604589 0
M  V30 4581 C 473.234 3.40374 -0.569191 0
M  V30 4582 C 472.347 3.96421 -1.71681 0
M  V30 4583 C 471.482 5.1639 -1.2456 0
M  V30 4584 C 470.521 5.64567 -2.36497 0
M  V30 4585 N 469.658 6.75777 -1.90445 0
M  V30 4586 H 474.498 2.2779 -1.92135 0
M  V30 4587 H 472.035 1.1168 -0.957388 0
M  V30 4588 H 473.993 4.16068 -0.307166 0
M  V30 4589 H 472.623 3.21145 0.326462 0
M  V30 4590 H 471.675 3.17628 -2.09324 0
M  V30 4591 H 472.987 4.2816 -2.55891 0
M  V30 4592 H 472.141 5.99362 -0.940774 0
M  V30 4593 H 470.88 4.86266 -0.373662 0
M  V30 4594 H 469.885 4.80185 -2.67772 0
M  V30 4595 H 471.11 5.96716 -3.24202 0
M  V30 4596 H 469.056 6.47443 -1.05609 0
M  V30 4597 H 468.973 7.06818 -2.68223 0
M  V30 4598 H 470.241 7.62262 -1.63022 0
M  V30 4599 N 474.47 1.03057 1.19235 0
M  V30 4600 C 475.698 0.747697 1.92917 0
M  V30 4601 C 476.113 -0.69372 1.75593 0
M  V30 4602 O 475.47 -1.47191 1.07894 0
M  V30 4603 C 475.521 1.09159 3.44625 0
M  V30 4604 O 475.242 2.47641 3.61394 0
M  V30 4605 C 476.743 0.831763 4.35427 0
M  V30 4606 H 473.963 0.273453 0.612751 0
M  V30 4607 H 476.507 1.37552 1.51327 0
M  V30 4608 H 474.662 0.508919 3.84043 0
M  V30 4609 H 475.076 2.60499 4.55237 0
M  V30 4610 H 476.55 1.12233 5.4047 0
M  V30 4611 H 477.027 -0.233769 4.38577 0
M  V30 4612 H 477.633 1.39725 4.01693 0
M  V30 4613 N 475.948 -1.35272 0.808662 0
M  V30 4614 C 477.194 -1.99003 0.390581 0
M  V30 4615 C 477.527 -1.63999 -1.0401 0
M  V30 4616 O 476.802 -0.904368 -1.72196 0
M  V30 4617 C 477.085 -3.55454 0.576566 0
M  V30 4618 C 476.938 -4.00249 2.05233 0
M  V30 4619 C 478.257 -4.401 0.00354277 0
M  V30 4620 H 475.376 -0.722917 0.143388 0
M  V30 4621 H 478.018 -1.6039 1.01858 0
M  V30 4622 H 476.168 -3.88477 0.0419766 0
M  V30 4623 H 477.84 -3.77626 2.64946 0
M  V30 4624 H 476.083 -3.51082 2.54801 0
M  V30 4625 H 476.754 -5.0911 2.13333 0
M  V30 4626 H 479.23 -4.13548 0.460117 0
M  V30 4627 H 478.106 -5.48656 0.163575 0
M  V30 4628 H 478.367 -4.28444 -1.09032 0
M  V30 4629 N 477.426 -0.562348 -1.47226 0
M  V30 4630 C 478.654 -0.0452275 -2.06851 0
M  V30 4631 C 479.069 1.25078 -1.41424 0
M  V30 4632 O 478.426 1.75156 -0.512513 0
M  V30 4633 C 478.477 0.148674 -3.61194 0
M  V30 4634 O 478.198 -1.09602 -4.24169 0
M  V30 4635 C 479.699 0.702488 -4.37699 0
M  V30 4636 H 476.919 -0.0481775 -0.669268 0
M  V30 4637 H 479.463 -0.777223 -1.89155 0
M  V30 4638 H 477.618 0.830817 -3.78386 0
M  V30 4639 H 478.032 -0.896982 -5.16773 0
M  V30 4640 H 479.506 0.78743 -5.46355 0
M  V30 4641 H 479.983 1.71493 -4.04335 0
M  V30 4642 H 480.589 0.0558772 -4.25263 0
M  V30 4643 N 478.904 1.54736 -0.299062 0
M  V30 4644 C 479.836 2.20891 0.61153 0
M  V30 4645 C 480.849 1.20104 1.09904 0
M  V30 4646 O 482.038 1.46707 1.01683 0
M  V30 4647 C 479.138 2.84018 1.84897 0
M  V30 4648 C 478.311 4.10719 1.50428 0
M  V30 4649 C 477.37 4.57667 2.59667 0
M  V30 4650 O 476.396 5.2291 2.24842 0
M  V30 4651 N 477.598 4.29821 3.90172 0
M  V30 4652 H 480.363 2.99666 0.0452001 0
M  V30 4653 H 477.924 1.61446 -0.121178 0
M  V30 4654 H 479.916 3.1236 2.5732 0
M  V30 4655 H 478.486 2.09095 2.32375 0
M  V30 4656 H 477.706 3.89408 0.612781 0
M  V30 4657 H 478.994 4.93223 1.24934 0
M  V30 4658 H 478.392 3.77549 4.21276 0
M  V30 4659 H 476.949 4.62877 4.58899 0
M  V30 4660 N 480.382 0.0267497 1.57577 0
M  V30 4661 C 481.345 -0.940916 2.08996 0
M  V30 4662 C 482.345 -1.25561 1.00455 0
M  V30 4663 O 483.535 -1.19634 1.26623 0
M  V30 4664 C 480.667 -2.25814 2.55384 0
M  V30 4665 H 481.86 -0.495628 2.95776 0
M  V30 4666 H 479.413 -0.221241 1.54726 0
M  V30 4667 H 480.148 -2.74976 1.71926 0
M  V30 4668 H 479.933 -2.04285 3.34679 0
M  V30 4669 H 481.423 -2.95178 2.95398 0
M  V30 4670 N 481.861 -1.55662 -0.24637 0
M  V30 4671 C 483.086 -1.81914 -0.996093 0
M  V30 4672 C 483.511 -0.603875 -1.78143 0
M  V30 4673 O 482.869 0.447091 -1.75701 0
M  V30 4674 C 482.917 -3.05908 -1.90925 0
M  V30 4675 O 482.021 -2.82861 -3.00105 0
M  V30 4676 H 481.362 -0.600481 -0.283406 0
M  V30 4677 H 483.892 -2.02848 -0.267199 0
M  V30 4678 H 483.902 -3.35356 -2.3238 0
M  V30 4679 H 482.577 -3.93999 -1.33183 0
M  V30 4680 H 481.154 -2.64583 -2.62775 0
M  V30 4681 N 483.339 0.512053 -1.4905 0
M  V30 4682 C 484.75 1.09376 -1.51307 0
M  V30 4683 C 485.101 1.94 -0.292971 0
M  V30 4684 O 484.226 2.07965 0.598277 0
M  V30 4685 C 484.821 1.99031 -2.74176 0
M  V30 4686 C 483.38 2.52385 -2.79247 0
M  V30 4687 C 482.527 1.29749 -2.45073 0
M  V30 4688 H 485.478 0.296467 -1.55906 0
M  V30 4689 H 485.499 2.83569 -2.53711 0
M  V30 4690 H 485.011 1.37412 -3.62959 0
M  V30 4691 H 483.112 3.17673 -1.94716 0
M  V30 4692 H 483.225 2.90293 -3.81139 0
M  V30 4693 H 481.589 1.61912 -1.96612 0
M  V30 4694 H 482.372 0.698555 -3.36118 0
M  V30 4695 N 484.817 1.37938 0.762283 0
M  V30 4696 C 486.066 1.32989 1.51647 0
M  V30 4697 C 486.379 -0.0802922 1.95435 0
M  V30 4698 O 487.585 -0.252295 2.70325 0
M  V30 4699 C 486.041 2.33485 2.73885 0
M  V30 4700 C 485.649 3.80079 2.37157 0
M  V30 4701 C 487.393 2.37563 3.51801 0
M  V30 4702 C 485.3 4.72283 3.55954 0
M  V30 4703 H 484.23 0.494301 0.56937 0
M  V30 4704 H 486.881 1.63448 0.834083 0
M  V30 4705 H 485.263 1.96056 3.44061 0
M  V30 4706 H 486.437 4.26398 1.74704 0
M  V30 4707 H 484.752 3.79037 1.72395 0
M  V30 4708 H 487.349 3.0365 4.40114 0
M  V30 4709 H 487.692 1.39199 3.92338 0
M  V30 4710 H 488.225 2.73747 2.8863 0
M  V30 4711 H 484.964 5.7181 3.2049 0
M  V30 4712 H 484.484 4.30663 4.1748 0
M  V30 4713 H 486.163 4.89876 4.22647 0
M  V30 4714 N 486.295 -0.989507 1.22664 0
M  V30 4715 C 487.706 -1.54406 1.04955 0
M  V30 4716 C 488.057 -1.92366 -0.385951 0
M  V30 4717 O 487.182 -1.75111 -1.27142 0
M  V30 4718 C 487.777 -2.80578 1.89899 0
M  V30 4719 C 486.336 -3.32464 1.76478 0
M  V30 4720 C 485.483 -2.05524 1.86159 0
M  V30 4721 H 488.434 -0.810211 1.3646 0
M  V30 4722 H 488.455 -3.53075 1.4184 0
M  V30 4723 H 487.967 -2.52918 2.94371 0
M  V30 4724 H 486.068 -3.65024 0.747528 0
M  V30 4725 H 486.181 -4.02838 2.59342 0
M  V30 4726 H 484.545 -2.19241 1.29636 0
M  V30 4727 H 485.328 -1.80258 2.92168 0
M  V30 4728 N 487.773 -1.03688 -1.18687 0
M  V30 4729 C 489.021 -0.736572 -1.88199 0
M  V30 4730 C 489.342 0.737665 -1.80509 0
M  V30 4731 O 488.612 1.53204 -1.22088 0
M  V30 4732 H 487.192 -0.269466 -0.696704 0
M  V30 4733 H 489.854 -1.31282 -1.44052 0
M  V30 4734 H 488.95 -1.03802 -2.94332 0
M  V30 4735 N 489.251 1.34841 -0.815825 0
M  V30 4736 C 490.214 2.27959 -0.238185 0
M  V30 4737 C 491.214 1.49983 0.579816 0
M  V30 4738 O 492.404 1.69617 0.396953 0
M  V30 4739 C 489.536 3.34314 0.666876 0
M  V30 4740 H 490.729 2.80558 -1.05958 0
M  V30 4741 H 488.282 1.44852 -0.587156 0
M  V30 4742 H 489.017 2.86916 1.5116 0
M  V30 4743 H 488.802 3.92014 0.0819106 0
M  V30 4744 H 490.292 4.0379 1.06506 0
M  V30 4745 N 490.729 0.570148 1.46925 0
M  V30 4746 C 492.14 0.1402 1.86173 0
M  V30 4747 C 492.491 -1.29347 1.47526 0
M  V30 4748 O 491.616 -1.97508 0.884292 0
M  V30 4749 C 492.211 0.247661 3.37894 0
M  V30 4750 C 490.77 -0.127332 3.76185 0
M  V30 4751 C 489.917 0.589349 2.70965 0
M  V30 4752 H 492.868 0.779117 1.38259 0
M  V30 4753 H 492.889 -0.530341 3.76786 0
M  V30 4754 H 492.401 1.29121 3.65991 0
M  V30 4755 H 490.502 -1.17149 3.53704 0
M  V30 4756 H 490.615 0.240238 4.78497 0
M  V30 4757 H 488.979 0.0309824 2.54681 0
M  V30 4758 H 489.762 1.6343 3.01903 0
M  V30 4759 N 492.207 -1.54576 0.307264 0
M  V30 4760 C 493.618 -1.8579 -0.184121 0
M  V30 4761 C 493.969 -1.22914 -1.52927 0
M  V30 4762 O 493.094 -0.529126 -2.09831 0
M  V30 4763 C 493.689 -3.37081 -0.340862 0
M  V30 4764 C 492.248 -3.68304 -0.776465 0
M  V30 4765 C 491.395 -2.77076 0.111503 0
M  V30 4766 H 494.346 -1.49656 0.528078 0
M  V30 4767 H 494.367 -3.61922 -1.17443 0
M  V30 4768 H 493.879 -3.82815 0.638309 0
M  V30 4769 H 491.98 -3.28092 -1.76596 0
M  V30 4770 H 492.093 -4.75434 -0.591512 0
M  V30 4771 H 490.457 -2.51374 -0.410256 0
M  V30 4772 H 491.24 -3.25632 1.08714 0
M  V30 4773 N 493.685 -0.035106 -1.57561 0
M  V30 4774 C 494.595 0.960295 -2.14046 0
M  V30 4775 C 495.611 1.3529 -1.0942 0
M  V30 4776 O 496.787 1.43309 -1.41508 0
M  V30 4777 C 493.852 2.22214 -2.66124 0
M  V30 4778 C 492.913 1.8894 -3.85487 0
M  V30 4779 C 492.146 3.09109 -4.35072 0
M  V30 4780 O 492.369 4.21963 -3.83802 0
M  V30 4781 O 491.303 2.91058 -5.26848 0
M  V30 4782 H 495.129 0.509983 -2.99387 0
M  V30 4783 H 492.714 0.185853 -1.48239 0
M  V30 4784 H 494.596 2.96279 -2.99661 0
M  V30 4785 H 493.271 2.66414 -1.83862 0
M  V30 4786 H 492.178 1.12241 -3.56865 0
M  V30 4787 H 493.511 1.49551 -4.6893 0
M  V30 4788 N 495.163 1.55791 0.238111 0
M  V30 4789 C 496.111 1.91885 1.31464 0
M  V30 4790 C 497.105 0.798929 1.49377 0
M  V30 4791 O 498.311 0.983626 1.50747 0
M  V30 4792 H 494.686 0.609551 0.440399 0
M  V30 4793 H 496.657 2.81747 0.982925 0
M  V30 4794 C 495.406 2.23763 2.6613 0
M  V30 4795 H 494.729 3.09444 2.53149 0
M  V30 4796 H 496.169 2.52915 3.40309 0
M  V30 4797 C 494.628 1.05699 3.1989 0
M  V30 4798 O 495.158 0.309524 4.00506 0
M  V30 4799 N 493.364 0.845251 2.78036 0
M  V30 4800 H 492.911 1.4548 2.12588 0
M  V30 4801 H 492.869 0.0569973 3.14348 0
M  V30 4802 N 496.642 -0.504142 1.49319 0
M  V30 4803 C 497.891 -1.25507 1.57895 0
M  V30 4804 C 498.204 -1.93735 0.269433 0
M  V30 4805 O 499.41 -2.70492 0.233706 0
M  V30 4806 C 497.866 -2.27869 2.78574 0
M  V30 4807 C 497.474 -1.65594 4.16272 0
M  V30 4808 C 499.218 -3.0381 2.96479 0
M  V30 4809 C 497.125 -2.66048 5.28178 0
M  V30 4810 H 496.055 -0.47212 0.587894 0
M  V30 4811 H 498.706 -0.52931 1.757 0
M  V30 4812 H 497.088 -3.03594 2.54257 0
M  V30 4813 H 498.262 -0.958826 4.50714 0
M  V30 4814 H 496.577 -1.02055 4.037 0
M  V30 4815 H 499.174 -3.78925 3.77253 0
M  V30 4816 H 499.517 -3.61235 2.06918 0
M  V30 4817 H 500.05 -2.352 3.20821 0
M  V30 4818 H 496.789 -2.13408 6.19788 0
M  V30 4819 H 496.309 -3.34009 4.98195 0
M  V30 4820 H 497.988 -3.28536 5.57381 0
M  V30 4821 N 498.12 -1.38341 -0.754957 0
M  V30 4822 C 499.348 -1.37704 -1.54419 0
M  V30 4823 C 499.763 0.0335243 -1.8877 0
M  V30 4824 O 499.12 0.999773 -1.52679 0
M  V30 4825 C 499.171 -2.23136 -2.84416 0
M  V30 4826 O 498.892 -3.58697 -2.51531 0
M  V30 4827 C 500.393 -2.30664 -3.78562 0
M  V30 4828 H 497.613 -0.471061 -0.477852 0
M  V30 4829 H 500.157 -1.81902 -0.934446 0
M  V30 4830 H 498.312 -1.82403 -3.41772 0
M  V30 4831 H 498.726 -4.03665 -3.34896 0
M  V30 4832 H 500.2 -2.9473 -4.66732 0
M  V30 4833 H 500.677 -1.3199 -4.18898 0
M  V30 4834 H 501.283 -2.71781 -3.27131 0
M  V30 4835 N 499.598 0.982988 -1.23187 0
M  V30 4836 C 500.546 2.09616 -1.00817 0
M  V30 4837 C 501.54 1.6932 0.0519995 0
M  V30 4838 O 502.746 1.79715 -0.101284 0
M  V30 4839 H 499.121 0.685628 -0.308899 0
M  V30 4840 H 501.092 2.25652 -1.95253 0
M  V30 4841 C 499.841 3.42249 -0.613243 0
M  V30 4842 H 499.164 3.73705 -1.42073 0
M  V30 4843 H 500.604 4.21086 -0.496208 0
M  V30 4844 C 499.063 3.30002 0.678233 0
M  V30 4845 O 499.593 3.6263 1.72807 0
M  V30 4846 N 497.799 2.83164 0.653165 0
M  V30 4847 H 497.346 2.56811 -0.201492 0
M  V30 4848 H 497.304 2.75352 1.51752 0
M  V30 4849 N 501.076 1.04316 1.18135 0
M  V30 4850 C 502.322 0.749128 1.88457 0
M  V30 4851 C 502.655 -0.72149 1.803 0
M  V30 4852 O 501.93 -1.52676 1.205 0
M  V30 4853 C 502.213 1.21905 3.38838 0
M  V30 4854 C 502.066 2.75195 3.55792 0
M  V30 4855 C 503.385 0.811085 4.32561 0
M  V30 4856 H 500.504 0.273611 0.684329 0
M  V30 4857 H 503.146 1.29561 1.38975 0
M  V30 4858 H 501.296 0.754137 3.8111 0
M  V30 4859 H 502.968 3.29743 3.22595 0
M  V30 4860 H 501.211 3.14899 2.98364 0
M  V30 4861 H 501.882 3.03135 4.61317 0
M  V30 4862 H 504.358 1.21118 3.98082 0
M  V30 4863 H 503.234 1.16761 5.36338 0
M  V30 4864 H 503.495 -0.285596 4.41177 0
M  V30 4865 N 502.554 -1.34406 0.822964 0
M  V30 4866 C 503.464 -2.33298 0.246838 0
M  V30 4867 C 504.48 -1.62625 -0.618797 0
M  V30 4868 O 505.656 -1.94391 -0.526685 0
M  V30 4869 C 502.721 -3.41785 -0.581731 0
M  V30 4870 C 501.782 -4.28206 0.306309 0
M  V30 4871 C 501.015 -5.31512 -0.48281 0
M  V30 4872 O 501.238 -5.43973 -1.71607 0
M  V30 4873 O 500.172 -6.01749 0.134884 0
M  V30 4874 H 503.998 -2.84401 1.06534 0
M  V30 4875 H 501.583 -1.37466 0.585108 0
M  V30 4876 H 503.465 -4.08028 -1.05313 0
M  V30 4877 H 502.14 -2.92925 -1.37756 0
M  V30 4878 H 501.047 -3.64885 0.825199 0
M  V30 4879 H 502.38 -4.80507 1.06649 0
M  V30 4880 N 504.032 -0.577932 -1.46621 0
M  V30 4881 C 505.278 -0.0617793 -2.02706 0
M  V30 4882 C 505.611 1.29294 -1.44903 0
M  V30 4883 O 504.886 1.8461 -0.61232 0
M  V30 4884 C 505.169 0.00911824 -3.60099 0
M  V30 4885 C 505.022 -1.37416 -4.28295 0
M  V30 4886 C 506.341 0.712159 -4.343 0
M  V30 4887 H 503.46 -0.0239246 -0.736612 0
M  V30 4888 H 506.102 -0.744211 -1.74818 0
M  V30 4889 H 504.252 0.590292 -3.83989 0
M  V30 4890 H 505.924 -2.00013 -4.15683 0
M  V30 4891 H 504.167 -1.94319 -3.87843 0
M  V30 4892 H 504.838 -1.27707 -5.37024 0
M  V30 4893 H 507.314 0.218486 -4.15526 0
M  V30 4894 H 506.19 0.730782 -5.44014 0
M  V30 4895 H 506.451 1.77251 -4.05012 0
M  V30 4896 N 505.51 1.54411 -0.315457 0
M  V30 4897 C 506.42 2.27737 0.56329 0
M  V30 4898 C 507.436 1.31787 1.13614 0
M  V30 4899 O 508.612 1.64791 1.15784 0
M  V30 4900 C 505.677 3.01478 1.71207 0
M  V30 4901 C 504.738 4.12997 1.17185 0
M  V30 4902 C 503.971 4.83212 2.26588 0
M  V30 4903 O 504.194 4.52884 3.46775 0
M  V30 4904 O 503.128 5.70299 1.92463 0
M  V30 4905 H 506.954 3.03683 -0.0319614 0
M  V30 4906 H 504.539 1.49178 -0.0814188 0
M  V30 4907 H 506.421 3.47683 2.38106 0
M  V30 4908 H 505.096 2.28414 2.29366 0
M  V30 4909 H 504.003 3.71159 0.468174 0
M  V30 4910 H 505.336 4.8808 0.635501 0
M  V30 4911 N 506.988 0.0434614 1.5754 0
M  V30 4912 C 508.216 -0.641835 1.96693 0
M  V30 4913 C 508.631 -1.64832 0.920652 0
M  V30 4914 O 507.988 -1.82247 -0.095993 0
M  V30 4915 C 508.039 -1.33557 3.35924 0
M  V30 4916 O 507.76 -0.369403 4.3654 0
M  V30 4917 C 509.261 -2.11135 3.89791 0
M  V30 4918 H 506.481 -0.176013 0.647503 0
M  V30 4919 H 509.025 0.107478 2.04217 0
M  V30 4920 H 507.18 -2.03617 3.29574 0
M  V30 4921 H 507.594 -0.863674 5.1734 0
M  V30 4922 H 509.068 -2.55107 4.89514 0
M  V30 4923 H 509.545 -2.95634 3.24803 0
M  V30 4924 H 510.151 -1.46002 3.99454 0
M  V30 4925 N 508.466 -1.55915 -0.229846 0
M  V30 4926 C 509.376 -1.94891 -1.30593 0
M  V30 4927 C 510.392 -0.851604 -1.51736 0
M  V30 4928 O 511.568 -1.15447 -1.65027 0
M  V30 4929 C 508.633 -2.25052 -2.63728 0
M  V30 4930 C 507.694 -3.48306 -2.5096 0
M  V30 4931 C 506.927 -3.77019 -3.77747 0
M  V30 4932 O 507.15 -3.07534 -4.80395 0
M  V30 4933 O 506.084 -4.70523 -3.75356 0
M  V30 4934 H 509.91 -2.86581 -1.00525 0
M  V30 4935 H 507.495 -1.43017 -0.432025 0
M  V30 4936 H 509.377 -2.45682 -3.42372 0
M  V30 4937 H 508.052 -1.36538 -2.93495 0
M  V30 4938 H 506.959 -3.32964 -1.70546 0
M  V30 4939 H 508.292 -4.37177 -2.26136 0
M  V30 4940 N 509.944 0.496216 -1.49584 0
M  V30 4941 C 511.355 1.07765 -1.52459 0
M  V30 4942 C 511.706 1.93679 -0.31353 0
M  V30 4943 O 510.831 2.08588 0.576186 0
M  V30 4944 C 511.426 1.96111 -2.76271 0
M  V30 4945 C 509.985 2.49409 -2.81908 0
M  V30 4946 C 509.132 1.27142 -2.46435 0
M  V30 4947 H 512.083 0.279914 -1.56212 0
M  V30 4948 H 512.104 2.80862 -2.56704 0
M  V30 4949 H 511.616 1.33555 -3.64396 0
M  V30 4950 H 509.717 3.1559 -1.98074 0
M  V30 4951 H 509.83 2.86234 -3.84196 0
M  V30 4952 H 508.194 1.59818 -1.98319 0
M  V30 4953 H 508.977 0.662866 -3.3684 0
M  V30 4954 N 511.423 1.38739 0.74761 0
M  V30 4955 C 512.67 1.35274 1.50689 0
M  V30 4956 C 512.998 -0.0553359 1.94421 0
M  V30 4957 O 512.253 -1.03365 1.66175 0
M  V30 4958 C 512.552 2.25992 2.7688 0
M  V30 4959 C 512.218 3.73854 2.5208 0
M  V30 4960 C 510.88 4.14145 2.45025 0
M  V30 4961 C 513.232 4.67427 2.30568 0
M  V30 4962 C 510.56 5.4609 2.14483 0
M  V30 4963 C 512.912 5.99635 2.01545 0
M  V30 4964 C 511.576 6.39004 1.92951 0
M  V30 4965 H 510.846 0.495003 0.55141 0
M  V30 4966 H 513.493 1.71145 0.859158 0
M  V30 4967 H 511.798 1.83196 3.46333 0
M  V30 4968 H 513.495 2.20611 3.34861 0
M  V30 4969 H 510.085 3.41913 2.58444 0
M  V30 4970 H 514.269 4.3714 2.34994 0
M  V30 4971 H 509.525 5.75528 2.06342 0
M  V30 4972 H 513.699 6.71678 1.83906 0
M  V30 4973 H 511.326 7.41165 1.6905 0
M  V30 4974 N 512.901 -0.976442 1.23707 0
M  V30 4975 C 513.831 -2.08749 1.04624 0
M  V30 4976 C 514.812 -1.70057 -0.0380956 0
M  V30 4977 O 515.997 -1.93782 0.127308 0
M  V30 4978 C 513.127 -3.41335 0.640902 0
M  V30 4979 C 512.081 -3.93947 1.67302 0
M  V30 4980 C 511.407 -5.22774 1.12301 0
M  V30 4981 C 512.707 -4.22769 3.06697 0
M  V30 4982 H 514.401 -2.24972 1.97555 0
M  V30 4983 H 511.947 -1.08108 0.951247 0
M  V30 4984 H 513.9 -4.18489 0.494434 0
M  V30 4985 H 512.624 -3.24988 -0.324099 0
M  V30 4986 H 511.283 -3.18941 1.80755 0
M  V30 4987 H 510.931 -5.0278 0.148877 0
M  V30 4988 H 510.631 -5.58942 1.81267 0
M  V30 4989 H 512.155 -6.02546 0.988479 0
M  V30 4990 H 513.569 -4.90659 2.96524 0
M  V30 4991 H 511.966 -4.70147 3.72937 0
M  V30 4992 H 513.036 -3.29885 3.55392 0
M  V30 4993 N 514.379 -1.04941 -1.1758 0
M  V30 4994 C 515.607 -0.778294 -1.91703 0
M  V30 4995 C 516.022 0.665697 -1.76675 0
M  V30 4996 O 515.379 1.45456 -1.10222 0
M  V30 4997 C 515.43 -1.14628 -3.42845 0
M  V30 4998 O 515.151 -2.53359 -3.57409 0
M  V30 4999 C 516.652 -0.900931 -4.34049 0
M  V30 5000 H 513.872 -0.283167 -0.608323 0
M  V30 5001 H 516.416 -1.39942 -1.49119 0
M  V30 5002 H 514.571 -0.569953 -3.83184 0
M  V30 5003 H 514.985 -2.67709 -4.51035 0
M  V30 5004 H 516.459 -1.20817 -5.38616 0
M  V30 5005 H 516.936 0.163966 -4.38894 0
M  V30 5006 H 517.542 -1.46097 -3.99419 0
M  V30 5007 N 515.857 1.33968 -0.830081 0
M  V30 5008 C 517.087 2.01987 -0.434142 0
M  V30 5009 C 517.495 1.62639 0.96671 0
M  V30 5010 O 516.838 0.831151 1.63822 0
M  V30 5011 C 516.9 3.5648 -0.465018 0
M  V30 5012 C 516.564 4.19176 -1.82045 0
M  V30 5013 C 517.561 4.39181 -2.78237 0
M  V30 5014 C 515.246 4.55792 -2.11089 0
M  V30 5015 C 517.24 4.94937 -4.01642 0
M  V30 5016 C 514.927 5.11258 -3.34752 0
M  V30 5017 C 515.925 5.30775 -4.29845 0
M  V30 5018 O 515.613 5.85064 -5.51322 0
M  V30 5019 H 515.345 0.653847 -0.171639 0
M  V30 5020 H 517.899 1.72066 -1.12171 0
M  V30 5021 H 516.129 3.8569 0.279284 0
M  V30 5022 H 517.818 4.05804 -0.0881334 0
M  V30 5023 H 518.584 4.11249 -2.57097 0
M  V30 5024 H 514.463 4.39901 -1.3787 0
M  V30 5025 H 518.007 5.10086 -4.75876 0
M  V30 5026 H 513.904 5.38619 -3.55753 0
M  V30 5027 H 514.672 6.03489 -5.5294 0
M  V30 5028 N 517.335 0.585699 1.46312 0
M  V30 5029 C 518.581 0.0725284 2.0267 0
M  V30 5030 C 518.914 -1.28523 1.45586 0
M  V30 5031 O 518.189 -1.84283 0.622101 0
M  V30 5032 C 518.472 0.0099788 3.60099 0
M  V30 5033 C 518.325 1.39685 4.27561 0
M  V30 5034 C 519.644 -0.689117 4.34671 0
M  V30 5035 H 516.763 0.0278307 0.736474 0
M  V30 5036 H 519.405 0.753472 1.74421 0
M  V30 5037 H 517.555 -0.56992 3.84297 0
M  V30 5038 H 519.227 2.02215 4.14617 0
M  V30 5039 H 517.47 1.96374 3.86807 0
M  V30 5040 H 518.141 1.30553 5.36339 0
M  V30 5041 H 520.617 -0.196446 4.15636 0
M  V30 5042 H 519.493 -0.701921 5.44393 0
M  V30 5043 H 519.754 -1.75101 4.05946 0
M  V30 5044 N 518.813 -1.54241 0.323641 0
M  V30 5045 C 519.723 -2.28033 -0.551205 0
M  V30 5046 C 520.739 -1.32388 -1.12913 0
M  V30 5047 O 521.915 -1.65403 -1.14908 0
M  V30 5048 C 518.98 -3.02382 -1.69606 0
M  V30 5049 C 518.041 -4.13612 -1.14993 0
M  V30 5050 C 517.274 -4.84407 -2.24022 0
M  V30 5051 O 517.497 -4.54716 -3.44368 0
M  V30 5052 O 516.431 -5.71312 -1.89436 0
M  V30 5053 H 520.257 -3.03662 0.048066 0
M  V30 5054 H 517.842 -1.49133 0.0893289 0
M  V30 5055 H 519.724 -3.48941 -2.36259 0
M  V30 5056 H 518.399 -2.29628 -2.28151 0
M  V30 5057 H 517.306 -3.71402 -0.448484 0
M  V30 5058 H 518.639 -4.8841 -0.609608 0
M  V30 5059 N 520.291 -0.0518155 -1.57515 0
M  V30 5060 C 521.539 0.620595 -1.92336 0
M  V30 5061 C 521.86 1.71345 -0.930907 0
M  V30 5062 O 521.13 1.95885 0.0241341 0
M  V30 5063 H 519.71 0.232226 -0.709986 0
M  V30 5064 H 522.372 -0.104969 -1.94617 0
M  V30 5065 H 521.468 1.05879 -2.93592 0
M  V30 5066 N 521.769 1.56035 0.221574 0
M  V30 5067 C 523.015 1.79312 0.947372 0
M  V30 5068 C 523.348 0.621453 1.83988 0
M  V30 5069 O 522.623 -0.379287 1.90766 0
M  V30 5070 C 522.906 3.1267 1.78633 0
M  V30 5071 C 522.759 4.40284 0.920312 0
M  V30 5072 C 524.078 3.4247 2.7641 0
M  V30 5073 H 521.197 0.652328 0.342982 0
M  V30 5074 H 523.839 1.88765 0.216244 0
M  V30 5075 H 521.989 3.04741 2.40967 0
M  V30 5076 H 523.661 4.60232 0.313718 0
M  V30 5077 H 521.904 4.33212 0.225734 0
M  V30 5078 H 522.575 5.30033 1.54171 0
M  V30 5079 H 525.051 3.50526 2.24211 0
M  V30 5080 H 523.927 4.3695 3.32213 0
M  V30 5081 H 524.188 2.64635 3.54148 0
M  V30 5082 N 523.247 -0.488276 1.49845 0
M  V30 5083 C 524.487 -1.2516 1.61599 0
M  V30 5084 C 524.851 -1.89615 0.301706 0
M  V30 5085 O 526.052 -2.67182 0.29453 0
M  V30 5086 C 524.323 -2.2805 2.75187 0
M  V30 5087 S 525.882 -3.13552 3.0697 0
M  V30 5088 H 522.7 -0.425178 0.569864 0
M  V30 5089 H 525.302 -0.551545 1.87559 0
M  V30 5090 H 524.006 -1.7925 3.69185 0
M  V30 5091 H 523.537 -3.02708 2.5126 0
M  V30 5092 H 525.552 -4.28927 2.49471 0
M  V30 5093 N 524.725 -1.39134 -0.740242 0
M  V30 5094 C 525.971 -1.36273 -1.50192 0
M  V30 5095 C 526.304 0.0430136 -1.94152 0
M  V30 5096 O 525.579 1.00691 -1.66408 0
M  V30 5097 C 525.862 -2.33041 -2.74525 0
M  V30 5098 C 525.715 -3.82535 -2.36617 0
M  V30 5099 C 527.034 -2.27723 -3.76604 0
M  V30 5100 H 524.153 -0.496323 -0.544823 0
M  V30 5101 H 526.795 -1.70085 -0.846815 0
M  V30 5102 H 524.945 -2.04337 -3.30422 0
M  V30 5103 H 526.617 -4.21967 -1.86391 0
M  V30 5104 H 524.86 -3.99565 -1.68909 0
M  V30 5105 H 525.531 -4.45723 -3.2563 0
M  V30 5106 H 528.007 -2.53091 -3.30279 0
M  V30 5107 H 526.883 -2.97519 -4.61274 0
M  V30 5108 H 527.144 -1.28049 -4.2315 0
M  V30 5109 N 526.204 0.969867 -1.24223 0
M  V30 5110 C 527.45 1.7151 -1.08223 0
M  V30 5111 C 527.783 1.90478 0.37838 0
M  V30 5112 O 527.058 1.4647 1.27971 0
M  V30 5113 C 527.341 3.10714 -1.82013 0
M  V30 5114 C 527.194 2.9925 -3.35811 0
M  V30 5115 C 528.513 4.10332 -1.59108 0
M  V30 5116 H 525.632 0.622499 -0.394543 0
M  V30 5117 H 528.274 1.1284 -1.52863 0
M  V30 5118 H 526.424 3.608 -1.44068 0
M  V30 5119 H 528.096 2.56608 -3.83341 0
M  V30 5120 H 526.339 2.35512 -3.64303 0
M  V30 5121 H 527.01 3.97857 -3.82641 0
M  V30 5122 H 529.486 3.69097 -1.92111 0
M  V30 5123 H 528.362 5.05804 -2.13198 0
M  V30 5124 H 528.623 4.38926 -0.528832 0
M  V30 5125 N 527.682 1.05563 1.17022 0
M  V30 5126 C 528.928 0.778872 1.87897 0
M  V30 5127 C 529.283 -0.686839 1.79723 0
M  V30 5128 O 528.576 -1.49612 1.19694 0
M  V30 5129 C 528.77 1.19849 3.36706 0
M  V30 5130 C 528.599 2.70345 3.59366 0
M  V30 5131 C 527.369 3.37707 3.75875 0
M  V30 5132 C 529.567 3.68564 3.58699 0
M  V30 5133 N 527.549 4.7703 3.86414 0
M  V30 5134 C 528.92 4.93634 3.75134 0
M  V30 5135 C 530.975 3.6198 3.4187 0
M  V30 5136 C 529.678 6.12907 3.76481 0
M  V30 5137 C 531.704 4.80697 3.44507 0
M  V30 5138 C 531.066 6.04592 3.61453 0
M  V30 5139 H 527.165 0.337297 0.705517 0
M  V30 5140 H 529.749 1.34832 1.40458 0
M  V30 5141 H 527.92 0.656958 3.82804 0
M  V30 5142 H 529.652 0.871172 3.95212 0
M  V30 5143 H 526.407 2.88108 3.75887 0
M  V30 5144 H 526.831 5.49483 3.95471 0
M  V30 5145 H 531.473 2.67154 3.27702 0
M  V30 5146 H 529.191 7.08073 3.89432 0
M  V30 5147 H 532.777 4.77259 3.32738 0
M  V30 5148 H 531.657 6.94916 3.63403 0
M  V30 5149 N 529.16 -1.33526 0.837174 0
M  V30 5150 C 530.407 -1.97837 0.432064 0
M  V30 5151 C 530.735 -1.66324 -1.00829 0
M  V30 5152 O 529.99 -0.93448 -1.71948 0
M  V30 5153 C 530.289 -3.52367 0.597675 0
M  V30 5154 C 529.955 -4.03826 2.00587 0
M  V30 5155 C 528.617 -4.1759 2.39106 0
M  V30 5156 C 530.969 -4.31333 2.92576 0
M  V30 5157 C 528.297 -4.56195 3.68921 0
M  V30 5158 C 530.649 -4.7139 4.2187 0
M  V30 5159 C 529.313 -4.8336 4.60347 0
M  V30 5160 H 528.583 -0.723937 0.158104 0
M  V30 5161 H 531.23 -1.5923 1.06387 0
M  V30 5162 H 529.535 -3.91624 -0.117452 0
M  V30 5163 H 531.232 -4.00126 0.26454 0
M  V30 5164 H 527.822 -3.93586 1.69671 0
M  V30 5165 H 532.006 -4.20224 2.64056 0
M  V30 5166 H 527.262 -4.63655 3.9854 0
M  V30 5167 H 531.436 -4.91631 4.93226 0
M  V30 5168 H 529.063 -5.1303 5.60985 0
M  V30 5169 N 530.638 -0.59345 -1.46 0
M  V30 5170 C 531.866 -0.0890934 -2.06708 0
M  V30 5171 C 532.281 1.2205 -1.44046 0
M  V30 5172 O 531.638 1.74029 -0.549551 0
M  V30 5173 C 531.689 0.0720263 -3.61428 0
M  V30 5174 O 531.41 -1.18574 -4.21748 0
M  V30 5175 C 532.911 0.609487 -4.3909 0
M  V30 5176 H 530.131 -0.0623628 -0.668096 0
M  V30 5177 H 532.675 -0.817171 -1.87464 0
M  V30 5178 H 530.83 0.750369 -3.80063 0
M  V30 5179 H 531.244 -1.0064 -5.14754 0
M  V30 5180 H 532.718 0.671363 -5.47902 0
M  V30 5181 H 533.195 1.62878 -4.07882 0
M  V30 5182 H 533.801 -0.03434 -4.25286 0
M  V30 5183 N 532.116 1.54067 -0.331816 0
M  V30 5184 C 533.363 2.00715 0.268269 0
M  V30 5185 C 533.691 1.21986 1.51491 0
M  V30 5186 O 532.946 0.292309 1.93505 0
M  V30 5187 C 533.245 3.51634 0.639392 0
M  V30 5188 C 532.911 4.48018 -0.509019 0
M  V30 5189 C 531.573 4.74089 -0.824209 0
M  V30 5190 C 533.925 5.05237 -1.28003 0
M  V30 5191 C 531.253 5.54637 -1.91298 0
M  V30 5192 C 533.605 5.86972 -2.35895 0
M  V30 5193 C 532.269 6.11342 -2.67987 0
M  V30 5194 H 531.539 0.734469 0.0981667 0
M  V30 5195 H 534.186 1.8596 -0.457304 0
M  V30 5196 H 532.491 3.6416 1.44551 0
M  V30 5197 H 534.188 3.85175 1.11539 0
M  V30 5198 H 530.778 4.27851 -0.253287 0
M  V30 5199 H 534.962 4.8507 -1.04978 0
M  V30 5200 H 530.218 5.71747 -2.16599 0
M  V30 5201 H 534.392 6.30327 -2.96076 0
M  V30 5202 H 532.019 6.73544 -3.5248 0
M  V30 5203 N 533.594 0.0601682 1.57485 0
M  V30 5204 C 534.504 -0.926121 2.15546 0
M  V30 5205 C 535.52 -1.33532 1.11558 0
M  V30 5206 O 536.696 -1.4104 1.4377 0
M  V30 5207 C 533.761 -2.17952 2.69625 0
M  V30 5208 C 532.822 -1.82783 3.88444 0
M  V30 5209 C 532.055 -3.02148 4.39935 0
M  V30 5210 O 532.278 -4.15803 3.90466 0
M  V30 5211 O 531.212 -2.82639 5.31412 0
M  V30 5212 H 535.038 -0.462289 3.00161 0
M  V30 5213 H 532.623 -0.162246 1.48516 0
M  V30 5214 H 534.505 -2.91474 3.04337 0
M  V30 5215 H 533.18 -2.63456 1.88077 0
M  V30 5216 H 532.087 -1.06549 3.58606 0
M  V30 5217 H 533.42 -1.42072 4.7125 0
M  V30 5218 N 535.072 -1.5615 -0.213296 0
M  V30 5219 C 536.319 -1.79546 -0.936462 0
M  V30 5220 C 536.647 -0.630337 -1.84003 0
M  V30 5221 O 535.902 0.384883 -1.91878 0
M  V30 5222 C 536.201 -3.08772 -1.79985 0
M  V30 5223 C 535.867 -4.38532 -1.04882 0
M  V30 5224 C 534.529 -4.73787 -0.841393 0
M  V30 5225 C 536.881 -5.18609 -0.51907 0
M  V30 5226 C 534.209 -5.86627 -0.0924403 0
M  V30 5227 C 536.561 -6.32229 0.216581 0
M  V30 5228 C 535.225 -6.6608 0.435191 0
M  V30 5229 H 534.495 -0.657004 -0.342676 0
M  V30 5230 H 537.142 -1.9041 -0.204051 0
M  V30 5231 H 535.447 -2.93065 -2.60038 0
M  V30 5232 H 537.144 -3.24077 -2.36168 0
M  V30 5233 H 533.734 -4.10855 -1.22048 0
M  V30 5234 H 537.918 -4.91801 -0.666775 0
M  V30 5235 H 533.174 -6.11338 0.087081 0
M  V30 5236 H 537.348 -6.93503 0.634538 0
M  V30 5237 H 534.975 -7.5336 1.01746 0
M  V30 5238 N 536.55 0.480323 -1.50102 0
M  V30 5239 C 537.48 1.58769 -1.71215 0
M  V30 5240 C 538.461 1.60583 -0.560997 0
M  V30 5241 O 539.646 1.76996 -0.799127 0
M  V30 5242 C 536.776 2.97148 -1.79778 0
M  V30 5243 C 535.73 3.10201 -2.94888 0
M  V30 5244 C 535.056 4.50137 -2.88584 0
M  V30 5245 C 536.356 2.88283 -4.35534 0
M  V30 5246 H 538.05 1.41354 -2.6393 0
M  V30 5247 H 535.596 0.678591 -1.27008 0
M  V30 5248 H 537.549 3.74536 -1.93133 0
M  V30 5249 H 536.273 3.15699 -0.836772 0
M  V30 5250 H 534.932 2.35244 -2.81169 0
M  V30 5251 H 534.58 4.65593 -1.90349 0
M  V30 5252 H 534.28 4.59808 -3.65856 0
M  V30 5253 H 535.804 5.29558 -3.03976 0
M  V30 5254 H 537.218 3.55427 -4.49827 0
M  V30 5255 H 535.615 3.09408 -5.14186 0
M  V30 5256 H 536.685 1.84219 -4.48544 0
M  V30 5257 N 538.028 1.39524 0.732853 0
M  V30 5258 C 538.961 1.32806 1.85574 0
M  V30 5259 C 539.939 0.201354 1.61348 0
M  V30 5260 O 541.123 0.38216 1.84585 0
M  V30 5261 C 538.25 1.06271 3.21596 0
M  V30 5262 C 537.296 2.21161 3.64678 0
M  V30 5263 S 538.129 3.83454 3.73796 0
M  V30 5264 C 539.285 3.59149 5.12604 0
M  V30 5265 H 539.518 2.27838 1.9099 0
M  V30 5266 H 537.051 1.25605 0.897927 0
M  V30 5267 H 539.009 0.916461 4.00139 0
M  V30 5268 H 537.67 0.129223 3.13834 0
M  V30 5269 H 536.863 1.98193 4.63396 0
M  V30 5270 H 536.465 2.32 2.93346 0
M  V30 5271 H 538.757 3.16547 5.99003 0
M  V30 5272 H 539.7 4.57335 5.40602 0
M  V30 5273 H 540.108 2.93203 4.82382 0
M  V30 5274 N 539.506 -0.963266 1.24736 0
M  V30 5275 C 540.922 -1.23273 1.01371 0
M  V30 5276 C 541.122 -1.99618 -0.274776 0
M  V30 5277 O 540.178 -2.32293 -0.989769 0
M  V30 5278 C 541.491 -2.01554 2.23152 0
M  V30 5279 C 543.039 -2.14629 2.27823 0
M  V30 5280 C 543.514 -2.96307 3.49237 0
M  V30 5281 N 545.005 -3.03887 3.49581 0
M  V30 5282 C 545.74 -3.67456 4.40186 0
M  V30 5283 N 545.236 -4.32706 5.41052 0
M  V30 5284 N 547.029 -3.64511 4.27888 0
M  V30 5285 H 539.18 -0.452294 2.07528 0
M  V30 5286 H 541.443 -0.262521 0.910926 0
M  V30 5287 H 541.149 -1.52847 3.1675 0
M  V30 5288 H 541.023 -3.02278 2.25628 0
M  V30 5289 H 543.41 -2.62537 1.34753 0
M  V30 5290 H 543.491 -1.13238 2.2937 0
M  V30 5291 H 543.135 -2.49091 4.42624 0
M  V30 5292 H 543.065 -3.97905 3.44933 0
M  V30 5293 H 545.556 -2.57477 2.76611 0
M  V30 5294 H 545.869 -4.79042 6.06415 0
M  V30 5295 H 544.214 -4.31361 5.44934 0
M  V30 5296 H 547.405 -3.12715 3.4832 0
M  V30 5297 H 547.578 -4.13768 4.98698 0
M  V30 5298 N 540.985 -1.06182 -1.16461 0
M  V30 5299 C 542.234 -0.772927 -1.86303 0
M  V30 5300 C 542.547 0.703187 -1.82523 0
M  V30 5301 O 543.753 1.10641 -2.47933 0
M  V30 5302 C 542.209 -1.33249 -3.34324 0
M  V30 5303 C 541.817 -2.83876 -3.46581 0
M  V30 5304 C 543.561 -1.12108 -4.09429 0
M  V30 5305 C 541.468 -3.33082 -4.88682 0
M  V30 5306 H 540.398 -0.285452 -0.697878 0
M  V30 5307 H 543.049 -1.28039 -1.31447 0
M  V30 5308 H 541.431 -0.7528 -3.88779 0
M  V30 5309 H 542.605 -3.47786 -3.02293 0
M  V30 5310 H 540.92 -3.03671 -2.84909 0
M  V30 5311 H 543.517 -1.46361 -5.14279 0
M  V30 5312 H 543.86 -0.0593832 -4.16258 0
M  V30 5313 H 544.393 -1.6665 -3.6121 0
M  V30 5314 H 541.132 -4.38726 -4.87032 0
M  V30 5315 H 540.652 -2.73919 -5.33599 0
M  V30 5316 H 542.331 -3.28344 -5.57494 0
M  V30 5317 N 542.463 1.3308 -0.844243 0
M  V30 5318 C 543.691 2.01808 -0.456203 0
M  V30 5319 C 544.106 1.63498 0.944131 0
M  V30 5320 O 543.463 0.85102 1.61443 0
M  V30 5321 C 543.514 3.56922 -0.573513 0
M  V30 5322 O 543.235 3.93851 -1.91868 0
M  V30 5323 C 544.736 4.42922 -0.183125 0
M  V30 5324 H 541.956 0.646273 -0.180477 0
M  V30 5325 H 544.5 1.69891 -1.1383 0
M  V30 5326 H 542.655 3.87352 0.0607367 0
M  V30 5327 H 543.069 4.88564 -1.90802 0
M  V30 5328 H 544.543 5.51093 -0.316241 0
M  V30 5329 H 545.02 4.30386 0.875477 0
M  V30 5330 H 545.626 4.1786 -0.792027 0
M  V30 5331 N 543.941 0.601185 1.45683 0
M  V30 5332 C 545.188 0.0938811 2.02282 0
M  V30 5333 C 545.516 -1.27315 1.47041 0
M  V30 5334 O 544.771 -1.85193 0.632623 0
M  V30 5335 C 545.07 -0.00222425 3.574 0
M  V30 5336 C 544.736 1.29963 4.31764 0
M  V30 5337 C 543.398 1.65625 4.51798 0
M  V30 5338 C 545.75 2.1603 4.74321 0
M  V30 5339 C 543.078 2.87119 5.11644 0
M  V30 5340 C 545.43 3.36766 5.3551 0
M  V30 5341 C 544.094 3.72689 5.53768 0
M  V30 5342 H 543.364 0.0343535 0.740203 0
M  V30 5343 H 546.011 0.781522 1.74827 0
M  V30 5344 H 544.316 -0.773096 3.84097 0
M  V30 5345 H 546.013 -0.410794 3.9889 0
M  V30 5346 H 542.603 1.01204 4.1648 0
M  V30 5347 H 546.787 1.89778 4.58582 0
M  V30 5348 H 542.043 3.15065 5.2397 0
M  V30 5349 H 546.217 4.03713 5.67441 0
M  V30 5350 H 543.844 4.66918 5.99909 0
M  V30 5351 N 545.419 -1.53889 0.339982 0
M  V30 5352 C 546.659 -2.02765 -0.258011 0
M  V30 5353 C 547.023 -1.22249 -1.48051 0
M  V30 5354 O 548.224 -1.61007 -2.15245 0
M  V30 5355 C 546.495 -3.5286 -0.567872 0
M  V30 5356 S 548.054 -4.23647 -1.14318 0
M  V30 5357 H 544.872 -0.706814 -0.0770389 0
M  V30 5358 H 547.474 -1.89594 0.476917 0
M  V30 5359 H 546.178 -4.09073 0.329745 0
M  V30 5360 H 545.709 -3.70144 -1.33256 0
M  V30 5361 H 547.724 -4.32676 -2.42911 0
M  V30 5362 N 546.897 -0.0685191 -1.57451 0
M  V30 5363 C 548.308 0.464634 -1.80826 0
M  V30 5364 C 548.659 1.69847 -0.982169 0
M  V30 5365 O 547.784 2.15439 -0.203734 0
M  V30 5366 C 548.379 0.849721 -3.27971 0
M  V30 5367 C 546.938 1.32776 -3.52204 0
M  V30 5368 C 546.085 0.311332 -2.75547 0
M  V30 5369 H 549.036 -0.294248 -1.55948 0
M  V30 5370 H 549.057 1.71138 -3.39841 0
M  V30 5371 H 548.569 -0.0484736 -3.8807 0
M  V30 5372 H 546.67 2.24456 -2.97406 0
M  V30 5373 H 546.783 1.30794 -4.60901 0
M  V30 5374 H 545.147 0.787915 -2.42206 0
M  V30 5375 H 545.93 -0.579078 -3.38381 0
M  V30 5376 N 548.375 1.56261 0.205012 0
M  V30 5377 C 549.652 1.70856 0.952233 0
M  V30 5378 C 550.032 0.620501 2.01775 0
M  V30 5379 O 549.38 -0.370035 2.25484 0
M  V30 5380 C 549.59 3.12807 1.54767 0
M  V30 5381 C 550.938 3.72733 2.0336 0
M  V30 5382 O 551.962 3.15873 1.64629 0
M  V30 5383 O 550.821 4.72501 2.746 0
M  V30 5384 H 547.915 0.696496 0.445895 0
M  V30 5385 H 550.461 1.6857 0.195489 0
M  V30 5386 H 549.233 3.83465 0.779132 0
M  V30 5387 H 548.856 3.1928 2.36951 0
M  V30 5388 N 549.853 -0.472356 1.50355 0
M  V30 5389 C 550.8 -1.57051 1.69126 0
M  V30 5390 C 551.77 -1.5733 0.532574 0
M  V30 5391 O 552.955 -1.7488 0.762994 0
M  V30 5392 C 550.095 -2.95033 1.79024 0
M  V30 5393 C 549.208 -3.04552 3.06386 0
M  V30 5394 C 548.343 -4.33441 3.07087 0
M  V30 5395 C 547.382 -4.36697 4.28908 0
M  V30 5396 N 546.519 -5.57056 4.27356 0
M  V30 5397 H 551.359 -1.40351 2.62879 0
M  V30 5398 H 548.896 -0.682403 1.30314 0
M  V30 5399 H 550.854 -3.75048 1.82744 0
M  V30 5400 H 549.484 -3.10371 0.887109 0
M  V30 5401 H 548.536 -2.17419 3.12143 0
M  V30 5402 H 549.848 -3.02818 3.96362 0
M  V30 5403 H 549.002 -5.21801 3.09529 0
M  V30 5404 H 547.741 -4.37782 2.14939 0
M  V30 5405 H 546.746 -3.46734 4.2668 0
M  V30 5406 H 547.971 -4.34049 5.22282 0
M  V30 5407 H 545.917 -5.62184 3.3806 0
M  V30 5408 H 545.834 -5.57058 5.111 0
M  V30 5409 H 547.102 -6.47545 4.33942 0
M  V30 5410 N 551.331 -1.39911 -0.725443 0
M  V30 5411 C 552.577 -1.37858 -1.48738 0
M  V30 5412 C 552.91 0.0224187 -1.94187 0
M  V30 5413 O 552.185 0.989204 -1.67466 0
M  V30 5414 C 552.468 -2.3594 -2.72038 0
M  V30 5415 C 552.321 -3.85023 -2.32546 0
M  V30 5416 C 553.64 -2.31704 -3.74167 0
M  V30 5417 H 550.759 -0.502074 -0.539528 0
M  V30 5418 H 553.401 -1.70974 -0.828728 0
M  V30 5419 H 551.551 -2.0783 -3.28236 0
M  V30 5420 H 553.223 -4.2392 -1.81905 0
M  V30 5421 H 551.466 -4.01334 -1.64661 0
M  V30 5422 H 552.137 -4.49152 -3.20884 0
M  V30 5423 H 554.613 -2.5658 -3.27576 0
M  V30 5424 H 553.489 -3.02395 -4.58092 0
M  V30 5425 H 553.75 -1.3253 -4.21768 0
M  V30 5426 N 552.809 0.956637 -1.25245 0
M  V30 5427 C 553.719 2.0868 -1.0719 0
M  V30 5428 C 554.735 1.73997 -0.00959074 0
M  V30 5429 O 555.911 2.00301 -0.210104 0
M  V30 5430 C 552.976 3.39754 -0.690526 0
M  V30 5431 C 552.037 3.88316 -1.83055 0
M  V30 5432 C 551.27 5.13134 -1.46728 0
M  V30 5433 O 551.493 5.6925 -0.362029 0
M  V30 5434 O 550.427 5.56356 -2.29677 0
M  V30 5435 H 554.253 2.26813 -2.01965 0
M  V30 5436 H 551.838 1.07098 -1.04165 0
M  V30 5437 H 553.72 4.18543 -0.489871 0
M  V30 5438 H 552.395 3.22896 0.227981 0
M  V30 5439 H 551.302 3.1054 -2.08604 0
M  V30 5440 H 552.635 4.09669 -2.72822 0
M  V30 5441 N 554.287 1.06798 1.15896 0
M  V30 5442 C 555.534 0.787767 1.86549 0
M  V30 5443 C 555.862 -0.685959 1.82002 0
M  V30 5444 O 555.117 -1.5188 1.23414 0
M  V30 5445 C 555.416 1.23414 3.35416 0
M  V30 5446 C 555.082 2.71285 3.6016 0
M  V30 5447 C 553.744 3.11676 3.66622 0
M  V30 5448 C 556.096 3.6676 3.7032 0
M  V30 5449 C 553.424 4.4637 3.8075 0
M  V30 5450 C 555.776 5.01209 3.8597 0
M  V30 5451 C 554.44 5.41229 3.90676 0
M  V30 5452 H 553.71 0.288264 0.682631 0
M  V30 5453 H 556.357 1.338 1.37003 0
M  V30 5454 H 554.662 0.60319 3.87129 0
M  V30 5455 H 556.359 0.994298 3.88477 0
M  V30 5456 H 552.949 2.39015 3.55767 0
M  V30 5457 H 557.133 3.36685 3.64633 0
M  V30 5458 H 552.389 4.76855 3.82648 0
M  V30 5459 H 556.563 5.75067 3.92773 0
M  V30 5460 H 554.19 6.45602 4.01375 0
M  V30 5461 N 555.766 -1.3263 0.851289 0
M  V30 5462 C 556.696 -2.31449 0.308771 0
M  V30 5463 C 557.677 -1.59531 -0.590255 0
M  V30 5464 O 558.862 -1.87351 -0.511205 0
M  V30 5465 C 555.992 -3.43586 -0.506548 0
M  V30 5466 C 554.946 -4.26963 0.297753 0
M  V30 5467 C 554.272 -5.30831 -0.642094 0
M  V30 5468 C 555.572 -4.99643 1.52166 0
M  V30 5469 H 557.266 -2.77074 1.13447 0
M  V30 5470 H 554.812 -1.33207 0.546971 0
M  V30 5471 H 556.765 -4.11754 -0.896474 0
M  V30 5472 H 555.489 -2.96681 -1.36558 0
M  V30 5473 H 554.148 -3.60437 0.669391 0
M  V30 5474 H 553.796 -4.8018 -1.49788 0
M  V30 5475 H 553.496 -5.87501 -0.107968 0
M  V30 5476 H 555.02 -6.01862 -1.02927 0
M  V30 5477 H 556.434 -5.6051 1.20421 0
M  V30 5478 H 554.831 -5.66022 1.99347 0
M  V30 5479 H 555.901 -4.27701 2.28474 0
M  V30 5480 N 557.244 -0.608902 -1.45362 0
M  V30 5481 C 558.191 0.109172 -2.30542 0
M  V30 5482 C 559.161 0.858704 -1.42181 0
M  V30 5483 O 560.346 0.844178 -1.71109 0
M  V30 5484 C 557.486 1.09971 -3.27109 0
M  V30 5485 C 556.599 0.350911 -4.30572 0
M  V30 5486 C 555.734 1.33129 -5.14247 0
M  V30 5487 C 554.773 0.570377 -6.09437 0
M  V30 5488 N 553.91 1.5001 -6.85887 0
M  V30 5489 H 558.75 -0.623195 -2.91411 0
M  V30 5490 H 556.287 -0.319122 -1.43597 0
M  V30 5491 H 558.245 1.68714 -3.81564 0
M  V30 5492 H 556.875 1.79947 -2.67991 0
M  V30 5493 H 555.927 -0.352054 -3.78767 0
M  V30 5494 H 557.239 -0.242725 -4.98209 0
M  V30 5495 H 556.393 1.99074 -5.73109 0
M  V30 5496 H 555.132 1.95885 -4.46632 0
M  V30 5497 H 554.137 -0.102702 -5.49704 0
M  V30 5498 H 555.362 -0.0521607 -6.7908 0
M  V30 5499 H 553.308 2.11529 -6.2096 0
M  V30 5500 H 553.225 0.959934 -7.49881 0
M  V30 5501 H 554.493 2.14909 -7.49289 0
M  V30 5502 N 558.722 1.53707 -0.348139 0
M  V30 5503 C 559.947 2.05877 0.250883 0
M  V30 5504 C 560.372 1.22115 1.43072 0
M  V30 5505 O 559.73 0.235986 1.79758 0
M  V30 5506 C 559.778 3.54886 0.639416 0
M  V30 5507 O 558.882 3.73948 1.73888 0
M  V30 5508 H 558.223 0.662754 0.040653 0
M  V30 5509 H 560.753 1.98303 -0.503685 0
M  V30 5510 H 560.763 3.97601 0.915295 0
M  V30 5511 H 559.438 4.153 -0.223386 0
M  V30 5512 H 558.015 3.43134 1.45991 0
M  V30 5513 N 560.2 0.0768682 1.57412 0
M  V30 5514 C 561.425 -0.603404 1.98428 0
M  V30 5515 C 561.85 -1.62047 0.955108 0
M  V30 5516 O 561.208 -1.81129 -0.0786778 0
M  V30 5517 C 561.256 -1.24396 3.38464 0
M  V30 5518 O 560.36 -2.35982 3.3821 0
M  V30 5519 H 559.701 -0.154741 0.645718 0
M  V30 5520 H 562.231 0.152885 2.04028 0
M  V30 5521 H 562.241 -1.5896 3.7576 0
M  V30 5522 H 560.916 -0.498735 4.12899 0
M  V30 5523 H 559.493 -2.03173 3.1269 0
M  V30 5524 N 561.678 -1.56367 -0.196722 0
M  V30 5525 C 562.608 -1.97442 -1.24655 0
M  V30 5526 C 563.589 -0.846147 -1.47561 0
M  V30 5527 O 564.774 -1.11035 -1.59326 0
M  V30 5528 C 561.904 -2.31253 -2.59112 0
M  V30 5529 C 560.858 -3.46804 -2.50821 0
M  V30 5530 C 560.184 -3.66286 -3.89536 0
M  V30 5531 C 561.484 -4.8104 -2.03465 0
M  V30 5532 H 563.178 -2.85388 -0.905216 0
M  V30 5533 H 560.724 -1.37304 -0.434002 0
M  V30 5534 H 562.677 -2.58583 -3.32736 0
M  V30 5535 H 561.401 -1.40188 -2.94983 0
M  V30 5536 H 560.06 -3.19563 -1.79653 0
M  V30 5537 H 559.708 -2.72555 -4.22756 0
M  V30 5538 H 559.408 -4.4402 -3.84864 0
M  V30 5539 H 560.932 -3.9599 -4.64784 0
M  V30 5540 H 562.346 -5.07411 -2.66846 0
M  V30 5541 H 560.743 -5.62232 -2.09798 0
M  V30 5542 H 561.813 -4.74732 -0.98781 0
M  V30 5543 N 563.156 0.464375 -1.50603 0
M  V30 5544 C 564.104 1.58224 -1.70493 0
M  V30 5545 C 565.098 1.59492 -0.570836 0
M  V30 5546 O 566.304 1.63561 -0.751517 0
M  V30 5547 H 562.679 0.525161 -0.538247 0
M  V30 5548 H 564.65 1.38613 -2.64252 0
M  V30 5549 C 563.399 2.96113 -1.82243 0
M  V30 5550 H 562.722 2.95858 -2.68901 0
M  V30 5551 H 564.162 3.73769 -2.00182 0
M  V30 5552 C 562.621 3.31946 -0.575628 0
M  V30 5553 O 563.151 4.00708 0.282152 0
M  V30 5554 N 561.357 2.87436 -0.427665 0
M  V30 5555 H 560.904 2.31652 -1.12674 0
M  V30 5556 H 560.862 3.11776 0.405379 0
M  V30 5557 N 564.634 1.40294 0.718013 0
M  V30 5558 C 565.883 1.37746 1.4734 0
M  V30 5559 C 566.196 -0.0180754 1.95592 0
M  V30 5560 O 567.402 -0.166166 2.70991 0
M  V30 5561 C 565.858 2.4208 2.66318 0
M  V30 5562 C 565.466 3.87432 2.24945 0
M  V30 5563 C 567.21 2.48635 3.44065 0
M  V30 5564 C 565.117 4.83368 3.40748 0
M  V30 5565 H 564.047 0.512165 0.553356 0
M  V30 5566 H 566.698 1.66019 0.781661 0
M  V30 5567 H 565.08 2.06903 3.3765 0
M  V30 5568 H 566.254 4.3174 1.6105 0
M  V30 5569 H 564.569 3.8433 1.60249 0
M  V30 5570 H 567.166 3.17499 4.30231 0
M  V30 5571 H 567.509 1.51611 3.87711 0
M  V30 5572 H 568.042 2.82791 2.79775 0
M  V30 5573 H 564.781 5.81716 3.02136 0
M  V30 5574 H 564.301 4.43726 4.03568 0
M  V30 5575 H 565.98 5.03074 4.06848 0
M  V30 5576 N 566.112 -0.949982 1.2575 0
M  V30 5577 C 567.361 -1.68956 1.10168 0
M  V30 5578 C 567.674 -1.92327 -0.356309 0
M  V30 5579 O 568.88 -2.64026 -0.632657 0
M  V30 5580 C 567.336 -3.04196 1.92336 0
M  V30 5581 C 566.944 -2.88603 3.42655 0
M  V30 5582 C 568.688 -3.81904 1.85336 0
M  V30 5583 C 566.595 -4.19262 4.17101 0
M  V30 5584 H 565.525 -0.633645 0.408668 0
M  V30 5585 H 568.176 -1.05719 1.49986 0
M  V30 5586 H 566.558 -3.68363 1.45344 0
M  V30 5587 H 567.732 -2.3334 3.97353 0
M  V30 5588 H 566.047 -2.24345 3.50796 0
M  V30 5589 H 568.644 -4.78688 2.38248 0
M  V30 5590 H 568.987 -4.08099 0.822226 0
M  V30 5591 H 569.52 -3.24495 2.30104 0
M  V30 5592 H 566.259 -3.98254 5.20648 0
M  V30 5593 H 565.779 -4.74273 3.67186 0
M  V30 5594 H 567.458 -4.87775 4.25071 0
M  V30 5595 N 567.59 -1.07411 -1.15328 0
M  V30 5596 C 568.867 -0.710732 -1.82231 0
M  V30 5597 C 569.247 0.806732 -1.95077 0
M  V30 5598 O 568.595 1.72139 -1.50268 0
M  V30 5599 C 568.805 -1.42586 -3.18544 0
M  V30 5600 C 570.153 -1.57836 -3.94174 0
M  V30 5601 O 571.177 -1.38669 -3.281 0
M  V30 5602 O 570.036 -1.8938 -5.12638 0
M  V30 5603 H 567.13 -0.25297 -0.78736 0
M  V30 5604 H 569.676 -1.17508 -1.22434 0
M  V30 5605 H 568.448 -2.46008 -3.04296 0
M  V30 5606 H 568.071 -0.952332 -3.86026 0
M  V30 5607 N 569.068 1.32177 -0.85831 0
M  V30 5608 C 570.308 1.98927 -0.469822 0
M  V30 5609 C 570.672 1.66423 0.95746 0
M  V30 5610 O 571.873 2.26293 1.45069 0
M  V30 5611 C 570.144 3.50352 -0.706288 0
M  V30 5612 S 571.703 4.36824 -0.415918 0
M  V30 5613 H 568.521 0.688909 -0.175855 0
M  V30 5614 H 571.123 1.60807 -1.11181 0
M  V30 5615 H 569.827 3.71497 -1.74407 0
M  V30 5616 H 569.358 3.93367 -0.0508568 0
M  V30 5617 H 571.373 4.90398 0.756581 0
M  V30 5618 N 570.547 0.616602 1.45037 0
M  V30 5619 C 571.793 0.115501 2.02471 0
M  V30 5620 C 572.126 -1.25406 1.4828 0
M  V30 5621 O 571.401 -1.82922 0.661051 0
M  V30 5622 C 571.684 0.0863588 3.59996 0
M  V30 5623 C 571.537 1.48723 4.24501 0
M  V30 5624 C 572.856 -0.596762 4.36035 0
M  V30 5625 H 569.975 0.0434461 0.735718 0
M  V30 5626 H 572.617 0.7903 1.72784 0
M  V30 5627 H 570.767 -0.488277 3.85419 0
M  V30 5628 H 572.439 2.10964 4.10234 0
M  V30 5629 H 570.682 2.04534 3.82555 0
M  V30 5630 H 571.353 1.419 5.3345 0
M  V30 5631 H 573.829 -0.10824 4.15959 0
M  V30 5632 H 572.705 -0.586289 5.4576 0
M  V30 5633 H 572.966 -1.66451 4.09569 0
M  V30 5634 N 572.025 -1.5352 0.356285 0
M  V30 5635 C 572.988 -2.24071 -0.482182 0
M  V30 5636 C 573.988 -1.24531 -1.01729 0
M  V30 5637 O 575.178 -1.48876 -0.904513 0
M  V30 5638 C 572.31 -2.97025 -1.67299 0
M  V30 5639 H 573.503 -2.99596 0.135031 0
M  V30 5640 H 571.056 -1.55928 0.107825 0
M  V30 5641 H 571.791 -2.25719 -2.32855 0
M  V30 5642 H 571.576 -3.7005 -1.29636 0
M  V30 5643 H 573.066 -3.50683 -2.26741 0
M  V30 5644 N 573.503 -0.0852151 -1.57369 0
M  V30 5645 C 574.752 0.580443 -1.93168 0
M  V30 5646 C 575.065 1.6995 -0.968319 0
M  V30 5647 O 576.271 2.42564 -1.21963 0
M  V30 5648 C 574.727 1.08386 -3.43192 0
M  V30 5649 C 574.335 -0.00491388 -4.48 0
M  V30 5650 C 576.079 1.72281 -3.87968 0
M  V30 5651 C 573.986 0.513299 -5.89168 0
M  V30 5652 H 572.916 0.22059 -0.72101 0
M  V30 5653 H 575.567 -0.159621 -1.82804 0
M  V30 5654 H 573.949 1.8773 -3.48674 0
M  V30 5655 H 575.123 -0.780032 -4.5415 0
M  V30 5656 H 573.438 -0.548453 -4.12772 0
M  V30 5657 H 576.035 2.12108 -4.9083 0
M  V30 5658 H 576.378 2.58811 -3.26071 0
M  V30 5659 H 576.911 0.995359 -3.85146 0
M  V30 5660 H 573.65 -0.315153 -6.54742 0
M  V30 5661 H 573.17 1.25564 -5.8651 0
M  V30 5662 H 574.849 0.985433 -6.39451 0
M  V30 5663 N 574.981 1.5647 0.188427 0
M  V30 5664 C 575.911 1.98101 1.23606 0
M  V30 5665 C 576.892 0.853961 1.47111 0
M  V30 5666 O 578.077 1.11879 1.58735 0
M  V30 5667 C 575.207 2.32624 2.57882 0
M  V30 5668 C 574.161 3.48129 2.48978 0
M  V30 5669 C 573.487 3.68347 3.87588 0
M  V30 5670 C 574.787 4.82112 2.00911 0
M  V30 5671 H 576.481 2.85864 0.890068 0
M  V30 5672 H 574.027 1.37532 0.426714 0
M  V30 5673 H 575.98 2.60343 3.3136 0
M  V30 5674 H 574.704 1.41751 2.94235 0
M  V30 5675 H 573.363 3.20511 1.77956 0
M  V30 5676 H 573.011 2.74793 4.21305 0
M  V30 5677 H 572.711 4.46055 3.82503 0
M  V30 5678 H 574.235 3.98449 4.62678 0
M  V30 5679 H 575.649 5.08819 2.64151 0
M  V30 5680 H 574.046 5.63337 2.06814 0
M  V30 5681 H 575.116 4.75249 0.96262 0
M  V30 5682 N 576.459 -0.456382 1.50847 0
M  V30 5683 C 577.87 -1.03685 1.55262 0
M  V30 5684 C 578.221 -1.92779 0.364771 0
M  V30 5685 O 577.346 -2.10043 -0.52068 0
M  V30 5686 C 577.941 -1.88718 2.81374 0
M  V30 5687 C 576.5 -2.41847 2.88422 0
M  V30 5688 C 575.647 -1.20564 2.49719 0
M  V30 5689 H 578.598 -0.238399 1.56899 0
M  V30 5690 H 578.619 -2.73957 2.6406 0
M  V30 5691 H 578.131 -1.23847 3.67809 0
M  V30 5692 H 576.232 -3.10228 2.06372 0
M  V30 5693 H 576.345 -2.75947 3.9165 0
M  V30 5694 H 574.709 -1.54504 2.02486 0
M  V30 5695 H 575.492 -0.573326 3.38479 0
M  V30 5696 N 577.937 -1.40673 -0.710563 0
M  V30 5697 C 579.184 -1.39222 -1.47049 0
M  V30 5698 C 579.512 0.0037691 -1.945 0
M  V30 5699 O 578.767 0.989224 -1.68857 0
M  V30 5700 C 579.066 -2.33253 -2.70791 0
M  V30 5701 C 578.732 -3.80406 -2.42079 0
M  V30 5702 C 577.394 -4.20496 -2.33959 0
M  V30 5703 C 579.746 -4.73375 -2.18094 0
M  V30 5704 C 577.074 -5.51584 -1.99929 0
M  V30 5705 C 579.426 -6.04768 -1.85576 0
M  V30 5706 C 578.09 -6.43895 -1.75941 0
M  V30 5707 H 577.36 -0.509449 -0.538092 0
M  V30 5708 H 580.007 -1.73363 -0.81348 0
M  V30 5709 H 578.312 -1.92314 -3.41354 0
M  V30 5710 H 580.009 -2.29412 -3.28894 0
M  V30 5711 H 576.599 -3.48645 -2.49288 0
M  V30 5712 H 580.783 -4.43217 -2.23321 0
M  V30 5713 H 576.039 -5.80797 -1.91011 0
M  V30 5714 H 580.213 -6.76318 -1.66033 0
M  V30 5715 H 577.84 -7.45387 -1.4934 0
M  V30 5716 N 579.415 0.9433 -1.26252 0
M  V30 5717 C 580.645 1.72117 -1.14277 0
M  V30 5718 C 581.053 1.86726 0.304944 0
M  V30 5719 O 580.396 1.3727 1.22076 0
M  V30 5720 C 580.458 3.14778 -1.73651 0
M  V30 5721 C 580.122 3.23561 -3.22734 0
M  V30 5722 C 581.119 3.07001 -4.19579 0
M  V30 5723 C 578.804 3.47019 -3.63157 0
M  V30 5724 C 580.798 3.13763 -5.54826 0
M  V30 5725 C 578.485 3.53416 -4.98538 0
M  V30 5726 C 579.483 3.36804 -5.94182 0
M  V30 5727 O 579.171 3.42906 -7.27098 0
M  V30 5728 H 578.903 0.545781 -0.398873 0
M  V30 5729 H 581.457 1.19123 -1.67328 0
M  V30 5730 H 579.687 3.69186 -1.1506 0
M  V30 5731 H 581.376 3.74469 -1.56613 0
M  V30 5732 H 582.142 2.88736 -3.89688 0
M  V30 5733 H 578.021 3.59006 -2.89199 0
M  V30 5734 H 581.565 3.00714 -6.29458 0
M  V30 5735 H 577.462 3.71201 -5.28091 0
M  V30 5736 H 578.23 3.59463 -7.35342 0
M  V30 5737 N 580.893 1.08022 1.14757 0
M  V30 5738 C 581.823 0.728248 2.21853 0
M  V30 5739 C 582.804 -0.287486 1.67653 0
M  V30 5740 O 583.989 -0.158727 1.9355 0
M  V30 5741 C 581.119 0.132549 3.47047 0
M  V30 5742 C 580.073 1.07619 4.14249 0
M  V30 5743 C 579.399 0.342907 5.33599 0
M  V30 5744 C 580.699 2.41268 4.63235 0
M  V30 5745 H 582.393 1.62365 2.51551 0
M  V30 5746 H 579.939 0.782125 1.20908 0
M  V30 5747 H 581.892 -0.125665 4.21213 0
M  V30 5748 H 580.616 -0.797971 3.16702 0
M  V30 5749 H 579.275 1.31944 3.42033 0
M  V30 5750 H 578.923 -0.59129 4.99513 0
M  V30 5751 H 578.623 0.971955 5.79506 0
M  V30 5752 H 580.147 0.0926538 6.1053 0
M  V30 5753 H 581.561 2.21232 5.28894 0
M  V30 5754 H 579.958 2.9983 5.19829 0
M  V30 5755 H 581.028 3.03079 3.78512 0
M  V30 5756 N 582.371 -1.3172 0.865308 0
M  V30 5757 C 583.281 -2.32394 0.320935 0
M  V30 5758 C 584.297 -1.64511 -0.566746 0
M  V30 5759 O 585.473 -1.95969 -0.464575 0
M  V30 5760 C 582.538 -3.43462 -0.472701 0
M  V30 5761 C 581.599 -4.27015 0.442385 0
M  V30 5762 C 580.832 -5.32779 -0.313469 0
M  V30 5763 O 581.055 -5.49158 -1.54214 0
M  V30 5764 O 579.989 -6.01015 0.326257 0
M  V30 5765 H 583.815 -2.80868 1.15528 0
M  V30 5766 H 581.4 -1.35535 0.628545 0
M  V30 5767 H 583.282 -4.11172 -0.922781 0
M  V30 5768 H 581.957 -2.97159 -1.28367 0
M  V30 5769 H 580.864 -3.62075 0.940866 0
M  V30 5770 H 582.197 -4.76871 1.21882 0
M  V30 5771 N 583.85 -0.624285 -1.44708 0
M  V30 5772 C 585.096 -0.126237 -2.02407 0
M  V30 5773 C 585.428 1.24618 -1.48943 0
M  V30 5774 O 584.704 1.82569 -0.670742 0
M  V30 5775 C 584.986 -0.105449 -3.59946 0
M  V30 5776 C 584.84 -1.50972 -4.23707 0
M  V30 5777 C 586.159 0.573629 -4.36346 0
M  V30 5778 H 583.278 -0.0473472 -0.735478 0
M  V30 5779 H 585.92 -0.799452 -1.72362 0
M  V30 5780 H 584.07 0.46783 -3.85673 0
M  V30 5781 H 585.742 -2.13136 -4.0911 0
M  V30 5782 H 583.985 -2.0656 -3.81465 0
M  V30 5783 H 584.656 -1.44727 -5.32689 0
M  V30 5784 H 587.132 0.0861787 -4.16011 0
M  V30 5785 H 586.008 0.557338 -5.46063 0
M  V30 5786 H 586.269 1.64276 -4.10446 0
M  V30 5787 N 585.328 1.53329 -0.364422 0
M  V30 5788 C 586.576 2.00842 0.225189 0
M  V30 5789 C 586.897 1.25345 1.49378 0
M  V30 5790 O 586.167 0.366396 1.92443 0
M  V30 5791 H 584.747 0.742009 0.0862027 0
M  V30 5792 H 587.409 1.8863 -0.490389 0
M  V30 5793 H 586.505 3.08795 0.452987 0
M  V30 5794 N 586.806 0.0935595 1.57322 0
M  V30 5795 C 587.736 -0.863062 2.16964 0
M  V30 5796 C 588.717 -1.29528 1.10256 0
M  V30 5797 O 589.902 -1.36245 1.38387 0
M  V30 5798 C 587.032 -2.12276 2.74875 0
M  V30 5799 C 585.986 -1.82921 3.86942 0
M  V30 5800 C 585.312 -3.15707 4.31548 0
M  V30 5801 C 586.612 -1.11737 5.10208 0
M  V30 5802 H 588.306 -0.366145 2.97153 0
M  V30 5803 H 585.852 -0.174673 1.42937 0
M  V30 5804 H 587.805 -2.79634 3.1525 0
M  V30 5805 H 586.529 -2.64248 1.91938 0
M  V30 5806 H 585.188 -1.17961 3.47103 0
M  V30 5807 H 584.836 -3.65563 3.45504 0
M  V30 5808 H 584.536 -2.96849 5.07104 0
M  V30 5809 H 586.06 -3.84226 4.74555 0
M  V30 5810 H 587.474 -1.69203 5.47762 0
M  V30 5811 H 585.871 -1.03064 5.91183 0
M  V30 5812 H 586.941 -0.0998818 4.84797 0
M  V30 5813 N 588.284 -1.56567 -0.180126 0
M  V30 5814 C 589.509 -1.85975 -0.918041 0
M  V30 5815 C 589.934 -0.678888 -1.75422 0
M  V30 5816 O 589.292 0.372168 -1.77439 0
M  V30 5817 C 589.34 -3.13731 -1.77779 0
M  V30 5818 O 588.444 -2.95335 -2.87838 0
M  V30 5819 H 587.785 -0.61196 -0.257683 0
M  V30 5820 H 590.315 -2.03798 -0.180923 0
M  V30 5821 H 590.325 -3.4491 -2.17948 0
M  V30 5822 H 589 -3.99293 -1.16352 0
M  V30 5823 H 587.577 -2.7549 -2.51316 0
M  V30 5824 N 589.762 0.448376 -1.51087 0
M  V30 5825 C 591.01 1.19635 -1.62886 0
M  V30 5826 C 591.331 1.91977 -0.342024 0
M  V30 5827 O 590.601 1.85094 0.641636 0
M  V30 5828 H 589.181 0.444598 -0.600285 0
M  V30 5829 H 591.843 0.515138 -1.87969 0
M  V30 5830 H 590.939 1.93194 -2.45117 0
M  V30 5831 N 591.24 1.41047 0.703093 0
M  V30 5832 C 592.17 1.45067 1.82969 0
M  V30 5833 C 593.151 0.31016 1.67248 0
M  V30 5834 O 594.336 0.520548 1.87093 0
M  V30 5835 C 591.466 1.32478 3.2104 0
M  V30 5836 C 590.42 2.44262 3.51454 0
M  V30 5837 C 589.746 2.16742 4.88801 0
M  V30 5838 C 591.046 3.86606 3.51189 0
M  V30 5839 H 592.74 2.39353 1.79863 0
M  V30 5840 H 590.286 1.15206 0.863919 0
M  V30 5841 H 592.239 1.33904 3.99559 0
M  V30 5842 H 590.963 0.346735 3.24754 0
M  V30 5843 H 589.622 2.42107 2.75282 0
M  V30 5844 H 589.27 1.17299 4.89132 0
M  V30 5845 H 588.97 2.91643 5.10116 0
M  V30 5846 H 590.494 2.19872 5.69639 0
M  V30 5847 H 591.908 3.90517 4.19725 0
M  V30 5848 H 590.305 4.61128 3.84033 0
M  V30 5849 H 591.375 4.15296 2.50315 0
M  V30 5850 N 592.718 -0.936591 1.26751 0
M  V30 5851 C 593.943 -1.72288 1.15462 0
M  V30 5852 C 594.368 -1.85915 -0.285887 0
M  V30 5853 O 593.726 -1.35272 -1.20711 0
M  V30 5854 C 593.774 -3.10503 1.83359 0
M  V30 5855 O 592.878 -3.96745 1.1255 0
M  V30 5856 H 592.219 -0.52843 0.402067 0
M  V30 5857 H 594.749 -1.17271 1.67656 0
M  V30 5858 H 594.759 -3.60867 1.90365 0
M  V30 5859 H 593.434 -2.99901 2.88153 0
M  V30 5860 H 592.011 -3.55191 1.13551 0
M  V30 5861 N 594.196 -1.08629 -1.14182 0
M  V30 5862 C 595.421 -0.83902 -1.89671 0
M  V30 5863 C 595.846 0.603332 -1.78161 0
M  V30 5864 O 595.204 1.42301 -1.12339 0
M  V30 5865 C 595.252 -1.26854 -3.37551 0
M  V30 5866 O 594.356 -0.42188 -4.10236 0
M  V30 5867 H 593.697 -0.304545 -0.590041 0
M  V30 5868 H 596.227 -1.4483 -1.44518 0
M  V30 5869 H 596.237 -1.25038 -3.88368 0
M  V30 5870 H 594.912 -2.31901 -3.45246 0
M  V30 5871 H 593.489 -0.503654 -3.69483 0
M  V30 5872 N 595.674 1.31259 -0.872281 0
M  V30 5873 C 596.621 2.28459 -0.327857 0
M  V30 5874 C 597.591 1.55831 0.574957 0
M  V30 5875 O 598.776 1.83965 0.506101 0
M  V30 5876 C 595.916 3.41985 0.462644 0
M  V30 5877 C 595.029 4.29458 -0.467949 0
M  V30 5878 C 594.164 5.30131 0.336903 0
M  V30 5879 C 593.203 6.0925 -0.58997 0
M  V30 5880 N 592.34 7.01872 0.178775 0
M  V30 5881 H 597.18 2.74414 -1.16193 0
M  V30 5882 H 594.717 1.34994 -0.584376 0
M  V30 5883 H 596.675 4.06547 0.936759 0
M  V30 5884 H 595.305 2.97134 1.2614 0
M  V30 5885 H 594.357 3.65318 -1.06052 0
M  V30 5886 H 595.669 4.84677 -1.17856 0
M  V30 5887 H 594.823 6.0038 0.873427 0
M  V30 5888 H 593.562 4.75573 1.08079 0
M  V30 5889 H 592.567 5.37889 -1.13823 0
M  V30 5890 H 593.792 6.65894 -1.33275 0
M  V30 5891 H 591.738 6.49721 0.905435 0
M  V30 5892 H 591.655 7.54522 -0.472452 0
M  V30 5893 H 592.923 7.76382 0.696454 0
M  V30 5894 N 597.152 0.631951 1.44375 0
M  V30 5895 C 598.115 -0.0628142 2.29114 0
M  V30 5896 C 599.115 -0.771494 1.41084 0
M  V30 5897 O 600.305 -0.615959 1.62947 0
M  V30 5898 C 597.437 -1.09953 3.22681 0
M  V30 5899 H 598.63 0.682509 2.92031 0
M  V30 5900 H 596.183 0.392128 1.51301 0
M  V30 5901 H 596.918 -1.87481 2.64616 0
M  V30 5902 H 596.703 -0.595286 3.87555 0
M  V30 5903 H 598.193 -1.58538 3.86336 0
M  V30 5904 N 598.631 -1.53133 0.372548 0
M  V30 5905 C 599.594 -2.24569 -0.458389 0
M  V30 5906 C 600.594 -1.25603 -1.00402 0
M  V30 5907 O 601.784 -1.49827 -0.888672 0
M  V30 5908 C 598.916 -2.98783 -1.6414 0
M  V30 5909 H 600.109 -2.99436 0.166799 0
M  V30 5910 H 597.662 -1.55805 0.124357 0
M  V30 5911 H 598.397 -2.28176 -2.30448 0
M  V30 5912 H 598.182 -3.71404 -1.25704 0
M  V30 5913 H 599.672 -3.53068 -2.23008 0
M  V30 5914 N 600.109 -0.101901 -1.5727 0
M  V30 5915 C 601.056 0.854577 -2.14396 0
M  V30 5916 C 602.026 1.27521 -1.06432 0
M  V30 5917 O 603.211 1.35575 -1.34253 0
M  V30 5918 C 600.351 2.10576 -2.73408 0
M  V30 5919 C 599.464 1.73504 -3.95626 0
M  V30 5920 C 598.599 2.9346 -4.42781 0
M  V30 5921 C 597.638 2.52547 -5.57572 0
M  V30 5922 N 596.775 3.65359 -5.99547 0
M  V30 5923 H 601.615 0.360578 -2.9581 0
M  V30 5924 H 599.152 0.166303 -1.46157 0
M  V30 5925 H 601.11 2.83859 -3.05745 0
M  V30 5926 H 599.74 2.57463 -1.94711 0
M  V30 5927 H 598.792 0.901622 -3.6956 0
M  V30 5928 H 600.104 1.39426 -4.78917 0
M  V30 5929 H 599.258 3.74988 -4.76937 0
M  V30 5930 H 597.997 3.30753 -3.58404 0
M  V30 5931 H 597.002 1.69446 -5.23037 0
M  V30 5932 H 598.227 2.1639 -6.43702 0
M  V30 5933 H 596.173 4.02358 -5.18116 0
M  V30 5934 H 596.09 3.35148 -6.77652 0
M  V30 5935 H 597.358 4.47378 -6.38336 0
M  V30 5936 N 601.587 1.56661 0.17182 0
M  V30 5937 C 602.864 1.72838 0.915778 0
M  V30 5938 C 603.244 0.66316 2.00413 0
M  V30 5939 O 602.592 -0.322123 2.26218 0
M  V30 5940 C 602.802 3.16019 1.48097 0
M  V30 5941 C 604.15 3.76962 1.95408 0
M  V30 5942 O 605.174 3.19294 1.57892 0
M  V30 5943 O 604.033 4.78219 2.64516 0
M  V30 5944 H 601.127 0.705797 0.431021 0
M  V30 5945 H 603.673 1.68947 0.159689 0
M  V30 5946 H 602.445 3.85031 0.697618 0
M  V30 5947 H 602.068 3.24234 2.30126 0
M  V30 5948 N 603.065 -0.440357 1.51323 0
M  V30 5949 C 604.311 -1.19181 1.64085 0
M  V30 5950 C 604.644 -1.90936 0.354575 0
M  V30 5951 O 603.919 -1.8347 -0.645675 0
M  V30 5952 C 604.202 -2.2112 2.84215 0
M  V30 5953 C 604.055 -1.53468 4.22809 0
M  V30 5954 C 605.374 -3.22133 2.99864 0
M  V30 5955 H 602.493 -0.431924 0.597169 0
M  V30 5956 H 605.135 -0.481443 1.83799 0
M  V30 5957 H 603.285 -2.81703 2.67537 0
M  V30 5958 H 604.957 -0.962455 4.51148 0
M  V30 5959 H 603.2 -0.837086 4.25647 0
M  V30 5960 H 603.871 -2.27694 5.02852 0
M  V30 5961 H 606.347 -2.71601 3.15233 0
M  V30 5962 H 605.223 -3.90756 3.85488 0
M  V30 5963 H 605.484 -3.88061 2.11804 0
M  V30 5964 N 604.543 -1.41418 -0.695603 0
M  V30 5965 C 605.473 -1.46035 -1.82197 0
M  V30 5966 C 606.454 -0.319025 -1.67082 0
M  V30 5967 O 607.639 -0.530462 -1.86815 0
M  V30 5968 C 604.769 -1.34179 -3.20333 0
M  V30 5969 C 603.723 -2.46123 -3.50154 0
M  V30 5970 C 603.049 -2.19332 -4.87645 0
M  V30 5971 C 604.349 -3.88463 -3.49133 0
M  V30 5972 H 606.043 -2.40303 -1.78591 0
M  V30 5973 H 603.589 -1.15663 -0.857797 0
M  V30 5974 H 605.542 -1.36021 -3.98844 0
M  V30 5975 H 604.266 -0.363952 -3.24566 0
M  V30 5976 H 602.925 -2.43563 -2.73994 0
M  V30 5977 H 602.573 -1.19891 -4.88503 0
M  V30 5978 H 602.273 -2.94344 -5.08562 0
M  V30 5979 H 603.797 -2.22889 -5.68465 0
M  V30 5980 H 605.211 -3.92738 -4.17648 0
M  V30 5981 H 603.608 -4.63158 -3.81582 0
M  V30 5982 H 604.678 -4.16617 -2.48109 0
M  V30 5983 N 606.021 0.929856 -1.27246 0
M  V30 5984 C 607.269 1.674 -1.13233 0
M  V30 5985 C 607.59 1.92311 0.322744 0
M  V30 5986 O 606.86 1.52784 1.22612 0
M  V30 5987 H 605.44 0.620411 -0.416052 0
M  V30 5988 H 608.102 1.11663 -1.59741 0
M  V30 5989 H 607.198 2.64308 -1.65975 0
M  V30 5990 N 607.499 1.09233 1.13605 0
M  V30 5991 C 608.746 0.827159 1.84836 0
M  V30 5992 C 609.074 -0.647199 1.83416 0
M  V30 5993 O 608.329 -1.49228 1.26608 0
M  V30 5994 C 608.628 1.305 3.32723 0
M  V30 5995 C 608.294 2.78864 3.54325 0
M  V30 5996 C 606.956 3.19382 3.59928 0
M  V30 5997 C 609.308 3.74532 3.62457 0
M  V30 5998 C 606.636 4.54346 3.71196 0
M  V30 5999 C 608.988 5.09283 3.75252 0
M  V30 6000 C 607.652 5.49394 3.79108 0
M  V30 6001 H 606.922 0.302679 0.676363 0
M  V30 6002 H 609.569 1.36676 1.34134 0
M  V30 6003 H 607.874 0.68517 3.85762 0
M  V30 6004 H 609.571 1.07648 3.86281 0
M  V30 6005 H 606.161 2.46507 3.50617 0
M  V30 6006 H 610.345 3.44343 3.57409 0
M  V30 6007 H 605.601 4.84864 3.72447 0
M  V30 6008 H 609.775 5.83269 3.80487 0
M  V30 6009 H 607.402 6.5397 3.87591 0
M  V30 6010 N 608.977 -1.30795 0.87923 0
M  V30 6011 C 609.907 -2.30742 0.357796 0
M  V30 6012 C 610.888 -1.60747 -0.556283 0
M  V30 6013 O 612.073 -1.88393 -0.47135 0
M  V30 6014 C 609.203 -3.44583 -0.433555 0
M  V30 6015 C 608.157 -4.26235 0.388251 0
M  V30 6016 C 607.483 -5.32073 -0.529352 0
M  V30 6017 C 608.783 -4.96303 1.62729 0
M  V30 6018 H 610.477 -2.74605 1.19299 0
M  V30 6019 H 608.023 -1.32017 0.575104 0
M  V30 6020 H 609.976 -4.13563 -0.808934 0
M  V30 6021 H 608.7 -2.99511 -1.30234 0
M  V30 6022 H 607.359 -3.58936 0.745695 0
M  V30 6023 H 607.007 -4.83249 -1.39569 0
M  V30 6024 H 606.707 -5.87598 0.0166741 0
M  V30 6025 H 608.231 -6.0391 -0.901373 0
M  V30 6026 H 609.645 -5.5783 1.32283 0
M  V30 6027 H 608.042 -5.61666 2.11309 0
M  V30 6028 H 609.112 -4.22758 2.37494 0
M  V30 6029 N 610.455 -0.639598 -1.44038 0
M  V30 6030 C 611.871 -0.305953 -1.5664 0
M  V30 6031 C 612.071 1.19055 -1.62567 0
M  V30 6032 O 611.127 1.97492 -1.57331 0
M  V30 6033 C 612.44 -1.00533 -2.83397 0
M  V30 6034 C 613.988 -0.984278 -2.97121 0
M  V30 6035 C 614.463 -1.66428 -4.26691 0
M  V30 6036 N 615.954 -1.63127 -4.33525 0
M  V30 6037 C 616.689 -2.12629 -5.32519 0
M  V30 6038 N 616.185 -2.70359 -6.3787 0
M  V30 6039 N 617.978 -2.03208 -5.24083 0
M  V30 6040 H 610.129 -1.6109 -1.38434 0
M  V30 6041 H 612.392 -0.676672 -0.663942 0
M  V30 6042 H 612.098 -2.06034 -2.85032 0
M  V30 6043 H 611.972 -0.548362 -3.73193 0
M  V30 6044 H 614.359 0.0622792 -2.95034 0
M  V30 6045 H 614.44 -1.47981 -2.08651 0
M  V30 6046 H 614.084 -2.71034 -4.29538 0
M  V30 6047 H 614.014 -1.14351 -5.14034 0
M  V30 6048 H 616.505 -1.20987 -3.58009 0
M  V30 6049 H 616.818 -3.05842 -7.09704 0
M  V30 6050 H 615.163 -2.74414 -6.38531 0
M  V30 6051 H 618.354 -1.57823 -4.40692 0
M  V30 6052 H 618.527 -2.42097 -6.01077 0
M  V30 6053 N 611.933 1.52934 -0.380664 0
M  V30 6054 C 613.179 2.01765 0.20458 0
M  V30 6055 C 613.512 1.26696 1.47179 0
M  V30 6056 O 612.787 0.364936 1.91046 0
M  V30 6057 C 613.07 3.56869 0.481269 0
M  V30 6058 C 612.923 4.42617 -0.800629 0
M  V30 6059 C 614.242 4.2121 1.27554 0
M  V30 6060 H 611.361 0.733388 0.0728803 0
M  V30 6061 H 614.003 1.83068 -0.50853 0
M  V30 6062 H 612.153 3.72932 1.08875 0
M  V30 6063 H 613.825 4.38323 -1.43773 0
M  V30 6064 H 612.068 4.09977 -1.4178 0
M  V30 6065 H 612.739 5.49134 -0.561791 0
M  V30 6066 H 615.215 4.09072 0.761514 0
M  V30 6067 H 614.091 5.29732 1.43788 0
M  V30 6068 H 614.352 3.78269 2.28833 0
M  V30 6069 N 613.412 0.11024 1.57214 0
M  V30 6070 C 614.658 -0.550684 1.9518 0
M  V30 6071 C 614.991 -1.66885 0.993122 0
M  V30 6072 O 614.266 -1.94479 0.0287907 0
M  V30 6073 C 614.549 -1.09163 3.43155 0
M  V30 6074 C 614.402 0.0225198 4.49794 0
M  V30 6075 C 615.721 -1.98527 3.92778 0
M  V30 6076 H 612.84 -0.198706 0.709708 0
M  V30 6077 H 615.482 0.184024 1.89107 0
M  V30 6078 H 613.632 -1.71775 3.48462 0
M  V30 6079 H 615.304 0.657443 4.56591 0
M  V30 6080 H 613.547 0.686868 4.28328 0
M  V30 6081 H 614.218 -0.39706 5.5057 0
M  V30 6082 H 616.694 -1.458 3.8972 0
M  V30 6083 H 615.57 -2.33298 4.96853 0
M  V30 6084 H 615.831 -2.90846 3.32958 0
M  V30 6085 N 614.89 -1.56749 -0.16351 0
M  V30 6086 C 616.306 -1.51043 -0.515567 0
M  V30 6087 C 616.506 -0.815855 -1.84245 0
M  V30 6088 O 615.562 -0.379477 -2.49632 0
M  V30 6089 C 616.875 -2.95791 -0.541114 0
M  V30 6090 C 618.423 -3.0664 -0.627776 0
M  V30 6091 C 618.898 -4.52861 -0.684141 0
M  V30 6092 N 620.389 -4.5714 -0.746818 0
M  V30 6093 C 621.124 -5.67634 -0.811137 0
M  V30 6094 N 620.62 -6.8774 -0.835811 0
M  V30 6095 N 622.413 -5.55624 -0.850756 0
M  V30 6096 H 614.564 -2.00307 0.70645 0
M  V30 6097 H 616.827 -0.912876 0.255659 0
M  V30 6098 H 616.533 -3.49797 0.365329 0
M  V30 6099 H 616.407 -3.50858 -1.38487 0
M  V30 6100 H 618.794 -2.52663 -1.52464 0
M  V30 6101 H 618.875 -2.54645 0.242805 0
M  V30 6102 H 618.519 -5.07472 0.2085 0
M  V30 6103 H 618.449 -5.02621 -1.57098 0
M  V30 6104 H 620.94 -3.70669 -0.735717 0
M  V30 6105 H 621.253 -7.67701 -0.886279 0
M  V30 6106 H 619.598 -6.90334 -0.803958 0
M  V30 6107 H 622.789 -4.60709 -0.828535 0
M  V30 6108 H 622.962 -6.41756 -0.897418 0
M  V30 6109 N 616.368 0.432326 -1.51554 0
M  V30 6110 C 617.615 1.18134 -1.64471 0
M  V30 6111 C 617.943 1.91076 -0.363349 0
M  V30 6112 O 617.198 1.84492 0.65279 0
M  V30 6113 C 617.497 2.21907 -2.80164 0
M  V30 6114 C 617.163 1.65941 -4.19255 0
M  V30 6115 C 615.825 1.50401 -4.57092 0
M  V30 6116 C 618.177 1.24843 -5.06027 0
M  V30 6117 C 615.505 0.922443 -5.79403 0
M  V30 6118 C 617.857 0.68113 -6.28922 0
M  V30 6119 C 616.521 0.512673 -6.65528 0
M  V30 6120 H 615.791 0.432283 -0.601841 0
M  V30 6121 H 618.438 0.471701 -1.856 0
M  V30 6122 H 616.743 2.98928 -2.53277 0
M  V30 6123 H 618.44 2.79691 -2.87357 0
M  V30 6124 H 615.03 1.79014 -3.89425 0
M  V30 6125 H 619.214 1.35667 -4.77397 0
M  V30 6126 H 614.47 0.779733 -6.06408 0
M  V30 6127 H 618.644 0.35418 -6.95499 0
M  V30 6128 H 616.271 0.0599084 -7.60176 0
M  V30 6129 N 617.846 1.41785 0.688094 0
M  V30 6130 C 619.092 1.41753 1.4503 0
M  V30 6131 C 619.425 0.0290745 1.94178 0
M  V30 6132 O 618.7 -0.944456 1.7003 0
M  V30 6133 C 618.983 2.43069 2.65686 0
M  V30 6134 C 618.836 3.91053 2.22256 0
M  V30 6135 C 620.155 2.41543 3.67893 0
M  V30 6136 H 617.274 0.516202 0.526027 0
M  V30 6137 H 619.916 1.73111 0.783105 0
M  V30 6138 H 618.066 2.1646 3.2261 0
M  V30 6139 H 619.738 4.28594 1.70602 0
M  V30 6140 H 617.981 4.05559 1.53963 0
M  V30 6141 H 618.652 4.57501 3.08863 0
M  V30 6142 H 621.128 2.65175 3.20658 0
M  V30 6143 H 620.004 3.14434 4.49914 0
M  V30 6144 H 620.265 1.43666 4.18106 0
M  V30 6145 N 619.324 -0.923095 1.27737 0
M  V30 6146 C 620.74 -1.19985 1.05241 0
M  V30 6147 C 620.94 -2.00391 -0.21113 0
M  V30 6148 O 619.996 -2.35324 -0.915366 0
M  V30 6149 C 621.309 -1.94352 2.29451 0
M  V30 6150 C 622.857 -2.07273 2.34536 0
M  V30 6151 C 623.332 -2.85046 3.58487 0
M  V30 6152 N 624.823 -2.92612 3.59072 0
M  V30 6153 C 625.558 -3.53266 4.51654 0
M  V30 6154 N 625.054 -4.15274 5.54545 0
M  V30 6155 N 626.847 -3.50714 4.39268 0
M  V30 6156 H 618.998 -0.386042 2.08862 0
M  V30 6157 H 621.261 -0.233407 0.918817 0
M  V30 6158 H 620.967 -1.42692 3.21453 0
M  V30 6159 H 620.841 -2.94947 2.3513 0
M  V30 6160 H 623.228 -2.58117 1.43037 0
M  V30 6161 H 623.309 -1.05884 2.32857 0
M  V30 6162 H 622.953 -2.34884 4.50324 0
M  V30 6163 H 622.883 -3.8673 3.57418 0
M  V30 6164 H 625.374 -2.48547 2.84663 0
M  V30 6165 H 625.687 -4.59507 6.21348 0
M  V30 6166 H 624.032 -4.13806 5.58382 0
M  V30 6167 H 627.223 -3.01475 3.58093 0
M  V30 6168 H 627.396 -3.97693 5.1161 0
M  V30 6169 N 620.802 -1.09834 -1.13024 0
M  V30 6170 C 622.051 -0.831806 -1.83749 0
M  V30 6171 C 622.364 0.644763 -1.84668 0
M  V30 6172 O 623.57 1.02697 -2.51327 0
M  V30 6173 C 622.026 -1.43817 -3.29916 0
M  V30 6174 C 621.634 -2.94759 -3.37374 0
M  V30 6175 C 623.378 -1.25077 -4.05655 0
M  V30 6176 C 621.285 -3.48461 -4.77838 0
M  V30 6177 H 620.215 -0.30751 -0.688443 0
M  V30 6178 H 622.866 -1.32156 -1.27307 0
M  V30 6179 H 621.248 -0.876106 -3.86187 0
M  V30 6180 H 622.422 -3.57228 -2.91076 0
M  V30 6181 H 620.737 -3.12581 -2.75103 0
M  V30 6182 H 623.334 -1.62649 -5.09362 0
M  V30 6183 H 623.677 -0.191782 -4.15858 0
M  V30 6184 H 624.21 -1.78057 -3.55725 0
M  V30 6185 H 620.949 -4.53998 -4.72828 0
M  V30 6186 H 620.469 -2.90757 -5.24615 0
M  V30 6187 H 622.148 -3.45914 -5.46766 0
M  V30 6188 N 622.28 1.30327 -0.886154 0
M  V30 6189 C 623.21 2.30549 -0.370028 0
M  V30 6190 C 624.191 1.61039 0.547751 0
M  V30 6191 O 625.376 1.8864 0.461353 0
M  V30 6192 C 622.506 3.44808 0.415275 0
M  V30 6193 C 621.46 4.26024 -0.41085 0
M  V30 6194 C 620.786 5.32347 0.501128 0
M  V30 6195 C 622.086 4.95433 -1.65359 0
M  V30 6196 H 623.78 2.73969 -1.20754 0
M  V30 6197 H 621.326 1.3171 -0.582097 0
M  V30 6198 H 623.279 4.13986 0.78699 0
M  V30 6199 H 622.003 3.00197 1.28644 0
M  V30 6200 H 620.662 3.58535 -0.764719 0
M  V30 6201 H 620.31 4.83982 1.37004 0
M  V30 6202 H 620.01 5.87581 -0.0478356 0
M  V30 6203 H 621.534 6.0438 0.869333 0
M  V30 6204 H 622.948 5.5712 -1.35239 0
M  V30 6205 H 621.345 5.60537 -2.14284 0
M  V30 6206 H 622.415 4.21493 -2.39733 0
M  V30 6207 N 623.758 0.647228 1.43697 0
M  V30 6208 C 625.174 0.314256 1.56476 0
M  V30 6209 C 625.374 -1.18191 1.63196 0
M  V30 6210 O 624.43 -1.96655 1.58376 0
M  V30 6211 C 625.743 1.02034 2.82859 0
M  V30 6212 C 627.291 1.00002 2.96595 0
M  V30 6213 C 627.766 1.68689 4.25803 0
M  V30 6214 N 629.257 1.65424 4.32654 0
M  V30 6215 C 629.992 2.1545 5.31384 0
M  V30 6216 N 629.488 2.73738 6.36427 0
M  V30 6217 N 631.281 2.05985 5.22998 0
M  V30 6218 H 623.432 1.61821 1.37578 0
M  V30 6219 H 625.695 0.680184 0.660344 0
M  V30 6220 H 625.401 2.07542 2.83935 0
M  V30 6221 H 625.275 0.568146 3.72897 0
M  V30 6222 H 627.662 -0.0466319 2.95063 0
M  V30 6223 H 627.743 1.49086 2.07863 0
M  V30 6224 H 627.387 2.73308 4.28095 0
M  V30 6225 H 627.317 1.17076 5.13421 0
M  V30 6226 H 629.808 1.22884 3.57363 0
M  V30 6227 H 630.121 3.09602 7.08072 0
M  V30 6228 H 628.466 2.77796 6.37067 0
M  V30 6229 H 631.657 1.60157 4.39849 0
M  V30 6230 H 631.83 2.45281 5.99784 0
M  V30 6231 N 625.236 -1.5273 0.388769 0
M  V30 6232 C 626.485 -2.00757 -0.194833 0
M  V30 6233 C 626.798 -1.27951 -1.47946 0
M  V30 6234 O 628.004 -1.66686 -2.14308 0
M  V30 6235 C 626.46 -3.57695 -0.397762 0
M  V30 6236 C 626.068 -4.394 0.873583 0
M  V30 6237 C 627.812 -4.14012 -0.937759 0
M  V30 6238 C 625.719 -5.87938 0.638962 0
M  V30 6239 H 624.649 -0.750101 -0.0765845 0
M  V30 6240 H 627.3 -1.76239 0.511086 0
M  V30 6241 H 625.682 -3.7846 -1.16552 0
M  V30 6242 H 626.856 -4.30403 1.64591 0
M  V30 6243 H 625.171 -3.94301 1.33849 0
M  V30 6244 H 627.768 -5.22645 -1.12899 0
M  V30 6245 H 628.111 -3.7007 -1.90666 0
M  V30 6246 H 628.644 -3.97137 -0.229588 0
M  V30 6247 H 625.383 -6.36202 1.57885 0
M  V30 6248 H 624.903 -5.99726 -0.094443 0
M  V30 6249 H 626.582 -6.46423 0.273299 0
M  V30 6250 N 626.714 -0.118576 -1.57153 0
M  V30 6251 C 627.961 0.539526 -1.9518 0
M  V30 6252 C 628.289 1.66714 -1.00184 0
M  V30 6253 O 627.544 1.95683 -0.0256482 0
M  V30 6254 C 627.843 1.11303 -3.39627 0
M  V30 6255 C 627.509 0.106809 -4.50773 0
M  V30 6256 C 626.171 -0.169876 -4.809 0
M  V30 6257 C 628.523 -0.57895 -5.17975 0
M  V30 6258 C 625.851 -1.13861 -5.75545 0
M  V30 6259 C 628.203 -1.53631 -6.13661 0
M  V30 6260 C 626.867 -1.82099 -6.42181 0
M  V30 6261 H 626.137 0.197427 -0.714215 0
M  V30 6262 H 628.784 -0.199391 -1.90459 0
M  V30 6263 H 627.089 1.92869 -3.4104 0
M  V30 6264 H 628.786 1.63032 -3.66363 0
M  V30 6265 H 625.376 0.332645 -4.27307 0
M  V30 6266 H 629.56 -0.378359 -4.94856 0
M  V30 6267 H 624.816 -1.36592 -5.95947 0
M  V30 6268 H 628.99 -2.07337 -6.64819 0
M  V30 6269 H 626.617 -2.57319 -7.15326 0
M  V30 6270 N 628.193 1.56834 0.155195 0
M  V30 6271 C 629.14 1.97646 1.19184 0
M  V30 6272 C 630.11 0.842788 1.4313 0
M  V30 6273 O 631.295 1.1042 1.55602 0
M  V30 6274 C 628.435 2.35527 2.52232 0
M  V30 6275 C 627.548 3.62147 2.35529 0
M  V30 6276 C 626.683 3.89167 3.61555 0
M  V30 6277 C 625.722 5.09084 3.39853 0
M  V30 6278 N 624.859 5.32156 4.5799 0
M  V30 6279 H 629.699 2.8601 0.836802 0
M  V30 6280 H 627.236 1.41507 0.401758 0
M  V30 6281 H 629.194 2.55516 3.29799 0
M  V30 6282 H 627.824 1.50253 2.85699 0
M  V30 6283 H 626.876 3.4998 1.49057 0
M  V30 6284 H 628.188 4.49871 2.15448 0
M  V30 6285 H 627.342 4.09611 4.47553 0
M  V30 6286 H 626.081 2.9985 3.84632 0
M  V30 6287 H 625.086 4.88522 2.52243 0
M  V30 6288 H 626.311 5.99947 3.18183 0
M  V30 6289 H 624.257 4.45791 4.81255 0
M  V30 6290 H 624.174 6.14133 4.40882 0
M  V30 6291 H 625.442 5.57091 5.45225 0
M  V30 6292 N 629.671 -0.424282 1.51781 0
M  V30 6293 C 630.601 -1.52305 1.7699 0
M  V30 6294 C 631.582 -1.5839 0.620209 0
M  V30 6295 O 632.767 -1.73908 0.864268 0
M  V30 6296 C 629.897 -2.90271 1.90683 0
M  V30 6297 C 628.851 -2.99043 3.06198 0
M  V30 6298 C 628.177 -4.39116 3.05092 0
M  V30 6299 C 629.477 -2.7192 4.45934 0
M  V30 6300 H 631.171 -1.31461 2.68995 0
M  V30 6301 H 628.717 -0.630985 1.29439 0
M  V30 6302 H 630.67 -3.6711 2.06901 0
M  V30 6303 H 629.394 -3.12376 0.953365 0
M  V30 6304 H 628.053 -2.24646 2.89706 0
M  V30 6305 H 627.701 -4.58207 2.07498 0
M  V30 6306 H 627.401 -4.45912 3.82669 0
M  V30 6307 H 628.925 -5.17911 3.2342 0
M  V30 6308 H 630.339 -3.38487 4.62709 0
M  V30 6309 H 628.736 -2.90111 5.25315 0
M  V30 6310 H 629.806 -1.67445 4.55072 0
M  V30 6311 N 631.149 -1.42148 -0.680565 0
M  V30 6312 C 632.377 -1.45696 -1.46902 0
M  V30 6313 C 632.792 -0.0665858 -1.88683 0
M  V30 6314 O 632.149 0.917436 -1.57764 0
M  V30 6315 C 632.2 -2.37898 -2.72188 0
M  V30 6316 O 631.921 -3.71526 -2.32163 0
M  V30 6317 C 633.422 -2.50407 -3.65802 0
M  V30 6318 H 630.642 -0.495729 -0.45221 0
M  V30 6319 H 633.186 -1.866 -0.836709 0
M  V30 6320 H 631.341 -2.00263 -3.31622 0
M  V30 6321 H 631.755 -4.20849 -3.13027 0
M  V30 6322 H 633.229 -3.19056 -4.50452 0
M  V30 6323 H 633.706 -1.5401 -4.11312 0
M  V30 6324 H 634.312 -2.8874 -3.12265 0
M  V30 6325 N 632.627 0.916307 -1.28225 0
M  V30 6326 C 634.043 1.19425 -1.05876 0
M  V30 6327 C 634.243 2.005 0.2005 0
M  V30 6328 O 633.299 2.35806 0.902873 0
M  V30 6329 C 634.612 1.93133 -2.30478 0
M  V30 6330 C 636.16 2.06026 -2.35632 0
M  V30 6331 C 636.635 2.83141 -3.59994 0
M  V30 6332 N 638.126 2.90704 -3.60618 0
M  V30 6333 C 638.861 3.50865 -4.53521 0
M  V30 6334 N 638.357 4.12327 -5.56739 0
M  V30 6335 N 640.15 3.48379 -4.41122 0
M  V30 6336 H 632.301 0.37496 -2.09064 0
M  V30 6337 H 634.564 0.228531 -0.920042 0
M  V30 6338 H 634.27 1.40985 -3.22205 0
M  V30 6339 H 634.144 2.93696 -2.36691 0
M  V30 6340 H 636.531 2.57355 -1.44404 0
M  V30 6341 H 636.612 1.04647 -2.33415 0
M  V30 6342 H 636.256 2.32492 -4.51564 0
M  V30 6343 H 636.186 3.84829 -3.59464 0
M  V30 6344 H 638.677 2.47034 -2.85977 0
M  V30 6345 H 638.99 4.56205 -6.23776 0
M  V30 6346 H 637.335 4.10839 -5.60568 0
M  V30 6347 H 640.526 2.99572 -3.59686 0
M  V30 6348 H 640.699 3.94974 -5.13712 0
M  V30 6349 N 634.105 1.10431 1.1244 0
M  V30 6350 C 635.055 0.722378 2.16254 0
M  V30 6351 C 636.039 -0.268427 1.58645 0
M  V30 6352 O 637.231 -0.077169 1.76832 0
M  V30 6353 C 634.36 0.155763 3.42946 0
M  V30 6354 C 633.446 1.17361 4.07538 0
M  V30 6355 N 633.837 2.36429 4.47141 0
M  V30 6356 C 632.135 1.01412 4.34317 0
M  V30 6357 C 632.836 3.01259 4.97612 0
M  V30 6358 N 631.812 2.28777 4.93115 0
M  V30 6359 H 635.614 1.62876 2.4464 0
M  V30 6360 H 633.128 0.982031 1.29344 0
M  V30 6361 H 635.125 -0.135936 4.16678 0
M  V30 6362 H 633.785 -0.745339 3.1603 0
M  V30 6363 H 634.796 2.73954 4.39511 0
M  V30 6364 H 631.473 0.168574 4.1716 0
M  V30 6365 H 632.863 4.02541 5.37968 0
M  V30 6366 N 635.583 -1.29855 0.893053 0
M  V30 6367 C 636.83 -1.95826 0.515585 0
M  V30 6368 C 637.158 -1.70451 -0.936842 0
M  V30 6369 O 636.413 -1.00657 -1.67829 0
M  V30 6370 C 636.712 -3.49515 0.746588 0
M  V30 6371 C 636.378 -3.94955 2.17535 0
M  V30 6372 C 635.04 -4.07073 2.56603 0
M  V30 6373 C 637.392 -4.18536 3.10607 0
M  V30 6374 C 634.72 -4.40138 3.87938 0
M  V30 6375 C 637.072 -4.53073 4.41484 0
M  V30 6376 C 635.736 -4.634 4.80434 0
M  V30 6377 H 635.006 -0.71658 0.188666 0
M  V30 6378 H 637.653 -1.54574 1.13045 0
M  V30 6379 H 635.958 -3.9177 0.0487551 0
M  V30 6380 H 637.655 -3.98644 0.434009 0
M  V30 6381 H 634.245 -3.86035 1.86212 0
M  V30 6382 H 638.429 -4.08646 2.81641 0
M  V30 6383 H 633.685 -4.46335 4.17846 0
M  V30 6384 H 637.859 -4.70269 5.13634 0
M  V30 6385 H 635.486 -4.88775 5.82239 0
M  V30 6386 N 637.061 -0.65484 -1.43351 0
M  V30 6387 C 638.307 -0.169142 -2.02093 0
M  V30 6388 C 638.64 1.21431 -1.51553 0
M  V30 6389 O 637.915 1.81105 -0.709317 0
M  V30 6390 C 638.198 -0.181775 -3.59641 0
M  V30 6391 C 638.051 -1.59926 -4.20409 0
M  V30 6392 C 639.37 0.480945 -4.37464 0
M  V30 6393 H 636.489 -0.0629371 -0.734308 0
M  V30 6394 H 639.131 -0.835833 -1.70628 0
M  V30 6395 H 637.281 0.385918 -3.86578 0
M  V30 6396 H 638.953 -2.21766 -4.04497 0
M  V30 6397 H 637.196 -2.14605 -3.76998 0
M  V30 6398 H 637.867 -1.55994 -5.295 0
M  V30 6399 H 640.343 -0.00208273 -4.161 0
M  V30 6400 H 639.219 0.441384 -5.47122 0
M  V30 6401 H 639.48 1.55533 -4.13838 0
M  V30 6402 N 638.539 1.52521 -0.396863 0
M  V30 6403 C 639.787 2.01274 0.182536 0
M  V30 6404 C 640.108 1.28485 1.46685 0
M  V30 6405 O 639.378 0.407134 1.91623 0
M  V30 6406 H 637.958 0.743671 0.0704442 0
M  V30 6407 H 640.62 1.87547 -0.530289 0
M  V30 6408 H 639.716 3.09687 0.387385 0
M  V30 6409 N 640.017 0.126909 1.57088 0
M  V30 6410 C 640.947 -0.816847 2.18746 0
M  V30 6411 C 641.928 -1.27161 1.12979 0
M  V30 6412 O 643.113 -1.33279 1.41246 0
M  V30 6413 C 640.243 -2.06398 2.79315 0
M  V30 6414 C 639.197 -1.74673 3.90735 0
M  V30 6415 C 638.523 -3.06482 4.38147 0
M  V30 6416 C 639.823 -1.0089 5.12463 0
M  V30 6417 H 641.517 -0.303032 2.97863 0
M  V30 6418 H 639.063 -0.144314 1.43275 0
M  V30 6419 H 641.016 -2.72885 3.2111 0
M  V30 6420 H 639.74 -2.60118 1.975 0
M  V30 6421 H 638.399 -1.10572 3.49527 0
M  V30 6422 H 638.047 -3.58152 3.5318 0
M  V30 6423 H 637.747 -2.86025 5.13287 0
M  V30 6424 H 639.271 -3.74073 4.82599 0
M  V30 6425 H 640.685 -1.57546 5.51228 0
M  V30 6426 H 639.082 -0.905006 5.93237 0
M  V30 6427 H 640.152 0.00297335 4.849 0
M  V30 6428 N 641.495 -1.56914 -0.146875 0
M  V30 6429 C 642.911 -1.51582 -0.499518 0
M  V30 6430 C 643.111 -0.83535 -1.83369 0
M  V30 6431 O 642.167 -0.405932 -2.49216 0
M  V30 6432 C 643.48 -2.96349 -0.509711 0
M  V30 6433 C 645.028 -3.07288 -0.595217 0
M  V30 6434 C 645.503 -4.53562 -0.636071 0
M  V30 6435 N 646.994 -4.57906 -0.69829 0
M  V30 6436 C 647.729 -5.68462 -0.750886 0
M  V30 6437 N 647.225 -6.88588 -0.76282 0
M  V30 6438 N 649.018 -5.56496 -0.791777 0
M  V30 6439 H 641.169 -1.99547 0.727656 0
M  V30 6440 H 643.432 -0.910113 0.265327 0
M  V30 6441 H 643.138 -3.4939 0.402409 0
M  V30 6442 H 643.012 -3.52307 -1.34758 0
M  V30 6443 H 645.399 -2.54266 -1.49776 0
M  V30 6444 H 645.48 -2.54373 0.2698 0
M  V30 6445 H 645.124 -5.07222 0.262313 0
M  V30 6446 H 645.054 -5.04259 -1.51758 0
M  V30 6447 H 647.545 -3.71429 -0.696362 0
M  V30 6448 H 647.858 -7.68598 -0.804804 0
M  V30 6449 H 646.203 -6.91148 -0.730694 0
M  V30 6450 H 649.394 -4.61562 -0.779624 0
M  V30 6451 H 649.567 -6.42671 -0.829301 0
M  V30 6452 N 642.974 0.416227 -1.52004 0
M  V30 6453 C 644.22 1.16555 -1.6596 0
M  V30 6454 C 644.553 1.90347 -0.384906 0
M  V30 6455 O 643.828 1.84474 0.616405 0
M  V30 6456 C 644.111 2.1657 -2.87696 0
M  V30 6457 C 643.964 1.46722 -4.25197 0
M  V30 6458 C 645.283 3.17321 -3.04951 0
M  V30 6459 H 642.402 0.422369 -0.603965 0
M  V30 6460 H 645.044 0.452141 -1.84542 0
M  V30 6461 H 643.194 2.77411 -2.71985 0
M  V30 6462 H 644.866 0.89056 -4.52622 0
M  V30 6463 H 643.109 0.769263 -4.26925 0
M  V30 6464 H 643.78 2.19665 -5.0641 0
M  V30 6465 H 646.256 2.66552 -3.19514 0
M  V30 6466 H 645.132 3.84573 -3.91656 0
M  V30 6467 H 645.393 3.84643 -2.17951 0
M  V30 6468 N 644.452 1.42507 0.673017 0
M  V30 6469 C 645.382 1.48916 1.79851 0
M  V30 6470 C 646.363 0.345566 1.66553 0
M  V30 6471 O 647.548 0.560116 1.85947 0
M  V30 6472 C 644.678 1.39258 3.18158 0
M  V30 6473 C 643.632 2.51662 3.46194 0
M  V30 6474 C 642.958 2.27062 4.84094 0
M  V30 6475 C 644.258 3.93968 3.42909 0
M  V30 6476 H 645.952 2.43114 1.74745 0
M  V30 6477 H 643.498 1.17013 0.839288 0
M  V30 6478 H 645.451 1.42349 3.96629 0
M  V30 6479 H 644.175 0.415542 3.23946 0
M  V30 6480 H 642.834 2.47891 2.70084 0
M  V30 6481 H 642.482 1.27648 4.86534 0
M  V30 6482 H 642.182 3.02398 5.03815 0
M  V30 6483 H 643.706 2.31905 5.64847 0
M  V30 6484 H 645.12 3.99332 4.11347 0
M  V30 6485 H 643.517 4.6917 3.74165 0
M  V30 6486 H 644.587 4.20512 2.41449 0
M  V30 6487 N 645.93 -0.909495 1.28709 0
M  V30 6488 C 647.178 -1.65577 1.15882 0
M  V30 6489 C 647.499 -1.928 -0.292108 0
M  V30 6490 O 646.769 -1.54716 -1.20166 0
M  V30 6491 H 645.349 -0.613714 0.425869 0
M  V30 6492 H 648.011 -1.09108 1.61498 0
M  V30 6493 H 647.107 -2.61634 1.70159 0
M  V30 6494 N 647.408 -1.11026 -1.11852 0
M  V30 6495 C 648.358 -0.733836 -2.15868 0
M  V30 6496 C 649.342 0.26001 -1.58785 0
M  V30 6497 O 650.534 0.0677901 -1.7687 0
M  V30 6498 C 647.663 -0.173948 -3.42859 0
M  V30 6499 C 646.749 -1.1952 -4.0691 0
M  V30 6500 N 647.14 -2.38797 -4.45881 0
M  V30 6501 C 645.438 -1.03714 -4.33773 0
M  V30 6502 C 646.139 -3.03894 -4.96007 0
M  V30 6503 N 645.115 -2.31389 -4.91894 0
M  V30 6504 H 648.917 -1.64171 -2.43773 0
M  V30 6505 H 646.431 -0.988877 -1.28822 0
M  V30 6506 H 648.428 0.113836 -4.16745 0
M  V30 6507 H 647.088 0.728568 -3.16421 0
M  V30 6508 H 648.099 -2.76281 -4.38051 0
M  V30 6509 H 644.776 -0.190694 -4.17064 0
M  V30 6510 H 646.166 -4.05389 -5.35826 0
M  V30 6511 N 648.886 1.2938 -0.899927 0
M  V30 6512 C 650.114 1.99691 -0.541386 0
M  V30 6513 C 650.529 1.67355 0.873936 0
M  V30 6514 O 649.886 0.918728 1.57688 0
M  V30 6515 C 649.937 3.54168 -0.72438 0
M  V30 6516 O 649.658 3.85359 -2.08399 0
M  V30 6517 C 651.159 4.41746 -0.370819 0
M  V30 6518 H 648.379 0.638037 -0.207726 0
M  V30 6519 H 650.923 1.6491 -1.20934 0
M  V30 6520 H 649.078 3.87261 -0.103607 0
M  V30 6521 H 649.492 4.80032 -2.11352 0
M  V30 6522 H 650.966 5.49256 -0.549693 0
M  V30 6523 H 651.443 4.33712 0.692148 0
M  V30 6524 H 652.049 4.14125 -0.968543 0
M  V30 6525 N 650.364 0.662433 1.43002 0
M  V30 6526 C 651.294 -0.00979809 2.33498 0
M  V30 6527 C 652.275 -0.802329 1.49989 0
M  V30 6528 O 653.46 -0.761964 1.78627 0
M  V30 6529 C 650.59 -0.970446 3.33466 0
M  V30 6530 C 649.544 -0.287383 4.27034 0
M  V30 6531 C 648.87 -1.36012 5.17112 0
M  V30 6532 C 650.17 0.82595 5.15728 0
M  V30 6533 H 651.864 0.745959 2.89958 0
M  V30 6534 H 649.41 0.360172 1.39423 0
M  V30 6535 H 651.363 -1.44971 3.95679 0
M  V30 6536 H 650.087 -1.75748 2.75282 0
M  V30 6537 H 648.746 0.17152 3.66199 0
M  V30 6538 H 648.394 -2.13882 4.55262 0
M  V30 6539 H 648.094 -0.908276 5.80538 0
M  V30 6540 H 649.618 -1.84056 5.82199 0
M  V30 6541 H 651.032 0.42845 5.71697 0
M  V30 6542 H 649.429 1.20282 5.87922 0
M  V30 6543 H 650.499 1.68003 4.54866 0
M  V30 6544 N 651.842 -1.52309 0.404946 0
M  V30 6545 C 653.258 -1.59503 0.0556255 0
M  V30 6546 C 653.458 -1.41805 -1.43156 0
M  V30 6547 O 652.514 -1.2429 -2.19792 0
M  V30 6548 C 653.827 -2.95687 0.546801 0
M  V30 6549 C 655.375 -3.08909 0.504413 0
M  V30 6550 C 655.85 -4.47566 0.97203 0
M  V30 6551 N 657.341 -4.53795 0.928679 0
M  V30 6552 C 658.076 -5.59346 1.26174 0
M  V30 6553 N 657.572 -6.72469 1.66604 0
M  V30 6554 N 659.365 -5.49532 1.18198 0
M  V30 6555 H 651.516 -1.6206 1.37296 0
M  V30 6556 H 653.779 -0.762161 0.563751 0
M  V30 6557 H 653.485 -3.13905 1.58609 0
M  V30 6558 H 653.359 -3.77172 -0.0457905 0
M  V30 6559 H 655.746 -2.90378 -0.525819 0
M  V30 6560 H 655.827 -2.2934 1.13301 0
M  V30 6561 H 655.471 -4.6684 2.00057 0
M  V30 6562 H 655.401 -5.25625 0.320292 0
M  V30 6563 H 657.892 -3.72588 0.631369 0
M  V30 6564 H 658.205 -7.48993 1.9034 0
M  V30 6565 H 656.55 -6.73761 1.70504 0
M  V30 6566 H 659.741 -4.60038 0.865011 0
M  V30 6567 H 659.914 -6.31687 1.44485 0
M  V30 6568 N 653.32 -0.135238 -1.57019 0
M  V30 6569 C 654.283 0.794707 -2.14981 0
M  V30 6570 C 655.283 1.18342 -1.08866 0
M  V30 6571 O 656.473 1.10627 -1.34563 0
M  V30 6572 C 653.605 2.07685 -2.70333 0
M  V30 6573 H 654.798 0.290696 -2.98488 0
M  V30 6574 H 652.351 0.114128 -1.55883 0
M  V30 6575 H 653.086 2.6248 -1.9046 0
M  V30 6576 H 652.871 1.80745 -3.47957 0
M  V30 6577 H 654.361 2.74127 -3.1503 0
M  V30 6578 N 654.798 1.5699 0.138552 0
M  V30 6579 C 656.023 1.88344 0.86841 0
M  V30 6580 C 656.448 0.725159 1.7356 0
M  V30 6581 O 655.806 -0.324992 1.78363 0
M  V30 6582 C 655.854 3.18334 1.69398 0
M  V30 6583 O 654.958 3.02863 2.79907 0
M  V30 6584 H 654.299 0.618577 0.241367 0
M  V30 6585 H 656.829 2.04207 0.126826 0
M  V30 6586 H 656.839 3.50567 2.08726 0
M  V30 6587 H 655.514 4.02238 1.05725 0
M  V30 6588 H 654.091 2.82056 2.43924 0
M  V30 6589 N 656.276 -0.40816 1.52223 0
M  V30 6590 C 657.504 -1.17672 1.70179 0
M  V30 6591 C 657.919 -1.84257 0.411696 0
M  V30 6592 O 657.276 -1.7192 -0.612354 0
M  V30 6593 C 657.327 -2.23911 2.83806 0
M  V30 6594 O 657.048 -1.60044 4.0782 0
M  V30 6595 C 658.549 -3.1364 3.13281 0
M  V30 6596 H 655.769 -0.353562 0.570293 0
M  V30 6597 H 658.313 -0.480083 1.98785 0
M  V30 6598 H 656.468 -2.89242 2.57717 0
M  V30 6599 H 656.882 -2.30484 4.71145 0
M  V30 6600 H 658.356 -3.84255 3.96298 0
M  V30 6601 H 658.833 -3.76066 2.26872 0
M  V30 6602 H 659.439 -2.53977 3.41139 0
M  V30 6603 N 657.755 -1.42862 -0.66545 0
M  V30 6604 C 658.703 -1.47319 -1.8 0
M  V30 6605 C 659.697 -0.347963 -1.65788 0
M  V30 6606 O 660.903 -0.521406 -1.72283 0
M  V30 6607 H 657.278 -0.461588 -0.593667 0
M  V30 6608 H 659.249 -2.42876 -1.7336 0
M  V30 6609 C 657.998 -1.40152 -3.18203 0
M  V30 6610 H 657.321 -2.26035 -3.2977 0
M  V30 6611 H 658.761 -1.47331 -3.9758 0
M  V30 6612 C 657.22 -0.117493 -3.36695 0
M  V30 6613 O 657.75 0.826058 -3.93115 0
M  V30 6614 N 655.956 -0.0316218 -2.90583 0
M  V30 6615 H 655.503 -0.800247 -2.44855 0
M  V30 6616 H 655.461 0.826835 -3.03333 0
M  V30 6617 N 659.233 0.902656 -1.29189 0
M  V30 6618 C 660.143 2.03946 -1.15944 0
M  V30 6619 C 661.159 1.738 -0.0833803 0
M  V30 6620 O 662.335 1.9923 -0.29487 0
M  V30 6621 C 659.4 3.36519 -0.834006 0
M  V30 6622 C 658.461 3.80203 -1.9936 0
M  V30 6623 C 657.694 5.06449 -1.68359 0
M  V30 6624 O 657.917 5.67202 -0.603141 0
M  V30 6625 O 656.851 5.46114 -2.53067 0
M  V30 6626 H 660.677 2.18043 -2.11403 0
M  V30 6627 H 658.262 1.02584 -1.08613 0
M  V30 6628 H 660.144 4.16089 -0.666949 0
M  V30 6629 H 658.819 3.23573 0.0908245 0
M  V30 6630 H 657.726 3.01413 -2.21588 0
M  V30 6631 H 659.059 3.97729 -2.89952 0
M  V30 6632 N 660.711 1.11618 1.11262 0
M  V30 6633 C 661.958 0.86618 1.8304 0
M  V30 6634 C 662.286 -0.608149 1.84748 0
M  V30 6635 O 661.541 -1.46508 1.29745 0
M  V30 6636 C 661.84 1.37529 3.2988 0
M  V30 6637 C 661.506 2.86317 3.4833 0
M  V30 6638 C 660.168 3.26945 3.53073 0
M  V30 6639 C 662.52 3.82136 3.54431 0
M  V30 6640 C 659.848 4.62117 3.61475 0
M  V30 6641 C 662.2 5.17128 3.64365 0
M  V30 6642 C 660.864 5.57312 3.67369 0
M  V30 6643 H 660.134 0.316958 0.66979 0
M  V30 6644 H 662.781 1.3949 1.31205 0
M  V30 6645 H 661.086 0.766842 3.84222 0
M  V30 6646 H 662.783 1.15817 3.83911 0
M  V30 6647 H 659.373 2.53889 3.45309 0
M  V30 6648 H 663.557 3.51847 3.50025 0
M  V30 6649 H 658.813 4.92655 3.62079 0
M  V30 6650 H 662.987 5.91208 3.68029 0
M  V30 6651 H 660.614 6.62045 3.73632 0
M  V30 6652 N 662.189 -1.289 0.906776 0
M  V30 6653 C 663.119 -2.29932 0.406659 0
M  V30 6654 C 664.1 -1.6189 -0.522061 0
M  V30 6655 O 665.285 -1.8935 -0.431283 0
M  V30 6656 C 662.415 -3.45425 -0.360366 0
M  V30 6657 C 661.369 -4.25316 0.478574 0
M  V30 6658 C 660.695 -5.33076 -0.416373 0
M  V30 6659 C 661.995 -4.92739 1.7322 0
M  V30 6660 H 663.689 -2.72013 1.25097 0
M  V30 6661 H 661.235 -1.30768 0.602977 0
M  V30 6662 H 663.188 -4.15186 -0.721029 0
M  V30 6663 H 661.912 -3.02206 -1.23852 0
M  V30 6664 H 660.571 -3.57273 0.821662 0
M  V30 6665 H 660.219 -4.86101 -1.29287 0
M  V30 6666 H 659.919 -5.8743 0.141309 0
M  V30 6667 H 661.443 -6.05686 -0.773072 0
M  V30 6668 H 662.857 -5.54898 1.44086 0
M  V30 6669 H 661.254 -5.57057 2.23175 0
M  V30 6670 H 662.324 -4.17625 2.46408 0
M  V30 6671 N 663.667 -0.670007 -1.42649 0
M  V30 6672 C 664.597 -0.00258501 -2.335 0
M  V30 6673 C 665.578 0.794364 -1.50412 0
M  V30 6674 O 666.763 0.75248 -1.79029 0
M  V30 6675 C 663.893 0.952748 -3.33976 0
M  V30 6676 C 662.847 0.264733 -4.2718 0
M  V30 6677 C 662.173 1.33267 -5.17826 0
M  V30 6678 C 663.473 -0.853289 -5.15283 0
M  V30 6679 H 665.167 -0.761326 -2.89559 0
M  V30 6680 H 662.713 -0.367561 -1.3923 0
M  V30 6681 H 664.666 1.4287 -3.96442 0
M  V30 6682 H 663.39 1.74285 -2.7621 0
M  V30 6683 H 662.049 -0.190938 -3.66102 0
M  V30 6684 H 661.697 2.11464 -4.5639 0
M  V30 6685 H 661.397 0.877476 -5.81011 0
M  V30 6686 H 662.921 1.80965 -5.83167 0
M  V30 6687 H 664.335 -0.458763 -5.71462 0
M  V30 6688 H 662.732 -1.23398 -5.87276 0
M  V30 6689 H 663.802 -1.70412 -4.53969 0
M  V30 6690 N 665.145 1.52092 -0.413018 0
M  V30 6691 C 666.075 2.30021 0.401567 0
M  V30 6692 C 667.056 1.34395 1.04269 0
M  V30 6693 O 668.241 1.63304 1.05097 0
M  V30 6694 C 665.371 3.12447 1.51638 0
M  V30 6695 C 664.325 4.16153 1.00005 0
M  V30 6696 C 663.651 4.86948 2.20875 0
M  V30 6697 C 664.951 5.22275 0.0513757 0
M  V30 6698 H 666.645 2.98365 -0.248704 0
M  V30 6699 H 664.191 1.4349 -0.121052 0
M  V30 6700 H 666.144 3.65733 2.09326 0
M  V30 6701 H 664.868 2.41879 2.19458 0
M  V30 6702 H 663.527 3.63882 0.445549 0
M  V30 6703 H 663.175 4.12905 2.8726 0
M  V30 6704 H 662.875 5.57057 1.86978 0
M  V30 6705 H 664.399 5.43048 2.79162 0
M  V30 6706 H 665.813 5.70778 0.537176 0
M  V30 6707 H 664.21 5.9977 -0.198977 0
M  V30 6708 H 665.28 4.76611 -0.892736 0
M  V30 6709 N 666.623 0.143563 1.56945 0
M  V30 6710 C 667.872 -0.50835 1.95189 0
M  V30 6711 C 668.185 -1.66239 1.03073 0
M  V30 6712 O 669.391 -2.3787 1.30882 0
M  V30 6713 C 667.847 -0.955735 3.46978 0
M  V30 6714 C 667.455 0.171183 4.47673 0
M  V30 6715 C 669.199 -1.57763 3.94095 0
M  V30 6716 C 667.106 -0.294279 5.90667 0
M  V30 6717 H 666.036 -0.193679 0.728701 0
M  V30 6718 H 668.687 0.227357 1.82086 0
M  V30 6719 H 667.069 -1.7466 3.55401 0
M  V30 6720 H 668.243 0.948049 4.50942 0
M  V30 6721 H 666.558 0.701273 4.10452 0
M  V30 6722 H 669.155 -1.93745 4.98364 0
M  V30 6723 H 669.498 -2.46531 3.35452 0
M  V30 6724 H 670.031 -0.851728 3.88575 0
M  V30 6725 H 666.77 0.557939 6.53121 0
M  V30 6726 H 666.29 -1.0371 5.90766 0
M  V30 6727 H 667.969 -0.747426 6.42668 0
M  V30 6728 N 668.101 -1.57061 -0.130224 0
M  V30 6729 C 669.35 -1.83446 -0.838488 0
M  V30 6730 C 669.663 -0.727468 -1.81569 0
M  V30 6731 O 670.869 -0.877394 -2.56932 0
M  V30 6732 C 669.325 -3.25201 -1.54182 0
M  V30 6733 C 668.933 -4.4388 -0.606178 0
M  V30 6734 C 670.677 -3.60844 -2.23588 0
M  V30 6735 C 668.584 -5.76661 -1.31209 0
M  V30 6736 H 667.514 -0.684185 -0.316871 0
M  V30 6737 H 670.165 -1.83273 -0.0912059 0
M  V30 6738 H 668.547 -3.1981 -2.33533 0
M  V30 6739 H 669.721 -4.60545 0.153308 0
M  V30 6740 H 668.036 -4.16395 -0.0196705 0
M  V30 6741 H 670.633 -4.57313 -2.77072 0
M  V30 6742 H 670.976 -2.87724 -3.00867 0
M  V30 6743 H 671.509 -3.67971 -1.51137 0
M  V30 6744 H 668.248 -6.52922 -0.580823 0
M  V30 6745 H 667.768 -5.63902 -2.04387 0
M  V30 6746 H 669.447 -6.20035 -1.8484 0
M  V30 6747 N 669.579 0.400081 -1.52437 0
M  V30 6748 C 670.826 1.14619 -1.6694 0
M  V30 6749 C 671.154 1.90262 -0.403797 0
M  V30 6750 O 670.409 1.85835 0.61351 0
M  V30 6751 C 670.708 2.15914 -2.84808 0
M  V30 6752 C 670.374 1.57011 -4.2268 0
M  V30 6753 C 669.036 1.40672 -4.60179 0
M  V30 6754 C 671.388 1.14081 -5.08562 0
M  V30 6755 C 668.716 0.799335 -5.81229 0
M  V30 6756 C 671.068 0.547573 -6.30226 0
M  V30 6757 C 669.732 0.371389 -6.66466 0
M  V30 6758 H 669.002 0.419419 -0.610875 0
M  V30 6759 H 671.649 0.432227 -1.86558 0
M  V30 6760 H 669.954 2.93488 -2.59561 0
M  V30 6761 H 671.651 2.73533 -2.93225 0
M  V30 6762 H 668.241 1.70713 -3.93135 0
M  V30 6763 H 672.425 1.2551 -4.80168 0
M  V30 6764 H 667.681 0.65093 -6.07925 0
M  V30 6765 H 671.855 0.206575 -6.96094 0
M  V30 6766 H 669.482 -0.10135 -7.60132 0
M  V30 6767 N 671.057 1.43213 0.657864 0
M  V30 6768 C 671.987 1.50815 1.78262 0
M  V30 6769 C 672.968 0.363211 1.66177 0
M  V30 6770 O 674.153 0.579806 1.85343 0
M  V30 6771 C 671.283 1.42625 3.16663 0
M  V30 6772 C 670.237 2.5532 3.43505 0
M  V30 6773 C 669.563 2.32184 4.81658 0
M  V30 6774 C 670.863 3.97583 3.38711 0
M  V30 6775 H 672.557 2.44954 1.72157 0
M  V30 6776 H 670.103 1.17896 0.82683 0
M  V30 6777 H 672.056 1.46548 3.95097 0
M  V30 6778 H 670.78 0.449877 3.23487 0
M  V30 6779 H 669.439 2.50742 2.6744 0
M  V30 6780 H 669.087 1.32801 4.85153 0
M  V30 6781 H 668.787 3.07724 5.00579 0
M  V30 6782 H 670.311 2.37883 5.62356 0
M  V30 6783 H 671.725 4.03673 4.07089 0
M  V30 6784 H 670.122 4.73112 3.69168 0
M  V30 6785 H 671.192 4.23049 2.36976 0
M  V30 6786 N 672.536 -0.895792 1.29666 0
M  V30 6787 C 673.499 -1.98189 1.15124 0
M  V30 6788 C 674.499 -1.60572 0.0855717 0
M  V30 6789 O 675.689 -1.70991 0.332826 0
M  V30 6790 C 672.821 -3.32289 0.761372 0
M  V30 6791 H 674.014 -2.12518 2.11603 0
M  V30 6792 H 671.567 -1.0808 1.12908 0
M  V30 6793 H 672.302 -3.23662 -0.203393 0
M  V30 6794 H 672.087 -3.60958 1.53139 0
M  V30 6795 H 673.577 -4.1198 0.682792 0
M  V30 6796 N 674.014 -1.12206 -1.10668 0
M  V30 6797 C 674.944 -0.810086 -2.18997 0
M  V30 6798 C 675.925 0.225065 -1.68604 0
M  V30 6799 O 677.11 0.086783 -1.94006 0
M  V30 6800 C 674.24 -0.261262 -3.46316 0
M  V30 6801 C 673.194 -1.2292 -4.09969 0
M  V30 6802 C 672.52 -0.540713 -5.31959 0
M  V30 6803 C 673.82 -2.58295 -4.53962 0
M  V30 6804 H 675.514 -1.7159 -2.45352 0
M  V30 6805 H 673.06 -0.82646 -1.17922 0
M  V30 6806 H 675.013 -0.0307522 -4.21389 0
M  V30 6807 H 673.737 0.679879 -3.19445 0
M  V30 6808 H 672.396 -1.44548 -3.369 0
M  V30 6809 H 672.044 0.405492 -5.01363 0
M  V30 6810 H 671.744 -1.18637 -5.75499 0
M  V30 6811 H 673.268 -0.319184 -6.09765 0
M  V30 6812 H 674.682 -2.40709 -5.20319 0
M  V30 6813 H 673.079 -3.18916 -5.08343 0
M  V30 6814 H 674.149 -3.16918 -3.67002 0
M  V30 6815 N 675.492 1.28418 -0.913599 0
M  V30 6816 C 676.74 1.94596 -0.545594 0
M  V30 6817 C 677.061 1.7227 0.913668 0
M  V30 6818 O 676.331 1.06233 1.64595 0
M  V30 6819 H 674.911 0.720065 -0.198783 0
M  V30 6820 H 677.573 1.56404 -1.16292 0
M  V30 6821 H 676.669 3.03202 -0.739911 0
M  V30 6822 N 676.97 0.677563 1.42291 0
M  V30 6823 C 678.216 0.201272 2.01799 0
M  V30 6824 C 678.549 -1.19004 1.53465 0
M  V30 6825 O 677.824 -1.79953 0.738039 0
M  V30 6826 C 678.107 0.238968 3.59306 0
M  V30 6827 C 677.96 1.66594 4.17812 0
M  V30 6828 C 679.279 -0.411287 4.38174 0
M  V30 6829 H 676.398 0.0746114 0.733214 0
M  V30 6830 H 679.04 0.862872 1.69276 0
M  V30 6831 H 677.19 -0.324368 3.87144 0
M  V30 6832 H 678.862 2.28173 4.00917 0
M  V30 6833 H 677.105 2.20576 3.73536 0
M  V30 6834 H 677.776 1.64398 5.26951 0
M  V30 6835 H 680.252 0.0682804 4.16044 0
M  V30 6836 H 679.128 -0.354286 5.47755 0
M  V30 6837 H 679.389 -1.4893 4.1626 0
M  V30 6838 N 678.448 -1.51871 0.421078 0
M  V30 6839 C 679.378 -2.30231 -0.389363 0
M  V30 6840 C 680.359 -1.34946 -1.03555 0
M  V30 6841 O 681.544 -1.63859 -1.04229 0
M  V30 6842 C 678.674 -3.13247 -1.49979 0
M  V30 6843 C 677.628 -4.16677 -0.977966 0
M  V30 6844 C 676.954 -4.88112 -2.1829 0
M  V30 6845 C 678.254 -5.22295 -0.0236775 0
M  V30 6846 H 679.948 -2.98229 0.264524 0
M  V30 6847 H 677.494 -1.43424 0.12866 0
M  V30 6848 H 679.447 -3.66838 -2.07383 0
M  V30 6849 H 678.171 -2.4304 -2.18173 0
M  V30 6850 H 676.83 -3.64114 -0.426245 0
M  V30 6851 H 676.478 -4.14423 -2.85066 0
M  V30 6852 H 676.178 -5.58041 -1.84021 0
M  V30 6853 H 677.702 -5.44521 -2.76278 0
M  V30 6854 H 679.116 -5.71055 -0.506899 0
M  V30 6855 H 677.513 -5.99656 0.230782 0
M  V30 6856 H 678.583 -4.76131 0.917999 0
M  V30 6857 N 679.926 -0.151884 -1.56866 0
M  V30 6858 C 681.175 0.497992 -1.95456 0
M  V30 6859 C 681.488 1.6569 -1.03953 0
M  V30 6860 O 682.694 2.37173 -1.32142 0
M  V30 6861 C 681.15 0.93732 -3.4748 0
M  V30 6862 C 680.758 -0.194921 -4.47576 0
M  V30 6863 C 682.502 1.55671 -3.94926 0
M  V30 6864 C 680.409 0.26295 -5.90815 0
M  V30 6865 H 679.339 0.189811 -0.729717 0
M  V30 6866 H 681.99 -0.237011 -1.81963 0
M  V30 6867 H 680.372 1.72773 -3.56322 0
M  V30 6868 H 681.546 -0.971951 -4.50433 0
M  V30 6869 H 679.861 -0.72303 -4.10075 0
M  V30 6870 H 682.458 1.91099 -4.99385 0
M  V30 6871 H 682.801 2.44748 -3.36755 0
M  V30 6872 H 683.334 0.831109 -3.89021 0
M  V30 6873 H 680.073 -0.592568 -6.52816 0
M  V30 6874 H 679.593 1.00575 -5.91308 0
M  V30 6875 H 681.272 0.713333 -6.43056 0
M  V30 6876 N 681.404 1.57128 0.121893 0
M  V30 6877 C 682.651 1.847 0.830188 0
M  V30 6878 C 682.979 0.736543 1.80015 0
M  V30 6879 O 682.234 -0.272358 1.93796 0
M  V30 6880 C 682.533 3.1874 1.61677 0
M  V30 6881 C 682.199 4.43901 0.791361 0
M  V30 6882 C 680.861 4.77887 0.563731 0
M  V30 6883 C 683.213 5.20753 0.215823 0
M  V30 6884 C 680.541 5.86168 -0.249737 0
M  V30 6885 C 682.893 6.29891 -0.584821 0
M  V30 6886 C 681.557 6.6241 -0.822794 0
M  V30 6887 H 680.827 0.675866 0.303787 0
M  V30 6888 H 683.474 1.91276 0.0926894 0
M  V30 6889 H 681.779 3.07728 2.42509 0
M  V30 6890 H 683.476 3.37295 2.16872 0
M  V30 6891 H 680.066 4.17272 0.978867 0
M  V30 6892 H 684.25 4.94851 0.378907 0
M  V30 6893 H 679.506 6.0979 -0.44336 0
M  V30 6894 H 683.68 6.88624 -1.03779 0
M  V30 6895 H 681.307 7.46147 -1.45496 0
M  V30 6896 N 682.882 -0.391992 1.52647 0
M  V30 6897 C 683.845 -1.46135 1.7657 0
M  V30 6898 C 684.845 -1.47701 0.635698 0
M  V30 6899 O 686.035 -1.48924 0.903728 0
M  V30 6900 C 683.167 -2.85443 1.86374 0
M  V30 6901 H 684.36 -1.26208 2.72051 0
M  V30 6902 H 681.913 -0.623549 1.43323 0
M  V30 6903 H 682.648 -3.10718 0.928685 0
M  V30 6904 H 682.433 -2.85708 2.68539 0
M  V30 6905 H 683.923 -3.62933 2.06566 0
M  V30 6906 N 684.36 -1.4356 -0.65026 0
M  V30 6907 C 685.588 -1.48779 -1.43779 0
M  V30 6908 C 686.003 -0.106593 -1.88499 0
M  V30 6909 O 685.36 0.883766 -1.59674 0
M  V30 6910 C 685.411 -2.43618 -2.67081 0
M  V30 6911 O 685.132 -3.76367 -2.24231 0
M  V30 6912 C 686.633 -2.5811 -3.60409 0
M  V30 6913 H 683.853 -0.50521 -0.441593 0
M  V30 6914 H 686.397 -1.88332 -0.796941 0
M  V30 6915 H 684.552 -2.07253 -3.273 0
M  V30 6916 H 684.966 -4.27394 -3.0403 0
M  V30 6917 H 686.44 -3.28539 -4.43583 0
M  V30 6918 H 686.917 -1.627 -4.07953 0
M  V30 6919 H 687.523 -2.95298 -3.0607 0
M  V30 6920 N 685.838 0.888903 -1.30139 0
M  V30 6921 C 686.771 1.99655 -1.10514 0
M  V30 6922 C 687.749 1.62594 -0.0138934 0
M  V30 6923 O 688.933 1.87762 -0.166689 0
M  V30 6924 C 686.06 3.31708 -0.684655 0
M  V30 6925 C 685.106 3.87755 -1.77619 0
M  V30 6926 S 685.939 4.15532 -3.37777 0
M  V30 6927 C 687.095 5.5061 -2.97622 0
M  V30 6928 H 687.328 2.15996 -2.04287 0
M  V30 6929 H 684.861 1.03682 -1.14409 0
M  V30 6930 H 686.819 4.08039 -0.448782 0
M  V30 6931 H 685.48 3.1323 0.233648 0
M  V30 6932 H 684.673 4.83164 -1.43417 0
M  V30 6933 H 684.275 3.18149 -1.96614 0
M  V30 6934 H 686.567 6.31518 -2.45338 0
M  V30 6935 H 687.51 5.89747 -3.91924 0
M  V30 6936 H 687.918 5.12983 -2.35603 0
M  V30 6937 N 687.317 1.12792 1.10072 0
M  V30 6938 C 688.566 0.880232 1.81479 0
M  V30 6939 C 688.879 -0.595575 1.86312 0
M  V30 6940 O 690.085 -0.959979 2.53962 0
M  V30 6941 C 688.541 1.52514 3.25987 0
M  V30 6942 C 688.149 3.036 3.29441 0
M  V30 6943 C 689.893 1.35788 4.02196 0
M  V30 6944 C 687.8 3.61007 4.68431 0
M  V30 6945 H 686.73 0.325654 0.680048 0
M  V30 6946 H 689.381 1.35485 1.23758 0
M  V30 6947 H 687.763 0.978188 3.83728 0
M  V30 6948 H 688.937 3.64819 2.81502 0
M  V30 6949 H 687.252 3.19765 2.66719 0
M  V30 6950 H 689.849 1.76096 5.0487 0
M  V30 6951 H 690.192 0.301972 4.15203 0
M  V30 6952 H 690.725 1.87426 3.50879 0
M  V30 6953 H 687.464 4.66375 4.60625 0
M  V30 6954 H 686.984 3.04564 5.16721 0
M  V30 6955 H 688.663 3.60289 5.37402 0
M  V30 6956 N 688.795 -1.27931 0.920396 0
M  V30 6957 C 690.025 -1.98516 0.572256 0
M  V30 6958 C 690.433 -1.68912 -0.852375 0
M  V30 6959 O 689.776 -0.94203 -1.57707 0
M  V30 6960 C 689.838 -3.5243 0.709485 0
M  V30 6961 C 689.502 -4.0564 2.10489 0
M  V30 6962 C 690.499 -4.1897 3.07831 0
M  V30 6963 C 688.184 -4.40168 2.41986 0
M  V30 6964 C 690.178 -4.66093 4.34783 0
M  V30 6965 C 687.865 -4.86983 3.69176 0
M  V30 6966 C 688.863 -4.99903 4.65388 0
M  V30 6967 O 688.551 -5.45694 5.90316 0
M  V30 6968 H 688.283 -0.64047 0.216274 0
M  V30 6969 H 690.837 -1.6393 1.23758 0
M  V30 6970 H 689.067 -3.86698 -0.0129263 0
M  V30 6971 H 690.756 -4.04233 0.367474 0
M  V30 6972 H 691.522 -3.92562 2.84816 0
M  V30 6973 H 687.401 -4.29358 1.67846 0
M  V30 6974 H 690.945 -4.76092 5.09884 0
M  V30 6975 H 686.842 -5.12832 3.92012 0
M  V30 6976 H 687.61 -5.63965 5.932 0
M  V30 6977 N 690.273 -0.685099 -1.4193 0
M  V30 6978 C 691.503 -0.220052 -2.05425 0
M  V30 6979 C 691.911 1.13185 -1.51611 0
M  V30 6980 O 691.254 1.71631 -0.654875 0
M  V30 6981 C 691.316 -0.0888364 -3.5939 0
M  V30 6982 C 690.98 -1.37109 -4.35947 0
M  V30 6983 C 691.977 -2.30675 -4.65924 0
M  V30 6984 C 689.662 -1.62155 -4.75406 0
M  V30 6985 C 691.656 -3.47556 -5.34306 0
M  V30 6986 C 689.343 -2.79324 -5.43527 0
M  V30 6987 C 690.341 -3.71848 -5.72903 0
M  V30 6988 O 690.029 -4.86966 -6.39624 0
M  V30 6989 H 689.761 -0.102165 -0.668235 0
M  V30 6990 H 692.315 -0.935194 -1.82875 0
M  V30 6991 H 690.545 0.681981 -3.80639 0
M  V30 6992 H 692.234 0.337669 -4.04493 0
M  V30 6993 H 693 -2.12579 -4.3593 0
M  V30 6994 H 688.879 -0.910053 -4.51928 0
M  V30 6995 H 692.423 -4.19794 -5.57153 0
M  V30 6996 H 688.32 -2.97342 -5.72938 0
M  V30 6997 H 689.088 -4.86644 -6.58118 0
M  V30 6998 N 691.751 1.51645 -0.429126 0
M  V30 6999 C 692.714 2.26116 0.374726 0
M  V30 7000 C 693.714 1.29242 0.956714 0
M  V30 7001 O 694.904 1.53022 0.832452 0
M  V30 7002 C 692.036 3.04669 1.52937 0
M  V30 7003 H 693.229 2.9861 -0.277818 0
M  V30 7004 H 690.782 1.55236 -0.182097 0
M  V30 7005 H 691.517 2.36571 2.21821 0
M  V30 7006 H 691.302 3.75814 1.11833 0
M  V30 7007 H 692.792 3.61102 2.09751 0
M  V30 7008 N 693.229 0.160201 1.56784 0
M  V30 7009 C 694.139 -0.787167 2.21 0
M  V30 7010 C 695.155 -1.26167 1.19825 0
M  V30 7011 O 696.331 -1.31611 1.52448 0
M  V30 7012 C 693.396 -2.00364 2.8294 0
M  V30 7013 C 692.457 -1.5771 3.99282 0
M  V30 7014 C 691.69 -2.73558 4.58259 0
M  V30 7015 O 691.913 -3.90129 4.16119 0
M  V30 7016 O 690.847 -2.48271 5.48311 0
M  V30 7017 H 694.673 -0.270462 3.02493 0
M  V30 7018 H 692.258 -0.0674666 1.49248 0
M  V30 7019 H 694.14 -2.71529 3.22257 0
M  V30 7020 H 692.815 -2.50961 2.04451 0
M  V30 7021 H 691.722 -0.835274 3.64656 0
M  V30 7022 H 693.055 -1.11815 4.79331 0
M  V30 7023 N 694.707 -1.5719 -0.113559 0
M  V30 7024 C 696.123 -1.52607 -0.467253 0
M  V30 7025 C 696.323 -0.874058 -1.81556 0
M  V30 7026 O 695.379 -0.458703 -2.48299 0
M  V30 7027 C 696.692 -2.97363 -0.446736 0
M  V30 7028 C 698.24 -3.08482 -0.529903 0
M  V30 7029 C 698.715 -4.54809 -0.539721 0
M  V30 7030 N 700.206 -4.59284 -0.601005 0
M  V30 7031 C 700.941 -5.69927 -0.630138 0
M  V30 7032 N 700.437 -6.90051 -0.616589 0
M  V30 7033 N 702.23 -5.5805 -0.673558 0
M  V30 7034 H 694.381 -1.97958 0.769819 0
M  V30 7035 H 696.644 -0.90428 0.284572 0
M  V30 7036 H 696.35 -3.48458 0.47643 0
M  V30 7037 H 696.224 -3.55086 -1.27254 0
M  V30 7038 H 698.611 -2.57386 -1.44349 0
M  V30 7039 H 698.692 -2.53744 0.323695 0
M  V30 7040 H 698.336 -5.06552 0.369843 0
M  V30 7041 H 698.266 -5.07364 -1.41028 0
M  V30 7042 H 700.757 -3.72822 -0.617419 0
M  V30 7043 H 701.07 -7.70132 -0.641592 0
M  V30 7044 H 699.415 -6.92543 -0.583927 0
M  V30 7045 H 702.606 -4.63112 -0.681544 0
M  V30 7046 H 702.779 -6.44286 -0.692794 0
M  V30 7047 N 696.185 0.383891 -1.52853 0
M  V30 7048 C 697.434 1.12563 -1.67369 0
M  V30 7049 C 697.747 1.90982 -0.422533 0
M  V30 7050 O 698.953 2.6778 -0.447914 0
M  V30 7051 C 697.409 2.05011 -2.95801 0
M  V30 7052 C 697.017 1.31991 -4.28115 0
M  V30 7053 C 698.761 2.79289 -3.19684 0
M  V30 7054 C 696.668 2.23235 -5.4765 0
M  V30 7055 H 695.598 0.42391 -0.623552 0
M  V30 7056 H 698.249 0.388016 -1.79351 0
M  V30 7057 H 696.631 2.82429 -2.77578 0
M  V30 7058 H 697.805 0.597633 -4.56908 0
M  V30 7059 H 696.12 0.696517 -4.10533 0
M  V30 7060 H 698.717 3.47749 -4.06171 0
M  V30 7061 H 699.06 3.43649 -2.3497 0
M  V30 7062 H 699.593 2.08962 -3.38496 0
M  V30 7063 H 696.332 1.63482 -6.34786 0
M  V30 7064 H 695.852 2.93364 -5.23161 0
M  V30 7065 H 697.531 2.83205 -5.81725 0
M  V30 7066 N 697.663 1.43903 0.642637 0
M  V30 7067 C 698.911 1.45791 1.39962 0
M  V30 7068 C 699.232 0.0873144 1.94804 0
M  V30 7069 O 698.502 -0.878825 1.75081 0
M  V30 7070 H 697.082 0.536797 0.519479 0
M  V30 7071 H 699.744 1.7959 0.757189 0
M  V30 7072 H 698.84 2.17665 2.2367 0
M  V30 7073 N 699.141 -0.881989 1.30609 0
M  V30 7074 C 700.104 -1.96957 1.1722 0
M  V30 7075 C 701.104 -1.60472 0.102598 0
M  V30 7076 O 702.294 -1.70628 0.350943 0
M  V30 7077 C 699.426 -3.31463 0.796572 0
M  V30 7078 H 700.619 -2.10262 2.13846 0
M  V30 7079 H 698.172 -1.06877 1.14048 0
M  V30 7080 H 698.907 -3.23859 -0.169053 0
M  V30 7081 H 698.692 -3.59314 1.56959 0
M  V30 7082 H 700.182 -4.11233 0.72645 0
M  V30 7083 N 700.619 -1.13374 -1.09472 0
M  V30 7084 C 701.896 -0.806329 -1.78207 0
M  V30 7085 C 702.276 0.702191 -1.99079 0
M  V30 7086 O 701.624 1.63931 -1.59182 0
M  V30 7087 C 701.834 -1.59271 -3.10538 0
M  V30 7088 C 703.182 -1.78509 -3.85253 0
M  V30 7089 O 704.206 -1.55866 -3.20288 0
M  V30 7090 O 703.065 -2.16287 -5.01879 0
M  V30 7091 H 700.159 -0.29435 -0.772843 0
M  V30 7092 H 702.705 -1.23833 -1.16033 0
M  V30 7093 H 701.477 -2.61792 -2.90828 0
M  V30 7094 H 701.1 -1.15562 -3.80436 0
M  V30 7095 N 702.098 1.27442 -0.927168 0
M  V30 7096 C 703.509 1.76385 -0.611979 0
M  V30 7097 C 703.86 1.75715 0.872853 0
M  V30 7098 O 702.985 1.3603 1.683 0
M  V30 7099 C 703.58 3.20303 -1.10414 0
M  V30 7100 C 702.139 3.66916 -0.839628 0
M  V30 7101 C 701.286 2.46859 -1.26317 0
M  V30 7102 H 704.237 1.13716 -1.107 0
M  V30 7103 H 704.258 3.77811 -0.451578 0
M  V30 7104 H 703.77 3.20759 -2.18484 0
M  V30 7105 H 701.871 3.71906 0.227292 0
M  V30 7106 H 701.984 4.56415 -1.45679 0
M  V30 7107 H 700.348 2.45407 -0.681723 0
M  V30 7108 H 701.131 2.50025 -2.3525 0
M  V30 7109 N 703.576 0.692616 1.41565 0
M  V30 7110 C 704.853 0.150496 1.9502 0
M  V30 7111 C 705.233 -1.33881 1.63215 0
M  V30 7112 O 704.581 -2.08378 0.937598 0
M  V30 7113 C 704.791 0.438636 3.46233 0
M  V30 7114 C 706.139 0.364777 4.2303 0
M  V30 7115 O 707.163 0.373383 3.54238 0
M  V30 7116 O 706.022 0.32234 5.45549 0
M  V30 7117 H 703.116 0.0132454 0.826894 0
M  V30 7118 H 705.662 0.768574 1.51298 0
M  V30 7119 H 704.434 1.46962 3.62654 0
M  V30 7120 H 704.057 -0.210562 3.97042 0
M  V30 7121 N 705.054 -1.51416 0.437162 0
M  V30 7122 C 706.331 -1.94682 -0.189292 0
M  V30 7123 C 706.711 -1.37581 -1.60108 0
M  V30 7124 O 706.059 -0.562815 -2.2146 0
M  V30 7125 C 706.269 -3.48599 -0.167201 0
M  V30 7126 C 707.617 -4.2296 -0.372856 0
M  V30 7127 O 708.641 -3.55354 -0.245323 0
M  V30 7128 O 707.5 -5.42895 -0.626693 0
M  V30 7129 H 704.594 -0.816708 -0.130063 0
M  V30 7130 H 707.14 -1.62316 0.495128 0
M  V30 7131 H 705.912 -3.82616 0.81981 0
M  V30 7132 H 705.535 -3.87406 -0.894537 0
M  V30 7133 N 706.532 -0.168513 -1.56696 0
M  V30 7134 C 707.781 0.477233 -1.95973 0
M  V30 7135 C 708.094 1.64578 -1.05704 0
M  V30 7136 O 709.3 2.35758 -1.3465 0
M  V30 7137 C 707.756 0.900413 -3.48455 0
M  V30 7138 C 707.364 -0.242382 -4.47344 0
M  V30 7139 C 709.108 1.51474 -3.96555 0
M  V30 7140 C 707.015 0.200272 -5.91061 0
M  V30 7141 H 705.945 0.182061 -0.73169 0
M  V30 7142 H 708.596 -0.256297 -1.81701 0
M  V30 7143 H 706.978 1.68984 -3.58135 0
M  V30 7144 H 708.152 -1.01967 -4.49377 0
M  V30 7145 H 706.467 -0.766484 -4.09285 0
M  V30 7146 H 709.064 1.85792 -5.01384 0
M  V30 7147 H 709.407 2.41163 -3.39332 0
M  V30 7148 H 709.94 0.789802 -3.89881 0
M  V30 7149 H 706.679 -0.661775 -6.52151 0
M  V30 7150 H 706.199 0.942979 -5.92341 0
M  V30 7151 H 707.878 0.645088 -6.43776 0
M  V30 7152 N 708.01 1.57248 0.105221 0
M  V30 7153 C 708.94 2.04374 1.12931 0
M  V30 7154 C 709.921 0.93074 1.42377 0
M  V30 7155 O 711.106 1.20136 1.52581 0
M  V30 7156 C 708.236 2.45967 2.45189 0
M  V30 7157 C 707.19 3.60838 2.30174 0
M  V30 7158 C 706.516 3.88374 3.67518 0
M  V30 7159 C 707.816 4.92084 1.75073 0
M  V30 7160 H 709.51 2.9018 0.737287 0
M  V30 7161 H 707.056 1.39601 0.353211 0
M  V30 7162 H 709.009 2.77542 3.17094 0
M  V30 7163 H 707.733 1.57148 2.86308 0
M  V30 7164 H 706.392 3.29493 1.60716 0
M  V30 7165 H 706.04 2.96739 4.06147 0
M  V30 7166 H 705.74 4.65703 3.58321 0
M  V30 7167 H 707.264 4.22415 4.40906 0
M  V30 7168 H 708.678 5.22106 2.36809 0
M  V30 7169 H 707.075 5.73507 1.76662 0
M  V30 7170 H 708.145 4.79684 0.709347 0
M  V30 7171 N 709.488 -0.375779 1.53054 0
M  V30 7172 C 710.736 -1.11727 1.68409 0
M  V30 7173 C 711.057 -1.90127 0.43323 0
M  V30 7174 O 710.327 -1.87945 -0.552595 0
M  V30 7175 H 708.907 -0.415451 0.620813 0
M  V30 7176 H 711.569 -0.424869 1.90213 0
M  V30 7177 H 710.665 -1.8128 2.54055 0
M  V30 7178 N 710.966 -1.44241 -0.634997 0
M  V30 7179 C 712.191 -1.50516 -1.42687 0
M  V30 7180 C 712.616 -0.129864 -1.87651 0
M  V30 7181 O 711.974 0.880164 -1.58502 0
M  V30 7182 C 712.022 -2.4714 -2.62591 0
M  V30 7183 O 711.126 -1.97025 -3.62291 0
M  V30 7184 H 710.467 -0.50841 -0.427101 0
M  V30 7185 H 712.997 -1.89337 -0.775408 0
M  V30 7186 H 713.007 -2.65048 -3.10183 0
M  V30 7187 H 711.682 -3.47039 -2.29209 0
M  V30 7188 H 710.259 -1.88866 -3.21534 0
M  V30 7189 N 712.444 0.87505 -1.31075 0
M  V30 7190 C 713.392 2.00317 -1.18219 0
M  V30 7191 C 714.386 1.69152 -0.0916872 0
M  V30 7192 O 715.592 1.7821 -0.253229 0
M  V30 7193 H 711.967 0.656981 -0.365895 0
M  V30 7194 H 713.938 2.08293 -2.13674 0
M  V30 7195 C 712.687 3.35821 -0.901095 0
M  V30 7196 H 712.01 3.6032 -1.73233 0
M  V30 7197 H 713.45 4.15366 -0.851295 0
M  V30 7198 C 711.909 3.34563 0.396114 0
M  V30 7199 O 712.439 3.75971 1.41452 0
M  V30 7200 N 710.645 2.87681 0.410832 0
M  V30 7201 H 710.192 2.54179 -0.418415 0
M  V30 7202 H 710.15 2.87223 1.27869 0
M  V30 7203 N 713.922 1.13953 1.08869 0
M  V30 7204 C 714.872 0.790812 2.13846 0
M  V30 7205 C 715.856 -0.217819 1.59419 0
M  V30 7206 O 717.048 -0.0208723 1.76988 0
M  V30 7207 C 714.177 0.26479 3.42277 0
M  V30 7208 C 713.263 1.30267 4.03598 0
M  V30 7209 N 713.654 2.50535 4.39393 0
M  V30 7210 C 711.952 1.15178 4.30871 0
M  V30 7211 C 712.653 3.16938 4.87776 0
M  V30 7212 N 711.629 2.44349 4.85587 0
M  V30 7213 H 715.431 1.70577 2.39334 0
M  V30 7214 H 712.945 1.02268 1.26154 0
M  V30 7215 H 714.942 -0.00330398 4.169 0
M  V30 7216 H 713.602 -0.644419 3.18241 0
M  V30 7217 H 714.613 2.87798 4.30572 0
M  V30 7218 H 711.29 0.301204 4.16412 0
M  V30 7219 H 712.68 4.19453 5.2489 0
M  V30 7220 N 715.4 -1.26948 0.933913 0
M  V30 7221 C 716.628 -1.98186 0.59414 0
M  V30 7222 C 717.043 -1.69614 -0.829257 0
M  V30 7223 O 716.4 -0.960213 -1.55197 0
M  V30 7224 C 716.451 -3.52123 0.818026 0
M  V30 7225 O 716.172 -3.79698 2.18543 0
M  V30 7226 C 717.673 -4.40608 0.48781 0
M  V30 7227 H 714.893 -0.632305 0.224569 0
M  V30 7228 H 717.437 -1.61646 1.25263 0
M  V30 7229 H 715.592 -3.86851 0.206246 0
M  V30 7230 H 716.006 -4.7426 2.24005 0
M  V30 7231 H 717.48 -5.47606 0.695126 0
M  V30 7232 H 717.957 -4.35394 -0.576913 0
M  V30 7233 H 718.563 -4.11411 1.078 0
M  V30 7234 N 716.879 -0.700114 -1.41195 0
M  V30 7235 C 718.109 -0.241828 -2.0518 0
M  V30 7236 C 718.517 1.1157 -1.52803 0
M  V30 7237 O 717.86 1.70926 -0.673042 0
M  V30 7238 C 717.922 -0.12695 -3.59276 0
M  V30 7239 C 717.586 -1.41725 -4.34469 0
M  V30 7240 C 718.583 -2.35604 -4.63451 0
M  V30 7241 C 716.268 -1.67189 -4.73659 0
M  V30 7242 C 718.262 -3.53204 -5.3059 0
M  V30 7243 C 715.949 -2.85073 -5.40534 0
M  V30 7244 C 716.947 -3.77904 -5.68927 0
M  V30 7245 O 716.635 -4.93723 -6.34424 0
M  V30 7246 H 716.367 -0.109247 -0.667114 0
M  V30 7247 H 718.921 -0.954538 -1.81873 0
M  V30 7248 H 717.151 0.641571 -3.81341 0
M  V30 7249 H 718.84 0.294748 -4.04828 0
M  V30 7250 H 719.606 -2.1719 -4.33651 0
M  V30 7251 H 715.485 -0.957935 -4.50937 0
M  V30 7252 H 719.029 -4.25679 -5.52669 0
M  V30 7253 H 714.926 -3.03402 -5.69752 0
M  V30 7254 H 715.694 -4.93597 -6.5292 0
M  V30 7255 N 718.357 1.51182 -0.445186 0
M  V30 7256 C 719.604 2.02152 0.118645 0
M  V30 7257 C 719.932 1.32888 1.42025 0
M  V30 7258 O 719.187 0.435041 1.90803 0
M  V30 7259 C 719.486 3.55408 0.376797 0
M  V30 7260 C 719.152 4.43008 -0.839945 0
M  V30 7261 C 717.814 4.66669 -1.17361 0
M  V30 7262 C 720.166 4.9435 -1.65127 0
M  V30 7263 C 717.494 5.38919 -2.31913 0
M  V30 7264 C 719.846 5.67857 -2.78786 0
M  V30 7265 C 718.51 5.89779 -3.12597 0
M  V30 7266 H 717.78 0.739727 0.0434152 0
M  V30 7267 H 720.427 1.82055 -0.593984 0
M  V30 7268 H 718.732 3.73879 1.1714 0
M  V30 7269 H 720.429 3.92388 0.826602 0
M  V30 7270 H 717.019 4.24793 -0.569958 0
M  V30 7271 H 721.203 4.75947 -1.4067 0
M  V30 7272 H 716.459 5.54105 -2.58413 0
M  V30 7273 H 720.633 6.06628 -3.42017 0
M  V30 7274 H 718.26 6.45542 -4.01471 0
M  V30 7275 N 719.835 0.176821 1.56605 0
M  V30 7276 C 720.782 -0.751312 2.18229 0
M  V30 7277 C 721.752 -1.22297 1.12395 0
M  V30 7278 O 722.937 -1.29015 1.40569 0
M  V30 7279 C 720.077 -1.97291 2.83143 0
M  V30 7280 C 719.19 -1.54431 4.03454 0
M  V30 7281 C 718.325 -2.72 4.56278 0
M  V30 7282 C 717.364 -2.25657 5.68986 0
M  V30 7283 N 716.501 -3.36338 6.16296 0
M  V30 7284 H 721.341 -0.219033 2.97194 0
M  V30 7285 H 718.878 -0.0963803 1.46784 0
M  V30 7286 H 720.836 -2.68949 3.1894 0
M  V30 7287 H 719.466 -2.4788 2.06773 0
M  V30 7288 H 718.518 -0.724273 3.73441 0
M  V30 7289 H 719.83 -1.16417 4.85024 0
M  V30 7290 H 718.984 -3.51806 4.94285 0
M  V30 7291 H 717.723 -3.13277 3.73777 0
M  V30 7292 H 716.728 -1.44299 5.30526 0
M  V30 7293 H 717.953 -1.85432 6.53293 0
M  V30 7294 H 715.899 -3.7718 5.36723 0
M  V30 7295 H 715.816 -3.02435 6.9287 0
M  V30 7296 H 717.084 -4.16413 6.58954 0
M  V30 7297 N 721.313 -1.57302 -0.09688 0
M  V30 7298 C 722.261 -2.02942 -1.13654 0
M  V30 7299 C 723.255 -0.930173 -1.41577 0
M  V30 7300 O 724.461 -1.11535 -1.41279 0
M  V30 7301 H 720.836 -0.646726 -0.383731 0
M  V30 7302 H 722.807 -2.89452 -0.725267 0
M  V30 7303 C 721.556 -2.46815 -2.44903 0
M  V30 7304 H 720.879 -3.30979 -2.24261 0
M  V30 7305 H 722.319 -2.82527 -3.16156 0
M  V30 7306 C 720.778 -1.34071 -3.09074 0
M  V30 7307 O 721.308 -0.668856 -3.96092 0
M  V30 7308 N 719.514 -1.09214 -2.69296 0
M  V30 7309 H 719.061 -1.64029 -1.98626 0
M  V30 7310 H 719.019 -0.339785 -3.12559 0
M  V30 7311 N 722.791 0.367657 -1.53252 0
M  V30 7312 C 724.04 1.10782 -1.68554 0
M  V30 7313 C 724.353 1.90523 -0.442765 0
M  V30 7314 O 725.559 2.6729 -0.47629 0
M  V30 7315 C 724.015 2.01863 -2.97959 0
M  V30 7316 C 723.623 1.27443 -4.29491 0
M  V30 7317 C 725.367 2.75883 -3.22628 0
M  V30 7318 C 723.274 2.17414 -5.49987 0
M  V30 7319 H 722.204 0.417272 -0.628013 0
M  V30 7320 H 724.855 0.368971 -1.79752 0
M  V30 7321 H 723.237 2.7947 -2.80558 0
M  V30 7322 H 724.411 0.549138 -4.57516 0
M  V30 7323 H 722.726 0.652935 -4.11249 0
M  V30 7324 H 725.323 3.43421 -4.09837 0
M  V30 7325 H 725.666 3.41138 -2.38601 0
M  V30 7326 H 726.199 2.0536 -3.40693 0
M  V30 7327 H 722.938 1.5674 -6.36485 0
M  V30 7328 H 722.458 2.87799 -5.26243 0
M  V30 7329 H 724.137 2.77019 -5.84696 0
M  V30 7330 N 724.269 1.44576 0.627338 0
M  V30 7331 C 725.68 1.42266 1.20902 0
M  V30 7332 C 726.031 0.139964 1.957 0
M  V30 7333 O 725.156 -0.759489 2.02634 0
M  V30 7334 C 725.751 2.57727 2.19914 0
M  V30 7335 C 724.31 2.58599 2.73502 0
M  V30 7336 C 723.457 2.34145 1.48564 0
M  V30 7337 H 726.408 1.53102 0.417791 0
M  V30 7338 H 726.429 2.30697 3.02588 0
M  V30 7339 H 725.941 3.51068 1.65447 0
M  V30 7340 H 724.042 1.6921 3.31962 0
M  V30 7341 H 724.155 3.57205 3.19282 0
M  V30 7342 H 722.519 1.83313 1.76829 0
M  V30 7343 H 723.302 3.29606 0.959935 0
M  V30 7344 N 725.747 -0.868086 1.31537 0
M  V30 7345 C 726.996 -1.61607 1.20689 0
M  V30 7346 C 727.309 -1.94204 -0.233275 0
M  V30 7347 O 728.515 -2.67515 -0.463465 0
M  V30 7348 C 726.971 -2.91348 2.11292 0
M  V30 7349 C 726.579 -2.66227 3.60315 0
M  V30 7350 C 728.323 -3.69344 2.09249 0
M  V30 7351 C 726.23 -3.91887 4.42921 0
M  V30 7352 H 725.16 -0.606373 0.448138 0
M  V30 7353 H 727.811 -0.959666 1.56405 0
M  V30 7354 H 726.193 -3.58374 1.68477 0
M  V30 7355 H 727.367 -2.07597 4.11388 0
M  V30 7356 H 725.682 -2.01582 3.64354 0
M  V30 7357 H 728.279 -4.62567 2.68209 0
M  V30 7358 H 728.622 -4.02044 1.0801 0
M  V30 7359 H 729.155 -3.09205 2.50274 0
M  V30 7360 H 725.894 -3.64336 5.44922 0
M  V30 7361 H 725.414 -4.49961 3.96605 0
M  V30 7362 H 727.093 -4.59754 4.55231 0
M  V30 7363 N 727.225 -1.14528 -1.08264 0
M  V30 7364 C 728.473 -0.912599 -1.80322 0
M  V30 7365 C 728.794 0.562256 -1.86718 0
M  V30 7366 O 728.064 1.40869 -1.36135 0
M  V30 7367 H 726.644 -0.334645 -0.667849 0
M  V30 7368 H 729.306 -1.44415 -1.30883 0
M  V30 7369 H 728.402 -1.31384 -2.83098 0
M  V30 7370 N 728.703 1.26451 -0.940633 0
M  V30 7371 C 729.95 1.93778 -0.587909 0
M  V30 7372 C 730.278 1.73811 0.872935 0
M  V30 7373 O 729.533 1.06816 1.63978 0
M  V30 7374 C 729.832 3.46503 -0.875794 0
M  V30 7375 C 729.498 3.86609 -2.32043 0
M  V30 7376 C 728.16 3.97269 -2.71534 0
M  V30 7377 C 730.512 4.0672 -3.25927 0
M  V30 7378 C 727.84 4.25436 -4.04006 0
M  V30 7379 C 730.192 4.36375 -4.57995 0
M  V30 7380 C 728.856 4.45249 -4.97302 0
M  V30 7381 H 728.126 0.709084 -0.215131 0
M  V30 7382 H 730.773 1.50272 -1.18704 0
M  V30 7383 H 729.078 3.91319 -0.194124 0
M  V30 7384 H 730.775 3.96759 -0.581665 0
M  V30 7385 H 727.365 3.78858 -2.00411 0
M  V30 7386 H 731.549 3.97912 -2.96614 0
M  V30 7387 H 726.805 4.30519 -4.34124 0
M  V30 7388 H 730.979 4.50882 -5.30734 0
M  V30 7389 H 728.606 4.66829 -5.99979 0
M  V30 7390 N 730.181 0.707592 1.40822 0
M  V30 7391 C 731.427 0.252828 2.01823 0
M  V30 7392 C 731.782 -1.13876 1.55081 0
M  V30 7393 O 731.075 -1.75993 0.757439 0
M  V30 7394 C 731.269 0.262892 3.56432 0
M  V30 7395 C 731.098 1.65392 4.18181 0
M  V30 7396 C 729.868 2.25966 4.5196 0
M  V30 7397 C 732.066 2.60272 4.4358 0
M  V30 7398 N 730.048 3.57508 4.9906 0
M  V30 7399 C 731.419 3.76509 4.92586 0
M  V30 7400 C 733.474 2.58386 4.25607 0
M  V30 7401 C 732.177 4.91157 5.25507 0
M  V30 7402 C 734.203 3.72155 4.59625 0
M  V30 7403 C 733.565 4.87123 5.08813 0
M  V30 7404 H 729.664 0.138172 0.769696 0
M  V30 7405 H 732.248 0.927667 1.7118 0
M  V30 7406 H 730.419 -0.381479 3.86522 0
M  V30 7407 H 732.151 -0.20783 4.04166 0
M  V30 7408 H 728.906 1.78138 4.38821 0
M  V30 7409 H 729.33 4.24968 5.27002 0
M  V30 7410 H 733.972 1.7071 3.86805 0
M  V30 7411 H 731.69 5.79483 5.63227 0
M  V30 7412 H 735.276 3.71961 4.47366 0
M  V30 7413 H 734.156 5.73698 5.3464 0
M  V30 7414 N 731.66 -1.50943 0.453197 0
M  V30 7415 C 732.906 -2.03153 -0.100277 0
M  V30 7416 C 733.261 -1.33032 -1.38997 0
M  V30 7417 O 732.554 -0.441423 -1.86446 0
M  V30 7418 C 732.748 -3.55603 -0.357944 0
M  V30 7419 C 732.577 -4.40495 0.905223 0
M  V30 7420 C 731.347 -4.84247 1.44337 0
M  V30 7421 C 733.545 -4.81931 1.79575 0
M  V30 7422 N 731.527 -5.53403 2.65742 0
M  V30 7423 C 732.898 -5.50314 2.85577 0
M  V30 7424 C 734.953 -4.63903 1.80828 0
M  V30 7425 C 733.656 -6.02581 3.92797 0
M  V30 7426 C 735.682 -5.17097 2.86993 0
M  V30 7427 C 735.044 -5.8544 3.91713 0
M  V30 7428 H 731.143 -0.781995 0.00287755 0
M  V30 7429 H 733.727 -1.84651 0.617411 0
M  V30 7430 H 731.898 -3.74087 -1.04467 0
M  V30 7431 H 733.63 -3.9447 -0.904175 0
M  V30 7432 H 730.385 -4.63029 0.995045 0
M  V30 7433 H 730.809 -5.92598 3.27348 0
M  V30 7434 H 735.451 -4.10512 1.0119 0
M  V30 7435 H 733.169 -6.55018 4.73262 0
M  V30 7436 H 736.755 -5.0499 2.88923 0
M  V30 7437 H 735.635 -6.25861 4.72512 0
M  V30 7438 N 733.138 -0.185124 -1.56509 0
M  V30 7439 C 734.101 0.72591 -2.17401 0
M  V30 7440 C 735.101 1.14819 -1.12575 0
M  V30 7441 O 736.291 1.0629 -1.38015 0
M  V30 7442 C 733.423 1.98979 -2.76803 0
M  V30 7443 H 734.616 0.195588 -2.99262 0
M  V30 7444 H 732.169 0.0644772 -1.56167 0
M  V30 7445 H 732.904 2.56287 -1.98714 0
M  V30 7446 H 732.689 1.69583 -3.53531 0
M  V30 7447 H 734.179 2.63966 -3.23592 0
M  V30 7448 N 734.616 1.57351 0.0885366 0
M  V30 7449 C 735.862 1.86696 0.791996 0
M  V30 7450 C 736.195 0.775148 1.78059 0
M  V30 7451 O 735.47 -0.216247 1.93294 0
M  V30 7452 C 735.753 3.26684 1.51491 0
M  V30 7453 C 735.606 4.465 0.543858 0
M  V30 7454 C 736.925 3.64664 2.46391 0
M  V30 7455 H 734.044 0.679049 0.286463 0
M  V30 7456 H 736.686 1.89919 0.0554866 0
M  V30 7457 H 734.836 3.24067 2.14273 0
M  V30 7458 H 736.508 4.61235 -0.0774597 0
M  V30 7459 H 734.751 4.33567 -0.142228 0
M  V30 7460 H 735.422 5.41192 1.08696 0
M  V30 7461 H 737.898 3.68267 1.93698 0
M  V30 7462 H 736.774 4.63534 2.93986 0
M  V30 7463 H 737.035 2.93698 3.30445 0
M  V30 7464 N 736.094 -0.359525 1.53444 0
M  V30 7465 C 737.34 -1.10315 1.70172 0
M  V30 7466 C 737.673 -1.88788 0.455287 0
M  V30 7467 O 736.948 -1.86635 -0.547514 0
M  V30 7468 C 737.231 -2.05744 2.95536 0
M  V30 7469 C 737.084 -1.3084 4.3035 0
M  V30 7470 C 738.403 -3.05784 3.16518 0
M  V30 7471 H 735.522 -0.399662 0.619225 0
M  V30 7472 H 738.164 -0.383338 1.86093 0
M  V30 7473 H 736.314 -2.67125 2.82093 0
M  V30 7474 H 737.986 -0.721959 4.55615 0
M  V30 7475 H 736.229 -0.610283 4.29486 0
M  V30 7476 H 736.9 -2.00718 5.14214 0
M  V30 7477 H 739.376 -2.5451 3.29187 0
M  V30 7478 H 738.252 -3.69772 4.05659 0
M  V30 7479 H 738.513 -3.76289 2.32076 0
M  V30 7480 N 737.572 -1.44907 -0.619662 0
M  V30 7481 C 738.8 -1.51795 -1.40591 0
M  V30 7482 C 739.215 -0.146553 -1.8823 0
M  V30 7483 O 738.572 0.849698 -1.61513 0
M  V30 7484 C 738.623 -2.49229 -2.61853 0
M  V30 7485 O 738.344 -3.81039 -2.16197 0
M  V30 7486 C 739.845 -2.65696 -3.54853 0
M  V30 7487 H 737.065 -0.514463 -0.430777 0
M  V30 7488 H 739.609 -1.8998 -0.756813 0
M  V30 7489 H 737.764 -2.14149 -3.2283 0
M  V30 7490 H 738.178 -4.33747 -2.94896 0
M  V30 7491 H 739.652 -3.37874 -4.36515 0
M  V30 7492 H 740.129 -1.71316 -4.0441 0
M  V30 7493 H 740.735 -3.01724 -2.99737 0
M  V30 7494 N 739.05 0.861098 -1.31996 0
M  V30 7495 C 739.983 1.97266 -1.14724 0
M  V30 7496 C 740.961 1.62528 -0.0483789 0
M  V30 7497 O 742.145 1.87366 -0.206478 0
M  V30 7498 C 739.272 3.30181 -0.754861 0
M  V30 7499 C 738.318 3.839 -1.85804 0
M  V30 7500 S 739.151 4.08274 -3.46515 0
M  V30 7501 C 740.307 5.44174 -3.09235 0
M  V30 7502 H 740.54 2.11614 -2.08822 0
M  V30 7503 H 738.073 1.01232 -1.16582 0
M  V30 7504 H 740.031 4.06996 -0.535232 0
M  V30 7505 H 738.692 3.13655 0.167155 0
M  V30 7506 H 737.885 4.80013 -1.53633 0
M  V30 7507 H 737.487 3.13907 -2.03318 0
M  V30 7508 H 739.779 6.26172 -2.58679 0
M  V30 7509 H 740.722 5.81301 -4.04345 0
M  V30 7510 H 741.13 5.0787 -2.46431 0
M  V30 7511 N 740.528 1.15101 1.07655 0
M  V30 7512 C 741.756 0.947731 1.83918 0
M  V30 7513 C 742.171 -0.503927 1.81951 0
M  V30 7514 O 741.528 -1.34941 1.2287 0
M  V30 7515 C 741.579 1.4503 3.31132 0
M  V30 7516 O 741.3 2.84508 3.33146 0
M  V30 7517 C 742.801 1.28806 4.24174 0
M  V30 7518 H 740.021 0.336786 0.580358 0
M  V30 7519 H 742.565 1.52799 1.35914 0
M  V30 7520 H 740.72 0.912632 3.76497 0
M  V30 7521 H 741.134 3.0723 4.251 0
M  V30 7522 H 742.608 1.6882 5.25551 0
M  V30 7523 H 743.085 0.231851 4.38588 0
M  V30 7524 H 743.691 1.81465 3.84643 0
M  V30 7525 N 742.006 -1.2595 0.947325 0
M  V30 7526 C 743.234 -1.97544 0.615127 0
M  V30 7527 C 743.649 -1.70484 -0.811221 0
M  V30 7528 O 743.006 -0.97662 -1.5417 0
M  V30 7529 C 743.057 -3.51236 0.855328 0
M  V30 7530 O 742.778 -3.77359 2.22558 0
M  V30 7531 C 744.279 -4.40066 0.534515 0
M  V30 7532 H 741.499 -0.629888 0.231263 0
M  V30 7533 H 744.043 -1.60308 1.26971 0
M  V30 7534 H 742.198 -3.8661 0.247266 0
M  V30 7535 H 742.612 -4.71857 2.29022 0
M  V30 7536 H 744.086 -5.46838 0.753168 0
M  V30 7537 H 744.563 -4.35982 -0.530701 0
M  V30 7538 H 745.169 -4.10245 1.12158 0
M  V30 7539 N 743.484 -0.715051 -1.40445 0
M  V30 7540 C 744.414 -0.0768699 -2.33373 0
M  V30 7541 C 745.395 0.746109 -1.52863 0
M  V30 7542 O 746.58 0.695142 -1.81332 0
M  V30 7543 C 743.71 0.846014 -3.36838 0
M  V30 7544 C 742.664 0.128694 -4.27806 0
M  V30 7545 C 741.99 1.16726 -5.21804 0
M  V30 7546 C 743.29 -1.01679 -5.12307 0
M  V30 7547 H 744.984 -0.853061 -2.8699 0
M  V30 7548 H 742.53 -0.41167 -1.3799 0
M  V30 7549 H 744.483 1.30185 -4.00786 0
M  V30 7550 H 743.207 1.6541 -2.81615 0
M  V30 7551 H 741.866 -0.307314 -3.6531 0
M  V30 7552 H 741.514 1.96838 -4.62887 0
M  V30 7553 H 741.214 0.692188 -5.83509 0
M  V30 7554 H 742.738 1.62321 -5.88629 0
M  V30 7555 H 744.152 -0.640337 -5.69713 0
M  V30 7556 H 742.549 -1.4202 -5.83053 0
M  V30 7557 H 743.619 -1.84769 -4.48317 0
M  V30 7558 N 744.962 1.50701 -0.461195 0
M  V30 7559 C 746.21 2.01867 0.0970051 0
M  V30 7560 C 746.531 1.34591 1.41104 0
M  V30 7561 O 745.801 0.488041 1.89723 0
M  V30 7562 H 744.381 0.74599 0.0388392 0
M  V30 7563 H 747.043 1.85129 -0.609357 0
M  V30 7564 H 746.139 3.11051 0.255688 0
M  V30 7565 N 746.441 0.193421 1.56409 0
M  V30 7566 C 747.671 -0.450783 2.01622 0
M  V30 7567 C 748.079 -1.5585 1.07273 0
M  V30 7568 O 747.422 -1.83569 0.0694875 0
M  V30 7569 C 747.484 -1.06913 3.43235 0
M  V30 7570 C 747.148 -0.100352 4.5689 0
M  V30 7571 C 748.145 0.689633 5.15306 0
M  V30 7572 C 745.83 0.0102436 5.02299 0
M  V30 7573 C 747.824 1.5772 6.17579 0
M  V30 7574 C 745.511 0.901368 6.04416 0
M  V30 7575 C 746.509 1.68341 6.61929 0
M  V30 7576 O 746.197 2.5596 7.62063 0
M  V30 7577 H 745.929 -0.117671 0.66568 0
M  V30 7578 H 748.483 0.2989 2.03214 0
M  V30 7579 H 746.713 -1.86736 3.38624 0
M  V30 7580 H 748.402 -1.61781 3.72266 0
M  V30 7581 H 749.168 0.614485 4.81092 0
M  V30 7582 H 745.047 -0.58829 4.57231 0
M  V30 7583 H 748.591 2.18805 6.62397 0
M  V30 7584 H 744.488 0.977637 6.38054 0
M  V30 7585 H 745.256 2.49721 7.79475 0
M  V30 7586 N 747.919 -1.57396 -0.0801906 0
M  V30 7587 C 749.167 -1.86467 -0.779384 0
M  V30 7588 C 749.488 -0.784243 -1.78535 0
M  V30 7589 O 748.758 0.187986 -1.94996 0
M  V30 7590 H 747.338 -0.68806 -0.29083 0
M  V30 7591 H 750 -1.94813 -0.0582749 0
M  V30 7592 H 749.096 -2.83701 -1.30078 0
M  V30 7593 N 749.397 0.351382 -1.53633 0
M  V30 7594 C 750.674 1.10903 -1.6112 0
M  V30 7595 C 751.054 2.06725 -0.427556 0
M  V30 7596 O 750.402 2.20992 0.580916 0
M  V30 7597 C 750.612 1.83561 -2.96827 0
M  V30 7598 C 751.96 2.37587 -3.51906 0
M  V30 7599 O 752.984 1.93669 -2.9895 0
M  V30 7600 O 751.843 3.17913 -4.44515 0
M  V30 7601 H 748.937 0.509558 -0.651368 0
M  V30 7602 H 751.483 0.353504 -1.65977 0
M  V30 7603 H 750.255 1.1371 -3.74414 0
M  V30 7604 H 749.878 2.6599 -2.95525 0
M  V30 7605 N 750.875 1.45233 0.611969 0
M  V30 7606 C 751.808 1.48056 1.73651 0
M  V30 7607 C 752.786 0.337373 1.59061 0
M  V30 7608 O 753.97 0.537222 1.80683 0
M  V30 7609 C 751.097 1.33144 3.11433 0
M  V30 7610 C 750.143 2.51272 3.44623 0
M  V30 7611 S 750.976 4.13754 3.39953 0
M  V30 7612 C 752.132 4.013 4.80322 0
M  V30 7613 H 752.365 2.43205 1.70993 0
M  V30 7614 H 749.898 1.32763 0.788246 0
M  V30 7615 H 751.856 1.25228 3.90932 0
M  V30 7616 H 750.517 0.394734 3.1161 0
M  V30 7617 H 749.71 2.36753 4.44932 0
M  V30 7618 H 749.312 2.56027 2.72629 0
M  V30 7619 H 751.604 3.66174 5.7002 0
M  V30 7620 H 752.547 5.01506 4.99897 0
M  V30 7621 H 752.955 3.3303 4.55797 0
M  V30 7622 N 752.353 -0.854086 1.3245 0
M  V30 7623 C 753.583 -1.63836 1.25862 0
M  V30 7624 C 753.991 -1.88383 -0.175588 0
M  V30 7625 O 753.334 -1.45353 -1.1233 0
M  V30 7626 C 753.396 -3.02068 1.94923 0
M  V30 7627 C 753.06 -3.0056 3.44257 0
M  V30 7628 C 754.057 -2.77368 4.39731 0
M  V30 7629 C 751.742 -3.21177 3.862 0
M  V30 7630 C 753.736 -2.74797 5.75122 0
M  V30 7631 C 751.423 -3.18234 5.217 0
M  V30 7632 C 752.421 -2.95072 6.15972 0
M  V30 7633 O 752.109 -2.92003 7.48992 0
M  V30 7634 H 751.841 -0.517007 0.435523 0
M  V30 7635 H 754.395 -1.07314 1.75137 0
M  V30 7636 H 752.625 -3.60382 1.40219 0
M  V30 7637 H 754.314 -3.62791 1.82037 0
M  V30 7638 H 755.08 -2.61205 4.08653 0
M  V30 7639 H 750.959 -3.38231 3.13243 0
M  V30 7640 H 754.503 -2.56638 6.48678 0
M  V30 7641 H 750.4 -3.33941 5.52407 0
M  V30 7642 H 751.168 -3.07953 7.58358 0
M  V30 7643 N 753.831 -1.1567 -1.07043 0
M  V30 7644 C 755.242 -0.942408 -1.61169 0
M  V30 7645 C 755.593 0.515537 -1.89306 0
M  V30 7646 O 754.718 1.38726 -1.66084 0
M  V30 7647 C 755.313 -1.70431 -2.92812 0
M  V30 7648 C 753.872 -1.53521 -3.43669 0
M  V30 7649 C 753.019 -1.7179 -2.17678 0
M  V30 7650 H 755.97 -1.3065 -0.9009 0
M  V30 7651 H 755.991 -1.17566 -3.61882 0
M  V30 7652 H 755.503 -2.76538 -2.72302 0
M  V30 7653 H 753.604 -0.498224 -3.69254 0
M  V30 7654 H 753.717 -2.31422 -4.19501 0
M  V30 7655 H 752.081 -1.14468 -2.27529 0
M  V30 7656 H 752.864 -2.79269 -1.99659 0
M  V30 7657 N 755.309 1.25446 -0.953992 0
M  V30 7658 C 756.256 2.25912 -0.472485 0
M  V30 7659 C 757.226 1.59173 0.47469 0
M  V30 7660 O 758.411 1.86812 0.388082 0
M  V30 7661 C 755.551 3.44235 0.244218 0
M  V30 7662 C 754.664 4.25613 -0.740121 0
M  V30 7663 C 753.799 5.312 -0.000922267 0
M  V30 7664 C 752.838 6.04265 -0.976236 0
M  V30 7665 N 751.975 7.01589 -0.267952 0
M  V30 7666 H 756.815 2.66469 -1.3341 0
M  V30 7667 H 754.352 1.31005 -0.669045 0
M  V30 7668 H 756.31 4.11682 0.676314 0
M  V30 7669 H 754.94 3.04554 1.06988 0
M  V30 7670 H 753.992 3.57834 -1.2907 0
M  V30 7671 H 755.304 4.762 -1.48441 0
M  V30 7672 H 754.458 6.04719 0.48984 0
M  V30 7673 H 753.197 4.81484 0.776159 0
M  V30 7674 H 752.202 5.29561 -1.478 0
M  V30 7675 H 753.427 6.5607 -1.75354 0
M  V30 7676 H 751.373 6.54164 0.490403 0
M  V30 7677 H 751.29 7.4999 -0.951344 0
M  V30 7678 H 752.558 7.7924 0.201294 0
M  V30 7679 N 756.787 0.722489 1.40064 0
M  V30 7680 C 758.015 0.274838 2.05066 0
M  V30 7681 C 758.43 -1.08586 1.54449 0
M  V30 7682 O 757.787 -1.68375 0.704003 0
M  V30 7683 C 757.838 0.253673 3.60609 0
M  V30 7684 O 757.559 1.56064 4.0936 0
M  V30 7685 C 759.06 -0.211684 4.42794 0
M  V30 7686 H 756.28 0.12226 0.659768 0
M  V30 7687 H 758.824 0.982632 1.79345 0
M  V30 7688 H 756.979 -0.405137 3.85276 0
M  V30 7689 H 757.393 1.46576 5.03603 0
M  V30 7690 H 758.867 -0.175341 5.51721 0
M  V30 7691 H 759.344 -1.25493 4.2089 0
M  V30 7692 H 759.95 0.4171 4.2325 0
M  V30 7693 N 758.265 -1.50454 0.469181 0
M  V30 7694 C 759.511 -2.03248 -0.0787241 0
M  V30 7695 C 759.866 -1.34499 -1.37578 0
M  V30 7696 O 759.159 -0.461173 -1.85967 0
M  V30 7697 C 759.353 -3.55963 -0.320207 0
M  V30 7698 C 759.182 -4.3951 0.951893 0
M  V30 7699 C 757.952 -4.82689 1.49465 0
M  V30 7700 C 760.15 -4.79999 1.84677 0
M  V30 7701 N 758.132 -5.50553 2.71597 0
M  V30 7702 C 759.503 -5.47254 2.91398 0
M  V30 7703 C 761.558 -4.61959 1.85738 0
M  V30 7704 C 760.261 -5.98381 3.99166 0
M  V30 7705 C 762.287 -5.14024 2.92461 0
M  V30 7706 C 761.649 -5.81253 3.97901 0
M  V30 7707 H 757.748 -0.78192 0.0111715 0
M  V30 7708 H 760.332 -1.83986 0.636961 0
M  V30 7709 H 758.503 -3.75174 -1.00493 0
M  V30 7710 H 760.235 -3.95407 -0.862285 0
M  V30 7711 H 756.99 -4.61948 1.0441 0
M  V30 7712 H 757.414 -5.89093 3.33615 0
M  V30 7713 H 762.056 -4.09416 1.05539 0
M  V30 7714 H 759.774 -6.49961 4.80183 0
M  V30 7715 H 763.36 -5.01897 2.94263 0
M  V30 7716 H 762.24 -6.20814 4.79123 0
M  V30 7717 N 759.743 -0.201713 -1.56304 0
M  V30 7718 C 760.968 0.443815 -2.02596 0
M  V30 7719 C 761.393 1.53945 -1.08086 0
M  V30 7720 O 760.751 1.81182 -0.0655056 0
M  V30 7721 C 760.799 0.971066 -3.47279 0
M  V30 7722 O 759.903 2.0836 -3.55893 0
M  V30 7723 H 759.244 0.10294 -0.655972 0
M  V30 7724 H 761.774 -0.314533 -2.02168 0
M  V30 7725 H 761.784 1.28598 -3.87204 0
M  V30 7726 H 760.459 0.169048 -4.15556 0
M  V30 7727 H 759.036 1.77683 -3.27846 0
M  V30 7728 N 761.222 1.57436 0.0718424 0
M  V30 7729 C 762.47 1.86878 0.769484 0
M  V30 7730 C 762.791 0.7937 1.78116 0
M  V30 7731 O 762.061 -0.177642 1.95093 0
M  V30 7732 H 760.641 0.689593 0.287177 0
M  V30 7733 H 763.303 1.94841 0.0479427 0
M  V30 7734 H 762.399 2.84387 1.28572 0
M  V30 7735 N 762.7 -0.34323 1.53817 0
M  V30 7736 C 763.633 -1.44472 1.76644 0
M  V30 7737 C 764.611 -1.50498 0.615556 0
M  V30 7738 O 765.795 -1.6821 0.850751 0
M  V30 7739 C 762.922 -2.82705 1.86536 0
M  V30 7740 C 761.968 -2.94302 3.08688 0
M  V30 7741 S 762.801 -2.60739 4.67735 0
M  V30 7742 C 763.957 -4.01079 4.80506 0
M  V30 7743 H 764.19 -1.24893 2.69794 0
M  V30 7744 H 761.723 -0.538915 1.4469 0
M  V30 7745 H 763.681 -3.62342 1.92921 0
M  V30 7746 H 762.342 -2.9958 0.943975 0
M  V30 7747 H 761.535 -3.95593 3.12286 0
M  V30 7748 H 761.137 -2.22614 3.00531 0
M  V30 7749 H 763.429 -4.95603 4.61935 0
M  V30 7750 H 764.372 -4.02475 5.82597 0
M  V30 7751 H 764.78 -3.89119 4.08958 0
M  V30 7752 N 764.178 -1.45556 -0.604258 0
M  V30 7753 C 765.108 -1.57327 -1.72541 0
M  V30 7754 C 766.089 -0.424637 -1.64714 0
M  V30 7755 O 767.274 -0.648196 -1.83063 0
M  V30 7756 C 764.404 -1.54279 -3.11152 0
M  V30 7757 C 763.358 -2.67893 -3.33792 0
M  V30 7758 C 762.684 -2.499 -4.72709 0
M  V30 7759 C 763.984 -4.0988 -3.23722 0
M  V30 7760 H 765.678 -2.51175 -1.62947 0
M  V30 7761 H 763.224 -1.20884 -0.782504 0
M  V30 7762 H 765.177 -1.6111 -3.89386 0
M  V30 7763 H 763.901 -0.569627 -3.21594 0
M  V30 7764 H 762.56 -2.60495 -2.57949 0
M  V30 7765 H 762.208 -1.50715 -4.79889 0
M  V30 7766 H 761.908 -3.26091 -4.88813 0
M  V30 7767 H 763.432 -2.5859 -5.5314 0
M  V30 7768 H 764.846 -4.18503 -3.91826 0
M  V30 7769 H 763.243 -4.86487 -3.51355 0
M  V30 7770 H 764.313 -4.31553 -2.21111 0
M  V30 7771 N 765.656 0.84705 -1.32902 0
M  V30 7772 C 766.902 1.60414 -1.24078 0
M  V30 7773 C 767.235 1.93217 0.195105 0
M  V30 7774 O 766.51 1.58001 1.13428 0
M  V30 7775 C 766.793 2.91951 -2.108 0
M  V30 7776 C 766.646 2.6588 -3.62805 0
M  V30 7777 C 767.965 3.93299 -1.97494 0
M  V30 7778 H 765.084 0.58206 -0.452079 0
M  V30 7779 H 767.726 0.977562 -1.62922 0
M  V30 7780 H 765.876 3.45425 -1.77802 0
M  V30 7781 H 767.548 2.18902 -4.06054 0
M  V30 7782 H 765.791 1.99716 -3.85092 0
M  V30 7783 H 766.462 3.59574 -4.1882 0
M  V30 7784 H 768.938 3.49105 -2.26417 0
M  V30 7785 H 767.814 4.8318 -2.60438 0
M  V30 7786 H 768.075 4.31887 -0.944782 0
M  V30 7787 N 767.134 1.16236 1.06428 0
M  V30 7788 C 768.382 0.941171 1.78847 0
M  V30 7789 C 768.703 -0.53248 1.87589 0
M  V30 7790 O 767.973 -1.38686 1.38358 0
M  V30 7791 H 766.553 0.345228 0.66244 0
M  V30 7792 H 769.215 1.46479 1.28569 0
M  V30 7793 H 768.311 1.35871 2.80972 0
M  V30 7794 N 768.612 -1.24939 0.960631 0
M  V30 7795 C 769.575 -2.239 0.49006 0
M  V30 7796 C 770.575 -1.55497 -0.409535 0
M  V30 7797 O 771.765 -1.72978 -0.205984 0
M  V30 7798 C 768.897 -3.39654 -0.291193 0
M  V30 7799 H 770.09 -2.67044 1.36482 0
M  V30 7800 H 767.643 -1.37429 0.744505 0
M  V30 7801 H 768.378 -3.01939 -1.18336 0
M  V30 7802 H 768.163 -3.90496 0.354276 0
M  V30 7803 H 769.653 -4.13125 -0.609693 0
M  V30 7804 N 770.09 -0.729906 -1.39679 0
M  V30 7805 C 771.02 -0.101618 -2.33279 0
M  V30 7806 C 772.001 0.729854 -1.53646 0
M  V30 7807 O 773.186 0.67587 -1.82059 0
M  V30 7808 C 770.316 0.81024 -3.37716 0
M  V30 7809 C 769.27 0.0833126 -4.27919 0
M  V30 7810 C 768.596 1.11185 -5.23012 0
M  V30 7811 C 769.896 -1.07107 -5.112 0
M  V30 7812 H 771.59 -0.883452 -2.86069 0
M  V30 7813 H 769.136 -0.426283 -1.37546 0
M  V30 7814 H 771.089 1.25927 -4.02145 0
M  V30 7815 H 769.813 1.62413 -2.83354 0
M  V30 7816 H 768.472 -0.346043 -3.64963 0
M  V30 7817 H 768.12 1.91917 -4.64948 0
M  V30 7818 H 767.82 0.63026 -5.8421 0
M  V30 7819 H 769.344 1.56068 -5.90318 0
M  V30 7820 H 770.758 -0.700726 -5.69002 0
M  V30 7821 H 769.155 -1.48196 -5.81514 0
M  V30 7822 H 770.225 -1.89513 -4.46332 0
M  V30 7823 N 771.568 1.50203 -0.477153 0
M  V30 7824 C 772.808 2.04265 0.0744065 0
M  V30 7825 C 773.172 1.35082 1.36443 0
M  V30 7826 O 774.373 1.79732 1.99875 0
M  V30 7827 C 772.644 3.56539 0.247874 0
M  V30 7828 S 774.203 4.32219 0.757117 0
M  V30 7829 H 771.021 0.71088 0.0130891 0
M  V30 7830 H 773.623 1.8453 -0.645678 0
M  V30 7831 H 772.327 4.04443 -0.696709 0
M  V30 7832 H 771.858 3.80638 0.993896 0
M  V30 7833 H 773.873 4.52789 2.0297 0
M  V30 7834 N 773.046 0.209999 1.56195 0
M  V30 7835 C 774.009 -0.691232 2.18528 0
M  V30 7836 C 775.009 -1.13013 1.14388 0
M  V30 7837 O 776.199 -1.04081 1.39688 0
M  V30 7838 C 773.331 -1.94551 2.79934 0
M  V30 7839 H 774.524 -0.147953 2.99535 0
M  V30 7840 H 772.077 -0.0396243 1.5625 0
M  V30 7841 H 772.812 -2.53094 2.02766 0
M  V30 7842 H 772.597 -1.63938 3.56184 0
M  V30 7843 H 774.087 -2.58785 3.2775 0
M  V30 7844 N 774.524 -1.57472 -0.0634922 0
M  V30 7845 C 775.454 -2.07297 -1.07473 0
M  V30 7846 C 776.435 -0.968162 -1.39859 0
M  V30 7847 O 777.62 -1.24139 -1.49343 0
M  V30 7848 C 774.75 -2.52381 -2.38581 0
M  V30 7849 C 773.704 -3.66813 -2.20526 0
M  V30 7850 C 773.03 -3.97982 -3.57092 0
M  V30 7851 C 774.33 -4.96553 -1.61965 0
M  V30 7852 H 776.024 -2.92033 -0.660092 0
M  V30 7853 H 773.57 -1.40488 -0.316074 0
M  V30 7854 H 775.523 -2.85852 -3.09624 0
M  V30 7855 H 774.247 -1.64684 -2.8204 0
M  V30 7856 H 772.906 -3.33639 -1.51924 0
M  V30 7857 H 772.554 -3.07403 -3.98136 0
M  V30 7858 H 772.254 -4.7504 -3.45848 0
M  V30 7859 H 773.778 -4.33956 -4.29552 0
M  V30 7860 H 775.192 -5.28201 -2.22883 0
M  V30 7861 H 773.589 -5.7799 -1.61394 0
M  V30 7862 H 774.659 -4.81396 -0.581918 0
M  V30 7863 N 776.003 0.335068 -1.53997 0
M  V30 7864 C 776.966 1.39481 -1.81872 0
M  V30 7865 C 777.966 1.4524 -0.690078 0
M  V30 7866 O 779.156 1.45467 -0.958377 0
M  V30 7867 C 776.288 2.78329 -1.9684 0
M  V30 7868 H 777.481 1.16024 -2.76547 0
M  V30 7869 H 775.034 0.569926 -1.45539 0
M  V30 7870 H 775.769 3.07058 -1.04337 0
M  V30 7871 H 775.554 2.75544 -2.78958 0
M  V30 7872 H 777.044 3.55016 -2.19894 0
M  V30 7873 N 777.481 1.45874 0.596531 0
M  V30 7874 C 778.729 1.5017 1.35253 0
M  V30 7875 C 779.05 0.149246 1.94428 0
M  V30 7876 O 778.32 -0.82268 1.77789 0
M  V30 7877 H 776.9 0.553052 0.502138 0
M  V30 7878 H 779.562 1.81908 0.699671 0
M  V30 7879 H 778.658 2.24671 2.16632 0
M  V30 7880 N 778.959 -0.83999 1.33349 0
M  V30 7881 C 780.205 -1.59753 1.24927 0
M  V30 7882 C 780.538 -1.93318 -0.184855 0
M  V30 7883 O 779.813 -1.586 -1.12589 0
M  V30 7884 C 780.096 -2.90829 2.12345 0
M  V30 7885 C 779.949 -2.63953 3.6421 0
M  V30 7886 C 781.268 -3.92246 1.99577 0
M  V30 7887 H 778.387 -0.579654 0.45516 0
M  V30 7888 H 781.029 -0.968909 1.63439 0
M  V30 7889 H 779.179 -3.44478 1.79631 0
M  V30 7890 H 780.851 -2.16745 4.07209 0
M  V30 7891 H 779.094 -1.97671 3.86146 0
M  V30 7892 H 779.765 -3.57348 4.20721 0
M  V30 7893 H 782.241 -3.479 2.28265 0
M  V30 7894 H 781.117 -4.81793 2.62996 0
M  V30 7895 H 781.378 -4.3138 0.967673 0
M  V30 7896 N 780.437 -1.16799 -1.0581 0
M  V30 7897 C 781.367 -0.902241 -2.15364 0
M  V30 7898 C 782.348 0.153351 -1.69407 0
M  V30 7899 O 783.533 0.00442032 -1.94199 0
M  V30 7900 C 780.663 -0.407911 -3.44896 0
M  V30 7901 C 779.617 -1.40197 -4.04387 0
M  V30 7902 C 778.943 -0.765848 -5.29187 0
M  V30 7903 C 780.243 -2.77316 -4.42598 0
M  V30 7904 H 781.937 -1.81841 -2.37853 0
M  V30 7905 H 779.483 -0.875731 -1.14311 0
M  V30 7906 H 781.436 -0.20945 -4.20879 0
M  V30 7907 H 780.16 0.54378 -3.22041 0
M  V30 7908 H 778.819 -1.58707 -3.30466 0
M  V30 7909 H 778.467 0.192482 -5.02632 0
M  V30 7910 H 778.167 -1.42939 -5.69949 0
M  V30 7911 H 779.691 -0.577519 -6.07863 0
M  V30 7912 H 781.105 -2.62561 -5.09642 0
M  V30 7913 H 779.502 -3.4019 -4.94359 0
M  V30 7914 H 780.572 -3.32199 -3.53231 0
M  V30 7915 N 781.915 1.24427 -0.967243 0
M  V30 7916 C 783.143 1.96541 -0.646477 0
M  V30 7917 C 783.558 1.71753 0.783996 0
M  V30 7918 O 782.915 1.00102 1.52597 0
M  V30 7919 C 782.966 3.4983 -0.911098 0
M  V30 7920 O 782.687 3.7377 -2.28534 0
M  V30 7921 C 784.188 4.3916 -0.604458 0
M  V30 7922 H 781.408 0.626129 -0.241255 0
M  V30 7923 H 783.952 1.58268 -1.29505 0
M  V30 7924 H 782.107 3.86168 -0.308741 0
M  V30 7925 H 782.521 4.68154 -2.365 0
M  V30 7926 H 783.995 5.4557 -0.840069 0
M  V30 7927 H 784.472 4.36771 0.461273 0
M  V30 7928 H 785.078 4.08409 -1.1867 0
M  V30 7929 N 783.393 0.737304 1.3929 0
M  V30 7930 C 784.642 0.283129 1.99703 0
M  V30 7931 C 784.955 -1.13677 1.59176 0
M  V30 7932 O 786.161 -1.69058 2.12442 0
M  V30 7933 C 784.617 0.455262 3.57009 0
M  V30 7934 C 784.225 1.88319 4.06497 0
M  V30 7935 C 785.969 0.0629786 4.24453 0
M  V30 7936 C 783.876 2.00475 5.56385 0
M  V30 7937 H 782.806 0.102106 0.747054 0
M  V30 7938 H 785.457 0.911515 1.5926 0
M  V30 7939 H 783.839 -0.242057 3.9526 0
M  V30 7940 H 785.013 2.61265 3.79575 0
M  V30 7941 H 783.328 2.2289 3.51723 0
M  V30 7942 H 785.925 0.132787 5.34535 0
M  V30 7943 H 786.268 -0.982128 4.04549 0
M  V30 7944 H 786.801 0.71154 3.91385 0
M  V30 7945 H 783.54 3.03182 5.81172 0
M  V30 7946 H 783.06 1.31969 5.85102 0
M  V30 7947 H 784.739 1.787 6.21832 0
M  V30 7948 N 784.871 -1.49948 0.485112 0
M  V30 7949 C 785.834 -2.27351 -0.290546 0
M  V30 7950 C 786.834 -1.32704 -0.908087 0
M  V30 7951 O 788.024 -1.56007 -0.775085 0
M  V30 7952 C 785.156 -3.10135 -1.41524 0
M  V30 7953 H 786.349 -2.97374 0.388454 0
M  V30 7954 H 783.902 -1.54453 0.239586 0
M  V30 7955 H 784.637 -2.44641 -2.12888 0
M  V30 7956 H 784.422 -3.79705 -0.978074 0
M  V30 7957 H 785.912 -3.68638 -1.96204 0
M  V30 7958 N 786.349 -0.21828 -1.56081 0
M  V30 7959 C 787.282 0.733096 -2.16104 0
M  V30 7960 C 788.26 1.19333 -1.10447 0
M  V30 7961 O 789.444 1.27666 -1.38685 0
M  V30 7962 C 786.571 1.99283 -2.73868 0
M  V30 7963 C 785.617 1.67285 -3.92324 0
M  V30 7964 S 786.45 0.800511 -5.29483 0
M  V30 7965 C 787.606 2.06988 -5.90683 0
M  V30 7966 H 787.839 0.222917 -2.96463 0
M  V30 7967 H 785.372 -0.00300946 -1.544 0
M  V30 7968 H 787.33 2.71618 -3.07789 0
M  V30 7969 H 785.991 2.47414 -1.93508 0
M  V30 7970 H 785.184 2.60874 -4.31232 0
M  V30 7971 H 784.786 1.03016 -3.59533 0
M  V30 7972 H 787.078 3.02019 -6.06457 0
M  V30 7973 H 788.021 1.72476 -6.86773 0
M  V30 7974 H 788.429 2.20893 -5.19487 0
M  V30 7975 N 787.827 1.57504 0.0551401 0
M  V30 7976 C 789.238 1.76626 0.604979 0
M  V30 7977 C 789.589 0.845978 1.77024 0
M  V30 7978 O 788.714 0.0341936 2.16373 0
M  V30 7979 C 789.309 3.203 1.10425 0
M  V30 7980 C 787.868 3.4071 1.59981 0
M  V30 7981 C 787.015 2.72258 0.526414 0
M  V30 7982 H 789.966 1.57775 -0.171072 0
M  V30 7983 H 789.987 3.25377 1.97256 0
M  V30 7984 H 789.499 3.87255 0.255939 0
M  V30 7985 H 787.6 2.78892 2.47083 0
M  V30 7986 H 787.713 4.49227 1.66528 0
M  V30 7987 H 786.077 2.35283 0.97539 0
M  V30 7988 H 786.86 3.41879 -0.311991 0
M  V30 7989 N 789.305 -0.326896 1.54172 0
M  V30 7990 C 790.551 -1.06681 1.72473 0
M  V30 7991 C 790.884 -1.87779 0.49523 0
M  V30 7992 O 790.159 -1.87754 -0.507803 0
M  V30 7993 C 790.442 -1.99429 2.99834 0
M  V30 7994 C 790.295 -1.21682 4.33028 0
M  V30 7995 C 791.614 -2.99002 3.22933 0
M  V30 7996 H 788.733 -0.386438 0.627563 0
M  V30 7997 H 791.375 -0.343779 1.86864 0
M  V30 7998 H 789.525 -2.61081 2.87696 0
M  V30 7999 H 791.197 -0.625153 4.57044 0
M  V30 8000 H 789.44 -0.519045 4.30684 0
M  V30 8001 H 790.111 -1.89766 5.18356 0
M  V30 8002 H 792.587 -2.4747 3.34511 0
M  V30 8003 H 791.463 -3.61085 4.13412 0
M  V30 8004 H 791.724 -3.71281 2.40006 0
M  V30 8005 N 790.784 -1.46188 -0.588786 0
M  V30 8006 C 792.195 -1.45421 -1.17088 0
M  V30 8007 C 792.546 -0.191801 -1.9526 0
M  V30 8008 O 791.671 0.705497 -2.04577 0
M  V30 8009 C 792.266 -2.63467 -2.13004 0
M  V30 8010 C 790.825 -2.6576 -2.6655 0
M  V30 8011 C 789.972 -2.38002 -1.42304 0
M  V30 8012 H 792.923 -1.54156 -0.377052 0
M  V30 8013 H 792.944 -2.38638 -2.96365 0
M  V30 8014 H 792.456 -3.55331 -1.56081 0
M  V30 8015 H 790.557 -1.77952 -3.27359 0
M  V30 8016 H 790.67 -3.65545 -3.09699 0
M  V30 8017 H 789.034 -1.87936 -1.71907 0
M  V30 8018 H 789.817 -3.32035 -0.872209 0
M  V30 8019 N 792.262 0.832906 -1.33792 0
M  V30 8020 C 793.508 1.59089 -1.25772 0
M  V30 8021 C 793.841 1.93414 0.174601 0
M  V30 8022 O 793.116 1.59195 1.11746 0
M  V30 8023 C 793.399 2.89699 -2.13885 0
M  V30 8024 C 793.252 2.62017 -3.65605 0
M  V30 8025 C 794.571 3.91182 -2.01654 0
M  V30 8026 H 791.69 0.577232 -0.458227 0
M  V30 8027 H 794.332 0.960227 -1.6395 0
M  V30 8028 H 792.482 3.4352 -1.81456 0
M  V30 8029 H 794.154 2.14582 -4.08353 0
M  V30 8030 H 792.397 1.95621 -3.87189 0
M  V30 8031 H 793.068 3.55112 -4.2261 0
M  V30 8032 H 795.544 3.46684 -2.30107 0
M  V30 8033 H 794.42 4.80391 -2.65548 0
M  V30 8034 H 794.681 4.30861 -0.990536 0
M  V30 8035 N 793.74 1.17359 1.05189 0
M  V30 8036 C 794.989 0.956412 1.77583 0
M  V30 8037 C 795.302 -0.516018 1.88671 0
M  V30 8038 O 796.508 -0.851401 2.57805 0
M  V30 8039 C 794.964 1.66203 3.19225 0
M  V30 8040 C 794.572 3.17299 3.16267 0
M  V30 8041 C 796.316 1.52725 3.96075 0
M  V30 8042 C 794.223 3.8055 4.52698 0
M  V30 8043 H 793.153 0.354204 0.665624 0
M  V30 8044 H 795.804 1.40612 1.17901 0
M  V30 8045 H 794.186 1.14006 3.79234 0
M  V30 8046 H 795.36 3.76431 2.65776 0
M  V30 8047 H 793.675 3.3079 2.52917 0
M  V30 8048 H 796.272 1.97351 4.96947 0
M  V30 8049 H 796.615 0.477803 4.13549 0
M  V30 8050 H 797.148 2.02139 3.42614 0
M  V30 8051 H 793.887 4.85492 4.4043 0
M  V30 8052 H 793.407 3.26206 5.03339 0
M  V30 8053 H 795.086 3.82757 5.21638 0
M  V30 8054 N 795.218 -1.23913 0.973828 0
M  V30 8055 C 796.464 -1.92436 0.640026 0
M  V30 8056 C 796.797 -1.75875 -0.823512 0
M  V30 8057 O 796.072 -1.11563 -1.59323 0
M  V30 8058 C 796.355 -3.4526 1.0231 0
M  V30 8059 C 796.208 -3.70961 2.54378 0
M  V30 8060 C 797.527 -4.36495 0.562155 0
M  V30 8061 H 794.646 -0.698868 0.233992 0
M  V30 8062 H 797.288 -1.46163 1.21393 0
M  V30 8063 H 795.438 -3.84802 0.534751 0
M  V30 8064 H 797.11 -3.40941 3.10737 0
M  V30 8065 H 795.353 -3.15899 2.97305 0
M  V30 8066 H 796.024 -4.77912 2.76232 0
M  V30 8067 H 798.5 -4.04363 0.981333 0
M  V30 8068 H 797.376 -5.42142 0.858689 0
M  V30 8069 H 797.637 -4.38818 -0.537659 0
M  V30 8070 N 796.696 -0.74468 -1.38897 0
M  V30 8071 C 797.644 -0.100312 -2.32384 0
M  V30 8072 C 798.638 0.715191 -1.53562 0
M  V30 8073 O 799.844 0.615288 -1.69157 0
M  V30 8074 H 796.219 -0.0136403 -0.751876 0
M  V30 8075 H 798.19 -0.905007 -2.84345 0
M  V30 8076 C 796.939 0.785432 -3.38713 0
M  V30 8077 H 796.262 0.167308 -3.9945 0
M  V30 8078 H 797.702 1.20374 -4.06554 0
M  V30 8079 C 796.161 1.92408 -2.76552 0
M  V30 8080 O 796.691 3.01752 -2.65157 0
M  V30 8081 N 794.897 1.71642 -2.34494 0
M  V30 8082 H 794.444 0.827079 -2.43961 0
M  V30 8083 H 794.402 2.48 -1.93244 0
M  V30 8084 N 798.174 1.49689 -0.493057 0
M  V30 8085 C 799.122 2.30613 0.303383 0
M  V30 8086 C 800.116 1.38867 0.970165 0
M  V30 8087 O 801.322 1.55956 0.898761 0
M  V30 8088 H 797.697 0.742891 0.116691 0
M  V30 8089 H 799.668 2.95717 -0.39924 0
M  V30 8090 C 798.417 3.20008 1.35978 0
M  V30 8091 H 797.74 3.90526 0.856103 0
M  V30 8092 H 799.18 3.79586 1.88919 0
M  V30 8093 C 797.639 2.39079 2.37367 0
M  V30 8094 O 798.169 2.08933 3.43089 0
M  V30 8095 N 796.375 2.0125 2.09635 0
M  V30 8096 H 795.922 2.25966 1.23682 0
M  V30 8097 H 795.88 1.47408 2.77702 0
M  V30 8098 N 799.652 0.226554 1.55963 0
M  V30 8099 C 800.899 -0.403789 1.98433 0
M  V30 8100 C 801.227 -1.59416 1.1143 0
M  V30 8101 O 800.482 -1.95042 0.160389 0
M  V30 8102 C 800.781 -0.87642 3.46488 0
M  V30 8103 C 800.447 0.203973 4.50438 0
M  V30 8104 C 799.109 0.500754 4.78587 0
M  V30 8105 C 801.461 0.934396 5.12756 0
M  V30 8106 C 798.789 1.53239 5.66334 0
M  V30 8107 C 801.141 1.9554 6.0162 0
M  V30 8108 C 799.805 2.25905 6.28111 0
M  V30 8109 H 799.075 -0.147757 0.726119 0
M  V30 8110 H 801.722 0.330121 1.88633 0
M  V30 8111 H 800.027 -1.68918 3.53517 0
M  V30 8112 H 801.724 -1.37407 3.76723 0
M  V30 8113 H 798.314 -0.0374917 4.28584 0
M  V30 8114 H 802.498 0.718355 4.91074 0
M  V30 8115 H 797.754 1.77321 5.85122 0
M  V30 8116 H 801.928 2.52642 6.48957 0
M  V30 8117 H 799.555 3.05985 6.959 0
M  V30 8118 N 801.13 -1.57531 -0.0467866 0
M  V30 8119 C 802.378 -1.88078 -0.739656 0
M  V30 8120 C 802.699 -0.821936 -1.76831 0
M  V30 8121 O 801.969 0.146582 -1.95351 0
M  V30 8122 H 800.549 -0.694075 -0.276169 0
M  V30 8123 H 803.211 -1.94893 -0.0169391 0
M  V30 8124 H 802.307 -2.86396 -1.24031 0
M  V30 8125 N 802.608 0.318715 -1.54344 0
M  V30 8126 C 803.541 1.41644 -1.7892 0
M  V30 8127 C 804.519 1.495 -0.639421 0
M  V30 8128 O 805.703 1.66835 -0.877404 0
M  V30 8129 C 802.83 2.79701 -1.9101 0
M  V30 8130 C 801.876 2.89354 -3.13331 0
M  V30 8131 S 802.709 2.53264 -4.71824 0
M  V30 8132 C 803.865 3.93384 -4.86826 0
M  V30 8133 H 804.098 1.20585 -2.71747 0
M  V30 8134 H 801.631 0.515828 -1.45529 0
M  V30 8135 H 803.589 3.59227 -1.98661 0
M  V30 8136 H 802.25 2.9804 -0.991516 0
M  V30 8137 H 801.443 3.90574 -3.1854 0
M  V30 8138 H 801.045 2.17805 -3.04035 0
M  V30 8139 H 803.337 4.88191 -4.69761 0
M  V30 8140 H 804.28 3.93156 -5.88926 0
M  V30 8141 H 804.688 3.82564 -4.15097 0
M  V30 8142 N 804.086 1.46499 0.581025 0
M  V30 8143 C 805.316 1.55244 1.36319 0
M  V30 8144 C 805.724 0.193059 1.88212 0
M  V30 8145 O 805.067 -0.820109 1.64377 0
M  V30 8146 C 805.129 2.498 2.58535 0
M  V30 8147 C 804.793 3.96007 2.28096 0
M  V30 8148 C 805.79 4.85171 1.8683 0
M  V30 8149 C 803.475 4.41152 2.40189 0
M  V30 8150 C 805.469 6.17493 1.58053 0
M  V30 8151 C 803.156 5.73508 2.11024 0
M  V30 8152 C 804.154 6.615 1.70021 0
M  V30 8153 O 803.842 7.914 1.41215 0
M  V30 8154 H 803.574 0.527513 0.422736 0
M  V30 8155 H 806.128 1.92623 0.713139 0
M  V30 8156 H 804.358 2.07443 3.2635 0
M  V30 8157 H 806.047 2.48934 3.20604 0
M  V30 8158 H 806.813 4.51548 1.77001 0
M  V30 8159 H 802.692 3.72886 2.71066 0
M  V30 8160 H 806.236 6.86131 1.25974 0
M  V30 8161 H 802.133 6.06679 2.20478 0
M  V30 8162 H 802.901 8.03681 1.55046 0
M  V30 8163 N 805.565 -0.825799 1.34232 0
M  V30 8164 C 806.795 -1.61129 1.29309 0
M  V30 8165 C 807.203 -1.88714 -0.135589 0
M  V30 8166 O 806.546 -1.47703 -1.09222 0
M  V30 8167 C 806.608 -2.97866 2.01287 0
M  V30 8168 C 806.272 -2.9319 3.50555 0
M  V30 8169 C 807.269 -2.67978 4.45515 0
M  V30 8170 C 804.954 -3.12913 3.92926 0
M  V30 8171 C 806.948 -2.62536 5.80822 0
M  V30 8172 C 804.635 -3.07096 5.28333 0
M  V30 8173 C 805.633 -2.8194 6.22092 0
M  V30 8174 O 805.321 -2.7605 7.55018 0
M  V30 8175 H 805.053 -0.507652 0.446391 0
M  V30 8176 H 807.607 -1.03575 1.77374 0
M  V30 8177 H 805.837 -3.57327 1.47832 0
M  V30 8178 H 807.526 -3.58848 1.89691 0
M  V30 8179 H 808.292 -2.52478 4.14101 0
M  V30 8180 H 804.171 -3.3151 3.20347 0
M  V30 8181 H 807.715 -2.42821 6.53975 0
M  V30 8182 H 803.612 -3.22148 5.59367 0
M  V30 8183 H 804.38 -2.91798 7.6472 0
M  V30 8184 N 807.043 -1.17915 -1.04565 0
M  V30 8185 C 808.268 -0.996749 -1.81878 0
M  V30 8186 C 808.693 0.450169 -1.82634 0
M  V30 8187 O 808.051 1.32268 -1.23995 0
M  V30 8188 C 808.099 -1.55005 -3.25585 0
M  V30 8189 O 807.203 -0.76804 -4.05185 0
M  V30 8190 H 806.544 -0.353456 -0.562108 0
M  V30 8191 H 809.074 -1.56557 -1.31723 0
M  V30 8192 H 809.084 -1.57503 -3.76373 0
M  V30 8193 H 807.759 -2.60327 -3.2435 0
M  V30 8194 H 806.336 -0.81498 -3.63885 0
M  V30 8195 N 808.521 1.23394 -0.980386 0
M  V30 8196 C 809.451 2.2717 -0.540024 0
M  V30 8197 C 810.432 1.64659 0.426787 0
M  V30 8198 O 811.617 1.91543 0.320153 0
M  V30 8199 C 808.747 3.46939 0.15836 0
M  V30 8200 C 807.701 4.21802 -0.725732 0
M  V30 8201 C 807.027 5.34597 0.104866 0
M  V30 8202 C 808.327 4.81802 -2.01654 0
M  V30 8203 H 810.021 2.64257 -1.40743 0
M  V30 8204 H 807.567 1.2703 -0.678193 0
M  V30 8205 H 809.52 4.18683 0.477737 0
M  V30 8206 H 808.244 3.08912 1.06022 0
M  V30 8207 H 806.903 3.51875 -1.02857 0
M  V30 8208 H 806.551 4.92812 1.00726 0
M  V30 8209 H 806.251 5.85607 -0.483557 0
M  V30 8210 H 807.775 6.09163 0.418624 0
M  V30 8211 H 809.189 5.45554 -1.76193 0
M  V30 8212 H 807.586 5.43098 -2.55273 0
M  V30 8213 H 808.656 4.02549 -2.70338 0
M  V30 8214 N 809.999 0.752036 1.385 0
M  V30 8215 C 810.962 0.131587 2.28822 0
M  V30 8216 C 811.962 -0.649149 1.47115 0
M  V30 8217 O 813.152 -0.475645 1.67581 0
M  V30 8218 C 810.284 -0.822101 3.30839 0
M  V30 8219 H 811.477 0.927551 2.85196 0
M  V30 8220 H 809.03 0.518945 1.47434 0
M  V30 8221 H 809.765 -1.6438 2.79553 0
M  V30 8222 H 809.55 -0.264689 3.91206 0
M  V30 8223 H 811.04 -1.25226 3.98382 0
M  V30 8224 N 811.477 -1.49425 0.500989 0
M  V30 8225 C 812.41 -2.25887 -0.324087 0
M  V30 8226 C 813.388 -1.30469 -0.970388 0
M  V30 8227 O 814.572 -1.59758 -1.00049 0
M  V30 8228 C 811.699 -3.05787 -1.45643 0
M  V30 8229 C 810.745 -4.16359 -0.924508 0
M  V30 8230 S 811.578 -5.35181 0.184707 0
M  V30 8231 C 812.734 -6.18636 -0.950806 0
M  V30 8232 H 812.967 -2.95519 0.324891 0
M  V30 8233 H 810.5 -1.51723 0.286289 0
M  V30 8234 H 812.458 -3.52405 -2.10525 0
M  V30 8235 H 811.119 -2.35624 -2.07703 0
M  V30 8236 H 810.312 -4.71781 -1.77311 0
M  V30 8237 H 809.914 -3.72331 -0.352907 0
M  V30 8238 H 812.206 -6.51581 -1.85603 0
M  V30 8239 H 813.149 -7.06761 -0.435212 0
M  V30 8240 H 813.557 -5.512 -1.21813 0
M  V30 8241 N 812.955 -0.234822 -1.55841 0
M  V30 8242 C 813.918 0.656378 -2.196 0
M  V30 8243 C 814.918 1.11179 -1.16171 0
M  V30 8244 O 816.108 1.01845 -1.41326 0
M  V30 8245 C 813.24 1.90072 -2.82993 0
M  V30 8246 H 814.433 0.100281 -2.99732 0
M  V30 8247 H 811.986 0.0147613 -1.56293 0
M  V30 8248 H 812.721 2.49836 -2.06767 0
M  V30 8249 H 812.506 1.5825 -3.58747 0
M  V30 8250 H 813.996 2.53538 -3.31826 0
M  V30 8251 N 814.433 1.57553 0.0384317 0
M  V30 8252 C 815.38 2.05942 1.04194 0
M  V30 8253 C 816.35 0.946637 1.36484 0
M  V30 8254 O 817.535 1.21658 1.46983 0
M  V30 8255 C 814.675 2.53588 2.34066 0
M  V30 8256 C 813.788 3.7862 2.08017 0
M  V30 8257 C 812.923 4.14915 3.31692 0
M  V30 8258 C 811.962 5.32891 3.01155 0
M  V30 8259 N 811.099 5.64662 4.17254 0
M  V30 8260 H 815.939 2.91429 0.622341 0
M  V30 8261 H 813.476 1.44098 0.295684 0
M  V30 8262 H 815.434 2.79276 3.09937 0
M  V30 8263 H 814.064 1.71031 2.73767 0
M  V30 8264 H 813.116 3.60073 1.22686 0
M  V30 8265 H 814.428 4.64613 1.81484 0
M  V30 8266 H 813.582 4.41681 4.15936 0
M  V30 8267 H 812.321 3.27555 3.6133 0
M  V30 8268 H 811.326 5.05887 2.15311 0
M  V30 8269 H 812.551 6.21896 2.72804 0
M  V30 8270 H 810.497 4.80261 4.46861 0
M  V30 8271 H 810.414 6.45145 3.94112 0
M  V30 8272 H 811.682 5.96 5.02399 0
M  V30 8273 N 815.911 -0.310526 1.54511 0
M  V30 8274 C 816.843 -1.40405 1.8116 0
M  V30 8275 C 817.856 -1.47261 0.694114 0
M  V30 8276 O 819.045 -1.49751 0.971441 0
M  V30 8277 C 816.145 -2.78849 1.92604 0
M  V30 8278 C 815.318 -2.95041 3.22908 0
M  V30 8279 C 814.377 -4.13925 3.24889 0
M  V30 8280 O 813.403 -4.06463 3.98467 0
M  V30 8281 N 814.605 -5.24099 2.496 0
M  V30 8282 H 817.37 -1.17903 2.75534 0
M  V30 8283 H 814.931 -0.500564 1.53967 0
M  V30 8284 H 816.923 -3.5661 1.91342 0
M  V30 8285 H 815.493 -2.94342 1.05268 0
M  V30 8286 H 814.713 -2.04472 3.37023 0
M  V30 8287 H 816.001 -3.02763 4.08916 0
M  V30 8288 H 815.399 -5.33039 1.89435 0
M  V30 8289 H 813.956 -6.0023 2.54102 0
M  V30 8290 N 817.389 -1.46805 -0.573248 0
M  V30 8291 C 818.336 -1.58084 -1.68161 0
M  V30 8292 C 819.306 -0.424636 -1.6058 0
M  V30 8293 O 820.491 -0.642623 -1.79652 0
M  V30 8294 C 817.631 -1.58601 -3.06496 0
M  V30 8295 C 816.744 -2.85023 -3.24632 0
M  V30 8296 C 815.879 -2.76981 -4.53271 0
M  V30 8297 C 814.918 -3.983 -4.64783 0
M  V30 8298 N 814.055 -3.88589 -5.84759 0
M  V30 8299 H 818.895 -2.52755 -1.57858 0
M  V30 8300 H 816.432 -1.25385 -0.769218 0
M  V30 8301 H 818.39 -1.56885 -3.86579 0
M  V30 8302 H 817.02 -0.674553 -3.15673 0
M  V30 8303 H 816.072 -2.96678 -2.38089 0
M  V30 8304 H 817.384 -3.7491 -3.29004 0
M  V30 8305 H 816.538 -2.73424 -5.41594 0
M  V30 8306 H 815.277 -1.84751 -4.51352 0
M  V30 8307 H 814.282 -4.02179 -3.74876 0
M  V30 8308 H 815.507 -4.91639 -4.68474 0
M  V30 8309 H 813.453 -2.99151 -5.83819 0
M  V30 8310 H 813.37 -4.7214 -5.90441 0
M  V30 8311 H 814.638 -3.89022 -6.75486 0
M  V30 8312 N 818.867 0.818669 -1.34668 0
M  V30 8313 C 819.797 1.94468 -1.29245 0
M  V30 8314 C 820.778 1.69257 -0.169101 0
M  V30 8315 O 821.963 1.90794 -0.362143 0
M  V30 8316 C 819.093 3.31001 -1.05145 0
M  V30 8317 C 818.047 3.70663 -2.13992 0
M  V30 8318 C 817.373 5.05226 -1.75074 0
M  V30 8319 C 818.673 3.82312 -3.55858 0
M  V30 8320 H 820.367 1.99263 -2.2346 0
M  V30 8321 H 817.913 0.957304 -1.07572 0
M  V30 8322 H 819.866 4.09364 -0.999949 0
M  V30 8323 H 818.59 3.26517 -0.0737312 0
M  V30 8324 H 817.249 2.94578 -2.18219 0
M  V30 8325 H 816.897 4.97233 -0.759518 0
M  V30 8326 H 816.597 5.32734 -2.47928 0
M  V30 8327 H 818.121 5.86042 -1.71427 0
M  V30 8328 H 819.535 4.50935 -3.5402 0
M  V30 8329 H 817.932 4.21278 -4.2737 0
M  V30 8330 H 819.002 2.84193 -3.9289 0
M  V30 8331 N 820.346 1.18468 1.03938 0
M  V30 8332 C 821.757 0.984808 1.58614 0
M  V30 8333 C 822.108 -0.465165 1.90606 0
M  V30 8334 O 821.233 -1.34274 1.69704 0
M  V30 8335 C 821.828 1.78135 2.8819 0
M  V30 8336 C 820.387 1.62579 3.39478 0
M  V30 8337 C 819.534 1.77501 2.13046 0
M  V30 8338 H 822.485 1.32993 0.865944 0
M  V30 8339 H 822.506 1.27119 3.58638 0
M  V30 8340 H 822.018 2.83661 2.64874 0
M  V30 8341 H 820.119 0.59595 3.67803 0
M  V30 8342 H 820.232 2.42463 4.13217 0
M  V30 8343 H 818.596 1.2046 2.24414 0
M  V30 8344 H 819.379 2.84464 1.92185 0
M  V30 8345 N 821.824 -1.22873 0.986916 0
M  V30 8346 C 822.771 -2.2458 0.532215 0
M  V30 8347 C 823.741 -1.60375 -0.432322 0
M  V30 8348 O 824.926 -1.87775 -0.338416 0
M  V30 8349 C 822.066 -3.44761 -0.152864 0
M  V30 8350 C 821.179 -4.23501 0.852704 0
M  V30 8351 C 820.314 -5.31011 0.14176 0
M  V30 8352 C 819.353 -6.01464 1.1361 0
M  V30 8353 N 818.49 -7.00631 0.453871 0
M  V30 8354 H 823.33 -2.62838 1.40428 0
M  V30 8355 H 820.867 -1.29185 0.703543 0
M  V30 8356 H 822.825 -4.1333 -0.566926 0
M  V30 8357 H 821.455 -3.07284 -0.988756 0
M  V30 8358 H 820.507 -3.54286 1.38512 0
M  V30 8359 H 821.819 -4.72097 1.61014 0
M  V30 8360 H 820.973 -6.05805 -0.329337 0
M  V30 8361 H 819.712 -4.83373 -0.648229 0
M  V30 8362 H 818.717 -5.25456 1.61789 0
M  V30 8363 H 819.942 -6.5119 1.92686 0
M  V30 8364 H 817.888 -6.55235 -0.316791 0
M  V30 8365 H 817.805 -7.47204 1.14986 0
M  V30 8366 H 819.073 -7.795 0.00537823 0
M  V30 8367 N 823.302 -0.75937 -1.38099 0
M  V30 8368 C 824.249 -0.135508 -2.30402 0
M  V30 8369 C 825.219 0.703356 -1.50473 0
M  V30 8370 O 826.404 0.658287 -1.79084 0
M  V30 8371 C 823.544 0.747228 -3.36913 0
M  V30 8372 C 822.657 -0.106893 -4.31868 0
M  V30 8373 C 821.792 0.779388 -5.25451 0
M  V30 8374 C 820.831 -0.0780179 -6.1205 0
M  V30 8375 N 819.968 0.765545 -6.97914 0
M  V30 8376 H 824.808 -0.9282 -2.83176 0
M  V30 8377 H 822.345 -0.46935 -1.39411 0
M  V30 8378 H 824.303 1.27371 -3.97281 0
M  V30 8379 H 822.933 1.50565 -2.85535 0
M  V30 8380 H 821.985 -0.751063 -3.72912 0
M  V30 8381 H 823.297 -0.768798 -4.9284 0
M  V30 8382 H 822.451 1.37282 -5.90964 0
M  V30 8383 H 821.19 1.47501 -4.6486 0
M  V30 8384 H 820.195 -0.684078 -5.45528 0
M  V30 8385 H 821.42 -0.770786 -6.74712 0
M  V30 8386 H 819.366 1.44601 -6.39864 0
M  V30 8387 H 819.283 0.160666 -7.55829 0
M  V30 8388 H 820.551 1.34377 -7.6783 0
M  V30 8389 N 824.78 1.49157 -0.508906 0
M  V30 8390 C 825.727 2.2927 0.265288 0
M  V30 8391 C 826.697 1.3603 0.953162 0
M  V30 8392 O 827.882 1.64989 0.958291 0
M  V30 8393 C 825.022 3.18897 1.31904 0
M  V30 8394 C 824.135 4.27201 0.642144 0
M  V30 8395 C 823.27 5.04033 1.67701 0
M  V30 8396 C 822.309 6.04165 0.982422 0
M  V30 8397 N 821.446 6.74133 1.96186 0
M  V30 8398 H 826.286 2.94967 -0.424107 0
M  V30 8399 H 823.823 1.45431 -0.220991 0
M  V30 8400 H 825.781 3.69242 1.94206 0
M  V30 8401 H 824.411 2.55168 1.97709 0
M  V30 8402 H 823.463 3.80283 -0.0943395 0
M  V30 8403 H 824.775 4.98708 0.0957507 0
M  V30 8404 H 823.929 5.58287 2.37487 0
M  V30 8405 H 822.668 4.32317 2.25728 0
M  V30 8406 H 821.673 5.49135 0.270378 0
M  V30 8407 H 822.898 6.7787 0.408554 0
M  V30 8408 H 820.844 6.05183 2.53159 0
M  V30 8409 H 820.761 7.41643 1.46634 0
M  V30 8410 H 822.029 7.32987 2.65236 0
M  V30 8411 N 826.258 0.243083 1.55714 0
M  V30 8412 C 827.206 -0.674349 2.2261 0
M  V30 8413 C 828.2 -1.18307 1.21243 0
M  V30 8414 O 829.406 -1.1404 1.39265 0
M  V30 8415 H 825.781 -0.235941 0.714028 0
M  V30 8416 H 827.752 -0.0869446 2.98273 0
M  V30 8417 C 826.501 -1.86206 2.93637 0
M  V30 8418 H 825.824 -1.47975 3.71407 0
M  V30 8419 H 827.264 -2.4813 3.43813 0
M  V30 8420 C 825.723 -2.73084 1.97298 0
M  V30 8421 O 826.253 -3.72497 1.50361 0
M  V30 8422 N 824.459 -2.39571 1.64482 0
M  V30 8423 H 824.006 -1.5878 2.02846 0
M  V30 8424 H 823.964 -2.97976 1.00288 0
M  V30 8425 N 827.736 -1.57571 -0.0300757 0
M  V30 8426 C 828.683 -2.06492 -1.03101 0
M  V30 8427 C 829.653 -0.953862 -1.3598 0
M  V30 8428 O 830.838 -1.22436 -1.46335 0
M  V30 8429 C 827.978 -2.54826 -2.32718 0
M  V30 8430 C 827.091 -3.79718 -2.06006 0
M  V30 8431 C 826.226 -4.16668 -3.29487 0
M  V30 8432 C 825.265 -5.3448 -2.98324 0
M  V30 8433 N 824.402 -5.66867 -4.14254 0
M  V30 8434 H 829.242 -2.91755 -0.606877 0
M  V30 8435 H 826.779 -1.44252 -0.288038 0
M  V30 8436 H 828.737 -2.80916 -3.08451 0
M  V30 8437 H 827.367 -1.72481 -2.72856 0
M  V30 8438 H 826.419 -3.60718 -1.20774 0
M  V30 8439 H 827.731 -4.65569 -1.79017 0
M  V30 8440 H 826.885 -4.43881 -4.13588 0
M  V30 8441 H 825.624 -3.29466 -3.59588 0
M  V30 8442 H 824.629 -5.07021 -2.12625 0
M  V30 8443 H 825.854 -6.23334 -2.69502 0
M  V30 8444 H 823.8 -4.82625 -4.44308 0
M  V30 8445 H 823.717 -6.47226 -3.90685 0
M  V30 8446 H 824.985 -5.98656 -4.99231 0
M  V30 8447 N 829.214 0.302327 -1.54673 0
M  V30 8448 C 830.164 1.37443 -1.81916 0
M  V30 8449 C 831.148 1.45999 -0.676251 0
M  V30 8450 O 832.34 1.50174 -0.93685 0
M  V30 8451 C 829.469 2.73966 -2.06876 0
M  V30 8452 C 828.555 2.69637 -3.27348 0
M  V30 8453 N 828.946 2.34926 -4.47933 0
M  V30 8454 C 827.244 3.00742 -3.29348 0
M  V30 8455 C 827.945 2.39862 -5.29944 0
M  V30 8456 N 826.921 2.77163 -4.67634 0
M  V30 8457 H 830.723 1.09567 -2.72713 0
M  V30 8458 H 828.237 0.5109 -1.54154 0
M  V30 8459 H 830.234 3.51265 -2.2454 0
M  V30 8460 H 828.894 3.02754 -1.17346 0
M  V30 8461 H 829.905 2.07403 -4.74557 0
M  V30 8462 H 826.582 3.34434 -2.49921 0
M  V30 8463 H 827.972 2.15835 -6.3629 0
M  V30 8464 N 830.692 1.47107 0.565454 0
M  V30 8465 C 831.941 1.5257 1.31929 0
M  V30 8466 C 832.254 0.189092 1.94684 0
M  V30 8467 O 833.46 0.121657 2.71227 0
M  V30 8468 C 831.916 2.68914 2.39193 0
M  V30 8469 C 831.524 4.09069 1.82665 0
M  V30 8470 C 833.268 2.83663 3.1581 0
M  V30 8471 C 831.175 5.16726 2.87661 0
M  V30 8472 H 830.105 0.567869 0.496025 0
M  V30 8473 H 832.756 1.73361 0.60151 0
M  V30 8474 H 831.138 2.41486 3.13848 0
M  V30 8475 H 832.312 4.46364 1.14438 0
M  V30 8476 H 830.627 3.99135 1.1866 0
M  V30 8477 H 833.224 3.61261 3.94201 0
M  V30 8478 H 833.567 1.91804 3.69482 0
M  V30 8479 H 834.1 3.10821 2.48265 0
M  V30 8480 H 830.839 6.10433 2.38854 0
M  V30 8481 H 830.359 4.83957 3.54324 0
M  V30 8482 H 832.038 5.43319 3.51303 0
M  V30 8483 N 832.17 -0.811516 1.35101 0
M  V30 8484 C 833.581 -1.38515 1.25182 0
M  V30 8485 C 833.932 -1.95846 -0.117883 0
M  V30 8486 O 833.057 -1.90925 -1.01866 0
M  V30 8487 C 833.652 -2.51813 2.26662 0
M  V30 8488 C 832.211 -3.05052 2.20499 0
M  V30 8489 C 831.358 -1.77987 2.12641 0
M  V30 8490 H 834.309 -0.614959 1.46301 0
M  V30 8491 H 834.33 -3.30228 1.89023 0
M  V30 8492 H 833.842 -2.10057 3.2634 0
M  V30 8493 H 831.943 -3.51285 1.24215 0
M  V30 8494 H 832.056 -3.63368 3.1225 0
M  V30 8495 H 830.42 -1.99342 1.5854 0
M  V30 8496 H 831.203 -1.38389 3.14171 0
M  V30 8497 N 833.648 -1.19017 -1.03309 0
M  V30 8498 C 835.064 -0.941483 -1.28873 0
M  V30 8499 C 835.264 0.388587 -1.97718 0
M  V30 8500 O 834.32 1.12111 -2.26246 0
M  V30 8501 C 835.633 -2.11249 -2.13996 0
M  V30 8502 C 837.181 -2.15164 -2.27318 0
M  V30 8503 C 837.656 -3.31704 -3.15811 0
M  V30 8504 N 839.147 -3.31613 -3.23399 0
M  V30 8505 C 839.882 -4.18431 -3.9205 0
M  V30 8506 N 839.378 -5.15397 -4.62966 0
M  V30 8507 N 841.171 -4.06321 -3.88406 0
M  V30 8508 H 833.322 -2.04599 -0.570343 0
M  V30 8509 H 835.585 -0.894406 -0.314232 0
M  V30 8510 H 835.291 -3.07482 -1.70727 0
M  V30 8511 H 835.165 -2.07955 -3.14697 0
M  V30 8512 H 837.552 -1.19504 -2.6982 0
M  V30 8513 H 837.633 -2.22513 -1.26182 0
M  V30 8514 H 837.277 -4.2764 -2.74019 0
M  V30 8515 H 837.207 -3.21592 -4.16997 0
M  V30 8516 H 839.698 -2.6142 -2.72888 0
M  V30 8517 H 840.011 -5.78 -5.12968 0
M  V30 8518 H 838.356 -5.19349 -4.61846 0
M  V30 8519 H 841.547 -3.29849 -3.3214 0
M  V30 8520 H 841.72 -4.74196 -4.41635 0
M  V30 8521 N 835.127 1.22348 -0.993418 0
M  V30 8522 C 836.538 1.72893 -0.704616 0
M  V30 8523 C 836.889 1.80095 0.778483 0
M  V30 8524 O 836.014 1.4476 1.60853 0
M  V30 8525 C 836.609 3.14 -1.27237 0
M  V30 8526 C 835.168 3.61949 -1.03294 0
M  V30 8527 C 834.315 2.39816 -1.39225 0
M  V30 8528 H 837.266 1.07688 -1.16572 0
M  V30 8529 H 837.287 3.74886 -0.651212 0
M  V30 8530 H 836.799 3.08727 -2.3518 0
M  V30 8531 H 834.9 3.72588 0.0298329 0
M  V30 8532 H 835.013 4.48051 -1.69668 0
M  V30 8533 H 833.377 2.41448 -0.810849 0
M  V30 8534 H 834.16 2.37203 -2.48172 0
M  V30 8535 N 836.605 0.766683 1.37694 0
M  V30 8536 C 838.016 0.394761 1.82479 0
M  V30 8537 C 838.367 -1.07842 1.63904 0
M  V30 8538 O 837.492 -1.83479 1.14737 0
M  V30 8539 C 838.087 0.70974 3.31283 0
M  V30 8540 C 836.646 0.390936 3.74364 0
M  V30 8541 C 835.793 0.956192 2.60293 0
M  V30 8542 H 838.744 0.961756 1.26238 0
M  V30 8543 H 838.765 -0.00742144 3.80499 0
M  V30 8544 H 838.277 1.782 3.4477 0
M  V30 8545 H 836.378 -0.674213 3.66449 0
M  V30 8546 H 836.491 0.895645 4.70654 0
M  V30 8547 H 834.855 0.380744 2.51838 0
M  V30 8548 H 835.638 2.03375 2.76575 0
M  V30 8549 N 838.083 -1.48885 0.516809 0
M  V30 8550 C 839.015 -2.27357 -0.290061 0
M  V30 8551 C 840.028 -1.34558 -0.916406 0
M  V30 8552 O 841.217 -1.59715 -0.797073 0
M  V30 8553 C 838.317 -3.07496 -1.42476 0
M  V30 8554 C 837.49 -4.27982 -0.902793 0
M  V30 8555 C 836.549 -4.90038 -1.91701 0
M  V30 8556 O 835.575 -5.49643 -1.47922 0
M  V30 8557 N 836.777 -4.811 -3.24843 0
M  V30 8558 H 839.542 -2.97244 0.382884 0
M  V30 8559 H 837.103 -1.58064 0.35032 0
M  V30 8560 H 839.095 -3.45882 -2.10113 0
M  V30 8561 H 837.665 -2.40115 -2.00159 0
M  V30 8562 H 836.885 -3.94167 -0.0508272 0
M  V30 8563 H 838.173 -5.06003 -0.532723 0
M  V30 8564 H 837.571 -4.33801 -3.63088 0
M  V30 8565 H 836.128 -5.23625 -3.8815 0
M  V30 8566 N 839.561 -0.251338 -1.55583 0
M  V30 8567 C 840.972 0.25098 -1.85005 0
M  V30 8568 C 841.323 1.57259 -1.17321 0
M  V30 8569 O 840.448 2.11603 -0.453136 0
M  V30 8570 C 841.043 0.462161 -3.35633 0
M  V30 8571 C 839.602 0.908737 -3.65266 0
M  V30 8572 C 838.749 -0.0115418 -2.77298 0
M  V30 8573 H 841.7 -0.473782 -1.51463 0
M  V30 8574 H 841.721 1.30415 -3.57452 0
M  V30 8575 H 841.233 -0.499886 -3.84867 0
M  V30 8576 H 839.334 1.8831 -3.21512 0
M  V30 8577 H 839.447 0.762526 -4.72993 0
M  V30 8578 H 837.811 0.500612 -2.49732 0
M  V30 8579 H 838.594 -0.969042 -3.29339 0
M  V30 8580 N 841.039 1.57585 0.0217189 0
M  V30 8581 C 842.287 1.89231 0.709641 0
M  V30 8582 C 842.608 0.849964 1.75501 0
M  V30 8583 O 841.878 -0.115485 1.95559 0
M  V30 8584 H 840.458 0.69838 0.265092 0
M  V30 8585 H 843.12 1.94895 -0.0140688 0
M  V30 8586 H 842.216 2.88333 1.19459 0
M  V30 8587 N 842.517 -0.29412 1.54831 0
M  V30 8588 C 843.742 -1.05156 1.78765 0
M  V30 8589 C 844.167 -1.79916 0.548809 0
M  V30 8590 O 843.525 -1.74243 -0.500909 0
M  V30 8591 C 843.573 -2.00242 2.99893 0
M  V30 8592 O 842.677 -3.08662 2.73499 0
M  V30 8593 H 842.018 -0.301737 0.591482 0
M  V30 8594 H 844.548 -0.329449 2.0193 0
M  V30 8595 H 844.558 -2.42583 3.28051 0
M  V30 8596 H 843.233 -1.45235 3.89717 0
M  V30 8597 H 841.81 -2.70786 2.56377 0
M  V30 8598 N 843.995 -1.47404 -0.557645 0
M  V30 8599 C 845.406 -1.47872 -1.13977 0
M  V30 8600 C 845.757 -0.233176 -1.94809 0
M  V30 8601 O 844.882 0.661945 -2.06027 0
M  V30 8602 C 845.477 -2.67926 -2.07368 0
M  V30 8603 C 844.036 -2.71354 -2.60852 0
M  V30 8604 C 843.183 -2.40967 -1.37223 0
M  V30 8605 H 846.134 -1.54921 -0.344268 0
M  V30 8606 H 846.155 -2.44871 -2.91236 0
M  V30 8607 H 845.667 -3.58562 -1.48509 0
M  V30 8608 H 843.768 -1.84855 -3.23511 0
M  V30 8609 H 843.881 -3.72032 -3.01876 0
M  V30 8610 H 842.245 -1.91541 -1.67882 0
M  V30 8611 H 843.028 -3.33811 -0.801583 0
M  V30 8612 N 845.473 0.80434 -1.35529 0
M  V30 8613 C 846.421 1.93769 -1.28671 0
M  V30 8614 C 847.415 1.68428 -0.181222 0
M  V30 8615 O 848.621 1.76617 -0.347338 0
M  V30 8616 H 844.996 0.636663 -0.400206 0
M  V30 8617 H 846.967 1.96673 -2.24415 0
M  V30 8618 C 845.716 3.30572 -1.07784 0
M  V30 8619 H 845.039 3.5063 -1.9209 0
M  V30 8620 H 846.479 4.1027 -1.07027 0
M  V30 8621 C 844.938 3.36193 0.218213 0
M  V30 8622 O 845.468 3.82941 1.21323 0
M  V30 8623 N 843.674 2.89455 0.257761 0
M  V30 8624 H 843.221 2.51604 -0.552562 0
M  V30 8625 H 843.179 2.93597 1.12465 0
M  V30 8626 N 846.951 1.19563 1.02676 0
M  V30 8627 C 848.181 1.0234 1.79472 0
M  V30 8628 C 848.589 -0.430891 1.84228 0
M  V30 8629 O 847.932 -1.31106 1.28674 0
M  V30 8630 C 847.994 1.51901 3.25832 0
M  V30 8631 C 847.658 3.00045 3.44706 0
M  V30 8632 C 848.655 3.9779 3.34752 0
M  V30 8633 C 846.34 3.38784 3.70851 0
M  V30 8634 C 848.334 5.32267 3.50672 0
M  V30 8635 C 846.021 4.73419 3.86416 0
M  V30 8636 C 847.019 5.69969 3.7633 0
M  V30 8637 O 846.707 7.02165 3.91432 0
M  V30 8638 H 846.439 0.360936 0.571578 0
M  V30 8639 H 848.993 1.58863 1.30198 0
M  V30 8640 H 847.223 0.897546 3.7614 0
M  V30 8641 H 848.912 1.30853 3.84229 0
M  V30 8642 H 849.678 3.69207 3.14502 0
M  V30 8643 H 845.557 2.64183 3.77794 0
M  V30 8644 H 849.101 6.07612 3.42715 0
M  V30 8645 H 844.998 5.01697 4.06165 0
M  V30 8646 H 845.766 7.09268 4.08511 0
M  V30 8647 N 848.429 -1.21819 0.999893 0
M  V30 8648 C 849.669 -1.92473 0.687996 0
M  V30 8649 C 850.033 -1.76033 -0.766569 0
M  V30 8650 O 851.234 -2.41013 -1.19021 0
M  V30 8651 C 849.505 -3.40332 1.09129 0
M  V30 8652 S 851.064 -4.29496 0.898822 0
M  V30 8653 H 847.882 -0.665097 0.251329 0
M  V30 8654 H 850.484 -1.47454 1.28364 0
M  V30 8655 H 849.188 -3.49812 2.14615 0
M  V30 8656 H 848.719 -3.90365 0.487724 0
M  V30 8657 H 850.734 -4.95769 -0.206873 0
M  V30 8658 N 849.908 -0.773975 -1.37286 0
M  V30 8659 C 850.855 -0.159938 -2.30245 0
M  V30 8660 C 851.825 0.687356 -1.51211 0
M  V30 8661 O 853.01 0.639255 -1.79773 0
M  V30 8662 C 850.15 0.711452 -3.37687 0
M  V30 8663 C 849.263 -0.152692 -4.3173 0
M  V30 8664 C 848.398 0.723613 -5.26248 0
M  V30 8665 C 847.437 -0.14293 -6.11933 0
M  V30 8666 N 846.574 0.691479 -6.98687 0
M  V30 8667 H 851.414 -0.958182 -2.82175 0
M  V30 8668 H 848.951 -0.48411 -1.38906 0
M  V30 8669 H 850.909 1.2315 -3.9861 0
M  V30 8670 H 849.539 1.47528 -2.87116 0
M  V30 8671 H 848.591 -0.790574 -3.72094 0
M  V30 8672 H 849.903 -0.821027 -4.91997 0
M  V30 8673 H 849.057 1.31006 -5.92387 0
M  V30 8674 H 847.796 1.42562 -4.66398 0
M  V30 8675 H 846.801 -0.7419 -5.44771 0
M  V30 8676 H 848.026 -0.842305 -6.73856 0
M  V30 8677 H 845.972 1.37806 -6.41362 0
M  V30 8678 H 845.889 0.0804911 -7.55957 0
M  V30 8679 H 847.157 1.26225 -7.69212 0
M  V30 8680 N 851.386 1.48609 -0.524698 0
M  V30 8681 C 852.797 1.86516 -0.0828846 0
M  V30 8682 C 853.148 1.43478 1.33822 0
M  V30 8683 O 852.273 0.823139 2.00133 0
M  V30 8684 C 852.868 3.38495 -0.143639 0
M  V30 8685 C 851.427 3.75615 0.242951 0
M  V30 8686 C 850.574 2.72649 -0.505747 0
M  V30 8687 H 853.525 1.40589 -0.736233 0
M  V30 8688 H 853.546 3.74977 0.645955 0
M  V30 8689 H 853.058 3.69789 -1.17805 0
M  V30 8690 H 851.159 3.49935 1.27971 0
M  V30 8691 H 851.272 4.7901 -0.0929834 0
M  V30 8692 H 849.636 2.54656 0.0473482 0
M  V30 8693 H 850.419 3.06786 -1.54069 0
M  V30 8694 N 852.864 0.259585 1.55447 0
M  V30 8695 C 854.141 -0.412595 1.91199 0
M  V30 8696 C 854.521 -1.74909 1.18194 0
M  V30 8697 O 853.869 -2.26474 0.303603 0
M  V30 8698 C 854.079 -0.568195 3.44344 0
M  V30 8699 C 855.427 -0.858253 4.15836 0
M  V30 8700 O 856.451 -0.653588 3.50152 0
M  V30 8701 O 855.31 -1.24874 5.32042 0
M  V30 8702 H 852.404 -0.223403 0.796254 0
M  V30 8703 H 854.95 0.30459 1.66944 0
M  V30 8704 H 853.722 0.372989 3.89518 0
M  V30 8705 H 853.345 -1.33544 3.74502 0
M  V30 8706 N 854.342 -1.57594 -0.0133615 0
M  V30 8707 C 855.753 -1.78168 -0.557937 0
M  V30 8708 C 856.104 -0.892616 -1.74719 0
M  V30 8709 O 855.229 -0.0915491 -2.16206 0
M  V30 8710 C 855.824 -3.23115 -1.01894 0
M  V30 8711 C 854.383 -3.44831 -1.50892 0
M  V30 8712 C 853.53 -2.73558 -0.454044 0
M  V30 8713 H 856.481 -1.57266 0.212843 0
M  V30 8714 H 856.502 -3.30493 -1.8856 0
M  V30 8715 H 856.014 -3.87798 -0.153175 0
M  V30 8716 H 854.115 -2.85345 -2.39602 0
M  V30 8717 H 854.228 -4.53485 -1.54559 0
M  V30 8718 H 852.592 -2.37787 -0.912666 0
M  V30 8719 H 853.375 -3.40932 0.402524 0
M  V30 8720 N 855.82 0.285905 -1.54985 0
M  V30 8721 C 857.231 0.857869 -1.65824 0
M  V30 8722 C 857.582 1.87531 -0.576763 0
M  V30 8723 O 856.707 2.14528 0.284016 0
M  V30 8724 C 857.302 1.56277 -3.00604 0
M  V30 8725 C 855.861 2.08294 -3.13513 0
M  V30 8726 C 855.008 0.920633 -2.61571 0
M  V30 8727 H 857.959 0.0625463 -1.58577 0
M  V30 8728 H 857.98 2.42912 -2.92872 0
M  V30 8729 H 857.492 0.822017 -3.79295 0
M  V30 8730 H 855.593 2.8537 -2.39572 0
M  V30 8731 H 855.706 2.3071 -4.19892 0
M  V30 8732 H 854.07 1.31043 -2.18403 0
M  V30 8733 H 854.853 0.193594 -3.42754 0
M  V30 8734 N 857.298 1.47698 0.54982 0
M  V30 8735 C 858.709 1.48474 1.13191 0
M  V30 8736 C 859.06 0.243504 1.94683 0
M  V30 8737 O 858.185 -0.651009 2.06375 0
M  V30 8738 C 858.78 2.69022 2.05944 0
M  V30 8739 C 857.339 2.72733 2.5941 0
M  V30 8740 C 856.486 2.41691 1.35944 0
M  V30 8741 H 859.437 1.55101 0.336048 0
M  V30 8742 H 859.458 2.46412 2.89934 0
M  V30 8743 H 858.97 3.59345 1.46605 0
M  V30 8744 H 857.071 1.86568 3.22526 0
M  V30 8745 H 857.184 3.73628 2.99899 0
M  V30 8746 H 855.548 1.92428 1.66864 0
M  V30 8747 H 856.331 3.34231 0.783869 0
M  V30 8748 N 858.776 -0.797141 1.35954 0
M  V30 8749 C 860.187 -1.37179 1.26644 0
M  V30 8750 C 860.538 -1.9596 -0.0971046 0
M  V30 8751 O 859.663 -1.91994 -0.998355 0
M  V30 8752 C 860.258 -2.49395 2.2932 0
M  V30 8753 C 858.817 -3.02697 2.23722 0
M  V30 8754 C 857.964 -1.75721 2.14517 0
M  V30 8755 H 860.915 -0.599407 1.46945 0
M  V30 8756 H 860.936 -3.28204 1.92515 0
M  V30 8757 H 860.448 -2.06584 3.2855 0
M  V30 8758 H 858.549 -3.49948 1.27934 0
M  V30 8759 H 858.662 -3.60036 3.16087 0
M  V30 8760 H 857.026 -1.97649 1.60646 0
M  V30 8761 H 857.809 -1.35049 3.15621 0
M  V30 8762 N 860.254 -1.20106 -1.0204 0
M  V30 8763 C 861.665 -1.00992 -1.57027 0
M  V30 8764 C 862.016 0.434782 -1.91322 0
M  V30 8765 O 861.141 1.31557 -1.71819 0
M  V30 8766 C 861.736 -1.82697 -2.85319 0
M  V30 8767 C 860.295 -1.67959 -3.36848 0
M  V30 8768 C 859.442 -1.80868 -2.10195 0
M  V30 8769 H 862.393 -1.34354 -0.844676 0
M  V30 8770 H 862.414 -1.32809 -3.5657 0
M  V30 8771 H 861.926 -2.87839 -2.60328 0
M  V30 8772 H 860.027 -0.654389 -3.66809 0
M  V30 8773 H 860.14 -2.49006 -4.09308 0
M  V30 8774 H 858.504 -1.24015 -2.22469 0
M  V30 8775 H 859.287 -2.87486 -1.87635 0
M  V30 8776 N 861.732 1.21287 -1.00634 0
M  V30 8777 C 863.143 1.72136 -0.722914 0
M  V30 8778 C 863.494 1.8091 0.759338 0
M  V30 8779 O 862.619 1.46458 1.59308 0
M  V30 8780 C 863.214 3.12633 -1.30561 0
M  V30 8781 C 861.773 3.60833 -1.07127 0
M  V30 8782 C 860.92 2.38326 -1.4176 0
M  V30 8783 H 863.871 1.06445 -1.17708 0
M  V30 8784 H 863.892 3.74174 -0.690937 0
M  V30 8785 H 863.404 3.06215 -2.38441 0
M  V30 8786 H 861.505 3.72599 -0.00968671 0
M  V30 8787 H 861.618 4.46226 -1.74411 0
M  V30 8788 H 859.982 2.40575 -0.836412 0
M  V30 8789 H 860.765 2.34558 -2.50674 0
M  V30 8790 N 863.21 0.781244 1.36873 0
M  V30 8791 C 864.621 0.414093 1.8205 0
M  V30 8792 C 864.972 -1.06098 1.65039 0
M  V30 8793 O 864.097 -1.82251 1.16677 0
M  V30 8794 C 864.692 0.744837 3.30511 0
M  V30 8795 C 863.251 0.430621 3.73929 0
M  V30 8796 C 862.398 0.983746 2.59264 0
M  V30 8797 H 865.349 0.975091 1.2521 0
M  V30 8798 H 865.37 0.032936 3.80486 0
M  V30 8799 H 864.882 1.81847 3.42861 0
M  V30 8800 H 862.983 -0.635308 3.67144 0
M  V30 8801 H 863.096 0.945514 4.69677 0
M  V30 8802 H 861.46 0.407433 2.5142 0
M  V30 8803 H 862.243 2.06297 2.74402 0
M  V30 8804 N 864.689 -1.48329 0.532571 0
M  V30 8805 C 865.639 -2.2664 -0.24868 0
M  V30 8806 C 866.623 -1.32861 -0.907563 0
M  V30 8807 O 867.815 -1.57382 -0.809942 0
M  V30 8808 C 864.944 -3.18004 -1.29339 0
M  V30 8809 C 864.03 -4.19256 -0.639166 0
M  V30 8810 N 864.421 -5.05043 0.276597 0
M  V30 8811 C 862.719 -4.36906 -0.896062 0
M  V30 8812 C 863.42 -5.78009 0.654261 0
M  V30 8813 N 862.396 -5.43598 0.0147447 0
M  V30 8814 H 866.198 -2.90344 0.455792 0
M  V30 8815 H 863.712 -1.58566 0.350778 0
M  V30 8816 H 865.709 -3.72767 -1.86682 0
M  V30 8817 H 864.369 -2.55855 -1.99921 0
M  V30 8818 H 865.38 -5.13813 0.649351 0
M  V30 8819 H 862.057 -3.85945 -1.59226 0
M  V30 8820 H 863.447 -6.57039 1.40532 0
M  V30 8821 N 866.167 -0.267825 -1.55308 0
M  V30 8822 C 867.578 0.231344 -1.85261 0
M  V30 8823 C 867.929 1.56006 -1.18982 0
M  V30 8824 O 867.054 2.1111 -0.475554 0
M  V30 8825 C 867.649 0.426537 -3.36104 0
M  V30 8826 C 866.208 0.869945 -3.66209 0
M  V30 8827 C 865.355 -0.0409522 -2.7727 0
M  V30 8828 H 868.306 -0.489821 -1.50952 0
M  V30 8829 H 868.327 1.26616 -3.58816 0
M  V30 8830 H 867.839 -0.540678 -3.84315 0
M  V30 8831 H 865.94 1.84889 -3.23492 0
M  V30 8832 H 866.053 0.712316 -4.73775 0
M  V30 8833 H 864.417 0.474097 -2.50249 0
M  V30 8834 H 865.2 -1.00392 -3.28293 0
M  V30 8835 N 867.645 1.57599 0.00500368 0
M  V30 8836 C 868.595 2.04585 1.00643 0
M  V30 8837 C 869.579 0.939622 1.30614 0
M  V30 8838 O 870.771 1.20342 1.29796 0
M  V30 8839 C 867.9 2.5486 2.30002 0
M  V30 8840 C 866.986 3.7235 2.03017 0
M  V30 8841 N 867.377 4.84218 1.46173 0
M  V30 8842 C 865.675 3.80185 2.33185 0
M  V30 8843 C 866.376 5.65688 1.35544 0
M  V30 8844 N 865.352 5.11536 1.83933 0
M  V30 8845 H 869.154 2.8849 0.561332 0
M  V30 8846 H 866.668 1.61026 0.210808 0
M  V30 8847 H 868.665 2.86794 3.0258 0
M  V30 8848 H 867.325 1.72372 2.75169 0
M  V30 8849 H 868.336 5.0517 1.1412 0
M  V30 8850 H 865.013 3.08543 2.81261 0
M  V30 8851 H 866.403 6.65588 0.918791 0
M  V30 8852 N 869.123 -0.277682 1.55134 0
M  V30 8853 C 870.073 -1.34531 1.8408 0
M  V30 8854 C 871.057 -1.44904 0.699393 0
M  V30 8855 O 872.249 -1.48664 0.960623 0
M  V30 8856 C 869.378 -2.7064 2.11208 0
M  V30 8857 C 868.464 -2.64396 3.31596 0
M  V30 8858 N 868.855 -2.2777 4.51613 0
M  V30 8859 C 867.153 -2.95464 3.34091 0
M  V30 8860 C 867.854 -2.31401 5.33693 0
M  V30 8861 N 866.83 -2.69688 4.71984 0
M  V30 8862 H 870.632 -1.05214 2.74421 0
M  V30 8863 H 868.146 -0.486311 1.54948 0
M  V30 8864 H 870.143 -3.47649 2.301 0
M  V30 8865 H 868.803 -3.00849 1.22148 0
M  V30 8866 H 869.814 -1.99827 4.77797 0
M  V30 8867 H 866.491 -3.30415 2.5521 0
M  V30 8868 H 867.881 -2.05685 6.39643 0
M  V30 8869 N 870.601 -1.47988 -0.541979 0
M  V30 8870 C 871.849 -1.55086 -1.29587 0
M  V30 8871 C 872.17 -0.221304 -1.9374 0
M  V30 8872 O 871.44 0.756128 -1.80719 0
M  V30 8873 H 870.02 -0.571307 -0.481266 0
M  V30 8874 H 872.682 -1.8438 -0.631675 0
M  V30 8875 H 871.778 -2.32556 -2.08144 0
M  V30 8876 N 872.079 0.78992 -1.36375 0
M  V30 8877 C 873.304 1.58389 -1.33895 0
M  V30 8878 C 873.729 1.8794 0.0774934 0
M  V30 8879 O 873.087 1.4785 1.0493 0
M  V30 8880 C 873.135 2.88201 -2.16732 0
M  V30 8881 O 872.239 3.81778 -1.55946 0
M  V30 8882 H 871.58 0.480471 -0.458305 0
M  V30 8883 H 874.11 0.979119 -1.79651 0
M  V30 8884 H 874.12 3.37475 -2.29292 0
M  V30 8885 H 872.795 2.66019 -3.19698 0
M  V30 8886 H 871.372 3.40371 -1.52323 0
M  V30 8887 N 873.557 1.20646 1.01402 0
M  V30 8888 C 874.805 1.01618 1.74695 0
M  V30 8889 C 875.126 -0.452438 1.89679 0
M  V30 8890 O 874.396 -1.32693 1.44116 0
M  V30 8891 H 872.976 0.373013 0.647202 0
M  V30 8892 H 875.638 1.518 1.22241 0
M  V30 8893 H 874.734 1.47666 2.74957 0
M  V30 8894 N 875.035 -1.20752 1.01276 0
M  V30 8895 C 876.283 -1.89645 0.698505 0
M  V30 8896 C 876.604 -1.78986 -0.773883 0
M  V30 8897 O 875.874 -1.18977 -1.55632 0
M  V30 8898 H 874.454 -0.701992 0.255375 0
M  V30 8899 H 877.116 -1.46668 1.28353 0
M  V30 8900 H 876.212 -2.96364 0.978512 0
M  V30 8901 N 876.513 -0.788492 -1.36457 0
M  V30 8902 C 877.762 -0.357052 -1.98515 0
M  V30 8903 C 878.075 1.0769 -1.63285 0
M  V30 8904 O 879.281 1.61057 -2.1857 0
M  V30 8905 C 877.737 -0.587449 -3.55073 0
M  V30 8906 C 877.345 -2.03276 -3.99228 0
M  V30 8907 C 879.089 -0.220468 -4.23927 0
M  V30 8908 C 876.996 -2.20987 -5.48561 0
M  V30 8909 H 875.926 -0.129762 -0.74275 0
M  V30 8910 H 878.577 -0.969995 -1.55767 0
M  V30 8911 H 876.959 0.0951918 -3.95886 0
M  V30 8912 H 878.133 -2.75173 -3.69617 0
M  V30 8913 H 876.448 -2.3579 -3.43208 0
M  V30 8914 H 879.045 -0.331085 -5.33674 0
M  V30 8915 H 879.388 0.831306 -4.07915 0
M  V30 8916 H 879.921 -0.856309 -3.88474 0
M  V30 8917 H 876.66 -3.24543 -5.69519 0
M  V30 8918 H 876.18 -1.53594 -5.79801 0
M  V30 8919 H 877.859 -2.01656 -6.14771 0
M  V30 8920 N 877.991 1.48044 -0.54043 0
M  V30 8921 C 879.216 2.07396 -0.0124765 0
M  V30 8922 C 879.641 1.39288 1.26414 0
M  V30 8923 O 878.999 0.462252 1.75308 0
M  V30 8924 C 879.047 3.60131 0.18377 0
M  V30 8925 O 878.151 3.92995 1.25014 0
M  V30 8926 H 877.492 0.662554 -0.0438026 0
M  V30 8927 H 880.022 1.90306 -0.751327 0
M  V30 8928 H 880.032 4.06003 0.403197 0
M  V30 8929 H 878.707 4.09105 -0.74874 0
M  V30 8930 H 877.284 3.5889 1.01254 0
M  V30 8931 N 879.47 0.276058 1.55163 0
M  V30 8932 C 880.881 -0.221516 1.85381 0
M  V30 8933 C 881.232 -1.55372 1.19808 0
M  V30 8934 O 880.357 -2.10855 0.486742 0
M  V30 8935 C 880.952 -0.408706 3.36326 0
M  V30 8936 C 879.511 -0.850512 3.66665 0
M  V30 8937 C 878.658 0.055656 2.77244 0
M  V30 8938 H 881.609 0.497819 1.5069 0
M  V30 8939 H 881.63 -1.24711 3.59482 0
M  V30 8940 H 881.142 0.561052 3.84023 0
M  V30 8941 H 879.243 -1.83171 3.24468 0
M  V30 8942 H 879.356 -0.687181 4.74146 0
M  V30 8943 H 877.72 -0.460819 2.50497 0
M  V30 8944 H 878.503 1.02131 3.27756 0
M  V30 8945 N 880.948 -1.576 0.00335426 0
M  V30 8946 C 882.359 -1.7875 -0.539008 0
M  V30 8947 C 882.71 -0.911097 -1.73763 0
M  V30 8948 O 881.835 -0.114476 -2.16097 0
M  V30 8949 C 882.43 -3.24177 -0.984611 0
M  V30 8950 C 880.989 -3.46412 -1.47226 0
M  V30 8951 C 880.136 -2.74024 -0.425004 0
M  V30 8952 H 883.087 -1.57032 0.229511 0
M  V30 8953 H 883.108 -3.32474 -1.85044 0
M  V30 8954 H 882.62 -3.87938 -0.112035 0
M  V30 8955 H 880.721 -2.8787 -2.36562 0
M  V30 8956 H 880.834 -4.55098 -1.49741 0
M  V30 8957 H 879.198 -2.38741 -0.887394 0
M  V30 8958 H 879.981 -3.40486 0.438662 0
M  V30 8959 N 882.426 0.269451 -1.5528 0
M  V30 8960 C 883.837 0.840233 -1.66724 0
M  V30 8961 C 884.188 1.86909 -0.596621 0
M  V30 8962 O 883.313 2.14817 0.261246 0
M  V30 8963 C 883.908 1.5308 -3.02245 0
M  V30 8964 C 882.467 2.04957 -3.15705 0
M  V30 8965 C 881.614 0.892838 -2.62533 0
M  V30 8966 H 884.565 0.0457236 -1.58634 0
M  V30 8967 H 884.586 2.39792 -2.95432 0
M  V30 8968 H 884.098 0.781741 -3.80145 0
M  V30 8969 H 882.199 2.82813 -2.42585 0
M  V30 8970 H 882.312 2.26244 -4.22316 0
M  V30 8971 H 880.676 1.28719 -2.19781 0
M  V30 8972 H 881.459 0.157229 -3.4294 0
M  V30 8973 N 883.904 1.48273 0.534124 0
M  V30 8974 C 885.315 1.49667 1.1161 0
M  V30 8975 C 885.666 0.264139 1.94414 0
M  V30 8976 O 884.791 -0.629084 2.07054 0
M  V30 8977 C 885.386 2.71191 2.03079 0
M  V30 8978 C 883.945 2.7547 2.56502 0
M  V30 8979 C 883.092 2.43119 1.33373 0
M  V30 8980 H 886.043 1.55449 0.319578 0
M  V30 8981 H 886.064 2.49473 2.87304 0
M  V30 8982 H 885.576 3.60879 1.42785 0
M  V30 8983 H 883.677 1.89979 3.20529 0
M  V30 8984 H 883.79 3.76787 2.95919 0
M  V30 8985 H 882.154 1.94187 1.64813 0
M  V30 8986 H 882.937 3.35044 0.748375 0
M  V30 8987 N 885.382 -0.782676 1.36792 0
M  V30 8988 C 886.631 -1.53605 1.30723 0
M  V30 8989 C 886.944 -1.95294 -0.109296 0
M  V30 8990 O 888.15 -2.69921 -0.292398 0
M  V30 8991 C 886.606 -2.77321 2.29393 0
M  V30 8992 C 886.214 -2.42774 3.76517 0
M  V30 8993 C 887.958 -3.55289 2.32314 0
M  V30 8994 C 885.865 -3.62926 4.66947 0
M  V30 8995 H 884.795 -0.576646 0.485794 0
M  V30 8996 H 887.446 -0.858255 1.62192 0
M  V30 8997 H 885.828 -3.46934 1.90927 0
M  V30 8998 H 887.002 -1.81014 4.23758 0
M  V30 8999 H 885.317 -1.78002 3.76436 0
M  V30 9000 H 887.914 -4.44573 2.97083 0
M  V30 9001 H 888.257 -3.94361 1.3336 0
M  V30 9002 H 888.79 -2.92662 2.69432 0
M  V30 9003 H 885.529 -3.28944 5.66989 0
M  V30 9004 H 885.049 -4.23828 4.24418 0
M  V30 9005 H 886.728 -4.29873 4.83548 0
M  V30 9006 N 886.86 -1.21182 -1.00761 0
M  V30 9007 C 888.088 -1.05335 -1.78079 0
M  V30 9008 C 888.503 0.396988 -1.84579 0
M  V30 9009 O 887.86 1.27548 -1.30529 0
M  V30 9010 C 887.911 -1.64089 -3.22113 0
M  V30 9011 O 887.632 -3.03448 -3.15992 0
M  V30 9012 C 889.133 -1.53318 -4.15943 0
M  V30 9013 H 886.353 -0.37005 -0.559736 0
M  V30 9014 H 888.897 -1.60463 -1.26775 0
M  V30 9015 H 887.052 -1.13059 -3.70535 0
M  V30 9016 H 887.466 -3.31492 -4.06465 0
M  V30 9017 H 888.94 -1.99174 -5.14814 0
M  V30 9018 H 889.417 -0.487166 -4.3649 0
M  V30 9019 H 890.023 -2.03582 -3.73409 0
M  V30 9020 N 888.338 1.20213 -1.01915 0
M  V30 9021 C 889.749 1.7136 -0.741131 0
M  V30 9022 C 890.1 1.81705 0.740107 0
M  V30 9023 O 889.225 1.48139 1.57746 0
M  V30 9024 C 889.82 3.11231 -1.33869 0
M  V30 9025 C 888.379 3.59677 -1.10948 0
M  V30 9026 C 887.526 2.36809 -1.4428 0
M  V30 9027 H 890.477 1.05191 -1.1883 0
M  V30 9028 H 890.498 3.7342 -0.730585 0
M  V30 9029 H 890.01 3.03669 -2.41675 0
M  V30 9030 H 888.111 3.72568 -0.0492052 0
M  V30 9031 H 888.224 4.44351 -1.79134 0
M  V30 9032 H 886.588 2.39674 -0.861881 0
M  V30 9033 H 887.371 2.31886 -2.53148 0
M  V30 9034 N 889.816 0.795718 1.36037 0
M  V30 9035 C 891.227 0.433379 1.816 0
M  V30 9036 C 891.578 -1.04341 1.66155 0
M  V30 9037 O 890.703 -1.81004 1.18603 0
M  V30 9038 C 891.298 0.77985 3.29703 0
M  V30 9039 C 889.857 0.470256 3.73451 0
M  V30 9040 C 889.004 1.01119 2.58206 0
M  V30 9041 H 891.955 0.988317 1.24169 0
M  V30 9042 H 891.976 0.0732898 3.80429 0
M  V30 9043 H 891.488 1.85473 3.40913 0
M  V30 9044 H 889.589 -0.596332 3.67797 0
M  V30 9045 H 889.702 0.995276 4.68648 0
M  V30 9046 H 888.066 0.434077 2.50974 0
M  V30 9047 H 888.849 2.09196 2.72198 0
M  V30 9048 N 891.294 -1.47756 0.548274 0
M  V30 9049 C 892.519 -2.07387 0.023475 0
M  V30 9050 C 892.944 -1.39956 -1.25674 0
M  V30 9051 O 892.302 -0.471543 -1.7506 0
M  V30 9052 C 892.35 -3.60224 -0.164669 0
M  V30 9053 O 891.454 -3.93653 -1.22928 0
M  V30 9054 H 890.795 -0.662312 0.0473156 0
M  V30 9055 H 893.325 -1.89905 0.761409 0
M  V30 9056 H 893.335 -4.06211 -0.38166 0
M  V30 9057 H 892.01 -4.08702 0.770425 0
M  V30 9058 H 890.587 -3.59422 -0.993495 0
M  V30 9059 N 892.772 -0.284283 -1.55015 0
M  V30 9060 C 893.705 0.640779 -2.19019 0
M  V30 9061 C 894.683 1.14541 -1.15409 0
M  V30 9062 O 895.867 1.21669 -1.43975 0
M  V30 9063 C 892.994 1.87488 -2.82074 0
M  V30 9064 C 892.04 1.50494 -3.99066 0
M  V30 9065 S 892.873 0.575218 -5.32402 0
M  V30 9066 C 894.029 1.81749 -5.98931 0
M  V30 9067 H 894.262 0.0969761 -2.97142 0
M  V30 9068 H 891.795 -0.0684929 -1.54248 0
M  V30 9069 H 893.753 2.58319 -3.19032 0
M  V30 9070 H 892.414 2.38984 -2.03828 0
M  V30 9071 H 891.607 2.42349 -4.41908 0
M  V30 9072 H 891.209 0.876741 -3.63578 0
M  V30 9073 H 893.501 2.76026 -6.18721 0
M  V30 9074 H 894.444 1.43192 -6.93471 0
M  V30 9075 H 894.852 1.98661 -5.28388 0
M  V30 9076 N 894.251 1.57596 -0.0117121 0
M  V30 9077 C 895.499 1.90694 0.669342 0
M  V30 9078 C 895.82 0.886999 1.73659 0
M  V30 9079 O 895.09 -0.0739779 1.9576 0
M  V30 9080 H 893.67 0.703846 0.250219 0
M  V30 9081 H 896.332 1.94821 -0.0554057 0
M  V30 9082 H 895.428 2.90802 1.13316 0
M  V30 9083 N 895.729 -0.261212 1.5542 0
M  V30 9084 C 896.975 -0.992699 1.76843 0
M  V30 9085 C 897.308 -1.8551 0.574428 0
M  V30 9086 O 896.583 -1.89739 -0.427713 0
M  V30 9087 C 896.866 -1.86532 3.08022 0
M  V30 9088 C 896.719 -1.03206 4.378 0
M  V30 9089 C 898.038 -2.85036 3.35324 0
M  V30 9090 H 895.157 -0.359473 0.643388 0
M  V30 9091 H 897.799 -0.264214 1.88154 0
M  V30 9092 H 895.949 -2.48644 2.9851 0
M  V30 9093 H 897.621 -0.430743 4.59285 0
M  V30 9094 H 895.864 -0.335911 4.32497 0
M  V30 9095 H 896.535 -1.6761 5.25938 0
M  V30 9096 H 899.011 -2.3306 3.44706 0
M  V30 9097 H 897.887 -3.43226 4.28354 0
M  V30 9098 H 898.148 -3.60768 2.55537 0
M  V30 9099 N 897.207 -1.48554 -0.526253 0
M  V30 9100 C 898.435 -1.60429 -1.30652 0
M  V30 9101 C 898.85 -0.265963 -1.86917 0
M  V30 9102 O 898.207 0.745262 -1.6659 0
M  V30 9103 C 898.258 -2.65377 -2.45473 0
M  V30 9104 O 897.979 -3.94017 -1.91527 0
M  V30 9105 C 899.48 -2.87726 -3.37237 0
M  V30 9106 H 896.7 -0.540817 -0.397187 0
M  V30 9107 H 899.244 -1.94409 -0.634461 0
M  V30 9108 H 897.399 -2.34246 -3.08557 0
M  V30 9109 H 897.813 -4.51623 -2.66715 0
M  V30 9110 H 899.287 -3.64951 -4.14144 0
M  V30 9111 H 899.764 -1.96688 -3.92696 0
M  V30 9112 H 900.37 -3.20176 -2.79942 0
M  V30 9113 N 898.685 0.775411 -1.37205 0
M  V30 9114 C 899.931 1.53611 -1.32407 0
M  V30 9115 C 900.264 1.9398 0.0924103 0
M  V30 9116 O 899.539 1.63791 1.04893 0
M  V30 9117 C 899.822 2.80367 -2.25979 0
M  V30 9118 C 899.675 2.46275 -3.76389 0
M  V30 9119 C 900.994 3.82277 -2.18064 0
M  V30 9120 H 898.113 0.557278 -0.482297 0
M  V30 9121 H 900.755 0.889826 -1.67875 0
M  V30 9122 H 898.905 3.35515 -1.95862 0
M  V30 9123 H 900.577 1.9707 -4.17087 0
M  V30 9124 H 898.82 1.79023 -3.95137 0
M  V30 9125 H 899.491 3.36868 -4.37291 0
M  V30 9126 H 901.967 3.36613 -2.44604 0
M  V30 9127 H 900.843 4.68696 -2.85684 0
M  V30 9128 H 901.104 4.26272 -1.17239 0
M  V30 9129 N 900.163 1.21714 1.00117 0
M  V30 9130 C 901.126 0.981338 2.07129 0
M  V30 9131 C 902.126 -0.0491116 1.60725 0
M  V30 9132 O 903.316 0.188555 1.73177 0
M  V30 9133 C 900.448 0.480608 3.37495 0
M  V30 9134 H 901.641 1.93075 2.29482 0
M  V30 9135 H 899.194 1.03467 1.17151 0
M  V30 9136 H 899.929 -0.473552 3.20824 0
M  V30 9137 H 899.714 1.22393 3.72508 0
M  V30 9138 H 901.204 0.33561 4.16249 0
M  V30 9139 N 901.641 -1.19671 1.02551 0
M  V30 9140 C 902.889 -1.88894 0.71858 0
M  V30 9141 C 903.21 -1.79797 -0.754856 0
M  V30 9142 O 902.48 -1.20621 -1.54362 0
M  V30 9143 H 901.06 -0.699244 0.262806 0
M  V30 9144 H 903.722 -1.45298 1.29902 0
M  V30 9145 H 902.818 -2.95309 1.00989 0
M  V30 9146 N 903.119 -0.802921 -1.35613 0
M  V30 9147 C 904.082 -0.216422 -2.28176 0
M  V30 9148 C 905.082 0.594101 -1.49422 0
M  V30 9149 O 906.272 0.41312 -1.6923 0
M  V30 9150 C 903.404 0.698746 -3.33662 0
M  V30 9151 H 904.597 -1.03276 -2.81557 0
M  V30 9152 H 902.15 -0.573307 -1.45406 0
M  V30 9153 H 902.885 1.53891 -2.85461 0
M  V30 9154 H 902.67 0.119314 -3.91918 0
M  V30 9155 H 904.16 1.10354 -4.02755 0
M  V30 9156 N 904.597 1.47463 -0.556102 0
M  V30 9157 C 905.827 2.06568 -0.0364056 0
M  V30 9158 C 906.235 1.40939 1.26225 0
M  V30 9159 O 905.578 0.499572 1.76777 0
M  V30 9160 C 905.64 3.58755 0.231278 0
M  V30 9161 C 905.304 4.46417 -0.977776 0
M  V30 9162 C 906.301 4.846 -1.88305 0
M  V30 9163 C 903.986 4.87948 -1.19214 0
M  V30 9164 C 905.98 5.63111 -2.98639 0
M  V30 9165 C 903.667 5.66224 -2.29857 0
M  V30 9166 C 904.665 6.03716 -3.194 0
M  V30 9167 O 904.353 6.80415 -4.28125 0
M  V30 9168 H 904.085 0.674675 -0.042305 0
M  V30 9169 H 906.639 1.9047 -0.768775 0
M  V30 9170 H 904.869 3.73061 1.01794 0
M  V30 9171 H 906.558 3.99884 0.696221 0
M  V30 9172 H 907.324 4.53115 -1.72949 0
M  V30 9173 H 903.203 4.58233 -0.504347 0
M  V30 9174 H 906.747 5.92293 -3.68557 0
M  V30 9175 H 902.644 5.97121 -2.45186 0
M  V30 9176 H 903.412 6.98807 -4.26159 0
M  V30 9177 N 906.075 0.2925 1.54862 0
M  V30 9178 C 907.486 -0.201841 1.85606 0
M  V30 9179 C 907.837 -1.54093 1.21449 0
M  V30 9180 O 906.962 -2.10327 0.509079 0
M  V30 9181 C 907.557 -0.373011 3.3674 0
M  V30 9182 C 906.116 -0.811574 3.67547 0
M  V30 9183 C 905.263 0.0850583 2.7717 0
M  V30 9184 H 908.214 0.513774 1.50153 0
M  V30 9185 H 908.235 -1.20892 3.60785 0
M  V30 9186 H 907.747 0.601751 3.83407 0
M  V30 9187 H 905.848 -1.79719 3.26392 0
M  V30 9188 H 905.961 -0.636853 4.74848 0
M  V30 9189 H 904.325 -0.434224 2.50971 0
M  V30 9190 H 905.108 1.05602 3.26654 0
M  V30 9191 N 907.553 -1.57587 0.0200696 0
M  V30 9192 C 908.516 -2.08595 -0.949767 0
M  V30 9193 C 909.516 -0.999215 -1.25985 0
M  V30 9194 O 910.706 -1.26115 -1.2017 0
M  V30 9195 C 907.838 -2.54424 -2.26895 0
M  V30 9196 H 909.031 -2.95563 -0.508161 0
M  V30 9197 H 906.584 -1.54631 -0.227798 0
M  V30 9198 H 907.319 -1.70758 -2.75703 0
M  V30 9199 H 907.104 -3.3381 -2.05702 0
M  V30 9200 H 908.594 -2.94144 -2.96427 0
M  V30 9201 N 909.032 0.252966 -1.55557 0
M  V30 9202 C 910.28 0.979912 -1.76754 0
M  V30 9203 C 910.601 1.86083 -0.582944 0
M  V30 9204 O 909.871 1.91742 0.401497 0
M  V30 9205 H 908.451 0.364805 -0.651864 0
M  V30 9206 H 911.113 0.272372 -1.92987 0
M  V30 9207 H 910.209 1.60518 -2.67657 0
M  V30 9208 N 910.51 1.48831 0.518367 0
M  V30 9209 C 911.921 1.50842 1.10016 0
M  V30 9210 C 912.272 0.284744 1.94123 0
M  V30 9211 O 911.397 -0.607088 2.0771 0
M  V30 9212 C 911.992 2.73329 2.00191 0
M  V30 9213 C 910.551 2.78175 2.53566 0
M  V30 9214 C 909.698 2.4452 1.30786 0
M  V30 9215 H 912.649 1.55779 0.303073 0
M  V30 9216 H 912.67 2.52506 2.84642 0
M  V30 9217 H 912.182 3.62374 1.3895 0
M  V30 9218 H 910.283 1.93368 3.18496 0
M  V30 9219 H 910.396 3.79905 2.91906 0
M  V30 9220 H 908.76 1.95924 1.62744 0
M  V30 9221 H 909.543 3.35819 0.712797 0
M  V30 9222 N 911.988 -0.768124 1.37614 0
M  V30 9223 C 912.938 -1.8718 1.30184 0
M  V30 9224 C 913.922 -1.59787 0.188943 0
M  V30 9225 O 915.114 -1.71855 0.423656 0
M  V30 9226 C 912.243 -3.24698 1.11471 0
M  V30 9227 C 911.329 -3.58031 2.27321 0
M  V30 9228 N 911.72 -3.6252 3.52722 0
M  V30 9229 C 910.018 -3.88216 2.19554 0
M  V30 9230 C 910.719 -3.92704 4.29137 0
M  V30 9231 N 909.695 -4.08789 3.58319 0
M  V30 9232 H 913.497 -1.88907 2.25147 0
M  V30 9233 H 911.011 -0.964753 1.30638 0
M  V30 9234 H 913.008 -4.0366 1.04233 0
M  V30 9235 H 911.668 -3.24232 0.174281 0
M  V30 9236 H 912.679 -3.44636 3.86583 0
M  V30 9237 H 909.356 -3.95551 1.33588 0
M  V30 9238 H 910.746 -4.02922 5.37683 0
M  V30 9239 N 913.466 -1.22244 -0.994698 0
M  V30 9240 C 914.694 -1.07218 -1.76952 0
M  V30 9241 C 915.109 0.377388 -1.8499 0
M  V30 9242 O 914.466 1.26157 -1.31874 0
M  V30 9243 C 914.517 -1.67496 -3.20355 0
M  V30 9244 O 914.238 -3.06782 -3.12756 0
M  V30 9245 C 915.739 -1.57721 -4.14294 0
M  V30 9246 H 912.959 -0.375966 -0.555779 0
M  V30 9247 H 915.503 -1.61799 -1.25065 0
M  V30 9248 H 913.658 -1.16982 -3.69315 0
M  V30 9249 H 914.072 -3.35784 -4.02926 0
M  V30 9250 H 915.546 -2.04623 -5.12673 0
M  V30 9251 H 916.023 -0.533434 -4.35949 0
M  V30 9252 H 916.629 -2.07531 -3.71229 0
M  V30 9253 N 914.944 1.19125 -1.03184 0
M  V30 9254 C 915.894 2.20348 -0.585731 0
M  V30 9255 C 916.878 1.56656 0.367109 0
M  V30 9256 O 918.07 1.76003 0.187598 0
M  V30 9257 C 915.199 3.43249 0.0590006 0
M  V30 9258 C 914.285 4.1408 -0.916457 0
M  V30 9259 N 914.676 4.61051 -2.08005 0
M  V30 9260 C 912.974 4.39809 -0.74054 0
M  V30 9261 C 913.675 5.15477 -2.69552 0
M  V30 9262 N 912.651 5.06456 -1.97493 0
M  V30 9263 H 916.453 2.54346 -1.47259 0
M  V30 9264 H 913.967 1.35232 -0.899225 0
M  V30 9265 H 915.964 4.15013 0.396236 0
M  V30 9266 H 914.624 3.1075 0.941507 0
M  V30 9267 H 915.635 4.55782 -2.45934 0
M  V30 9268 H 912.312 4.17397 0.0926238 0
M  V30 9269 H 913.702 5.62088 -3.68112 0
M  V30 9270 N 916.422 0.810101 1.35185 0
M  V30 9271 C 917.833 0.452616 1.81131 0
M  V30 9272 C 918.184 -1.02573 1.67252 0
M  V30 9273 O 917.309 -1.79735 1.20516 0
M  V30 9274 C 917.904 0.814775 3.28857 0
M  V30 9275 C 916.463 0.509839 3.72931 0
M  V30 9276 C 915.61 1.03852 2.57119 0
M  V30 9277 H 918.561 1.00143 1.23114 0
M  V30 9278 H 918.582 0.113635 3.8033 0
M  V30 9279 H 918.094 1.89078 3.38926 0
M  V30 9280 H 916.195 -0.557289 3.68409 0
M  V30 9281 H 916.308 1.04493 4.67566 0
M  V30 9282 H 914.672 0.460671 2.50499 0
M  V30 9283 H 915.455 2.12071 2.69964 0
M  V30 9284 N 917.9 -1.47166 0.563914 0
M  V30 9285 C 919.148 -2.02056 0.0422873 0
M  V30 9286 C 919.469 -1.43992 -1.31497 0
M  V30 9287 O 918.739 -0.617578 -1.85911 0
M  V30 9288 H 917.319 -0.746893 0.0126427 0
M  V30 9289 H 919.981 -1.80492 0.735441 0
M  V30 9290 H 919.077 -3.12073 -0.0408044 0
M  V30 9291 N 919.378 -0.300708 -1.54705 0
M  V30 9292 C 920.308 0.568675 -2.26469 0
M  V30 9293 C 921.289 1.13817 -1.26411 0
M  V30 9294 O 922.474 1.16756 -1.55183 0
M  V30 9295 C 919.604 1.74077 -3.00524 0
M  V30 9296 C 918.558 1.30165 -4.07727 0
M  V30 9297 C 917.884 2.55888 -4.69495 0
M  V30 9298 C 919.184 0.433106 -5.20501 0
M  V30 9299 H 920.878 -0.0298851 -2.99385 0
M  V30 9300 H 918.424 -0.0158135 -1.43991 0
M  V30 9301 H 920.377 2.35506 -3.49449 0
M  V30 9302 H 919.101 2.36556 -2.25186 0
M  V30 9303 H 917.76 0.710414 -3.59651 0
M  V30 9304 H 917.408 3.16681 -3.90797 0
M  V30 9305 H 917.108 2.27207 -5.41895 0
M  V30 9306 H 918.632 3.18121 -5.21183 0
M  V30 9307 H 920.046 0.95307 -5.65322 0
M  V30 9308 H 918.443 0.240085 -5.9962 0
M  V30 9309 H 919.513 -0.541866 -4.81863 0
M  V30 9310 N 920.856 1.57574 -0.0284266 0
M  V30 9311 C 921.786 2.1321 0.952039 0
M  V30 9312 C 922.767 1.04806 1.33977 0
M  V30 9313 O 923.952 1.32635 1.41851 0
M  V30 9314 C 921.082 2.65862 2.23461 0
M  V30 9315 C 920.036 3.79047 1.98765 0
M  V30 9316 C 919.362 4.18124 3.33281 0
M  V30 9317 C 920.662 5.05151 1.32739 0
M  V30 9318 H 922.356 2.95385 0.488705 0
M  V30 9319 H 919.902 1.42092 0.233628 0
M  V30 9320 H 921.855 3.03417 2.92431 0
M  V30 9321 H 920.579 1.80848 2.71959 0
M  V30 9322 H 919.238 3.41929 1.32213 0
M  V30 9323 H 918.886 3.30092 3.79537 0
M  V30 9324 H 918.586 4.94396 3.17563 0
M  V30 9325 H 920.11 4.58262 4.0352 0
M  V30 9326 H 921.524 5.40297 1.91708 0
M  V30 9327 H 919.921 5.86416 1.27421 0
M  V30 9328 H 920.991 4.83969 0.300261 0
M  V30 9329 N 922.334 -0.244713 1.55689 0
M  V30 9330 C 923.75 -0.593331 1.48161 0
M  V30 9331 C 923.95 -1.88234 0.719047 0
M  V30 9332 O 923.006 -2.51266 0.249292 0
M  V30 9333 C 924.319 -0.694032 2.92581 0
M  V30 9334 C 925.867 -0.786213 3.02965 0
M  V30 9335 C 926.342 -0.918457 4.48696 0
M  V30 9336 N 927.833 -0.983272 4.52643 0
M  V30 9337 C 928.568 -1.1049 5.62654 0
M  V30 9338 N 928.064 -1.19193 6.8247 0
M  V30 9339 N 929.857 -1.13823 5.50455 0
M  V30 9340 H 922.008 0.601446 2.03707 0
M  V30 9341 H 924.271 0.207894 0.924924 0
M  V30 9342 H 923.977 0.183133 3.51223 0
M  V30 9343 H 923.851 -1.56525 3.4319 0
M  V30 9344 H 926.238 -1.65383 2.44402 0
M  V30 9345 H 926.319 0.110202 2.55563 0
M  V30 9346 H 925.963 -0.0553881 5.0787 0
M  V30 9347 H 925.893 -1.82994 4.93782 0
M  V30 9348 H 928.384 -0.927269 3.66347 0
M  V30 9349 H 928.697 -1.28387 7.62061 0
M  V30 9350 H 927.042 -1.16147 6.85226 0
M  V30 9351 H 930.233 -1.06673 4.55783 0
M  V30 9352 H 930.406 -1.22957 6.36228 0
M  V30 9353 N 923.813 -1.49104 -0.510467 0
M  V30 9354 C 925.061 -1.578 -1.26268 0
M  V30 9355 C 925.382 -0.262349 -1.93227 0
M  V30 9356 O 924.652 0.717624 -1.82283 0
M  V30 9357 H 923.232 -0.581387 -0.46904 0
M  V30 9358 H 925.894 -1.85678 -0.592423 0
M  V30 9359 H 924.99 -2.36919 -2.03165 0
M  V30 9360 N 925.291 0.760815 -1.38019 0
M  V30 9361 C 926.539 1.51673 -1.33566 0
M  V30 9362 C 926.86 1.94852 0.076024 0
M  V30 9363 O 926.13 1.67112 1.02227 0
M  V30 9364 H 924.71 0.562581 -0.491438 0
M  V30 9365 H 927.372 0.904832 -1.72623 0
M  V30 9366 H 926.468 2.41102 -1.98182 0
M  V30 9367 N 926.769 1.22769 0.988202 0
M  V30 9368 C 927.732 1.00325 2.06076 0
M  V30 9369 C 928.732 -0.0320618 1.60768 0
M  V30 9370 O 929.922 0.206912 1.72967 0
M  V30 9371 C 927.054 0.516376 3.36966 0
M  V30 9372 H 928.247 1.95499 2.27421 0
M  V30 9373 H 925.8 1.04704 1.16047 0
M  V30 9374 H 926.535 -0.439498 3.21308 0
M  V30 9375 H 926.32 1.26337 3.71189 0
M  V30 9376 H 927.81 0.37974 4.1587 0
M  V30 9377 N 928.247 -1.18576 1.03814 0
M  V30 9378 C 929.495 -1.88121 0.738574 0
M  V30 9379 C 929.816 -1.80587 -0.735744 0
M  V30 9380 O 929.086 -1.22251 -1.53074 0
M  V30 9381 H 927.666 -0.696417 0.270208 0
M  V30 9382 H 930.328 -1.43912 1.31435 0
M  V30 9383 H 929.424 -2.94222 1.04115 0
M  V30 9384 N 929.725 -0.817259 -1.34754 0
M  V30 9385 C 930.973 -0.401852 -1.98065 0
M  V30 9386 C 931.294 1.03718 -1.65129 0
M  V30 9387 O 930.564 1.71921 -0.939141 0
M  V30 9388 H 929.144 -0.145603 -0.732672 0
M  V30 9389 H 931.806 -1.04545 -1.64488 0
M  V30 9390 H 930.902 -0.516241 -3.07801 0
M  V30 9391 N 931.203 1.46865 -0.571711 0
M  V30 9392 C 932.133 2.3298 0.155795 0
M  V30 9393 C 933.114 1.44678 0.894553 0
M  V30 9394 O 934.299 1.73513 0.872176 0
M  V30 9395 C 931.429 3.26745 1.17708 0
M  V30 9396 C 930.383 4.24401 0.553863 0
M  V30 9397 C 929.709 5.07595 1.68083 0
M  V30 9398 C 931.009 5.19884 -0.501827 0
M  V30 9399 H 932.703 2.94056 -0.563176 0
M  V30 9400 H 930.249 1.41402 -0.27228 0
M  V30 9401 H 932.202 3.85838 1.6943 0
M  V30 9402 H 930.926 2.63753 1.92618 0
M  V30 9403 H 929.585 3.66554 0.057815 0
M  V30 9404 H 929.233 4.40996 2.41933 0
M  V30 9405 H 928.933 5.73722 1.26953 0
M  V30 9406 H 930.457 5.6955 2.20103 0
M  V30 9407 H 931.871 5.73257 -0.0701057 0
M  V30 9408 H 930.268 5.94293 -0.832815 0
M  V30 9409 H 931.338 4.64482 -1.39229 0
M  V30 9410 N 932.681 0.308908 1.54543 0
M  V30 9411 C 933.929 -0.297447 1.99899 0
M  V30 9412 C 934.25 -1.53799 1.19878 0
M  V30 9413 O 933.52 -1.93639 0.29678 0
M  V30 9414 H 932.1 -0.112897 0.738419 0
M  V30 9415 H 934.762 0.422067 1.90275 0
M  V30 9416 H 933.858 -0.564016 3.06961 0
M  V30 9417 N 934.159 -1.57557 0.0367827 0
M  V30 9418 C 935.408 -1.91291 -0.639569 0
M  V30 9419 C 935.721 -0.915601 -1.72847 0
M  V30 9420 O 936.927 -1.14447 -2.46199 0
M  V30 9421 C 935.383 -3.39697 -1.18888 0
M  V30 9422 C 934.991 -4.47803 -0.132851 0
M  V30 9423 C 936.735 -3.82487 -1.8413 0
M  V30 9424 C 934.642 -5.87311 -0.694229 0
M  V30 9425 H 933.572 -0.713886 -0.242658 0
M  V30 9426 H 936.223 -1.83209 0.103332 0
M  V30 9427 H 934.605 -3.42736 -1.98363 0
M  V30 9428 H 935.779 -4.56334 0.640009 0
M  V30 9429 H 934.094 -4.14264 0.421264 0
M  V30 9430 H 936.691 -4.84076 -2.27101 0
M  V30 9431 H 937.034 -3.17959 -2.68716 0
M  V30 9432 H 937.567 -3.81903 -1.11332 0
M  V30 9433 H 934.306 -6.55401 0.113667 0
M  V30 9434 H 933.826 -5.82371 -1.4354 0
M  V30 9435 H 935.505 -6.36119 -1.1816 0
M  V30 9436 N 935.637 0.236453 -1.55816 0
M  V30 9437 C 936.57 1.3196 -1.86177 0
M  V30 9438 C 937.548 1.459 -0.717769 0
M  V30 9439 O 938.732 1.61949 -0.964606 0
M  V30 9440 C 935.859 2.69183 -2.05568 0
M  V30 9441 C 934.905 2.72338 -3.28229 0
M  V30 9442 S 935.738 2.27898 -4.84585 0
M  V30 9443 C 936.894 3.67025 -5.06994 0
M  V30 9444 H 937.127 1.06011 -2.77757 0
M  V30 9445 H 934.66 0.437961 -1.48058 0
M  V30 9446 H 936.618 3.48191 -2.17423 0
M  V30 9447 H 935.279 2.92365 -1.14811 0
M  V30 9448 H 934.472 3.7314 -3.38795 0
M  V30 9449 H 934.074 2.01382 -3.15153 0
M  V30 9450 H 936.366 4.62604 -4.94979 0
M  V30 9451 H 937.309 3.61385 -6.08939 0
M  V30 9452 H 937.717 3.60022 -4.34792 0
M  V30 9453 N 937.115 1.49373 0.502552 0
M  V30 9454 C 938.363 1.58467 1.25429 0
M  V30 9455 C 938.684 0.272593 1.93085 0
M  V30 9456 O 937.954 -0.707947 1.82661 0
M  V30 9457 H 936.534 0.583866 0.46595 0
M  V30 9458 H 939.196 1.8599 0.582568 0
M  V30 9459 H 938.292 2.37993 2.01906 0
M  V30 9460 N 938.594 -0.753485 1.38421 0
M  V30 9461 C 939.524 -1.8808 1.38377 0
M  V30 9462 C 940.505 -1.68258 0.249664 0
M  V30 9463 O 941.69 -1.88848 0.45276 0
M  V30 9464 C 938.82 -3.25608 1.20818 0
M  V30 9465 C 937.774 -3.60032 2.31433 0
M  V30 9466 C 937.1 -4.96297 1.9898 0
M  V30 9467 C 938.4 -3.64898 3.73694 0
M  V30 9468 H 940.094 -1.88375 2.32713 0
M  V30 9469 H 937.64 -0.90489 1.12017 0
M  V30 9470 H 939.593 -4.04127 1.19412 0
M  V30 9471 H 938.317 -3.25793 0.229433 0
M  V30 9472 H 936.976 -2.83831 2.32025 0
M  V30 9473 H 936.624 -4.93043 0.995889 0
M  V30 9474 H 936.324 -5.20298 2.73063 0
M  V30 9475 H 937.848 -5.77196 1.99193 0
M  V30 9476 H 939.262 -4.33531 3.75132 0
M  V30 9477 H 937.659 -4.00407 4.46983 0
M  V30 9478 H 938.729 -2.65124 4.06002 0
M  V30 9479 N 940.072 -1.23292 -0.981677 0
M  V30 9480 C 941.483 -1.05936 -1.53735 0
M  V30 9481 C 941.834 0.373695 -1.92608 0
M  V30 9482 O 940.959 1.26024 -1.75917 0
M  V30 9483 C 941.554 -1.91682 -2.79363 0
M  V30 9484 C 940.113 -1.78591 -3.31334 0
M  V30 9485 C 939.26 -1.87463 -2.04335 0
M  V30 9486 H 942.211 -1.36973 -0.801505 0
M  V30 9487 H 942.232 -1.44085 -3.52164 0
M  V30 9488 H 941.744 -2.95975 -2.51039 0
M  V30 9489 H 939.845 -0.770755 -3.64541 0
M  V30 9490 H 939.958 -2.61902 -4.01179 0
M  V30 9491 H 938.322 -1.3103 -2.18411 0
M  V30 9492 H 939.105 -2.9331 -1.78394 0
M  V30 9493 N 941.55 1.18024 -1.04442 0
M  V30 9494 C 942.961 1.69749 -0.777312 0
M  V30 9495 C 943.312 1.83234 0.701399 0
M  V30 9496 O 942.437 1.51452 1.54568 0
M  V30 9497 C 943.032 3.08321 -1.40441 0
M  V30 9498 C 941.591 3.57243 -1.18553 0
M  V30 9499 C 940.738 2.33695 -1.49271 0
M  V30 9500 H 943.689 1.02647 -1.21035 0
M  V30 9501 H 943.71 3.71787 -0.809628 0
M  V30 9502 H 943.222 2.98474 -2.48062 0
M  V30 9503 H 941.323 3.72379 -0.128221 0
M  V30 9504 H 941.436 4.40451 -1.88519 0
M  V30 9505 H 939.8 2.37792 -0.912526 0
M  V30 9506 H 940.583 2.26464 -2.5801 0
M  V30 9507 N 943.028 0.824394 1.34319 0
M  V30 9508 C 943.958 0.262077 2.32025 0
M  V30 9509 C 944.939 -0.622277 1.58309 0
M  V30 9510 O 946.124 -0.548848 1.86283 0
M  V30 9511 C 943.254 -0.57567 3.42496 0
M  V30 9512 C 942.208 0.21167 4.27476 0
M  V30 9513 C 941.534 -0.748913 5.29429 0
M  V30 9514 C 942.834 1.42068 5.02607 0
M  V30 9515 H 944.528 1.07842 2.79304 0
M  V30 9516 H 942.074 0.520022 1.34282 0
M  V30 9517 H 944.027 -0.979251 4.09864 0
M  V30 9518 H 942.751 -1.42508 2.93869 0
M  V30 9519 H 941.41 0.596636 3.61712 0
M  V30 9520 H 941.058 -1.59432 4.77064 0
M  V30 9521 H 940.758 -0.226313 5.87164 0
M  V30 9522 H 942.282 -1.15032 5.99667 0
M  V30 9523 H 943.696 1.09103 5.62823 0
M  V30 9524 H 942.093 1.87903 5.69923 0
M  V30 9525 H 943.163 2.1981 4.32217 0
M  V30 9526 N 944.506 -1.46559 0.579492 0
M  V30 9527 C 945.917 -1.8608 0.152052 0
M  V30 9528 C 946.268 -1.48346 -1.28405 0
M  V30 9529 O 945.393 -0.89685 -1.9694 0
M  V30 9530 C 945.988 -3.37729 0.269171 0
M  V30 9531 C 944.547 -3.76258 -0.103376 0
M  V30 9532 C 943.694 -2.70584 0.60659 0
M  V30 9533 H 946.645 -1.3776 0.787904 0
M  V30 9534 H 946.666 -3.77116 -0.506339 0
M  V30 9535 H 946.178 -3.65162 1.31448 0
M  V30 9536 H 944.279 -3.54443 -1.14895 0
M  V30 9537 H 944.392 -4.78335 0.270701 0
M  V30 9538 H 942.756 -2.54656 0.0471984 0
M  V30 9539 H 943.539 -3.00856 1.65349 0
M  V30 9540 N 945.984 -0.3171 -1.54377 0
M  V30 9541 C 946.947 0.53905 -2.22771 0
M  V30 9542 C 947.947 1.04865 -1.21901 0
M  V30 9543 O 949.137 0.942108 -1.46526 0
M  V30 9544 C 946.269 1.74804 -2.92671 0
M  V30 9545 H 947.462 -0.0587417 -2.99842 0
M  V30 9546 H 945.015 -0.068107 -1.56152 0
M  V30 9547 H 945.75 2.38524 -2.1972 0
M  V30 9548 H 945.535 1.39011 -3.66631 0
M  V30 9549 H 947.025 2.35592 -3.44799 0
M  V30 9550 N 947.462 1.57535 -0.0451378 0
M  V30 9551 C 948.873 1.80116 0.491426 0
M  V30 9552 C 949.224 0.956846 1.71286 0
M  V30 9553 O 948.349 0.17173 2.15718 0
M  V30 9554 C 948.944 3.26674 0.898315 0
M  V30 9555 C 947.503 3.50194 1.37989 0
M  V30 9556 C 946.65 2.75054 0.352202 0
M  V30 9557 H 949.601 1.56368 -0.271065 0
M  V30 9558 H 949.622 3.37263 1.76164 0
M  V30 9559 H 949.134 3.88099 0.009141 0
M  V30 9560 H 947.235 2.94041 2.28846 0
M  V30 9561 H 947.348 4.58909 1.37622 0
M  V30 9562 H 945.712 2.4101 0.823784 0
M  V30 9563 H 946.495 3.39203 -0.528782 0
M  V30 9564 N 948.94 -0.228186 1.55939 0
M  V30 9565 C 950.188 -0.951668 1.78291 0
M  V30 9566 C 950.509 -1.85132 0.612474 0
M  V30 9567 O 949.779 -1.92356 -0.370942 0
M  V30 9568 H 948.359 -0.354388 0.657585 0
M  V30 9569 H 951.021 -0.241635 1.93396 0
M  V30 9570 H 950.117 -1.56239 2.70177 0
M  V30 9571 N 950.418 -1.49637 -0.494624 0
M  V30 9572 C 951.328 -1.69522 -1.62172 0
M  V30 9573 C 952.344 -0.577894 -1.64123 0
M  V30 9574 O 953.52 -0.853382 -1.82426 0
M  V30 9575 C 950.585 -1.7633 -2.9851 0
M  V30 9576 C 949.646 -2.99944 -3.07135 0
M  V30 9577 C 948.879 -3.06419 -4.36971 0
M  V30 9578 O 949.102 -2.20312 -5.26136 0
M  V30 9579 O 948.036 -3.9894 -4.507 0
M  V30 9580 H 951.862 -2.65017 -1.48324 0
M  V30 9581 H 949.447 -1.33454 -0.671603 0
M  V30 9582 H 951.329 -1.83125 -3.7953 0
M  V30 9583 H 950.004 -0.840155 -3.12607 0
M  V30 9584 H 948.911 -2.98664 -2.2528 0
M  V30 9585 H 950.244 -3.9176 -2.97968 0
M  V30 9586 N 951.896 0.746133 -1.38819 0
M  V30 9587 C 953.307 1.32384 -1.31648 0
M  V30 9588 C 953.658 1.96185 0.0243086 0
M  V30 9589 O 952.783 1.95567 0.92641 0
M  V30 9590 C 953.378 2.40712 -2.38418 0
M  V30 9591 C 951.937 2.94185 -2.34803 0
M  V30 9592 C 951.084 1.67639 -2.20891 0
M  V30 9593 H 954.035 0.544457 -1.49068 0
M  V30 9594 H 954.056 3.20833 -2.04564 0
M  V30 9595 H 953.568 1.94247 -3.3599 0
M  V30 9596 H 951.669 3.44959 -1.40834 0
M  V30 9597 H 951.782 3.48057 -3.29231 0
M  V30 9598 H 950.146 1.9155 -1.67871 0
M  V30 9599 H 950.929 1.23242 -3.20416 0
M  V30 9600 N 953.375 1.23811 0.975125 0
M  V30 9601 C 954.615 1.08517 1.73215 0
M  V30 9602 C 954.979 -0.370777 1.88386 0
M  V30 9603 O 956.18 -0.645036 2.60946 0
M  V30 9604 C 954.451 1.79649 3.08968 0
M  V30 9605 S 956.01 1.79993 4.00185 0
M  V30 9606 H 952.828 0.388256 0.595633 0
M  V30 9607 H 955.43 1.57028 1.16458 0
M  V30 9608 H 954.134 2.8471 2.95581 0
M  V30 9609 H 953.665 1.31441 3.70792 0
M  V30 9610 H 955.68 0.862294 4.8865 0
M  V30 9611 N 954.853 -1.17469 1.05066 0
M  V30 9612 C 956.264 -1.69334 0.786304 0
M  V30 9613 C 956.615 -1.83604 -0.691671 0
M  V30 9614 O 955.74 -1.52269 -1.53763 0
M  V30 9615 C 956.335 -3.07572 1.42074 0
M  V30 9616 C 954.894 -3.56609 1.20446 0
M  V30 9617 C 954.041 -2.329 1.50508 0
M  V30 9618 H 956.992 -1.02003 1.21577 0
M  V30 9619 H 957.013 -3.71352 0.829334 0
M  V30 9620 H 956.525 -2.97154 2.49642 0
M  V30 9621 H 954.626 -3.72306 0.147968 0
M  V30 9622 H 954.739 -4.39446 1.90852 0
M  V30 9623 H 953.103 -2.37305 0.925124 0
M  V30 9624 H 953.886 -2.25093 2.59207 0
M  V30 9625 N 956.331 -0.831506 -1.3388 0
M  V30 9626 C 957.261 -0.274378 -2.31882 0
M  V30 9627 C 958.242 0.613872 -1.58637 0
M  V30 9628 O 959.427 0.538961 -1.86571 0
M  V30 9629 C 956.557 0.557498 -3.42796 0
M  V30 9630 C 955.511 -0.234337 -4.27358 0
M  V30 9631 C 954.837 0.720825 -5.29819 0
M  V30 9632 C 956.137 -1.44732 -5.01847 0
M  V30 9633 H 957.831 -1.09322 -2.78728 0
M  V30 9634 H 955.377 -0.527136 -1.34005 0
M  V30 9635 H 957.33 0.957501 -4.10378 0
M  V30 9636 H 956.054 1.40947 -2.94621 0
M  V30 9637 H 954.713 -0.61581 -3.61391 0
M  V30 9638 H 954.361 1.569 -4.77903 0
M  V30 9639 H 954.061 0.195171 -5.87276 0
M  V30 9640 H 955.585 1.1185 -6.00268 0
M  V30 9641 H 956.999 -1.12087 -5.62236 0
M  V30 9642 H 955.396 -1.90923 -5.68919 0
M  V30 9643 H 956.466 -2.22099 -4.31045 0
M  V30 9644 N 957.809 1.4625 -0.587256 0
M  V30 9645 C 958.772 2.28812 0.133238 0
M  V30 9646 C 959.772 1.38645 0.814513 0
M  V30 9647 O 960.962 1.60975 0.665774 0
M  V30 9648 C 958.094 3.19147 1.19824 0
M  V30 9649 H 959.287 2.93991 -0.592386 0
M  V30 9650 H 956.84 1.52435 -0.345416 0
M  V30 9651 H 957.575 2.58725 1.95529 0
M  V30 9652 H 957.36 3.85541 0.71418 0
M  V30 9653 H 958.85 3.81278 1.70344 0
M  V30 9654 N 959.287 0.325282 1.54207 0
M  V30 9655 C 960.219 -0.57395 2.21897 0
M  V30 9656 C 961.232 -1.0785 1.21952 0
M  V30 9657 O 962.421 -0.991782 1.48411 0
M  V30 9658 C 959.521 -1.8005 2.87115 0
M  V30 9659 C 958.694 -1.43435 4.13213 0
M  V30 9660 C 957.753 -2.51862 4.62009 0
M  V30 9661 O 956.779 -2.15934 5.26651 0
M  V30 9662 N 957.981 -3.8282 4.36382 0
M  V30 9663 H 960.746 0.00566918 2.99699 0
M  V30 9664 H 958.307 0.148563 1.61217 0
M  V30 9665 H 960.299 -2.51981 3.16682 0
M  V30 9666 H 958.869 -2.28792 2.13009 0
M  V30 9667 H 958.089 -0.546598 3.90392 0
M  V30 9668 H 959.377 -1.16544 4.95273 0
M  V30 9669 H 958.775 -4.14807 3.84645 0
M  V30 9670 H 957.332 -4.50976 4.70599 0
M  V30 9671 N 960.765 -1.57509 0.0534917 0
M  V30 9672 C 961.675 -2.15152 -0.935249 0
M  V30 9673 C 962.691 -1.10991 -1.34003 0
M  V30 9674 O 963.867 -1.43171 -1.41648 0
M  V30 9675 C 960.932 -2.68699 -2.19093 0
M  V30 9676 C 959.993 -3.87666 -1.84428 0
M  V30 9677 C 959.226 -4.3865 -3.0401 0
M  V30 9678 O 959.449 -3.887 -4.17455 0
M  V30 9679 O 958.383 -5.30209 -2.84889 0
M  V30 9680 H 962.209 -2.99962 -0.475009 0
M  V30 9681 H 959.794 -1.48446 -0.16854 0
M  V30 9682 H 961.676 -3.03098 -2.92762 0
M  V30 9683 H 960.351 -1.86958 -2.6425 0
M  V30 9684 H 959.258 -3.58151 -1.08068 0
M  V30 9685 H 960.591 -4.70643 -1.44068 0
M  V30 9686 N 962.243 0.219913 -1.56058 0
M  V30 9687 C 963.153 1.29349 -1.95719 0
M  V30 9688 C 964.169 1.5119 -0.861248 0
M  V30 9689 O 965.345 1.64289 -1.16495 0
M  V30 9690 C 962.41 2.6229 -2.26726 0
M  V30 9691 C 961.471 2.48738 -3.49897 0
M  V30 9692 C 960.704 3.75339 -3.79416 0
M  V30 9693 O 960.927 4.78427 -3.10586 0
M  V30 9694 O 959.861 3.72352 -4.72903 0
M  V30 9695 H 963.687 0.986979 -2.87215 0
M  V30 9696 H 961.272 0.42291 -1.43289 0
M  V30 9697 H 963.154 3.408 -2.47857 0
M  V30 9698 H 961.829 2.92619 -1.38404 0
M  V30 9699 H 960.736 1.68422 -3.34043 0
M  V30 9700 H 962.069 2.23347 -4.38608 0
M  V30 9701 N 963.721 1.49897 0.486681 0
M  V30 9702 C 964.967 1.60342 1.2417 0
M  V30 9703 C 965.3 0.295694 1.91936 0
M  V30 9704 O 964.575 -0.701788 1.81398 0
M  V30 9705 C 964.858 2.77281 2.29755 0
M  V30 9706 C 964.711 4.1789 1.66397 0
M  V30 9707 C 966.03 2.89817 3.31201 0
M  V30 9708 H 963.149 0.583605 0.450083 0
M  V30 9709 H 965.791 1.82232 0.537734 0
M  V30 9710 H 963.941 2.58748 2.89796 0
M  V30 9711 H 965.613 4.47975 1.10073 0
M  V30 9712 H 963.856 4.22872 0.967579 0
M  V30 9713 H 964.527 4.95612 2.43049 0
M  V30 9714 H 967.003 3.06732 2.81167 0
M  V30 9715 H 965.879 3.7329 4.02425 0
M  V30 9716 H 966.14 1.9977 3.94391 0
M  V30 9717 N 965.199 -0.738761 1.39212 0
M  V30 9718 C 966.448 -1.49368 1.35543 0
M  V30 9719 C 966.761 -1.95543 -0.0471091 0
M  V30 9720 O 967.967 -2.70714 -0.206376 0
M  V30 9721 C 966.423 -2.69882 2.381 0
M  V30 9722 C 966.031 -2.30672 3.8405 0
M  V30 9723 C 967.775 -3.47718 2.435 0
M  V30 9724 C 965.682 -3.47886 4.78256 0
M  V30 9725 H 964.612 -0.560898 0.503894 0
M  V30 9726 H 967.263 -0.806221 1.6484 0
M  V30 9727 H 965.645 -3.40684 2.01867 0
M  V30 9728 H 966.819 -1.67441 4.29302 0
M  V30 9729 H 965.134 -1.65936 3.81909 0
M  V30 9730 H 967.731 -4.34897 3.11077 0
M  V30 9731 H 968.074 -3.89919 1.45838 0
M  V30 9732 H 968.607 -2.83942 2.78606 0
M  V30 9733 H 965.346 -3.10739 5.77167 0
M  V30 9734 H 964.866 -4.10111 4.37686 0
M  V30 9735 H 966.545 -4.14271 4.96979 0
M  V30 9736 N 966.677 -1.24326 -0.968545 0
M  V30 9737 C 967.587 -1.05194 -2.09694 0
M  V30 9738 C 968.603 0.00701291 -1.73999 0
M  V30 9739 O 969.779 -0.190981 -2.00492 0
M  V30 9740 C 966.844 -0.658075 -3.40397 0
M  V30 9741 C 965.905 -1.79341 -3.90045 0
M  V30 9742 C 965.138 -1.41824 -5.14511 0
M  V30 9743 O 965.361 -0.307693 -5.69569 0
M  V30 9744 O 964.295 -2.24358 -5.58522 0
M  V30 9745 H 968.121 -1.99791 -2.2873 0
M  V30 9746 H 965.706 -1.03138 -1.08088 0
M  V30 9747 H 967.588 -0.449911 -4.18991 0
M  V30 9748 H 966.263 0.258782 -3.22664 0
M  V30 9749 H 965.17 -2.05632 -3.12516 0
M  V30 9750 H 966.503 -2.68901 -4.12254 0
M  V30 9751 N 968.156 1.1691 -1.05688 0
M  V30 9752 C 969.405 1.86629 -0.765022 0
M  V30 9753 C 969.718 1.82223 0.710918 0
M  V30 9754 O 970.924 2.47462 1.11691 0
M  V30 9755 C 969.38 3.34886 -1.3183 0
M  V30 9756 C 968.988 3.47781 -2.82404 0
M  V30 9757 C 970.732 4.099 -1.10372 0
M  V30 9758 C 968.639 4.9009 -3.31008 0
M  V30 9759 H 967.569 0.699082 -0.282491 0
M  V30 9760 H 970.22 1.31989 -1.27481 0
M  V30 9761 H 968.602 3.89094 -0.736312 0
M  V30 9762 H 969.776 3.03765 -3.46502 0
M  V30 9763 H 968.091 2.86193 -3.02461 0
M  V30 9764 H 970.688 5.14894 -1.4418 0
M  V30 9765 H 971.031 4.16279 -0.0417372 0
M  V30 9766 H 971.564 3.61913 -1.65117 0
M  V30 9767 H 968.303 4.88887 -4.36657 0
M  V30 9768 H 967.823 5.34756 -2.71655 0
M  V30 9769 H 969.502 5.58881 -3.25977 0
M  V30 9770 N 969.634 0.838594 1.33437 0
M  V30 9771 C 970.582 0.260158 2.31141 0
M  V30 9772 C 971.576 -0.607706 1.58124 0
M  V30 9773 O 972.782 -0.497298 1.72994 0
M  V30 9774 H 969.157 0.0654031 0.74915 0
M  V30 9775 H 971.128 1.09874 2.77435 0
M  V30 9776 C 969.877 -0.550234 3.43319 0
M  V30 9777 H 969.2 0.108262 3.99653 0
M  V30 9778 H 970.64 -0.920815 4.1388 0
M  V30 9779 C 969.099 -1.729 2.89149 0
M  V30 9780 O 969.629 -2.82769 2.85315 0
M  V30 9781 N 967.835 -1.5508 2.45761 0
M  V30 9782 H 967.382 -0.657055 2.49079 0
M  V30 9783 H 967.34 -2.34099 2.0987 0
M  V30 9784 N 971.112 -1.45937 0.595003 0
M  V30 9785 C 972.528 -1.57507 0.257641 0
M  V30 9786 C 972.728 -1.58829 -1.23998 0
M  V30 9787 O 971.784 -1.51183 -2.02237 0
M  V30 9788 C 973.097 -2.86354 0.917708 0
M  V30 9789 C 974.645 -3.00007 0.892446 0
M  V30 9790 C 975.12 -4.31607 1.53229 0
M  V30 9791 N 976.611 -4.38336 1.49719 0
M  V30 9792 C 977.346 -5.38805 1.96154 0
M  V30 9793 N 976.842 -6.45882 2.50617 0
M  V30 9794 N 978.635 -5.30084 1.86997 0
M  V30 9795 H 970.786 -1.43322 1.56756 0
M  V30 9796 H 973.049 -0.684436 0.655936 0
M  V30 9797 H 972.755 -2.91233 1.97171 0
M  V30 9798 H 972.629 -3.74703 0.433344 0
M  V30 9799 H 975.016 -2.94703 -0.152975 0
M  V30 9800 H 975.097 -2.13103 1.41495 0
M  V30 9801 H 974.741 -4.3767 2.57697 0
M  V30 9802 H 974.671 -5.17308 0.984903 0
M  V30 9803 H 977.162 -3.6156 1.09921 0
M  V30 9804 H 977.475 -7.18774 2.83874 0
M  V30 9805 H 975.82 -6.46668 2.54649 0
M  V30 9806 H 979.011 -4.45337 1.44196 0
M  V30 9807 H 979.184 -6.08237 2.23499 0
M  V30 9808 N 972.59 -0.333456 -1.54032 0
M  V30 9809 C 973.553 0.515392 -2.2333 0
M  V30 9810 C 974.553 1.03566 -1.23007 0
M  V30 9811 O 975.743 0.926514 -1.47517 0
M  V30 9812 C 972.875 1.7169 -2.94508 0
M  V30 9813 H 974.068 -0.0905407 -2.99763 0
M  V30 9814 H 971.621 -0.0846651 -1.56071 0
M  V30 9815 H 972.356 2.3618 -2.22237 0
M  V30 9816 H 972.141 1.35115 -3.68085 0
M  V30 9817 H 973.631 2.31922 -3.47278 0
M  V30 9818 N 974.068 1.57479 -0.061844 0
M  V30 9819 C 975.345 1.84484 0.649993 0
M  V30 9820 C 975.725 0.952366 1.88396 0
M  V30 9821 O 975.073 0.0161035 2.28494 0
M  V30 9822 C 975.283 3.34452 0.997133 0
M  V30 9823 C 976.631 4.01724 1.37488 0
M  V30 9824 O 977.655 3.3914 1.08916 0
M  V30 9825 O 976.514 5.12091 1.90854 0
M  V30 9826 H 973.608 0.761798 0.321858 0
M  V30 9827 H 976.154 1.6945 -0.0920192 0
M  V30 9828 H 974.926 3.91115 0.120301 0
M  V30 9829 H 974.549 3.54713 1.79624 0
M  V30 9830 N 975.546 -0.211634 1.56173 0
M  V30 9831 C 976.957 -0.777776 1.69728 0
M  V30 9832 C 977.308 -1.84566 0.66558 0
M  V30 9833 O 976.433 -2.15639 -0.181338 0
M  V30 9834 C 977.028 -1.41757 3.07718 0
M  V30 9835 C 975.587 -1.93098 3.23094 0
M  V30 9836 C 974.734 -0.794785 2.65666 0
M  V30 9837 H 977.685 0.0131839 1.58695 0
M  V30 9838 H 977.706 -2.28662 3.04128 0
M  V30 9839 H 977.218 -0.640114 3.82785 0
M  V30 9840 H 975.319 -2.73615 2.52914 0
M  V30 9841 H 975.432 -2.10414 4.30422 0
M  V30 9842 H 973.796 -1.20473 2.24407 0
M  V30 9843 H 974.579 -0.0298408 3.43287 0
M  V30 9844 N 977.024 -1.50153 -0.478725 0
M  V30 9845 C 978.44 -1.3741 -0.811833 0
M  V30 9846 C 978.64 -0.424303 -1.96982 0
M  V30 9847 O 977.696 0.13588 -2.52134 0
M  V30 9848 C 979.009 -2.78616 -1.13108 0
M  V30 9849 C 980.557 -2.87477 -1.23798 0
M  V30 9850 C 981.032 -4.295 -1.5904 0
M  V30 9851 N 982.523 -4.32415 -1.66047 0
M  V30 9852 C 983.258 -5.39295 -1.94805 0
M  V30 9853 N 982.754 -6.56392 -2.21635 0
M  V30 9854 N 984.547 -5.26731 -1.96243 0
M  V30 9855 H 976.698 -2.10486 0.284531 0
M  V30 9856 H 978.961 -0.945786 0.0647585 0
M  V30 9857 H 978.667 -3.49921 -0.35334 0
M  V30 9858 H 978.541 -3.15382 -2.06915 0
M  V30 9859 H 980.928 -2.16396 -2.00641 0
M  V30 9860 H 981.009 -2.54264 -0.279888 0
M  V30 9861 H 980.653 -5.01115 -0.827404 0
M  V30 9862 H 980.583 -4.60194 -2.55987 0
M  V30 9863 H 983.074 -3.47975 -1.47383 0
M  V30 9864 H 983.387 -7.33658 -2.4283 0
M  V30 9865 H 981.732 -6.59579 -2.19043 0
M  V30 9866 H 984.923 -4.34249 -1.74773 0
M  V30 9867 H 985.096 -6.10115 -2.1832 0
M  V30 9868 N 978.502 0.731368 -1.39602 0
M  V30 9869 C 979.913 1.30981 -1.33045 0
M  V30 9870 C 980.264 1.962 0.00349918 0
M  V30 9871 O 979.389 1.96539 0.905615 0
M  V30 9872 C 979.984 2.3817 -2.40958 0
M  V30 9873 C 978.543 2.91678 -2.3791 0
M  V30 9874 C 977.69 1.65286 -2.22656 0
M  V30 9875 H 980.641 0.528615 -1.49637 0
M  V30 9876 H 980.662 3.18645 -2.07955 0
M  V30 9877 H 980.174 1.90673 -3.38032 0
M  V30 9878 H 978.275 3.43446 -1.44485 0
M  V30 9879 H 978.388 3.44545 -3.32904 0
M  V30 9880 H 976.752 1.89759 -1.69893 0
M  V30 9881 H 977.535 1.19836 -3.21705 0
M  V30 9882 N 979.98 1.24838 0.961938 0
M  V30 9883 C 980.928 1.0436 2.07874 0
M  V30 9884 C 981.922 -0.0232531 1.69384 0
M  V30 9885 O 983.128 0.131773 1.79517 0
M  V30 9886 H 979.503 0.320492 0.680286 0
M  V30 9887 H 981.474 1.99055 2.22306 0
M  V30 9888 C 980.223 0.671246 3.41159 0
M  V30 9889 H 979.546 1.48395 3.7124 0
M  V30 9890 H 980.986 0.567608 4.20184 0
M  V30 9891 C 979.445 -0.622124 3.31106 0
M  V30 9892 O 979.975 -1.66627 3.65511 0
M  V30 9893 N 978.181 -0.605009 2.84232 0
M  V30 9894 H 977.728 0.245052 2.56432 0
M  V30 9895 H 977.686 -1.47056 2.77888 0
M  V30 9896 N 981.458 -1.16348 1.06306 0
M  V30 9897 C 982.706 -1.86512 0.778311 0
M  V30 9898 C 983.027 -1.82107 -0.697273 0
M  V30 9899 O 982.297 -1.2547 -1.50446 0
M  V30 9900 H 980.877 -0.690529 0.284919 0
M  V30 9901 H 983.539 -1.41092 1.34458 0
M  V30 9902 H 982.635 -2.91947 1.10333 0
M  V30 9903 N 982.937 -0.845659 -1.3299 0
M  V30 9904 C 984.214 -0.366306 -1.92139 0
M  V30 9905 C 984.594 1.14912 -1.77083 0
M  V30 9906 O 983.942 1.96667 -1.16338 0
M  V30 9907 C 984.152 -0.820716 -3.39213 0
M  V30 9908 C 985.5 -0.832667 -4.16355 0
M  V30 9909 O 986.524 -0.764764 -3.47893 0
M  V30 9910 O 985.383 -0.926658 -5.38586 0
M  V30 9911 H 982.477 -0.105063 -0.820299 0
M  V30 9912 H 985.023 -0.931962 -1.41819 0
M  V30 9913 H 983.795 -1.86357 -3.44074 0
M  V30 9914 H 983.418 -0.232009 -3.96923 0
M  V30 9915 N 984.415 1.45619 -0.602734 0
M  V30 9916 C 985.826 1.85814 -0.181636 0
M  V30 9917 C 986.177 1.5037 1.26029 0
M  V30 9918 O 985.302 0.928068 1.95489 0
M  V30 9919 C 985.897 3.37258 -0.322866 0
M  V30 9920 C 984.456 3.76375 0.043504 0
M  V30 9921 C 983.603 2.69585 -0.649561 0
M  V30 9922 H 986.554 1.36489 -0.809721 0
M  V30 9923 H 986.575 3.77874 0.446279 0
M  V30 9924 H 986.087 3.63024 -1.37241 0
M  V30 9925 H 984.188 3.56226 1.09241 0
M  V30 9926 H 984.301 4.77843 -0.346765 0
M  V30 9927 H 982.665 2.54549 -0.087706 0
M  V30 9928 H 983.448 2.98188 -1.70115 0
M  V30 9929 N 985.893 0.34162 1.53853 0
M  V30 9930 C 986.856 -0.503541 2.236 0
M  V30 9931 C 987.856 -1.02912 1.23554 0
M  V30 9932 O 989.046 -0.918678 1.48007 0
M  V30 9933 C 986.178 -1.70126 2.95415 0
M  V30 9934 H 987.371 0.106437 2.99711 0
M  V30 9935 H 984.924 0.0929408 1.56023 0
M  V30 9936 H 985.659 -2.34999 2.23486 0
M  V30 9937 H 985.444 -1.33161 3.68796 0
M  V30 9938 H 986.934 -2.30077 3.48503 0
M  V30 9939 N 987.371 -1.57444 0.0701946 0
M  V30 9940 C 988.334 -2.11511 -0.882923 0
M  V30 9941 C 989.334 -1.03879 -1.22743 0
M  V30 9942 O 990.524 -1.29874 -1.16097 0
M  V30 9943 C 987.656 -2.61514 -2.18686 0
M  V30 9944 H 988.849 -2.9703 -0.413873 0
M  V30 9945 H 986.402 -1.55278 -0.178488 0
M  V30 9946 H 987.137 -1.79443 -2.70131 0
M  V30 9947 H 986.922 -3.40185 -1.94978 0
M  V30 9948 H 988.412 -3.03425 -2.86919 0
M  V30 9949 N 988.849 0.203349 -1.56283 0
M  V30 9950 C 989.812 1.23566 -1.93039 0
M  V30 9951 C 990.812 1.38869 -0.810687 0
M  V30 9952 O 992.002 1.36822 -1.07821 0
M  V30 9953 C 989.134 2.60645 -2.1972 0
M  V30 9954 H 990.327 0.921692 -2.85385 0
M  V30 9955 H 987.88 0.44453 -1.49845 0
M  V30 9956 H 988.615 2.9711 -1.29985 0
M  V30 9957 H 988.4 2.50911 -3.01307 0
M  V30 9958 H 989.89 3.35103 -2.4919 0
M  V30 9959 N 990.327 1.50405 0.470755 0
M  V30 9960 C 991.29 1.68741 1.5511 0
M  V30 9961 C 992.29 0.558116 1.50804 0
M  V30 9962 O 993.48 0.825149 1.53418 0
M  V30 9963 C 990.612 1.71295 2.94739 0
M  V30 9964 H 991.805 2.65127 1.40169 0
M  V30 9965 H 989.358 1.39891 0.697156 0
M  V30 9966 H 990.093 0.766029 3.15123 0
M  V30 9967 H 989.878 2.53336 2.99271 0
M  V30 9968 H 991.368 1.87434 3.73173 0
M  V30 9969 N 991.805 -0.723954 1.39988 0
M  V30 9970 C 992.735 -1.85103 1.42335 0
M  V30 9971 C 993.716 -1.6769 0.285297 0
M  V30 9972 O 994.901 -1.87846 0.492716 0
M  V30 9973 C 992.031 -3.22972 1.27697 0
M  V30 9974 C 990.985 -3.55041 2.39018 0
M  V30 9975 C 990.311 -4.91965 2.09462 0
M  V30 9976 C 991.611 -3.56889 3.8135 0
M  V30 9977 H 993.305 -1.83396 2.36656 0
M  V30 9978 H 990.851 -0.880926 1.13911 0
M  V30 9979 H 992.804 -4.01503 1.27958 0
M  V30 9980 H 991.528 -3.25233 0.298487 0
M  V30 9981 H 990.187 -2.78845 2.37993 0
M  V30 9982 H 989.835 -4.90819 1.10025 0
M  V30 9983 H 989.535 -5.14389 2.84038 0
M  V30 9984 H 991.059 -5.7284 2.11391 0
M  V30 9985 H 992.473 -4.25476 3.84243 0
M  V30 9986 H 990.87 -3.90836 4.55376 0
M  V30 9987 H 991.94 -2.56452 4.11534 0
M  V30 9988 N 993.283 -1.25346 -0.955304 0
M  V30 9989 C 994.246 -1.05754 -2.03344 0
M  V30 9990 C 995.246 -0.0105743 -1.60797 0
M  V30 9991 O 996.436 -0.252699 -1.72357 0
M  V30 9992 C 993.568 -0.605536 -3.35479 0
M  V30 9993 H 994.761 -2.01459 -2.22158 0
M  V30 9994 H 992.314 -1.07744 -1.1323 0
M  V30 9995 H 993.049 0.354154 -3.2236 0
M  V30 9996 H 992.834 -1.36134 -3.67709 0
M  V30 9997 H 994.324 -0.489867 -4.14717 0
M  V30 9998 N 994.761 1.15782 -1.06922 0
M  V30 9999 C 995.711 2.18373 -0.655537 0
M  V30 10000 C 996.695 1.57745 0.317084 0
M  V30 10001 O 997.887 1.76511 0.131509 0
M  V30 10002 C 995.016 3.43263 -0.0502314 0
M  V30 10003 C 994.102 4.10954 -1.04773 0
M  V30 10004 N 994.493 4.542 -2.22567 0
M  V30 10005 C 992.791 4.3723 -0.880087 0
M  V30 10006 C 993.492 5.06641 -2.85815 0
M  V30 10007 N 992.468 4.99917 -2.13505 0
M  V30 10008 H 996.27 2.49533 -1.55276 0
M  V30 10009 H 993.784 1.32303 -0.941793 0
M  V30 10010 H 995.781 4.16063 0.264003 0
M  V30 10011 H 994.441 3.13588 0.842167 0
M  V30 10012 H 995.452 4.47727 -2.60309 0
M  V30 10013 H 992.129 4.17481 -0.0402148 0
M  V30 10014 H 993.519 5.50092 -3.85808 0
M  V30 10015 N 996.239 0.8527 1.3254 0
M  V30 10016 C 997.149 0.298744 2.3269 0
M  V30 10017 C 998.165 -0.582418 1.63963 0
M  V30 10018 O 999.341 -0.483253 1.95516 0
M  V30 10019 C 996.406 -0.505453 3.42996 0
M  V30 10020 C 995.467 0.401618 4.27417 0
M  V30 10021 C 994.7 -0.364294 5.32455 0
M  V30 10022 O 994.923 -1.59448 5.47661 0
M  V30 10023 O 993.857 0.268892 6.01299 0
M  V30 10024 H 997.683 1.12843 2.81958 0
M  V30 10025 H 995.268 0.615584 1.36128 0
M  V30 10026 H 997.15 -0.961974 4.10273 0
M  V30 10027 H 995.825 -1.31197 2.95921 0
M  V30 10028 H 994.732 0.906274 3.62957 0
M  V30 10029 H 996.065 1.17327 4.78012 0
M  V30 10030 N 997.718 -1.45297 0.610449 0
M  V30 10031 C 998.995 -1.95562 0.0386189 0
M  V30 10032 C 999.375 -1.55284 -1.43004 0
M  V30 10033 O 998.723 -0.816785 -2.13403 0
M  V30 10034 C 998.933 -3.48176 0.239731 0
M  V30 10035 C 1000.28 -4.24425 0.122035 0
M  V30 10036 O 1001.3 -3.55794 0.170003 0
M  V30 10037 O 1000.16 -5.46499 0.00953695 0
M  V30 10038 H 997.258 -0.826296 -0.0341081 0
M  V30 10039 H 999.804 -1.55449 0.68071 0
M  V30 10040 H 998.576 -3.70471 1.25963 0
M  V30 10041 H 998.199 -3.95186 -0.437486 0
M  V30 10042 N 999.196 -0.349774 -1.5367 0
M  V30 10043 C 1000.44 0.245095 -2.02925 0
M  V30 10044 C 1000.8 1.4727 -1.23189 0
M  V30 10045 O 1002 2.14215 -1.62374 0
M  V30 10046 C 1000.27 0.545392 -3.53214 0
M  V30 10047 S 1001.83 1.11619 -4.24366 0
M  V30 10048 H 998.649 0.0725368 -0.70729 0
M  V30 10049 H 1001.25 -0.488979 -1.89286 0
M  V30 10050 H 999.955 -0.355786 -4.08855 0
M  V30 10051 H 999.486 1.30897 -3.70985 0
M  V30 10052 H 1001.5 2.40151 -4.34214 0
M  V30 10053 N 1000.67 1.57404 -0.0785433 0
M  V30 10054 C 1002.08 1.81118 0.45311 0
M  V30 10055 C 1002.44 0.992963 1.69218 0
M  V30 10056 O 1001.56 0.217448 2.15305 0
M  V30 10057 C 1002.16 3.28506 0.82882 0
M  V30 10058 C 1000.71 3.53042 1.3053 0
M  V30 10059 C 999.862 2.75739 0.29378 0
M  V30 10060 H 1002.81 1.55758 -0.304171 0
M  V30 10061 H 1002.83 3.40924 1.68971 0
M  V30 10062 H 1002.35 3.88031 -0.0731826 0
M  V30 10063 H 1000.45 2.98829 2.22558 0
M  V30 10064 H 1000.56 4.61724 1.27857 0
M  V30 10065 H 998.924 2.42703 0.772477 0
M  V30 10066 H 999.707 3.38005 -0.600613 0
M  V30 10067 N 1002.15 -0.195058 1.56388 0
M  V30 10068 C 1003.11 -1.2254 1.93692 0
M  V30 10069 C 1004.11 -1.38437 0.81804 0
M  V30 10070 O 1005.3 -1.36248 1.08545 0
M  V30 10071 C 1002.44 -2.59476 2.21099 0
M  V30 10072 H 1003.63 -0.906544 2.8587 0
M  V30 10073 H 1001.18 -0.436577 1.50079 0
M  V30 10074 H 1001.92 -2.96417 1.31558 0
M  V30 10075 H 1001.7 -2.4931 3.02634 0
M  V30 10076 H 1003.19 -3.33777 2.50964 0
M  V30 10077 N 1003.63 -1.50653 -0.462772 0
M  V30 10078 C 1004.88 -1.61296 -1.21105 0
M  V30 10079 C 1005.19 -0.322757 -1.92919 0
M  V30 10080 O 1006.4 -0.308211 -2.69745 0
M  V30 10081 C 1004.85 -2.84752 -2.201 0
M  V30 10082 C 1004.46 -4.20681 -1.54051 0
M  V30 10083 C 1006.21 -3.04744 -2.95518 0
M  V30 10084 C 1004.11 -5.35314 -2.51381 0
M  V30 10085 H 1003.04 -0.60069 -0.455728 0
M  V30 10086 H 1005.69 -1.77093 -0.480656 0
M  V30 10087 H 1004.08 -2.62532 -2.96467 0
M  V30 10088 H 1005.25 -4.53187 -0.834168 0
M  V30 10089 H 1003.56 -4.06361 -0.908828 0
M  V30 10090 H 1006.16 -3.87559 -3.68378 0
M  V30 10091 H 1006.5 -2.16802 -3.55391 0
M  V30 10092 H 1007.04 -3.27185 -2.26263 0
M  V30 10093 H 1003.78 -6.25437 -1.96235 0
M  V30 10094 H 1003.3 -5.07216 -3.20144 0
M  V30 10095 H 1004.98 -5.66229 -3.1304 0
M  V30 10096 N 1005.11 0.71652 -1.4037 0
M  V30 10097 C 1006.39 1.46947 -1.29097 0
M  V30 10098 C 1006.77 2.10903 0.0911182 0
M  V30 10099 O 1006.11 2.00068 1.10385 0
M  V30 10100 C 1006.32 2.50594 -2.42907 0
M  V30 10101 C 1007.67 3.16451 -2.83097 0
M  V30 10102 O 1008.7 2.60913 -2.42493 0
M  V30 10103 O 1007.55 4.16991 -3.53244 0
M  V30 10104 H 1004.65 0.653413 -0.506932 0
M  V30 10105 H 1007.19 0.748774 -1.52287 0
M  V30 10106 H 1005.97 2.01843 -3.35224 0
M  V30 10107 H 1005.59 3.302 -2.21481 0
M  V30 10108 N 1006.59 1.25851 0.948643 0
M  V30 10109 C 1007.52 1.02549 2.04979 0
M  V30 10110 C 1008.53 -0.0115923 1.62796 0
M  V30 10111 O 1009.72 0.227643 1.77042 0
M  V30 10112 C 1006.82 0.529486 3.34738 0
M  V30 10113 C 1005.99 1.6341 4.05729 0
M  V30 10114 C 1005.05 1.13743 5.1376 0
M  V30 10115 O 1004.08 1.83303 5.38877 0
M  V30 10116 N 1005.28 -0.0181151 5.80497 0
M  V30 10117 H 1008.05 1.97365 2.25537 0
M  V30 10118 H 1005.61 1.17137 1.11761 0
M  V30 10119 H 1007.6 0.181566 4.04293 0
M  V30 10120 H 1006.17 -0.324893 3.10907 0
M  V30 10121 H 1005.39 2.15331 3.30191 0
M  V30 10122 H 1006.68 2.37603 4.49914 0
M  V30 10123 H 1006.07 -0.599198 5.62518 0
M  V30 10124 H 1004.63 -0.307019 6.51077 0
M  V30 10125 N 1008.06 -1.15214 1.07534 0
M  V30 10126 C 1009.48 -1.67628 0.822045 0
M  V30 10127 C 1009.83 -1.8503 -0.652571 0
M  V30 10128 O 1008.95 -1.55497 -1.50498 0
M  V30 10129 C 1009.55 -3.04489 1.48566 0
M  V30 10130 C 1008.11 -3.53974 1.27983 0
M  V30 10131 C 1007.25 -2.29656 1.55414 0
M  V30 10132 H 1010.2 -0.994016 1.23713 0
M  V30 10133 H 1010.22 -3.69509 0.907916 0
M  V30 10134 H 1009.74 -2.91792 2.55888 0
M  V30 10135 H 1007.84 -3.71908 0.226906 0
M  V30 10136 H 1007.95 -4.35298 2.0013 0
M  V30 10137 H 1006.31 -2.35289 0.975251 0
M  V30 10138 H 1007.1 -2.19544 2.63923 0
M  V30 10139 N 1009.54 -0.859717 -1.32086 0
M  V30 10140 C 1010.51 -0.313005 -2.27053 0
M  V30 10141 C 1011.51 0.530191 -1.51808 0
M  V30 10142 O 1012.7 0.340972 -1.7083 0
M  V30 10143 C 1009.83 0.5566 -3.36325 0
M  V30 10144 H 1011.02 -1.15125 -2.76923 0
M  V30 10145 H 1008.57 -0.634463 -1.42843 0
M  V30 10146 H 1009.31 1.41645 -2.91731 0
M  V30 10147 H 1009.09 -0.0470197 -3.92072 0
M  V30 10148 H 1010.58 0.931725 -4.07073 0
M  V30 10149 N 1011.02 1.44971 -0.618145 0
M  V30 10150 C 1011.95 2.27748 0.143561 0
M  V30 10151 C 1012.93 1.37768 0.863642 0
M  V30 10152 O 1014.12 1.67203 0.870373 0
M  V30 10153 C 1011.24 3.16394 1.20883 0
M  V30 10154 C 1010.29 4.22389 0.590724 0
M  V30 10155 S 1011.12 5.32021 -0.609406 0
M  V30 10156 C 1012.28 6.24235 0.456199 0
M  V30 10157 H 1012.51 2.92003 -0.558699 0
M  V30 10158 H 1010.04 1.48968 -0.40595 0
M  V30 10159 H 1012 3.6802 1.81855 0
M  V30 10160 H 1010.66 2.51384 1.88322 0
M  V30 10161 H 1009.86 4.84379 1.3926 0
M  V30 10162 H 1009.46 3.73958 0.055917 0
M  V30 10163 H 1011.75 6.64269 1.33238 0
M  V30 10164 H 1012.69 7.07985 -0.127794 0
M  V30 10165 H 1013.1 5.59137 0.776269 0
M  V30 10166 N 1012.5 0.357919 1.53482 0
M  V30 10167 C 1013.72 -0.237769 2.06033 0
M  V30 10168 C 1014.15 -1.42292 1.23023 0
M  V30 10169 O 1013.51 -1.79604 0.247427 0
M  V30 10170 C 1013.55 -0.616806 3.55286 0
M  V30 10171 O 1012.66 -1.71503 3.75047 0
M  V30 10172 H 1012 -0.0364322 0.663 0
M  V30 10173 H 1014.53 0.516301 1.97979 0
M  V30 10174 H 1014.54 -0.88996 3.98175 0
M  V30 10175 H 1013.21 0.249825 4.15149 0
M  V30 10176 H 1011.79 -1.43803 3.44057 0
M  V30 10177 N 1013.98 -1.5736 0.0868897 0
M  V30 10178 C 1015.39 -1.81356 -0.443499 0
M  V30 10179 C 1015.74 -1.00192 -1.68689 0
M  V30 10180 O 1014.86 -0.228863 -2.15186 0
M  V30 10181 C 1015.46 -3.28941 -0.811387 0
M  V30 10182 C 1014.02 -3.53729 -1.28656 0
M  V30 10183 C 1013.16 -2.75891 -0.279153 0
M  V30 10184 H 1016.12 -1.55594 0.312427 0
M  V30 10185 H 1016.14 -3.41815 -1.6716 0
M  V30 10186 H 1015.65 -3.87987 0.0937598 0
M  V30 10187 H 1013.75 -3.00005 -2.2097 0
M  V30 10188 H 1013.86 -4.62396 -1.25406 0
M  V30 10189 H 1012.23 -2.4311 -0.759595 0
M  V30 10190 H 1013.01 -3.37682 0.618529 0
M  V30 10191 N 1015.45 0.186762 -1.56489 0
M  V30 10192 C 1016.36 1.25169 -1.98419 0
M  V30 10193 C 1017.38 1.49329 -0.893124 0
M  V30 10194 O 1018.56 1.61781 -1.19954 0
M  V30 10195 C 1015.62 2.57422 -2.32239 0
M  V30 10196 C 1014.68 2.4126 -3.55095 0
M  V30 10197 C 1013.92 3.67206 -3.87292 0
M  V30 10198 O 1014.14 4.71731 -3.20665 0
M  V30 10199 O 1013.07 3.62238 -4.80695 0
M  V30 10200 H 1016.9 0.925834 -2.89244 0
M  V30 10201 H 1014.48 0.392421 -1.44154 0
M  V30 10202 H 1016.37 3.35466 -2.5503 0
M  V30 10203 H 1015.04 2.89618 -1.44579 0
M  V30 10204 H 1013.95 1.61299 -3.37541 0
M  V30 10205 H 1015.28 2.13994 -4.43247 0
M  V30 10206 N 1016.93 1.50896 0.454776 0
M  V30 10207 C 1018.21 1.53227 1.21576 0
M  V30 10208 C 1018.59 0.286358 2.09149 0
M  V30 10209 O 1017.94 -0.729469 2.16543 0
M  V30 10210 C 1018.15 2.83693 2.03271 0
M  V30 10211 C 1019.5 3.34981 2.60908 0
M  V30 10212 O 1020.52 2.85126 2.13499 0
M  V30 10213 O 1019.38 4.21929 3.4733 0
M  V30 10214 H 1016.47 0.615306 0.552564 0
M  V30 10215 H 1019.02 1.63197 0.465266 0
M  V30 10216 H 1017.79 3.65839 1.38843 0
M  V30 10217 H 1017.41 2.76803 2.85422 0
M  V30 10218 N 1018.41 -0.709066 1.40748 0
M  V30 10219 C 1019.36 -1.82312 1.4153 0
M  V30 10220 C 1020.33 -1.63868 0.271392 0
M  V30 10221 O 1021.51 -1.8491 0.470431 0
M  V30 10222 C 1018.65 -3.2008 1.29006 0
M  V30 10223 C 1017.77 -3.50051 2.53156 0
M  V30 10224 C 1016.9 -4.7736 2.33025 0
M  V30 10225 C 1015.94 -5.00255 3.52719 0
M  V30 10226 N 1015.08 -6.18782 3.31743 0
M  V30 10227 H 1019.92 -1.80978 2.36751 0
M  V30 10228 H 1017.45 -0.883975 1.17577 0
M  V30 10229 H 1019.41 -3.99645 1.19749 0
M  V30 10230 H 1018.04 -3.20626 0.374014 0
M  V30 10231 H 1017.09 -2.64993 2.72916 0
M  V30 10232 H 1018.41 -3.62877 3.42231 0
M  V30 10233 H 1017.56 -5.64954 2.21159 0
M  V30 10234 H 1016.3 -4.66756 1.41386 0
M  V30 10235 H 1015.3 -4.11114 3.65055 0
M  V30 10236 H 1016.53 -5.12728 4.45295 0
M  V30 10237 H 1014.47 -6.09416 2.42791 0
M  V30 10238 H 1014.39 -6.32313 4.14386 0
M  V30 10239 H 1015.66 -7.09146 3.23623 0
M  V30 10240 N 1019.89 -1.26353 -0.941956 0
M  V30 10241 C 1021.11 -1.14731 -1.72776 0
M  V30 10242 C 1021.54 0.293766 -1.85792 0
M  V30 10243 O 1020.9 1.21284 -1.34759 0
M  V30 10244 C 1020.95 -1.82041 -3.11277 0
M  V30 10245 O 1020.05 -1.10867 -3.97218 0
M  V30 10246 H 1019.39 -0.399823 -0.53013 0
M  V30 10247 H 1021.92 -1.67157 -1.17981 0
M  V30 10248 H 1021.93 -1.88834 -3.61671 0
M  V30 10249 H 1020.61 -2.86879 -3.0112 0
M  V30 10250 H 1019.18 -1.12044 -3.55669 0
M  V30 10251 N 1021.37 1.14642 -1.08144 0
M  V30 10252 C 1022.78 1.6719 -0.830923 0
M  V30 10253 C 1023.13 1.85373 0.642749 0
M  V30 10254 O 1022.25 1.56293 1.49671 0
M  V30 10255 C 1022.85 3.03697 -1.50179 0
M  V30 10256 C 1021.41 3.5329 -1.29858 0
M  V30 10257 C 1020.56 2.28828 -1.5663 0
M  V30 10258 H 1023.51 0.987441 -1.24239 0
M  V30 10259 H 1023.53 3.69023 -0.9275 0
M  V30 10260 H 1023.04 2.90431 -2.57432 0
M  V30 10261 H 1021.14 3.71783 -0.246626 0
M  V30 10262 H 1021.25 4.34231 -2.02436 0
M  V30 10263 H 1019.62 2.34769 -0.987716 0
M  V30 10264 H 1020.4 2.18141 -2.65084 0
M  V30 10265 N 1022.85 0.866709 1.31628 0
M  V30 10266 C 1024.09 0.472185 1.96095 0
M  V30 10267 C 1024.41 -0.979873 1.69286 0
M  V30 10268 O 1025.61 -1.48039 2.27589 0
M  V30 10269 C 1024.07 0.793468 3.51044 0
M  V30 10270 C 1023.68 2.26206 3.86697 0
M  V30 10271 C 1025.42 0.467255 4.21921 0
M  V30 10272 C 1023.33 2.52593 5.34743 0
M  V30 10273 H 1022.26 0.172846 0.733921 0
M  V30 10274 H 1024.91 1.05916 1.49847 0
M  V30 10275 H 1023.29 0.135783 3.95767 0
M  V30 10276 H 1024.47 2.96254 3.52945 0
M  V30 10277 H 1022.78 2.55399 3.28877 0
M  V30 10278 H 1025.38 0.641669 5.30836 0
M  V30 10279 H 1025.72 -0.592065 4.12068 0
M  V30 10280 H 1026.25 1.08134 3.82821 0
M  V30 10281 H 1022.99 3.57196 5.49628 0
M  V30 10282 H 1022.51 1.87136 5.6986 0
M  V30 10283 H 1024.19 2.37156 6.01968 0
M  V30 10284 N 1024.32 -1.44642 0.625825 0
M  V30 10285 C 1025.55 -2.06458 0.135116 0
M  V30 10286 C 1025.97 -1.46729 -1.18811 0
M  V30 10287 O 1025.32 -0.58818 -1.72762 0
M  V30 10288 C 1025.37 -3.61499 0.00850114 0
M  V30 10289 O 1025.1 -4.19002 1.2794 0
M  V30 10290 C 1026.6 -4.40339 -0.511527 0
M  V30 10291 H 1023.82 -0.666541 0.0772294 0
M  V30 10292 H 1026.36 -1.85597 0.858726 0
M  V30 10293 H 1024.52 -3.81641 -0.665522 0
M  V30 10294 H 1024.93 -5.12385 1.12081 0
M  V30 10295 H 1026.4 -5.49262 -0.549149 0
M  V30 10296 H 1026.88 -4.11409 -1.53752 0
M  V30 10297 H 1027.49 -4.25104 0.129066 0
M  V30 10298 N 1025.8 -0.366053 -1.5329 0
M  V30 10299 C 1027.21 0.113056 -1.86357 0
M  V30 10300 C 1027.56 1.48123 -1.28662 0
M  V30 10301 O 1026.69 2.07658 -0.608849 0
M  V30 10302 C 1027.28 0.211923 -3.38137 0
M  V30 10303 C 1025.84 0.635289 -3.71 0
M  V30 10304 C 1024.99 -0.217203 -2.76448 0
M  V30 10305 H 1027.94 -0.584829 -1.47531 0
M  V30 10306 H 1027.96 1.0354 -3.66142 0
M  V30 10307 H 1027.47 -0.783994 -3.80099 0
M  V30 10308 H 1025.57 1.63942 -3.34595 0
M  V30 10309 H 1025.69 0.409571 -4.77346 0
M  V30 10310 H 1024.05 0.313988 -2.52757 0
M  V30 10311 H 1024.83 -1.21067 -3.21244 0
M  V30 10312 N 1027.28 1.57312 -0.0952337 0
M  V30 10313 C 1028.53 1.93974 0.567319 0
M  V30 10314 C 1028.85 0.977805 1.68713 0
M  V30 10315 O 1028.12 0.0298944 1.95877 0
M  V30 10316 H 1026.7 0.71612 0.212558 0
M  V30 10317 H 1029.36 1.94254 -0.158598 0
M  V30 10318 H 1028.46 2.964 0.977423 0
M  V30 10319 N 1028.76 -0.17846 1.56586 0
M  V30 10320 C 1029.98 -0.916061 1.86073 0
M  V30 10321 C 1030.41 -1.75349 0.680754 0
M  V30 10322 O 1029.77 -1.77479 -0.37028 0
M  V30 10323 C 1029.81 -1.77445 3.1392 0
M  V30 10324 O 1028.92 -2.87524 2.95641 0
M  V30 10325 H 1028.26 -0.257031 0.612234 0
M  V30 10326 H 1030.79 -0.178755 2.03818 0
M  V30 10327 H 1030.8 -2.1758 3.45142 0
M  V30 10328 H 1029.47 -1.15927 3.99417 0
M  V30 10329 H 1028.05 -2.51023 2.75757 0
M  V30 10330 N 1030.24 -1.51135 -0.446768 0
M  V30 10331 C 1031.65 -1.39101 -0.782504 0
M  V30 10332 C 1031.85 -0.46599 -1.96038 0
M  V30 10333 O 1030.91 0.0823679 -2.52366 0
M  V30 10334 C 1032.22 -2.80953 -1.07173 0
M  V30 10335 C 1033.77 -2.90038 -1.17673 0
M  V30 10336 C 1034.24 -4.32777 -1.49894 0
M  V30 10337 N 1035.73 -4.3584 -1.56837 0
M  V30 10338 C 1036.47 -5.43305 -1.83322 0
M  V30 10339 N 1035.97 -6.60945 -2.07662 0
M  V30 10340 N 1037.76 -5.30775 -1.85026 0
M  V30 10341 H 1029.91 -2.09835 0.329114 0
M  V30 10342 H 1032.17 -0.944199 0.0848054 0
M  V30 10343 H 1031.88 -3.50591 -0.279037 0
M  V30 10344 H 1031.75 -3.197 -2.00179 0
M  V30 10345 H 1034.14 -2.20603 -1.96005 0
M  V30 10346 H 1034.22 -2.54801 -0.225892 0
M  V30 10347 H 1033.86 -5.02757 -0.720924 0
M  V30 10348 H 1033.79 -4.6552 -2.46168 0
M  V30 10349 H 1036.29 -3.51023 -1.39968 0
M  V30 10350 H 1036.6 -7.38643 -2.27214 0
M  V30 10351 H 1034.94 -6.64077 -2.05003 0
M  V30 10352 H 1038.13 -4.37858 -1.65523 0
M  V30 10353 H 1038.31 -6.14609 -2.05329 0
M  V30 10354 N 1031.71 0.701592 -1.41122 0
M  V30 10355 C 1032.96 1.45871 -1.39879 0
M  V30 10356 C 1033.28 1.94999 -0.00668769 0
M  V30 10357 O 1032.55 1.71298 0.95047 0
M  V30 10358 H 1031.13 0.541231 -0.514857 0
M  V30 10359 H 1033.79 0.830803 -1.76306 0
M  V30 10360 H 1032.89 2.32479 -2.0823 0
M  V30 10361 N 1033.19 1.2685 0.935242 0
M  V30 10362 C 1034.61 1.04091 1.20984 0
M  V30 10363 C 1034.81 -0.230242 2.0018 0
M  V30 10364 O 1033.86 -0.93778 2.3444 0
M  V30 10365 C 1035.18 2.27586 1.96533 0
M  V30 10366 C 1036.72 2.32547 2.09501 0
M  V30 10367 C 1037.2 3.55751 2.88454 0
M  V30 10368 N 1038.69 3.56263 2.96025 0
M  V30 10369 C 1039.43 4.48262 3.57559 0
M  V30 10370 N 1038.92 5.50557 4.20546 0
M  V30 10371 N 1040.71 4.35901 3.5489 0
M  V30 10372 H 1032.87 2.08484 0.405954 0
M  V30 10373 H 1035.13 0.916548 0.242164 0
M  V30 10374 H 1034.83 3.20076 1.45753 0
M  V30 10375 H 1034.71 2.32305 2.97177 0
M  V30 10376 H 1037.1 1.40568 2.5947 0
M  V30 10377 H 1037.18 2.31836 1.08101 0
M  V30 10378 H 1036.82 4.48063 2.3917 0
M  V30 10379 H 1036.75 3.53711 3.90123 0
M  V30 10380 H 1039.24 2.82278 2.51252 0
M  V30 10381 H 1039.55 6.16935 4.65415 0
M  V30 10382 H 1037.9 5.54407 4.19115 0
M  V30 10383 H 1041.09 3.552 3.04879 0
M  V30 10384 H 1041.26 5.07792 4.02557 0
M  V30 10385 N 1034.67 -1.14067 1.0875 0
M  V30 10386 C 1035.9 -1.88767 0.839682 0
M  V30 10387 C 1036.31 -1.79024 -0.612119 0
M  V30 10388 O 1035.65 -1.14986 -1.43262 0
M  V30 10389 C 1035.71 -3.39333 1.18716 0
M  V30 10390 C 1035.38 -3.72858 2.64245 0
M  V30 10391 C 1036.37 -3.72683 3.62496 0
M  V30 10392 C 1034.06 -4.0273 3.0019 0
M  V30 10393 C 1036.05 -4.01909 4.9472 0
M  V30 10394 C 1033.74 -4.31618 4.32607 0
M  V30 10395 C 1034.74 -4.31192 5.29682 0
M  V30 10396 O 1034.43 -4.59377 6.59718 0
M  V30 10397 H 1034.16 -0.604665 0.302253 0
M  V30 10398 H 1036.71 -1.45364 1.45115 0
M  V30 10399 H 1034.94 -3.83205 0.518707 0
M  V30 10400 H 1036.63 -3.95346 0.919599 0
M  V30 10401 H 1037.4 -3.49688 3.3607 0
M  V30 10402 H 1033.28 -4.02213 2.25268 0
M  V30 10403 H 1036.82 -4.01491 5.70483 0
M  V30 10404 H 1032.72 -4.54083 4.58779 0
M  V30 10405 H 1033.49 -4.77078 6.65086 0
M  V30 10406 N 1036.15 -0.873678 -1.31166 0
M  V30 10407 C 1037.37 -0.500242 -2.01277 0
M  V30 10408 C 1037.8 0.900811 -1.65127 0
M  V30 10409 O 1037.16 1.59504 -0.861862 0
M  V30 10410 C 1037.2 -0.668976 -3.5434 0
M  V30 10411 O 1036.31 0.290096 -4.11378 0
M  V30 10412 H 1035.65 -0.198507 -0.633633 0
M  V30 10413 H 1038.18 -1.17811 -1.67277 0
M  V30 10414 H 1038.19 -0.563673 -4.04088 0
M  V30 10415 H 1036.86 -1.69055 -3.79991 0
M  V30 10416 H 1035.44 0.139437 -3.72639 0
M  V30 10417 N 1037.63 1.44308 -0.633487 0
M  V30 10418 C 1039.04 1.56768 -0.29931 0
M  V30 10419 C 1039.24 1.62061 1.19743 0
M  V30 10420 O 1038.3 1.56492 1.98158 0
M  V30 10421 C 1039.61 2.8382 -0.993307 0
M  V30 10422 C 1041.16 2.97536 -0.971674 0
M  V30 10423 C 1041.63 4.27393 -1.64618 0
M  V30 10424 N 1043.13 4.34212 -1.61288 0
M  V30 10425 C 1043.86 5.33415 -2.1037 0
M  V30 10426 N 1043.36 6.3901 -2.67653 0
M  V30 10427 N 1045.15 5.24939 -2.00985 0
M  V30 10428 H 1037.3 1.39115 -1.60501 0
M  V30 10429 H 1039.56 0.666804 -0.673852 0
M  V30 10430 H 1039.27 2.85902 -2.04823 0
M  V30 10431 H 1039.14 3.73422 -0.532537 0
M  V30 10432 H 1041.53 2.95005 0.0747854 0
M  V30 10433 H 1041.61 2.09276 -1.47096 0
M  V30 10434 H 1041.26 4.30683 -2.6921 0
M  V30 10435 H 1041.19 5.14515 -1.12171 0
M  V30 10436 H 1043.68 3.58519 -1.19468 0
M  V30 10437 H 1043.99 7.10994 -3.02831 0
M  V30 10438 H 1042.33 6.39689 -2.71705 0
M  V30 10439 H 1045.53 4.41357 -1.55953 0
M  V30 10440 H 1045.7 6.02097 -2.39547 0
M  V30 10441 N 1039.1 0.374177 1.53094 0
M  V30 10442 C 1040.38 -0.269632 1.93733 0
M  V30 10443 C 1040.76 -1.6566 1.30843 0
M  V30 10444 O 1040.11 -2.23598 0.470759 0
M  V30 10445 C 1040.32 -0.311204 3.4761 0
M  V30 10446 C 1041.67 -0.547432 4.21056 0
M  V30 10447 O 1042.69 -0.392053 3.54036 0
M  V30 10448 O 1041.55 -0.850645 5.39839 0
M  V30 10449 H 1038.64 -0.163723 0.810632 0
M  V30 10450 H 1041.19 0.427586 1.64225 0
M  V30 10451 H 1039.96 0.660897 3.85678 0
M  V30 10452 H 1039.59 -1.05397 3.83376 0
M  V30 10453 N 1040.58 -1.57259 0.103575 0
M  V30 10454 C 1042 -1.57581 -0.253062 0
M  V30 10455 C 1042.2 -1.11531 -1.67819 0
M  V30 10456 O 1041.25 -0.795632 -2.39637 0
M  V30 10457 C 1042.57 -3.00681 -0.0337753 0
M  V30 10458 C 1044.12 -3.12837 -0.10087 0
M  V30 10459 C 1044.59 -4.57911 0.0905295 0
M  V30 10460 N 1046.08 -4.63186 0.0359789 0
M  V30 10461 C 1046.82 -5.73179 0.159199 0
M  V30 10462 N 1046.31 -6.91976 0.337728 0
M  V30 10463 N 1048.11 -5.62011 0.0998662 0
M  V30 10464 H 1040.26 -1.85499 1.0346 0
M  V30 10465 H 1042.52 -0.856584 0.406163 0
M  V30 10466 H 1042.23 -3.38602 0.950858 0
M  V30 10467 H 1042.1 -3.69207 -0.772406 0
M  V30 10468 H 1044.49 -2.74783 -1.07601 0
M  V30 10469 H 1044.57 -2.46886 0.66939 0
M  V30 10470 H 1044.21 -4.9666 1.06258 0
M  V30 10471 H 1044.14 -5.21933 -0.699528 0
M  V30 10472 H 1046.63 -3.7777 -0.099121 0
M  V30 10473 H 1046.95 -7.71641 0.423032 0
M  V30 10474 H 1045.29 -6.93996 0.373504 0
M  V30 10475 H 1048.48 -4.68084 -0.0385356 0
M  V30 10476 H 1048.65 -6.47693 0.199342 0
M  V30 10477 N 1042.06 0.170153 -1.56679 0
M  V30 10478 C 1043.02 1.19443 -1.95617 0
M  V30 10479 C 1044.02 1.37118 -0.83996 0
M  V30 10480 O 1045.21 1.34504 -1.10699 0
M  V30 10481 C 1042.35 2.55926 -2.25199 0
M  V30 10482 H 1043.54 0.86095 -2.87276 0
M  V30 10483 H 1041.09 0.412646 -1.50755 0
M  V30 10484 H 1041.83 2.94286 -1.36257 0
M  V30 10485 H 1041.61 2.44464 -3.06562 0
M  V30 10486 H 1043.1 3.29742 -2.56242 0
M  V30 10487 N 1043.54 1.5137 0.438746 0
M  V30 10488 C 1044.78 1.65627 1.19779 0
M  V30 10489 C 1045.14 0.363885 1.8852 0
M  V30 10490 O 1046.34 0.382215 2.66069 0
M  V30 10491 C 1044.61 2.82536 2.18879 0
M  V30 10492 S 1046.17 3.17113 3.0329 0
M  V30 10493 H 1042.99 0.583535 0.406212 0
M  V30 10494 H 1045.59 1.89271 0.489582 0
M  V30 10495 H 1044.3 3.74879 1.67015 0
M  V30 10496 H 1043.83 2.61077 2.94283 0
M  V30 10497 H 1045.84 2.63439 4.20493 0
M  V30 10498 N 1045.02 -0.694098 1.41492 0
M  V30 10499 C 1046.26 -1.45415 1.40929 0
M  V30 10500 C 1046.59 -1.94491 0.0189301 0
M  V30 10501 O 1045.85 -1.7 -0.96945 0
M  V30 10502 C 1046.15 -2.6805 2.36398 0
M  V30 10503 C 1045.81 -2.37623 3.83205 0
M  V30 10504 C 1044.47 -2.29035 4.23198 0
M  V30 10505 C 1046.83 -2.12555 4.75888 0
M  V30 10506 C 1044.15 -1.93478 5.5388 0
M  V30 10507 C 1046.51 -1.78506 6.06892 0
M  V30 10508 C 1045.17 -1.68415 6.45905 0
M  V30 10509 H 1044.44 -0.53211 0.515694 0
M  V30 10510 H 1047.09 -0.793193 1.74301 0
M  V30 10511 H 1045.39 -3.39086 1.96285 0
M  V30 10512 H 1047.09 -3.26194 2.33234 0
M  V30 10513 H 1043.68 -2.45202 3.51531 0
M  V30 10514 H 1047.86 -2.18133 4.45793 0
M  V30 10515 H 1043.12 -1.84219 5.82986 0
M  V30 10516 H 1047.29 -1.58128 6.7821 0
M  V30 10517 H 1044.92 -1.40631 7.47079 0
M  V30 10518 N 1046.49 -1.27344 -0.928501 0
M  V30 10519 C 1047.42 -1.12517 -2.04602 0
M  V30 10520 C 1048.41 -0.0268563 -1.70079 0
M  V30 10521 O 1049.59 -0.201197 -1.93155 0
M  V30 10522 C 1046.72 -0.770749 -3.3864 0
M  V30 10523 C 1045.67 -1.8222 -3.87272 0
M  V30 10524 C 1045 -1.32178 -5.18105 0
M  V30 10525 C 1046.3 -3.22614 -4.10752 0
M  V30 10526 H 1047.99 -2.06 -2.17265 0
M  V30 10527 H 1045.54 -0.991827 -1.04397 0
M  V30 10528 H 1047.49 -0.653843 -4.16297 0
M  V30 10529 H 1046.22 0.19979 -3.25988 0
M  V30 10530 H 1044.88 -1.928 -3.11807 0
M  V30 10531 H 1044.52 -0.340719 -5.01845 0
M  V30 10532 H 1044.22 -2.02474 -5.51614 0
M  V30 10533 H 1045.75 -1.2178 -5.98333 0
M  V30 10534 H 1047.16 -3.1504 -4.78981 0
M  V30 10535 H 1045.56 -3.90614 -4.55566 0
M  V30 10536 H 1046.63 -3.67727 -3.16077 0
M  V30 10537 N 1047.97 1.13488 -1.09353 0
M  V30 10538 C 1048.9 2.20988 -0.75409 0
M  V30 10539 C 1049.88 1.67977 0.267901 0
M  V30 10540 O 1051.07 1.93722 0.136128 0
M  V30 10541 C 1048.2 3.46869 -0.173042 0
M  V30 10542 C 1047.15 4.12965 -1.12446 0
M  V30 10543 C 1046.48 5.33163 -0.405157 0
M  V30 10544 C 1047.78 4.60388 -2.46658 0
M  V30 10545 H 1049.47 2.49639 -1.6529 0
M  V30 10546 H 1047.02 1.19987 -0.796182 0
M  V30 10547 H 1048.97 4.21331 0.0764988 0
M  V30 10548 H 1047.7 3.17611 0.760956 0
M  V30 10549 H 1046.35 3.40469 -1.35927 0
M  V30 10550 H 1046 5.00169 0.532955 0
M  V30 10551 H 1045.7 5.78332 -1.03952 0
M  V30 10552 H 1047.23 6.1038 -0.163899 0
M  V30 10553 H 1048.64 5.26276 -2.27389 0
M  V30 10554 H 1047.04 5.16294 -3.05876 0
M  V30 10555 H 1048.11 3.74949 -3.07476 0
M  V30 10556 N 1049.45 0.880621 1.30701 0
M  V30 10557 C 1050.68 0.511682 2.00473 0
M  V30 10558 C 1051.09 -0.898684 1.6604 0
M  V30 10559 O 1050.45 -1.59035 0.895218 0
M  V30 10560 C 1050.5 0.671723 3.55204 0
M  V30 10561 O 1050.22 2.02656 3.8841 0
M  V30 10562 C 1051.72 0.3052 4.42248 0
M  V30 10563 H 1048.94 0.198231 0.64105 0
M  V30 10564 H 1051.49 1.18472 1.66687 0
M  V30 10565 H 1049.64 0.0461066 3.87373 0
M  V30 10566 H 1050.06 2.04202 4.83117 0
M  V30 10567 H 1051.53 0.468095 5.50012 0
M  V30 10568 H 1052.01 -0.756456 4.32637 0
M  V30 10569 H 1052.61 0.906959 4.15517 0
M  V30 10570 N 1050.93 -1.4397 0.641131 0
M  V30 10571 C 1052.21 -1.95436 0.0800918 0
M  V30 10572 C 1052.59 -1.58282 -1.39678 0
M  V30 10573 O 1051.93 -0.861867 -2.11623 0
M  V30 10574 C 1052.14 -3.47589 0.313531 0
M  V30 10575 C 1053.49 -4.2407 0.212034 0
M  V30 10576 O 1054.52 -3.55353 0.245434 0
M  V30 10577 O 1053.38 -5.46356 0.125455 0
M  V30 10578 H 1050.47 -0.826834 -0.0165735 0
M  V30 10579 H 1053.02 -1.5397 0.71353 0
M  V30 10580 H 1051.79 -3.67716 1.33793 0
M  V30 10581 H 1051.41 -3.96025 -0.353563 0
M  V30 10582 N 1052.41 -0.382291 -1.52893 0
M  V30 10583 C 1053.64 0.202114 -2.05609 0
M  V30 10584 C 1054.05 1.4164 -1.25438 0
M  V30 10585 O 1053.39 1.81359 -0.292324 0
M  V30 10586 C 1053.45 0.64356 -3.53693 0
M  V30 10587 C 1053.11 -0.456305 -4.54716 0
M  V30 10588 C 1054.11 -1.3115 -5.03086 0
M  V30 10589 C 1051.8 -0.621329 -4.98442 0
M  V30 10590 C 1053.79 -2.3169 -5.938 0
M  V30 10591 C 1051.48 -1.63008 -5.88958 0
M  V30 10592 C 1052.48 -2.47629 -6.36529 0
M  V30 10593 O 1052.16 -3.46781 -7.25257 0
M  V30 10594 H 1051.9 0.0358014 -0.675051 0
M  V30 10595 H 1054.45 -0.543935 -1.98067 0
M  V30 10596 H 1052.68 1.44148 -3.58829 0
M  V30 10597 H 1054.37 1.15284 -3.89184 0
M  V30 10598 H 1055.13 -1.19528 -4.70041 0
M  V30 10599 H 1051.01 0.027593 -4.60992 0
M  V30 10600 H 1054.56 -2.97776 -6.30853 0
M  V30 10601 H 1050.45 -1.74671 -6.21418 0
M  V30 10602 H 1051.22 -3.42707 -7.433 0
M  V30 10603 N 1053.89 1.57202 -0.111913 0
M  V30 10604 C 1054.85 2.13778 0.826534 0
M  V30 10605 C 1055.85 1.07097 1.19945 0
M  V30 10606 O 1057.04 1.32906 1.12613 0
M  V30 10607 C 1054.17 2.6722 2.11675 0
M  V30 10608 H 1055.36 2.98023 0.334975 0
M  V30 10609 H 1052.92 1.55696 0.137256 0
M  V30 10610 H 1053.65 1.86542 2.65278 0
M  V30 10611 H 1053.44 3.45235 1.8589 0
M  V30 10612 H 1054.93 3.10926 2.78774 0
M  V30 10613 N 1055.36 -0.161842 1.56767 0
M  V30 10614 C 1056.77 -0.723385 1.72116 0
M  V30 10615 C 1057.13 -1.82355 0.723961 0
M  V30 10616 O 1056.25 -2.16107 -0.112643 0
M  V30 10617 C 1056.85 -1.31895 3.12072 0
M  V30 10618 C 1055.4 -1.82722 3.29074 0
M  V30 10619 C 1054.55 -0.709863 2.6806 0
M  V30 10620 H 1057.5 0.0636647 1.58572 0
M  V30 10621 H 1057.52 -2.18871 3.11249 0
M  V30 10622 H 1057.04 -0.51801 3.84627 0
M  V30 10623 H 1055.14 -2.6543 2.61491 0
M  V30 10624 H 1055.25 -1.96614 4.36898 0
M  V30 10625 H 1053.61 -1.13273 2.28126 0
M  V30 10626 H 1054.4 0.0793884 3.43208 0
M  V30 10627 N 1056.84 -1.516 -0.430713 0
M  V30 10628 C 1058.07 -1.687 -1.20644 0
M  V30 10629 C 1058.49 -0.386555 -1.84085 0
M  V30 10630 O 1057.85 0.653952 -1.69095 0
M  V30 10631 C 1057.9 -2.80887 -2.2613 0
M  V30 10632 O 1057 -2.44952 -3.31772 0
M  V30 10633 H 1056.34 -0.562289 -0.353167 0
M  V30 10634 H 1058.87 -1.98198 -0.507807 0
M  V30 10635 H 1058.88 -3.05167 -2.70809 0
M  V30 10636 H 1057.56 -3.75249 -1.79334 0
M  V30 10637 H 1056.13 -2.31267 -2.92523 0
M  V30 10638 N 1058.32 0.686584 -1.41858 0
M  V30 10639 C 1059.73 1.26682 -1.37145 0
M  V30 10640 C 1060.08 1.96112 -0.058922 0
M  V30 10641 O 1059.21 1.99321 0.842629 0
M  V30 10642 C 1059.8 2.30383 -2.48413 0
M  V30 10643 C 1058.36 2.83961 -2.47069 0
M  V30 10644 C 1057.51 1.58119 -2.27802 0
M  V30 10645 H 1060.46 0.480742 -1.51243 0
M  V30 10646 H 1060.48 3.11868 -2.17987 0
M  V30 10647 H 1059.99 1.79822 -3.43927 0
M  V30 10648 H 1058.09 3.38675 -1.55338 0
M  V30 10649 H 1058.21 3.3378 -3.43697 0
M  V30 10650 H 1056.57 1.84258 -1.75844 0
M  V30 10651 H 1057.35 1.09541 -3.25355 0
M  V30 10652 N 1059.8 1.27835 0.921735 0
M  V30 10653 C 1061.07 1.05238 1.64877 0
M  V30 10654 C 1061.45 -0.410921 2.07062 0
M  V30 10655 O 1060.8 -1.39538 1.80946 0
M  V30 10656 C 1061.01 2.01955 2.84632 0
M  V30 10657 C 1062.36 2.31657 3.55837 0
M  V30 10658 O 1063.38 1.99975 2.94768 0
M  V30 10659 O 1062.24 2.85692 4.65878 0
M  V30 10660 H 1059.34 0.401622 0.72293 0
M  V30 10661 H 1061.88 1.39123 0.971744 0
M  V30 10662 H 1060.66 3.00614 2.50494 0
M  V30 10663 H 1060.28 1.68667 3.60052 0
M  V30 10664 N 1061.28 -1.12907 1.09954 0
M  V30 10665 C 1062.52 -1.83941 0.837255 0
M  V30 10666 C 1062.84 -1.84234 -0.638984 0
M  V30 10667 O 1062.11 -1.30193 -1.46378 0
M  V30 10668 H 1060.69 -0.681115 0.306743 0
M  V30 10669 H 1063.36 -1.36743 1.38879 0
M  V30 10670 H 1062.45 -2.88289 1.19565 0
M  V30 10671 N 1062.75 -0.88754 -1.30232 0
M  V30 10672 C 1063.98 -0.521562 -2.00735 0
M  V30 10673 C 1064.4 0.883247 -1.66073 0
M  V30 10674 O 1063.76 1.58581 -0.878731 0
M  V30 10675 C 1063.81 -0.706521 -3.53611 0
M  V30 10676 O 1062.91 0.246447 -4.11663 0
M  V30 10677 H 1062.25 -0.205216 -0.631492 0
M  V30 10678 H 1064.78 -1.19579 -1.66018 0
M  V30 10679 H 1064.79 -0.606501 -4.03467 0
M  V30 10680 H 1063.47 -1.73076 -3.78177 0
M  V30 10681 H 1062.05 0.0999062 -3.72766 0
M  V30 10682 N 1064.23 1.43628 -0.648757 0
M  V30 10683 C 1065.48 2.01083 -0.157692 0
M  V30 10684 C 1065.79 1.51756 1.23408 0
M  V30 10685 O 1067 2.01455 1.82012 0
M  V30 10686 C 1065.46 3.59157 -0.231118 0
M  V30 10687 C 1065.06 4.17478 -1.6253 0
M  V30 10688 C 1066.81 4.24016 0.202573 0
M  V30 10689 C 1064.72 5.67832 -1.6529 0
M  V30 10690 H 1063.65 0.751977 -0.0551897 0
M  V30 10691 H 1066.3 1.64648 -0.810139 0
M  V30 10692 H 1064.68 3.92972 0.488755 0
M  V30 10693 H 1065.85 3.9517 -2.37017 0
M  V30 10694 H 1064.17 3.64973 -2.00459 0
M  V30 10695 H 1066.76 5.34319 0.20174 0
M  V30 10696 H 1067.11 3.97616 1.23319 0
M  V30 10697 H 1067.64 3.95068 -0.465398 0
M  V30 10698 H 1064.38 5.98994 -2.66246 0
M  V30 10699 H 1063.9 5.92209 -0.951217 0
M  V30 10700 H 1065.58 6.3179 -1.39465 0
M  V30 10701 N 1065.71 0.390394 1.52688 0
M  V30 10702 C 1067.13 0.0404028 1.59549 0
M  V30 10703 C 1067.33 -1.44503 1.40432 0
M  V30 10704 O 1066.38 -2.20968 1.22187 0
M  V30 10705 C 1067.7 0.518561 2.96195 0
M  V30 10706 C 1069.24 0.474913 3.09376 0
M  V30 10707 C 1069.72 0.929278 4.48473 0
M  V30 10708 N 1071.21 0.885335 4.5466 0
M  V30 10709 C 1071.94 1.2083 5.60524 0
M  V30 10710 N 1071.44 1.6018 6.74028 0
M  V30 10711 N 1073.23 1.12949 5.50635 0
M  V30 10712 H 1065.38 1.35743 1.63363 0
M  V30 10713 H 1067.65 0.556453 0.767505 0
M  V30 10714 H 1067.35 1.55606 3.15404 0
M  V30 10715 H 1067.23 -0.081779 3.77111 0
M  V30 10716 H 1069.61 -0.553503 2.89863 0
M  V30 10717 H 1069.7 1.11107 2.3041 0
M  V30 10718 H 1069.34 1.95593 4.68728 0
M  V30 10719 H 1069.27 0.270121 5.25907 0
M  V30 10720 H 1071.76 0.595787 3.73174 0
M  V30 10721 H 1072.07 1.83184 7.50775 0
M  V30 10722 H 1070.42 1.64067 6.75357 0
M  V30 10723 H 1073.61 0.821074 4.60843 0
M  V30 10724 H 1073.78 1.3845 6.33037 0
M  V30 10725 N 1067.19 -1.57141 0.120249 0
M  V30 10726 C 1068.14 -2.15379 -0.829497 0
M  V30 10727 C 1069.11 -1.07913 -1.2627 0
M  V30 10728 O 1070.29 -1.35827 -1.33999 0
M  V30 10729 C 1067.43 -2.75847 -2.0737 0
M  V30 10730 C 1066.54 -3.97624 -1.68875 0
M  V30 10731 C 1065.68 -4.46175 -2.88272 0
M  V30 10732 C 1064.72 -5.60481 -2.46023 0
M  V30 10733 N 1063.85 -6.0377 -3.58337 0
M  V30 10734 H 1068.69 -2.96211 -0.326031 0
M  V30 10735 H 1066.23 -1.46341 -0.149235 0
M  V30 10736 H 1068.19 -3.09037 -2.80272 0
M  V30 10737 H 1066.82 -1.97703 -2.55174 0
M  V30 10738 H 1065.87 -3.70588 -0.858431 0
M  V30 10739 H 1067.18 -4.80512 -1.33827 0
M  V30 10740 H 1066.34 -4.8128 -3.69397 0
M  V30 10741 H 1065.08 -3.6224 -3.26548 0
M  V30 10742 H 1064.08 -5.24979 -1.63331 0
M  V30 10743 H 1065.31 -6.46184 -2.08863 0
M  V30 10744 H 1063.25 -5.22776 -3.96284 0
M  V30 10745 H 1063.17 -6.81517 -3.27217 0
M  V30 10746 H 1064.44 -6.43514 -4.39898 0
M  V30 10747 N 1068.67 0.153526 -1.5685 0
M  V30 10748 C 1069.63 1.17362 -1.96873 0
M  V30 10749 C 1070.63 1.36219 -0.854456 0
M  V30 10750 O 1071.82 1.33322 -1.1212 0
M  V30 10751 C 1068.95 2.53523 -2.27901 0
M  V30 10752 H 1070.14 0.830432 -2.88173 0
M  V30 10753 H 1067.7 0.396633 -1.51184 0
M  V30 10754 H 1068.43 2.92824 -1.39371 0
M  V30 10755 H 1068.22 2.41198 -3.09137 0
M  V30 10756 H 1069.71 3.27006 -2.59725 0
M  V30 10757 N 1070.14 1.51827 0.422667 0
M  V30 10758 C 1071.37 1.69049 1.1929 0
M  V30 10759 C 1071.79 0.394095 1.84641 0
M  V30 10760 O 1071.14 -0.628731 1.71328 0
M  V30 10761 C 1071.2 2.81657 2.26609 0
M  V30 10762 O 1070.92 4.06275 1.63929 0
M  V30 10763 C 1072.42 3.10274 3.16615 0
M  V30 10764 H 1069.64 0.566894 0.358988 0
M  V30 10765 H 1072.18 1.98318 0.499029 0
M  V30 10766 H 1070.34 2.54945 2.91688 0
M  V30 10767 H 1070.75 4.68924 2.3497 0
M  V30 10768 H 1072.22 3.92613 3.88019 0
M  V30 10769 H 1072.7 2.23273 3.78214 0
M  V30 10770 H 1073.31 3.387 2.57221 0
M  V30 10771 N 1071.62 -0.679052 1.4222 0
M  V30 10772 C 1072.87 -1.43627 1.42182 0
M  V30 10773 C 1073.19 -1.94964 0.0377095 0
M  V30 10774 O 1072.46 -1.72788 -0.923098 0
M  V30 10775 H 1071.04 -0.532972 0.523402 0
M  V30 10776 H 1073.7 -0.802649 1.77605 0
M  V30 10777 H 1072.8 -2.29137 2.11902 0
M  V30 10778 N 1073.1 -1.28322 -0.914942 0
M  V30 10779 C 1074.06 -1.12169 -1.99877 0
M  V30 10780 C 1075.06 -0.0617252 -1.60681 0
M  V30 10781 O 1076.25 -0.307405 -1.71466 0
M  V30 10782 C 1073.39 -0.711959 -3.33383 0
M  V30 10783 H 1074.58 -2.08425 -2.15636 0
M  V30 10784 H 1072.13 -1.11291 -1.09745 0
M  V30 10785 H 1072.87 0.251418 -3.23324 0
M  V30 10786 H 1072.65 -1.47764 -3.63192 0
M  V30 10787 H 1074.14 -0.621558 -4.12948 0
M  V30 10788 N 1074.58 1.12322 -1.10551 0
M  V30 10789 C 1075.99 1.6539 -0.8662 0
M  V30 10790 C 1076.34 1.86695 0.603284 0
M  V30 10791 O 1075.47 1.59432 1.46323 0
M  V30 10792 C 1076.06 3.00443 -1.56587 0
M  V30 10793 C 1074.62 3.50456 -1.37323 0
M  V30 10794 C 1073.77 2.25454 -1.61449 0
M  V30 10795 H 1076.72 0.960866 -1.26305 0
M  V30 10796 H 1076.74 3.66972 -1.00557 0
M  V30 10797 H 1076.25 2.84905 -2.63535 0
M  V30 10798 H 1074.35 3.71176 -0.325431 0
M  V30 10799 H 1074.46 4.29839 -2.11601 0
M  V30 10800 H 1072.83 2.32621 -1.03729 0
M  V30 10801 H 1073.61 2.12469 -2.69651 0
M  V30 10802 N 1076.06 0.894434 1.2976 0
M  V30 10803 C 1077.47 0.566892 1.77885 0
M  V30 10804 C 1077.82 -0.917289 1.73437 0
M  V30 10805 O 1076.94 -1.71707 1.31703 0
M  V30 10806 C 1077.54 1.02227 3.2301 0
M  V30 10807 C 1076.1 0.745978 3.68934 0
M  V30 10808 C 1075.24 1.19993 2.49994 0
M  V30 10809 H 1078.2 1.0777 1.16496 0
M  V30 10810 H 1078.22 0.355281 3.78838 0
M  V30 10811 H 1077.73 2.1025 3.26215 0
M  V30 10812 H 1075.83 -0.321866 3.71207 0
M  V30 10813 H 1075.94 1.34017 4.59974 0
M  V30 10814 H 1074.31 0.619047 2.47063 0
M  V30 10815 H 1075.09 2.28811 2.55931 0
M  V30 10816 N 1077.53 -1.43282 0.656365 0
M  V30 10817 C 1078.46 -2.33492 -0.0196962 0
M  V30 10818 C 1079.45 -1.49647 -0.80868 0
M  V30 10819 O 1080.63 -1.78303 -0.769529 0
M  V30 10820 C 1077.76 -3.33052 -0.984574 0
M  V30 10821 C 1076.71 -4.26908 -0.305483 0
M  V30 10822 C 1076.04 -5.16531 -1.38202 0
M  V30 10823 C 1077.34 -5.16073 0.804081 0
M  V30 10824 H 1079.03 -2.90272 0.733661 0
M  V30 10825 H 1076.58 -1.39574 0.354259 0
M  V30 10826 H 1078.53 -3.9506 -1.46647 0
M  V30 10827 H 1077.26 -2.74535 -1.76913 0
M  V30 10828 H 1075.92 -3.66268 0.155995 0
M  V30 10829 H 1075.56 -4.54351 -2.1581 0
M  V30 10830 H 1075.26 -5.80148 -0.932878 0
M  V30 10831 H 1076.79 -5.81414 -1.86522 0
M  V30 10832 H 1078.2 -5.71873 0.404212 0
M  V30 10833 H 1076.6 -5.88427 1.17789 0
M  V30 10834 H 1077.67 -4.55574 1.66073 0
M  V30 10835 N 1079.01 -0.398486 -1.52479 0
M  V30 10836 C 1080.42 0.0735015 -1.86555 0
M  V30 10837 C 1080.78 1.45361 -1.31775 0
M  V30 10838 O 1079.9 2.0632 -0.652759 0
M  V30 10839 C 1080.5 0.140152 -3.3851 0
M  V30 10840 C 1079.05 0.556451 -3.72264 0
M  V30 10841 C 1078.2 -0.275792 -2.75925 0
M  V30 10842 H 1081.15 -0.615991 -1.46257 0
M  V30 10843 H 1081.17 0.957507 -3.68255 0
M  V30 10844 H 1080.69 -0.864442 -3.7835 0
M  V30 10845 H 1078.79 1.56808 -3.37997 0
M  V30 10846 H 1078.9 0.308227 -4.78107 0
M  V30 10847 H 1077.26 0.260304 -2.53366 0
M  V30 10848 H 1078.05 -1.27854 -3.18604 0
M  V30 10849 N 1080.49 1.57075 -0.12858 0
M  V30 10850 C 1081.9 1.82468 0.39526 0
M  V30 10851 C 1082.25 1.0463 1.65973 0
M  V30 10852 O 1081.38 0.285835 2.14504 0
M  V30 10853 C 1081.97 3.30976 0.723889 0
M  V30 10854 C 1080.53 3.57016 1.19232 0
M  V30 10855 C 1079.68 2.76534 0.205907 0
M  V30 10856 H 1082.63 1.54711 -0.353571 0
M  V30 10857 H 1082.65 3.46127 1.58039 0
M  V30 10858 H 1082.16 3.87602 -0.196595 0
M  V30 10859 H 1080.26 3.05758 2.12938 0
M  V30 10860 H 1080.38 4.65558 1.13103 0
M  V30 10861 H 1078.74 2.45038 0.694872 0
M  V30 10862 H 1079.52 3.35923 -0.707842 0
M  V30 10863 N 1081.97 -0.145205 1.5693 0
M  V30 10864 C 1082.9 -1.20438 1.95006 0
M  V30 10865 C 1083.91 -1.39085 0.846114 0
M  V30 10866 O 1085.1 -1.38625 1.12452 0
M  V30 10867 C 1082.2 -2.56892 2.21043 0
M  V30 10868 C 1081.38 -2.59197 3.52329 0
M  V30 10869 C 1080.44 -3.77204 3.66884 0
M  V30 10870 O 1079.46 -3.61995 4.39259 0
M  V30 10871 N 1080.66 -4.9473 3.03682 0
M  V30 10872 H 1083.43 -0.880709 2.86467 0
M  V30 10873 H 1080.99 -0.334751 1.58401 0
M  V30 10874 H 1082.98 -3.34349 2.2802 0
M  V30 10875 H 1081.55 -2.81544 1.35838 0
M  V30 10876 H 1080.77 -1.67644 3.56776 0
M  V30 10877 H 1082.06 -2.57771 4.3867 0
M  V30 10878 H 1081.46 -5.09989 2.44801 0
M  V30 10879 H 1080.01 -5.69956 3.16218 0
M  V30 10880 N 1083.45 -1.52049 -0.414609 0
M  V30 10881 C 1084.72 -1.56397 -1.17471 0
M  V30 10882 C 1085.1 -0.34171 -2.08316 0
M  V30 10883 O 1084.45 0.6718 -2.18401 0
M  V30 10884 C 1084.66 -2.88983 -1.95678 0
M  V30 10885 C 1086.01 -3.41781 -2.51935 0
M  V30 10886 O 1087.03 -2.90686 -2.05865 0
M  V30 10887 O 1085.89 -4.30989 -3.36022 0
M  V30 10888 H 1082.99 -0.62974 -0.536056 0
M  V30 10889 H 1085.53 -1.64374 -0.421834 0
M  V30 10890 H 1084.31 -3.69392 -1.29094 0
M  V30 10891 H 1083.93 -2.84274 -2.77983 0
M  V30 10892 N 1084.93 0.6715 -1.42579 0
M  V30 10893 C 1086.17 1.43214 -1.44435 0
M  V30 10894 C 1086.53 1.92304 -0.0608703 0
M  V30 10895 O 1085.82 1.68204 0.917499 0
M  V30 10896 C 1086.01 2.64256 -2.40632 0
M  V30 10897 C 1085.84 2.2701 -3.88197 0
M  V30 10898 C 1084.61 2.16211 -4.56706 0
M  V30 10899 C 1086.81 1.88447 -4.78531 0
M  V30 10900 N 1084.79 1.72104 -5.89282 0
M  V30 10901 C 1086.16 1.55284 -6.00239 0
M  V30 10902 C 1088.22 1.75469 -4.65956 0
M  V30 10903 C 1086.92 1.10444 -7.1077 0
M  V30 10904 C 1088.95 1.32034 -5.76473 0
M  V30 10905 C 1088.31 0.997961 -6.97295 0
M  V30 10906 H 1084.41 0.520415 -0.583688 0
M  V30 10907 H 1086.99 0.774581 -1.78629 0
M  V30 10908 H 1085.16 3.27696 -2.08494 0
M  V30 10909 H 1086.9 3.30865 -2.33046 0
M  V30 10910 H 1083.65 2.35386 -4.10963 0
M  V30 10911 H 1084.07 1.52464 -6.59609 0
M  V30 10912 H 1088.72 1.99038 -3.7302 0
M  V30 10913 H 1086.43 0.856218 -8.03551 0
M  V30 10914 H 1090.02 1.22507 -5.68756 0
M  V30 10915 H 1088.9 0.666968 -7.81359 0
M  V30 10916 N 1086.4 1.28806 0.908124 0
M  V30 10917 C 1087.82 1.06634 1.18749 0
M  V30 10918 C 1088.02 -0.187729 2.00624 0
M  V30 10919 O 1087.08 -0.88784 2.36376 0
M  V30 10920 C 1088.39 2.31703 1.91661 0
M  V30 10921 C 1089.94 2.36939 2.04521 0
M  V30 10922 C 1090.41 3.61789 2.80843 0
M  V30 10923 N 1091.9 3.62462 2.88402 0
M  V30 10924 C 1092.64 4.55746 3.47971 0
M  V30 10925 N 1092.13 5.59353 4.08774 0
M  V30 10926 N 1093.93 4.43331 3.45564 0
M  V30 10927 H 1086.08 2.09299 0.36164 0
M  V30 10928 H 1088.34 0.921479 0.222668 0
M  V30 10929 H 1088.05 3.23096 1.38931 0
M  V30 10930 H 1087.92 2.38556 2.92183 0
M  V30 10931 H 1090.31 1.4604 2.5643 0
M  V30 10932 H 1090.39 2.34077 1.03159 0
M  V30 10933 H 1090.03 4.53035 2.29612 0
M  V30 10934 H 1089.96 3.61907 3.82532 0
M  V30 10935 H 1092.45 2.87544 2.45208 0
M  V30 10936 H 1092.77 6.26668 4.52224 0
M  V30 10937 H 1091.11 5.63173 4.07261 0
M  V30 10938 H 1094.3 3.61587 2.97276 0
M  V30 10939 H 1094.48 5.16216 3.91695 0
M  V30 10940 N 1087.88 -1.11734 1.11145 0
M  V30 10941 C 1088.83 -2.17683 0.766979 0
M  V30 10942 C 1089.8 -1.64051 -0.260108 0
M  V30 10943 O 1090.98 -1.90302 -0.137723 0
M  V30 10944 C 1088.12 -3.44442 0.212982 0
M  V30 10945 C 1087.24 -4.12094 1.29626 0
M  V30 10946 C 1086.37 -5.26526 0.703127 0
M  V30 10947 C 1085.41 -5.86057 1.76647 0
M  V30 10948 N 1084.55 -6.91889 1.19306 0
M  V30 10949 H 1089.39 -2.46495 1.67465 0
M  V30 10950 H 1086.92 -1.21011 0.836353 0
M  V30 10951 H 1088.88 -4.17009 -0.126162 0
M  V30 10952 H 1087.51 -3.16025 -0.657888 0
M  V30 10953 H 1086.56 -3.37631 1.75241 0
M  V30 10954 H 1087.88 -4.52398 2.10089 0
M  V30 10955 H 1087.03 -6.05888 0.313859 0
M  V30 10956 H 1085.77 -4.87519 -0.132856 0
M  V30 10957 H 1084.77 -5.05375 2.16508 0
M  V30 10958 H 1086 -6.27132 2.60543 0
M  V30 10959 H 1083.95 -6.54906 0.378664 0
M  V30 10960 H 1083.86 -7.30832 1.93443 0
M  V30 10961 H 1085.13 -7.75062 0.830578 0
M  V30 10962 N 1089.36 -0.901303 -1.29284 0
M  V30 10963 C 1090.77 -0.576317 -1.77582 0
M  V30 10964 C 1091.12 0.908078 -1.73921 0
M  V30 10965 O 1090.25 1.71006 -1.32611 0
M  V30 10966 C 1090.84 -1.03938 -3.22463 0
M  V30 10967 C 1089.4 -0.765533 -3.68533 0
M  V30 10968 C 1088.55 -1.21318 -2.49354 0
M  V30 10969 H 1091.5 -1.08386 -1.15923 0
M  V30 10970 H 1091.52 -0.375367 -3.78644 0
M  V30 10971 H 1091.03 -2.11977 -3.25096 0
M  V30 10972 H 1089.13 0.302176 -3.71373 0
M  V30 10973 H 1089.25 -1.36454 -4.59257 0
M  V30 10974 H 1087.61 -0.632141 -2.46731 0
M  V30 10975 H 1088.39 -2.30165 -2.54714 0
M  V30 10976 N 1090.84 1.42931 -0.663954 0
M  V30 10977 C 1092.09 2.01284 -0.181379 0
M  V30 10978 C 1092.41 1.52708 1.21265 0
M  V30 10979 O 1091.68 0.744181 1.81215 0
M  V30 10980 H 1090.26 0.744248 -0.0640646 0
M  V30 10981 H 1092.92 1.74997 -0.858031 0
M  V30 10982 H 1092.01 3.11613 -0.174273 0
M  V30 10983 N 1092.32 0.406567 1.52266 0
M  V30 10984 C 1093.73 -0.063607 1.86592 0
M  V30 10985 C 1094.08 -1.4466 1.32544 0
M  V30 10986 O 1093.2 -2.05971 0.663692 0
M  V30 10987 C 1093.8 -0.122198 3.3858 0
M  V30 10988 C 1092.36 -0.536701 3.72554 0
M  V30 10989 C 1091.5 0.290422 2.75775 0
M  V30 10990 H 1094.45 0.623738 1.45929 0
M  V30 10991 H 1094.48 -0.937964 3.68758 0
M  V30 10992 H 1093.99 0.884495 3.77887 0
M  V30 10993 H 1092.09 -1.55013 3.38824 0
M  V30 10994 H 1092.2 -0.282867 4.78264 0
M  V30 10995 H 1090.57 -0.246864 2.53501 0
M  V30 10996 H 1091.35 1.29541 3.17921 0
M  V30 10997 N 1093.79 -1.57004 0.136909 0
M  V30 10998 C 1095.21 -1.82675 -0.385577 0
M  V30 10999 C 1095.56 -1.05508 -1.65416 0
M  V30 11000 O 1094.68 -0.297207 -2.14349 0
M  V30 11001 C 1095.28 -3.31356 -0.706326 0
M  V30 11002 C 1093.84 -3.57644 -1.17337 0
M  V30 11003 C 1092.98 -2.7664 -0.191239 0
M  V30 11004 H 1095.93 -1.54522 0.36177 0
M  V30 11005 H 1095.95 -3.4696 -1.56201 0
M  V30 11006 H 1095.47 -3.87492 0.217147 0
M  V30 11007 H 1093.57 -3.06883 -2.11313 0
M  V30 11008 H 1093.68 -4.66152 -1.10632 0
M  V30 11009 H 1092.04 -2.45403 -0.681867 0
M  V30 11010 H 1092.83 -3.35543 0.725647 0
M  V30 11011 N 1095.27 0.136881 -1.57004 0
M  V30 11012 C 1096.5 0.866405 -1.88436 0
M  V30 11013 C 1096.92 1.73483 -0.727006 0
M  V30 11014 O 1096.28 1.78398 0.323094 0
M  V30 11015 C 1096.33 1.69059 -3.18514 0
M  V30 11016 O 1095.43 2.79584 -3.03161 0
M  V30 11017 H 1094.77 0.240709 -0.618834 0
M  V30 11018 H 1097.3 0.124653 -2.0422 0
M  V30 11019 H 1097.31 2.08353 -3.50789 0
M  V30 11020 H 1095.99 1.05296 -4.0235 0
M  V30 11021 H 1094.57 2.43623 -2.82315 0
M  V30 11022 N 1096.75 1.52266 0.40654 0
M  V30 11023 C 1098 1.66452 1.15325 0
M  V30 11024 C 1098.33 0.395728 1.90432 0
M  V30 11025 O 1097.58 -0.621382 1.85573 0
M  V30 11026 C 1097.88 2.8389 2.1712 0
M  V30 11027 C 1097.55 4.22011 1.58801 0
M  V30 11028 C 1096.21 4.59579 1.42621 0
M  V30 11029 C 1098.56 5.08074 1.16236 0
M  V30 11030 C 1095.89 5.80885 0.823967 0
M  V30 11031 C 1098.24 6.29988 0.574284 0
M  V30 11032 C 1096.9 6.66303 0.399638 0
M  V30 11033 H 1096.17 0.609092 0.422005 0
M  V30 11034 H 1098.82 1.86374 0.440131 0
M  V30 11035 H 1097.13 2.58314 2.94586 0
M  V30 11036 H 1098.82 2.92063 2.74774 0
M  V30 11037 H 1095.41 3.92408 1.72378 0
M  V30 11038 H 1099.6 4.79631 1.27544 0
M  V30 11039 H 1094.85 6.07644 0.676694 0
M  V30 11040 H 1099.03 6.96 0.236081 0
M  V30 11041 H 1096.65 7.60169 -0.0691262 0
M  V30 11042 N 1098.23 -0.663929 1.42933 0
M  V30 11043 C 1099.16 -1.78899 1.50058 0
M  V30 11044 C 1100.14 -1.66329 0.356164 0
M  V30 11045 O 1101.32 -1.85587 0.571944 0
M  V30 11046 C 1098.45 -3.17265 1.41281 0
M  V30 11047 C 1097.41 -3.44584 2.53861 0
M  V30 11048 C 1096.73 -4.82638 2.3014 0
M  V30 11049 C 1098.03 -3.40394 3.96143 0
M  V30 11050 H 1099.73 -1.73194 2.44222 0
M  V30 11051 H 1097.27 -0.83182 1.17545 0
M  V30 11052 H 1099.23 -3.95715 1.44872 0
M  V30 11053 H 1097.95 -3.23675 0.43616 0
M  V30 11054 H 1096.61 -2.685 2.49606 0
M  V30 11055 H 1096.26 -4.85711 1.30743 0
M  V30 11056 H 1095.96 -5.01879 3.056 0
M  V30 11057 H 1097.48 -5.63359 2.35497 0
M  V30 11058 H 1098.9 -4.08796 4.01943 0
M  V30 11059 H 1097.29 -3.7117 4.71543 0
M  V30 11060 H 1098.36 -2.38767 4.22041 0
M  V30 11061 N 1099.71 -1.29285 -0.901281 0
M  V30 11062 C 1101.12 -1.15499 -1.46686 0
M  V30 11063 C 1101.47 0.250446 -1.94595 0
M  V30 11064 O 1100.59 1.14581 -1.83576 0
M  V30 11065 C 1101.19 -2.0906 -2.66607 0
M  V30 11066 C 1099.75 -1.99301 -3.19306 0
M  V30 11067 C 1098.89 -2.00079 -1.91999 0
M  V30 11068 H 1101.85 -1.41793 -0.712773 0
M  V30 11069 H 1101.87 -1.6619 -3.42288 0
M  V30 11070 H 1101.38 -3.11341 -2.31707 0
M  V30 11071 H 1099.48 -1.00103 -3.58901 0
M  V30 11072 H 1099.59 -2.86885 -3.8371 0
M  V30 11073 H 1097.96 -1.44655 -2.09636 0
M  V30 11074 H 1098.74 -3.04061 -1.59379 0
M  V30 11075 N 1101.18 1.11143 -1.11736 0
M  V30 11076 C 1102.46 1.79384 -0.779785 0
M  V30 11077 C 1102.84 1.98015 0.731668 0
M  V30 11078 O 1102.19 1.56731 1.66276 0
M  V30 11079 C 1102.4 3.12868 -1.54643 0
M  V30 11080 C 1103.75 3.8786 -1.7277 0
M  V30 11081 O 1104.77 3.22566 -1.51094 0
M  V30 11082 O 1103.63 5.05034 -2.08813 0
M  V30 11083 H 1100.72 0.777128 -0.282845 0
M  V30 11084 H 1103.27 1.17858 -1.22096 0
M  V30 11085 H 1102.04 2.94682 -2.57446 0
M  V30 11086 H 1101.67 3.82109 -1.09901 0
M  V30 11087 N 1102.66 0.908147 1.28804 0
M  V30 11088 C 1103.59 0.409106 2.29888 0
M  V30 11089 C 1104.57 -0.520338 1.61946 0
M  V30 11090 O 1105.76 -0.429268 1.89396 0
M  V30 11091 C 1102.89 -0.35669 3.45463 0
M  V30 11092 C 1101.84 0.4831 4.25265 0
M  V30 11093 C 1101.17 -0.4107 5.3312 0
M  V30 11094 C 1102.47 1.73744 4.92555 0
M  V30 11095 H 1104.16 1.25386 2.7188 0
M  V30 11096 H 1101.71 0.604368 1.30703 0
M  V30 11097 H 1103.66 -0.71661 4.15262 0
M  V30 11098 H 1102.39 -1.2353 3.02337 0
M  V30 11099 H 1101.04 0.825464 3.57186 0
M  V30 11100 H 1100.69 -1.28769 4.86238 0
M  V30 11101 H 1100.39 0.14756 5.87415 0
M  V30 11102 H 1101.92 -0.766626 6.05768 0
M  V30 11103 H 1103.33 1.44676 5.54745 0
M  V30 11104 H 1101.73 2.23767 5.5682 0
M  V30 11105 H 1102.8 2.46853 4.17363 0
M  V30 11106 N 1104.14 -1.42577 0.671525 0
M  V30 11107 C 1105.09 -2.32591 -0.0205354 0
M  V30 11108 C 1106.08 -1.4964 -0.793993 0
M  V30 11109 O 1107.29 -1.65733 -0.702327 0
M  V30 11110 H 1103.66 -0.75157 -0.0254344 0
M  V30 11111 H 1105.63 -2.88662 0.756082 0
M  V30 11112 C 1104.38 -3.34175 -0.960316 0
M  V30 11113 H 1103.71 -3.98041 -0.374577 0
M  V30 11114 H 1105.15 -3.99752 -1.4133 0
M  V30 11115 C 1103.61 -2.66184 -2.06513 0
M  V30 11116 O 1104.14 -2.49125 -3.15119 0
M  V30 11117 N 1102.34 -2.25261 -1.83591 0
M  V30 11118 H 1101.89 -2.39336 -0.952689 0
M  V30 11119 H 1101.85 -1.80101 -2.57703 0
M  V30 11120 N 1105.62 -0.414636 -1.52048 0
M  V30 11121 C 1106.58 0.396285 -2.25748 0
M  V30 11122 C 1107.58 0.969003 -1.28324 0
M  V30 11123 O 1108.77 0.847016 -1.52221 0
M  V30 11124 C 1105.9 1.55838 -3.03195 0
M  V30 11125 H 1107.1 -0.249311 -2.98862 0
M  V30 11126 H 1104.65 -0.167276 -1.55402 0
M  V30 11127 H 1105.38 2.24068 -2.34444 0
M  V30 11128 H 1105.17 1.15414 -3.74729 0
M  V30 11129 H 1106.66 2.13187 -3.59084 0
M  V30 11130 N 1107.1 1.56929 -0.145233 0
M  V30 11131 C 1108.04 2.17958 0.812237 0
M  V30 11132 C 1109.04 1.13608 1.25657 0
M  V30 11133 O 1110.24 1.31861 1.22526 0
M  V30 11134 H 1106.62 0.697876 0.28013 0
M  V30 11135 H 1108.59 2.97146 0.273297 0
M  V30 11136 C 1107.34 2.81418 2.04203 0
M  V30 11137 H 1106.66 3.61427 1.70911 0
M  V30 11138 H 1108.1 3.27624 2.69144 0
M  V30 11139 C 1106.56 1.79835 2.84888 0
M  V30 11140 O 1107.09 1.26773 3.81171 0
M  V30 11141 N 1105.3 1.49179 2.49387 0
M  V30 11142 H 1104.84 1.9252 1.71154 0
M  V30 11143 H 1104.8 0.81458 3.03664 0
M  V30 11144 N 1108.58 -0.128553 1.57075 0
M  V30 11145 C 1109.54 -1.14215 1.98715 0
M  V30 11146 C 1110.54 -1.34843 0.876019 0
M  V30 11147 O 1111.73 -1.31522 1.14227 0
M  V30 11148 C 1108.86 -2.49865 2.31905 0
M  V30 11149 H 1110.05 -0.784481 2.89458 0
M  V30 11150 H 1107.61 -0.372531 1.51796 0
M  V30 11151 H 1108.34 -2.9057 1.44012 0
M  V30 11152 H 1108.13 -2.3625 3.12935 0
M  V30 11153 H 1109.62 -3.22832 2.64895 0
M  V30 11154 N 1110.05 -1.5248 -0.398459 0
M  V30 11155 C 1111.02 -1.75949 -1.46883 0
M  V30 11156 C 1112.02 -0.629431 -1.47969 0
M  V30 11157 O 1113.21 -0.897407 -1.49306 0
M  V30 11158 C 1110.34 -1.85162 -2.8623 0
M  V30 11159 H 1111.53 -2.71513 -1.2736 0
M  V30 11160 H 1109.08 -1.43058 -0.629619 0
M  V30 11161 H 1109.82 -0.915505 -3.11109 0
M  V30 11162 H 1109.6 -2.67326 -2.86844 0
M  V30 11163 H 1111.09 -2.05025 -3.63805 0
M  V30 11164 N 1111.53 0.65634 -1.43283 0
M  V30 11165 C 1112.49 1.75117 -1.47874 0
M  V30 11166 C 1113.49 1.56629 -0.363846 0
M  V30 11167 O 1114.68 1.62584 -0.625464 0
M  V30 11168 C 1111.82 3.13957 -1.32831 0
M  V30 11169 H 1113.01 1.72429 -2.45374 0
M  V30 11170 H 1110.56 0.867704 -1.30002 0
M  V30 11171 H 1111.3 3.22259 -0.36326 0
M  V30 11172 H 1111.08 3.28781 -2.13649 0
M  V30 11173 H 1112.57 3.93799 -1.38969 0
M  V30 11174 N 1113.01 1.29761 0.894412 0
M  V30 11175 C 1114.26 1.19224 1.64794 0
M  V30 11176 C 1114.61 -0.252648 1.90734 0
M  V30 11177 O 1113.9 -1.17881 1.51045 0
M  V30 11178 C 1114.1 1.94458 2.99868 0
M  V30 11179 C 1113.93 3.46115 2.87114 0
M  V30 11180 C 1112.7 4.15469 2.87599 0
M  V30 11181 C 1114.89 4.41518 2.63754 0
M  V30 11182 N 1112.88 5.53453 2.65637 0
M  V30 11183 C 1114.25 5.66999 2.50823 0
M  V30 11184 C 1116.3 4.31221 2.48903 0
M  V30 11185 C 1115.01 6.83351 2.24554 0
M  V30 11186 C 1117.03 5.4733 2.24018 0
M  V30 11187 C 1116.39 6.71786 2.11856 0
M  V30 11188 H 1112.49 0.491294 0.608403 0
M  V30 11189 H 1115.08 1.63656 1.05474 0
M  V30 11190 H 1113.25 1.52432 3.57238 0
M  V30 11191 H 1114.98 1.76142 3.64357 0
M  V30 11192 H 1111.73 3.67217 2.9908 0
M  V30 11193 H 1112.16 6.26037 2.57695 0
M  V30 11194 H 1116.8 3.35689 2.57046 0
M  V30 11195 H 1114.52 7.78933 2.15149 0
M  V30 11196 H 1118.1 5.41265 2.13363 0
M  V30 11197 H 1116.98 7.60113 1.92867 0
M  V30 11198 N 1114.49 -1.10549 1.12324 0
M  V30 11199 C 1115.74 -1.81851 0.872531 0
M  V30 11200 C 1116.05 -1.86058 -0.603468 0
M  V30 11201 O 1117.26 -2.53553 -0.970736 0
M  V30 11202 C 1115.71 -3.26631 1.51131 0
M  V30 11203 C 1115.32 -3.30725 3.02201 0
M  V30 11204 C 1117.06 -4.02768 1.34082 0
M  V30 11205 C 1114.97 -4.69957 3.59018 0
M  V30 11206 H 1113.9 -0.681422 0.322769 0
M  V30 11207 H 1116.55 -1.24332 1.34959 0
M  V30 11208 H 1114.93 -3.8414 0.961913 0
M  V30 11209 H 1116.11 -2.83046 3.63623 0
M  V30 11210 H 1114.42 -2.68072 3.18632 0
M  V30 11211 H 1117.02 -5.05612 1.73955 0
M  V30 11212 H 1117.36 -4.15328 0.284369 0
M  V30 11213 H 1117.9 -3.51671 1.85937 0
M  V30 11214 H 1114.63 -4.62597 4.64418 0
M  V30 11215 H 1114.15 -5.18008 3.02371 0
M  V30 11216 H 1115.83 -5.38925 3.58007 0
M  V30 11217 N 1115.97 -0.914965 -1.28321 0
M  V30 11218 C 1117.19 -0.564023 -1.99583 0
M  V30 11219 C 1117.62 0.847821 -1.6791 0
M  V30 11220 O 1116.97 1.56682 -0.912171 0
M  V30 11221 C 1117.02 -0.781368 -3.52033 0
M  V30 11222 O 1116.13 0.159072 -4.12093 0
M  V30 11223 H 1115.47 -0.218565 -0.626997 0
M  V30 11224 H 1118 -1.23074 -1.63444 0
M  V30 11225 H 1118.01 -0.691946 -4.0209 0
M  V30 11226 H 1116.68 -1.81059 -3.7442 0
M  V30 11227 H 1115.26 0.0208145 -3.72894 0
M  V30 11228 N 1117.44 1.42219 -0.679077 0
M  V30 11229 C 1118.85 1.8459 -0.279877 0
M  V30 11230 C 1119.21 1.56839 1.17881 0
M  V30 11231 O 1118.33 1.03039 1.90294 0
M  V30 11232 C 1118.93 3.35072 -0.501185 0
M  V30 11233 C 1117.48 3.76076 -0.156065 0
M  V30 11234 C 1116.63 2.65763 -0.791549 0
M  V30 11235 H 1119.58 1.32005 -0.880932 0
M  V30 11236 H 1119.6 3.79708 0.245349 0
M  V30 11237 H 1119.12 3.55239 -1.56291 0
M  V30 11238 H 1117.22 3.61516 0.90205 0
M  V30 11239 H 1117.33 4.75334 -0.599572 0
M  V30 11240 H 1115.69 2.53726 -0.222514 0
M  V30 11241 H 1116.48 2.88751 -1.85682 0
M  V30 11242 O 1118.96 0.564796 1.51302 0
M  V30 11243 H 1119.65 0.0644337 1.93593 0
M  V30 END ATOM
M  V30 BEGIN BOND
M  V30 END BOND
M  V30 END CTAB
M  END
$$$$
