drugbank_target|P03302 Genome polyprotein (DB03203; DB08012; DB08013; DB08014; DB08231; DB08726)
 OpenBabel12092120473D

  0  0  0     0  0            999 V3000
M  V30 BEGIN CTAB
M  V30 COUNTS 34402 34807 0 0 0
M  V30 BEGIN ATOM
M  V30 1 H -0.908 1.98254 -0.117106 0
M  V30 2 N 0 1.576 0 0
M  V30 3 C 0.933 2.03868 1.02534 0
M  V30 4 C 1.911 0.928543 1.3348 0
M  V30 5 O 3.095 1.19667 1.45644 0
M  V30 6 C 0.222 2.43627 2.35294 0
M  V30 7 C -0.732 3.65373 2.2001 0
M  V30 8 S 0.101 5.13292 1.52614 0
M  V30 9 C 1.257 5.56322 2.86805 0
M  V30 10 H 1.49 2.90518 0.631377 0
M  V30 11 H -0.977 1.52953 0.210867 0
M  V30 12 H 0.981 2.67203 3.11629 0
M  V30 13 H -0.358 1.57376 2.7183 0
M  V30 14 H -1.165 3.90944 3.18086 0
M  V30 15 H -1.563 3.418 1.51819 0
M  V30 16 H 0.729 5.58782 3.83104 0
M  V30 17 H 1.672 6.56266 2.65933 0
M  V30 18 H 2.08 4.83886 2.90714 0
M  V30 19 N 1.4781 -0.272755 1.55222 0
M  V30 20 C 2.7261 -1.00234 1.75492 0
M  V30 21 C 3.0471 -1.8681 0.5592 0
M  V30 22 O 2.3171 -1.91215 -0.425882 0
M  V30 23 H 0.8971 -0.373076 0.647166 0
M  V30 24 H 3.5591 -0.296926 1.92625 0
M  V30 25 H 2.6551 -1.63913 2.65592 0
M  V30 26 N 2.9562 -1.48159 -0.537278 0
M  V30 27 C 3.9192 -1.61665 -1.62472 0
M  V30 28 C 4.9192 -0.490395 -1.5314 0
M  V30 29 O 6.1092 -0.755998 -1.5694 0
M  V30 30 C 3.2412 -1.57997 -3.02076 0
M  V30 31 H 4.4342 -2.58621 -1.51839 0
M  V30 32 H 1.9872 -1.36647 -0.758771 0
M  V30 33 H 2.7222 -0.624913 -3.18222 0
M  V30 34 H 2.5072 -2.39755 -3.10258 0
M  V30 35 H 3.9972 -1.70627 -3.81151 0
M  V30 36 N 4.4343 0.785586 -1.36625 0
M  V30 37 C 5.3663 1.90711 -1.2713 0
M  V30 38 C 6.3793 1.61688 -0.189986 0
M  V30 39 O 7.5683 1.72864 -0.445014 0
M  V30 40 C 4.6683 3.25611 -0.939713 0
M  V30 41 C 3.8413 3.82385 -2.12369 0
M  V30 42 C 2.9003 4.95732 -1.76456 0
M  V30 43 O 1.9263 5.12047 -2.48589 0
M  V30 44 N 3.1283 5.76258 -0.700492 0
M  V30 45 H 5.8933 1.99376 -2.23762 0
M  V30 46 H 3.4543 0.964041 -1.30069 0
M  V30 47 H 5.4463 3.98937 -0.680554 0
M  V30 48 H 4.0163 3.12538 -0.0624074 0
M  V30 49 H 3.2363 3.01001 -2.54543 0
M  V30 50 H 4.5243 4.17047 -2.9146 0
M  V30 51 H 3.9223 5.65609 -0.101624 0
M  V30 52 H 2.4793 6.4987 -0.501165 0
M  V30 53 N 5.9124 1.20967 1.01018 0
M  V30 54 C 7.1584 1.02526 1.74975 0
M  V30 55 C 7.4914 -0.4408 1.89131 0
M  V30 56 O 6.7664 -1.32718 1.42184 0
M  V30 57 C 7.0494 1.71699 3.1653 0
M  V30 58 C 6.9024 3.25791 3.10129 0
M  V30 59 C 8.2214 1.45531 4.15342 0
M  V30 60 H 5.3404 0.373863 0.635134 0
M  V30 61 H 7.9824 1.49071 1.17805 0
M  V30 62 H 6.1324 1.32128 3.65341 0
M  V30 63 H 7.8044 3.74697 2.69072 0
M  V30 64 H 6.0474 3.56363 2.47362 0
M  V30 65 H 6.7184 3.69353 4.10222 0
M  V30 66 H 9.1944 1.79872 3.75213 0
M  V30 67 H 8.0704 1.96453 5.1254 0
M  V30 68 H 8.3314 0.384237 4.40427 0
M  V30 69 N 7.3905 -1.2043 1.01659 0
M  V30 70 C 8.6155 -1.94318 0.724942 0
M  V30 71 C 9.0405 -1.74266 -0.708034 0
M  V30 72 O 8.3985 -1.03694 -1.48719 0
M  V30 73 C 8.4465 -3.44486 1.06591 0
M  V30 74 O 7.5505 -4.12017 0.177599 0
M  V30 75 H 6.8915 -0.60708 0.26898 0
M  V30 76 H 9.4215 -1.52861 1.35995 0
M  V30 77 H 9.4315 -3.95106 1.01762 0
M  V30 78 H 8.1065 -3.58404 2.10997 0
M  V30 79 H 6.6835 -3.71821 0.283421 0
M  V30 80 N 8.8686 -0.792821 -1.36206 0
M  V30 81 C 10.0936 -0.377701 -2.03932 0
M  V30 82 C 10.5186 0.998947 -1.59382 0
M  V30 83 O 9.8766 1.64421 -0.763903 0
M  V30 84 C 9.9246 -0.453635 -3.57735 0
M  V30 85 O 9.0286 0.538151 -4.08874 0
M  V30 86 H 8.3696 -0.159855 -0.644471 0
M  V30 87 H 10.8996 -1.07488 -1.7409 0
M  V30 88 H 10.9096 -0.318464 -4.06755 0
M  V30 89 H 9.5846 -1.45784 -3.89512 0
M  V30 90 H 8.1616 0.364359 -3.71116 0
M  V30 91 N 10.3467 1.47872 -0.545128 0
M  V30 92 C 11.2787 2.27869 0.246621 0
M  V30 93 C 12.2917 1.36282 0.890561 0
M  V30 94 O 13.4807 1.61207 0.766449 0
M  V30 95 C 10.5807 3.10159 1.36582 0
M  V30 96 C 9.7537 4.29627 0.820954 0
M  V30 97 C 8.8127 4.93607 1.82314 0
M  V30 98 O 7.8387 5.52366 1.37406 0
M  V30 99 N 9.0407 4.87211 3.15603 0
M  V30 100 H 11.8057 2.96459 -0.439539 0
M  V30 101 H 9.3667 1.57367 -0.380421 0
M  V30 102 H 11.3587 3.49829 2.03474 0
M  V30 103 H 9.9287 2.43891 1.9554 0
M  V30 104 H 9.1487 3.94192 -0.0244032 0
M  V30 105 H 10.4367 5.06928 0.436063 0
M  V30 106 H 9.8347 4.40651 3.54744 0
M  V30 107 H 8.3917 5.30937 3.78087 0
M  V30 108 N 11.8248 0.280983 1.55075 0
M  V30 109 C 12.7718 -0.603937 2.22758 0
M  V30 110 C 13.7418 -1.1452 1.20309 0
M  V30 111 O 14.9268 -1.19343 1.48869 0
M  V30 112 C 12.0668 -1.77947 2.95684 0
M  V30 113 C 11.1798 -1.2715 4.12864 0
M  V30 114 C 10.3148 -2.4093 4.7342 0
M  V30 115 C 9.3538 -1.87165 5.82783 0
M  V30 116 N 8.4908 -2.94441 6.37377 0
M  V30 117 H 13.3308 -0.020124 2.97993 0
M  V30 118 H 10.8678 0.00183425 1.471 0
M  V30 119 H 12.8258 -2.47055 3.36184 0
M  V30 120 H 11.4558 -2.33522 2.22861 0
M  V30 121 H 10.5078 -0.473331 3.77444 0
M  V30 122 H 11.8198 -0.837751 4.91715 0
M  V30 123 H 10.9738 -3.18021 5.1667 0
M  V30 124 H 9.7128 -2.87623 3.93859 0
M  V30 125 H 8.7178 -1.08556 5.38976 0
M  V30 126 H 9.9428 -1.41401 6.64216 0
M  V30 127 H 7.8888 -3.40505 5.60707 0
M  V30 128 H 7.8058 -2.55501 7.11516 0
M  V30 129 H 9.0738 -3.71489 6.85285 0
M  V30 130 N 13.3029 -1.57598 0.00835791 0
M  V30 131 C 14.5489 -1.91211 -0.675732 0
M  V30 132 C 14.8819 -0.883139 -1.72958 0
M  V30 133 O 14.1569 0.097016 -1.94258 0
M  V30 134 C 14.4399 -3.35379 -1.31123 0
M  V30 135 C 14.2929 -4.48999 -0.268356 0
M  V30 136 C 15.6119 -3.7912 -2.23508 0
M  V30 137 H 12.7309 -0.695374 -0.244179 0
M  V30 138 H 15.3729 -1.89901 0.0613655 0
M  V30 139 H 13.5229 -3.36626 -1.93946 0
M  V30 140 H 15.1949 -4.59887 0.360844 0
M  V30 141 H 13.4379 -4.31873 0.408482 0
M  V30 142 H 14.1089 -5.46851 -0.752218 0
M  V30 143 H 16.5849 -3.79477 -1.70693 0
M  V30 144 H 15.4609 -4.80729 -2.64936 0
M  V30 145 H 15.7219 -3.13455 -3.11766 0
M  V30 146 N 14.781 0.264519 -1.55364 0
M  V30 147 C 16.029 0.993021 -1.76021 0
M  V30 148 C 16.35 1.86511 -0.569099 0
M  V30 149 O 15.62 1.91438 0.415735 0
M  V30 150 H 14.2 0.369639 -0.649135 0
M  V30 151 H 16.862 0.286707 -1.9278 0
M  V30 152 H 15.958 1.62502 -2.66457 0
M  V30 153 N 16.2591 1.48442 0.529413 0
M  V30 154 C 17.2221 1.62524 1.61612 0
M  V30 155 C 18.2221 0.498509 1.52877 0
M  V30 156 O 19.4121 0.76431 1.56537 0
M  V30 157 C 16.5441 1.59597 3.01233 0
M  V30 158 H 17.7371 2.59423 1.50465 0
M  V30 159 H 15.2901 1.37047 0.751514 0
M  V30 160 H 16.0251 0.641781 3.17886 0
M  V30 161 H 15.8101 2.41397 3.08982 0
M  V30 162 H 17.3001 1.72646 3.80241 0
M  V30 163 N 17.7372 -0.778329 1.37039 0
M  V30 164 C 18.6872 -1.88142 1.28789 0
M  V30 165 C 19.6712 -1.59923 0.177063 0
M  V30 166 O 20.8632 -1.72165 0.410873 0
M  V30 167 C 17.9922 -3.25518 1.09055 0
M  V30 168 C 17.0782 -3.5971 2.24654 0
M  V30 169 N 17.4692 -3.65131 3.50018 0
M  V30 170 C 15.7672 -3.89837 2.16663 0
M  V30 171 C 16.4682 -3.95882 4.26207 0
M  V30 172 N 15.4442 -4.11441 3.55271 0
M  V30 173 H 19.2462 -1.90575 2.23737 0
M  V30 174 H 16.7602 -0.974435 1.29917 0
M  V30 175 H 18.7572 -4.04423 1.0123 0
M  V30 176 H 17.4172 -3.24353 0.15018 0
M  V30 177 H 18.4282 -3.475 3.84011 0
M  V30 178 H 15.1052 -3.96533 1.30645 0
M  V30 179 H 16.4952 -4.06907 5.34674 0
M  V30 180 N 19.2153 -1.21501 -1.00376 0
M  V30 181 C 20.1253 -0.991447 -2.12621 0
M  V30 182 C 21.1413 0.0568446 -1.73907 0
M  V30 183 O 22.3173 -0.13348 -2.00957 0
M  V30 184 C 19.3823 -0.560312 -3.42142 0
M  V30 185 C 18.4433 -1.68096 -3.95022 0
M  V30 186 C 17.6763 -1.2703 -5.18362 0
M  V30 187 O 17.8993 -0.144438 -5.70217 0
M  V30 188 O 16.8333 -2.08269 -5.64719 0
M  V30 189 H 20.6593 -1.93158 -2.34358 0
M  V30 190 H 18.2443 -0.999999 -1.10997 0
M  V30 191 H 20.1263 -0.329724 -4.20108 0
M  V30 192 H 18.8013 0.351089 -3.2179 0
M  V30 193 H 17.7083 -1.96597 -3.18278 0
M  V30 194 H 19.0413 -2.56983 -4.19786 0
M  V30 195 N 20.6934 1.19889 -1.02296 0
M  V30 196 C 21.6414 2.24938 -0.592081 0
M  V30 197 C 22.6354 1.65257 0.372357 0
M  V30 198 O 23.8414 1.78371 0.241583 0
M  V30 199 H 20.2164 0.731787 -0.173182 0
M  V30 200 H 22.1874 2.58603 -1.48885 0
M  V30 201 C 20.9364 3.47668 0.047351 0
M  V30 202 H 20.2594 3.93875 -0.685772 0
M  V30 203 H 21.6994 4.22852 0.311862 0
M  V30 204 C 20.1584 3.11136 1.29212 0
M  V30 205 O 20.6884 3.2325 2.38479 0
M  V30 206 N 18.8944 2.65625 1.17863 0
M  V30 207 H 18.4414 2.55968 0.289493 0
M  V30 208 H 18.3994 2.41553 2.01245 0
M  V30 209 N 22.1715 0.800033 1.35784 0
M  V30 210 C 23.3965 0.388511 2.03729 0
M  V30 211 C 23.8215 -0.990481 1.5991 0
M  V30 212 O 23.1795 -1.64013 0.772612 0
M  V30 213 C 23.2275 0.4726 3.5749 0
M  V30 214 O 22.3315 -0.51646 4.09153 0
M  V30 215 H 21.6725 0.163271 0.643614 0
M  V30 216 H 24.2025 1.0841 1.73518 0
M  V30 217 H 24.2125 0.34003 4.06581 0
M  V30 218 H 22.8875 1.47848 3.88734 0
M  V30 219 H 21.4645 -0.344673 3.71304 0
M  V30 220 N 23.6496 -1.47581 0.552962 0
M  V30 221 C 24.5976 -2.31648 -0.21023 0
M  V30 222 C 25.5916 -1.42663 -0.913432 0
M  V30 223 O 26.7976 -1.5945 -0.835201 0
M  V30 224 H 23.1726 -0.746989 -0.0866676 0
M  V30 225 H 25.1436 -2.93869 0.518051 0
M  V30 226 C 23.8926 -3.25226 -1.22976 0
M  V30 227 H 23.2156 -3.93658 -0.698077 0
M  V30 228 H 24.6556 -3.86889 -1.73473 0
M  V30 229 C 23.1146 -2.48448 -2.27542 0
M  V30 230 O 23.6446 -2.22585 -3.34393 0
M  V30 231 N 21.8506 -2.09532 -2.01357 0
M  V30 232 H 21.3976 -2.30765 -1.14478 0
M  V30 233 H 21.3556 -1.58476 -2.71538 0
M  V30 234 N 25.1277 -0.289203 -1.54924 0
M  V30 235 C 26.5437 0.0645403 -1.59469 0
M  V30 236 C 26.7437 1.53419 -1.30632 0
M  V30 237 O 25.7997 2.2852 -1.074 0
M  V30 238 C 27.1127 -0.32278 -2.98963 0
M  V30 239 C 28.6607 -0.270564 -3.11828 0
M  V30 240 C 29.1357 -0.632532 -4.53611 0
M  V30 241 N 30.6267 -0.584617 -4.59496 0
M  V30 242 C 31.3617 -0.837314 -5.67254 0
M  V30 243 N 30.8577 -1.15536 -6.83098 0
M  V30 244 N 32.6507 -0.765166 -5.56868 0
M  V30 245 H 24.8017 -1.24714 -1.71931 0
M  V30 246 H 27.0647 -0.504809 -0.802416 0
M  V30 247 H 26.7707 -1.34541 -3.24948 0
M  V30 248 H 26.6447 0.32944 -3.75759 0
M  V30 249 H 29.0317 0.742805 -2.85598 0
M  V30 250 H 29.1127 -0.957242 -2.37214 0
M  V30 251 H 28.7567 -1.64365 -4.80569 0
M  V30 252 H 28.6867 0.07609 -5.26545 0
M  V30 253 H 31.1777 -0.349248 -3.76283 0
M  V30 254 H 31.4907 -1.33447 -7.61191 0
M  V30 255 H 29.8357 -1.19328 -6.84679 0
M  V30 256 H 33.0267 -0.516432 -4.65243 0
M  V30 257 H 33.1997 -0.965477 -6.40767 0
M  V30 258 N 26.6058 1.57591 -0.0167156 0
M  V30 259 C 27.5688 2.08393 0.954204 0
M  V30 260 C 28.5688 0.996531 1.26198 0
M  V30 261 O 29.7588 1.25858 1.20438 0
M  V30 262 C 26.8908 2.5394 2.27436 0
M  V30 263 H 28.0838 2.95455 0.514451 0
M  V30 264 H 25.6368 1.54582 0.231089 0
M  V30 265 H 26.3718 1.70171 2.76066 0
M  V30 266 H 26.1568 3.33371 2.06412 0
M  V30 267 H 27.6468 2.93512 2.97053 0
M  V30 268 N 28.0839 -0.256276 1.55502 0
M  V30 269 C 29.3139 -1.00196 1.80677 0
M  V30 270 C 29.7219 -1.79805 0.588797 0
M  V30 271 O 29.0649 -1.78055 -0.451883 0
M  V30 272 C 29.1269 -1.99515 2.99055 0
M  V30 273 C 28.7909 -1.38688 4.35448 0
M  V30 274 C 29.7879 -0.794079 5.138 0
M  V30 275 C 27.4729 -1.40906 4.82132 0
M  V30 276 C 29.4669 -0.231562 6.36979 0
M  V30 277 C 27.1539 -0.842684 6.05262 0
M  V30 278 C 28.1519 -0.254953 6.82524 0
M  V30 279 O 27.8399 0.3027 8.0333 0
M  V30 280 H 27.5719 -0.300919 0.60533 0
M  V30 281 H 30.1259 -0.287307 2.03381 0
M  V30 282 H 28.3559 -2.74785 2.72084 0
M  V30 283 H 30.0449 -2.60349 3.11405 0
M  V30 284 H 30.8109 -0.769519 4.78856 0
M  V30 285 H 26.6899 -1.85591 4.21992 0
M  V30 286 H 30.2339 0.227816 6.97228 0
M  V30 287 H 26.1309 -0.86454 6.39684 0
M  V30 288 H 26.8989 0.193662 8.18271 0
M  V30 289 N 29.562 -1.4872 -0.521534 0
M  V30 290 C 30.81 -1.56857 -1.27437 0
M  V30 291 C 31.131 -0.247982 -1.93417 0
M  V30 292 O 30.401 0.731151 -1.81744 0
M  V30 293 H 28.981 -0.577885 -0.473347 0
M  V30 294 H 31.643 -1.85233 -0.606205 0
M  V30 295 H 30.739 -2.35402 -2.0492 0
M  V30 296 N 31.0401 0.771051 -1.3745 0
M  V30 297 C 32.2881 1.52661 -1.32435 0
M  V30 298 C 32.6091 1.9479 0.0905024 0
M  V30 299 O 31.8791 1.66348 1.03466 0
M  V30 300 H 30.4591 0.566218 -0.487244 0
M  V30 301 H 33.1211 0.917636 -1.71946 0
M  V30 302 H 32.2171 2.42568 -1.96385 0
M  V30 303 N 32.5182 1.22032 0.997298 0
M  V30 304 C 33.7432 1.06921 1.77715 0
M  V30 305 C 34.1682 -0.376226 1.84299 0
M  V30 306 O 33.5262 -1.27165 1.29223 0
M  V30 307 C 33.5742 1.67996 3.19076 0
M  V30 308 O 32.6782 0.930653 4.01762 0
M  V30 309 H 32.0192 0.375814 0.547412 0
M  V30 310 H 34.5492 1.61737 1.25309 0
M  V30 311 H 34.5592 1.72538 3.69723 0
M  V30 312 H 33.2342 2.73182 3.13599 0
M  V30 313 H 31.8112 0.960917 3.60307 0
M  V30 314 N 33.9963 -1.19345 1.0293 0
M  V30 315 C 35.2243 -1.92997 0.745644 0
M  V30 316 C 35.6393 -1.75519 -0.695589 0
M  V30 317 O 34.9963 -1.07737 -1.47306 0
M  V30 318 C 35.0473 -3.44741 1.08792 0
M  V30 319 O 34.7683 -3.61658 2.47256 0
M  V30 320 C 36.2693 -4.35515 0.827129 0
M  V30 321 H 33.4893 -0.613042 0.272801 0
M  V30 322 H 36.0333 -1.51473 1.3739 0
M  V30 323 H 34.1883 -3.84097 0.504832 0
M  V30 324 H 34.6023 -4.55514 2.60015 0
M  V30 325 H 36.0763 -5.40589 1.11658 0
M  V30 326 H 36.5533 -4.38552 -0.238436 0
M  V30 327 H 37.1593 -4.01841 1.39297 0
M  V30 328 N 35.4744 -0.807222 -1.35358 0
M  V30 329 C 36.7234 -0.384376 -1.98004 0
M  V30 330 C 37.0364 1.0543 -1.64754 0
M  V30 331 O 38.2424 1.58029 -2.20769 0
M  V30 332 C 36.6984 -0.636326 -3.5423 0
M  V30 333 C 36.3064 -2.08759 -3.96388 0
M  V30 334 C 38.0504 -0.278869 -4.23583 0
M  V30 335 C 35.9574 -2.28525 -5.45463 0
M  V30 336 H 34.8874 -0.139986 -0.740891 0
M  V30 337 H 37.5384 -0.991369 -1.54415 0
M  V30 338 H 35.9204 0.0406256 -3.95979 0
M  V30 339 H 37.0944 -2.8024 -3.6579 0
M  V30 340 H 35.4094 -2.40497 -3.39926 0
M  V30 341 H 38.0064 -0.404599 -5.33167 0
M  V30 342 H 38.3494 0.775012 -4.09022 0
M  V30 343 H 38.8824 -0.909764 -3.87257 0
M  V30 344 H 35.6214 -3.32361 -5.64992 0
M  V30 345 H 35.1414 -1.61569 -5.77629 0
M  V30 346 H 36.8204 -2.10109 -6.11934 0
M  V30 347 N 36.9525 1.47285 -0.560781 0
M  V30 348 C 37.9005 2.31756 0.197942 0
M  V30 349 C 38.8945 1.43146 0.905854 0
M  V30 350 O 40.1005 1.59891 0.826733 0
M  V30 351 H 36.4755 0.747438 0.0827049 0
M  V30 352 H 38.4465 2.9359 -0.533629 0
M  V30 353 C 37.1955 3.25874 1.21249 0
M  V30 354 H 36.5185 3.94023 0.67719 0
M  V30 355 H 37.9585 3.87803 1.71419 0
M  V30 356 C 36.4175 2.49651 2.26221 0
M  V30 357 O 36.9475 2.24355 3.33208 0
M  V30 358 N 35.1535 2.10597 2.00243 0
M  V30 359 H 34.7005 2.31369 1.13252 0
M  V30 360 H 34.6585 1.59913 2.70694 0
M  V30 361 N 38.4306 0.297415 1.54768 0
M  V30 362 C 39.6606 -0.315165 2.04182 0
M  V30 363 C 40.0686 -1.4834 1.17439 0
M  V30 364 O 39.4116 -1.82695 0.191891 0
M  V30 365 C 39.4736 -0.837583 3.49607 0
M  V30 366 C 39.1376 0.204912 4.5654 0
M  V30 367 C 40.1346 1.03214 5.09552 0
M  V30 368 C 37.8196 0.345578 5.0111 0
M  V30 369 C 39.8136 1.986 6.05671 0
M  V30 370 C 37.5006 1.30289 5.97049 0
M  V30 371 C 38.4986 2.12159 6.49213 0
M  V30 372 O 38.1866 3.06268 7.43273 0
M  V30 373 H 37.9186 -0.0729646 0.672051 0
M  V30 374 H 40.4726 0.433907 2.00765 0
M  V30 375 H 38.7026 -1.63712 3.50336 0
M  V30 376 H 40.3916 -1.36566 3.82236 0
M  V30 377 H 41.1576 0.934312 4.75916 0
M  V30 378 H 37.0366 -0.28171 4.60138 0
M  V30 379 H 40.5806 2.62542 6.46311 0
M  V30 380 H 36.4776 1.40145 6.30103 0
M  V30 381 H 37.2456 3.01205 7.61064 0
M  V30 382 N 39.9087 -1.5758 0.0250728 0
M  V30 383 C 41.1367 -1.9593 -0.664747 0
M  V30 384 C 41.5517 -0.901352 -1.65895 0
M  V30 385 O 40.9087 0.117255 -1.82123 0
M  V30 386 C 40.9597 -3.34342 -1.37468 0
M  V30 387 O 40.6807 -4.36079 -0.420324 0
M  V30 388 C 42.1817 -3.873 -2.1567 0
M  V30 389 H 39.4017 -0.645405 -0.183557 0
M  V30 390 H 41.9457 -2.04329 0.0836372 0
M  V30 391 H 40.1007 -3.27175 -2.0745 0
M  V30 392 H 40.5147 -5.16297 -0.923991 0
M  V30 393 H 41.9887 -4.86504 -2.60803 0
M  V30 394 H 42.4657 -3.21331 -2.99405 0
M  V30 395 H 43.0717 -3.97723 -1.50654 0
M  V30 396 N 41.3868 0.248026 -1.55636 0
M  V30 397 C 42.6148 0.993808 -1.81469 0
M  V30 398 C 43.0298 1.78991 -0.60064 0
M  V30 399 O 42.3868 1.77345 0.430682 0
M  V30 400 C 42.4378 1.93258 -3.05506 0
M  V30 401 O 42.1588 1.16869 -4.22224 0
M  V30 402 C 43.6598 2.79444 -3.4413 0
M  V30 403 H 40.8798 0.292486 -0.603898 0
M  V30 404 H 43.4238 0.271253 -2.02693 0
M  V30 405 H 41.5788 2.60943 -2.86335 0
M  V30 406 H 41.9928 1.80359 -4.92515 0
M  V30 407 H 43.4668 3.41066 -4.34026 0
M  V30 408 H 43.9438 3.50499 -2.64665 0
M  V30 409 H 44.5498 2.17214 -3.65648 0
M  V30 410 N 42.8649 1.48995 0.513639 0
M  V30 411 C 44.1139 1.57093 1.2651 0
M  V30 412 C 44.4269 0.257091 1.93903 0
M  V30 413 O 45.6329 0.216478 2.70636 0
M  V30 414 C 44.0889 2.77118 2.29638 0
M  V30 415 C 43.6969 4.15209 1.68241 0
M  V30 416 C 45.4409 2.94538 3.05692 0
M  V30 417 C 43.3479 5.26474 2.69406 0
M  V30 418 H 42.2779 0.584876 0.475854 0
M  V30 419 H 44.9289 1.7536 0.540487 0
M  V30 420 H 43.3109 2.52319 3.05207 0
M  V30 421 H 44.4849 4.50094 0.987505 0
M  V30 422 H 42.7999 4.03042 1.04623 0
M  V30 423 H 45.3969 3.74832 3.8132 0
M  V30 424 H 45.7399 2.04614 3.62545 0
M  V30 425 H 46.2729 3.19316 2.37238 0
M  V30 426 H 43.0119 6.18417 2.17351 0
M  V30 427 H 42.5319 4.96058 3.37175 0
M  V30 428 H 44.2109 5.55277 3.32078 0
M  V30 429 N 44.343 -0.763751 1.37857 0
M  V30 430 C 45.291 -1.89864 1.34367 0
M  V30 431 C 46.285 -1.67816 0.231143 0
M  V30 432 O 47.491 -1.75508 0.399617 0
M  V30 433 H 43.866 -0.624501 0.41893 0
M  V30 434 H 45.837 -1.89925 2.30155 0
M  V30 435 C 44.586 -3.27227 1.1755 0
M  V30 436 H 43.909 -3.44773 2.02414 0
M  V30 437 H 45.349 -4.06911 1.1916 0
M  V30 438 C 43.808 -3.36692 -0.118311 0
M  V30 439 O 44.338 -3.86374 -1.09902 0
M  V30 440 N 42.544 -2.90092 -0.171717 0
M  V30 441 H 42.091 -2.49853 0.627012 0
M  V30 442 H 42.049 -2.96806 -1.03699 0
M  V30 443 N 45.8211 -1.22559 -0.990812 0
M  V30 444 C 47.0511 -1.07623 -1.76355 0
M  V30 445 C 47.4591 0.37601 -1.85426 0
M  V30 446 O 46.8021 1.27228 -1.32509 0
M  V30 447 C 46.8641 -1.61507 -3.21179 0
M  V30 448 C 46.5281 -3.10146 -3.35646 0
M  V30 449 C 47.5251 -4.07553 -3.22796 0
M  V30 450 C 45.2101 -3.49644 -3.60631 0
M  V30 451 C 47.2041 -5.42442 -3.34716 0
M  V30 452 C 44.8911 -4.84682 -3.72192 0
M  V30 453 C 45.8891 -5.8089 -3.59243 0
M  V30 454 O 45.5771 -7.13476 -3.70415 0
M  V30 455 H 45.3091 -0.377745 -0.560611 0
M  V30 456 H 47.8631 -1.62658 -1.25425 0
M  V30 457 H 46.0931 -1.00881 -3.73309 0
M  V30 458 H 47.7821 -1.42202 -3.80175 0
M  V30 459 H 48.5481 -3.78381 -3.03403 0
M  V30 460 H 44.4271 -2.75282 -3.69785 0
M  V30 461 H 47.9711 -6.17518 -3.24526 0
M  V30 462 H 43.8681 -5.13534 -3.91092 0
M  V30 463 H 44.6361 -7.21083 -3.87275 0
M  V30 464 N 47.2992 1.18797 -1.03562 0
M  V30 465 C 48.5292 1.92319 -0.754773 0
M  V30 466 C 48.9372 1.7612 0.691248 0
M  V30 467 O 48.2802 1.08491 1.48241 0
M  V30 468 C 48.3422 3.44284 -1.03484 0
M  V30 469 C 48.0062 3.84258 -2.47376 0
M  V30 470 C 49.0032 3.88459 -3.45537 0
M  V30 471 C 46.6882 4.15701 -2.81954 0
M  V30 472 C 48.6822 4.23545 -4.76328 0
M  V30 473 C 46.3692 4.50458 -4.12954 0
M  V30 474 C 47.3672 4.54356 -5.09951 0
M  V30 475 O 47.0552 4.88305 -6.38603 0
M  V30 476 H 46.7872 0.617527 -0.275021 0
M  V30 477 H 49.3412 1.51683 -1.38497 0
M  V30 478 H 47.5712 3.85135 -0.347513 0
M  V30 479 H 49.2602 3.99049 -0.7426 0
M  V30 480 H 50.0262 3.6431 -3.20162 0
M  V30 481 H 45.9052 4.11847 -2.0713 0
M  V30 482 H 49.4492 4.26502 -5.52035 0
M  V30 483 H 45.3462 4.74067 -4.38099 0
M  V30 484 H 46.1142 5.06227 -6.43177 0
M  V30 485 N 48.7773 0.814389 1.34928 0
M  V30 486 C 49.7243 0.22822 2.29669 0
M  V30 487 C 50.6943 -0.642164 1.53184 0
M  V30 488 O 51.8793 -0.585605 1.81591 0
M  V30 489 C 49.0193 -0.61089 3.3965 0
M  V30 490 C 48.1323 0.280792 4.31086 0
M  V30 491 C 47.2673 -0.567067 5.28165 0
M  V30 492 C 46.3063 0.324531 6.11239 0
M  V30 493 N 45.4433 -0.483756 7.00431 0
M  V30 494 H 50.2833 1.04153 2.79206 0
M  V30 495 H 47.8203 0.525133 1.37407 0
M  V30 496 H 49.7783 -1.11263 4.0209 0
M  V30 497 H 48.4083 -1.38939 2.91369 0
M  V30 498 H 47.4603 0.900688 3.69583 0
M  V30 499 H 48.7723 0.966723 4.89342 0
M  V30 500 H 47.9263 -1.13363 5.96015 0
M  V30 501 H 46.6653 -1.28654 4.70425 0
M  V30 502 H 45.6703 0.903298 5.42329 0
M  V30 503 H 46.8953 1.04198 6.71059 0
M  V30 504 H 44.8413 -1.18706 6.45171 0
M  V30 505 H 44.7583 0.143965 7.55863 0
M  V30 506 H 46.0263 -1.03334 7.7262 0
M  V30 507 N 50.2554 -1.46986 0.568584 0
M  V30 508 C 51.5324 -1.95592 -0.0174074 0
M  V30 509 C 51.9124 -1.51124 -1.47393 0
M  V30 510 O 51.2604 -0.755329 -2.15655 0
M  V30 511 C 51.4704 -3.48719 0.139913 0
M  V30 512 C 52.8184 -4.246 0.000426376 0
M  V30 513 O 53.8424 -3.56135 0.0680316 0
M  V30 514 O 52.7014 -5.46302 -0.146988 0
M  V30 515 H 49.7954 -0.82498 -0.0577599 0
M  V30 516 H 52.3414 -1.57335 0.635909 0
M  V30 517 H 51.1134 -3.73927 1.15301 0
M  V30 518 H 50.7364 -3.93771 -0.550491 0
M  V30 519 N 51.7335 -0.305618 -1.54608 0
M  V30 520 C 52.9585 0.307562 -2.05107 0
M  V30 521 C 53.3835 1.46385 -1.18123 0
M  V30 522 O 52.7415 1.8034 -0.186324 0
M  V30 523 C 52.7895 0.73704 -3.52987 0
M  V30 524 O 51.8935 1.84134 -3.6901 0
M  V30 525 H 51.2345 0.0589143 -0.661381 0
M  V30 526 H 53.7645 -0.448807 -1.99617 0
M  V30 527 H 53.7745 1.02459 -3.94925 0
M  V30 528 H 52.4495 -0.108773 -4.15758 0
M  V30 529 H 51.0265 1.55398 -3.38978 0
M  V30 530 N 53.2116 1.57565 -0.0334293 0
M  V30 531 C 54.1746 2.09393 0.932048 0
M  V30 532 C 55.1746 1.00986 1.25134 0
M  V30 533 O 56.3646 1.27129 1.19096 0
M  V30 534 C 53.4966 2.56338 2.2473 0
M  V30 535 H 54.6896 2.95984 0.483085 0
M  V30 536 H 52.2426 1.54819 0.21468 0
M  V30 537 H 52.9776 1.7309 2.74245 0
M  V30 538 H 52.7626 3.35542 2.02865 0
M  V30 539 H 54.2526 2.96646 2.93923 0
M  V30 540 N 54.6897 -0.239769 1.55765 0
M  V30 541 C 55.9147 -0.988373 1.82335 0
M  V30 542 C 56.3397 -1.77886 0.611421 0
M  V30 543 O 55.6977 -1.75889 -0.439639 0
M  V30 544 C 55.7457 -1.89627 3.06715 0
M  V30 545 O 54.8497 -2.98904 2.84131 0
M  V30 546 H 54.1907 -0.280858 0.601677 0
M  V30 547 H 56.7207 -0.258597 2.02959 0
M  V30 548 H 56.7307 -2.30957 3.36338 0
M  V30 549 H 55.4057 -1.31511 3.9456 0
M  V30 550 H 53.9827 -2.61651 2.65694 0
M  V30 551 N 56.1678 -1.49265 -0.50573 0
M  V30 552 C 57.1158 -1.66065 -1.62866 0
M  V30 553 C 58.1098 -0.526636 -1.61006 0
M  V30 554 O 59.3158 -0.706126 -1.65571 0
M  V30 555 H 55.6908 -0.52356 -0.539805 0
M  V30 556 H 57.6618 -2.60329 -1.45848 0
M  V30 557 C 56.4108 -1.74008 -3.01026 0
M  V30 558 H 55.7338 -2.6064 -3.03161 0
M  V30 559 H 57.1738 -1.89798 -3.79147 0
M  V30 560 C 55.6328 -0.483868 -3.33407 0
M  V30 561 O 56.1628 0.392548 -3.99777 0
M  V30 562 N 54.3688 -0.348236 -2.88506 0
M  V30 563 H 53.9158 -1.06242 -2.34671 0
M  V30 564 H 53.8738 0.491204 -3.10539 0
M  V30 565 N 57.6459 0.756429 -1.3826 0
M  V30 566 C 58.6089 1.85176 -1.35065 0
M  V30 567 C 59.6089 1.58818 -0.251703 0
M  V30 568 O 60.7989 1.66615 -0.508433 0
M  V30 569 C 57.9309 3.22596 -1.10201 0
M  V30 570 H 59.1239 1.89417 -2.3251 0
M  V30 571 H 56.6769 0.95783 -1.23512 0
M  V30 572 H 57.4119 3.24025 -0.133504 0
M  V30 573 H 57.1969 3.43122 -1.89762 0
M  V30 574 H 58.6869 4.02673 -1.10654 0
M  V30 575 N 59.124 1.23083 0.984299 0
M  V30 576 C 60.087 1.00979 2.05757 0
M  V30 577 C 61.087 -0.0269573 1.60777 0
M  V30 578 O 62.277 0.212403 1.729 0
M  V30 579 C 59.409 0.527072 3.36801 0
M  V30 580 H 60.602 1.9622 2.26799 0
M  V30 581 H 58.155 1.05072 1.15714 0
M  V30 582 H 58.89 -0.429294 3.21446 0
M  V30 583 H 58.675 1.27515 3.70786 0
M  V30 584 H 60.165 0.392942 4.15747 0
M  V30 585 N 60.6021 -1.18246 1.0419 0
M  V30 586 C 61.8271 -1.92736 0.765996 0
M  V30 587 C 62.2521 -1.75728 -0.67091 0
M  V30 588 O 61.6101 -1.06825 -1.46486 0
M  V30 589 C 61.6581 -3.42148 1.13875 0
M  V30 590 O 60.7621 -4.11548 0.264954 0
M  V30 591 H 60.1031 -0.601238 0.281797 0
M  V30 592 H 62.6331 -1.49942 1.39207 0
M  V30 593 H 62.6431 -3.92858 1.1012 0
M  V30 594 H 61.3181 -3.53848 2.18551 0
M  V30 595 H 59.8951 -3.71137 0.362226 0
M  V30 596 N 62.0802 -0.821533 -1.34494 0
M  V30 597 C 63.0272 -0.240397 -2.29545 0
M  V30 598 C 63.9972 0.634031 -1.53523 0
M  V30 599 O 65.1822 0.575966 -1.81899 0
M  V30 600 C 62.3222 0.592869 -3.39969 0
M  V30 601 C 61.4352 -0.30365 -4.30932 0
M  V30 602 C 60.5702 0.539049 -5.28458 0
M  V30 603 C 59.6092 -0.356942 -6.11058 0
M  V30 604 N 58.7462 0.446603 -7.00678 0
M  V30 605 H 63.5862 -1.05632 -2.7865 0
M  V30 606 H 61.1232 -0.532413 -1.37127 0
M  V30 607 H 63.0812 1.09129 -4.02675 0
M  V30 608 H 61.7112 1.37392 -2.92102 0
M  V30 609 H 60.7632 -0.920276 -3.691 0
M  V30 610 H 62.0752 -0.992661 -4.88823 0
M  V30 611 H 61.2292 1.102 -5.96608 0
M  V30 612 H 59.9682 1.26157 -4.71101 0
M  V30 613 H 58.9732 -0.932047 -5.41842 0
M  V30 614 H 60.1982 -1.07755 -6.70497 0
M  V30 615 H 58.1442 1.15282 -6.45791 0
M  V30 616 H 58.0612 -0.184048 -7.55776 0
M  V30 617 H 59.3292 0.992352 -7.73158 0
M  V30 618 N 63.5583 1.46682 -0.576371 0
M  V30 619 C 64.4903 2.28341 0.198231 0
M  V30 620 C 65.5033 1.38141 0.861453 0
M  V30 621 O 66.6923 1.62797 0.732082 0
M  V30 622 C 63.7923 3.12986 1.29972 0
M  V30 623 C 62.9653 4.31271 0.729639 0
M  V30 624 C 62.0243 4.97363 1.71803 0
M  V30 625 O 61.0503 5.55156 1.25658 0
M  V30 626 N 62.2523 4.93796 3.05198 0
M  V30 627 H 65.0173 2.9546 -0.502324 0
M  V30 628 H 62.5783 1.56525 -0.413715 0
M  V30 629 H 64.5703 3.54066 1.96008 0
M  V30 630 H 63.1403 2.47984 1.90323 0
M  V30 631 H 62.3603 3.94052 -0.108012 0
M  V30 632 H 63.6483 5.07739 0.328438 0
M  V30 633 H 63.0463 4.48077 3.45317 0
M  V30 634 H 61.6033 5.38837 3.6674 0
M  V30 635 N 65.0364 0.313813 1.54444 0
M  V30 636 C 66.3134 -0.345447 1.92525 0
M  V30 637 C 66.6934 -1.70667 1.24242 0
M  V30 638 O 66.0414 -2.25273 0.382654 0
M  V30 639 C 66.2514 -0.44737 3.46121 0
M  V30 640 C 67.5994 -0.712238 4.18584 0
M  V30 641 O 68.6234 -0.530678 3.52225 0
M  V30 642 O 67.4824 -1.06183 5.36085 0
M  V30 643 H 64.5764 -0.195407 0.803583 0
M  V30 644 H 67.1224 0.362813 1.65776 0
M  V30 645 H 65.8944 0.509043 3.87975 0
M  V30 646 H 65.5174 -1.20359 3.78945 0
M  V30 647 N 66.5145 -1.57545 0.0417849 0
M  V30 648 C 67.7445 -1.96339 -0.642995 0
M  V30 649 C 68.1525 -0.917536 -1.65463 0
M  V30 650 O 67.4955 0.107747 -1.83384 0
M  V30 651 C 67.5575 -3.31333 -1.39494 0
M  V30 652 C 67.2215 -4.53796 -0.540204 0
M  V30 653 C 68.2185 -5.19553 0.189806 0
M  V30 654 C 65.9035 -5.0006 -0.473886 0
M  V30 655 C 67.8975 -6.29904 0.974674 0
M  V30 656 C 65.5845 -6.10289 0.314677 0
M  V30 657 C 66.5825 -6.75072 1.03765 0
M  V30 658 O 66.2705 -7.83183 1.81327 0
M  V30 659 H 66.0025 -0.651241 -0.181277 0
M  V30 660 H 68.5565 -2.05148 0.101665 0
M  V30 661 H 66.7865 -3.19052 -2.18502 0
M  V30 662 H 68.4755 -3.54942 -1.96904 0
M  V30 663 H 69.2415 -4.84774 0.147981 0
M  V30 664 H 65.1205 -4.49433 -1.0262 0
M  V30 665 H 68.6645 -6.80401 1.5395 0
M  V30 666 H 64.5615 -6.44506 0.358174 0
M  V30 667 H 65.3295 -7.99913 1.73438 0
M  V30 668 N 67.9926 0.231505 -1.5589 0
M  V30 669 C 69.2176 0.978689 -1.82856 0
M  V30 670 C 69.6426 1.77559 -0.620846 0
M  V30 671 O 69.0006 1.76119 0.430305 0
M  V30 672 C 69.0486 1.87997 -3.07716 0
M  V30 673 O 68.1526 2.97393 -2.85712 0
M  V30 674 H 67.4936 0.277663 -0.603158 0
M  V30 675 H 70.0236 0.24783 -2.03093 0
M  V30 676 H 70.0336 2.2917 -3.37558 0
M  V30 677 H 68.7086 1.29417 -3.95252 0
M  V30 678 H 67.2856 2.60238 -2.67078 0
M  V30 679 N 69.4707 1.49531 0.497807 0
M  V30 680 C 70.4027 1.62559 1.61578 0
M  V30 681 C 71.4157 0.508134 1.54667 0
M  V30 682 O 72.6047 0.780309 1.60541 0
M  V30 683 C 69.7047 1.56925 3.00379 0
M  V30 684 C 68.8777 2.84257 3.3244 0
M  V30 685 C 67.9367 2.71632 4.50669 0
M  V30 686 O 66.9627 3.4557 4.52294 0
M  V30 687 N 68.1647 1.83391 5.5077 0
M  V30 688 H 70.9297 2.58981 1.50828 0
M  V30 689 H 68.4907 1.4666 0.685743 0
M  V30 690 H 70.4827 1.46129 3.77397 0
M  V30 691 H 69.0527 0.683483 3.05037 0
M  V30 692 H 68.2727 3.09381 2.44289 0
M  V30 693 H 69.5607 3.68666 3.5066 0
M  V30 694 H 68.9587 1.22583 5.52259 0
M  V30 695 H 67.5157 1.78515 6.26878 0
M  V30 696 N 70.9488 -0.749086 1.3866 0
M  V30 697 C 72.2258 -1.4992 1.25632 0
M  V30 698 C 72.6058 -2.10633 -0.140317 0
M  V30 699 O 71.9538 -1.97437 -1.15025 0
M  V30 700 C 72.1638 -2.56195 2.36992 0
M  V30 701 C 73.5118 -3.22972 2.75634 0
M  V30 702 O 74.5358 -2.66502 2.36337 0
M  V30 703 O 73.3948 -4.25122 3.43415 0
M  V30 704 H 70.4888 -0.665067 0.491544 0
M  V30 705 H 73.0348 -0.784113 1.50498 0
M  V30 706 H 71.8068 -2.09612 3.30422 0
M  V30 707 H 71.4298 -3.35279 2.13714 0
M  V30 708 N 72.4269 -1.23603 -0.977757 0
M  V30 709 C 73.8379 -1.06424 -1.53398 0
M  V30 710 C 74.1889 0.367578 -1.92726 0
M  V30 711 O 73.3139 1.25465 -1.76316 0
M  V30 712 C 73.9089 -1.92568 -2.78753 0
M  V30 713 C 72.4679 -1.79642 -3.30765 0
M  V30 714 C 71.6149 -1.88111 -2.03739 0
M  V30 715 H 74.5659 -1.37227 -0.797152 0
M  V30 716 H 74.5869 -1.45203 -3.51705 0
M  V30 717 H 74.0989 -2.96771 -2.50098 0
M  V30 718 H 72.1999 -0.782325 -3.64294 0
M  V30 719 H 72.3129 -2.63174 -4.00345 0
M  V30 720 H 70.6769 -1.31723 -2.17994 0
M  V30 721 H 71.4599 -2.93875 -1.77461 0
M  V30 722 N 73.905 1.17692 -1.04816 0
M  V30 723 C 75.13 1.92327 -0.776207 0
M  V30 724 C 75.555 1.76082 0.661581 0
M  V30 725 O 74.913 1.076 1.45917 0
M  V30 726 C 74.961 3.41539 -1.15687 0
M  V30 727 O 74.065 4.11402 -0.286775 0
M  V30 728 H 73.406 0.599735 -0.284981 0
M  V30 729 H 75.936 1.49201 -1.4 0
M  V30 730 H 75.946 3.92269 -1.12202 0
M  V30 731 H 74.621 3.52684 -2.20425 0
M  V30 732 H 73.198 3.70939 -0.381903 0
M  V30 733 N 75.3831 0.828654 1.34056 0
M  V30 734 C 76.3301 0.252567 2.29414 0
M  V30 735 C 77.3001 -0.62588 1.53857 0
M  V30 736 O 78.4851 -0.566312 1.82202 0
M  V30 737 C 75.6251 -0.574831 3.40279 0
M  V30 738 C 74.7381 0.326499 4.30764 0
M  V30 739 C 73.8731 -0.511016 5.28736 0
M  V30 740 C 72.9121 0.389342 6.1086 0
M  V30 741 N 72.0491 -0.409439 7.00905 0
M  V30 742 H 76.8891 1.07108 2.78086 0
M  V30 743 H 74.4261 0.539677 1.36843 0
M  V30 744 H 76.3841 -1.06992 4.03248 0
M  V30 745 H 75.0141 -1.35841 2.92826 0
M  V30 746 H 74.0661 0.939837 3.68607 0
M  V30 747 H 75.3781 1.01857 4.88289 0
M  V30 748 H 74.5321 -1.07035 5.97184 0
M  V30 749 H 73.2711 -1.23657 4.71763 0
M  V30 750 H 72.2761 0.960769 5.4134 0
M  V30 751 H 73.5011 1.1131 6.69916 0
M  V30 752 H 71.4471 -1.11856 6.46393 0
M  V30 753 H 71.3641 0.224126 7.55668 0
M  V30 754 H 72.6321 -0.951336 7.73673 0
M  V30 755 N 76.8612 -1.46375 0.584142 0
M  V30 756 C 78.1082 -2.02378 0.0702675 0
M  V30 757 C 78.4362 -1.45545 -1.29023 0
M  V30 758 O 77.6912 -0.610967 -1.85918 0
M  V30 759 C 77.9902 -3.57373 -0.0439342 0
M  V30 760 C 77.6562 -4.33252 1.24915 0
M  V30 761 C 76.3182 -4.53701 1.60341 0
M  V30 762 C 78.6702 -4.7681 2.1048 0
M  V30 763 C 75.9982 -5.1496 2.81128 0
M  V30 764 C 78.3502 -5.39404 3.30494 0
M  V30 765 C 77.0142 -5.5808 3.66201 0
M  V30 766 H 76.2842 -0.740554 0.0257127 0
M  V30 767 H 78.9312 -1.75727 0.761065 0
M  V30 768 H 77.2362 -3.83169 -0.817869 0
M  V30 769 H 78.9332 -3.98384 -0.457318 0
M  V30 770 H 75.5232 -4.17633 0.963364 0
M  V30 771 H 79.7072 -4.60766 1.84414 0
M  V30 772 H 74.9632 -5.27611 3.08928 0
M  V30 773 H 79.1372 -5.72114 3.97063 0
M  V30 774 H 76.7642 -6.05318 4.59885 0
M  V30 775 N 78.3393 -0.321999 -1.54275 0
M  V30 776 C 79.5673 0.283052 -2.04955 0
M  V30 777 C 79.9823 1.45904 -1.19823 0
M  V30 778 O 79.3393 1.81063 -0.228545 0
M  V30 779 C 79.3903 0.719028 -3.54277 0
M  V30 780 O 79.1113 -0.410175 -4.36176 0
M  V30 781 C 80.6123 1.38705 -4.21041 0
M  V30 782 H 77.8323 0.0584616 -0.668448 0
M  V30 783 H 80.3763 -0.467734 -1.99079 0
M  V30 784 H 78.5313 1.41979 -3.60445 0
M  V30 785 H 78.9453 -0.0669416 -5.24457 0
M  V30 786 H 80.4193 1.64306 -5.2698 0
M  V30 787 H 80.8963 2.33385 -3.72059 0
M  V30 788 H 81.5023 0.728906 -4.19007 0
M  V30 789 N 79.8174 1.5752 -0.0501392 0
M  V30 790 C 80.7274 2.14952 0.939827 0
M  V30 791 C 81.7434 1.10706 1.34239 0
M  V30 792 O 82.9194 1.42869 1.41952 0
M  V30 793 C 79.9844 2.68232 2.19665 0
M  V30 794 C 79.0454 3.87272 1.85253 0
M  V30 795 C 78.2784 4.38002 3.04943 0
M  V30 796 O 78.5014 3.87811 4.18281 0
M  V30 797 O 77.4354 5.29602 2.86017 0
M  V30 798 H 81.2614 2.9986 0.481392 0
M  V30 799 H 78.8464 1.4841 0.171699 0
M  V30 800 H 80.7284 3.02475 2.93406 0
M  V30 801 H 79.4034 1.86395 2.64648 0
M  V30 802 H 78.3104 3.5792 1.0883 0
M  V30 803 H 79.6434 4.70336 1.4507 0
M  V30 804 N 81.2955 -0.223234 1.56011 0
M  V30 805 C 82.7065 -0.790368 1.69145 0
M  V30 806 C 83.0575 -1.85055 0.651845 0
M  V30 807 O 82.1825 -2.15498 -0.197359 0
M  V30 808 C 82.7775 -1.4404 3.06656 0
M  V30 809 C 81.3365 -1.95494 3.2165 0
M  V30 810 C 80.4835 -0.814506 2.65068 0
M  V30 811 H 83.4345 0.00139011 1.587 0
M  V30 812 H 83.4555 -2.30916 3.0242 0
M  V30 813 H 82.9675 -0.668543 3.82298 0
M  V30 814 H 81.0685 -2.75487 2.50874 0
M  V30 815 H 81.1815 -2.13607 4.28846 0
M  V30 816 H 79.5455 -1.22137 2.23505 0
M  V30 817 H 80.3285 -0.0553515 3.43255 0
M  V30 818 N 82.7736 -1.49793 -0.48987 0
M  V30 819 C 83.7036 -1.70201 -1.59856 0
M  V30 820 C 84.6846 -0.55076 -1.60937 0
M  V30 821 O 85.8696 -0.787841 -1.77501 0
M  V30 822 C 82.9996 -1.77882 -2.98287 0
M  V30 823 C 81.9536 -2.92907 -3.12073 0
M  V30 824 C 81.2796 -2.85712 -4.51965 0
M  V30 825 C 82.5796 -4.3369 -2.91051 0
M  V30 826 H 84.2736 -2.63025 -1.43032 0
M  V30 827 H 81.8196 -1.26574 -0.686664 0
M  V30 828 H 83.7726 -1.90744 -3.75759 0
M  V30 829 H 82.4966 -0.816653 -3.16225 0
M  V30 830 H 81.1556 -2.79665 -2.37029 0
M  V30 831 H 80.8036 -1.8738 -4.66795 0
M  V30 832 H 80.5036 -3.62921 -4.62128 0
M  V30 833 H 82.0276 -3.00598 -5.31482 0
M  V30 834 H 83.4416 -4.47555 -3.58284 0
M  V30 835 H 81.8386 -5.12205 -3.12675 0
M  V30 836 H 82.9086 -4.47362 -1.87071 0
M  V30 837 N 84.2517 0.741722 -1.39055 0
M  V30 838 C 85.1987 1.85566 -1.37237 0
M  V30 839 C 86.1687 1.64457 -0.233072 0
M  V30 840 O 87.3537 1.85957 -0.427147 0
M  V30 841 C 84.4937 3.23004 -1.215 0
M  V30 842 C 83.6067 3.55864 -2.44918 0
M  V30 843 C 82.7417 4.82669 -2.21821 0
M  V30 844 C 81.7807 5.08351 -3.40948 0
M  V30 845 N 80.9177 6.26356 -3.17211 0
M  V30 846 H 85.7577 1.86455 -2.32462 0
M  V30 847 H 83.2947 0.911176 -1.15482 0
M  V30 848 H 85.2527 4.02331 -1.10389 0
M  V30 849 H 83.8827 3.21411 -0.29908 0
M  V30 850 H 82.9347 2.7129 -2.66657 0
M  V30 851 H 84.2467 3.70765 -3.33668 0
M  V30 852 H 83.4007 5.69962 -2.07914 0
M  V30 853 H 82.1397 4.69929 -1.30454 0
M  V30 854 H 81.1447 4.19522 -3.55361 0
M  V30 855 H 82.3697 5.22981 -4.33207 0
M  V30 856 H 80.3157 6.14917 -2.28502 0
M  V30 857 H 80.2327 6.41813 -3.99515 0
M  V30 858 H 81.5007 7.16506 -3.06984 0
M  V30 859 N 85.7298 1.2412 0.971189 0
M  V30 860 C 87.0068 0.986867 1.6888 0
M  V30 861 C 87.3868 -0.491857 2.0529 0
M  V30 862 O 86.7348 -1.46531 1.75331 0
M  V30 863 C 86.9448 1.9063 2.92338 0
M  V30 864 C 88.2928 2.17515 3.64654 0
M  V30 865 O 89.3168 1.88254 3.02388 0
M  V30 866 O 88.1758 2.6719 4.7673 0
M  V30 867 H 85.2698 0.372944 0.738134 0
M  V30 868 H 87.8158 1.35203 1.02559 0
M  V30 869 H 86.5878 2.90552 2.62097 0
M  V30 870 H 86.2108 1.54408 3.66393 0
M  V30 871 N 87.2079 -1.17134 1.05439 0
M  V30 872 C 88.4539 -1.87733 0.767077 0
M  V30 873 C 88.7869 -1.8098 -0.704253 0
M  V30 874 O 88.0619 -1.21951 -1.5152 0
M  V30 875 C 88.3449 -3.37659 1.25133 0
M  V30 876 C 88.1979 -3.53149 2.78578 0
M  V30 877 C 89.5169 -4.31768 0.852324 0
M  V30 878 H 86.6359 -0.681687 0.280129 0
M  V30 879 H 89.2779 -1.37732 1.30881 0
M  V30 880 H 87.4279 -3.80373 0.790469 0
M  V30 881 H 89.0999 -3.19434 3.32806 0
M  V30 882 H 87.3429 -2.95345 3.17732 0
M  V30 883 H 88.0139 -4.58403 3.07523 0
M  V30 884 H 90.4899 -3.96909 1.24911 0
M  V30 885 H 89.3659 -5.35199 1.21873 0
M  V30 886 H 89.6269 -4.41429 -0.243485 0
M  V30 887 N 88.686 -0.835752 -1.33615 0
M  V30 888 C 89.616 -0.281739 -2.31794 0
M  V30 889 C 90.597 0.608833 -1.58831 0
M  V30 890 O 91.782 0.533035 -1.86741 0
M  V30 891 C 88.912 0.546612 -3.42971 0
M  V30 892 C 87.866 -0.247904 -4.27281 0
M  V30 893 C 87.192 0.704001 -5.30045 0
M  V30 894 C 88.492 -1.46324 -5.01385 0
M  V30 895 H 90.186 -1.10206 -2.78379 0
M  V30 896 H 87.732 -0.531388 -1.33837 0
M  V30 897 H 89.685 0.944467 -4.1068 0
M  V30 898 H 88.409 1.40011 -2.95067 0
M  V30 899 H 87.068 -0.627281 -3.61194 0
M  V30 900 H 86.716 1.55381 -4.78399 0
M  V30 901 H 86.416 0.176524 -5.87335 0
M  V30 902 H 87.94 1.09944 -6.0062 0
M  V30 903 H 89.354 -1.13871 -5.61877 0
M  V30 904 H 87.751 -1.92728 -5.6831 0
M  V30 905 H 88.821 -2.23467 -4.30338 0
M  V30 906 N 90.1641 1.46063 -0.591896 0
M  V30 907 C 91.4131 2.01547 -0.0786637 0
M  V30 908 C 91.7261 1.46796 1.29268 0
M  V30 909 O 92.9321 1.94157 1.89777 0
M  V30 910 C 91.3881 3.59787 -0.0900024 0
M  V30 911 C 90.9961 4.23534 -1.46023 0
M  V30 912 C 92.7401 4.22895 0.368806 0
M  V30 913 C 90.6471 5.73881 -1.4288 0
M  V30 914 H 89.5771 0.753564 -0.0256388 0
M  V30 915 H 92.2281 1.677 -0.744905 0
M  V30 916 H 90.6101 3.90752 0.642586 0
M  V30 917 H 91.7841 4.04167 -2.21328 0
M  V30 918 H 90.0991 3.72558 -1.85982 0
M  V30 919 H 92.6961 5.33116 0.411258 0
M  V30 920 H 93.0391 3.9247 1.38827 0
M  V30 921 H 93.5721 3.9659 -0.31001 0
M  V30 922 H 90.3111 6.0898 -2.42536 0
M  V30 923 H 89.8311 5.95486 -0.718095 0
M  V30 924 H 91.5101 6.36776 -1.14565 0
M  V30 925 N 91.6422 0.330177 1.54103 0
M  V30 926 C 92.5892 -0.532762 2.24567 0
M  V30 927 C 93.5592 -1.10635 1.23892 0
M  V30 928 O 94.7442 -1.14546 1.5259 0
M  V30 929 C 91.8842 -1.6845 3.01195 0
M  V30 930 C 90.9972 -1.13951 4.167 0
M  V30 931 C 90.1322 -2.25746 4.80845 0
M  V30 932 C 89.1712 -1.6853 5.88442 0
M  V30 933 N 88.3082 -2.74014 6.46421 0
M  V30 934 H 93.1482 0.0746905 2.97906 0
M  V30 935 H 90.6852 0.048632 1.4702 0
M  V30 936 H 92.6432 -2.36234 3.43874 0
M  V30 937 H 91.2732 -2.26314 2.30178 0
M  V30 938 H 90.3252 -0.35301 3.78758 0
M  V30 939 H 91.6372 -0.680892 4.94131 0
M  V30 940 H 90.7912 -3.01422 5.26526 0
M  V30 941 H 89.5302 -2.74947 4.0281 0
M  V30 942 H 88.5352 -0.913543 5.42157 0
M  V30 943 H 89.7602 -1.20198 6.68378 0
M  V30 944 H 87.7062 -3.22494 5.71256 0
M  V30 945 H 87.6232 -2.32735 7.19285 0
M  V30 946 H 88.8912 -3.49499 6.96757 0
M  V30 947 N 93.1203 -1.57491 0.0584922 0
M  V30 948 C 94.3483 -1.97296 -0.623037 0
M  V30 949 C 94.7633 -0.936338 -1.63946 0
M  V30 950 O 94.1203 0.0785981 -1.82331 0
M  V30 951 C 94.1713 -3.37183 -1.30345 0
M  V30 952 O 93.8923 -4.36872 -0.32773 0
M  V30 953 C 95.3933 -3.91788 -2.07406 0
M  V30 954 H 92.6133 -0.649153 -0.169826 0
M  V30 955 H 95.1573 -2.04106 0.12696 0
M  V30 956 H 93.3123 -3.31502 -2.00463 0
M  V30 957 H 93.7263 -5.18141 -0.814269 0
M  V30 958 H 95.2003 -4.91926 -2.50425 0
M  V30 959 H 95.6773 -3.27609 -2.92521 0
M  V30 960 H 96.2833 -4.00829 -1.42184 0
M  V30 961 N 94.5984 0.214957 -1.56127 0
M  V30 962 C 95.5614 1.24997 -1.92116 0
M  V30 963 C 96.5614 1.39467 -0.800344 0
M  V30 964 O 97.7514 1.37619 -1.06802 0
M  V30 965 C 94.8834 2.62271 -2.17777 0
M  V30 966 H 96.0764 0.942875 -2.84693 0
M  V30 967 H 93.6294 0.455654 -1.49511 0
M  V30 968 H 94.3644 2.98068 -1.27773 0
M  V30 969 H 94.1494 2.53143 -2.99434 0
M  V30 970 H 95.6394 3.36946 -2.46693 0
M  V30 971 N 96.0765 1.50051 0.48192 0
M  V30 972 C 97.4875 1.5348 1.06305 0
M  V30 973 C 97.8385 0.331997 1.93371 0
M  V30 974 O 96.9635 -0.556256 2.09129 0
M  V30 975 C 97.5585 2.7813 1.93466 0
M  V30 976 C 96.1175 2.84275 2.46707 0
M  V30 977 C 95.2645 2.47637 1.24785 0
M  V30 978 H 98.2155 1.56472 0.264995 0
M  V30 979 H 98.2365 2.59372 2.78399 0
M  V30 980 H 97.7485 3.65654 1.30072 0
M  V30 981 H 95.8495 2.01077 3.13686 0
M  V30 982 H 95.9625 3.8691 2.82555 0
M  V30 983 H 94.3265 1.99835 1.57918 0
M  V30 984 H 95.1095 3.37457 0.630694 0
M  V30 985 N 97.5546 -0.734337 1.39446 0
M  V30 986 C 98.5176 -1.83004 1.37994 0
M  V30 987 C 99.5176 -1.58397 0.276938 0
M  V30 988 O 100.708 -1.65785 0.534875 0
M  V30 989 C 97.8396 -3.20802 1.1532 0
M  V30 990 H 99.0326 -1.85694 2.35494 0
M  V30 991 H 96.5856 -0.938059 1.25021 0
M  V30 992 H 97.3206 -3.23772 0.185036 0
M  V30 993 H 97.1056 -3.4006 1.95197 0
M  V30 994 H 98.5956 -4.00862 1.17046 0
M  V30 995 N 99.0327 -1.24633 -0.964593 0
M  V30 996 C 99.9627 -1.06611 -2.07741 0
M  V30 997 C 100.944 0.0218666 -1.70086 0
M  V30 998 O 102.129 -0.145793 -1.93652 0
M  V30 999 C 99.2587 -0.673444 -3.40708 0
M  V30 1000 C 98.2127 -1.71054 -3.92332 0
M  V30 1001 C 97.5387 -1.17285 -5.21678 0
M  V30 1002 C 98.8387 -3.10718 -4.19824 0
M  V30 1003 H 100.533 -1.99693 -2.23076 0
M  V30 1004 H 98.0787 -0.96152 -1.07195 0
M  V30 1005 H 100.032 -0.534345 -4.17998 0
M  V30 1006 H 98.7557 0.293073 -3.25282 0
M  V30 1007 H 97.4147 -1.83791 -3.17201 0
M  V30 1008 H 97.0627 -0.196847 -5.02615 0
M  V30 1009 H 96.7627 -1.86592 -5.57187 0
M  V30 1010 H 98.2867 -1.04593 -6.01575 0
M  V30 1011 H 99.7007 -3.01192 -4.87808 0
M  V30 1012 H 98.0977 -3.77406 -4.66567 0
M  V30 1013 H 99.1677 -3.58524 -3.26479 0
M  V30 1014 N 100.511 1.16574 -1.06058 0
M  V30 1015 C 101.459 2.22941 -0.663343 0
M  V30 1016 C 102.453 1.66358 0.319593 0
M  V30 1017 O 103.659 1.7905 0.184713 0
M  V30 1018 H 100.034 0.725907 -0.196376 0
M  V30 1019 H 102.005 2.53736 -1.57037 0
M  V30 1020 C 100.754 3.47642 -0.0632808 0
M  V30 1021 H 100.077 3.91493 -0.810733 0
M  V30 1022 H 101.517 4.2363 0.177177 0
M  V30 1023 C 99.9758 3.1509 1.19248 0
M  V30 1024 O 100.506 3.30673 2.28075 0
M  V30 1025 N 98.7118 2.6924 1.09353 0
M  V30 1026 H 98.2588 2.5676 0.207912 0
M  V30 1027 H 98.2168 2.47833 1.93458 0
M  V30 1028 N 101.989 0.842826 1.3317 0
M  V30 1029 C 103.214 0.453129 2.02389 0
M  V30 1030 C 103.639 -0.939105 1.6298 0
M  V30 1031 O 102.997 -1.61472 0.8244 0
M  V30 1032 C 103.045 0.586094 3.55805 0
M  V30 1033 O 102.149 -0.386029 4.10589 0
M  V30 1034 H 101.49 0.183664 0.638094 0
M  V30 1035 H 104.02 1.13875 1.69981 0
M  V30 1036 H 104.03 0.469209 4.05293 0
M  V30 1037 H 102.705 1.6014 3.83833 0
M  V30 1038 H 101.282 -0.226371 3.72212 0
M  V30 1039 N 103.467 -1.45747 0.599634 0
M  V30 1040 C 104.878 -1.85853 0.177681 0
M  V30 1041 C 105.229 -1.50102 -1.26348 0
M  V30 1042 O 104.354 -0.923905 -1.95686 0
M  V30 1043 C 104.949 -3.37326 0.315688 0
M  V30 1044 C 103.508 -3.76365 -0.0515144 0
M  V30 1045 C 102.655 -2.69722 0.643822 0
M  V30 1046 H 105.606 -1.36661 0.806814 0
M  V30 1047 H 105.627 -3.77778 -0.454321 0
M  V30 1048 H 105.139 -3.63315 1.36468 0
M  V30 1049 H 103.24 -3.55993 -1.09999 0
M  V30 1050 H 103.353 -4.77916 0.336594 0
M  V30 1051 H 101.717 -2.54567 0.0822881 0
M  V30 1052 H 102.5 -2.98549 1.6948 0
M  V30 1053 N 104.945 -0.338344 -1.53925 0
M  V30 1054 C 105.893 0.536231 -2.26335 0
M  V30 1055 C 106.887 1.1063 -1.28286 0
M  V30 1056 O 108.093 1.05264 -1.46012 0
M  V30 1057 H 104.468 0.191602 -0.727181 0
M  V30 1058 H 106.439 -0.0965747 -2.98244 0
M  V30 1059 C 105.188 1.67803 -3.04528 0
M  V30 1060 H 104.511 1.24864 -3.79801 0
M  V30 1061 H 105.951 2.26526 -3.58416 0
M  V30 1062 C 104.41 2.60439 -2.13712 0
M  V30 1063 O 104.94 3.6255 -1.72975 0
M  V30 1064 N 103.146 2.29006 -1.78898 0
M  V30 1065 H 102.693 1.46011 -2.12223 0
M  V30 1066 H 102.651 2.91248 -1.18416 0
M  V30 1067 N 106.423 1.57458 -0.0668435 0
M  V30 1068 C 107.669 1.93587 0.6043 0
M  V30 1069 C 108.002 0.946722 1.69561 0
M  V30 1070 O 107.277 -0.0248516 1.94484 0
M  V30 1071 C 107.56 3.40014 1.18585 0
M  V30 1072 C 107.413 4.49685 0.101529 0
M  V30 1073 C 108.732 3.87154 2.09284 0
M  V30 1074 H 105.851 0.703958 0.218202 0
M  V30 1075 H 108.493 1.89542 -0.131804 0
M  V30 1076 H 106.643 3.43592 1.81319 0
M  V30 1077 H 108.315 4.5823 -0.531279 0
M  V30 1078 H 106.558 4.30059 -0.568487 0
M  V30 1079 H 107.229 5.49266 0.54874 0
M  V30 1080 H 109.705 3.85551 1.56491 0
M  V30 1081 H 108.581 4.90231 2.46911 0
M  V30 1082 H 108.842 3.2481 2.99918 0
M  V30 1083 N 107.901 -0.206675 1.56239 0
M  V30 1084 C 108.811 -1.27686 1.96808 0
M  V30 1085 C 109.827 -1.50455 0.874035 0
M  V30 1086 O 111.003 -1.63295 1.17884 0
M  V30 1087 C 108.068 -2.60358 2.28942 0
M  V30 1088 C 107.129 -2.45762 3.51994 0
M  V30 1089 C 106.362 -3.72108 3.82585 0
M  V30 1090 O 106.585 -4.75776 3.14631 0
M  V30 1091 O 105.519 -3.6833 4.76043 0
M  V30 1092 H 109.345 -0.962593 2.88041 0
M  V30 1093 H 106.93 -0.410746 1.43643 0
M  V30 1094 H 108.812 -3.38687 2.50737 0
M  V30 1095 H 107.487 -2.91435 1.4088 0
M  V30 1096 H 106.394 -1.65584 3.35459 0
M  V30 1097 H 107.727 -2.19621 4.40486 0
M  V30 1098 N 109.379 -1.50304 -0.473955 0
M  V30 1099 C 110.342 -1.6841 -1.55469 0
M  V30 1100 C 111.342 -0.554905 -1.50922 0
M  V30 1101 O 112.532 -0.821882 -1.53593 0
M  V30 1102 C 109.664 -1.70667 -2.95102 0
M  V30 1103 H 110.857 -2.64828 -1.40733 0
M  V30 1104 H 108.41 -1.39742 -0.700132 0
M  V30 1105 H 109.145 -0.75932 -3.15285 0
M  V30 1106 H 108.93 -2.52698 -2.9981 0
M  V30 1107 H 110.42 -1.8664 -3.73571 0
M  V30 1108 N 110.857 0.726932 -1.39834 0
M  V30 1109 C 112.097 1.4992 -1.38936 0
M  V30 1110 C 112.461 1.91996 0.0126883 0
M  V30 1111 O 113.662 2.68399 0.146715 0
M  V30 1112 C 111.933 2.70013 -2.34153 0
M  V30 1113 S 113.492 3.59563 -2.51515 0
M  V30 1114 H 110.31 0.51271 -0.492595 0
M  V30 1115 H 112.912 0.85107 -1.76003 0
M  V30 1116 H 111.616 2.37254 -3.34871 0
M  V30 1117 H 111.147 3.39748 -1.98331 0
M  V30 1118 H 113.162 4.63973 -1.75909 0
M  V30 1119 N 112.336 1.25143 0.95797 0
M  V30 1120 C 113.584 1.09476 1.69881 0
M  V30 1121 C 113.905 -0.365502 1.91544 0
M  V30 1122 O 113.175 -1.25985 1.50015 0
M  V30 1123 H 111.755 0.402128 0.629525 0
M  V30 1124 H 114.417 1.57214 1.15194 0
M  V30 1125 H 113.513 1.60046 2.6794 0
M  V30 1126 N 113.814 -1.1601 1.06675 0
M  V30 1127 C 115.044 -1.90251 0.805497 0
M  V30 1128 C 115.452 -1.77891 -0.64431 0
M  V30 1129 O 114.795 -1.12383 -1.45313 0
M  V30 1130 C 114.857 -3.41419 1.12576 0
M  V30 1131 C 114.521 -3.77564 2.57477 0
M  V30 1132 C 115.518 -3.79161 3.55715 0
M  V30 1133 C 113.203 -4.08079 2.92877 0
M  V30 1134 C 115.197 -4.10767 4.8739 0
M  V30 1135 C 112.884 -4.39351 4.24751 0
M  V30 1136 C 113.882 -4.40675 5.21818 0
M  V30 1137 O 113.57 -4.71202 6.51325 0
M  V30 1138 H 113.302 -0.610018 0.291297 0
M  V30 1139 H 115.856 -1.47958 1.4247 0
M  V30 1140 H 114.086 -3.84079 0.449503 0
M  V30 1141 H 115.775 -3.9694 0.84814 0
M  V30 1142 H 116.541 -3.55693 3.29708 0
M  V30 1143 H 112.42 -4.06211 2.17976 0
M  V30 1144 H 115.964 -4.11715 5.63148 0
M  V30 1145 H 111.861 -4.62285 4.50514 0
M  V30 1146 H 112.629 -4.88996 6.56373 0
M  V30 1147 N 115.292 -0.849877 -1.32721 0
M  V30 1148 C 116.517 -0.463856 -2.02146 0
M  V30 1149 C 116.942 0.930449 -1.63476 0
M  V30 1150 O 116.3 1.61033 -0.832952 0
M  V30 1151 C 116.348 -0.604955 -3.55489 0
M  V30 1152 O 115.452 0.36425 -4.10788 0
M  V30 1153 H 114.793 -0.187046 -0.637111 0
M  V30 1154 H 117.323 -1.14775 -1.69375 0
M  V30 1155 H 117.333 -0.490696 -4.05038 0
M  V30 1156 H 116.008 -1.62174 -3.82978 0
M  V30 1157 H 114.585 0.206628 -3.72327 0
M  V30 1158 N 116.77 1.45427 -0.607355 0
M  V30 1159 C 118.047 1.9557 -0.0344566 0
M  V30 1160 C 118.427 1.54979 1.43334 0
M  V30 1161 O 117.775 0.812241 2.13576 0
M  V30 1162 C 117.985 3.48226 -0.232321 0
M  V30 1163 C 119.333 4.2445 -0.113001 0
M  V30 1164 O 120.357 3.55829 -0.162431 0
M  V30 1165 O 119.216 5.465 0.00209442 0
M  V30 1166 H 116.31 0.826222 0.0358667 0
M  V30 1167 H 118.856 1.55594 -0.6774 0
M  V30 1168 H 117.628 3.70739 -1.25174 0
M  V30 1169 H 117.251 3.95092 0.445896 0
M  V30 1170 N 118.248 0.346503 1.53744 0
M  V30 1171 C 119.664 -0.00530975 1.59599 0
M  V30 1172 C 119.864 -1.48465 1.36236 0
M  V30 1173 O 118.92 -2.24376 1.15808 0
M  V30 1174 C 120.233 0.433516 2.97559 0
M  V30 1175 C 121.781 0.386111 3.10609 0
M  V30 1176 C 122.256 0.800451 4.50951 0
M  V30 1177 N 123.747 0.754753 4.5701 0
M  V30 1178 C 124.482 1.04727 5.63755 0
M  V30 1179 N 123.978 1.4081 6.7834 0
M  V30 1180 N 125.771 0.971316 5.53644 0
M  V30 1181 H 117.922 1.31009 1.67184 0
M  V30 1182 H 120.185 0.534242 0.783128 0
M  V30 1183 H 119.891 1.46509 3.19731 0
M  V30 1184 H 119.765 -0.189753 3.76722 0
M  V30 1185 H 122.152 -0.636295 2.88158 0
M  V30 1186 H 122.233 1.04462 2.33498 0
M  V30 1187 H 121.877 1.82088 4.74137 0
M  V30 1188 H 121.807 0.119386 5.26465 0
M  V30 1189 H 124.298 0.488662 3.74727 0
M  V30 1190 H 124.611 1.61607 7.55714 0
M  V30 1191 H 122.956 1.44657 6.79779 0
M  V30 1192 H 126.147 0.688748 4.63005 0
M  V30 1193 H 126.32 1.20263 6.36742 0
M  V30 1194 N 119.726 -1.57421 0.075193 0
M  V30 1195 C 120.972 -1.93905 -0.594025 0
M  V30 1196 C 121.305 -0.955701 -1.69056 0
M  V30 1197 O 120.58 0.0145373 -1.94495 0
M  V30 1198 C 120.863 -3.40638 -1.1678 0
M  V30 1199 C 120.716 -4.49733 -0.0776792 0
M  V30 1200 C 122.035 -3.88259 -2.07228 0
M  V30 1201 H 119.154 -0.705105 -0.214466 0
M  V30 1202 H 121.796 -1.8947 0.141854 0
M  V30 1203 H 119.946 -3.44549 -1.79494 0
M  V30 1204 H 121.618 -4.57942 0.555573 0
M  V30 1205 H 119.861 -4.29751 0.591286 0
M  V30 1206 H 120.532 -5.49549 -0.519603 0
M  V30 1207 H 123.008 -3.86376 -1.54445 0
M  V30 1208 H 121.884 -4.91533 -2.44308 0
M  V30 1209 H 122.145 -3.26396 -2.98191 0
M  V30 1210 N 121.204 0.198386 -1.56346 0
M  V30 1211 C 122.134 1.24865 -1.9731 0
M  V30 1212 C 123.115 1.47651 -0.844576 0
M  V30 1213 O 124.3 1.59444 -1.10866 0
M  V30 1214 C 121.43 2.59358 -2.30977 0
M  V30 1215 C 120.384 2.5119 -3.46537 0
M  V30 1216 C 119.71 3.89926 -3.65871 0
M  V30 1217 C 121.01 2.03977 -4.80823 0
M  V30 1218 H 122.704 0.908252 -2.85291 0
M  V30 1219 H 120.25 0.435462 -1.37258 0
M  V30 1220 H 122.203 3.33011 -2.58228 0
M  V30 1221 H 120.927 2.95132 -1.39874 0
M  V30 1222 H 119.586 1.79993 -3.19371 0
M  V30 1223 H 119.234 4.23046 -2.72105 0
M  V30 1224 H 118.934 3.85336 -4.4361 0
M  V30 1225 H 120.458 4.65205 -3.95495 0
M  V30 1226 H 121.872 2.67386 -5.07127 0
M  V30 1227 H 120.269 2.10397 -5.62008 0
M  V30 1228 H 121.339 0.992861 -4.74626 0
M  V30 1229 N 122.682 1.50554 0.465978 0
M  V30 1230 C 123.614 1.65949 1.58093 0
M  V30 1231 C 124.627 0.540827 1.53554 0
M  V30 1232 O 125.816 0.814187 1.5885 0
M  V30 1233 C 122.916 1.63261 2.96983 0
M  V30 1234 C 122.089 2.91245 3.26336 0
M  V30 1235 C 121.148 2.8113 4.44806 0
M  V30 1236 O 120.174 3.55086 4.44862 0
M  V30 1237 N 121.376 1.95032 5.46756 0
M  V30 1238 H 124.141 2.62122 1.45301 0
M  V30 1239 H 121.702 1.48082 0.65448 0
M  V30 1240 H 123.694 1.54101 3.74212 0
M  V30 1241 H 122.264 0.748032 3.03518 0
M  V30 1242 H 121.484 3.14493 2.37672 0
M  V30 1243 H 122.772 3.76022 3.42761 0
M  V30 1244 H 122.17 1.3427 5.49534 0
M  V30 1245 H 120.727 1.91772 6.2295 0
M  V30 1246 N 124.16 -0.719506 1.40217 0
M  V30 1247 C 125.09 -1.8465 1.42922 0
M  V30 1248 C 126.071 -1.67599 0.29062 0
M  V30 1249 O 127.256 -1.87688 0.498677 0
M  V30 1250 C 124.386 -3.22565 1.28722 0
M  V30 1251 C 123.34 -3.54281 2.40144 0
M  V30 1252 C 122.666 -4.91298 2.11023 0
M  V30 1253 C 123.966 -3.55676 3.82481 0
M  V30 1254 H 125.66 -1.82644 2.37237 0
M  V30 1255 H 123.206 -0.877305 1.1419 0
M  V30 1256 H 125.159 -4.01095 1.29232 0
M  V30 1257 H 123.883 -3.25137 0.308811 0
M  V30 1258 H 122.542 -2.78088 2.38877 0
M  V30 1259 H 122.19 -4.90468 1.11582 0
M  V30 1260 H 121.89 -5.13485 2.8567 0
M  V30 1261 H 123.414 -5.72166 2.13209 0
M  V30 1262 H 124.828 -4.24254 3.85592 0
M  V30 1263 H 123.225 -3.89388 4.56614 0
M  V30 1264 H 124.295 -2.55144 4.12346 0
M  V30 1265 N 125.638 -1.25649 -0.95132 0
M  V30 1266 C 126.866 -1.13343 -1.73092 0
M  V30 1267 C 127.281 0.312434 -1.86197 0
M  V30 1268 O 126.638 1.21465 -1.36207 0
M  V30 1269 C 126.689 -1.78602 -3.14299 0
M  V30 1270 O 126.41 -3.17537 -3.01831 0
M  V30 1271 C 127.911 -1.72119 -4.08522 0
M  V30 1272 H 125.131 -0.395181 -0.542285 0
M  V30 1273 H 127.675 -1.66076 -1.19328 0
M  V30 1274 H 125.83 -1.29832 -3.64996 0
M  V30 1275 H 126.244 -3.49676 -3.90931 0
M  V30 1276 H 127.718 -2.22435 -5.052 0
M  V30 1277 H 128.195 -0.685635 -4.33815 0
M  V30 1278 H 128.801 -2.20393 -3.63741 0
M  V30 1279 N 127.117 1.15442 -1.07289 0
M  V30 1280 C 128.047 2.22312 -0.714107 0
M  V30 1281 C 129.028 1.67467 0.298155 0
M  V30 1282 O 130.213 1.93445 0.171048 0
M  V30 1283 C 127.343 3.47124 -0.110448 0
M  V30 1284 C 126.297 4.14926 -1.04979 0
M  V30 1285 C 125.623 5.33807 -0.308924 0
M  V30 1286 C 126.923 4.64762 -2.38314 0
M  V30 1287 H 128.617 2.5258 -1.6076 0
M  V30 1288 H 126.163 1.21404 -0.77441 0
M  V30 1289 H 128.116 4.21124 0.152482 0
M  V30 1290 H 126.84 3.16187 0.81812 0
M  V30 1291 H 125.499 3.42866 -1.29764 0
M  V30 1292 H 125.147 4.99126 0.623084 0
M  V30 1293 H 124.847 5.80113 -0.935036 0
M  V30 1294 H 126.371 6.10576 -0.0537771 0
M  V30 1295 H 127.785 5.30292 -2.1786 0
M  V30 1296 H 126.182 5.21728 -2.96514 0
M  V30 1297 H 127.252 3.80434 -3.00663 0
M  V30 1298 N 128.595 0.856903 1.32268 0
M  V30 1299 C 129.843 0.460474 1.96784 0
M  V30 1300 C 130.164 -0.987701 1.68135 0
M  V30 1301 O 129.434 -1.69058 0.989765 0
M  V30 1302 H 128.014 0.167289 0.728027 0
M  V30 1303 H 130.676 1.09383 1.61312 0
M  V30 1304 H 129.772 0.60739 3.06133 0
M  V30 1305 N 130.073 -1.45103 0.615059 0
M  V30 1306 C 131.021 -2.32331 -0.111791 0
M  V30 1307 C 132.015 -1.46409 -0.852102 0
M  V30 1308 O 133.221 -1.62849 -0.766821 0
M  V30 1309 H 129.596 -0.749993 -0.0549072 0
M  V30 1310 H 131.567 -2.91407 0.642225 0
M  V30 1311 C 130.316 -3.3015 -1.09071 0
M  V30 1312 H 129.639 -3.96265 -0.530485 0
M  V30 1313 H 131.079 -3.93898 -1.56908 0
M  V30 1314 C 129.538 -2.57875 -2.168 0
M  V30 1315 O 130.068 -2.36567 -3.24652 0
M  V30 1316 N 128.274 -2.17884 -1.92289 0
M  V30 1317 H 127.821 -2.35413 -1.04587 0
M  V30 1318 H 127.779 -1.6985 -2.64572 0
M  V30 1319 N 131.551 -0.354651 -1.53558 0
M  V30 1320 C 132.776 0.242153 -2.05981 0
M  V30 1321 C 133.201 1.42553 -1.2272 0
M  V30 1322 O 132.559 1.79656 -0.243604 0
M  V30 1323 C 132.607 0.624367 -3.55154 0
M  V30 1324 O 131.711 1.72301 -3.74681 0
M  V30 1325 H 131.052 0.0378432 -0.662921 0
M  V30 1326 H 133.582 -0.512087 -1.98088 0
M  V30 1327 H 133.592 0.898433 -3.97985 0
M  V30 1328 H 132.267 -0.240989 -4.15201 0
M  V30 1329 H 130.844 1.44535 -3.4375 0
M  V30 1330 N 133.029 1.57378 -0.0835403 0
M  V30 1331 C 134.257 1.98263 0.59157 0
M  V30 1332 C 134.672 0.962302 1.62435 0
M  V30 1333 O 134.029 -0.049581 1.82433 0
M  V30 1334 C 134.08 3.39214 1.24965 0
M  V30 1335 O 133.801 4.37339 0.258186 0
M  V30 1336 C 135.302 3.95038 2.01147 0
M  V30 1337 H 132.522 0.651773 0.159477 0
M  V30 1338 H 135.066 2.03878 -0.159415 0
M  V30 1339 H 133.221 3.34649 1.95164 0
M  V30 1340 H 133.635 5.19371 0.731734 0
M  V30 1341 H 135.109 4.95848 2.42567 0
M  V30 1342 H 135.586 3.32222 2.87272 0
M  V30 1343 H 136.192 4.0304 1.35789 0
M  V30 1344 N 134.507 -0.190092 1.56449 0
M  V30 1345 C 135.756 -0.907912 1.80111 0
M  V30 1346 C 136.069 -1.84214 0.657619 0
M  V30 1347 O 137.275 -2.60094 0.778663 0
M  V30 1348 C 135.731 -1.66485 3.19078 0
M  V30 1349 C 135.339 -0.7752 4.41242 0
M  V30 1350 C 137.083 -2.37201 3.52045 0
M  V30 1351 C 134.99 -1.53129 5.71231 0
M  V30 1352 H 133.92 -0.34276 0.671589 0
M  V30 1353 H 136.571 -0.161109 1.82791 0
M  V30 1354 H 134.953 -2.45572 3.10661 0
M  V30 1355 H 136.127 -0.0226298 4.60794 0
M  V30 1356 H 134.442 -0.178627 4.16017 0
M  V30 1357 H 137.039 -2.94329 4.46402 0
M  V30 1358 H 137.382 -3.11632 2.76028 0
M  V30 1359 H 137.915 -1.65075 3.61932 0
M  V30 1360 H 134.654 -0.82967 6.50228 0
M  V30 1361 H 134.174 -2.25767 5.55688 0
M  V30 1362 H 135.853 -2.08377 6.12526 0
M  V30 1363 N 135.985 -1.50799 -0.457987 0
M  V30 1364 C 137.213 -1.66218 -1.23203 0
M  V30 1365 C 137.628 -0.350894 -1.85511 0
M  V30 1366 O 136.985 0.668546 -1.69814 0
M  V30 1367 C 137.036 -2.76291 -2.33121 0
M  V30 1368 O 136.757 -4.02338 -1.73366 0
M  V30 1369 C 138.258 -3.028 -3.2377 0
M  V30 1370 H 135.478 -0.558361 -0.372121 0
M  V30 1371 H 138.022 -1.97099 -0.545179 0
M  V30 1372 H 136.177 -2.48068 -2.97558 0
M  V30 1373 H 136.591 -4.63312 -2.4585 0
M  V30 1374 H 138.065 -3.8345 -3.97077 0
M  V30 1375 H 138.542 -2.14385 -3.83322 0
M  V30 1376 H 139.148 -3.32604 -2.65056 0
M  V30 1377 N 137.463 0.71206 -1.40597 0
M  V30 1378 C 138.691 1.50111 -1.42388 0
M  V30 1379 C 139.106 1.88784 -0.0245395 0
M  V30 1380 O 138.463 1.55681 0.952351 0
M  V30 1381 C 138.514 2.7742 -2.31776 0
M  V30 1382 O 138.235 2.40382 -3.66262 0
M  V30 1383 C 139.736 3.7129 -2.42196 0
M  V30 1384 H 136.956 0.46314 -0.485533 0
M  V30 1385 H 139.5 0.878068 -1.8469 0
M  V30 1386 H 137.655 3.36001 -1.92827 0
M  V30 1387 H 138.069 3.22324 -4.13772 0
M  V30 1388 H 139.543 4.57448 -3.08943 0
M  V30 1389 H 140.02 4.14641 -1.44809 0
M  V30 1390 H 140.626 3.18619 -2.81712 0
M  V30 1391 N 138.941 1.26152 0.944643 0
M  V30 1392 C 139.873 1.03199 2.04652 0
M  V30 1393 C 140.886 -0.00642356 1.62799 0
M  V30 1394 O 142.075 0.233263 1.76969 0
M  V30 1395 C 139.175 0.540111 3.34568 0
M  V30 1396 C 138.348 1.64697 4.05208 0
M  V30 1397 C 137.407 1.15374 5.13396 0
M  V30 1398 O 136.433 1.85013 5.38293 0
M  V30 1399 N 137.635 0.00031529 5.805 0
M  V30 1400 H 140.4 1.9808 2.2491 0
M  V30 1401 H 137.961 1.17491 1.11389 0
M  V30 1402 H 139.953 0.194401 4.04233 0
M  V30 1403 H 138.523 -0.315021 3.11009 0
M  V30 1404 H 137.743 2.16379 3.29506 0
M  V30 1405 H 139.031 2.3903 4.49157 0
M  V30 1406 H 138.429 -0.581336 5.62705 0
M  V30 1407 H 136.986 -0.286346 6.51171 0
M  V30 1408 N 140.419 -1.14872 1.07899 0
M  V30 1409 C 141.329 -2.2341 0.715915 0
M  V30 1410 C 142.345 -1.71808 -0.275306 0
M  V30 1411 O 143.521 -2.01039 -0.120545 0
M  V30 1412 C 140.586 -3.46474 0.125168 0
M  V30 1413 C 139.647 -4.13039 1.17034 0
M  V30 1414 C 138.88 -5.30229 0.607688 0
M  V30 1415 O 139.103 -5.675 -0.574497 0
M  V30 1416 O 138.037 -5.86444 1.35526 0
M  V30 1417 H 141.863 -2.56808 1.62121 0
M  V30 1418 H 139.448 -1.22702 0.852322 0
M  V30 1419 H 141.33 -4.20917 -0.201729 0
M  V30 1420 H 140.005 -3.14811 -0.753364 0
M  V30 1421 H 138.912 -3.40493 1.54968 0
M  V30 1422 H 140.245 -4.48796 2.02097 0
M  V30 1423 N 141.898 -0.863906 -1.31812 0
M  V30 1424 C 142.861 -0.320212 -2.26952 0
M  V30 1425 C 143.861 0.525369 -1.51975 0
M  V30 1426 O 145.051 0.335547 -1.70938 0
M  V30 1427 C 142.183 0.545919 -3.365 0
M  V30 1428 H 143.376 -1.16004 -2.76556 0
M  V30 1429 H 140.929 -0.638995 -1.42641 0
M  V30 1430 H 141.664 1.40718 -2.92179 0
M  V30 1431 H 141.449 -0.0594674 -3.92055 0
M  V30 1432 H 142.939 0.918796 -4.07367 0
M  V30 1433 N 143.376 1.44774 -0.622745 0
M  V30 1434 C 144.339 2.29069 0.0774015 0
M  V30 1435 C 145.339 1.4059 0.780461 0
M  V30 1436 O 146.529 1.62551 0.626322 0
M  V30 1437 C 143.661 3.21974 1.12006 0
M  V30 1438 H 144.854 2.92459 -0.663901 0
M  V30 1439 H 142.407 1.51548 -0.382486 0
M  V30 1440 H 143.142 2.63417 1.89162 0
M  V30 1441 H 142.927 3.87168 0.619951 0
M  V30 1442 H 144.417 3.85318 1.60995 0
M  V30 1443 N 144.854 0.36279 1.53368 0
M  V30 1444 C 145.802 -0.500155 2.27159 0
M  V30 1445 C 146.796 -1.08575 1.3003 0
M  V30 1446 O 148.002 -1.02927 1.47668 0
M  V30 1447 H 144.377 -0.180009 0.730138 0
M  V30 1448 H 146.348 0.14401 2.98052 0
M  V30 1449 C 145.097 -1.62937 3.07159 0
M  V30 1450 H 144.42 -1.18806 3.8174 0
M  V30 1451 H 145.86 -2.20795 3.61975 0
M  V30 1452 C 144.319 -2.57007 2.17829 0
M  V30 1453 O 144.849 -3.59752 1.78721 0
M  V30 1454 N 143.055 -2.26131 1.82518 0
M  V30 1455 H 142.602 -1.42616 2.14519 0
M  V30 1456 H 142.56 -2.89327 1.23034 0
M  V30 1457 N 146.332 -1.57332 0.0918853 0
M  V30 1458 C 147.557 -1.98995 -0.584442 0
M  V30 1459 C 147.982 -0.970528 -1.61128 0
M  V30 1460 O 147.34 0.0613904 -1.81196 0
M  V30 1461 C 147.388 -3.39636 -1.21161 0
M  V30 1462 O 146.492 -3.40447 -2.32744 0
M  V30 1463 H 145.833 -0.647165 -0.148572 0
M  V30 1464 H 148.363 -2.03873 0.172347 0
M  V30 1465 H 148.373 -3.7726 -1.55367 0
M  V30 1466 H 147.048 -4.13356 -0.459313 0
M  V30 1467 H 145.625 -3.14614 -2.0018 0
M  V30 1468 N 147.81 0.181792 -1.56548 0
M  V30 1469 C 149.056 0.901431 -1.81665 0
M  V30 1470 C 149.389 1.82347 -0.668075 0
M  V30 1471 O 148.664 1.91669 0.330615 0
M  V30 1472 C 148.947 1.70618 -3.17115 0
M  V30 1473 C 148.8 0.807964 -4.42484 0
M  V30 1474 C 150.119 2.67605 -3.49393 0
M  V30 1475 H 147.238 0.32627 -0.660846 0
M  V30 1476 H 149.88 0.168134 -1.89255 0
M  V30 1477 H 148.03 2.33133 -3.10775 0
M  V30 1478 H 149.702 0.19649 -4.60881 0
M  V30 1479 H 147.945 0.115411 -4.33646 0
M  V30 1480 H 148.616 1.40632 -5.33785 0
M  V30 1481 H 151.092 2.15218 -3.56118 0
M  V30 1482 H 149.968 3.20985 -4.45264 0
M  V30 1483 H 150.229 3.47298 -2.73563 0
M  V30 1484 N 149.288 1.51039 0.449983 0
M  V30 1485 C 150.534 1.63322 1.20223 0
M  V30 1486 C 150.867 0.34241 1.91158 0
M  V30 1487 O 150.142 -0.657344 1.83055 0
M  V30 1488 C 150.425 2.82801 2.22925 0
M  V30 1489 C 150.278 4.21823 1.56157 0
M  V30 1490 C 151.597 2.97807 3.24035 0
M  V30 1491 H 148.716 0.594407 0.435718 0
M  V30 1492 H 151.358 1.83489 0.493136 0
M  V30 1493 H 149.508 2.65738 2.834 0
M  V30 1494 H 151.18 4.50526 0.991162 0
M  V30 1495 H 149.423 4.25105 0.864172 0
M  V30 1496 H 150.094 5.01391 2.30891 0
M  V30 1497 H 152.57 3.13497 2.73603 0
M  V30 1498 H 151.446 3.82992 3.93202 0
M  V30 1499 H 151.707 2.09328 3.89402 0
M  V30 1500 N 150.766 -0.704594 1.40972 0
M  V30 1501 C 151.729 -1.80035 1.41845 0
M  V30 1502 C 152.729 -1.57774 0.310474 0
M  V30 1503 O 153.919 -1.64613 0.56992 0
M  V30 1504 C 151.051 -3.18284 1.22098 0
M  V30 1505 H 152.244 -1.80658 2.3938 0
M  V30 1506 H 149.797 -0.911329 1.26982 0
M  V30 1507 H 150.532 -3.23306 0.253672 0
M  V30 1508 H 150.317 -3.35843 2.02366 0
M  V30 1509 H 151.807 -3.98289 1.25522 0
M  V30 1510 N 152.244 -1.26651 -0.937939 0
M  V30 1511 C 153.474 -1.15006 -1.71631 0
M  V30 1512 C 153.882 0.297026 -1.86854 0
M  V30 1513 O 153.225 1.21493 -1.37786 0
M  V30 1514 C 153.287 -1.74984 -3.14039 0
M  V30 1515 C 152.951 -3.24103 -3.2219 0
M  V30 1516 C 153.948 -4.20877 -3.05219 0
M  V30 1517 C 151.633 -3.64625 -3.45476 0
M  V30 1518 C 153.627 -5.56151 -3.11408 0
M  V30 1519 C 151.314 -5.00032 -3.513 0
M  V30 1520 C 152.312 -5.95604 -3.34282 0
M  V30 1521 O 152 -7.28545 -3.3982 0
M  V30 1522 H 151.732 -0.401183 -0.544085 0
M  V30 1523 H 154.286 -1.67832 -1.18413 0
M  V30 1524 H 152.516 -1.16624 -3.68695 0
M  V30 1525 H 154.205 -1.58199 -3.73802 0
M  V30 1526 H 154.971 -3.90908 -2.87081 0
M  V30 1527 H 150.85 -2.90718 -3.57777 0
M  V30 1528 H 154.394 -6.30727 -2.98043 0
M  V30 1529 H 150.291 -5.29659 -3.68959 0
M  V30 1530 H 151.059 -7.3686 -3.56343 0
M  V30 1531 N 153.722 1.14298 -1.08507 0
M  V30 1532 C 154.97 1.84993 -0.813763 0
M  V30 1533 C 155.291 1.83405 0.662393 0
M  V30 1534 O 154.561 1.28319 1.48024 0
M  V30 1535 H 153.141 0.684966 -0.298045 0
M  V30 1536 H 155.803 1.385 -1.37126 0
M  V30 1537 H 154.899 2.89788 -1.15884 0
M  V30 1538 N 155.201 0.870884 1.31352 0
M  V30 1539 C 156.617 0.562932 1.49343 0
M  V30 1540 C 156.817 -0.902725 1.80148 0
M  V30 1541 O 155.873 -1.68484 1.88067 0
M  V30 1542 C 157.186 1.46393 2.62659 0
M  V30 1543 C 158.734 1.46607 2.76542 0
M  V30 1544 C 159.209 2.35266 3.92955 0
M  V30 1545 N 160.7 2.33151 4.00243 0
M  V30 1546 C 161.435 2.98471 4.89594 0
M  V30 1547 N 160.931 3.72964 5.8384 0
M  V30 1548 N 162.724 2.87775 4.82848 0
M  V30 1549 H 154.875 1.81923 1.09626 0
M  V30 1550 H 157.138 0.777934 0.541777 0
M  V30 1551 H 156.844 2.50689 2.46674 0
M  V30 1552 H 156.718 1.16314 3.58819 0
M  V30 1553 H 159.105 0.43069 2.9194 0
M  V30 1554 H 159.186 1.8071 1.81046 0
M  V30 1555 H 158.83 3.38881 3.78315 0
M  V30 1556 H 158.76 1.98487 4.87761 0
M  V30 1557 H 161.251 1.79006 3.32814 0
M  V30 1558 H 161.564 4.19932 6.4875 0
M  V30 1559 H 159.909 3.77073 5.83816 0
M  V30 1560 H 163.1 2.29116 4.08195 0
M  V30 1561 H 163.273 3.38961 5.52277 0
M  V30 1562 N 156.679 -1.44442 0.630414 0
M  V30 1563 C 157.925 -2.02894 0.143332 0
M  V30 1564 C 158.28 -1.48697 -1.22094 0
M  V30 1565 O 157.573 -0.661171 -1.79831 0
M  V30 1566 C 157.767 -3.57332 0.0697835 0
M  V30 1567 C 157.596 -4.26512 1.42539 0
M  V30 1568 C 156.366 -4.63516 2.01198 0
M  V30 1569 C 158.564 -4.57004 2.35907 0
M  V30 1570 N 156.546 -5.17661 3.30001 0
M  V30 1571 C 157.917 -5.12223 3.49324 0
M  V30 1572 C 159.972 -4.38955 2.34995 0
M  V30 1573 C 158.675 -5.51295 4.62024 0
M  V30 1574 C 160.701 -4.79075 3.46758 0
M  V30 1575 C 160.063 -5.34407 4.58899 0
M  V30 1576 H 156.162 -0.776041 0.0963523 0
M  V30 1577 H 158.746 -1.75945 0.833752 0
M  V30 1578 H 156.917 -3.83894 -0.589915 0
M  V30 1579 H 158.649 -4.02451 -0.42606 0
M  V30 1580 H 155.404 -4.47811 1.54151 0
M  V30 1581 H 155.828 -5.4921 3.95851 0
M  V30 1582 H 160.47 -3.95469 1.49545 0
M  V30 1583 H 158.188 -5.93736 5.48182 0
M  V30 1584 H 161.774 -4.66824 3.47227 0
M  V30 1585 H 160.654 -5.64878 5.4395 0
M  V30 1586 N 158.157 -0.370918 -1.53173 0
M  V30 1587 C 159.568 0.107139 -1.86392 0
M  V30 1588 C 159.919 1.47714 -1.29132 0
M  V30 1589 O 159.044 2.07464 -0.615439 0
M  V30 1590 C 159.639 0.201187 -3.38202 0
M  V30 1591 C 158.198 0.623507 -3.712 0
M  V30 1592 C 157.345 -0.225978 -2.76378 0
M  V30 1593 H 160.296 -0.58951 -1.47345 0
M  V30 1594 H 160.317 1.02377 -3.66468 0
M  V30 1595 H 159.829 -0.796058 -3.79848 0
M  V30 1596 H 157.93 1.62879 -3.35114 0
M  V30 1597 H 158.043 0.394414 -4.77474 0
M  V30 1598 H 156.407 0.305962 -2.52856 0
M  V30 1599 H 157.19 -1.22086 -3.20858 0
M  V30 1600 N 159.635 1.57281 -0.100228 0
M  V30 1601 C 160.545 2.17833 0.870965 0
M  V30 1602 C 161.561 1.14921 1.30649 0
M  V30 1603 O 162.737 1.47313 1.37335 0
M  V30 1604 C 159.802 2.75085 2.1102 0
M  V30 1605 C 158.863 3.9297 1.72838 0
M  V30 1606 C 158.096 4.47482 2.90854 0
M  V30 1607 O 158.319 4.00922 4.05731 0
M  V30 1608 O 157.253 5.38433 2.69023 0
M  V30 1609 H 161.079 3.0124 0.38575 0
M  V30 1610 H 158.664 1.48881 0.124397 0
M  V30 1611 H 160.546 3.11656 2.83634 0
M  V30 1612 H 159.221 1.94721 2.58584 0
M  V30 1613 H 158.128 3.61201 0.973883 0
M  V30 1614 H 159.461 4.74713 1.30033 0
M  V30 1615 N 161.113 -0.173488 1.56642 0
M  V30 1616 C 162.36 -0.890465 1.81871 0
M  V30 1617 C 162.688 -1.82339 0.67696 0
M  V30 1618 O 161.943 -1.92795 -0.335926 0
M  V30 1619 C 162.242 -1.72069 3.13252 0
M  V30 1620 C 161.908 -0.936878 4.41059 0
M  V30 1621 C 160.57 -0.720545 4.75775 0
M  V30 1622 C 162.922 -0.386919 5.19762 0
M  V30 1623 C 160.25 0.0568829 5.86672 0
M  V30 1624 C 162.602 0.37741 6.31473 0
M  V30 1625 C 161.266 0.604563 6.64757 0
M  V30 1626 H 160.536 -0.325844 0.665512 0
M  V30 1627 H 163.183 -0.155527 1.90867 0
M  V30 1628 H 161.488 -2.52496 2.99588 0
M  V30 1629 H 163.185 -2.27844 3.29982 0
M  V30 1630 H 159.775 -1.11553 4.13828 0
M  V30 1631 H 163.959 -0.541398 4.93338 0
M  V30 1632 H 159.215 0.242635 6.10918 0
M  V30 1633 H 163.389 0.810825 6.91664 0
M  V30 1634 H 161.016 1.20885 7.50527 0
M  V30 1635 N 162.591 -1.51276 -0.441967 0
M  V30 1636 C 163.84 -1.6295 -1.18871 0
M  V30 1637 C 164.153 -0.349312 -1.92456 0
M  V30 1638 O 165.359 -0.345355 -2.69295 0
M  V30 1639 C 163.815 -2.87759 -2.16155 0
M  V30 1640 C 163.423 -4.22764 -1.48239 0
M  V30 1641 C 165.167 -3.08788 -2.91291 0
M  V30 1642 C 163.074 -5.38728 -2.4398 0
M  V30 1643 H 162.004 -0.606913 -0.447406 0
M  V30 1644 H 164.655 -1.77739 -0.456205 0
M  V30 1645 H 163.037 -2.66593 -2.92821 0
M  V30 1646 H 164.211 -4.54293 -0.771635 0
M  V30 1647 H 162.526 -4.07575 -0.852741 0
M  V30 1648 H 165.123 -3.92599 -3.63002 0
M  V30 1649 H 165.466 -2.21679 -3.5237 0
M  V30 1650 H 165.999 -3.30272 -2.21733 0
M  V30 1651 H 162.738 -6.28082 -1.87598 0
M  V30 1652 H 162.258 -5.1158 -3.13123 0
M  V30 1653 H 163.937 -5.70489 -3.05207 0
M  V30 1654 N 164.069 0.697108 -1.41344 0
M  V30 1655 C 165.485 1.00751 -1.2378 0
M  V30 1656 C 165.685 2.01105 -0.126066 0
M  V30 1657 O 164.741 2.47295 0.51004 0
M  V30 1658 C 166.054 1.53359 -2.58653 0
M  V30 1659 C 167.602 1.6525 -2.65822 0
M  V30 1660 C 168.077 2.2126 -4.01009 0
M  V30 1661 N 169.568 2.28622 -4.02847 0
M  V30 1662 C 170.303 2.72984 -5.04249 0
M  V30 1663 N 169.799 3.16962 -6.16041 0
M  V30 1664 N 171.592 2.72534 -4.91611 0
M  V30 1665 H 163.743 0.0322662 -2.12375 0
M  V30 1666 H 166.006 0.0768853 -0.944877 0
M  V30 1667 H 165.712 0.870773 -3.4075 0
M  V30 1668 H 165.586 2.51597 -2.81032 0
M  V30 1669 H 167.973 2.30644 -1.84086 0
M  V30 1670 H 168.054 0.655614 -2.47256 0
M  V30 1671 H 167.698 1.56482 -4.83193 0
M  V30 1672 H 167.628 3.21698 -4.16915 0
M  V30 1673 H 170.119 1.97585 -3.22131 0
M  V30 1674 H 170.432 3.49434 -6.89287 0
M  V30 1675 H 168.777 3.14875 -6.1958 0
M  V30 1676 H 171.968 2.37525 -4.0336 0
M  V30 1677 H 172.141 3.06789 -5.70775 0
M  V30 1678 N 165.547 1.27147 0.931209 0
M  V30 1679 C 166.824 1.0401 1.65654 0
M  V30 1680 C 167.204 -0.426297 2.06751 0
M  V30 1681 O 166.552 -1.40879 1.79904 0
M  V30 1682 C 166.762 1.99834 2.86125 0
M  V30 1683 C 168.11 2.29007 3.57549 0
M  V30 1684 O 169.134 1.97779 2.96246 0
M  V30 1685 O 167.993 2.82222 4.67989 0
M  V30 1686 H 165.087 0.396239 0.725895 0
M  V30 1687 H 167.633 1.38397 0.982056 0
M  V30 1688 H 166.405 2.98744 2.52721 0
M  V30 1689 H 166.028 1.65987 3.61295 0
M  V30 1690 N 167.025 -1.13721 1.09112 0
M  V30 1691 C 168.302 -1.81155 0.737706 0
M  V30 1692 C 168.682 -1.96253 -0.777683 0
M  V30 1693 O 168.03 -1.52807 -1.69889 0
M  V30 1694 C 168.24 -3.16392 1.47299 0
M  V30 1695 C 169.588 -3.91787 1.63671 0
M  V30 1696 O 170.612 -3.26005 1.43524 0
M  V30 1697 O 169.471 -5.0977 1.96969 0
M  V30 1698 H 166.565 -0.783518 0.26463 0
M  V30 1699 H 169.111 -1.20676 1.19312 0
M  V30 1700 H 167.883 -3.0061 2.50498 0
M  V30 1701 H 167.506 -3.8457 1.00953 0
M  V30 1702 N 168.503 -0.877838 -1.30888 0
M  V30 1703 C 169.413 -0.343096 -2.32078 0
M  V30 1704 C 170.429 0.551022 -1.65045 0
M  V30 1705 O 171.605 0.445854 -1.96403 0
M  V30 1706 C 168.67 0.439905 -3.43898 0
M  V30 1707 C 167.731 -0.483111 -4.26573 0
M  V30 1708 C 166.964 0.262616 -5.33053 0
M  V30 1709 O 167.187 1.48967 -5.50604 0
M  V30 1710 O 166.121 -0.383593 -6.00676 0
M  V30 1711 H 169.947 -1.18203 -2.79753 0
M  V30 1712 H 167.532 -0.64145 -1.34929 0
M  V30 1713 H 169.414 0.883504 -4.12034 0
M  V30 1714 H 168.089 1.25526 -2.98371 0
M  V30 1715 H 166.996 -0.975374 -3.61161 0
M  V30 1716 H 168.329 -1.26427 -4.75686 0
M  V30 1717 N 169.982 1.44106 -0.638065 0
M  V30 1718 C 170.945 2.29138 0.0531013 0
M  V30 1719 C 171.945 1.41409 0.765506 0
M  V30 1720 O 173.135 1.63206 0.609046 0
M  V30 1721 C 170.267 3.23144 1.08584 0
M  V30 1722 H 171.46 2.91739 -0.694883 0
M  V30 1723 H 169.013 1.51134 -0.398538 0
M  V30 1724 H 169.748 2.65408 1.86357 0
M  V30 1725 H 169.533 3.87804 0.578852 0
M  V30 1726 H 171.023 3.87004 1.56899 0
M  V30 1727 N 171.46 0.379036 1.52974 0
M  V30 1728 C 172.408 -0.476033 2.27677 0
M  V30 1729 C 173.402 -1.0719 1.31174 0
M  V30 1730 O 174.608 -1.01355 1.48752 0
M  V30 1731 H 170.983 -0.172255 0.732006 0
M  V30 1732 H 172.954 0.175615 2.97883 0
M  V30 1733 C 171.703 -1.5967 3.0887 0
M  V30 1734 H 171.026 -1.1475 3.82978 0
M  V30 1735 H 172.466 -2.16943 3.64296 0
M  V30 1736 C 170.925 -2.54682 2.20542 0
M  V30 1737 O 171.455 -3.57836 1.82527 0
M  V30 1738 N 169.661 -2.24183 1.84907 0
M  V30 1739 H 169.208 -1.40333 2.1602 0
M  V30 1740 H 169.166 -2.88006 1.26096 0
M  V30 1741 N 172.938 -1.57226 0.108567 0
M  V30 1742 C 174.349 -1.8195 -0.418464 0
M  V30 1743 C 174.7 -1.02508 -1.67292 0
M  V30 1744 O 173.825 -0.258496 -2.14851 0
M  V30 1745 C 174.42 -3.30028 -0.765979 0
M  V30 1746 C 172.979 -3.55469 -1.23769 0
M  V30 1747 C 172.126 -2.7625 -0.241106 0
M  V30 1748 H 175.077 -1.55149 0.33384 0
M  V30 1749 H 175.098 -3.44086 -1.62434 0
M  V30 1750 H 174.61 -3.87821 0.147219 0
M  V30 1751 H 172.711 -3.03022 -2.16814 0
M  V30 1752 H 172.824 -4.6408 -1.19022 0
M  V30 1753 H 171.188 -2.44133 -0.72602 0
M  V30 1754 H 171.971 -3.36797 0.665007 0
M  V30 1755 N 174.416 0.165178 -1.56732 0
M  V30 1756 C 175.662 0.882112 -1.82611 0
M  V30 1757 C 175.995 1.81628 -0.687378 0
M  V30 1758 O 175.27 1.92009 0.310267 0
M  V30 1759 C 175.553 1.67245 -3.18906 0
M  V30 1760 C 175.406 0.760987 -4.43316 0
M  V30 1761 C 176.725 2.63884 -3.52212 0
M  V30 1762 H 173.844 0.319242 -0.664269 0
M  V30 1763 H 176.486 0.148052 -1.89422 0
M  V30 1764 H 174.636 2.29824 -3.1323 0
M  V30 1765 H 176.308 0.147596 -4.61064 0
M  V30 1766 H 174.551 0.0694102 -4.33744 0
M  V30 1767 H 175.222 1.34962 -5.35247 0
M  V30 1768 H 177.698 2.11429 -3.58381 0
M  V30 1769 H 176.574 3.16245 -4.48643 0
M  V30 1770 H 176.835 3.44377 -2.77231 0
M  V30 1771 N 175.894 1.51508 0.433938 0
M  V30 1772 C 177.171 1.54888 1.19453 0
M  V30 1773 C 177.551 0.315154 2.08734 0
M  V30 1774 O 176.899 -0.699558 2.17528 0
M  V30 1775 C 177.109 2.86467 1.99342 0
M  V30 1776 C 178.457 3.38545 2.56267 0
M  V30 1777 O 179.481 2.88041 2.0955 0
M  V30 1778 O 178.34 4.26675 3.41483 0
M  V30 1779 H 175.434 0.622863 0.544032 0
M  V30 1780 H 177.98 1.63823 0.442732 0
M  V30 1781 H 176.752 3.67718 1.33788 0
M  V30 1782 H 176.375 2.8071 2.8158 0
M  V30 1783 N 177.372 -0.689602 1.41712 0
M  V30 1784 C 178.304 -1.815 1.39966 0
M  V30 1785 C 179.317 -1.59995 0.300917 0
M  V30 1786 O 180.506 -1.69387 0.563039 0
M  V30 1787 C 177.606 -3.18364 1.16179 0
M  V30 1788 C 176.779 -3.66847 2.38206 0
M  V30 1789 C 175.838 -4.82398 2.10186 0
M  V30 1790 O 174.864 -4.93706 2.83272 0
M  V30 1791 N 176.066 -5.70064 1.0958 0
M  V30 1792 H 178.831 -1.83488 2.36965 0
M  V30 1793 H 176.392 -0.872149 1.36401 0
M  V30 1794 H 178.384 -3.93301 0.953756 0
M  V30 1795 H 176.954 -3.11365 0.27756 0
M  V30 1796 H 176.174 -2.82751 2.74673 0
M  V30 1797 H 177.462 -3.95978 3.19498 0
M  V30 1798 H 176.86 -5.63565 0.491019 0
M  V30 1799 H 175.417 -6.44874 0.947656 0
M  V30 1800 N 178.85 -1.27639 -0.924453 0
M  V30 1801 C 180.261 -1.12834 -1.48746 0
M  V30 1802 C 180.612 0.285505 -1.94112 0
M  V30 1803 O 179.737 1.17874 -1.81479 0
M  V30 1804 C 180.332 -2.04217 -2.70334 0
M  V30 1805 C 178.891 -1.93509 -3.22848 0
M  V30 1806 C 178.038 -1.96583 -1.95577 0
M  V30 1807 H 180.989 -1.40484 -0.738233 0
M  V30 1808 H 181.01 -1.59989 -3.4523 0
M  V30 1809 H 180.522 -3.07111 -2.37285 0
M  V30 1810 H 178.623 -0.936131 -3.60649 0
M  V30 1811 H 178.736 -2.79917 -3.88823 0
M  V30 1812 H 177.1 -1.4085 -2.12211 0
M  V30 1813 H 177.883 -3.01137 -1.64837 0
M  V30 1814 N 180.328 1.1314 -1.09713 0
M  V30 1815 C 181.556 1.88321 -0.856898 0
M  V30 1816 C 181.971 1.79276 0.592073 0
M  V30 1817 O 181.328 1.16142 1.40774 0
M  V30 1818 C 181.379 3.37812 -1.28706 0
M  V30 1819 O 181.1 3.46627 -2.67921 0
M  V30 1820 C 182.601 4.29952 -1.07964 0
M  V30 1821 H 179.821 0.596094 -0.308079 0
M  V30 1822 H 182.365 1.43205 -1.45988 0
M  V30 1823 H 180.52 3.805 -0.727912 0
M  V30 1824 H 180.934 4.39579 -2.8613 0
M  V30 1825 H 182.408 5.33159 -1.42986 0
M  V30 1826 H 182.885 4.39196 -0.0176577 0
M  V30 1827 H 183.491 3.93036 -1.62489 0
M  V30 1828 N 181.806 0.884767 1.30421 0
M  V30 1829 C 182.716 0.355398 2.31892 0
M  V30 1830 C 183.732 -0.542261 1.65335 0
M  V30 1831 O 184.908 -0.435432 1.96637 0
M  V30 1832 C 181.973 -0.421661 3.44126 0
M  V30 1833 C 181.034 0.505727 4.26311 0
M  V30 1834 C 180.267 -0.234343 5.33185 0
M  V30 1835 O 180.49 -1.46045 5.51386 0
M  V30 1836 O 179.424 0.415443 6.00465 0
M  V30 1837 H 183.25 1.19685 2.79122 0
M  V30 1838 H 180.835 0.648596 1.34587 0
M  V30 1839 H 182.717 -0.861641 4.12497 0
M  V30 1840 H 181.392 -1.23942 2.99032 0
M  V30 1841 H 180.299 0.994513 3.60639 0
M  V30 1842 H 181.632 1.28948 4.75009 0
M  V30 1843 N 183.284 -1.43765 0.645699 0
M  V30 1844 C 184.695 -1.85193 0.236719 0
M  V30 1845 C 185.046 -1.54045 -1.21509 0
M  V30 1846 O 184.171 -0.985694 -1.92647 0
M  V30 1847 C 184.766 -3.36151 0.422845 0
M  V30 1848 C 183.325 -3.76338 0.0682492 0
M  V30 1849 C 182.472 -2.67538 0.729306 0
M  V30 1850 H 185.423 -1.34025 0.849883 0
M  V30 1851 H 185.444 -3.79032 -0.333904 0
M  V30 1852 H 184.956 -3.5879 1.47958 0
M  V30 1853 H 183.057 -3.59312 -0.986179 0
M  V30 1854 H 183.17 -4.76603 0.488469 0
M  V30 1855 H 181.534 -2.54176 0.163235 0
M  V30 1856 H 182.317 -2.93006 1.78892 0
M  V30 1857 N 184.763 -0.387143 -1.52771 0
M  V30 1858 C 186.04 0.253197 -1.93954 0
M  V30 1859 C 186.42 1.64545 -1.32243 0
M  V30 1860 O 185.768 2.23191 -0.489699 0
M  V30 1861 C 185.978 0.281722 -3.47861 0
M  V30 1862 C 187.326 0.511715 -4.21505 0
M  V30 1863 O 188.35 0.362023 -3.54356 0
M  V30 1864 O 187.209 0.804847 -5.40541 0
M  V30 1865 H 184.303 0.156845 -0.811991 0
M  V30 1866 H 186.849 -0.441494 -1.63856 0
M  V30 1867 H 185.621 -0.693571 -3.85104 0
M  V30 1868 H 185.244 1.02142 -3.84256 0
M  V30 1869 N 186.241 1.57166 -0.116904 0
M  V30 1870 C 187.487 1.95412 0.542405 0
M  V30 1871 C 187.82 1.00019 1.66463 0
M  V30 1872 O 187.095 0.0370346 1.94465 0
M  V30 1873 C 187.378 3.43615 1.07708 0
M  V30 1874 C 187.231 4.49781 -0.0415868 0
M  V30 1875 C 188.55 3.93616 1.96861 0
M  V30 1876 H 185.669 0.710543 0.195696 0
M  V30 1877 H 188.311 1.89027 -0.192038 0
M  V30 1878 H 186.461 3.49187 1.70296 0
M  V30 1879 H 188.133 4.56308 -0.676793 0
M  V30 1880 H 186.376 4.28033 -0.705019 0
M  V30 1881 H 187.047 5.50733 0.373717 0
M  V30 1882 H 189.523 3.90335 1.44146 0
M  V30 1883 H 188.399 4.97838 2.3119 0
M  V30 1884 H 188.66 3.34188 2.89432 0
M  V30 1885 N 187.719 -0.156864 1.56817 0
M  V30 1886 C 188.682 -1.17781 1.96622 0
M  V30 1887 C 189.682 -1.36401 0.851555 0
M  V30 1888 O 190.872 -1.33561 1.11836 0
M  V30 1889 C 188.004 -2.54008 2.27361 0
M  V30 1890 H 189.197 -0.836564 2.87996 0
M  V30 1891 H 186.75 -0.39985 1.51099 0
M  V30 1892 H 187.485 -2.9312 1.38748 0
M  V30 1893 H 187.27 -2.41856 3.08623 0
M  V30 1894 H 188.76 -3.27558 2.59029 0
M  V30 1895 N 189.197 -1.51736 -0.425897 0
M  V30 1896 C 190.425 -1.68794 -1.1965 0
M  V30 1897 C 190.84 -0.390164 -1.84725 0
M  V30 1898 O 190.197 0.632376 -1.71194 0
M  V30 1899 C 190.248 -2.81174 -2.27208 0
M  V30 1900 O 189.969 -4.05925 -1.64793 0
M  V30 1901 C 191.47 -3.09599 -3.17275 0
M  V30 1902 H 188.69 -0.566128 -0.360194 0
M  V30 1903 H 191.234 -1.98211 -0.503249 0
M  V30 1904 H 189.389 -2.54324 -2.9223 0
M  V30 1905 H 189.803 -4.68423 -2.35967 0
M  V30 1906 H 191.277 -3.91786 -3.88854 0
M  V30 1907 H 191.754 -2.22468 -3.78688 0
M  V30 1908 H 192.36 -3.38151 -2.57941 0
M  V30 1909 N 190.675 0.682077 -1.42076 0
M  V30 1910 C 191.915 1.45424 -1.43636 0
M  V30 1911 C 192.279 1.91939 -0.0484001 0
M  V30 1912 O 193.48 2.6873 0.0612514 0
M  V30 1913 C 191.751 2.62427 -2.42625 0
M  V30 1914 S 193.31 3.51379 -2.62827 0
M  V30 1915 H 190.128 0.496779 -0.508657 0
M  V30 1916 H 192.73 0.794645 -1.78621 0
M  V30 1917 H 191.434 2.26481 -3.42249 0
M  V30 1918 H 190.965 3.33266 -2.09039 0
M  V30 1919 H 192.98 4.58141 -1.9058 0
M  V30 1920 N 192.153 1.28127 0.917671 0
M  V30 1921 C 193.569 1.05749 1.19538 0
M  V30 1922 C 193.769 -0.202633 2.00479 0
M  V30 1923 O 192.825 -0.905382 2.3571 0
M  V30 1924 C 194.138 2.30273 1.93378 0
M  V30 1925 C 195.686 2.35412 2.06277 0
M  V30 1926 C 196.161 3.59692 2.83524 0
M  V30 1927 N 197.652 3.60309 2.91087 0
M  V30 1928 C 198.387 4.53147 3.51348 0
M  V30 1929 N 197.883 5.563 4.12919 0
M  V30 1930 N 199.676 4.40751 3.48849 0
M  V30 1931 H 191.827 2.09024 0.377184 0
M  V30 1932 H 194.09 0.919798 0.22951 0
M  V30 1933 H 193.796 3.22055 1.41328 0
M  V30 1934 H 193.67 2.36378 2.93947 0
M  V30 1935 H 196.057 1.4413 2.57508 0
M  V30 1936 H 196.138 2.33304 1.04895 0
M  V30 1937 H 195.782 4.51316 2.32973 0
M  V30 1938 H 195.712 3.59054 3.85211 0
M  V30 1939 H 198.203 2.85714 2.47338 0
M  V30 1940 H 198.516 6.2329 4.56869 0
M  V30 1941 H 196.861 5.60131 4.11435 0
M  V30 1942 H 200.052 3.59367 2.99955 0
M  V30 1943 H 200.225 5.13291 3.9552 0
M  V30 1944 N 193.631 -1.12557 1.10312 0
M  V30 1945 C 194.878 -1.84038 0.844759 0
M  V30 1946 C 195.206 -1.84026 -0.629668 0
M  V30 1947 O 194.461 -1.28026 -1.48013 0
M  V30 1948 C 194.76 -3.31462 1.33669 0
M  V30 1949 C 194.426 -3.51647 2.82232 0
M  V30 1950 C 193.088 -3.56864 3.22802 0
M  V30 1951 C 195.44 -3.58867 3.77974 0
M  V30 1952 C 192.768 -3.66844 4.57867 0
M  V30 1953 C 195.12 -3.70375 5.1284 0
M  V30 1954 C 193.784 -3.73848 5.52986 0
M  V30 1955 H 193.054 -0.673444 0.309119 0
M  V30 1956 H 195.701 -1.32824 1.37949 0
M  V30 1957 H 194.006 -3.85091 0.721949 0
M  V30 1958 H 195.703 -3.85236 1.11329 0
M  V30 1959 H 192.293 -3.48249 2.49842 0
M  V30 1960 H 196.477 -3.54107 3.47738 0
M  V30 1961 H 191.733 -3.67804 4.88396 0
M  V30 1962 H 195.907 -3.74904 5.86873 0
M  V30 1963 H 193.534 -3.81333 6.57639 0
M  V30 1964 N 195.109 -0.891671 -1.2995 0
M  V30 1965 C 196.339 -0.527893 -1.99742 0
M  V30 1966 C 196.747 0.88979 -1.66971 0
M  V30 1967 O 196.09 1.59766 -0.906667 0
M  V30 1968 C 196.152 -0.630804 -3.53922 0
M  V30 1969 C 195.816 -2.01401 -4.10228 0
M  V30 1970 C 196.813 -2.98422 -4.25724 0
M  V30 1971 C 194.498 -2.32121 -4.45449 0
M  V30 1972 C 196.492 -4.24293 -4.75662 0
M  V30 1973 C 194.179 -3.58237 -4.95086 0
M  V30 1974 C 195.177 -4.54137 -5.10146 0
M  V30 1975 O 194.865 -5.78014 -5.58708 0
M  V30 1976 H 194.597 -0.201953 -0.645129 0
M  V30 1977 H 197.151 -1.20076 -1.66646 0
M  V30 1978 H 195.381 0.0990616 -3.86573 0
M  V30 1979 H 197.07 -0.277338 -4.04951 0
M  V30 1980 H 197.836 -2.76001 -3.98809 0
M  V30 1981 H 193.715 -1.5824 -4.32991 0
M  V30 1982 H 197.259 -4.99153 -4.87332 0
M  V30 1983 H 193.156 -3.80491 -5.21437 0
M  V30 1984 H 193.924 -5.8049 -5.77039 0
M  V30 1985 N 196.587 1.43421 -0.653314 0
M  V30 1986 C 197.815 2.06163 -0.174491 0
M  V30 1987 C 198.23 1.48969 1.1599 0
M  V30 1988 O 197.587 0.621042 1.71608 0
M  V30 1989 C 197.638 3.61417 -0.0774865 0
M  V30 1990 O 197.359 4.16485 -1.35912 0
M  V30 1991 C 198.86 4.41235 0.427402 0
M  V30 1992 H 196.08 0.664946 -0.0899353 0
M  V30 1993 H 198.624 1.83924 -0.893988 0
M  V30 1994 H 196.779 3.82841 0.59257 0
M  V30 1995 H 197.193 5.10153 -1.21839 0
M  V30 1996 H 198.667 5.5021 0.44423 0
M  V30 1997 H 199.144 4.14268 1.45873 0
M  V30 1998 H 199.75 4.2478 -0.210167 0
M  V30 1999 N 198.065 0.39524 1.52563 0
M  V30 2000 C 198.995 -0.428384 2.29537 0
M  V30 2001 C 199.976 -1.05831 1.33169 0
M  V30 2002 O 201.161 -1.06995 1.62067 0
M  V30 2003 C 198.291 -1.55274 3.10656 0
M  V30 2004 C 197.245 -1.04855 4.14957 0
M  V30 2005 C 196.571 -2.26543 4.84337 0
M  V30 2006 C 197.871 -0.112324 5.22179 0
M  V30 2007 H 199.565 0.213867 2.98635 0
M  V30 2008 H 197.111 0.104298 1.43622 0
M  V30 2009 H 199.064 -2.1358 3.63265 0
M  V30 2010 H 197.788 -2.22266 2.39302 0
M  V30 2011 H 196.447 -0.487985 3.63338 0
M  V30 2012 H 196.095 -2.92059 4.09525 0
M  V30 2013 H 195.795 -1.93466 5.54837 0
M  V30 2014 H 197.319 -2.85481 5.39753 0
M  V30 2015 H 198.733 -0.603752 5.70112 0
M  V30 2016 H 197.13 0.128968 5.99961 0
M  V30 2017 H 198.2 0.837052 4.77621 0
M  V30 2018 N 199.544 -1.57102 0.125237 0
M  V30 2019 C 200.821 -1.86953 -0.575142 0
M  V30 2020 C 201.201 -1.02749 -1.84407 0
M  V30 2021 O 200.549 -0.108144 -2.28244 0
M  V30 2022 C 200.759 -3.38198 -0.861583 0
M  V30 2023 C 202.107 -4.06937 -1.21192 0
M  V30 2024 O 203.131 -3.43252 -0.951645 0
M  V30 2025 O 201.99 -5.19364 -1.70068 0
M  V30 2026 H 199.084 -0.774147 -0.290906 0
M  V30 2027 H 201.63 -1.68942 0.160211 0
M  V30 2028 H 200.402 -3.91282 0.0373647 0
M  V30 2029 H 200.025 -3.61661 -1.65188 0
M  V30 2030 N 201.022 0.148545 -1.56898 0
M  V30 2031 C 202.25 0.876389 -1.87422 0
M  V30 2032 C 202.665 1.74809 -0.713256 0
M  V30 2033 O 202.022 1.79725 0.317025 0
M  V30 2034 C 202.073 1.73438 -3.17178 0
M  V30 2035 O 201.794 0.897809 -4.28802 0
M  V30 2036 C 203.295 2.56993 -3.61205 0
M  V30 2037 H 200.515 0.253489 -0.621277 0
M  V30 2038 H 203.059 0.141798 -2.04008 0
M  V30 2039 H 201.214 2.42205 -3.0235 0
M  V30 2040 H 201.628 1.48672 -5.02988 0
M  V30 2041 H 203.102 3.12773 -4.54838 0
M  V30 2042 H 203.579 3.32958 -2.86419 0
M  V30 2043 H 204.185 1.9352 -3.78722 0
M  V30 2044 N 202.5 1.5196 0.417844 0
M  V30 2045 C 203.746 1.65836 1.16732 0
M  V30 2046 C 204.079 0.382881 1.90388 0
M  V30 2047 O 203.354 -0.618368 1.84408 0
M  V30 2048 C 203.637 2.87466 2.16876 0
M  V30 2049 C 203.49 4.25041 1.47174 0
M  V30 2050 C 204.809 3.04613 3.17646 0
M  V30 2051 H 201.928 0.603515 0.423011 0
M  V30 2052 H 204.57 1.84494 0.454105 0
M  V30 2053 H 202.72 2.71689 2.777 0
M  V30 2054 H 204.392 4.52527 0.895376 0
M  V30 2055 H 202.635 4.26843 0.773806 0
M  V30 2056 H 203.306 5.06176 2.20204 0
M  V30 2057 H 205.782 3.1923 2.66892 0
M  V30 2058 H 204.658 3.91247 3.8499 0
M  V30 2059 H 204.919 2.17541 3.84874 0
M  V30 2060 N 203.978 -0.674533 1.42435 0
M  V30 2061 C 204.911 -1.79924 1.40366 0
M  V30 2062 C 205.889 -1.60378 0.267899 0
M  V30 2063 O 207.073 -1.82847 0.458159 0
M  V30 2064 C 204.2 -3.16927 1.19478 0
M  V30 2065 C 203.246 -3.55221 2.36051 0
M  V30 2066 S 204.079 -3.5762 3.98583 0
M  V30 2067 C 205.235 -4.97315 3.80038 0
M  V30 2068 H 205.468 -1.81405 2.35541 0
M  V30 2069 H 203.001 -0.845221 1.29211 0
M  V30 2070 H 204.959 -3.96007 1.08114 0
M  V30 2071 H 203.62 -3.13031 0.258883 0
M  V30 2072 H 202.813 -4.54804 2.17185 0
M  V30 2073 H 202.415 -2.83502 2.43932 0
M  V30 2074 H 204.707 -5.85401 3.41045 0
M  V30 2075 H 205.65 -5.21228 4.79298 0
M  V30 2076 H 206.058 -4.69845 3.12899 0
M  V30 2077 N 205.456 -1.28612 -0.910864 0
M  V30 2078 C 206.702 -1.17116 -1.66299 0
M  V30 2079 C 207.057 0.276917 -1.90397 0
M  V30 2080 O 206.35 1.19795 -1.49532 0
M  V30 2081 C 206.544 -1.90624 -3.0232 0
M  V30 2082 C 206.373 -3.42431 -2.91498 0
M  V30 2083 C 205.143 -4.11773 -2.92867 0
M  V30 2084 C 207.341 -4.38124 -2.69355 0
M  V30 2085 N 205.323 -5.50025 -2.72664 0
M  V30 2086 C 206.694 -5.63759 -2.58023 0
M  V30 2087 C 208.749 -4.28016 -2.54375 0
M  V30 2088 C 207.452 -6.80436 -2.33238 0
M  V30 2089 C 209.478 -5.44433 -2.30969 0
M  V30 2090 C 208.84 -6.69034 -2.20394 0
M  V30 2091 H 204.939 -0.483506 -0.61461 0
M  V30 2092 H 207.523 -1.62299 -1.0755 0
M  V30 2093 H 205.694 -1.4787 -3.5915 0
M  V30 2094 H 207.426 -1.71488 -3.66571 0
M  V30 2095 H 204.181 -3.63378 -3.03732 0
M  V30 2096 H 204.605 -6.22705 -2.65646 0
M  V30 2097 H 209.247 -3.32388 -2.613 0
M  V30 2098 H 206.965 -7.7613 -2.25051 0
M  V30 2099 H 210.551 -5.38504 -2.20238 0
M  V30 2100 H 209.431 -7.57595 -2.02531 0
M  V30 2101 N 206.934 1.1197 -1.10907 0
M  V30 2102 C 208.182 1.83225 -0.852819 0
M  V30 2103 C 208.503 1.84769 0.623341 0
M  V30 2104 O 207.773 1.3143 1.45269 0
M  V30 2105 H 206.353 0.67849 -0.312507 0
M  V30 2106 H 209.015 1.3556 -1.40033 0
M  V30 2107 H 208.111 2.87265 -1.22005 0
M  V30 2108 N 208.412 0.89855 1.29475 0
M  V30 2109 C 209.359 0.373819 2.27753 0
M  V30 2110 C 210.329 -0.543444 1.56958 0
M  V30 2111 O 211.514 -0.468934 1.84948 0
M  V30 2112 C 208.654 -0.393648 3.42848 0
M  V30 2113 C 207.767 0.554379 4.28428 0
M  V30 2114 C 206.902 -0.230026 5.30702 0
M  V30 2115 C 205.941 0.712599 6.07938 0
M  V30 2116 N 205.078 -0.0373283 7.0209 0
M  V30 2117 H 209.918 1.21699 2.72017 0
M  V30 2118 H 207.455 0.611456 1.33789 0
M  V30 2119 H 209.413 -0.85466 4.08352 0
M  V30 2120 H 208.043 -1.20128 2.99615 0
M  V30 2121 H 207.095 1.13391 3.63107 0
M  V30 2122 H 208.407 1.27597 4.82204 0
M  V30 2123 H 207.561 -0.752288 6.02018 0
M  V30 2124 H 206.3 -0.984758 4.77654 0
M  V30 2125 H 205.305 1.24637 5.35486 0
M  V30 2126 H 206.53 1.46664 6.63074 0
M  V30 2127 H 204.476 -0.774348 6.51414 0
M  V30 2128 H 204.393 0.624374 7.53417 0
M  V30 2129 H 205.661 -0.539891 7.77628 0
M  V30 2130 N 209.89 -1.43072 0.660911 0
M  V30 2131 C 210.8 -2.34585 -0.0264163 0
M  V30 2132 C 211.816 -1.54316 -0.803898 0
M  V30 2133 O 212.992 -1.86939 -0.749391 0
M  V30 2134 C 210.057 -3.32689 -0.975639 0
M  V30 2135 C 209.118 -4.2886 -0.194236 0
M  V30 2136 C 208.351 -5.22278 -1.09825 0
M  V30 2137 O 208.574 -5.20299 -2.33763 0
M  V30 2138 O 207.508 -5.99228 -0.566513 0
M  V30 2139 H 211.334 -2.94869 0.727034 0
M  V30 2140 H 208.919 -1.43342 0.42111 0
M  V30 2141 H 210.801 -3.92995 -1.52094 0
M  V30 2142 H 209.476 -2.74898 -1.70918 0
M  V30 2143 H 208.383 -3.72011 0.394835 0
M  V30 2144 H 209.716 -4.89655 0.499899 0
M  V30 2145 N 211.368 -0.403325 -1.52352 0
M  V30 2146 C 212.593 0.176499 -2.06648 0
M  V30 2147 C 213.018 1.38577 -1.27193 0
M  V30 2148 O 212.376 1.7879 -0.300637 0
M  V30 2149 C 212.424 0.511061 -3.5696 0
M  V30 2150 O 211.528 1.60294 -3.79973 0
M  V30 2151 H 210.869 0.0167337 -0.663789 0
M  V30 2152 H 213.399 -0.574848 -1.96359 0
M  V30 2153 H 213.409 0.771362 -4.00642 0
M  V30 2154 H 212.084 -0.37296 -4.14224 0
M  V30 2155 H 210.661 1.33526 -3.48174 0
M  V30 2156 N 212.846 1.57033 -0.133567 0
M  V30 2157 C 213.793 2.16074 0.811208 0
M  V30 2158 C 214.763 1.08979 1.2535 0
M  V30 2159 O 215.948 1.36958 1.32843 0
M  V30 2160 C 213.088 2.77595 2.05024 0
M  V30 2161 C 212.201 3.99042 1.65498 0
M  V30 2162 C 211.336 4.48603 2.84479 0
M  V30 2163 C 210.375 5.62547 2.41262 0
M  V30 2164 N 209.512 6.06787 3.53206 0
M  V30 2165 H 214.352 2.96477 0.300906 0
M  V30 2166 H 211.889 1.46462 0.136822 0
M  V30 2167 H 213.847 3.11402 2.77642 0
M  V30 2168 H 212.477 1.99859 2.53488 0
M  V30 2169 H 211.529 3.71302 0.826981 0
M  V30 2170 H 212.841 4.81629 1.29748 0
M  V30 2171 H 211.995 4.84395 3.65303 0
M  V30 2172 H 210.734 3.64995 3.23465 0
M  V30 2173 H 209.739 5.26345 1.58874 0
M  V30 2174 H 210.964 6.47931 2.03377 0
M  V30 2175 H 208.91 5.26117 3.91838 0
M  V30 2176 H 208.827 6.84266 3.21427 0
M  V30 2177 H 210.095 6.4722 4.34427 0
M  V30 2178 N 214.325 -0.140222 1.56975 0
M  V30 2179 C 215.573 -0.850005 1.83356 0
M  V30 2180 C 215.894 -1.81399 0.71551 0
M  V30 2181 O 215.164 -1.94136 -0.262294 0
M  V30 2182 H 213.744 -0.316886 0.676456 0
M  V30 2183 H 216.406 -0.132608 1.94448 0
M  V30 2184 H 215.502 -1.40814 2.78528 0
M  V30 2185 N 215.803 -1.52179 -0.40978 0
M  V30 2186 C 217.049 -1.67408 -1.15525 0
M  V30 2187 C 217.404 -0.398746 -1.88223 0
M  V30 2188 O 216.697 0.60678 -1.81738 0
M  V30 2189 C 216.891 -2.83428 -2.17723 0
M  V30 2190 C 216.72 -4.22121 -1.55061 0
M  V30 2191 C 215.49 -4.87657 -1.3236 0
M  V30 2192 C 217.688 -5.04248 -1.01185 0
M  V30 2193 N 215.67 -6.10387 -0.655834 0
M  V30 2194 C 217.041 -6.18209 -0.470963 0
M  V30 2195 C 219.096 -4.89583 -0.906252 0
M  V30 2196 C 217.799 -7.1911 0.165172 0
M  V30 2197 C 219.825 -5.90718 -0.28397 0
M  V30 2198 C 219.187 -7.03969 0.246243 0
M  V30 2199 H 215.286 -0.666251 -0.409431 0
M  V30 2200 H 217.87 -1.89482 -0.447729 0
M  V30 2201 H 216.041 -2.6297 -2.85834 0
M  V30 2202 H 217.773 -2.87697 -2.84627 0
M  V30 2203 H 214.528 -4.46007 -1.59294 0
M  V30 2204 H 214.952 -6.76153 -0.338596 0
M  V30 2205 H 219.594 -4.02253 -1.302 0
M  V30 2206 H 217.312 -8.06066 0.572986 0
M  V30 2207 H 220.898 -5.81443 -0.203792 0
M  V30 2208 H 219.778 -7.80886 0.720173 0
M  V30 2209 N 217.281 0.66697 -1.42791 0
M  V30 2210 C 218.527 1.42754 -1.44889 0
M  V30 2211 C 218.882 1.92283 -0.0669755 0
M  V30 2212 O 218.175 1.68494 0.912154 0
M  V30 2213 C 218.369 2.6349 -2.4147 0
M  V30 2214 C 218.198 2.25776 -3.88915 0
M  V30 2215 C 216.968 2.1476 -4.57391 0
M  V30 2216 C 219.166 1.86927 -4.79127 0
M  V30 2217 N 217.148 1.70232 -5.89826 0
M  V30 2218 C 218.519 1.53378 -6.00729 0
M  V30 2219 C 220.574 1.73989 -4.66511 0
M  V30 2220 C 219.277 1.08187 -7.11117 0
M  V30 2221 C 221.303 1.30203 -5.76889 0
M  V30 2222 C 220.665 0.975818 -6.97608 0
M  V30 2223 H 216.764 0.518559 -0.585338 0
M  V30 2224 H 219.348 0.768906 -1.78874 0
M  V30 2225 H 217.519 3.27033 -2.09533 0
M  V30 2226 H 219.251 3.30123 -2.34096 0
M  V30 2227 H 216.006 2.3408 -4.11708 0
M  V30 2228 H 216.43 1.50369 -6.6009 0
M  V30 2229 H 221.072 1.97853 -3.7365 0
M  V30 2230 H 218.79 0.830701 -8.03819 0
M  V30 2231 H 222.376 1.20701 -5.69142 0
M  V30 2232 H 221.256 0.642157 -7.81566 0
M  V30 2233 N 218.759 1.29093 0.90403 0
M  V30 2234 C 220.005 1.17996 1.65676 0
M  V30 2235 C 220.36 -0.266816 1.90541 0
M  V30 2236 O 219.653 -1.19 1.50165 0
M  V30 2237 C 219.847 1.92224 3.01305 0
M  V30 2238 C 219.676 3.43972 2.89678 0
M  V30 2239 C 218.446 4.1332 2.90679 0
M  V30 2240 C 220.644 4.39546 2.67028 0
M  V30 2241 N 218.626 5.51463 2.69743 0
M  V30 2242 C 219.997 5.65119 2.5503 0
M  V30 2243 C 222.052 4.29359 2.52101 0
M  V30 2244 C 220.755 6.81663 2.29626 0
M  V30 2245 C 222.781 5.4565 2.28079 0
M  V30 2246 C 222.143 6.70193 2.16843 0
M  V30 2247 H 218.242 0.486759 0.612037 0
M  V30 2248 H 220.826 1.62868 1.06688 0
M  V30 2249 H 218.997 1.49773 3.58361 0
M  V30 2250 H 220.729 1.73429 3.65656 0
M  V30 2251 H 217.484 3.64984 3.01801 0
M  V30 2252 H 217.908 6.24105 2.6234 0
M  V30 2253 H 222.55 3.33769 2.59534 0
M  V30 2254 H 220.268 7.77313 2.20932 0
M  V30 2255 H 223.854 5.39664 2.1738 0
M  V30 2256 H 222.734 7.58659 1.98511 0
M  V30 2257 N 220.237 -1.11381 1.11499 0
M  V30 2258 C 221.184 -2.17439 0.773887 0
M  V30 2259 C 222.154 -1.64132 -0.254899 0
M  V30 2260 O 223.339 -1.90345 -0.13168 0
M  V30 2261 C 220.479 -3.44373 0.223917 0
M  V30 2262 C 219.592 -4.1168 1.30934 0
M  V30 2263 C 218.727 -5.263 0.71984 0
M  V30 2264 C 217.766 -5.85493 1.78507 0
M  V30 2265 N 216.903 -6.91507 1.21502 0
M  V30 2266 H 221.743 -2.45962 1.68246 0
M  V30 2267 H 219.28 -1.20744 0.840191 0
M  V30 2268 H 221.238 -4.17047 -0.112921 0
M  V30 2269 H 219.868 -3.16232 -0.647851 0
M  V30 2270 H 218.92 -3.37073 1.76312 0
M  V30 2271 H 220.232 -4.51729 2.11524 0
M  V30 2272 H 219.386 -6.05785 0.333094 0
M  V30 2273 H 218.125 -4.87559 -0.117377 0
M  V30 2274 H 217.13 -5.04686 2.18111 0
M  V30 2275 H 218.355 -6.26301 2.62533 0
M  V30 2276 H 216.301 -6.54783 0.399455 0
M  V30 2277 H 216.218 -7.30214 1.95763 0
M  V30 2278 H 217.486 -7.74795 0.855181 0
M  V30 2279 N 221.715 -0.905404 -1.28997 0
M  V30 2280 C 222.645 -0.404212 -2.29975 0
M  V30 2281 C 223.626 0.523784 -1.61835 0
M  V30 2282 O 224.811 0.433298 -1.89304 0
M  V30 2283 C 221.941 0.364042 -3.45387 0
M  V30 2284 C 220.895 -0.474048 -4.25367 0
M  V30 2285 C 220.221 0.422045 -5.33032 0
M  V30 2286 C 221.521 -1.72696 -4.92923 0
M  V30 2287 H 223.215 -1.24807 -2.72146 0
M  V30 2288 H 220.761 -0.601585 -1.30832 0
M  V30 2289 H 222.714 0.725447 -4.15109 0
M  V30 2290 H 221.438 1.24174 -3.02074 0
M  V30 2291 H 220.097 -0.81786 -3.57361 0
M  V30 2292 H 219.745 1.29804 -4.85963 0
M  V30 2293 H 219.445 -0.135057 -5.87445 0
M  V30 2294 H 220.969 0.779517 -6.05604 0
M  V30 2295 H 222.383 -1.43495 -5.55051 0
M  V30 2296 H 220.78 -2.22582 -5.57295 0
M  V30 2297 H 221.85 -2.45964 -4.17887 0
M  V30 2298 N 223.193 1.4272 -0.668489 0
M  V30 2299 C 224.604 1.84793 -0.266151 0
M  V30 2300 C 224.955 1.55959 1.19043 0
M  V30 2301 O 224.08 1.01622 1.91055 0
M  V30 2302 C 224.675 3.35436 -0.476271 0
M  V30 2303 C 223.234 3.76182 -0.128113 0
M  V30 2304 C 222.381 2.66344 -0.771777 0
M  V30 2305 H 225.332 1.32656 -0.871098 0
M  V30 2306 H 225.353 3.79515 0.273561 0
M  V30 2307 H 224.865 3.5639 -1.53647 0
M  V30 2308 H 222.966 3.60836 0.928891 0
M  V30 2309 H 223.079 4.75766 -0.564231 0
M  V30 2310 H 221.443 2.53885 -0.203652 0
M  V30 2311 H 222.226 2.90123 -1.83531 0
M  V30 2312 N 224.671 0.411399 1.52136 0
M  V30 2313 C 225.948 -0.222308 1.94333 0
M  V30 2314 C 226.328 -1.6242 1.34844 0
M  V30 2315 O 225.676 -2.22384 0.525145 0
M  V30 2316 C 225.886 -0.226345 3.48265 0
M  V30 2317 C 227.234 -0.444592 4.22266 0
M  V30 2318 O 228.258 -0.305602 3.54887 0
M  V30 2319 O 227.117 -0.718749 5.41753 0
M  V30 2320 H 224.211 -0.143907 0.814383 0
M  V30 2321 H 226.757 0.467506 1.63133 0
M  V30 2322 H 225.529 0.75475 3.83952 0
M  V30 2323 H 225.152 -0.960163 3.85832 0
M  V30 2324 N 226.149 -1.5696 0.141893 0
M  V30 2325 C 227.112 -2.15316 -0.785587 0
M  V30 2326 C 228.112 -1.09366 -1.1788 0
M  V30 2327 O 229.302 -1.35031 -1.10056 0
M  V30 2328 C 226.434 -2.71211 -2.06537 0
M  V30 2329 H 227.627 -2.98608 -0.278041 0
M  V30 2330 H 225.18 -1.5593 -0.107519 0
M  V30 2331 H 225.915 -1.91571 -2.6167 0
M  V30 2332 H 225.7 -3.4872 -1.79268 0
M  V30 2333 H 227.19 -3.16189 -2.72789 0
M  V30 2334 N 227.627 0.131896 -1.57047 0
M  V30 2335 C 228.557 1.16384 -2.02428 0
M  V30 2336 C 229.538 1.43936 -0.90644 0
M  V30 2337 O 230.723 1.54599 -1.17528 0
M  V30 2338 C 227.853 2.49328 -2.4177 0
M  V30 2339 C 226.807 2.36266 -3.56879 0
M  V30 2340 C 226.133 3.74057 -3.8208 0
M  V30 2341 C 227.433 1.834 -4.89042 0
M  V30 2342 H 229.127 0.786433 -2.88887 0
M  V30 2343 H 226.673 0.376855 -1.38981 0
M  V30 2344 H 228.626 3.21759 -2.7212 0
M  V30 2345 H 227.35 2.88934 -1.52266 0
M  V30 2346 H 226.009 1.66286 -3.26718 0
M  V30 2347 H 225.657 4.11125 -2.89803 0
M  V30 2348 H 225.357 3.66174 -4.59554 0
M  V30 2349 H 226.881 4.48012 -4.1487 0
M  V30 2350 H 228.295 2.45636 -5.18011 0
M  V30 2351 H 226.692 1.8637 -5.70426 0
M  V30 2352 H 227.762 0.790662 -4.7841 0
M  V30 2353 N 229.106 1.52395 0.401703 0
M  V30 2354 C 230.522 1.41363 0.740864 0
M  V30 2355 C 230.722 0.523982 1.94568 0
M  V30 2356 O 229.778 -0.00741204 2.52499 0
M  V30 2357 C 231.091 2.84011 0.987847 0
M  V30 2358 C 232.639 2.93404 1.09011 0
M  V30 2359 C 233.114 4.37036 1.3698 0
M  V30 2360 N 234.605 4.40304 1.43829 0
M  V30 2361 C 235.34 5.48508 1.67112 0
M  V30 2362 N 234.836 6.66819 1.87949 0
M  V30 2363 N 236.629 5.36034 1.69187 0
M  V30 2364 H 228.78 2.08765 -0.391262 0
M  V30 2365 H 231.043 0.941265 -0.112798 0
M  V30 2366 H 230.749 3.51265 0.174835 0
M  V30 2367 H 230.623 3.25502 1.906 0
M  V30 2368 H 233.01 2.26325 1.8937 0
M  V30 2369 H 233.091 2.55359 0.15015 0
M  V30 2370 H 232.735 5.04676 0.571353 0
M  V30 2371 H 232.665 4.72623 2.3224 0
M  V30 2372 H 235.156 3.55024 1.29486 0
M  V30 2373 H 235.469 7.45063 2.05185 0
M  V30 2374 H 233.814 6.6987 1.85199 0
M  V30 2375 H 237.005 4.42579 1.52451 0
M  V30 2376 H 237.178 6.20434 1.86993 0
M  V30 2377 N 230.584 -0.659388 1.43143 0
M  V30 2378 C 231.861 -1.41627 1.34912 0
M  V30 2379 C 232.241 -2.11099 -0.00607785 0
M  V30 2380 O 231.589 -2.04353 -1.02236 0
M  V30 2381 C 231.799 -2.40604 2.52805 0
M  V30 2382 C 233.147 -3.04789 2.95616 0
M  V30 2383 O 234.171 -2.50932 2.52807 0
M  V30 2384 O 233.03 -4.02421 3.69756 0
M  V30 2385 H 230.124 -0.63246 0.532844 0
M  V30 2386 H 232.67 -0.686814 1.5518 0
M  V30 2387 H 231.442 -1.88174 3.43083 0
M  V30 2388 H 231.065 -3.21009 2.34604 0
M  V30 2389 N 232.062 -1.29571 -0.897171 0
M  V30 2390 C 232.995 -1.0924 -2.00354 0
M  V30 2391 C 233.973 -0.00354011 -1.626 0
M  V30 2392 O 235.157 -0.15473 -1.87864 0
M  V30 2393 C 232.284 -0.66352 -3.32137 0
M  V30 2394 C 231.33 -1.75146 -3.88878 0
M  V30 2395 S 232.163 -3.35124 -4.17674 0
M  V30 2396 C 233.319 -2.9411 -5.52494 0
M  V30 2397 H 233.552 -2.02907 -2.17292 0
M  V30 2398 H 231.085 -1.13746 -1.04408 0
M  V30 2399 H 233.043 -0.422791 -4.08317 0
M  V30 2400 H 231.704 0.253588 -3.13075 0
M  V30 2401 H 230.897 -1.40337 -4.84068 0
M  V30 2402 H 230.499 -1.94584 -3.19395 0
M  V30 2403 H 232.791 -2.41312 -6.33068 0
M  V30 2404 H 233.734 -3.88161 -5.9223 0
M  V30 2405 H 234.142 -2.32332 -5.14473 0
M  V30 2406 N 233.54 1.10788 -1.12088 0
M  V30 2407 C 234.788 1.8231 -0.872205 0
M  V30 2408 C 235.109 1.85419 0.603709 0
M  V30 2409 O 234.379 1.32963 1.43867 0
M  V30 2410 H 232.959 0.675137 -0.319686 0
M  V30 2411 H 235.621 1.34068 -1.41463 0
M  V30 2412 H 234.717 2.85955 -1.25045 0
M  V30 2413 N 235.018 0.912232 1.28515 0
M  V30 2414 C 235.948 0.416403 2.29757 0
M  V30 2415 C 236.929 -0.515194 1.6211 0
M  V30 2416 O 238.114 -0.423253 1.89532 0
M  V30 2417 C 235.244 -0.34572 3.45575 0
M  V30 2418 C 234.198 0.496599 4.25109 0
M  V30 2419 C 233.524 -0.393771 5.33248 0
M  V30 2420 C 234.824 1.75307 4.92001 0
M  V30 2421 H 236.518 1.26249 2.7148 0
M  V30 2422 H 234.064 0.608515 1.30511 0
M  V30 2423 H 236.017 -0.703422 4.15488 0
M  V30 2424 H 234.741 -1.2257 3.02728 0
M  V30 2425 H 233.4 0.8368 3.56922 0
M  V30 2426 H 233.048 -1.27225 4.86644 0
M  V30 2427 H 232.748 0.166209 5.87365 0
M  V30 2428 H 234.272 -0.747389 6.06009 0
M  V30 2429 H 235.686 1.46437 5.54283 0
M  V30 2430 H 234.083 2.25534 5.56106 0
M  V30 2431 H 235.153 2.48176 4.16577 0
M  V30 2432 N 236.496 -1.42363 0.676048 0
M  V30 2433 C 237.743 -2.01522 0.19883 0
M  V30 2434 C 238.071 -1.53456 -1.19505 0
M  V30 2435 O 237.326 -0.727967 -1.81657 0
M  V30 2436 C 237.625 -3.56929 0.183431 0
M  V30 2437 C 237.291 -4.24431 1.52215 0
M  V30 2438 C 235.953 -4.42585 1.8887 0
M  V30 2439 C 238.305 -4.62459 2.40377 0
M  V30 2440 C 235.633 -4.96039 3.13309 0
M  V30 2441 C 237.985 -5.17294 3.64129 0
M  V30 2442 C 236.649 -5.33661 4.00951 0
M  V30 2443 H 235.919 -0.737419 0.0727571 0
M  V30 2444 H 238.566 -1.70531 0.871281 0
M  V30 2445 H 236.871 -3.87594 -0.572532 0
M  V30 2446 H 238.568 -4.00486 -0.203035 0
M  V30 2447 H 235.158 -4.10661 1.22701 0
M  V30 2448 H 239.342 -4.48105 2.13343 0
M  V30 2449 H 234.598 -5.06896 3.41857 0
M  V30 2450 H 238.772 -5.45704 4.32644 0
M  V30 2451 H 236.399 -5.74845 4.9745 0
M  V30 2452 N 237.974 -0.419461 -1.51915 0
M  V30 2453 C 239.222 0.152637 -2.01523 0
M  V30 2454 C 239.543 1.44762 -1.30649 0
M  V30 2455 O 238.813 1.90997 -0.435535 0
M  V30 2456 H 237.393 0.0593966 -0.744635 0
M  V30 2457 H 240.055 -0.558073 -1.86739 0
M  V30 2458 H 239.151 0.341369 -3.10227 0
M  V30 2459 N 239.452 1.56882 -0.150215 0
M  V30 2460 C 240.384 2.14057 0.819286 0
M  V30 2461 C 241.397 1.09082 1.20851 0
M  V30 2462 O 242.586 1.36347 1.15203 0
M  V30 2463 C 239.686 2.65102 2.11127 0
M  V30 2464 C 238.859 3.94511 1.88891 0
M  V30 2465 C 237.918 4.30834 3.02107 0
M  V30 2466 O 236.944 4.99099 2.73659 0
M  V30 2467 N 238.146 3.90676 4.29363 0
M  V30 2468 H 240.911 2.97871 0.330618 0
M  V30 2469 H 238.472 1.61866 0.0332538 0
M  V30 2470 H 240.464 2.86411 2.85921 0
M  V30 2471 H 239.034 1.85994 2.51247 0
M  V30 2472 H 238.254 3.81795 0.981152 0
M  V30 2473 H 239.542 4.7907 1.71376 0
M  V30 2474 H 238.94 3.35677 4.55343 0
M  V30 2475 H 237.497 4.1703 5.00928 0
M  V30 2476 N 240.93 -0.123565 1.57115 0
M  V30 2477 C 241.878 -1.17082 2.00984 0
M  V30 2478 C 242.872 -1.43136 0.906009 0
M  V30 2479 O 244.078 -1.43152 1.09121 0
M  V30 2480 H 240.453 -0.394653 0.64012 0
M  V30 2481 H 242.424 -0.774292 2.88179 0
M  V30 2482 C 241.173 -2.49057 2.42623 0
M  V30 2483 H 240.496 -2.29846 3.27125 0
M  V30 2484 H 241.936 -3.20906 2.7712 0
M  V30 2485 C 240.395 -3.11305 1.28805 0
M  V30 2486 O 240.925 -3.97171 0.60153 0
M  V30 2487 N 239.131 -2.71111 1.04628 0
M  V30 2488 H 238.678 -2.01382 1.60634 0
M  V30 2489 H 238.636 -3.1309 0.286685 0
M  V30 2490 N 242.408 -1.52605 -0.393616 0
M  V30 2491 C 243.341 -1.71798 -1.50202 0
M  V30 2492 C 244.319 -0.565743 -1.52441 0
M  V30 2493 O 245.503 -0.794987 -1.70916 0
M  V30 2494 C 242.63 -1.7714 -2.88685 0
M  V30 2495 C 241.676 -2.98845 -3.04292 0
M  V30 2496 S 242.509 -4.58909 -2.75976 0
M  V30 2497 C 243.665 -4.6706 -4.1666 0
M  V30 2498 H 243.898 -2.65542 -1.33696 0
M  V30 2499 H 241.431 -1.42839 -0.586195 0
M  V30 2500 H 243.389 -1.80903 -3.68489 0
M  V30 2501 H 242.05 -0.844969 -3.02521 0
M  V30 2502 H 241.243 -2.99111 -4.05646 0
M  V30 2503 H 240.845 -2.9305 -2.32374 0
M  V30 2504 H 243.137 -4.45391 -5.10523 0
M  V30 2505 H 244.08 -5.6905 -4.21412 0
M  V30 2506 H 244.488 -3.95944 -4.02354 0
M  V30 2507 N 243.887 0.651787 -1.4349 0
M  V30 2508 C 245.117 1.43728 -1.48411 0
M  V30 2509 C 245.525 1.8893 -0.10103 0
M  V30 2510 O 244.868 1.60182 0.899307 0
M  V30 2511 C 244.93 2.70411 -2.36893 0
M  V30 2512 C 244.594 2.4714 -3.8441 0
M  V30 2513 C 245.591 2.10271 -4.75481 0
M  V30 2514 C 243.276 2.6142 -4.28912 0
M  V30 2515 C 245.27 1.87982 -6.0905 0
M  V30 2516 C 242.957 2.38746 -5.62533 0
M  V30 2517 C 243.955 2.02083 -6.5242 0
M  V30 2518 O 243.643 1.79647 -7.8357 0
M  V30 2519 H 243.375 0.447962 -0.506267 0
M  V30 2520 H 245.929 0.80624 -1.88915 0
M  V30 2521 H 244.159 3.36079 -1.91278 0
M  V30 2522 H 245.848 3.32364 -2.33 0
M  V30 2523 H 246.614 1.98814 -4.42378 0
M  V30 2524 H 242.493 2.88931 -3.59222 0
M  V30 2525 H 246.037 1.5929 -6.7917 0
M  V30 2526 H 241.934 2.49806 -5.95203 0
M  V30 2527 H 242.702 1.9406 -7.95162 0
M  V30 2528 N 245.365 1.30045 0.890287 0
M  V30 2529 C 246.595 1.21296 1.67245 0
M  V30 2530 C 247.003 -0.227471 1.87828 0
M  V30 2531 O 246.346 -1.16296 1.422 0
M  V30 2532 C 246.408 1.86519 3.07329 0
M  V30 2533 C 246.072 3.35837 3.09939 0
M  V30 2534 C 247.069 4.31915 2.89389 0
M  V30 2535 C 244.754 3.77196 3.31706 0
M  V30 2536 C 246.748 5.67325 2.90552 0
M  V30 2537 C 244.435 5.12725 3.32499 0
M  V30 2538 C 245.433 6.076 3.11947 0
M  V30 2539 O 245.121 7.40655 3.12547 0
M  V30 2540 H 244.853 0.4211 0.528821 0
M  V30 2541 H 247.407 1.72111 1.12103 0
M  V30 2542 H 245.637 1.30228 3.64112 0
M  V30 2543 H 247.326 1.71963 3.67673 0
M  V30 2544 H 248.092 4.01294 2.72375 0
M  V30 2545 H 243.971 3.03796 3.4674 0
M  V30 2546 H 247.515 6.41354 2.74429 0
M  V30 2547 H 243.412 5.42988 3.49047 0
M  V30 2548 H 244.18 7.49577 3.28749 0
M  V30 2549 N 246.843 -1.10192 1.12674 0
M  V30 2550 C 247.793 -2.14754 0.765801 0
M  V30 2551 C 248.777 -1.59154 -0.236409 0
M  V30 2552 O 249.969 -1.76951 -0.0415261 0
M  V30 2553 C 247.098 -3.42563 0.224827 0
M  V30 2554 C 246.184 -4.05091 1.25548 0
M  V30 2555 N 246.575 -4.42287 2.4539 0
M  V30 2556 C 244.873 -4.32186 1.10142 0
M  V30 2557 C 245.574 -4.91441 3.11224 0
M  V30 2558 N 244.55 -4.88405 2.38666 0
M  V30 2559 H 248.352 -2.41309 1.67772 0
M  V30 2560 H 245.866 -1.27339 1.00789 0
M  V30 2561 H 247.863 -4.16868 -0.0519578 0
M  V30 2562 H 246.523 -3.17467 -0.681515 0
M  V30 2563 H 247.534 -4.33902 2.82754 0
M  V30 2564 H 244.211 -4.16735 0.252587 0
M  V30 2565 H 245.601 -5.29749 4.13298 0
M  V30 2566 N 248.321 -0.919034 -1.28029 0
M  V30 2567 C 249.551 -0.570143 -1.98577 0
M  V30 2568 C 249.959 0.854172 -1.68821 0
M  V30 2569 O 249.302 1.57807 -0.940351 0
M  V30 2570 C 249.364 -0.705734 -3.52505 0
M  V30 2571 C 249.028 -2.10057 -4.05863 0
M  V30 2572 C 250.025 -3.07385 -4.19298 0
M  V30 2573 C 247.71 -2.41517 -4.40426 0
M  V30 2574 C 249.704 -4.34287 -4.66555 0
M  V30 2575 C 247.391 -3.68657 -4.87376 0
M  V30 2576 C 248.389 -4.64856 -5.00398 0
M  V30 2577 O 248.077 -5.89735 -5.46322 0
M  V30 2578 H 247.809 -0.215592 -0.6407 0
M  V30 2579 H 250.363 -1.23583 -1.64062 0
M  V30 2580 H 248.593 0.0170414 -3.86696 0
M  V30 2581 H 250.282 -0.363172 -4.04272 0
M  V30 2582 H 251.048 -2.84398 -3.92865 0
M  V30 2583 H 246.927 -1.67389 -4.29537 0
M  V30 2584 H 250.471 -5.09377 -4.76635 0
M  V30 2585 H 246.368 -3.91466 -5.13249 0
M  V30 2586 H 247.136 -5.92599 -5.64596 0
M  V30 2587 N 249.799 1.42003 -0.683588 0
M  V30 2588 C 250.729 2.33487 -0.024866 0
M  V30 2589 C 251.71 1.51163 0.779975 0
M  V30 2590 O 252.895 1.79739 0.735362 0
M  V30 2591 C 250.025 3.3487 0.920836 0
M  V30 2592 C 248.979 4.27414 0.223958 0
M  V30 2593 C 248.305 5.19074 1.2832 0
M  V30 2594 C 249.605 5.14445 -0.90242 0
M  V30 2595 H 251.299 2.88819 -0.788921 0
M  V30 2596 H 248.845 1.38873 -0.38083 0
M  V30 2597 H 250.798 3.97787 1.39081 0
M  V30 2598 H 249.522 2.77861 1.71642 0
M  V30 2599 H 248.181 3.65904 -0.225864 0
M  V30 2600 H 247.829 4.58387 2.071 0
M  V30 2601 H 247.529 5.81822 0.821995 0
M  V30 2602 H 249.053 5.84867 1.75392 0
M  V30 2603 H 250.467 5.70998 -0.513272 0
M  V30 2604 H 248.864 5.86072 -1.28997 0
M  V30 2605 H 249.934 4.52322 -1.74737 0
M  V30 2606 N 251.277 0.427512 1.51691 0
M  V30 2607 C 252.525 -0.141948 2.01601 0
M  V30 2608 C 252.846 -1.44067 1.31414 0
M  V30 2609 O 252.116 -1.90763 0.445658 0
M  V30 2610 H 250.696 -0.0554468 0.744939 0
M  V30 2611 H 253.358 0.567968 1.86441 0
M  V30 2612 H 252.454 -0.324913 3.10404 0
M  V30 2613 N 252.755 -1.56801 0.158532 0
M  V30 2614 C 254.171 -1.5837 -0.197774 0
M  V30 2615 C 254.371 -1.17334 -1.63814 0
M  V30 2616 O 253.427 -0.878988 -2.36707 0
M  V30 2617 C 254.74 -3.00615 0.0714459 0
M  V30 2618 C 256.288 -3.12999 0.00864533 0
M  V30 2619 C 256.763 -4.57313 0.250685 0
M  V30 2620 N 258.254 -4.62777 0.198014 0
M  V30 2621 C 258.989 -5.72271 0.359642 0
M  V30 2622 N 258.485 -6.90371 0.579625 0
M  V30 2623 N 260.278 -5.61318 0.296438 0
M  V30 2624 H 252.429 -1.81765 1.09887 0
M  V30 2625 H 254.692 -0.841849 0.435884 0
M  V30 2626 H 254.398 -3.35068 1.06874 0
M  V30 2627 H 254.272 -3.71683 -0.642757 0
M  V30 2628 H 256.659 -2.7838 -0.979217 0
M  V30 2629 H 256.74 -2.44393 0.755359 0
M  V30 2630 H 256.384 -4.92639 1.2357 0
M  V30 2631 H 256.314 -5.24061 -0.516489 0
M  V30 2632 H 258.805 -3.77885 0.0331115 0
M  V30 2633 H 259.118 -7.69689 0.69275 0
M  V30 2634 H 257.463 -6.92264 0.616087 0
M  V30 2635 H 260.654 -4.67932 0.125258 0
M  V30 2636 H 260.827 -6.46599 0.425831 0
M  V30 2637 N 254.233 0.115231 -1.57178 0
M  V30 2638 C 255.458 0.840354 -1.89612 0
M  V30 2639 C 255.883 1.72464 -0.750845 0
M  V30 2640 O 255.241 1.78826 0.298478 0
M  V30 2641 C 255.289 1.64654 -3.20814 0
M  V30 2642 O 254.393 2.7538 -3.06985 0
M  V30 2643 H 253.734 0.232158 -0.622092 0
M  V30 2644 H 256.264 0.0964977 -2.04372 0
M  V30 2645 H 256.274 2.03499 -3.53627 0
M  V30 2646 H 254.949 0.997416 -4.03763 0
M  V30 2647 H 253.526 2.3971 -2.85646 0
M  V30 2648 N 255.711 1.52812 0.385517 0
M  V30 2649 C 256.959 1.67694 1.12797 0
M  V30 2650 C 257.28 0.421115 1.90399 0
M  V30 2651 O 256.55 -0.564551 1.87589 0
M  V30 2652 H 255.13 0.618155 0.419396 0
M  V30 2653 H 257.792 1.89938 0.436972 0
M  V30 2654 H 256.888 2.52896 1.82894 0
M  V30 2655 N 257.189 -0.644168 1.43834 0
M  V30 2656 C 258.419 -1.42939 1.49171 0
M  V30 2657 C 258.827 -1.88874 0.111048 0
M  V30 2658 O 258.17 -1.60656 -0.8908 0
M  V30 2659 C 258.232 -2.69151 2.38324 0
M  V30 2660 C 257.896 -2.45097 3.85715 0
M  V30 2661 C 258.893 -2.07747 4.76589 0
M  V30 2662 C 256.578 -2.59141 4.30292 0
M  V30 2663 C 258.572 -1.8475 6.10038 0
M  V30 2664 C 256.259 -2.35759 5.63792 0
M  V30 2665 C 257.257 -1.9862 6.53482 0
M  V30 2666 O 256.945 -1.75489 7.84512 0
M  V30 2667 H 256.677 -0.445271 0.508635 0
M  V30 2668 H 259.231 -0.79621 1.8934 0
M  V30 2669 H 257.461 -3.3506 1.93058 0
M  V30 2670 H 259.15 -3.31123 2.3476 0
M  V30 2671 H 259.916 -1.96465 4.43426 0
M  V30 2672 H 255.795 -2.87022 3.60749 0
M  V30 2673 H 259.339 -1.55686 6.80006 0
M  V30 2674 H 255.236 -2.46646 5.9652 0
M  V30 2675 H 256.004 -1.89841 7.9618 0
M  V30 2676 N 258.668 -1.30515 -0.883378 0
M  V30 2677 C 259.896 -1.22359 -1.66841 0
M  V30 2678 C 260.311 0.213296 -1.87591 0
M  V30 2679 O 259.668 1.14075 -1.42454 0
M  V30 2680 C 259.719 -1.95011 -3.04389 0
M  V30 2681 O 259.44 -3.3309 -2.84575 0
M  V30 2682 C 260.941 -1.93532 -3.98824 0
M  V30 2683 H 258.161 -0.423371 -0.520575 0
M  V30 2684 H 260.705 -1.72167 -1.10357 0
M  V30 2685 H 258.86 -1.48997 -3.57601 0
M  V30 2686 H 259.274 -3.69907 -3.71846 0
M  V30 2687 H 260.748 -2.48902 -4.92699 0
M  V30 2688 H 261.225 -0.914627 -4.29571 0
M  V30 2689 H 261.831 -2.39364 -3.51547 0
M  V30 2690 N 260.146 1.09593 -1.13257 0
M  V30 2691 C 261.392 1.82003 -0.89458 0
M  V30 2692 C 261.725 1.85402 0.577906 0
M  V30 2693 O 261 1.32099 1.42759 0
M  V30 2694 C 261.283 3.28237 -1.48096 0
M  V30 2695 C 261.136 3.3312 -3.02244 0
M  V30 2696 C 262.455 4.24871 -1.14774 0
M  V30 2697 H 259.574 0.66077 -0.326424 0
M  V30 2698 H 262.216 1.28389 -1.40058 0
M  V30 2699 H 260.366 3.74024 -1.05062 0
M  V30 2700 H 262.038 2.95748 -3.54021 0
M  V30 2701 H 260.281 2.72756 -3.37323 0
M  V30 2702 H 260.952 4.3613 -3.38371 0
M  V30 2703 H 263.428 3.87361 -1.51957 0
M  V30 2704 H 262.304 5.25532 -1.58452 0
M  V30 2705 H 262.565 4.42058 -0.0611849 0
M  V30 2706 N 261.624 0.925811 1.2754 0
M  V30 2707 C 262.574 0.394488 2.24561 0
M  V30 2708 C 263.558 -0.500183 1.52928 0
M  V30 2709 O 264.75 -0.337936 1.73744 0
M  V30 2710 C 261.879 -0.353328 3.41477 0
M  V30 2711 C 260.965 0.557752 4.20416 0
M  V30 2712 N 261.356 1.67674 4.77199 0
M  V30 2713 C 259.654 0.360404 4.44541 0
M  V30 2714 C 260.355 2.24324 5.36706 0
M  V30 2715 N 259.331 1.53305 5.21535 0
M  V30 2716 H 263.133 1.2489 2.66045 0
M  V30 2717 H 260.647 0.779864 1.4245 0
M  V30 2718 H 262.644 -0.7509 4.10082 0
M  V30 2719 H 261.304 -1.20469 3.01525 0
M  V30 2720 H 262.315 2.05915 4.75204 0
M  V30 2721 H 258.992 -0.450454 4.15063 0
M  V30 2722 H 260.382 3.18521 5.91603 0
M  V30 2723 N 263.102 -1.41638 0.69111 0
M  V30 2724 C 264.348 -2.01598 0.220519 0
M  V30 2725 C 264.681 -1.54594 -1.17535 0
M  V30 2726 O 263.956 -0.755177 -1.79241 0
M  V30 2727 C 264.239 -3.59062 0.273243 0
M  V30 2728 C 264.092 -4.16203 1.70573 0
M  V30 2729 C 265.411 -4.38546 -0.369457 0
M  V30 2730 H 262.53 -0.732468 0.0816045 0
M  V30 2731 H 265.172 -1.68445 0.878986 0
M  V30 2732 H 263.322 -3.87435 -0.287411 0
M  V30 2733 H 264.994 -3.98722 2.31989 0
M  V30 2734 H 263.237 -3.71414 2.2413 0
M  V30 2735 H 263.908 -5.25358 1.69419 0
M  V30 2736 H 266.384 -4.1596 0.107977 0
M  V30 2737 H 265.26 -5.48069 -0.302002 0
M  V30 2738 H 265.521 -4.17662 -1.44951 0
M  V30 2739 N 264.58 -0.43555 -1.51462 0
M  V30 2740 C 265.512 0.41257 -2.25456 0
M  V30 2741 C 266.525 0.987822 -1.29406 0
M  V30 2742 O 267.714 0.882266 -1.55172 0
M  V30 2743 C 264.814 1.58894 -2.99342 0
M  V30 2744 C 263.987 1.13288 -4.22474 0
M  V30 2745 C 263.046 2.17917 -4.78956 0
M  V30 2746 O 262.072 1.77425 -5.40841 0
M  V30 2747 N 263.274 3.50382 -4.62832 0
M  V30 2748 H 266.039 -0.221603 -2.9888 0
M  V30 2749 H 263.6 -0.264342 -1.59727 0
M  V30 2750 H 265.592 2.28508 -3.34015 0
M  V30 2751 H 264.162 2.12849 -2.28941 0
M  V30 2752 H 263.382 0.263881 -3.93316 0
M  V30 2753 H 264.67 0.805542 -5.02383 0
M  V30 2754 H 264.068 3.86013 -4.13534 0
M  V30 2755 H 262.625 4.15895 -5.01871 0
M  V30 2756 N 266.058 1.56714 -0.166846 0
M  V30 2757 C 267.298 1.98641 0.481763 0
M  V30 2758 C 267.662 1.05038 1.6072 0
M  V30 2759 O 268.863 1.36087 2.31805 0
M  V30 2760 C 267.134 3.44362 0.956517 0
M  V30 2761 S 268.693 4.08317 1.60694 0
M  V30 2762 H 265.511 0.693873 0.155116 0
M  V30 2763 H 268.113 1.93719 -0.263251 0
M  V30 2764 H 266.817 4.10204 0.126936 0
M  V30 2765 H 266.348 3.53041 1.73568 0
M  V30 2766 H 268.363 4.02999 2.89494 0
M  V30 2767 N 267.536 -0.106894 1.57237 0
M  V30 2768 C 268.484 -1.14944 2.02215 0
M  V30 2769 C 269.478 -1.42167 0.92114 0
M  V30 2770 O 270.684 -1.41987 1.10634 0
M  V30 2771 H 267.059 -0.387841 0.64427 0
M  V30 2772 H 269.03 -0.743683 2.88984 0
M  V30 2773 C 267.779 -2.4647 2.4525 0
M  V30 2774 H 267.102 -2.26363 3.29545 0
M  V30 2775 H 268.542 -3.17948 2.80508 0
M  V30 2776 C 267.001 -3.09921 1.321 0
M  V30 2777 O 267.531 -3.9651 0.643622 0
M  V30 2778 N 265.737 -2.69986 1.07497 0
M  V30 2779 H 265.284 -1.99667 1.62761 0
M  V30 2780 H 265.242 -3.12769 0.319876 0
M  V30 2781 N 269.014 -1.53014 -0.377408 0
M  V30 2782 C 269.977 -1.77957 -1.44444 0
M  V30 2783 C 270.977 -0.649763 -1.47087 0
M  V30 2784 O 272.167 -0.917897 -1.48055 0
M  V30 2785 C 269.299 -1.89089 -2.83651 0
M  V30 2786 H 270.492 -2.73243 -1.23606 0
M  V30 2787 H 268.045 -1.43912 -0.609844 0
M  V30 2788 H 268.78 -0.958293 -3.09818 0
M  V30 2789 H 268.565 -2.71254 -2.83132 0
M  V30 2790 H 270.055 -2.1002 -3.60945 0
M  V30 2791 N 270.492 0.636531 -1.44174 0
M  V30 2792 C 271.717 1.42847 -1.50364 0
M  V30 2793 C 272.142 1.87665 -0.127867 0
M  V30 2794 O 271.5 1.58408 0.88185 0
M  V30 2795 C 271.548 2.62854 -2.4686 0
M  V30 2796 O 270.652 3.62501 -1.9664 0
M  V30 2797 H 269.993 0.427642 -0.507955 0
M  V30 2798 H 272.523 0.777422 -1.89255 0
M  V30 2799 H 272.533 3.10465 -2.64718 0
M  V30 2800 H 271.208 2.29578 -3.46795 0
M  V30 2801 H 269.785 3.21735 -1.88523 0
M  V30 2802 N 271.97 1.30982 0.876444 0
M  V30 2803 C 272.917 1.18085 1.98304 0
M  V30 2804 C 273.887 0.0682263 1.6596 0
M  V30 2805 O 275.072 0.239937 1.89285 0
M  V30 2806 C 272.212 0.887475 3.33493 0
M  V30 2807 C 271.325 2.08281 3.78475 0
M  V30 2808 C 270.46 1.72678 5.0235 0
M  V30 2809 C 269.499 2.88657 5.39762 0
M  V30 2810 N 268.636 2.53292 6.54819 0
M  V30 2811 H 273.476 2.1275 2.08666 0
M  V30 2812 H 271.013 1.05839 1.02159 0
M  V30 2813 H 272.971 0.697961 4.1132 0
M  V30 2814 H 271.601 -0.022315 3.22792 0
M  V30 2815 H 270.653 2.3833 2.96484 0
M  V30 2816 H 271.965 2.95108 4.02135 0
M  V30 2817 H 271.119 1.50151 5.87826 0
M  V30 2818 H 269.858 0.830327 4.8058 0
M  V30 2819 H 268.863 3.1184 4.52809 0
M  V30 2820 H 270.088 3.79002 5.63502 0
M  V30 2821 H 268.034 1.66163 6.34607 0
M  V30 2822 H 267.951 3.3365 6.7839 0
M  V30 2823 H 269.219 2.34143 7.43503 0
M  V30 2824 N 273.449 -1.08991 1.13837 0
M  V30 2825 C 274.696 -1.81258 0.902882 0
M  V30 2826 C 275.024 -1.85936 -0.570803 0
M  V30 2827 O 274.279 -1.3267 -1.43865 0
M  V30 2828 C 274.578 -3.27042 1.44147 0
M  V30 2829 C 274.244 -3.4249 2.93276 0
M  V30 2830 C 272.906 -3.46414 3.33992 0
M  V30 2831 C 275.258 -3.4666 3.892 0
M  V30 2832 C 272.586 -3.52091 4.69307 0
M  V30 2833 C 274.938 -3.53872 5.24364 0
M  V30 2834 C 273.602 -3.56066 5.646 0
M  V30 2835 H 272.872 -0.663268 0.330388 0
M  V30 2836 H 275.519 -1.28368 1.42105 0
M  V30 2837 H 273.824 -3.82599 0.844097 0
M  V30 2838 H 275.521 -3.81499 1.23528 0
M  V30 2839 H 272.111 -3.40124 2.60794 0
M  V30 2840 H 276.295 -3.42865 3.58828 0
M  V30 2841 H 271.551 -3.52079 4.9985 0
M  V30 2842 H 275.725 -3.56043 5.98503 0
M  V30 2843 H 273.352 -3.60218 6.69438 0
M  V30 2844 N 274.927 -0.932562 -1.27047 0
M  V30 2845 C 275.877 -0.406392 -2.24349 0
M  V30 2846 C 276.861 0.492066 -1.53191 0
M  V30 2847 O 278.053 0.328717 -1.73921 0
M  V30 2848 C 275.182 0.335214 -3.41659 0
M  V30 2849 C 274.268 -0.58004 -4.20115 0
M  V30 2850 N 274.659 -1.70203 -4.76303 0
M  V30 2851 C 272.957 -0.383974 -4.44344 0
M  V30 2852 C 273.658 -2.27167 -5.35509 0
M  V30 2853 N 272.634 -1.56068 -5.20715 0
M  V30 2854 H 276.436 -1.26299 -2.65378 0
M  V30 2855 H 273.95 -0.787408 -1.42034 0
M  V30 2856 H 275.947 0.729142 -4.10474 0
M  V30 2857 H 274.607 1.18868 -3.0216 0
M  V30 2858 H 275.618 -2.08433 -4.74106 0
M  V30 2859 H 272.295 0.428436 -4.15296 0
M  V30 2860 H 273.685 -3.21654 -5.89905 0
M  V30 2861 N 276.405 1.4127 -0.698611 0
M  V30 2862 C 277.337 2.292 0.00399731 0
M  V30 2863 C 278.35 1.44944 0.741279 0
M  V30 2864 O 279.539 1.68416 0.591477 0
M  V30 2865 C 276.639 3.22875 1.02979 0
M  V30 2866 C 275.812 4.35904 0.36151 0
M  V30 2867 C 274.871 5.10134 1.29033 0
M  V30 2868 O 273.897 5.63809 0.781562 0
M  V30 2869 N 275.099 5.17885 2.6225 0
M  V30 2870 H 277.864 2.9014 -0.750921 0
M  V30 2871 H 275.425 1.52455 -0.544882 0
M  V30 2872 H 277.417 3.69404 1.65296 0
M  V30 2873 H 275.987 2.63221 1.68622 0
M  V30 2874 H 275.207 3.91719 -0.441584 0
M  V30 2875 H 276.495 5.08696 -0.103055 0
M  V30 2876 H 275.893 4.7573 3.061 0
M  V30 2877 H 274.45 5.6798 3.19754 0
M  V30 2878 N 277.883 0.443576 1.51229 0
M  V30 2879 C 279.131 -0.120557 2.0174 0
M  V30 2880 C 279.452 -1.42665 1.32935 0
M  V30 2881 O 278.722 -1.9028 0.465866 0
M  V30 2882 H 277.302 -0.0475426 0.745486 0
M  V30 2883 H 279.964 0.587711 1.85828 0
M  V30 2884 H 279.06 -0.291972 3.10731 0
M  V30 2885 N 279.361 -1.56624 0.175154 0
M  V30 2886 C 280.324 -2.16934 -0.739738 0
M  V30 2887 C 281.324 -1.11842 -1.15533 0
M  V30 2888 O 282.514 -1.37335 -1.07167 0
M  V30 2889 C 279.646 -2.75531 -2.00738 0
M  V30 2890 H 280.839 -2.99131 -0.214639 0
M  V30 2891 H 278.392 -1.56123 -0.0744197 0
M  V30 2892 H 279.127 -1.97078 -2.57548 0
M  V30 2893 H 278.912 -3.52444 -1.71831 0
M  V30 2894 H 280.402 -3.21904 -2.66021 0
M  V30 2895 N 280.839 0.0985539 -1.57292 0
M  V30 2896 C 281.769 1.12064 -2.04851 0
M  V30 2897 C 282.75 1.41981 -0.936767 0
M  V30 2898 O 283.935 1.52071 -1.20781 0
M  V30 2899 C 281.065 2.44144 -2.47004 0
M  V30 2900 C 280.019 2.28643 -3.6181 0
M  V30 2901 C 279.345 3.65869 -3.89929 0
M  V30 2902 C 280.645 1.72986 -4.92822 0
M  V30 2903 H 282.339 0.724979 -2.9049 0
M  V30 2904 H 279.885 0.34729 -1.39749 0
M  V30 2905 H 281.838 3.15914 -2.78884 0
M  V30 2906 H 280.562 2.85639 -1.5836 0
M  V30 2907 H 279.221 1.59318 -3.30172 0
M  V30 2908 H 278.869 4.04885 -2.98458 0
M  V30 2909 H 278.569 3.56344 -4.67218 0
M  V30 2910 H 280.093 4.39112 -4.2428 0
M  V30 2911 H 281.507 2.34593 -5.23105 0
M  V30 2912 H 279.904 1.74229 -5.74251 0
M  V30 2913 H 280.974 0.689007 -4.7998 0
M  V30 2914 N 282.317 1.53212 0.369288 0
M  V30 2915 C 283.565 1.68881 1.11012 0
M  V30 2916 C 283.886 0.441285 1.89941 0
M  V30 2917 O 283.156 -0.544623 1.88177 0
M  V30 2918 H 281.736 0.622569 0.412816 0
M  V30 2919 H 284.398 1.90391 0.416802 0
M  V30 2920 H 283.494 2.54822 1.80201 0
M  V30 2921 N 283.795 -0.628877 1.44509 0
M  V30 2922 C 285.041 -1.39045 1.47629 0
M  V30 2923 C 285.374 -1.93892 0.109343 0
M  V30 2924 O 284.649 -1.7379 -0.87334 0
M  V30 2925 C 284.932 -2.55408 2.53848 0
M  V30 2926 C 284.785 -2.05896 3.99909 0
M  V30 2927 C 286.104 -3.5759 2.56549 0
M  V30 2928 H 283.223 -0.504232 0.537512 0
M  V30 2929 H 285.865 -0.710854 1.76201 0
M  V30 2930 H 284.015 -3.13384 2.29615 0
M  V30 2931 H 285.687 -1.52734 4.35282 0
M  V30 2932 H 283.93 -1.37061 4.11578 0
M  V30 2933 H 284.601 -2.89681 4.69882 0
M  V30 2934 H 287.077 -3.09419 2.78207 0
M  V30 2935 H 285.953 -4.36527 3.32769 0
M  V30 2936 H 286.214 -4.11808 1.60832 0
M  V30 2937 N 285.273 -1.31445 -0.869486 0
M  V30 2938 C 286.52 -1.21158 -1.62256 0
M  V30 2939 C 286.848 0.230155 -1.93133 0
M  V30 2940 O 286.103 1.17906 -1.56194 0
M  V30 2941 C 286.402 -2.00145 -2.96102 0
M  V30 2942 C 286.068 -3.4964 -2.84715 0
M  V30 2943 C 284.73 -3.90403 -2.81317 0
M  V30 2944 C 287.082 -4.44769 -2.71716 0
M  V30 2945 C 284.41 -5.24561 -2.62778 0
M  V30 2946 C 286.762 -5.79054 -2.54714 0
M  V30 2947 C 285.426 -6.19037 -2.49699 0
M  V30 2948 H 284.696 -0.443348 -0.593737 0
M  V30 2949 H 287.343 -1.62715 -1.00976 0
M  V30 2950 H 285.648 -1.5127 -3.6142 0
M  V30 2951 H 287.345 -1.89566 -3.53363 0
M  V30 2952 H 283.935 -3.17256 -2.88178 0
M  V30 2953 H 288.119 -4.14208 -2.73397 0
M  V30 2954 H 283.375 -5.54613 -2.57321 0
M  V30 2955 H 287.549 -6.52393 -2.43632 0
M  V30 2956 H 285.176 -7.22935 -2.35093 0
M  V30 2957 N 286.751 1.08385 -1.14413 0
M  V30 2958 C 287.714 2.13486 -0.834048 0
M  V30 2959 C 288.714 1.59988 0.161418 0
M  V30 2960 O 289.904 1.74071 -0.0669575 0
M  V30 2961 C 287.036 3.4003 -0.243354 0
M  V30 2962 H 288.229 2.42425 -1.7655 0
M  V30 2963 H 285.782 1.24101 -0.950189 0
M  V30 2964 H 286.517 3.16726 0.696807 0
M  V30 2965 H 286.302 3.80157 -0.960367 0
M  V30 2966 H 287.792 4.17577 -0.0436242 0
M  V30 2967 N 288.23 0.939286 1.26551 0
M  V30 2968 C 289.479 0.581601 1.93133 0
M  V30 2969 C 289.792 -0.883224 1.74524 0
M  V30 2970 O 290.998 -1.3502 2.35546 0
M  V30 2971 C 289.454 0.989425 3.46032 0
M  V30 2972 C 289.062 2.47573 3.73379 0
M  V30 2973 C 290.806 0.703544 4.18629 0
M  V30 2974 C 288.713 2.82235 5.19709 0
M  V30 2975 H 287.643 0.213803 0.723052 0
M  V30 2976 H 290.294 1.14167 1.4366 0
M  V30 2977 H 288.676 0.357902 3.94379 0
M  V30 2978 H 289.85 3.15614 3.35744 0
M  V30 2979 H 288.165 2.73471 3.1401 0
M  V30 2980 H 290.762 0.938869 5.26393 0
M  V30 2981 H 291.105 -0.359639 4.14744 0
M  V30 2982 H 291.638 1.2947 3.76141 0
M  V30 2983 H 288.377 3.87509 5.28694 0
M  V30 2984 H 287.897 2.18854 5.58447 0
M  V30 2985 H 289.576 2.70599 5.87695 0
M  V30 2986 N 289.708 -1.40897 0.706093 0
M  V30 2987 C 291.119 -1.84023 0.315052 0
M  V30 2988 C 291.47 -1.5906 -1.14866 0
M  V30 2989 O 290.595 -1.06651 -1.88293 0
M  V30 2990 C 291.19 -3.34055 0.565038 0
M  V30 2991 C 289.749 -3.7571 0.227806 0
M  V30 2992 C 288.896 -2.64204 0.842122 0
M  V30 2993 H 291.847 -1.303 0.905963 0
M  V30 2994 H 291.868 -3.80107 -0.172843 0
M  V30 2995 H 291.38 -3.52192 1.63042 0
M  V30 2996 H 289.481 -3.63172 -0.832895 0
M  V30 2997 H 289.594 -4.74103 0.690174 0
M  V30 2998 H 287.958 -2.53255 0.270893 0
M  V30 2999 H 288.741 -2.85155 1.91158 0
M  V30 3000 N 291.186 -0.45159 -1.50991 0
M  V30 3001 C 292.096 0.358431 -2.31846 0
M  V30 3002 C 293.112 1.01438 -1.41373 0
M  V30 3003 O 294.288 1.00663 -1.74439 0
M  V30 3004 C 291.353 1.43704 -3.15515 0
M  V30 3005 C 290.414 0.799742 -4.21785 0
M  V30 3006 C 289.647 1.82696 -5.01456 0
M  V30 3007 O 289.87 3.05105 -4.81941 0
M  V30 3008 O 288.804 1.40958 -5.85162 0
M  V30 3009 H 292.63 -0.302032 -3.02194 0
M  V30 3010 H 290.215 -0.213825 -1.47862 0
M  V30 3011 H 292.097 2.06227 -3.67489 0
M  V30 3012 H 290.772 2.08133 -2.47916 0
M  V30 3013 H 289.679 0.136084 -3.73852 0
M  V30 3014 H 291.012 0.198718 -4.91799 0
M  V30 3015 N 292.664 1.56529 -0.183458 0
M  V30 3016 C 293.894 2.01331 0.463612 0
M  V30 3017 C 294.302 1.06278 1.5653 0
M  V30 3018 O 293.645 0.0577976 1.83609 0
M  V30 3019 C 293.707 3.42547 1.09096 0
M  V30 3020 C 293.371 4.56817 0.129442 0
M  V30 3021 C 294.368 5.15734 -0.656807 0
M  V30 3022 C 292.053 5.02295 0.02174 0
M  V30 3023 C 294.047 6.1857 -1.53784 0
M  V30 3024 C 291.734 6.04978 -0.862864 0
M  V30 3025 C 292.732 6.62988 -1.64123 0
M  V30 3026 O 292.42 7.63677 -2.51103 0
M  V30 3027 H 292.152 0.664917 0.121907 0
M  V30 3028 H 294.706 2.034 -0.285954 0
M  V30 3029 H 292.936 3.37428 1.88889 0
M  V30 3030 H 294.625 3.71228 1.64148 0
M  V30 3031 H 295.391 4.81473 -0.583839 0
M  V30 3032 H 291.27 4.56847 0.617392 0
M  V30 3033 H 294.814 6.63777 -2.14583 0
M  V30 3034 H 290.711 6.38663 -0.93699 0
M  V30 3035 H 291.479 7.81049 -2.44753 0
M  V30 3036 N 294.142 -0.090211 1.57342 0
M  V30 3037 C 295.382 -0.798365 1.88163 0
M  V30 3038 C 295.746 -1.75662 0.775046 0
M  V30 3039 O 296.947 -2.50849 0.965816 0
M  V30 3040 C 295.218 -1.50376 3.24225 0
M  V30 3041 S 296.777 -2.24952 3.76752 0
M  V30 3042 H 293.595 -0.265883 0.659414 0
M  V30 3043 H 296.197 -0.055264 1.95422 0
M  V30 3044 H 294.901 -0.792286 4.0268 0
M  V30 3045 H 294.432 -2.28666 3.20118 0
M  V30 3046 H 296.447 -3.51173 3.5056 0
M  V30 3047 N 295.62 -1.53406 -0.361157 0
M  V30 3048 C 296.55 -1.83136 -1.44857 0
M  V30 3049 C 297.531 -0.685174 -1.5569 0
M  V30 3050 O 298.716 -0.93544 -1.70186 0
M  V30 3051 C 295.846 -2.02522 -2.82138 0
M  V30 3052 C 294.8 -3.18302 -2.86126 0
M  V30 3053 C 294.126 -3.22989 -4.26125 0
M  V30 3054 C 295.426 -4.56796 -2.53248 0
M  V30 3055 H 297.12 -2.74201 -1.20226 0
M  V30 3056 H 294.666 -1.31938 -0.576922 0
M  V30 3057 H 296.619 -2.21904 -3.58241 0
M  V30 3058 H 295.343 -1.08172 -3.08166 0
M  V30 3059 H 294.002 -2.98747 -2.12475 0
M  V30 3060 H 293.65 -2.26267 -4.49235 0
M  V30 3061 H 293.35 -4.00781 -4.29708 0
M  V30 3062 H 294.874 -3.44559 -5.04094 0
M  V30 3063 H 296.288 -4.7631 -3.19064 0
M  V30 3064 H 294.685 -5.36862 -2.68141 0
M  V30 3065 H 295.755 -4.61606 -1.48484 0
M  V30 3066 N 297.098 0.621204 -1.44841 0
M  V30 3067 C 298.061 1.71459 -1.521 0
M  V30 3068 C 299.061 1.55696 -0.401933 0
M  V30 3069 O 300.251 1.61011 -0.664925 0
M  V30 3070 C 297.383 3.10624 -1.40447 0
M  V30 3071 H 298.576 1.66394 -2.49506 0
M  V30 3072 H 296.129 0.835745 -1.3208 0
M  V30 3073 H 296.864 3.21277 -0.441737 0
M  V30 3074 H 296.649 3.23473 -2.21602 0
M  V30 3075 H 298.139 3.90293 -1.4853 0
M  V30 3076 N 298.576 1.31904 0.862503 0
M  V30 3077 C 299.824 1.21776 1.61292 0
M  V30 3078 C 300.145 -0.222413 1.93727 0
M  V30 3079 O 299.415 -1.1451 1.58947 0
M  V30 3080 H 297.995 0.447717 0.597962 0
M  V30 3081 H 300.657 1.65326 1.03215 0
M  V30 3082 H 299.753 1.7948 2.5533 0
M  V30 3083 N 300.054 -1.07777 1.14986 0
M  V30 3084 C 301.331 -1.7699 0.832695 0
M  V30 3085 C 301.711 -2.001 -0.672561 0
M  V30 3086 O 301.059 -1.61598 -1.6155 0
M  V30 3087 C 301.269 -3.08139 1.63863 0
M  V30 3088 C 302.617 -3.8256 1.84208 0
M  V30 3089 O 303.641 -3.17939 1.60603 0
M  V30 3090 O 302.5 -4.98612 2.23714 0
M  V30 3091 H 299.594 -0.768389 0.305791 0
M  V30 3092 H 302.14 -1.14182 1.25541 0
M  V30 3093 H 300.912 -2.86909 2.6608 0
M  V30 3094 H 300.535 -3.78678 1.21197 0
M  V30 3095 N 301.532 -0.945985 -1.26051 0
M  V30 3096 C 302.757 -0.612525 -1.98149 0
M  V30 3097 C 303.182 0.806623 -1.69927 0
M  V30 3098 O 302.54 1.54411 -0.950108 0
M  V30 3099 C 302.588 -0.866981 -3.50023 0
M  V30 3100 O 301.692 0.0585333 -4.12358 0
M  V30 3101 H 301.033 -0.23379 -0.621481 0
M  V30 3102 H 303.563 -1.27023 -1.60395 0
M  V30 3103 H 303.573 -0.789792 -4.00283 0
M  V30 3104 H 302.248 -1.90135 -3.69894 0
M  V30 3105 H 300.825 -0.0701241 -3.72834 0
M  V30 3106 N 303.011 1.40521 -0.713556 0
M  V30 3107 C 304.288 1.94775 -0.17943 0
M  V30 3108 C 304.668 1.65184 1.31444 0
M  V30 3109 O 304.016 0.968429 2.06963 0
M  V30 3110 C 304.226 3.45543 -0.489986 0
M  V30 3111 C 305.574 4.22442 -0.427536 0
M  V30 3112 O 306.598 3.53644 -0.425929 0
M  V30 3113 O 305.457 5.4501 -0.403292 0
M  V30 3114 H 302.551 0.826606 -0.0255192 0
M  V30 3115 H 305.097 1.5014 -0.790949 0
M  V30 3116 H 303.869 3.60432 -1.5233 0
M  V30 3117 H 303.492 3.97311 0.151598 0
M  V30 3118 N 304.489 0.459591 1.5075 0
M  V30 3119 C 305.436 -0.340524 2.28274 0
M  V30 3120 C 306.406 -0.997371 1.32822 0
M  V30 3121 O 307.591 -1.01202 1.61749 0
M  V30 3122 C 304.731 -1.42317 3.14388 0
M  V30 3123 C 303.844 -0.782251 4.24859 0
M  V30 3124 C 302.979 -1.84182 4.98247 0
M  V30 3125 C 302.018 -1.18053 6.00608 0
M  V30 3126 N 301.155 -2.18244 6.67319 0
M  V30 3127 H 305.995 0.326899 2.96202 0
M  V30 3128 H 303.532 0.173057 1.46078 0
M  V30 3129 H 305.49 -2.06241 3.62658 0
M  V30 3130 H 304.12 -2.05992 2.4853 0
M  V30 3131 H 303.172 -0.0307404 3.80388 0
M  V30 3132 H 304.484 -0.259663 4.98124 0
M  V30 3133 H 303.638 -2.55714 5.50177 0
M  V30 3134 H 302.377 -2.39819 4.24662 0
M  V30 3135 H 301.382 -0.450776 5.47949 0
M  V30 3136 H 302.607 -0.631202 6.7616 0
M  V30 3137 H 300.553 -2.72919 5.96533 0
M  V30 3138 H 300.47 -1.70938 7.36421 0
M  V30 3139 H 301.738 -2.89191 7.23871 0
M  V30 3140 N 305.967 -1.56429 0.191757 0
M  V30 3141 C 306.899 -2.16154 -0.762245 0
M  V30 3142 C 307.912 -1.12247 -1.17917 0
M  V30 3143 O 309.101 -1.39353 -1.11548 0
M  V30 3144 C 306.201 -2.70606 -2.04024 0
M  V30 3145 C 305.374 -3.99381 -1.78364 0
M  V30 3146 C 304.433 -4.38692 -2.90578 0
M  V30 3147 O 303.459 -5.06179 -2.6033 0
M  V30 3148 N 304.661 -4.01922 -4.18854 0
M  V30 3149 H 307.426 -2.98643 -0.251526 0
M  V30 3150 H 304.987 -1.61897 0.00967373 0
M  V30 3151 H 306.979 -2.93891 -2.78227 0
M  V30 3152 H 305.549 -1.9259 -2.46227 0
M  V30 3153 H 304.769 -3.84262 -0.879581 0
M  V30 3154 H 306.057 -4.83445 -1.58614 0
M  V30 3155 H 305.455 -3.47631 -4.46283 0
M  V30 3156 H 304.012 -4.30165 -4.89695 0
M  V30 3157 N 307.445 0.0818655 -1.57387 0
M  V30 3158 C 308.861 0.436412 -1.53517 0
M  V30 3159 C 309.061 1.79758 -0.910459 0
M  V30 3160 O 308.117 2.47324 -0.508636 0
M  V30 3161 C 309.43 0.386734 -2.98203 0
M  V30 3162 C 310.978 0.467644 -3.09487 0
M  V30 3163 C 311.453 0.447978 -4.55804 0
M  V30 3164 N 312.944 0.508348 -4.60402 0
M  V30 3165 C 313.679 0.515184 -5.71081 0
M  V30 3166 N 313.175 0.477435 -6.91153 0
M  V30 3167 N 314.968 0.560988 -5.59294 0
M  V30 3168 H 307.119 -0.809546 -1.96367 0
M  V30 3169 H 309.382 -0.302733 -0.898363 0
M  V30 3170 H 309.088 -0.546539 -3.47427 0
M  V30 3171 H 308.962 1.20075 -3.57578 0
M  V30 3172 H 311.349 1.39134 -2.60242 0
M  V30 3173 H 311.43 -0.374753 -2.5304 0
M  V30 3174 H 311.074 -0.471826 -5.05704 0
M  V30 3175 H 311.004 1.30777 -5.10103 0
M  V30 3176 H 313.495 0.54218 -3.7399 0
M  V30 3177 H 313.808 0.486299 -7.71268 0
M  V30 3178 H 312.153 0.444278 -6.93579 0
M  V30 3179 H 315.344 0.5881 -4.64391 0
M  V30 3180 H 315.517 0.562846 -6.45551 0
M  V30 3181 N 308.923 1.53595 0.353017 0
M  V30 3182 C 310.153 1.74058 1.11299 0
M  V30 3183 C 310.561 0.475205 1.83135 0
M  V30 3184 O 309.904 -0.562344 1.74881 0
M  V30 3185 C 309.966 2.85994 2.17825 0
M  V30 3186 C 309.63 4.25923 1.65647 0
M  V30 3187 C 310.627 5.07829 1.11383 0
M  V30 3188 C 308.312 4.72377 1.7078 0
M  V30 3189 C 310.306 6.34285 0.629439 0
M  V30 3190 C 307.993 5.98808 1.21953 0
M  V30 3191 C 308.991 6.79594 0.681265 0
M  V30 3192 O 308.679 8.03651 0.200248 0
M  V30 3193 H 308.411 0.585327 0.338183 0
M  V30 3194 H 310.965 2.01186 0.413927 0
M  V30 3195 H 309.195 2.54368 2.91262 0
M  V30 3196 H 310.884 2.94515 2.79313 0
M  V30 3197 H 311.65 4.73107 1.06746 0
M  V30 3198 H 307.529 4.0956 2.11617 0
M  V30 3199 H 311.073 6.97288 0.208636 0
M  V30 3200 H 306.97 6.33026 1.26287 0
M  V30 3201 H 307.738 8.1788 0.318416 0
M  V30 3202 N 310.401 -0.613514 1.45168 0
M  V30 3203 C 311.629 -1.39946 1.5239 0
M  V30 3204 C 312.044 -1.88167 0.154531 0
M  V30 3205 O 311.401 -1.61872 -0.842843 0
M  V30 3206 C 311.452 -2.60795 2.50337 0
M  V30 3207 O 311.173 -2.1458 3.81952 0
M  V30 3208 C 312.674 -3.53723 2.67198 0
M  V30 3209 H 309.894 -0.428593 0.516284 0
M  V30 3210 H 312.438 -0.748753 1.903 0
M  V30 3211 H 310.593 -3.21919 2.15515 0
M  V30 3212 H 311.007 -2.93055 4.34993 0
M  V30 3213 H 312.481 -4.35079 3.39721 0
M  V30 3214 H 312.958 -4.0368 1.73029 0
M  V30 3215 H 313.564 -2.98456 3.02992 0
M  V30 3216 N 311.879 -1.3236 -0.855495 0
M  V30 3217 C 313.104 -1.2601 -1.64731 0
M  V30 3218 C 313.529 0.169068 -1.87339 0
M  V30 3219 O 312.887 1.12016 -1.42556 0
M  V30 3220 C 312.935 -2.02417 -2.98429 0
M  V30 3221 O 312.039 -1.3714 -3.8893 0
M  V30 3222 H 311.38 -0.434325 -0.502253 0
M  V30 3223 H 313.91 -1.74661 -1.06558 0
M  V30 3224 H 313.92 -2.12559 -3.48257 0
M  V30 3225 H 312.595 -3.06343 -2.81295 0
M  V30 3226 H 311.172 -1.3554 -3.47395 0
M  V30 3227 N 313.357 1.07166 -1.15556 0
M  V30 3228 C 314.587 1.83248 -0.954133 0
M  V30 3229 C 314.995 1.82449 0.500911 0
M  V30 3230 O 314.338 1.23575 1.35923 0
M  V30 3231 C 314.4 3.31393 -1.39351 0
M  V30 3232 C 314.064 3.5591 -2.86666 0
M  V30 3233 C 315.061 3.49695 -3.8472 0
M  V30 3234 C 312.746 3.83515 -3.24379 0
M  V30 3235 C 314.74 3.70737 -5.18491 0
M  V30 3236 C 312.427 4.04209 -4.58321 0
M  V30 3237 C 313.425 3.97815 -5.55186 0
M  V30 3238 O 313.113 4.17954 -6.86709 0
M  V30 3239 H 312.845 0.584941 -0.338851 0
M  V30 3240 H 315.399 1.36169 -1.53777 0
M  V30 3241 H 313.629 3.79292 -0.75329 0
M  V30 3242 H 315.318 3.88945 -1.16089 0
M  V30 3243 H 316.084 3.28368 -3.56931 0
M  V30 3244 H 311.963 3.87605 -2.49567 0
M  V30 3245 H 315.507 3.65663 -5.94085 0
M  V30 3246 H 311.404 4.25023 -4.85825 0
M  V30 3247 H 312.172 4.35291 -6.93155 0
M  V30 3248 N 314.835 0.952656 1.25548 0
M  V30 3249 C 315.798 0.475794 2.24207 0
M  V30 3250 C 316.798 -0.419428 1.55234 0
M  V30 3251 O 317.988 -0.216994 1.72843 0
M  V30 3252 C 315.12 -0.312814 3.39462 0
M  V30 3253 H 316.313 1.34779 2.67908 0
M  V30 3254 H 313.866 0.735739 1.37901 0
M  V30 3255 H 314.601 -1.20257 3.01179 0
M  V30 3256 H 314.386 0.329404 3.90714 0
M  V30 3257 H 315.876 -0.635986 4.12729 0
M  V30 3258 N 316.313 -1.40141 0.720998 0
M  V30 3259 C 317.261 -2.3252 0.0608547 0
M  V30 3260 C 318.255 -1.52326 -0.741152 0
M  V30 3261 O 319.461 -1.68089 -0.643911 0
M  V30 3262 H 315.836 -0.751999 0.000876664 0
M  V30 3263 H 317.807 -2.8584 0.856614 0
M  V30 3264 C 316.556 -3.37331 -0.842809 0
M  V30 3265 H 315.879 -3.99108 -0.235084 0
M  V30 3266 H 317.319 -4.04452 -1.27257 0
M  V30 3267 C 315.778 -2.73246 -1.97074 0
M  V30 3268 O 316.308 -2.59998 -3.06209 0
M  V30 3269 N 314.514 -2.31547 -1.75597 0
M  V30 3270 H 314.061 -2.42522 -0.868368 0
M  V30 3271 H 314.019 -1.89007 -2.51244 0
M  V30 3272 N 317.792 -0.46758 -1.50504 0
M  V30 3273 C 318.755 0.317059 -2.26996 0
M  V30 3274 C 319.755 0.923513 -1.31635 0
M  V30 3275 O 320.945 0.793239 -1.55091 0
M  V30 3276 C 318.077 1.45134 -3.08462 0
M  V30 3277 H 319.27 -0.353723 -2.97807 0
M  V30 3278 H 316.823 -0.221545 -1.54722 0
M  V30 3279 H 317.558 2.15728 -2.4214 0
M  V30 3280 H 317.343 1.02232 -3.78538 0
M  V30 3281 H 318.833 2.00493 -3.66323 0
M  V30 3282 N 319.27 1.56325 -0.20005 0
M  V30 3283 C 320.218 2.20666 0.735482 0
M  V30 3284 C 321.212 1.17934 1.21605 0
M  V30 3285 O 322.418 1.36068 1.17837 0
M  V30 3286 H 318.793 0.70725 0.255542 0
M  V30 3287 H 320.764 2.9792 0.169166 0
M  V30 3288 C 319.513 2.88391 1.94232 0
M  V30 3289 H 318.836 3.67185 1.58161 0
M  V30 3290 H 320.276 3.3684 2.57517 0
M  V30 3291 C 318.735 1.89692 2.78421 0
M  V30 3292 O 319.265 1.40032 3.76502 0
M  V30 3293 N 317.471 1.57813 2.44015 0
M  V30 3294 H 317.018 1.9839 1.64314 0
M  V30 3295 H 316.976 0.920325 3.00628 0
M  V30 3296 N 320.748 -0.0735177 1.57428 0
M  V30 3297 C 322.159 -0.625551 1.75908 0
M  V30 3298 C 322.51 -1.78 0.825261 0
M  V30 3299 O 321.635 -2.16398 0.00893964 0
M  V30 3300 C 322.23 -1.14155 3.18989 0
M  V30 3301 C 320.789 -1.63946 3.38819 0
M  V30 3302 C 319.936 -0.558151 2.71625 0
M  V30 3303 H 322.887 0.152647 1.57964 0
M  V30 3304 H 322.908 -2.0104 3.23053 0
M  V30 3305 H 322.42 -0.301116 3.8693 0
M  V30 3306 H 320.521 -2.50321 2.7599 0
M  V30 3307 H 320.634 -1.71759 4.47253 0
M  V30 3308 H 318.998 -1.00278 2.34129 0
M  V30 3309 H 319.781 0.272071 3.4222 0
M  V30 3310 N 322.226 -1.5378 -0.344866 0
M  V30 3311 C 323.474 -1.70625 -1.08311 0
M  V30 3312 C 323.795 -0.471447 -1.89215 0
M  V30 3313 O 323.065 0.514616 -1.8902 0
M  V30 3314 H 321.645 -0.629058 -0.402859 0
M  V30 3315 H 324.307 -1.9103 -0.386459 0
M  V30 3316 H 323.403 -2.57656 -1.76124 0
M  V30 3317 N 323.704 0.605807 -1.45491 0
M  V30 3318 C 324.614 1.74466 -1.56839 0
M  V30 3319 C 325.63 1.68006 -0.452772 0
M  V30 3320 O 326.806 1.8833 -0.713708 0
M  V30 3321 C 323.871 3.10931 -1.53371 0
M  V30 3322 C 322.932 3.28832 -2.75986 0
M  V30 3323 C 322.165 4.58787 -2.72673 0
M  V30 3324 O 322.388 5.4122 -1.80102 0
M  V30 3325 O 321.322 4.79438 -3.63899 0
M  V30 3326 H 325.148 1.67843 -2.53106 0
M  V30 3327 H 322.733 0.770108 -1.28022 0
M  V30 3328 H 324.615 3.92233 -1.54051 0
M  V30 3329 H 323.29 3.18042 -0.602572 0
M  V30 3330 H 322.197 2.47112 -2.80867 0
M  V30 3331 H 323.53 3.26599 -3.68231 0
M  V30 3332 N 325.182 1.32811 0.848464 0
M  V30 3333 C 326.598 1.11937 1.13764 0
M  V30 3334 C 326.798 -0.0960789 2.01271 0
M  V30 3335 O 325.854 -0.779165 2.40178 0
M  V30 3336 C 327.167 2.402 1.809 0
M  V30 3337 C 328.715 2.46016 1.93508 0
M  V30 3338 C 329.19 3.74215 2.64059 0
M  V30 3339 N 330.681 3.75232 2.71579 0
M  V30 3340 C 331.416 4.71134 3.26833 0
M  V30 3341 N 330.912 5.77406 3.8285 0
M  V30 3342 N 332.705 4.58623 3.24995 0
M  V30 3343 H 324.856 2.1073 0.265855 0
M  V30 3344 H 327.119 0.930671 0.180431 0
M  V30 3345 H 326.825 3.29093 1.24058 0
M  V30 3346 H 326.699 2.51628 2.81004 0
M  V30 3347 H 329.086 1.57577 2.49506 0
M  V30 3348 H 329.167 2.38536 0.923811 0
M  V30 3349 H 328.811 4.63031 2.08722 0
M  V30 3350 H 328.741 3.78968 3.65637 0
M  V30 3351 H 331.232 2.98423 2.31845 0
M  V30 3352 H 331.545 6.46632 4.23187 0
M  V30 3353 H 329.89 5.81152 3.81165 0
M  V30 3354 H 333.081 3.74762 2.80484 0
M  V30 3355 H 333.254 5.33535 3.67756 0
M  V30 3356 N 326.66 -1.06551 1.16123 0
M  V30 3357 C 327.908 -1.78947 0.939267 0
M  V30 3358 C 328.229 -1.87532 -0.534476 0
M  V30 3359 O 327.499 -1.38211 -1.38833 0
M  V30 3360 H 326.079 -0.662807 0.344523 0
M  V30 3361 H 328.741 -1.28725 1.46342 0
M  V30 3362 H 327.837 -2.81117 1.35572 0
M  V30 3363 N 328.138 -0.959301 -1.25041 0
M  V30 3364 C 329.386 -0.615393 -1.92503 0
M  V30 3365 C 329.707 0.850969 -1.75452 0
M  V30 3366 O 328.977 1.60658 -1.12098 0
M  V30 3367 H 327.557 -0.224613 -0.712431 0
M  V30 3368 H 330.219 -1.21855 -1.5211 0
M  V30 3369 H 329.315 -0.848738 -3.00338 0
M  V30 3370 N 329.616 1.39756 -0.72842 0
M  V30 3371 C 330.563 2.30647 -0.0841519 0
M  V30 3372 C 331.533 1.48869 0.7367 0
M  V30 3373 O 332.718 1.77574 0.698015 0
M  V30 3374 C 329.858 3.35165 0.822091 0
M  V30 3375 C 328.971 4.31999 -0.0106663 0
M  V30 3376 C 328.106 5.23585 0.896241 0
M  V30 3377 C 327.145 6.12072 0.0583381 0
M  V30 3378 N 326.282 6.96035 0.920818 0
M  V30 3379 H 331.122 2.85173 -0.864891 0
M  V30 3380 H 328.659 1.40422 -0.438179 0
M  V30 3381 H 330.617 3.94345 1.36189 0
M  V30 3382 H 329.247 2.8211 1.56888 0
M  V30 3383 H 328.299 3.74492 -0.66781 0
M  V30 3384 H 329.611 4.9443 -0.658825 0
M  V30 3385 H 328.765 5.87759 1.50412 0
M  V30 3386 H 327.504 4.61459 1.57819 0
M  V30 3387 H 326.509 5.46916 -0.562389 0
M  V30 3388 H 327.734 6.76261 -0.6203 0
M  V30 3389 H 325.68 6.36485 1.58818 0
M  V30 3390 H 325.597 7.55284 0.32899 0
M  V30 3391 H 326.865 7.64646 1.51447 0
M  V30 3392 N 331.094 0.475555 1.50254 0
M  V30 3393 C 332.341 -0.0778919 2.0235 0
M  V30 3394 C 332.669 -1.39319 1.35722 0
M  V30 3395 O 331.924 -1.89888 0.473395 0
M  V30 3396 C 332.223 -0.305114 3.56095 0
M  V30 3397 C 331.889 0.92903 4.41225 0
M  V30 3398 C 330.551 1.26739 4.6421 0
M  V30 3399 C 332.903 1.75054 4.90923 0
M  V30 3400 C 330.231 2.42724 5.34137 0
M  V30 3401 C 332.583 2.9017 5.62125 0
M  V30 3402 C 331.247 3.24416 5.83362 0
M  V30 3403 H 330.517 -0.0285027 0.740452 0
M  V30 3404 H 333.164 0.630543 1.80821 0
M  V30 3405 H 331.469 -1.09584 3.76163 0
M  V30 3406 H 333.166 -0.747377 3.93974 0
M  V30 3407 H 329.756 0.655428 4.23559 0
M  V30 3408 H 333.94 1.50231 4.73016 0
M  V30 3409 H 329.196 2.69525 5.48786 0
M  V30 3410 H 333.37 3.54169 5.99614 0
M  V30 3411 H 330.997 4.14396 6.37323 0
M  V30 3412 N 332.573 -1.56217 0.208337 0
M  V30 3413 C 333.803 -2.02043 -0.431523 0
M  V30 3414 C 334.211 -1.08755 -1.54819 0
M  V30 3415 O 333.554 -0.0870009 -1.83494 0
M  V30 3416 C 333.616 -3.44239 -1.03633 0
M  V30 3417 C 333.28 -4.56965 -0.0567502 0
M  V30 3418 C 334.277 -5.14624 0.738773 0
M  V30 3419 C 331.962 -5.02266 0.0581736 0
M  V30 3420 C 333.956 -6.16045 1.63605 0
M  V30 3421 C 331.643 -6.03528 0.959001 0
M  V30 3422 C 332.641 -6.60293 1.7465 0
M  V30 3423 O 332.329 -7.59586 2.6322 0
M  V30 3424 H 332.061 -0.666772 -0.111313 0
M  V30 3425 H 334.615 -2.02919 0.318277 0
M  V30 3426 H 332.845 -3.40391 -1.83497 0
M  V30 3427 H 334.534 -3.73793 -1.58221 0
M  V30 3428 H 335.3 -4.80483 0.660364 0
M  V30 3429 H 331.179 -4.57771 -0.544633 0
M  V30 3430 H 334.723 -6.60279 2.25116 0
M  V30 3431 H 330.62 -6.37092 1.03848 0
M  V30 3432 H 331.388 -7.77057 2.57148 0
M  V30 3433 N 334.051 0.0651679 -1.57465 0
M  V30 3434 C 335.276 0.779605 -1.9219 0
M  V30 3435 C 335.701 1.69988 -0.805333 0
M  V30 3436 O 335.059 1.79685 0.241435 0
M  V30 3437 C 335.107 1.54364 -3.2589 0
M  V30 3438 O 334.211 2.65474 -3.1559 0
M  V30 3439 H 333.552 0.212249 -0.629163 0
M  V30 3440 H 336.082 0.0314294 -2.04576 0
M  V30 3441 H 336.092 1.92146 -3.59922 0
M  V30 3442 H 334.767 0.868457 -4.06732 0
M  V30 3443 H 333.344 2.30501 -2.93128 0
M  V30 3444 N 335.529 1.53961 0.336706 0
M  V30 3445 C 336.461 1.78751 1.4346 0
M  V30 3446 C 337.474 0.669019 1.48418 0
M  V30 3447 O 338.663 0.945884 1.51378 0
M  V30 3448 C 335.763 1.87844 2.82078 0
M  V30 3449 C 334.936 3.17854 3.00479 0
M  V30 3450 C 333.995 3.17816 4.19379 0
M  V30 3451 O 333.021 3.91511 4.13168 0
M  V30 3452 N 334.223 2.40669 5.2826 0
M  V30 3453 H 336.988 2.73493 1.22563 0
M  V30 3454 H 334.549 1.53096 0.526625 0
M  V30 3455 H 336.541 1.85261 3.59806 0
M  V30 3456 H 335.111 1.00257 2.96086 0
M  V30 3457 H 334.331 3.33504 2.10163 0
M  V30 3458 H 335.619 4.03718 3.0966 0
M  V30 3459 H 335.017 1.8036 5.36178 0
M  V30 3460 H 333.574 2.43877 6.04456 0
M  V30 3461 N 337.007 -0.598083 1.45811 0
M  V30 3462 C 338.254 -1.35681 1.50323 0
M  V30 3463 C 338.582 -1.9393 0.148739 0
M  V30 3464 O 337.837 -1.76094 -0.853787 0
M  V30 3465 C 338.136 -2.51669 2.53766 0
M  V30 3466 C 337.802 -2.11508 3.98215 0
M  V30 3467 C 336.464 -2.0027 4.37545 0
M  V30 3468 C 338.816 -1.80308 4.89018 0
M  V30 3469 C 336.144 -1.56067 5.65562 0
M  V30 3470 C 338.496 -1.37589 6.17456 0
M  V30 3471 C 337.16 -1.24916 6.55708 0
M  V30 3472 H 336.43 -0.496492 0.550069 0
M  V30 3473 H 339.077 -0.675052 1.79207 0
M  V30 3474 H 337.382 -3.25225 2.18486 0
M  V30 3475 H 339.079 -3.09895 2.54492 0
M  V30 3476 H 335.669 -2.21185 3.67117 0
M  V30 3477 H 339.853 -1.87884 4.59362 0
M  V30 3478 H 335.109 -1.44886 5.93985 0
M  V30 3479 H 339.283 -1.12495 6.87254 0
M  V30 3480 H 336.91 -0.904386 7.54801 0
M  V30 3481 N 338.485 -1.33259 -0.841409 0
M  V30 3482 C 339.433 -1.23279 -1.97244 0
M  V30 3483 C 340.427 -0.134706 -1.68864 0
M  V30 3484 O 341.633 -0.298501 -1.77508 0
M  V30 3485 H 338.008 -0.382497 -0.647457 0
M  V30 3486 H 339.979 -2.18906 -2.02787 0
M  V30 3487 C 338.728 -0.986268 -3.33419 0
M  V30 3488 H 338.051 -1.82347 -3.55794 0
M  V30 3489 H 339.491 -0.956728 -4.13065 0
M  V30 3490 C 337.95 0.310842 -3.35463 0
M  V30 3491 O 338.48 1.31838 -3.79449 0
M  V30 3492 N 336.686 0.337485 -2.88634 0
M  V30 3493 H 336.233 -0.482967 -2.53032 0
M  V30 3494 H 336.191 1.20518 -2.90384 0
M  V30 3495 N 339.963 1.05934 -1.16686 0
M  V30 3496 C 340.91 2.13499 -0.876748 0
M  V30 3497 C 341.88 1.65162 0.176299 0
M  V30 3498 O 343.065 1.90757 0.0407143 0
M  V30 3499 C 340.205 3.42912 -0.387967 0
M  V30 3500 C 339.318 4.04964 -1.50426 0
M  V30 3501 C 338.453 5.22266 -0.970125 0
M  V30 3502 C 337.492 5.76309 -2.06238 0
M  V30 3503 N 336.629 6.84922 -1.54356 0
M  V30 3504 H 341.469 2.37654 -1.7979 0
M  V30 3505 H 339.006 1.16598 -0.896843 0
M  V30 3506 H 340.964 4.17111 -0.086186 0
M  V30 3507 H 339.594 3.18963 0.496235 0
M  V30 3508 H 338.646 3.28277 -1.92193 0
M  V30 3509 H 339.958 4.41122 -2.32836 0
M  V30 3510 H 339.112 6.03506 -0.621743 0
M  V30 3511 H 337.851 4.87564 -0.115377 0
M  V30 3512 H 336.856 4.93704 -2.41942 0
M  V30 3513 H 338.081 6.13062 -2.92115 0
M  V30 3514 H 336.027 6.52131 -0.711406 0
M  V30 3515 H 335.944 7.20043 -2.30379 0
M  V30 3516 H 337.212 7.69832 -1.22387 0
M  V30 3517 N 341.441 0.965919 1.2453 0
M  V30 3518 C 342.718 0.543777 1.87889 0
M  V30 3519 C 343.098 -0.97909 1.87021 0
M  V30 3520 O 342.446 -1.84969 1.3416 0
M  V30 3521 C 342.656 1.13327 3.30088 0
M  V30 3522 C 344.004 1.21707 4.06783 0
M  V30 3523 O 345.028 1.08566 3.39252 0
M  V30 3524 O 343.887 1.42456 5.27606 0
M  V30 3525 H 340.981 0.181054 0.806938 0
M  V30 3526 H 343.527 1.06007 1.32516 0
M  V30 3527 H 342.299 2.17612 3.25209 0
M  V30 3528 H 341.922 0.600911 3.93033 0
M  V30 3529 N 342.919 -1.39368 0.735821 0
M  V30 3530 C 343.867 -2.32443 0.0855131 0
M  V30 3531 C 344.861 -1.53104 -0.724954 0
M  V30 3532 O 346.067 -1.68762 -0.626047 0
M  V30 3533 H 342.442 -0.751948 0.00885257 0
M  V30 3534 H 344.413 -2.84916 0.886883 0
M  V30 3535 C 343.162 -3.38206 -0.806983 0
M  V30 3536 H 342.485 -3.99335 -0.19274 0
M  V30 3537 H 343.925 -4.05779 -1.2296 0
M  V30 3538 C 342.384 -2.75321 -1.94165 0
M  V30 3539 O 342.914 -2.63231 -3.03435 0
M  V30 3540 N 341.12 -2.33396 -1.73132 0
M  V30 3541 H 340.667 -2.4343 -0.842596 0
M  V30 3542 H 340.625 -1.91661 -2.49225 0
M  V30 3543 N 344.397 -0.483516 -1.5 0
M  V30 3544 C 345.36 0.292965 -2.2732 0
M  V30 3545 C 346.36 0.909499 -1.32608 0
M  V30 3546 O 347.55 0.776745 -1.55924 0
M  V30 3547 C 344.682 1.41854 -3.09984 0
M  V30 3548 H 345.875 -0.385289 -2.97415 0
M  V30 3549 H 343.428 -0.237942 -1.54478 0
M  V30 3550 H 344.163 2.13148 -2.44414 0
M  V30 3551 H 343.948 0.982114 -3.79601 0
M  V30 3552 H 345.438 1.96597 -3.68429 0
M  V30 3553 N 345.875 1.56104 -0.216619 0
M  V30 3554 C 347.121 1.98466 0.417033 0
M  V30 3555 C 347.454 1.10403 1.59765 0
M  V30 3556 O 346.729 0.160632 1.93836 0
M  V30 3557 C 347.012 3.49769 0.85637 0
M  V30 3558 C 346.865 4.48606 -0.327546 0
M  V30 3559 C 348.184 4.05339 1.7143 0
M  V30 3560 H 345.303 0.721551 0.150112 0
M  V30 3561 H 347.945 1.87423 -0.311864 0
M  V30 3562 H 346.095 3.5931 1.47745 0
M  V30 3563 H 347.767 4.5108 -0.965618 0
M  V30 3564 H 346.01 4.22682 -0.975805 0
M  V30 3565 H 346.681 5.51995 0.0227149 0
M  V30 3566 H 349.157 3.98712 1.19031 0
M  V30 3567 H 348.033 5.11533 1.99061 0
M  V30 3568 H 348.294 3.51918 2.67593 0
M  V30 3569 N 347.353 -0.0568162 1.57498 0
M  V30 3570 C 348.581 -0.765626 1.92213 0
M  V30 3571 C 348.996 -1.70353 0.813961 0
M  V30 3572 O 348.353 -1.81268 -0.211701 0
M  V30 3573 C 348.404 -1.5465 3.2675 0
M  V30 3574 O 348.125 -0.646278 4.33307 0
M  V30 3575 C 349.626 -2.35497 3.75574 0
M  V30 3576 H 346.846 -0.216835 0.634999 0
M  V30 3577 H 349.39 -0.0226146 2.04487 0
M  V30 3578 H 347.545 -2.24165 3.15957 0
M  V30 3579 H 347.959 -1.19093 5.108 0
M  V30 3580 H 349.433 -2.85722 4.72299 0
M  V30 3581 H 349.91 -3.15692 3.05344 0
M  V30 3582 H 350.516 -1.7111 3.8936 0
M  V30 3583 N 348.832 -1.54138 -0.328536 0
M  V30 3584 C 350.057 -1.76378 -1.09112 0
M  V30 3585 C 350.482 -0.508596 -1.81094 0
M  V30 3586 O 349.84 0.539598 -1.73084 0
M  V30 3587 C 349.888 -2.95358 -2.06872 0
M  V30 3588 O 348.992 -2.66556 -3.14677 0
M  V30 3589 H 348.333 -0.584614 -0.314838 0
M  V30 3590 H 350.863 -2.01146 -0.374348 0
M  V30 3591 H 350.873 -3.22566 -2.4983 0
M  V30 3592 H 349.548 -3.86385 -1.5388 0
M  V30 3593 H 348.125 -2.50282 -2.7643 0
M  V30 3594 N 350.31 0.590341 -1.46126 0
M  V30 3595 C 351.721 1.17243 -1.45296 0
M  V30 3596 C 352.072 1.95281 -0.189723 0
M  V30 3597 O 351.197 2.04502 0.707674 0
M  V30 3598 C 351.792 2.13284 -2.6324 0
M  V30 3599 C 350.351 2.66832 -2.65476 0
M  V30 3600 C 349.498 1.42557 -2.3785 0
M  V30 3601 H 352.449 0.378692 -1.54116 0
M  V30 3602 H 352.47 2.96619 -2.38323 0
M  V30 3603 H 351.982 1.56459 -3.55165 0
M  V30 3604 H 350.083 3.27548 -1.77603 0
M  V30 3605 H 350.196 3.10088 -3.65215 0
M  V30 3606 H 348.56 1.72107 -1.87753 0
M  V30 3607 H 349.343 0.875741 -3.31942 0
M  V30 3608 N 351.788 1.33704 0.83433 0
M  V30 3609 C 352.735 1.24335 1.94447 0
M  V30 3610 C 353.705 0.120991 1.65659 0
M  V30 3611 O 354.89 0.300035 1.88426 0
M  V30 3612 C 352.03 0.993124 3.30501 0
M  V30 3613 C 351.143 2.20217 3.71657 0
M  V30 3614 C 350.278 1.88572 4.96602 0
M  V30 3615 C 349.317 3.05683 5.30306 0
M  V30 3616 N 348.454 2.73997 6.46429 0
M  V30 3617 H 353.294 2.1928 2.01792 0
M  V30 3618 H 350.831 1.09035 0.987404 0
M  V30 3619 H 352.789 0.828467 4.08892 0
M  V30 3620 H 351.419 0.0803902 3.227 0
M  V30 3621 H 350.471 2.47642 2.88752 0
M  V30 3622 H 351.783 3.07752 3.92543 0
M  V30 3623 H 350.937 1.68776 5.82752 0
M  V30 3624 H 349.676 0.982799 4.77695 0
M  V30 3625 H 348.681 3.26088 4.42659 0
M  V30 3626 H 349.906 3.96737 5.51159 0
M  V30 3627 H 347.852 1.86268 6.28999 0
M  V30 3628 H 347.769 3.55064 6.67432 0
M  V30 3629 H 349.037 2.57679 7.35678 0
M  V30 3630 N 353.266 -1.05314 1.17247 0
M  V30 3631 C 354.682 -1.30452 0.919473 0
M  V30 3632 C 354.882 -1.9703 -0.42209 0
M  V30 3633 O 353.938 -2.24311 -1.15935 0
M  V30 3634 C 355.251 -2.17551 2.07586 0
M  V30 3635 C 356.799 -2.30937 2.11275 0
M  V30 3636 C 357.274 -3.21396 3.26296 0
M  V30 3637 N 358.765 -3.28981 3.26076 0
M  V30 3638 C 359.5 -3.99095 4.11716 0
M  V30 3639 N 358.996 -4.71648 5.07465 0
M  V30 3640 N 360.789 -3.95247 3.9967 0
M  V30 3641 H 352.94 -0.604988 2.03602 0
M  V30 3642 H 355.203 -0.329368 0.888944 0
M  V30 3643 H 354.909 -1.75921 3.0454 0
M  V30 3644 H 354.783 -3.18182 2.02584 0
M  V30 3645 H 357.17 -2.71809 1.14907 0
M  V30 3646 H 357.251 -1.2994 2.20339 0
M  V30 3647 H 356.895 -2.81238 4.22927 0
M  V30 3648 H 356.825 -4.22395 3.14467 0
M  V30 3649 H 359.316 -2.77286 2.5675 0
M  V30 3650 H 359.629 -5.22705 5.6921 0
M  V30 3651 H 357.974 -4.70594 5.11435 0
M  V30 3652 H 361.165 -3.37691 3.24164 0
M  V30 3653 H 361.338 -4.4962 4.66632 0
M  V30 3654 N 354.744 -0.972509 -1.24016 0
M  V30 3655 C 355.654 -0.5143 -2.28893 0
M  V30 3656 C 356.67 0.427078 -1.68677 0
M  V30 3657 O 357.846 0.298939 -1.99169 0
M  V30 3658 C 354.911 0.183598 -3.46214 0
M  V30 3659 C 353.972 -0.798202 -4.21814 0
M  V30 3660 C 353.205 -0.133514 -5.33533 0
M  V30 3661 O 353.428 1.07714 -5.60137 0
M  V30 3662 O 352.362 -0.828103 -5.96176 0
M  V30 3663 H 356.188 -1.38629 -2.70214 0
M  V30 3664 H 353.773 -0.739769 -1.29799 0
M  V30 3665 H 355.655 0.575433 -4.17453 0
M  V30 3666 H 354.33 1.03048 -3.0686 0
M  V30 3667 H 353.237 -1.24059 -3.52931 0
M  V30 3668 H 354.57 -1.61364 -4.64997 0
M  V30 3669 N 356.222 1.38976 -0.743202 0
M  V30 3670 C 357.469 2.00343 -0.294752 0
M  V30 3671 C 357.797 1.58983 1.12047 0
M  V30 3672 O 357.052 0.813809 1.77977 0
M  V30 3673 C 357.351 3.55647 -0.353517 0
M  V30 3674 C 357.017 4.16685 -1.72292 0
M  V30 3675 C 355.679 4.3307 -2.09771 0
M  V30 3676 C 358.031 4.50464 -2.62168 0
M  V30 3677 C 355.359 4.80526 -3.36618 0
M  V30 3678 C 357.711 4.99332 -3.88395 0
M  V30 3679 C 356.375 5.13924 -4.25956 0
M  V30 3680 H 355.645 0.733108 -0.107857 0
M  V30 3681 H 358.292 1.6618 -0.951651 0
M  V30 3682 H 356.597 3.89884 0.386954 0
M  V30 3683 H 358.294 4.00998 0.0117269 0
M  V30 3684 H 354.884 4.04339 -1.42155 0
M  V30 3685 H 359.068 4.37416 -2.3448 0
M  V30 3686 H 354.324 4.90008 -3.65653 0
M  V30 3687 H 358.498 5.2444 -4.58187 0
M  V30 3688 H 356.125 5.50457 -5.2431 0
M  V30 3689 N 357.7 0.491464 1.49741 0
M  V30 3690 C 358.94 -0.0549118 2.04326 0
M  V30 3691 C 359.304 -1.35148 1.36378 0
M  V30 3692 O 360.505 -1.9815 1.81631 0
M  V30 3693 C 358.776 -0.213841 3.5676 0
M  V30 3694 S 360.335 -0.715839 4.32922 0
M  V30 3695 H 357.153 -0.00630513 0.710972 0
M  V30 3696 H 359.755 0.663257 1.83905 0
M  V30 3697 H 358.459 0.73527 4.0376 0
M  V30 3698 H 357.99 -0.957529 3.81569 0
M  V30 3699 H 360.005 -1.9864 4.54705 0
M  V30 3700 N 359.178 -1.55987 0.224894 0
M  V30 3701 C 360.589 -1.84553 -0.282345 0
M  V30 3702 C 360.94 -1.14634 -1.59227 0
M  V30 3703 O 360.065 -0.417155 -2.12341 0
M  V30 3704 C 360.66 -3.348 -0.519062 0
M  V30 3705 C 359.219 -3.63671 -0.970604 0
M  V30 3706 C 358.366 -2.77277 -0.0355261 0
M  V30 3707 H 361.317 -1.52245 0.448006 0
M  V30 3708 H 361.338 -3.55187 -1.36463 0
M  V30 3709 H 360.85 -3.8566 0.43449 0
M  V30 3710 H 358.951 -3.1827 -1.9374 0
M  V30 3711 H 359.064 -4.71631 -0.842698 0
M  V30 3712 H 357.428 -2.48846 -0.542927 0
M  V30 3713 H 358.211 -3.30937 0.913003 0
M  V30 3714 N 360.656 0.0484629 -1.57525 0
M  V30 3715 C 361.902 0.744226 -1.88651 0
M  V30 3716 C 362.235 1.76029 -0.820212 0
M  V30 3717 O 361.51 1.93782 0.166985 0
M  V30 3718 C 361.793 1.43128 -3.30434 0
M  V30 3719 C 361.646 0.43005 -4.47739 0
M  V30 3720 C 362.965 2.37031 -3.70816 0
M  V30 3721 H 360.084 0.269089 -0.68612 0
M  V30 3722 H 362.726 0.00713532 -1.89999 0
M  V30 3723 H 360.876 2.05956 -3.29415 0
M  V30 3724 H 362.548 -0.194816 -4.60888 0
M  V30 3725 H 360.791 -0.252522 -4.33064 0
M  V30 3726 H 361.462 0.948874 -5.43783 0
M  V30 3727 H 363.938 1.84263 -3.73077 0
M  V30 3728 H 362.814 2.82094 -4.70865 0
M  V30 3729 H 363.075 3.22864 -3.02012 0
M  V30 3730 N 362.134 1.5431 0.320358 0
M  V30 3731 C 363.411 1.63322 1.07635 0
M  V30 3732 C 363.791 0.46912 2.05821 0
M  V30 3733 O 363.139 -0.536274 2.22118 0
M  V30 3734 C 363.349 3.00465 1.77544 0
M  V30 3735 C 364.697 3.56621 2.30449 0
M  V30 3736 O 365.721 3.02791 1.87606 0
M  V30 3737 O 364.58 4.5083 3.08892 0
M  V30 3738 H 361.674 0.661502 0.496331 0
M  V30 3739 H 364.22 1.66656 0.319992 0
M  V30 3740 H 362.992 3.76629 1.06143 0
M  V30 3741 H 362.615 3.00824 2.59982 0
M  V30 3742 N 363.613 -0.582584 1.46437 0
M  V30 3743 C 364.843 -1.36484 1.55099 0
M  V30 3744 C 365.251 -1.88233 0.191056 0
M  V30 3745 O 364.594 -1.6429 -0.821858 0
M  V30 3746 C 364.656 -2.588 2.49525 0
M  V30 3747 C 364.32 -2.28517 3.95764 0
M  V30 3748 C 365.317 -1.87346 4.84972 0
M  V30 3749 C 363.002 -2.40658 4.40896 0
M  V30 3750 C 364.996 -1.5871 6.17325 0
M  V30 3751 C 362.683 -2.11635 5.73284 0
M  V30 3752 C 363.681 -1.70725 6.61318 0
M  V30 3753 O 363.369 -1.42057 7.91249 0
M  V30 3754 H 363.101 -0.423297 0.527063 0
M  V30 3755 H 365.655 -0.715188 1.92547 0
M  V30 3756 H 363.885 -3.26571 2.07095 0
M  V30 3757 H 365.574 -3.20868 2.48593 0
M  V30 3758 H 366.34 -1.77481 4.5136 0
M  V30 3759 H 362.219 -2.71463 3.72598 0
M  V30 3760 H 365.763 -1.26704 6.85997 0
M  V30 3761 H 361.66 -2.21124 6.06444 0
M  V30 3762 H 362.428 -1.55901 8.03515 0
M  V30 3763 N 365.091 -1.34144 -0.827227 0
M  V30 3764 C 366.021 -1.28005 -1.95287 0
M  V30 3765 C 367.002 -0.158321 -1.69362 0
M  V30 3766 O 368.187 -0.349987 -1.9102 0
M  V30 3767 C 365.317 -1.03036 -3.31664 0
M  V30 3768 C 364.271 -2.11628 -3.72019 0
M  V30 3769 C 363.597 -1.71854 -5.0633 0
M  V30 3770 C 364.897 -3.53417 -3.8457 0
M  V30 3771 H 366.591 -2.22187 -2.00682 0
M  V30 3772 H 364.137 -1.0696 -0.964135 0
M  V30 3773 H 366.09 -0.973863 -4.09993 0
M  V30 3774 H 364.814 -0.0529391 -3.26557 0
M  V30 3775 H 363.473 -2.16339 -2.95961 0
M  V30 3776 H 363.121 -0.727841 -4.97706 0
M  V30 3777 H 362.821 -2.44531 -5.34302 0
M  V30 3778 H 364.345 -1.67692 -5.87122 0
M  V30 3779 H 365.759 -3.51142 -4.5318 0
M  V30 3780 H 364.156 -4.24679 -4.2399 0
M  V30 3781 H 365.226 -3.91072 -2.86689 0
M  V30 3782 N 366.569 1.04691 -1.17803 0
M  V30 3783 C 367.499 2.14494 -0.92275 0
M  V30 3784 C 368.48 1.69546 0.137179 0
M  V30 3785 O 369.665 1.94195 -0.0141108 0
M  V30 3786 C 366.795 3.44491 -0.440803 0
M  V30 3787 C 365.749 4.03031 -1.4405 0
M  V30 3788 C 365.075 5.28432 -0.81631 0
M  V30 3789 C 366.375 4.39932 -2.81527 0
M  V30 3790 H 368.069 2.36107 -1.84103 0
M  V30 3791 H 365.615 1.1347 -0.886599 0
M  V30 3792 H 367.568 4.2066 -0.249602 0
M  V30 3793 H 366.292 3.22546 0.513025 0
M  V30 3794 H 364.951 3.28937 -1.61853 0
M  V30 3795 H 364.599 5.02792 0.144511 0
M  V30 3796 H 364.299 5.68559 -1.48371 0
M  V30 3797 H 365.823 6.07284 -0.635496 0
M  V30 3798 H 367.237 5.07113 -2.67412 0
M  V30 3799 H 365.634 4.9109 -3.44892 0
M  V30 3800 H 366.704 3.50045 -3.35554 0
M  V30 3801 N 368.047 0.979072 1.23499 0
M  V30 3802 C 369.295 0.645941 1.91499 0
M  V30 3803 C 369.616 -0.822948 1.76784 0
M  V30 3804 O 368.886 -1.58854 1.14639 0
M  V30 3805 H 367.466 0.235919 0.708767 0
M  V30 3806 H 370.128 1.2426 1.50152 0
M  V30 3807 H 369.224 0.896411 2.9895 0
M  V30 3808 N 369.525 -1.3858 0.750561 0
M  V30 3809 C 370.765 -2.02032 0.310258 0
M  V30 3810 C 371.129 -1.58288 -1.08668 0
M  V30 3811 O 372.33 -2.14049 -1.62593 0
M  V30 3812 C 370.601 -3.54856 0.425647 0
M  V30 3813 S 372.16 -4.38748 0.0674797 0
M  V30 3814 H 368.978 -0.700705 0.120554 0
M  V30 3815 H 371.58 -1.69134 0.980512 0
M  V30 3816 H 370.284 -3.84182 1.44335 0
M  V30 3817 H 369.815 -3.92527 -0.261894 0
M  V30 3818 H 371.83 -4.82835 -1.14388 0
M  V30 3819 N 371.003 -0.499398 -1.49478 0
M  V30 3820 C 372.251 0.0455996 -2.02049 0
M  V30 3821 C 372.572 1.37633 -1.38138 0
M  V30 3822 O 371.842 1.8842 -0.536166 0
M  V30 3823 H 370.422 0.0198416 -0.746736 0
M  V30 3824 H 373.084 -0.656274 -1.83519 0
M  V30 3825 H 372.18 0.176445 -3.11601 0
M  V30 3826 N 372.481 1.55866 -0.233164 0
M  V30 3827 C 373.727 1.98897 0.395959 0
M  V30 3828 C 374.06 1.12091 1.58585 0
M  V30 3829 O 373.335 0.181182 1.93654 0
M  V30 3830 C 373.618 3.50658 0.819224 0
M  V30 3831 C 373.471 4.48233 -0.375109 0
M  V30 3832 C 374.79 4.07135 1.67121 0
M  V30 3833 H 371.909 0.723102 0.142451 0
M  V30 3834 H 374.551 1.87082 -0.331725 0
M  V30 3835 H 372.701 3.60857 1.43925 0
M  V30 3836 H 374.373 4.50031 -1.01341 0
M  V30 3837 H 372.616 4.21624 -1.02058 0
M  V30 3838 H 373.287 5.51988 -0.0358328 0
M  V30 3839 H 375.763 3.99952 1.14795 0
M  V30 3840 H 374.639 5.13615 1.93625 0
M  V30 3841 H 374.9 3.54736 2.63846 0
M  V30 3842 N 373.959 -0.0401083 1.57549 0
M  V30 3843 C 374.889 -1.04384 2.08869 0
M  V30 3844 C 375.87 -1.38407 0.988817 0
M  V30 3845 O 377.055 -1.47483 1.26342 0
M  V30 3846 C 374.185 -2.34808 2.55895 0
M  V30 3847 C 373.139 -2.15057 3.70047 0
M  V30 3848 C 372.465 -3.51145 4.03239 0
M  V30 3849 C 373.765 -1.54576 4.98902 0
M  V30 3850 H 375.459 -0.616666 2.92981 0
M  V30 3851 H 373.005 -0.295184 1.40942 0
M  V30 3852 H 374.958 -3.05346 2.90417 0
M  V30 3853 H 373.682 -2.79565 1.68853 0
M  V30 3854 H 372.341 -1.46954 3.35857 0
M  V30 3855 H 371.989 -3.93529 3.13279 0
M  V30 3856 H 371.689 -3.38758 4.80122 0
M  V30 3857 H 373.213 -4.23062 4.40285 0
M  V30 3858 H 374.627 -2.15017 5.31451 0
M  V30 3859 H 373.024 -1.52796 5.80322 0
M  V30 3860 H 374.094 -0.51039 4.82206 0
M  V30 3861 N 375.437 -1.54477 -0.31217 0
M  V30 3862 C 376.367 -1.87652 -1.38957 0
M  V30 3863 C 377.348 -0.734358 -1.53431 0
M  V30 3864 O 378.533 -0.98911 -1.67123 0
M  V30 3865 C 375.663 -2.11396 -2.75552 0
M  V30 3866 C 374.617 -3.27243 -2.75855 0
M  V30 3867 C 373.943 -3.36382 -4.15633 0
M  V30 3868 C 375.243 -4.64622 -2.38587 0
M  V30 3869 H 376.937 -2.77887 -1.11442 0
M  V30 3870 H 374.483 -1.33707 -0.534655 0
M  V30 3871 H 376.436 -2.33189 -3.51 0
M  V30 3872 H 375.16 -1.17921 -3.04569 0
M  V30 3873 H 373.819 -3.05356 -2.02863 0
M  V30 3874 H 373.467 -2.40445 -4.41809 0
M  V30 3875 H 373.167 -4.14249 -4.1674 0
M  V30 3876 H 374.691 -3.60422 -4.92877 0
M  V30 3877 H 376.105 -4.86219 -3.03749 0
M  V30 3878 H 374.502 -5.45121 -2.50925 0
M  V30 3879 H 375.572 -4.66097 -1.33723 0
M  V30 3880 N 376.915 0.57481 -1.46744 0
M  V30 3881 C 378.163 1.33009 -1.52161 0
M  V30 3882 C 378.484 1.94185 -0.178092 0
M  V30 3883 O 377.754 1.7899 0.796196 0
M  V30 3884 H 376.334 0.493873 -0.560445 0
M  V30 3885 H 378.996 0.672589 -1.82927 0
M  V30 3886 H 378.092 2.13273 -2.27862 0
M  V30 3887 N 378.394 1.34581 0.820102 0
M  V30 3888 C 379.342 1.26401 1.95258 0
M  V30 3889 C 380.336 0.161553 1.68628 0
M  V30 3890 O 381.542 0.326703 1.7701 0
M  V30 3891 H 377.917 0.392749 0.64129 0
M  V30 3892 H 379.888 2.22105 1.99279 0
M  V30 3893 C 378.637 1.03919 3.31807 0
M  V30 3894 H 377.96 1.87984 3.52848 0
M  V30 3895 H 379.4 1.02232 4.11491 0
M  V30 3896 C 377.859 -0.257433 3.35915 0
M  V30 3897 O 378.389 -1.25784 3.81499 0
M  V30 3898 N 376.595 -0.291524 2.89134 0
M  V30 3899 H 376.142 0.523161 2.52232 0
M  V30 3900 H 376.1 -1.15883 2.92264 0
M  V30 3901 N 379.872 -1.04064 1.18357 0
M  V30 3902 C 380.835 -2.10243 0.912707 0
M  V30 3903 C 381.835 -1.60477 -0.101928 0
M  V30 3904 O 383.025 -1.73703 0.131517 0
M  V30 3905 C 380.157 -3.38893 0.369387 0
M  V30 3906 H 381.35 -2.35706 1.85426 0
M  V30 3907 H 378.903 -1.20489 0.995594 0
M  V30 3908 H 379.638 -3.19094 -0.578776 0
M  V30 3909 H 379.423 -3.76331 1.1008 0
M  V30 3910 H 380.913 -4.17128 0.198575 0
M  V30 3911 N 381.35 -0.985608 -1.22978 0
M  V30 3912 C 382.597 -0.657386 -1.91532 0
M  V30 3913 C 382.925 0.809707 -1.76845 0
M  V30 3914 O 382.18 1.60021 -1.12658 0
M  V30 3915 C 382.479 -1.00014 -3.43121 0
M  V30 3916 C 382.145 -2.4583 -3.77993 0
M  V30 3917 C 380.807 -2.85679 -3.87222 0
M  V30 3918 C 383.159 -3.40378 -3.94705 0
M  V30 3919 C 380.487 -4.19081 -4.10595 0
M  V30 3920 C 382.839 -4.73429 -4.1958 0
M  V30 3921 C 381.503 -5.1303 -4.27032 0
M  V30 3922 H 380.773 -0.240555 -0.700867 0
M  V30 3923 H 383.42 -1.24044 -1.45895 0
M  V30 3924 H 381.725 -0.335072 -3.90365 0
M  V30 3925 H 383.422 -0.724322 -3.94404 0
M  V30 3926 H 380.012 -2.13939 -3.71387 0
M  V30 3927 H 384.196 -3.10766 -3.8696 0
M  V30 3928 H 379.452 -4.49362 -4.14589 0
M  V30 3929 H 383.626 -5.46644 -4.31455 0
M  V30 3930 H 381.253 -6.16418 -4.44896 0
M  V30 3931 N 382.828 1.3818 -0.7579 0
M  V30 3932 C 384.074 2.00316 -0.316453 0
M  V30 3933 C 384.407 1.60026 1.10025 0
M  V30 3934 O 383.682 0.839835 1.75434 0
M  V30 3935 C 383.965 3.57349 -0.444245 0
M  V30 3936 C 383.818 4.07591 -1.90236 0
M  V30 3937 C 385.137 4.3981 0.1598 0
M  V30 3938 H 382.256 0.727741 -0.116459 0
M  V30 3939 H 384.898 1.6406 -0.958352 0
M  V30 3940 H 383.048 3.88365 0.102233 0
M  V30 3941 H 384.72 3.87199 -2.50748 0
M  V30 3942 H 382.963 3.60297 -2.41595 0
M  V30 3943 H 383.634 5.16677 -1.94291 0
M  V30 3944 H 386.11 4.14971 -0.306314 0
M  V30 3945 H 384.986 5.48885 0.0401675 0
M  V30 3946 H 385.247 4.24102 1.24859 0
M  V30 3947 N 384.306 0.507319 1.49211 0
M  V30 3948 C 385.536 -0.0315292 2.06576 0
M  V30 3949 C 385.944 -1.30791 1.36713 0
M  V30 3950 O 385.287 -1.78324 0.441181 0
M  V30 3951 C 385.349 -0.349104 3.57801 0
M  V30 3952 C 385.013 0.830475 4.49391 0
M  V30 3953 C 386.01 1.72271 4.90529 0
M  V30 3954 C 383.695 1.03107 4.91604 0
M  V30 3955 C 385.689 2.79964 5.72625 0
M  V30 3956 C 383.376 2.11116 5.73475 0
M  V30 3957 C 384.374 2.99379 6.1389 0
M  V30 3958 O 384.062 4.05523 6.94123 0
M  V30 3959 H 383.794 0.0201002 0.675701 0
M  V30 3960 H 386.348 0.705737 1.92895 0
M  V30 3961 H 384.578 -1.14005 3.69513 0
M  V30 3962 H 386.267 -0.827319 3.97379 0
M  V30 3963 H 387.033 1.57958 4.58557 0
M  V30 3964 H 382.912 0.353417 4.59643 0
M  V30 3965 H 386.456 3.48884 6.04091 0
M  V30 3966 H 382.353 2.25421 6.0486 0
M  V30 3967 H 383.121 4.02953 7.1244 0
M  V30 3968 N 385.784 -1.5574 0.241426 0
M  V30 3969 C 387.195 -1.84842 -0.262755 0
M  V30 3970 C 387.546 -1.16317 -1.58003 0
M  V30 3971 O 386.671 -0.439653 -2.11887 0
M  V30 3972 C 387.266 -3.35332 -0.483523 0
M  V30 3973 C 385.825 -3.6468 -0.931977 0
M  V30 3974 C 384.972 -2.77299 -0.0061151 0
M  V30 3975 H 387.923 -1.51761 0.464129 0
M  V30 3976 H 387.944 -3.56615 -1.32688 0
M  V30 3977 H 387.456 -3.85178 0.47537 0
M  V30 3978 H 385.557 -3.20307 -1.90353 0
M  V30 3979 H 385.67 -4.72498 -0.792628 0
M  V30 3980 H 384.034 -2.49408 -0.516503 0
M  V30 3981 H 384.817 -3.2995 0.948052 0
M  V30 3982 N 387.262 0.0317525 -1.57568 0
M  V30 3983 C 388.212 1.04101 -2.02847 0
M  V30 3984 C 389.196 1.3219 -0.917317 0
M  V30 3985 O 390.388 1.31819 -1.18121 0
M  V30 3986 C 387.517 2.34295 -2.5092 0
M  V30 3987 C 386.603 2.09308 -3.68851 0
M  V30 3988 N 386.994 1.5437 -4.81667 0
M  V30 3989 C 385.292 2.39604 -3.76172 0
M  V30 3990 C 385.993 1.45126 -5.63306 0
M  V30 3991 N 384.969 1.92589 -5.08341 0
M  V30 3992 H 388.771 0.610217 -2.87495 0
M  V30 3993 H 386.285 0.238108 -1.60645 0
M  V30 3994 H 388.282 3.07404 -2.81617 0
M  V30 3995 H 386.942 2.78055 -1.67677 0
M  V30 3996 H 387.953 1.22678 -5.03161 0
M  V30 3997 H 384.63 2.86457 -3.03724 0
M  V30 3998 H 386.02 1.03163 -6.63933 0
M  V30 3999 N 388.74 1.54641 0.303973 0
M  V30 4000 C 389.672 1.81754 1.39636 0
M  V30 4001 C 390.685 0.70035 1.46966 0
M  V30 4002 O 391.874 0.97778 1.49338 0
M  V30 4003 C 388.974 1.93785 2.7803 0
M  V30 4004 C 388.147 3.24156 2.93669 0
M  V30 4005 C 387.206 3.26641 4.12544 0
M  V30 4006 O 386.232 4.00187 4.04771 0
M  V30 4007 N 387.434 2.5182 5.23036 0
M  V30 4008 H 390.199 2.76031 1.16734 0
M  V30 4009 H 387.76 1.54178 0.494033 0
M  V30 4010 H 389.752 1.92852 3.55795 0
M  V30 4011 H 388.322 1.06515 2.93893 0
M  V30 4012 H 387.542 3.37887 2.03042 0
M  V30 4013 H 388.83 4.10195 3.01027 0
M  V30 4014 H 388.228 1.91692 5.32232 0
M  V30 4015 H 386.785 2.56644 5.99147 0
M  V30 4016 N 390.218 -0.567019 1.47046 0
M  V30 4017 C 391.467 -1.32091 1.5243 0
M  V30 4018 C 391.78 -1.94704 0.187021 0
M  V30 4019 O 392.986 -2.7124 0.118771 0
M  V30 4020 C 391.442 -2.39479 2.68659 0
M  V30 4021 C 391.05 -1.831 4.08874 0
M  V30 4022 C 392.794 -3.16111 2.83327 0
M  V30 4023 C 390.701 -2.8821 5.16419 0
M  V30 4024 H 389.631 -0.496629 0.56734 0
M  V30 4025 H 392.282 -0.603354 1.73297 0
M  V30 4026 H 390.664 -3.14105 2.41152 0
M  V30 4027 H 391.838 -1.14913 4.46242 0
M  V30 4028 H 390.153 -1.19085 3.99008 0
M  V30 4029 H 392.75 -3.94585 3.60842 0
M  V30 4030 H 393.093 -3.69686 1.91411 0
M  V30 4031 H 393.626 -2.48595 3.10556 0
M  V30 4032 H 390.365 -2.39504 6.10179 0
M  V30 4033 H 389.885 -3.54839 4.8358 0
M  V30 4034 H 391.564 -3.51881 5.42945 0
M  V30 4035 N 391.696 -1.35014 -0.812953 0
M  V30 4036 C 392.945 -1.27269 -1.56479 0
M  V30 4037 C 393.258 0.152771 -1.95002 0
M  V30 4038 O 394.464 0.352451 -2.69203 0
M  V30 4039 C 392.92 -2.23159 -2.82362 0
M  V30 4040 C 392.528 -3.71016 -2.511 0
M  V30 4041 C 394.272 -2.24342 -3.60376 0
M  V30 4042 C 392.179 -4.58746 -3.73237 0
M  V30 4043 H 391.109 -0.472829 -0.587324 0
M  V30 4044 H 393.76 -1.6024 -0.894171 0
M  V30 4045 H 392.142 -1.83151 -3.51101 0
M  V30 4046 H 393.316 -4.1962 -1.90409 0
M  V30 4047 H 391.631 -3.72378 -1.86343 0
M  V30 4048 H 394.228 -2.87107 -4.51081 0
M  V30 4049 H 394.571 -1.24542 -3.97234 0
M  V30 4050 H 395.104 -2.62846 -2.98591 0
M  V30 4051 H 391.843 -5.59521 -3.41492 0
M  V30 4052 H 391.363 -4.14871 -4.33176 0
M  V30 4053 H 393.042 -4.73852 -4.40537 0
M  V30 4054 N 393.175 1.03435 -1.18907 0
M  V30 4055 C 394.123 2.13703 -0.918353 0
M  V30 4056 C 395.117 1.68947 0.123767 0
M  V30 4057 O 396.323 1.79983 -0.0249701 0
M  V30 4058 H 392.698 0.698112 -0.279542 0
M  V30 4059 H 394.669 2.33731 -1.85506 0
M  V30 4060 C 393.418 3.44542 -0.467532 0
M  V30 4061 H 392.741 3.79394 -1.26095 0
M  V30 4062 H 394.181 4.22812 -0.317164 0
M  V30 4063 C 392.64 3.26829 0.817588 0
M  V30 4064 O 393.17 3.54975 1.88031 0
M  V30 4065 N 391.376 2.80139 0.772677 0
M  V30 4066 H 390.923 2.57434 -0.0923883 0
M  V30 4067 H 390.881 2.68668 1.63294 0
M  V30 4068 N 394.653 0.992116 1.22453 0
M  V30 4069 C 395.583 0.561677 2.26644 0
M  V30 4070 C 396.564 -0.411055 1.65059 0
M  V30 4071 O 397.749 -0.301861 1.9184 0
M  V30 4072 C 394.879 -0.125247 3.47074 0
M  V30 4073 C 393.833 0.765948 4.21091 0
M  V30 4074 C 393.159 -0.0538484 5.34673 0
M  V30 4075 C 394.459 2.06242 4.79856 0
M  V30 4076 H 396.153 1.43259 2.62902 0
M  V30 4077 H 393.699 0.690283 1.26377 0
M  V30 4078 H 395.652 -0.437764 4.1912 0
M  V30 4079 H 394.376 -1.03069 3.0991 0
M  V30 4080 H 393.035 1.0621 3.50878 0
M  V30 4081 H 392.683 -0.960188 4.9375 0
M  V30 4082 H 392.383 0.539415 5.85119 0
M  V30 4083 H 393.907 -0.360477 6.09535 0
M  V30 4084 H 395.321 1.8139 5.43848 0
M  V30 4085 H 393.718 2.60444 5.40638 0
M  V30 4086 H 394.788 2.74167 3.99951 0
M  V30 4087 N 396.131 -1.37776 0.765217 0
M  V30 4088 C 397.547 -1.53297 0.444108 0
M  V30 4089 C 397.747 -1.72515 -1.04119 0
M  V30 4090 O 396.803 -1.74278 -1.82711 0
M  V30 4091 C 398.116 -2.73328 1.25349 0
M  V30 4092 C 399.664 -2.87185 1.24473 0
M  V30 4093 C 400.139 -4.10191 2.03733 0
M  V30 4094 N 401.63 -4.17291 2.01053 0
M  V30 4095 C 402.365 -5.11488 2.59166 0
M  V30 4096 N 401.861 -6.11285 3.26041 0
M  V30 4097 N 403.654 -5.03924 2.49032 0
M  V30 4098 H 395.805 -1.23552 1.72768 0
M  V30 4099 H 398.068 -0.601103 0.733062 0
M  V30 4100 H 397.774 -2.6557 2.30577 0
M  V30 4101 H 397.648 -3.66834 0.87823 0
M  V30 4102 H 400.035 -2.94418 0.20047 0
M  V30 4103 H 400.116 -1.94657 1.65959 0
M  V30 4104 H 399.76 -4.0372 3.08176 0
M  V30 4105 H 399.69 -5.01821 1.59633 0
M  V30 4106 H 402.181 -3.45825 1.5236 0
M  V30 4107 H 402.494 -6.79678 3.67774 0
M  V30 4108 H 400.839 -6.11583 3.30138 0
M  V30 4109 H 404.03 -4.24902 1.96407 0
M  V30 4110 H 404.203 -5.77152 2.94617 0
M  V30 4111 N 397.609 -0.515225 -1.4894 0
M  V30 4112 C 398.837 0.0206034 -2.0689 0
M  V30 4113 C 399.252 1.29514 -1.37374 0
M  V30 4114 O 398.609 1.76698 -0.456529 0
M  V30 4115 C 398.66 0.26351 -3.60538 0
M  V30 4116 O 398.381 -0.960517 -4.27441 0
M  V30 4117 C 399.882 0.841383 -4.35242 0
M  V30 4118 H 397.102 -0.0268608 -0.670462 0
M  V30 4119 H 399.646 -0.716651 -1.91532 0
M  V30 4120 H 397.801 0.950777 -3.75552 0
M  V30 4121 H 398.215 -0.73212 -5.19365 0
M  V30 4122 H 399.689 0.96085 -5.43573 0
M  V30 4123 H 400.166 1.8427 -3.98674 0
M  V30 4124 H 400.772 0.191143 -4.2487 0
M  V30 4125 N 399.087 1.5561 -0.249682 0
M  V30 4126 C 400.035 2.22894 0.664906 0
M  V30 4127 C 401.029 1.21743 1.17792 0
M  V30 4128 O 402.235 1.39748 1.13449 0
M  V30 4129 H 398.61 0.715022 0.232912 0
M  V30 4130 H 400.581 2.98307 0.0742998 0
M  V30 4131 C 399.33 2.94424 1.84959 0
M  V30 4132 H 398.653 3.72031 1.46399 0
M  V30 4133 H 400.093 3.44862 2.4667 0
M  V30 4134 C 398.552 1.98454 2.72245 0
M  V30 4135 O 399.082 1.51939 3.71857 0
M  V30 4136 N 397.288 1.65496 2.38871 0
M  V30 4137 H 396.835 2.03517 1.57919 0
M  V30 4138 H 396.793 1.0155 2.97548 0
M  V30 4139 N 400.565 -0.0233959 1.57583 0
M  V30 4140 C 401.513 -1.04063 2.08023 0
M  V30 4141 C 402.507 -1.37084 0.995204 0
M  V30 4142 O 403.713 -1.35923 1.18004 0
M  V30 4143 H 400.088 -0.353144 0.663922 0
M  V30 4144 H 402.059 -0.589453 2.9252 0
M  V30 4145 C 400.808 -2.33123 2.57971 0
M  V30 4146 H 400.131 -2.08577 3.4108 0
M  V30 4147 H 401.571 -3.02632 2.96967 0
M  V30 4148 C 400.03 -3.02483 1.48342 0
M  V30 4149 O 400.56 -3.92541 0.852898 0
M  V30 4150 N 398.766 -2.63909 1.21658 0
M  V30 4151 H 398.313 -1.90758 1.73116 0
M  V30 4152 H 398.271 -3.10633 0.485218 0
M  V30 4153 N 402.043 -1.548 -0.295768 0
M  V30 4154 C 403.268 -1.78653 -1.05346 0
M  V30 4155 C 403.693 -0.546894 -1.79974 0
M  V30 4156 O 403.051 0.502763 -1.7419 0
M  V30 4157 C 403.099 -2.99679 -2.00561 0
M  V30 4158 O 402.203 -2.7317 -3.08953 0
M  V30 4159 H 401.544 -0.59116 -0.302367 0
M  V30 4160 H 404.074 -2.01895 -0.331598 0
M  V30 4161 H 404.084 -3.27793 -2.42932 0
M  V30 4162 H 402.759 -3.89562 -1.4565 0
M  V30 4163 H 401.336 -2.56089 -2.71059 0
M  V30 4164 N 403.521 0.559213 -1.47345 0
M  V30 4165 C 404.484 1.64854 -1.59235 0
M  V30 4166 C 405.484 1.53851 -0.467607 0
M  V30 4167 O 406.674 1.58045 -0.732617 0
M  V30 4168 C 403.806 3.04388 -1.53496 0
M  V30 4169 H 404.999 1.55662 -2.56339 0
M  V30 4170 H 402.552 0.778973 -1.35505 0
M  V30 4171 H 403.287 3.19115 -0.577604 0
M  V30 4172 H 403.072 3.13783 -2.35123 0
M  V30 4173 H 404.562 3.83642 -1.6495 0
M  V30 4174 N 404.999 1.35443 0.805782 0
M  V30 4175 C 406.227 1.31878 1.59423 0
M  V30 4176 C 406.642 -0.103562 1.88516 0
M  V30 4177 O 405.999 -1.05575 1.48863 0
M  V30 4178 C 406.05 2.12426 2.92502 0
M  V30 4179 O 405.771 3.49115 2.6467 0
M  V30 4180 C 407.272 2.16455 3.86862 0
M  V30 4181 H 404.492 0.453002 0.495005 0
M  V30 4182 H 407.036 1.78309 1.00131 0
M  V30 4183 H 405.191 1.69593 3.48306 0
M  V30 4184 H 405.605 3.90957 3.49647 0
M  V30 4185 H 407.079 2.77204 4.77349 0
M  V30 4186 H 407.556 1.16352 4.23508 0
M  V30 4187 H 408.162 2.59453 3.36993 0
M  V30 4188 N 406.477 -1.02803 1.19454 0
M  V30 4189 C 407.726 -1.7562 0.991996 0
M  V30 4190 C 408.039 -1.89672 -0.477901 0
M  V30 4191 O 409.245 -2.59468 -0.799287 0
M  V30 4192 C 407.701 -3.15812 1.72601 0
M  V30 4193 C 407.309 -3.0981 3.23607 0
M  V30 4194 C 409.053 -3.92918 1.60674 0
M  V30 4195 C 406.96 -4.44939 3.89594 0
M  V30 4196 H 405.89 -0.658352 0.367543 0
M  V30 4197 H 408.541 -1.15044 1.42959 0
M  V30 4198 H 406.923 -3.7686 1.21624 0
M  V30 4199 H 408.097 -2.58138 3.81709 0
M  V30 4200 H 406.412 -2.46201 3.35819 0
M  V30 4201 H 409.009 -4.9287 2.07323 0
M  V30 4202 H 409.352 -4.12502 0.561025 0
M  V30 4203 H 409.885 -3.38472 2.09001 0
M  V30 4204 H 406.624 -4.30559 4.94267 0
M  V30 4205 H 406.144 -4.96664 3.36281 0
M  V30 4206 H 407.823 -5.1382 3.93189 0
M  V30 4207 N 407.956 -0.998596 -1.21925 0
M  V30 4208 C 409.202 -0.678667 -1.91107 0
M  V30 4209 C 409.535 0.78791 -1.77498 0
M  V30 4210 O 408.81 1.57043 -1.1475 0
M  V30 4211 C 409.093 -1.09245 -3.43129 0
M  V30 4212 C 408.946 -2.61801 -3.6576 0
M  V30 4213 C 410.265 -0.649984 -4.35274 0
M  V30 4214 H 407.384 -0.248025 -0.694012 0
M  V30 4215 H 410.026 -1.24314 -1.43688 0
M  V30 4216 H 408.176 -0.612171 -3.83647 0
M  V30 4217 H 409.848 -3.17543 -3.34611 0
M  V30 4218 H 408.091 -3.03609 -3.09845 0
M  V30 4219 H 408.762 -2.85804 -4.7225 0
M  V30 4220 H 411.238 -1.0626 -4.02303 0
M  V30 4221 H 410.114 -0.967743 -5.40302 0
M  V30 4222 H 410.375 0.449139 -4.39813 0
M  V30 4223 N 409.434 1.37368 -0.772513 0
M  V30 4224 C 410.364 2.32856 -0.173304 0
M  V30 4225 C 411.345 1.55818 0.682262 0
M  V30 4226 O 412.53 1.84052 0.619566 0
M  V30 4227 C 409.66 3.40048 0.706007 0
M  V30 4228 C 408.614 4.27973 -0.0483144 0
M  V30 4229 C 407.94 5.26184 0.950491 0
M  V30 4230 C 409.24 5.07665 -1.22776 0
M  V30 4231 H 410.934 2.83217 -0.971002 0
M  V30 4232 H 408.48 1.3617 -0.468377 0
M  V30 4233 H 410.433 4.05827 1.13501 0
M  V30 4234 H 409.157 2.88214 1.53623 0
M  V30 4235 H 407.816 3.63726 -0.458107 0
M  V30 4236 H 407.464 4.7063 1.77529 0
M  V30 4237 H 407.164 5.85872 0.450314 0
M  V30 4238 H 408.688 5.94838 1.37842 0
M  V30 4239 H 410.102 5.66578 -0.875366 0
M  V30 4240 H 408.499 5.76681 -1.66007 0
M  V30 4241 H 409.569 4.40294 -2.03149 0
M  V30 4242 N 410.912 0.523116 1.48665 0
M  V30 4243 C 412.323 0.0808997 1.86525 0
M  V30 4244 C 412.674 -1.33975 1.43336 0
M  V30 4245 O 411.799 -2.00221 0.821009 0
M  V30 4246 C 412.394 0.140037 3.3851 0
M  V30 4247 C 410.953 -0.246948 3.75589 0
M  V30 4248 C 410.1 0.502845 2.72703 0
M  V30 4249 H 413.051 0.734736 1.40667 0
M  V30 4250 H 413.072 -0.649945 3.74908 0
M  V30 4251 H 412.584 1.17412 3.69914 0
M  V30 4252 H 410.685 -1.28343 3.49798 0
M  V30 4253 H 410.798 0.0878859 4.79019 0
M  V30 4254 H 409.162 -0.0500581 2.54651 0
M  V30 4255 H 409.945 1.53743 3.0695 0
M  V30 4256 N 412.39 -1.55475 0.257931 0
M  V30 4257 C 413.62 -2.03314 -0.367026 0
M  V30 4258 C 414.028 -1.13625 -1.51281 0
M  V30 4259 O 413.371 -0.145334 -1.83124 0
M  V30 4260 C 413.433 -3.47362 -0.926284 0
M  V30 4261 C 413.097 -4.56914 0.0886584 0
M  V30 4262 C 414.094 -5.12013 0.902123 0
M  V30 4263 C 411.779 -5.01827 0.217936 0
M  V30 4264 C 413.773 -6.10529 1.83122 0
M  V30 4265 C 411.46 -6.00172 1.15052 0
M  V30 4266 C 412.458 -6.54402 1.95568 0
M  V30 4267 O 412.146 -7.50827 2.87253 0
M  V30 4268 H 411.878 -0.669976 -0.0900443 0
M  V30 4269 H 414.432 -2.01804 0.382673 0
M  V30 4270 H 412.662 -3.46056 -1.72575 0
M  V30 4271 H 414.351 -3.78637 -1.46249 0
M  V30 4272 H 415.117 -4.78139 0.812891 0
M  V30 4273 H 410.996 -4.59272 -0.398721 0
M  V30 4274 H 414.54 -6.52783 2.46008 0
M  V30 4275 H 410.437 -6.33465 1.24064 0
M  V30 4276 H 411.205 -7.68483 2.81739 0
M  V30 4277 N 413.868 0.0150385 -1.57593 0
M  V30 4278 C 415.114 0.704043 -1.90187 0
M  V30 4279 C 415.447 1.74249 -0.857366 0
M  V30 4280 O 414.722 1.94092 0.125843 0
M  V30 4281 C 415.005 1.36087 -3.33395 0
M  V30 4282 C 414.858 0.334981 -4.48551 0
M  V30 4283 C 416.177 2.29112 -3.7576 0
M  V30 4284 H 413.296 0.254475 -0.691673 0
M  V30 4285 H 415.938 -0.0331678 -1.89971 0
M  V30 4286 H 414.088 1.98922 -3.3371 0
M  V30 4287 H 415.76 -0.292534 -4.60372 0
M  V30 4288 H 414.003 -0.344325 -4.32431 0
M  V30 4289 H 414.674 0.833316 -5.45674 0
M  V30 4290 H 417.15 1.76308 -3.76902 0
M  V30 4291 H 416.026 2.72043 -4.76743 0
M  V30 4292 H 416.287 3.16385 -3.08793 0
M  V30 4293 N 415.346 1.54954 0.287554 0
M  V30 4294 C 416.294 1.87606 1.37502 0
M  V30 4295 C 417.288 0.751001 1.51843 0
M  V30 4296 O 418.494 0.935169 1.53801 0
M  V30 4297 H 414.869 0.595231 0.459569 0
M  V30 4298 H 416.84 2.78477 1.07206 0
M  V30 4299 C 415.589 2.15183 2.73115 0
M  V30 4300 H 414.912 3.01234 2.62866 0
M  V30 4301 H 416.352 2.4196 3.48183 0
M  V30 4302 C 414.811 0.954686 3.2309 0
M  V30 4303 O 415.341 0.181949 4.01288 0
M  V30 4304 N 413.547 0.756368 2.80584 0
M  V30 4305 H 413.094 1.38643 2.17108 0
M  V30 4306 H 413.052 -0.0430391 3.14371 0
M  V30 4307 N 416.824 -0.551391 1.4764 0
M  V30 4308 C 417.787 -1.64007 1.60107 0
M  V30 4309 C 418.787 -1.53601 0.47576 0
M  V30 4310 O 419.977 -1.57655 0.740988 0
M  V30 4311 C 417.109 -3.03569 1.55108 0
M  V30 4312 H 418.302 -1.543 2.57161 0
M  V30 4313 H 415.855 -0.771776 1.35917 0
M  V30 4314 H 416.59 -3.18804 0.594519 0
M  V30 4315 H 416.375 -3.12532 2.36783 0
M  V30 4316 H 417.865 -3.82762 1.66982 0
M  V30 4317 N 418.302 -1.35869 -0.798587 0
M  V30 4318 C 419.232 -1.32118 -1.92528 0
M  V30 4319 C 420.213 -0.194209 -1.68988 0
M  V30 4320 O 421.398 -0.390426 -1.90235 0
M  V30 4321 C 418.528 -1.10047 -3.29404 0
M  V30 4322 C 417.482 -2.19471 -3.67446 0
M  V30 4323 C 416.808 -1.82555 -5.02571 0
M  V30 4324 C 418.108 -3.61495 -3.76987 0
M  V30 4325 H 419.802 -2.26394 -1.95924 0
M  V30 4326 H 417.348 -1.08981 -0.94123 0
M  V30 4327 H 419.301 -1.06061 -4.07835 0
M  V30 4328 H 418.025 -0.122195 -3.26371 0
M  V30 4329 H 416.684 -2.22568 -2.91306 0
M  V30 4330 H 416.332 -0.833249 -4.9605 0
M  V30 4331 H 416.032 -2.5581 -5.28995 0
M  V30 4332 H 417.556 -1.80108 -5.83432 0
M  V30 4333 H 418.97 -3.60676 -4.4563 0
M  V30 4334 H 417.367 -4.33577 -4.14887 0
M  V30 4335 H 418.437 -3.97065 -2.78329 0
M  V30 4336 N 419.78 1.02168 -1.19998 0
M  V30 4337 C 420.743 2.08765 -0.94604 0
M  V30 4338 C 421.743 1.60618 0.0763846 0
M  V30 4339 O 422.933 1.73472 -0.159135 0
M  V30 4340 C 420.065 3.38262 -0.423255 0
M  V30 4341 H 421.258 2.32726 -1.89153 0
M  V30 4342 H 418.811 1.1889 -1.01464 0
M  V30 4343 H 419.546 3.19974 0.527938 0
M  V30 4344 H 419.331 3.74532 -1.16053 0
M  V30 4345 H 420.821 4.16759 -0.264911 0
M  V30 4346 N 421.258 1.00505 1.21394 0
M  V30 4347 C 422.507 0.683159 1.89778 0
M  V30 4348 C 422.82 -0.789471 1.7896 0
M  V30 4349 O 424.026 -1.22344 2.42372 0
M  V30 4350 C 422.482 1.17146 3.40301 0
M  V30 4351 C 422.09 2.67017 3.5973 0
M  V30 4352 C 423.834 0.924461 4.14311 0
M  V30 4353 C 421.741 3.09387 5.04017 0
M  V30 4354 H 420.671 0.25183 0.710702 0
M  V30 4355 H 423.322 1.21622 1.37406 0
M  V30 4356 H 421.704 0.566451 3.91928 0
M  V30 4357 H 422.878 3.32968 3.18542 0
M  V30 4358 H 421.193 2.89732 2.99073 0
M  V30 4359 H 423.79 1.21658 5.20676 0
M  V30 4360 H 424.133 -0.139286 4.16067 0
M  V30 4361 H 424.666 1.49226 3.6875 0
M  V30 4362 H 421.405 4.14989 5.07409 0
M  V30 4363 H 420.925 2.48149 5.46061 0
M  V30 4364 H 422.604 3.01371 5.72525 0
M  V30 4365 N 422.737 -1.36956 0.779787 0
M  V30 4366 C 424.014 -1.93697 0.272156 0
M  V30 4367 C 424.394 -1.71267 -1.23413 0
M  V30 4368 O 423.742 -1.06607 -2.02107 0
M  V30 4369 C 423.952 -3.42812 0.654291 0
M  V30 4370 C 425.3 -4.19921 0.628602 0
M  V30 4371 O 426.324 -3.51209 0.594172 0
M  V30 4372 O 425.183 -5.42465 0.662864 0
M  V30 4373 H 422.277 -0.824447 0.0649286 0
M  V30 4374 H 424.823 -1.46196 0.861682 0
M  V30 4375 H 423.595 -3.52754 1.69353 0
M  V30 4376 H 423.218 -3.97582 0.0381369 0
M  V30 4377 N 424.215 -0.530993 -1.48385 0
M  V30 4378 C 425.44 0.000729535 -2.074 0
M  V30 4379 C 425.865 1.27298 -1.3848 0
M  V30 4380 O 425.223 1.75599 -0.451081 0
M  V30 4381 C 425.271 0.206697 -3.60007 0
M  V30 4382 O 424.375 1.27514 -3.92191 0
M  V30 4383 H 423.716 -0.039583 -0.662819 0
M  V30 4384 H 426.246 -0.739194 -1.9078 0
M  V30 4385 H 426.256 0.42904 -4.05738 0
M  V30 4386 H 424.931 -0.722675 -4.09573 0
M  V30 4387 H 423.508 1.03537 -3.58238 0
M  V30 4388 N 425.693 1.55336 -0.266172 0
M  V30 4389 C 426.626 2.18256 0.666296 0
M  V30 4390 C 427.604 1.14064 1.1588 0
M  V30 4391 O 428.788 1.42546 1.23341 0
M  V30 4392 C 425.915 2.79867 1.90768 0
M  V30 4393 C 424.961 3.97283 1.55141 0
M  V30 4394 S 425.794 5.31694 0.637313 0
M  V30 4395 C 426.95 5.96769 1.88727 0
M  V30 4396 H 427.183 2.97008 0.131647 0
M  V30 4397 H 424.716 1.54317 -0.0504869 0
M  V30 4398 H 426.674 3.15996 2.62025 0
M  V30 4399 H 425.335 2.01025 2.41346 0
M  V30 4400 H 424.528 4.3905 2.4749 0
M  V30 4401 H 424.13 3.6253 0.919113 0
M  V30 4402 H 426.422 6.15458 2.83227 0
M  V30 4403 H 427.365 6.91752 1.51276 0
M  V30 4404 H 427.773 5.26034 2.04814 0
M  V30 4405 N 427.171 -0.0066808 1.57599 0
M  V30 4406 C 428.417 -0.693947 1.90558 0
M  V30 4407 C 428.75 -1.73792 0.866594 0
M  V30 4408 O 428.025 -1.94156 -0.115548 0
M  V30 4409 C 428.308 -1.34317 3.34112 0
M  V30 4410 C 428.161 -0.311189 4.48722 0
M  V30 4411 C 429.48 -2.27116 3.7697 0
M  V30 4412 H 426.599 -0.250803 0.693013 0
M  V30 4413 H 429.241 0.043242 1.89951 0
M  V30 4414 H 427.391 -1.9715 3.3476 0
M  V30 4415 H 429.063 0.316944 4.6021 0
M  V30 4416 H 427.306 0.367253 4.32243 0
M  V30 4417 H 427.977 -0.804366 5.46108 0
M  V30 4418 H 430.453 -1.74306 3.77831 0
M  V30 4419 H 429.329 -2.69511 4.78179 0
M  V30 4420 H 429.59 -3.14743 3.10466 0
M  V30 4421 N 428.649 -1.55105 -0.279332 0
M  V30 4422 C 429.596 -1.8755 -1.34513 0
M  V30 4423 C 430.566 -0.726384 -1.49375 0
M  V30 4424 O 431.751 -0.977063 -1.63884 0
M  V30 4425 C 428.891 -2.14738 -2.70151 0
M  V30 4426 C 428.004 -3.42285 -2.63562 0
M  V30 4427 C 427.139 -3.59206 -3.91337 0
M  V30 4428 C 426.178 -4.80467 -3.79233 0
M  V30 4429 N 425.315 -4.94079 -4.98829 0
M  V30 4430 H 430.155 -2.78456 -1.06143 0
M  V30 4431 H 427.692 -1.37867 -0.512936 0
M  V30 4432 H 429.65 -2.28501 -3.49061 0
M  V30 4433 H 428.28 -1.27075 -2.96735 0
M  V30 4434 H 427.332 -3.37029 -1.76397 0
M  V30 4435 H 428.644 -4.31328 -2.50515 0
M  V30 4436 H 427.798 -3.72751 -4.78687 0
M  V30 4437 H 426.537 -2.68337 -4.07243 0
M  V30 4438 H 425.542 -4.66932 -2.90266 0
M  V30 4439 H 426.767 -5.72765 -3.64852 0
M  V30 4440 H 424.713 -4.06139 -5.15158 0
M  V30 4441 H 424.63 -5.77156 -4.8829 0
M  V30 4442 H 425.898 -5.12003 -5.8777 0
M  V30 4443 N 430.127 0.543554 -1.4793 0
M  V30 4444 C 431.077 1.64527 -1.57844 0
M  V30 4445 C 432.061 1.54869 -0.436408 0
M  V30 4446 O 433.253 1.63119 -0.687101 0
M  V30 4447 C 430.382 3.03281 -1.6086 0
M  V30 4448 C 429.468 3.18093 -2.80495 0
M  V30 4449 N 429.859 3.02923 -4.05057 0
M  V30 4450 C 428.157 3.49121 -2.77543 0
M  V30 4451 C 428.858 3.20791 -4.85251 0
M  V30 4452 N 427.834 3.47749 -4.17818 0
M  V30 4453 H 431.636 1.51388 -2.5191 0
M  V30 4454 H 429.15 0.748671 -1.44113 0
M  V30 4455 H 431.147 3.82403 -1.66054 0
M  V30 4456 H 429.807 3.17521 -0.678996 0
M  V30 4457 H 430.818 2.79966 -4.35705 0
M  V30 4458 H 427.495 3.69804 -1.93781 0
M  V30 4459 H 428.885 3.13915 -5.9406 0
M  V30 4460 N 431.605 1.3629 0.791371 0
M  V30 4461 C 432.553 1.30514 1.92533 0
M  V30 4462 C 433.547 0.197285 1.68247 0
M  V30 4463 O 434.753 0.364176 1.76278 0
M  V30 4464 H 431.128 0.406263 0.632815 0
M  V30 4465 H 433.099 2.26282 1.94523 0
M  V30 4466 C 431.848 1.10933 3.29529 0
M  V30 4467 H 431.171 1.95427 3.48781 0
M  V30 4468 H 432.611 1.10937 4.0923 0
M  V30 4469 C 431.07 -0.186123 3.36385 0
M  V30 4470 O 431.6 -1.17664 3.84081 0
M  V30 4471 N 429.806 -0.230128 2.89687 0
M  V30 4472 H 429.353 0.576545 2.51065 0
M  V30 4473 H 429.311 -1.09658 2.94657 0
M  V30 4474 N 433.083 -1.0153 1.20538 0
M  V30 4475 C 434.031 -2.12215 0.952235 0
M  V30 4476 C 435.025 -1.69123 -0.0968735 0
M  V30 4477 O 436.231 -1.7992 0.0536006 0
M  V30 4478 H 432.606 -0.693576 0.290613 0
M  V30 4479 H 434.577 -2.3075 1.89201 0
M  V30 4480 C 433.326 -3.43755 0.522287 0
M  V30 4481 H 432.649 -3.7734 1.32115 0
M  V30 4482 H 434.089 -4.22254 0.384389 0
M  V30 4483 C 432.548 -3.28088 -0.765489 0
M  V30 4484 O 433.078 -3.57921 -1.8236 0
M  V30 4485 N 431.284 -2.81333 -0.728011 0
M  V30 4486 H 430.831 -2.57255 0.133332 0
M  V30 4487 H 430.789 -2.71232 -1.58999 0
M  V30 4488 N 434.561 -1.01147 -1.20859 0
M  V30 4489 C 435.807 -0.708598 -1.90658 0
M  V30 4490 C 436.162 0.753069 -1.7705 0
M  V30 4491 O 435.455 1.53952 -1.14059 0
M  V30 4492 C 435.649 -1.0727 -3.40922 0
M  V30 4493 C 435.478 -2.56821 -3.69152 0
M  V30 4494 C 434.248 -3.23524 -3.8815 0
M  V30 4495 C 436.446 -3.54997 -3.72131 0
M  V30 4496 N 434.428 -4.62359 -4.03853 0
M  V30 4497 C 435.799 -4.79371 -3.93196 0
M  V30 4498 C 437.854 -3.49042 -3.55069 0
M  V30 4499 C 436.557 -5.98512 -3.98969 0
M  V30 4500 C 438.583 -4.67579 -3.6211 0
M  V30 4501 C 437.945 -5.9076 -3.83643 0
M  V30 4502 H 434.044 -0.31088 -0.71755 0
M  V30 4503 H 436.628 -1.29526 -1.45366 0
M  V30 4504 H 434.799 -0.51443 -3.84978 0
M  V30 4505 H 436.531 -0.723891 -3.98173 0
M  V30 4506 H 433.286 -2.73958 -3.86321 0
M  V30 4507 H 433.71 -5.34427 -4.15592 0
M  V30 4508 H 438.352 -2.54808 -3.37391 0
M  V30 4509 H 436.07 -6.93132 -4.15444 0
M  V30 4510 H 439.656 -4.64581 -3.50222 0
M  V30 4511 H 438.536 -6.8095 -3.88944 0
M  V30 4512 N 436.039 1.36541 -0.78704 0
M  V30 4513 C 437.287 1.98911 -0.357633 0
M  V30 4514 C 437.608 1.62778 1.07371 0
M  V30 4515 O 436.878 0.900612 1.73971 0
M  V30 4516 H 435.458 0.735734 -0.129246 0
M  V30 4517 H 438.12 1.66776 -1.00855 0
M  V30 4518 H 437.216 3.08874 -0.447549 0
M  V30 4519 N 437.518 0.538854 1.48102 0
M  V30 4520 C 438.767 0.0059532 2.01699 0
M  V30 4521 C 439.08 -1.34476 1.42041 0
M  V30 4522 O 440.286 -1.96653 1.87189 0
M  V30 4523 C 438.742 -0.0397627 3.59878 0
M  V30 4524 C 438.35 1.30659 4.28523 0
M  V30 4525 C 440.094 -0.521024 4.2129 0
M  V30 4526 C 438.001 1.22098 5.78659 0
M  V30 4527 H 436.931 -0.00154456 0.753998 0
M  V30 4528 H 439.582 0.683963 1.70277 0
M  V30 4529 H 437.964 -0.783037 3.88181 0
M  V30 4530 H 439.138 2.06613 4.11883 0
M  V30 4531 H 437.453 1.7243 3.79021 0
M  V30 4532 H 440.05 -0.603184 5.31287 0
M  V30 4533 H 440.393 -1.52885 3.8721 0
M  V30 4534 H 440.926 0.166834 3.9745 0
M  V30 4535 H 437.665 2.20424 6.17328 0
M  V30 4536 H 437.185 0.50295 5.97688 0
M  V30 4537 H 438.864 0.915345 6.40492 0
M  V30 4538 N 438.996 -1.55193 0.274407 0
M  V30 4539 C 439.959 -2.212 -0.600279 0
M  V30 4540 C 440.959 -1.18963 -1.08187 0
M  V30 4541 O 442.149 -1.43873 -0.982158 0
M  V30 4542 C 439.281 -2.87739 -1.82809 0
M  V30 4543 H 440.474 -2.9989 -0.0239682 0
M  V30 4544 H 438.027 -1.5628 0.0250192 0
M  V30 4545 H 438.762 -2.13058 -2.44493 0
M  V30 4546 H 438.547 -3.62658 -1.49069 0
M  V30 4547 H 440.037 -3.38171 -2.45011 0
M  V30 4548 N 440.474 -0.00167713 -1.576 0
M  V30 4549 C 441.723 0.682021 -1.89819 0
M  V30 4550 C 442.036 1.74844 -0.876871 0
M  V30 4551 O 443.242 2.48688 -1.08934 0
M  V30 4552 C 441.698 1.26425 -3.36964 0
M  V30 4553 C 441.306 0.232568 -4.47396 0
M  V30 4554 C 443.05 1.92604 -3.78291 0
M  V30 4555 C 440.957 0.824882 -5.85619 0
M  V30 4556 H 439.887 0.258499 -0.708304 0
M  V30 4557 H 442.538 -0.0624957 -1.83394 0
M  V30 4558 H 440.92 2.05949 -3.38232 0
M  V30 4559 H 442.094 -0.5382 -4.57646 0
M  V30 4560 H 440.409 -0.32888 -4.15099 0
M  V30 4561 H 443.006 2.37827 -4.78897 0
M  V30 4562 H 443.349 2.75732 -3.11894 0
M  V30 4563 H 443.882 1.19812 -3.79328 0
M  V30 4564 H 440.621 0.0323542 -6.55492 0
M  V30 4565 H 440.141 1.56477 -5.79029 0
M  V30 4566 H 441.82 1.32301 -6.33329 0
M  V30 4567 N 441.952 1.55251 0.271103 0
M  V30 4568 C 442.882 1.9127 1.33933 0
M  V30 4569 C 443.863 0.77478 1.5143 0
M  V30 4570 O 445.048 1.03307 1.64442 0
M  V30 4571 C 442.178 2.18627 2.69851 0
M  V30 4572 C 441.132 3.34442 2.67081 0
M  V30 4573 C 440.458 3.47284 4.06569 0
M  V30 4574 C 441.758 4.70784 2.26185 0
M  V30 4575 H 443.452 2.80744 1.04035 0
M  V30 4576 H 440.998 1.35077 0.499017 0
M  V30 4577 H 442.951 2.42413 3.44694 0
M  V30 4578 H 441.675 1.25955 3.01335 0
M  V30 4579 H 440.334 3.10627 1.94695 0
M  V30 4580 H 439.982 2.52074 4.35279 0
M  V30 4581 H 439.682 4.25152 4.0561 0
M  V30 4582 H 441.206 3.73363 4.83148 0
M  V30 4583 H 442.62 4.94102 2.90751 0
M  V30 4584 H 441.017 5.51582 2.36384 0
M  V30 4585 H 442.087 4.69478 1.21319 0
M  V30 4586 N 443.43 -0.535701 1.48216 0
M  V30 4587 C 444.841 -1.11769 1.49548 0
M  V30 4588 C 445.192 -1.94442 0.26207 0
M  V30 4589 O 444.317 -2.06987 -0.631287 0
M  V30 4590 C 444.912 -2.03367 2.70975 0
M  V30 4591 C 443.471 -2.56795 2.75196 0
M  V30 4592 C 442.618 -1.33631 2.42977 0
M  V30 4593 H 445.569 -0.321232 1.55415 0
M  V30 4594 H 445.59 -2.87569 2.49167 0
M  V30 4595 H 445.102 -1.43169 3.60727 0
M  V30 4596 H 443.203 -3.20731 1.89638 0
M  V30 4597 H 443.316 -2.9632 3.76472 0
M  V30 4598 H 441.68 -1.6502 1.94012 0
M  V30 4599 H 442.463 -0.75194 3.34964 0
M  V30 4600 N 444.908 -1.36708 -0.784132 0
M  V30 4601 C 445.838 -1.34153 -1.91116 0
M  V30 4602 C 446.819 -0.212121 -1.68772 0
M  V30 4603 O 448.004 -0.410581 -1.8981 0
M  V30 4604 C 445.134 -1.13535 -3.28218 0
M  V30 4605 C 444.088 -2.23356 -3.65097 0
M  V30 4606 C 443.414 -1.87875 -5.00607 0
M  V30 4607 C 444.714 -3.65473 -3.73131 0
M  V30 4608 H 446.408 -2.28459 -1.93512 0
M  V30 4609 H 443.954 -1.09973 -0.929618 0
M  V30 4610 H 445.907 -1.10381 -4.06687 0
M  V30 4611 H 444.631 -0.156804 -3.26223 0
M  V30 4612 H 443.29 -2.25645 -2.88929 0
M  V30 4613 H 442.938 -0.885814 -4.95139 0
M  V30 4614 H 442.638 -2.61406 -5.26252 0
M  V30 4615 H 444.162 -1.86286 -5.81489 0
M  V30 4616 H 445.576 -3.65382 -4.41779 0
M  V30 4617 H 443.973 -4.37953 -4.10265 0
M  V30 4618 H 445.043 -3.99995 -2.74102 0
M  V30 4619 N 446.386 1.0089 -1.21074 0
M  V30 4620 C 447.611 1.78727 -1.05221 0
M  V30 4621 C 448.036 1.83932 0.393795 0
M  V30 4622 O 447.394 1.28004 1.28393 0
M  V30 4623 C 447.442 3.20665 -1.64944 0
M  V30 4624 O 446.546 4.02632 -0.892273 0
M  V30 4625 H 445.887 0.550973 -0.370574 0
M  V30 4626 H 448.417 1.26847 -1.60534 0
M  V30 4627 H 448.427 3.71352 -1.69002 0
M  V30 4628 H 447.102 3.16191 -2.70177 0
M  V30 4629 H 445.679 3.61207 -0.926492 0
M  V30 4630 N 447.864 1.01787 1.20321 0
M  V30 4631 C 449.275 0.739307 1.71438 0
M  V30 4632 C 449.626 -0.742041 1.81627 0
M  V30 4633 O 448.751 -1.57903 1.47971 0
M  V30 4634 C 449.346 1.33538 3.11373 0
M  V30 4635 C 447.905 1.10566 3.59795 0
M  V30 4636 C 447.052 1.44028 2.36962 0
M  V30 4637 H 450.003 1.18718 1.05317 0
M  V30 4638 H 450.024 0.726611 3.73498 0
M  V30 4639 H 449.536 2.41352 3.03926 0
M  V30 4640 H 447.637 0.0452405 3.72573 0
M  V30 4641 H 447.75 1.78661 4.44542 0
M  V30 4642 H 446.114 0.85933 2.39766 0
M  V30 4643 H 446.897 2.52901 2.32155 0
M  V30 4644 N 449.342 -1.36122 0.79427 0
M  V30 4645 C 450.272 -2.32551 0.210328 0
M  V30 4646 C 451.253 -1.56884 -0.657386 0
M  V30 4647 O 452.438 -1.85014 -0.590207 0
M  V30 4648 C 449.568 -3.41128 -0.651819 0
M  V30 4649 C 448.522 -4.27842 0.116395 0
M  V30 4650 C 447.848 -5.2763 -0.86666 0
M  V30 4651 C 449.148 -5.05647 1.30837 0
M  V30 4652 H 450.842 -2.81636 1.01594 0
M  V30 4653 H 448.388 -1.35407 0.489981 0
M  V30 4654 H 450.341 -4.07581 -1.07031 0
M  V30 4655 H 449.065 -2.90622 -1.49019 0
M  V30 4656 H 447.724 -3.62952 0.515915 0
M  V30 4657 H 447.372 -4.73395 -1.70019 0
M  V30 4658 H 447.072 -5.86514 -0.35705 0
M  V30 4659 H 448.596 -5.96955 -1.28361 0
M  V30 4660 H 450.01 -5.65113 0.965393 0
M  V30 4661 H 448.407 -5.73967 1.75161 0
M  V30 4662 H 449.477 -4.37006 2.10128 0
M  V30 4663 N 450.82 -0.546701 -1.47814 0
M  V30 4664 C 452.097 0.0464413 -1.95545 0
M  V30 4665 C 452.477 1.4962 -1.48919 0
M  V30 4666 O 451.825 2.16752 -0.723232 0
M  V30 4667 C 452.035 -0.0881298 -3.48889 0
M  V30 4668 C 453.383 0.0626059 -4.24554 0
M  V30 4669 O 454.407 -0.0151555 -3.56197 0
M  V30 4670 O 453.266 0.228071 -5.46024 0
M  V30 4671 H 450.36 0.0700004 -0.824032 0
M  V30 4672 H 452.906 -0.612482 -1.58262 0
M  V30 4673 H 451.678 -1.09737 -3.75597 0
M  V30 4674 H 451.301 0.608886 -3.9291 0
M  V30 4675 N 452.299 1.55045 -0.282633 0
M  V30 4676 C 453.546 1.9976 0.33199 0
M  V30 4677 C 453.874 1.17105 1.55295 0
M  V30 4678 O 453.129 0.230599 1.94337 0
M  V30 4679 C 453.428 3.49422 0.750938 0
M  V30 4680 C 453.094 4.4941 -0.366228 0
M  V30 4681 C 451.756 4.76471 -0.672964 0
M  V30 4682 C 454.108 5.09054 -1.11864 0
M  V30 4683 C 451.436 5.60442 -1.73556 0
M  V30 4684 C 453.788 5.9418 -2.17102 0
M  V30 4685 C 452.452 6.19558 -2.48402 0
M  V30 4686 H 451.722 0.730974 0.121484 0
M  V30 4687 H 454.369 1.8732 -0.39791 0
M  V30 4688 H 452.674 3.59377 1.56063 0
M  V30 4689 H 454.371 3.81432 1.23736 0
M  V30 4690 H 450.961 4.2844 -0.117041 0
M  V30 4691 H 455.145 4.88165 -0.894925 0
M  V30 4692 H 450.401 5.78349 -1.983 0
M  V30 4693 H 454.575 6.39427 -2.75873 0
M  V30 4694 H 452.202 6.84417 -3.30874 0
M  V30 4695 N 453.777 0.010035 1.57597 0
M  V30 4696 C 454.74 -0.963029 2.07986 0
M  V30 4697 C 455.74 -1.26619 0.991173 0
M  V30 4698 O 456.93 -1.2097 1.25347 0
M  V30 4699 C 454.062 -2.2851 2.52974 0
M  V30 4700 H 455.255 -0.526971 2.95234 0
M  V30 4701 H 452.808 -0.237639 1.54483 0
M  V30 4702 H 453.543 -2.76784 1.69 0
M  V30 4703 H 453.328 -2.07824 3.32493 0
M  V30 4704 H 454.818 -2.98294 2.9225 0
M  V30 4705 N 455.255 -1.55392 -0.262866 0
M  V30 4706 C 456.187 -1.85392 -1.34768 0
M  V30 4707 C 457.2 -0.739069 -1.45057 0
M  V30 4708 O 458.389 -1.01703 -1.46693 0
M  V30 4709 C 455.489 -2.01088 -2.72795 0
M  V30 4710 C 454.662 -3.31828 -2.84972 0
M  V30 4711 C 453.721 -3.37464 -4.03738 0
M  V30 4712 O 452.747 -4.10778 -3.94018 0
M  V30 4713 N 453.949 -2.65599 -5.16176 0
M  V30 4714 H 456.714 -2.79029 -1.09375 0
M  V30 4715 H 454.275 -1.55434 -0.452981 0
M  V30 4716 H 456.267 -2.02217 -3.50557 0
M  V30 4717 H 454.837 -1.1427 -2.90966 0
M  V30 4718 H 454.057 -3.43152 -1.94012 0
M  V30 4719 H 455.345 -4.18032 -2.90045 0
M  V30 4720 H 454.743 -2.05736 -5.26962 0
M  V30 4721 H 453.3 -2.72439 -5.92132 0
M  V30 4722 N 456.733 0.527833 -1.48498 0
M  V30 4723 C 458.01 1.28905 -1.47115 0
M  V30 4724 C 458.39 2.10297 -0.184007 0
M  V30 4725 O 457.738 2.12728 0.834218 0
M  V30 4726 C 457.948 2.16866 -2.73441 0
M  V30 4727 C 459.296 2.76936 -3.21857 0
M  V30 4728 O 460.32 2.27152 -2.74373 0
M  V30 4729 O 459.179 3.67496 -4.04486 0
M  V30 4730 H 456.273 0.581918 -0.587623 0
M  V30 4731 H 458.819 0.544311 -1.60734 0
M  V30 4732 H 457.591 1.56521 -3.58632 0
M  V30 4733 H 457.214 2.98583 -2.62553 0
M  V30 4734 N 458.211 1.37122 0.776871 0
M  V30 4735 C 459.436 1.354 1.57104 0
M  V30 4736 C 459.861 -0.0595562 1.88006 0
M  V30 4737 O 459.219 -1.03514 1.48844 0
M  V30 4738 C 459.267 2.19472 2.8612 0
M  V30 4739 O 458.371 1.59582 3.80273 0
M  V30 4740 H 457.712 0.462869 0.476076 0
M  V30 4741 H 460.242 1.80577 0.961932 0
M  V30 4742 H 460.252 2.32502 3.35271 0
M  V30 4743 H 458.927 3.22222 2.62956 0
M  V30 4744 H 457.504 1.55564 3.38902 0
M  V30 4745 N 459.689 -1.00246 1.21608 0
M  V30 4746 C 460.914 -1.78167 1.06167 0
M  V30 4747 C 461.339 -1.84138 -0.384035 0
M  V30 4748 O 460.697 -1.28683 -1.27712 0
M  V30 4749 C 460.745 -3.19786 1.66642 0
M  V30 4750 O 459.849 -4.02153 0.913613 0
M  V30 4751 H 459.19 -0.549 0.37349 0
M  V30 4752 H 461.72 -1.25994 1.61204 0
M  V30 4753 H 461.73 -3.70451 1.70969 0
M  V30 4754 H 460.405 -3.14754 2.7185 0
M  V30 4755 H 458.982 -3.60711 0.945635 0
M  V30 4756 N 461.167 -1.02423 -1.1978 0
M  V30 4757 C 462.413 -0.719051 -1.89625 0
M  V30 4758 C 462.746 0.750083 -1.7913 0
M  V30 4759 O 462.021 1.54574 -1.18056 0
M  V30 4760 C 462.304 -1.16499 -3.40735 0
M  V30 4761 C 462.157 -2.695 -3.60125 0
M  V30 4762 C 463.476 -0.742166 -4.33797 0
M  V30 4763 H 460.595 -0.26269 -0.688595 0
M  V30 4764 H 463.237 -1.27333 -1.41018 0
M  V30 4765 H 461.387 -0.69341 -3.82262 0
M  V30 4766 H 463.059 -3.24569 -3.278 0
M  V30 4767 H 461.302 -3.10113 -3.03336 0
M  V30 4768 H 461.973 -2.95757 -4.66081 0
M  V30 4769 H 464.449 -1.1477 -3.99959 0
M  V30 4770 H 463.325 -1.08213 -5.38127 0
M  V30 4771 H 463.586 0.355747 -4.40666 0
M  V30 4772 N 462.645 1.35699 -0.801477 0
M  V30 4773 C 463.555 2.33661 -0.209691 0
M  V30 4774 C 464.571 1.6162 0.644591 0
M  V30 4775 O 465.747 1.93529 0.557545 0
M  V30 4776 C 462.812 3.40816 0.636033 0
M  V30 4777 C 461.873 4.28639 -0.238147 0
M  V30 4778 C 461.106 5.30676 0.567307 0
M  V30 4779 O 461.329 5.41174 1.8024 0
M  V30 4780 O 460.263 6.01887 -0.0391336 0
M  V30 4781 H 464.089 2.8606 -1.01996 0
M  V30 4782 H 461.674 1.38379 -0.563164 0
M  V30 4783 H 463.556 4.06301 1.11791 0
M  V30 4784 H 462.231 2.90696 1.42399 0
M  V30 4785 H 461.138 3.66152 -0.767044 0
M  V30 4786 H 462.471 4.82143 -0.989915 0
M  V30 4787 N 464.123 0.554532 1.47522 0
M  V30 4788 C 465.372 0.0273458 2.01681 0
M  V30 4789 C 465.685 -1.32962 1.43459 0
M  V30 4790 O 466.891 -1.94657 1.89265 0
M  V30 4791 C 465.347 -0.00159057 3.599 0
M  V30 4792 C 464.955 1.35197 4.27113 0
M  V30 4793 C 466.699 -0.476311 4.21819 0
M  V30 4794 C 464.606 1.28229 5.77331 0
M  V30 4795 H 463.536 0.00645269 0.753972 0
M  V30 4796 H 466.187 0.701985 1.69542 0
M  V30 4797 H 464.569 -0.741821 3.8899 0
M  V30 4798 H 465.743 2.1097 4.09668 0
M  V30 4799 H 464.058 1.76441 3.77171 0
M  V30 4800 H 466.655 -0.5468 5.31897 0
M  V30 4801 H 466.998 -1.4877 3.8881 0
M  V30 4802 H 467.531 0.20898 3.97251 0
M  V30 4803 H 464.27 2.26959 6.14955 0
M  V30 4804 H 463.79 0.566314 5.97121 0
M  V30 4805 H 465.469 0.983226 6.39485 0
M  V30 4806 N 465.601 -1.54893 0.290851 0
M  V30 4807 C 467.012 -1.85584 -0.203816 0
M  V30 4808 C 467.363 -1.21285 -1.54222 0
M  V30 4809 O 466.488 -0.506841 -2.10381 0
M  V30 4810 C 467.083 -3.367 -0.376595 0
M  V30 4811 C 465.642 -3.6746 -0.815485 0
M  V30 4812 C 464.789 -2.77178 0.0821087 0
M  V30 4813 H 467.74 -1.50208 0.512175 0
M  V30 4814 H 467.761 -3.60656 -1.21275 0
M  V30 4815 H 467.273 -3.8347 0.59767 0
M  V30 4816 H 465.374 -3.26201 -1.80066 0
M  V30 4817 H 465.487 -4.7478 -0.641905 0
M  V30 4818 H 463.851 -2.50925 -0.436895 0
M  V30 4819 H 464.634 -3.26767 1.05254 0
M  V30 4820 N 467.08 -0.0183926 -1.57589 0
M  V30 4821 C 468.329 0.66185 -1.90532 0
M  V30 4822 C 468.642 1.73904 -0.895366 0
M  V30 4823 O 469.848 2.47518 -1.11566 0
M  V30 4824 C 468.304 1.22844 -3.38286 0
M  V30 4825 C 467.912 0.185103 -4.47617 0
M  V30 4826 C 469.656 1.88581 -3.80312 0
M  V30 4827 C 467.563 0.762723 -5.86461 0
M  V30 4828 H 466.493 0.250972 -0.711006 0
M  V30 4829 H 469.144 -0.0819435 -1.83317 0
M  V30 4830 H 467.526 2.0235 -3.40398 0
M  V30 4831 H 468.7 -0.58671 -4.5705 0
M  V30 4832 H 467.015 -0.372889 -4.14727 0
M  V30 4833 H 469.612 2.32735 -4.81392 0
M  V30 4834 H 469.955 2.72408 -3.14801 0
M  V30 4835 H 470.488 1.15782 -3.80578 0
M  V30 4836 H 467.227 -0.0371713 -6.55489 0
M  V30 4837 H 466.747 1.50327 -5.80656 0
M  V30 4838 H 468.426 1.25576 -6.34697 0
M  V30 4839 N 468.558 1.5553 0.254621 0
M  V30 4840 C 469.786 1.81046 1.00149 0
M  V30 4841 C 470.201 0.593047 1.79244 0
M  V30 4842 O 469.558 -0.438196 1.77161 0
M  V30 4843 C 469.609 3.04684 1.94551 0
M  V30 4844 O 469.33 4.21725 1.18658 0
M  V30 4845 C 470.831 3.42943 2.80901 0
M  V30 4846 H 468.051 0.602653 0.295044 0
M  V30 4847 H 470.595 2.02576 0.279842 0
M  V30 4848 H 468.75 2.85226 2.62154 0
M  V30 4849 H 469.164 4.91746 1.82445 0
M  V30 4850 H 470.638 4.32576 3.42902 0
M  V30 4851 H 471.115 2.63176 3.51617 0
M  V30 4852 H 471.721 3.64724 2.18762 0
M  V30 4853 N 470.036 -0.519951 1.48776 0
M  V30 4854 C 471.282 -1.27711 1.57536 0
M  V30 4855 C 471.615 -1.92547 0.252866 0
M  V30 4856 O 470.89 -1.7979 -0.742021 0
M  V30 4857 C 471.173 -2.35875 2.72094 0
M  V30 4858 C 471.026 -1.75664 4.1408 0
M  V30 4859 C 472.345 -3.37575 2.82367 0
M  V30 4860 H 469.464 -0.462971 0.573434 0
M  V30 4861 H 472.106 -0.578194 1.80989 0
M  V30 4862 H 470.256 -2.95488 2.52228 0
M  V30 4863 H 471.928 -1.20025 4.45412 0
M  V30 4864 H 470.171 -1.06154 4.20611 0
M  V30 4865 H 470.842 -2.54029 4.90075 0
M  V30 4866 H 473.318 -2.87929 3.00393 0
M  V30 4867 H 472.194 -4.1064 3.64233 0
M  V30 4868 H 472.455 -3.98743 1.90936 0
M  V30 4869 N 471.514 -1.37532 -0.769588 0
M  V30 4870 C 472.742 -1.36059 -1.55871 0
M  V30 4871 C 473.157 0.053544 -1.88724 0
M  V30 4872 O 472.514 1.01591 -1.5161 0
M  V30 4873 C 472.565 -2.20107 -2.86767 0
M  V30 4874 O 472.286 -3.56009 -2.55321 0
M  V30 4875 C 473.787 -2.26636 -3.80987 0
M  V30 4876 H 471.007 -0.465967 -0.482821 0
M  V30 4877 H 473.551 -1.80901 -0.953686 0
M  V30 4878 H 471.706 -1.78768 -3.43687 0
M  V30 4879 H 472.12 -4.0009 -3.39158 0
M  V30 4880 H 473.594 -2.89763 -4.69831 0
M  V30 4881 H 474.071 -1.2754 -4.20274 0
M  V30 4882 H 474.677 -2.68296 -3.29996 0
M  V30 4883 N 472.992 0.995999 -1.22138 0
M  V30 4884 C 474.241 1.72928 -1.03821 0
M  V30 4885 C 474.554 1.90872 0.427444 0
M  V30 4886 O 475.76 2.61496 0.730212 0
M  V30 4887 C 474.216 3.11124 -1.80913 0
M  V30 4888 C 473.824 3.01122 -3.31707 0
M  V30 4889 C 475.568 3.8852 -1.71035 0
M  V30 4890 C 473.475 4.34453 -4.01253 0
M  V30 4891 H 472.405 0.648376 -0.384869 0
M  V30 4892 H 475.056 1.11213 -1.45959 0
M  V30 4893 H 473.438 3.73503 -1.31573 0
M  V30 4894 H 474.612 2.47926 -3.88419 0
M  V30 4895 H 472.927 2.3721 -3.42228 0
M  V30 4896 H 475.524 4.872 -2.20318 0
M  V30 4897 H 475.867 4.1087 -0.670196 0
M  V30 4898 H 476.4 3.32812 -2.17902 0
M  V30 4899 H 473.139 4.17303 -5.05508 0
M  V30 4900 H 472.659 4.87574 -3.49331 0
M  V30 4901 H 474.338 5.03215 -4.06674 0
M  V30 4902 N 474.47 1.03057 1.19235 0
M  V30 4903 C 475.433 0.617418 2.20727 0
M  V30 4904 C 476.433 -0.319856 1.57587 0
M  V30 4905 O 477.623 -0.106633 1.73873 0
M  V30 4906 C 474.755 -0.096296 3.40764 0
M  V30 4907 H 475.948 1.51544 2.58794 0
M  V30 4908 H 473.501 0.821949 1.32942 0
M  V30 4909 H 474.236 -1.00859 3.08217 0
M  V30 4910 H 474.021 0.577217 3.87828 0
M  V30 4911 H 475.511 -0.372219 4.15938 0
M  V30 4912 N 475.948 -1.35272 0.808662 0
M  V30 4913 C 477.359 -1.81179 0.450688 0
M  V30 4914 C 477.71 -1.67143 -1.02751 0
M  V30 4915 O 476.835 -1.20325 -1.79864 0
M  V30 4916 C 477.43 -3.28943 0.811275 0
M  V30 4917 C 475.989 -3.72985 0.505871 0
M  V30 4918 C 475.136 -2.57229 1.03578 0
M  V30 4919 H 478.087 -1.2322 1.00012 0
M  V30 4920 H 478.108 -3.80342 0.109588 0
M  V30 4921 H 477.62 -3.39127 1.88718 0
M  V30 4922 H 475.721 -3.68349 -0.561209 0
M  V30 4923 H 475.834 -4.67677 1.03995 0
M  V30 4924 H 474.198 -2.50548 0.458005 0
M  V30 4925 H 474.981 -2.7019 2.11784 0
M  V30 4926 N 477.426 -0.562348 -1.47226 0
M  V30 4927 C 478.359 0.230405 -2.27034 0
M  V30 4928 C 479.337 0.915609 -1.3437 0
M  V30 4929 O 480.521 0.933573 -1.63758 0
M  V30 4930 C 477.648 1.32874 -3.11548 0
M  V30 4931 C 476.694 0.751552 -4.19826 0
M  V30 4932 S 477.527 -0.405848 -5.3396 0
M  V30 4933 C 478.683 0.694186 -6.22038 0
M  V30 4934 H 478.916 -0.446811 -2.93923 0
M  V30 4935 H 476.449 -0.348781 -1.50409 0
M  V30 4936 H 478.407 1.95773 -3.60809 0
M  V30 4937 H 477.068 1.97782 -2.44011 0
M  V30 4938 H 476.261 1.57651 -4.78709 0
M  V30 4939 H 475.863 0.198645 -3.73472 0
M  V30 4940 H 478.155 1.58501 -6.58698 0
M  V30 4941 H 479.098 0.142592 -7.07956 0
M  V30 4942 H 479.506 0.989169 -5.55766 0
M  V30 4943 N 478.904 1.54736 -0.299062 0
M  V30 4944 C 480.144 2.0201 0.31168 0
M  V30 4945 C 480.508 1.18281 1.5124 0
M  V30 4946 O 481.709 1.55243 2.19438 0
M  V30 4947 C 479.98 3.5123 0.661227 0
M  V30 4948 S 481.539 4.20467 1.2551 0
M  V30 4949 H 478.357 0.704523 0.0957517 0
M  V30 4950 H 480.959 1.90791 -0.426482 0
M  V30 4951 H 479.663 4.09804 -0.221171 0
M  V30 4952 H 479.194 3.66481 1.43023 0
M  V30 4953 H 481.209 4.26083 2.54298 0
M  V30 4954 N 480.382 0.0267497 1.57577 0
M  V30 4955 C 481.607 -0.666227 1.96408 0
M  V30 4956 C 482.032 -1.65004 0.903071 0
M  V30 4957 O 481.39 -1.80787 -0.136263 0
M  V30 4958 C 481.438 -1.35101 3.34335 0
M  V30 4959 O 480.542 -2.46623 3.30531 0
M  V30 4960 H 479.883 -0.175206 0.640468 0
M  V30 4961 H 482.413 0.0878977 2.04411 0
M  V30 4962 H 482.423 -1.70834 3.70513 0
M  V30 4963 H 481.098 -0.629844 4.11103 0
M  V30 4964 H 479.675 -2.13019 3.06068 0
M  V30 4965 N 481.861 -1.55662 -0.24637 0
M  V30 4966 C 482.771 -1.93495 -1.32653 0
M  V30 4967 C 483.787 -0.835462 -1.5263 0
M  V30 4968 O 484.963 -1.1369 -1.66242 0
M  V30 4969 C 482.028 -2.22242 -2.66101 0
M  V30 4970 C 481.089 -3.45625 -2.54641 0
M  V30 4971 C 480.322 -3.72991 -3.81724 0
M  V30 4972 O 480.545 -3.02421 -4.8363 0
M  V30 4973 O 479.479 -4.66515 -3.80325 0
M  V30 4974 H 483.305 -2.85498 -1.03559 0
M  V30 4975 H 480.89 -1.42551 -0.44717 0
M  V30 4976 H 482.772 -2.42037 -3.44958 0
M  V30 4977 H 481.447 -1.33417 -2.94926 0
M  V30 4978 H 480.354 -3.31136 -1.74067 0
M  V30 4979 H 481.687 -4.34754 -2.3076 0
M  V30 4980 N 483.339 0.512053 -1.4905 0
M  V30 4981 C 484.586 1.26686 -1.57978 0
M  V30 4982 C 484.914 1.92733 -0.261553 0
M  V30 4983 O 484.169 1.80772 0.749667 0
M  V30 4984 C 484.468 2.36446 -2.68008 0
M  V30 4985 C 484.134 1.87932 -4.09869 0
M  V30 4986 C 482.796 1.74419 -4.48477 0
M  V30 4987 C 485.148 1.5149 -4.98698 0
M  V30 4988 C 482.476 1.22827 -5.73699 0
M  V30 4989 C 484.828 1.01355 -6.24428 0
M  V30 4990 C 483.492 0.864735 -6.61875 0
M  V30 4991 H 482.762 0.463577 -0.578081 0
M  V30 4992 H 485.409 0.569421 -1.82838 0
M  V30 4993 H 483.714 3.11933 -2.37076 0
M  V30 4994 H 485.411 2.9453 -2.72127 0
M  V30 4995 H 482.001 1.99405 -3.79389 0
M  V30 4996 H 486.185 1.60782 -4.69535 0
M  V30 4997 H 481.441 1.10008 -6.01422 0
M  V30 4998 H 485.615 0.722351 -6.92644 0
M  V30 4999 H 483.242 0.462777 -7.5879 0
M  V30 5000 N 484.817 1.37938 0.762283 0
M  V30 5001 C 485.765 1.34569 1.89721 0
M  V30 5002 C 486.759 0.232929 1.67791 0
M  V30 5003 O 487.965 0.401485 1.75465 0
M  V30 5004 H 484.34 0.419594 0.624055 0
M  V30 5005 H 486.311 2.30357 1.8968 0
M  V30 5006 C 485.06 1.17898 3.27101 0
M  V30 5007 H 484.383 2.02781 3.44558 0
M  V30 5008 H 485.823 1.19593 4.06784 0
M  V30 5009 C 484.282 -0.114728 3.36705 0
M  V30 5010 O 484.812 -1.0949 3.8649 0
M  V30 5011 N 483.018 -0.16863 2.9011 0
M  V30 5012 H 482.565 0.62967 2.49786 0
M  V30 5013 H 482.523 -1.03383 2.96916 0
M  V30 5014 N 486.295 -0.989507 1.22664 0
M  V30 5015 C 487.543 -1.72612 1.05117 0
M  V30 5016 C 487.864 -1.90552 -0.414131 0
M  V30 5017 O 487.134 -1.4676 -1.29762 0
M  V30 5018 H 485.714 -0.639555 0.385977 0
M  V30 5019 H 488.376 -1.19158 1.54232 0
M  V30 5020 H 487.472 -2.71926 1.53175 0
M  V30 5021 N 487.773 -1.03688 -1.18687 0
M  V30 5022 C 488.703 -0.645407 -2.24403 0
M  V30 5023 C 489.684 0.349511 -1.66471 0
M  V30 5024 O 490.869 0.230453 -1.92828 0
M  V30 5025 C 487.999 -0.00365337 -3.473 0
M  V30 5026 C 486.953 -0.921705 -4.17958 0
M  V30 5027 C 486.279 -0.144629 -5.34504 0
M  V30 5028 C 487.579 -2.23909 -4.71871 0
M  V30 5029 H 489.273 -1.52917 -2.57404 0
M  V30 5030 H 486.819 -0.736711 -1.23728 0
M  V30 5031 H 488.772 0.281908 -4.20456 0
M  V30 5032 H 487.496 0.914963 -3.13522 0
M  V30 5033 H 486.155 -1.19159 -3.46694 0
M  V30 5034 H 485.803 0.776274 -4.96974 0
M  V30 5035 H 485.503 -0.756206 -5.82714 0
M  V30 5036 H 487.027 0.134004 -6.10453 0
M  V30 5037 H 488.441 -2.0145 -5.36741 0
M  V30 5038 H 486.838 -2.8033 -5.30599 0
M  V30 5039 H 487.908 -2.88822 -3.895 0
M  V30 5040 N 489.251 1.34841 -0.815825 0
M  V30 5041 C 490.667 1.51543 -0.500697 0
M  V30 5042 C 490.867 1.76261 0.976444 0
M  V30 5043 O 489.923 1.8094 1.76117 0
M  V30 5044 C 491.236 2.68487 -1.35407 0
M  V30 5045 C 492.784 2.82368 -1.35046 0
M  V30 5046 C 493.259 4.02347 -2.18816 0
M  V30 5047 N 494.75 4.09542 -2.16402 0
M  V30 5048 C 495.485 5.01517 -2.77971 0
M  V30 5049 N 494.981 5.98763 -3.48503 0
M  V30 5050 N 496.774 4.94334 -2.67563 0
M  V30 5051 H 488.925 1.17055 -1.77234 0
M  V30 5052 H 491.188 0.573481 -0.754866 0
M  V30 5053 H 490.894 2.56829 -2.40274 0
M  V30 5054 H 490.768 3.63321 -1.01377 0
M  V30 5055 H 493.155 2.93471 -0.309604 0
M  V30 5056 H 493.236 1.88363 -1.73069 0
M  V30 5057 H 492.88 3.92004 -3.22948 0
M  V30 5058 H 492.81 4.95551 -1.78148 0
M  V30 5059 H 495.301 3.39932 -1.65091 0
M  V30 5060 H 495.614 6.6556 -3.92747 0
M  V30 5061 H 493.959 5.98909 -3.52609 0
M  V30 5062 H 497.15 4.1732 -2.12041 0
M  V30 5063 H 497.323 5.6582 -3.15834 0
M  V30 5064 N 490.729 0.570148 1.46925 0
M  V30 5065 C 491.677 -0.183181 2.31878 0
M  V30 5066 C 492.671 -0.896721 1.43719 0
M  V30 5067 O 493.877 -0.816536 1.60414 0
M  V30 5068 H 490.252 -0.077944 0.74795 0
M  V30 5069 H 492.223 0.552312 2.93244 0
M  V30 5070 C 490.972 -1.19172 3.2664 0
M  V30 5071 H 490.295 -0.652088 3.94446 0
M  V30 5072 H 491.735 -1.68946 3.88887 0
M  V30 5073 C 490.194 -2.24627 2.51086 0
M  V30 5074 O 490.724 -3.31773 2.26472 0
M  V30 5075 N 488.93 -1.98898 2.11867 0
M  V30 5076 H 488.477 -1.11777 2.32086 0
M  V30 5077 H 488.435 -2.6967 1.61634 0
M  V30 5078 N 492.207 -1.54576 0.307264 0
M  V30 5079 C 493.453 -2.0056 -0.300612 0
M  V30 5080 C 493.786 -1.1953 -1.53057 0
M  V30 5081 O 493.061 -0.27337 -1.92569 0
M  V30 5082 C 493.344 -3.54167 -0.650987 0
M  V30 5083 C 493.197 -4.45933 0.588539 0
M  V30 5084 C 494.516 -4.14645 -1.47506 0
M  V30 5085 H 491.635 -0.729075 -0.107788 0
M  V30 5086 H 494.277 -1.85286 0.420606 0
M  V30 5087 H 492.427 -3.67313 -1.26544 0
M  V30 5088 H 494.099 -4.44683 1.22697 0
M  V30 5089 H 492.342 -4.16274 1.22058 0
M  V30 5090 H 493.013 -5.51189 0.299153 0
M  V30 5091 H 495.489 -4.04973 -0.955821 0
M  V30 5092 H 494.365 -5.22269 -1.68899 0
M  V30 5093 H 494.626 -3.66921 -2.4662 0
M  V30 5094 N 493.685 -0.035106 -1.57561 0
M  V30 5095 C 494.913 0.652258 -1.9635 0
M  V30 5096 C 495.328 1.65317 -0.911897 0
M  V30 5097 O 494.685 1.82194 0.105657 0
M  V30 5098 C 494.736 1.35337 -3.35211 0
M  V30 5099 O 494.457 0.392548 -4.36338 0
M  V30 5100 C 495.958 2.13199 -3.88666 0
M  V30 5101 H 493.178 0.179444 -0.646561 0
M  V30 5102 H 495.722 -0.0966459 -2.04271 0
M  V30 5103 H 493.877 2.05362 -3.28489 0
M  V30 5104 H 494.291 0.891097 -5.16875 0
M  V30 5105 H 495.765 2.577 -4.88154 0
M  V30 5106 H 496.242 2.97353 -3.23231 0
M  V30 5107 H 496.848 1.48118 -3.98674 0
M  V30 5108 N 495.163 1.55791 0.238111 0
M  V30 5109 C 496.126 1.90239 1.27835 0
M  V30 5110 C 497.126 0.779552 1.4064 0
M  V30 5111 O 498.316 1.04747 1.3919 0
M  V30 5112 C 495.448 2.13859 2.65475 0
M  V30 5113 H 496.641 2.83262 0.985034 0
M  V30 5114 H 494.194 1.48818 0.477799 0
M  V30 5115 H 494.929 1.23334 2.99932 0
M  V30 5116 H 494.714 2.95643 2.57561 0
M  V30 5117 H 496.204 2.41664 3.40571 0
M  V30 5118 N 496.642 -0.504142 1.49319 0
M  V30 5119 C 498.053 -1.08572 1.51885 0
M  V30 5120 C 498.404 -1.93842 0.303255 0
M  V30 5121 O 497.529 -2.0828 -0.58724 0
M  V30 5122 C 498.124 -1.97574 2.75227 0
M  V30 5123 C 496.683 -2.509 2.80581 0
M  V30 5124 C 495.83 -1.28447 2.45757 0
M  V30 5125 H 498.781 -0.288194 1.56061 0
M  V30 5126 H 498.802 -2.82219 2.55211 0
M  V30 5127 H 498.314 -1.35486 3.63683 0
M  V30 5128 H 496.415 -3.16636 1.96398 0
M  V30 5129 H 496.528 -2.88268 3.82673 0
M  V30 5130 H 494.892 -1.60868 1.97468 0
M  V30 5131 H 495.675 -0.68072 3.36483 0
M  V30 5132 N 498.12 -1.38341 -0.754957 0
M  V30 5133 C 499.067 -1.3546 -1.86867 0
M  V30 5134 C 500.037 -0.217369 -1.64672 0
M  V30 5135 O 501.222 -0.409383 -1.86356 0
M  V30 5136 C 498.362 -1.18413 -3.24149 0
M  V30 5137 C 497.475 -2.41511 -3.58185 0
M  V30 5138 C 496.61 -2.17205 -4.84763 0
M  V30 5139 C 495.649 -3.36081 -5.11582 0
M  V30 5140 N 494.786 -3.11219 -6.29354 0
M  V30 5141 H 499.626 -2.30672 -1.88664 0
M  V30 5142 H 497.163 -1.14607 -0.922154 0
M  V30 5143 H 499.121 -1.06545 -4.03366 0
M  V30 5144 H 497.751 -0.268397 -3.21682 0
M  V30 5145 H 496.803 -2.64056 -2.73822 0
M  V30 5146 H 498.115 -3.30115 -3.73932 0
M  V30 5147 H 497.269 -2.02465 -5.7192 0
M  V30 5148 H 496.008 -1.25964 -4.71152 0
M  V30 5149 H 495.013 -3.51341 -4.22894 0
M  V30 5150 H 496.238 -4.28196 -5.27091 0
M  V30 5151 H 494.184 -2.22624 -6.17069 0
M  V30 5152 H 494.101 -3.93373 -6.45596 0
M  V30 5153 H 495.369 -3.00132 -7.19403 0
M  V30 5154 N 499.598 0.982988 -1.23187 0
M  V30 5155 C 500.845 1.72392 -1.06241 0
M  V30 5156 C 501.173 1.9032 0.40108 0
M  V30 5157 O 500.428 1.45084 1.31336 0
M  V30 5158 C 500.727 3.12736 -1.73006 0
M  V30 5159 C 500.393 3.14695 -3.22921 0
M  V30 5160 C 499.055 3.14937 -3.63824 0
M  V30 5161 C 501.407 3.10211 -4.1883 0
M  V30 5162 C 498.735 3.08408 -4.99101 0
M  V30 5163 C 501.087 3.05224 -5.54095 0
M  V30 5164 C 499.751 3.03787 -5.94365 0
M  V30 5165 H 499.021 0.630829 -0.388762 0
M  V30 5166 H 501.668 1.15053 -1.53085 0
M  V30 5167 H 499.973 3.73446 -1.18514 0
M  V30 5168 H 501.67 3.68828 -1.57374 0
M  V30 5169 H 498.26 3.15262 -2.90358 0
M  V30 5170 H 502.444 3.09166 -3.8824 0
M  V30 5171 H 497.7 3.05646 -5.29519 0
M  V30 5172 H 501.874 3.00712 -6.28128 0
M  V30 5173 H 499.501 2.98483 -6.99151 0
M  V30 5174 N 501.076 1.04316 1.18135 0
M  V30 5175 C 502.008 0.594444 2.21357 0
M  V30 5176 C 503.021 -0.337215 1.59269 0
M  V30 5177 O 504.21 -0.131337 1.78016 0
M  V30 5178 C 501.31 -0.151251 3.38562 0
M  V30 5179 C 500.483 0.788907 4.30227 0
M  V30 5180 C 499.542 0.0860572 5.2613 0
M  V30 5181 O 498.568 0.717302 5.64662 0
M  V30 5182 N 499.77 -1.17969 5.68387 0
M  V30 5183 H 502.535 1.48227 2.60478 0
M  V30 5184 H 500.096 0.92396 1.32946 0
M  V30 5185 H 502.088 -0.631352 3.99745 0
M  V30 5186 H 500.658 -0.940639 2.98112 0
M  V30 5187 H 499.878 1.44882 3.6661 0
M  V30 5188 H 501.166 1.42738 4.88368 0
M  V30 5189 H 500.564 -1.71302 5.3914 0
M  V30 5190 H 499.121 -1.60402 6.31755 0
M  V30 5191 N 502.554 -1.34406 0.822964 0
M  V30 5192 C 503.802 -1.97892 0.410245 0
M  V30 5193 C 504.123 -1.65567 -1.03017 0
M  V30 5194 O 503.393 -0.94642 -1.71522 0
M  V30 5195 H 501.973 -0.732049 0.148707 0
M  V30 5196 H 504.635 -1.64043 1.05242 0
M  V30 5197 H 503.731 -3.07579 0.529284 0
M  V30 5198 N 504.032 -0.577932 -1.46621 0
M  V30 5199 C 504.962 0.145917 -2.33044 0
M  V30 5200 C 505.943 0.888412 -1.45056 0
M  V30 5201 O 507.128 0.864812 -1.73881 0
M  V30 5202 C 504.258 1.16322 -3.27241 0
M  V30 5203 C 503.212 0.535868 -4.24632 0
M  V30 5204 C 502.538 1.65929 -5.08303 0
M  V30 5205 C 503.838 -0.523861 -5.19666 0
M  V30 5206 H 505.532 -0.575636 -2.93814 0
M  V30 5207 H 503.078 -0.278272 -1.41286 0
M  V30 5208 H 505.031 1.67793 -3.86553 0
M  V30 5209 H 503.755 1.91498 -2.64567 0
M  V30 5210 H 502.414 0.0422759 -3.66576 0
M  V30 5211 H 502.062 2.40061 -4.42018 0
M  V30 5212 H 501.762 1.2452 -5.74255 0
M  V30 5213 H 503.286 2.17686 -5.70478 0
M  V30 5214 H 504.7 -0.0944059 -5.73222 0
M  V30 5215 H 503.097 -0.858 -5.93935 0
M  V30 5216 H 504.167 -1.41197 -4.63887 0
M  V30 5217 N 505.51 1.54411 -0.315457 0
M  V30 5218 C 506.921 1.85885 0.174265 0
M  V30 5219 C 507.272 1.23723 1.52273 0
M  V30 5220 O 506.397 0.540246 2.09548 0
M  V30 5221 C 506.992 3.37257 0.322981 0
M  V30 5222 C 505.551 3.68711 0.756922 0
M  V30 5223 C 504.698 2.77013 -0.126195 0
M  V30 5224 H 507.649 1.49374 -0.536007 0
M  V30 5225 H 507.67 3.62539 1.15522 0
M  V30 5226 H 507.182 3.82471 -0.658602 0
M  V30 5227 H 505.283 3.29024 1.74854 0
M  V30 5228 H 505.396 4.75741 0.566291 0
M  V30 5229 H 503.76 2.51588 0.39692 0
M  V30 5230 H 504.543 3.25051 -1.1044 0
M  V30 5231 N 506.988 0.0434614 1.5754 0
M  V30 5232 C 508.234 -0.632971 1.92669 0
M  V30 5233 C 508.567 -1.70947 0.921446 0
M  V30 5234 O 507.842 -1.94426 -0.0537202 0
M  V30 5235 C 508.125 -1.23619 3.38216 0
M  V30 5236 C 507.978 -0.168274 4.49485 0
M  V30 5237 C 509.297 -2.15008 3.84005 0
M  V30 5238 H 506.416 -0.228629 0.700641 0
M  V30 5239 H 509.058 0.103651 1.89717 0
M  V30 5240 H 507.208 -1.864 3.40863 0
M  V30 5241 H 508.88 0.463196 4.58969 0
M  V30 5242 H 507.123 0.504581 4.30855 0
M  V30 5243 H 507.794 -0.630218 5.48391 0
M  V30 5244 H 510.27 -1.62198 3.83185 0
M  V30 5245 H 509.146 -2.54161 4.86511 0
M  V30 5246 H 509.407 -3.04707 3.20322 0
M  V30 5247 N 508.466 -1.55915 -0.229846 0
M  V30 5248 C 509.396 -1.94754 -1.28815 0
M  V30 5249 C 510.377 -0.814657 -1.49323 0
M  V30 5250 O 511.562 -1.07631 -1.61645 0
M  V30 5251 C 508.692 -2.25705 -2.63959 0
M  V30 5252 C 507.646 -3.41406 -2.5812 0
M  V30 5253 C 506.972 -3.57941 -3.97218 0
M  V30 5254 C 508.272 -4.76616 -2.13623 0
M  V30 5255 H 509.966 -2.83404 -0.965547 0
M  V30 5256 H 507.512 -1.36353 -0.463028 0
M  V30 5257 H 509.465 -2.51467 -3.38146 0
M  V30 5258 H 508.189 -1.339 -2.9789 0
M  V30 5259 H 506.848 -3.1568 -1.86391 0
M  V30 5260 H 506.496 -2.63526 -4.28443 0
M  V30 5261 H 506.196 -4.35757 -3.94195 0
M  V30 5262 H 507.72 -3.86042 -4.73079 0
M  V30 5263 H 509.134 -5.01637 -2.77549 0
M  V30 5264 H 507.531 -5.57655 -2.21677 0
M  V30 5265 H 508.601 -4.7253 -1.08829 0
M  V30 5266 N 509.944 0.496216 -1.49584 0
M  V30 5267 C 510.892 1.61805 -1.67098 0
M  V30 5268 C 511.886 1.60667 -0.536877 0
M  V30 5269 O 513.092 1.65118 -0.716654 0
M  V30 5270 H 509.467 0.53646 -0.526986 0
M  V30 5271 H 511.438 1.44187 -2.61252 0
M  V30 5272 C 510.187 2.99912 -1.75921 0
M  V30 5273 H 509.51 3.01496 -2.62565 0
M  V30 5274 H 510.95 3.77931 -1.92209 0
M  V30 5275 C 509.409 3.33092 -0.505088 0
M  V30 5276 O 509.939 4.00019 0.367085 0
M  V30 5277 N 508.145 2.88278 -0.366599 0
M  V30 5278 H 507.692 2.33989 -1.07735 0
M  V30 5279 H 507.65 3.10846 0.47142 0
M  V30 5280 N 511.423 1.38739 0.74761 0
M  V30 5281 C 512.651 1.38521 1.53686 0
M  V30 5282 C 513.066 -0.0235129 1.88785 0
M  V30 5283 O 512.423 -0.991662 1.53207 0
M  V30 5284 C 512.474 2.24641 2.83229 0
M  V30 5285 O 512.195 3.60026 2.49625 0
M  V30 5286 C 513.696 2.32669 3.77333 0
M  V30 5287 H 510.916 0.473589 0.475347 0
M  V30 5288 H 513.46 1.82395 0.924786 0
M  V30 5289 H 511.615 1.84213 3.40799 0
M  V30 5290 H 512.029 4.05435 3.3275 0
M  V30 5291 H 513.503 2.97201 4.65162 0
M  V30 5292 H 513.98 1.3421 4.18192 0
M  V30 5293 H 514.586 2.73512 3.25685 0
M  V30 5294 N 512.901 -0.976442 1.23707 0
M  V30 5295 C 514.312 -1.53284 1.06587 0
M  V30 5296 C 514.663 -1.92765 -0.365526 0
M  V30 5297 O 513.788 -1.7645 -1.25277 0
M  V30 5298 C 514.383 -2.78548 1.92864 0
M  V30 5299 C 512.942 -3.30574 1.79994 0
M  V30 5300 C 512.089 -2.03538 1.88328 0
M  V30 5301 H 515.04 -0.795692 1.37311 0
M  V30 5302 H 515.061 -3.5155 1.45577 0
M  V30 5303 H 514.573 -2.49782 2.97037 0
M  V30 5304 H 512.674 -3.64211 0.786202 0
M  V30 5305 H 512.787 -4.00065 2.636 0
M  V30 5306 H 511.151 -2.17853 1.31954 0
M  V30 5307 H 511.934 -1.77149 2.94063 0
M  V30 5308 N 514.379 -1.04941 -1.1758 0
M  V30 5309 C 515.627 -0.756492 -1.87408 0
M  V30 5310 C 515.948 0.718478 -1.81281 0
M  V30 5311 O 515.218 1.519 -1.23706 0
M  V30 5312 H 513.798 -0.276841 -0.693807 0
M  V30 5313 H 516.46 -1.32803 -1.42652 0
M  V30 5314 H 515.556 -1.06918 -2.93215 0
M  V30 5315 N 515.857 1.33968 -0.830081 0
M  V30 5316 C 517.082 2.02813 -0.433796 0
M  V30 5317 C 517.507 1.62076 0.954614 0
M  V30 5318 O 516.865 0.808955 1.62252 0
M  V30 5319 C 516.913 3.56348 -0.552115 0
M  V30 5320 O 516.017 4.10202 0.425191 0
M  V30 5321 H 515.358 0.639817 -0.177567 0
M  V30 5322 H 517.888 1.7106 -1.12248 0
M  V30 5323 H 517.898 4.05722 -0.430513 0
M  V30 5324 H 516.573 3.85344 -1.56471 0
M  V30 5325 H 515.15 3.71979 0.261878 0
M  V30 5326 N 517.335 0.585699 1.46312 0
M  V30 5327 C 518.283 -0.158577 2.32059 0
M  V30 5328 C 519.277 -0.881427 1.44662 0
M  V30 5329 O 520.483 -0.799476 1.61271 0
M  V30 5330 H 516.858 -0.0700066 0.748734 0
M  V30 5331 H 518.829 0.583383 2.92642 0
M  V30 5332 C 517.578 -1.15701 3.27885 0
M  V30 5333 H 516.901 -0.610215 3.95116 0
M  V30 5334 H 518.341 -1.64812 3.90657 0
M  V30 5335 C 516.8 -2.21951 2.53455 0
M  V30 5336 O 517.33 -3.29352 2.29978 0
M  V30 5337 N 515.536 -1.9664 2.13965 0
M  V30 5338 H 515.083 -1.09309 2.33258 0
M  V30 5339 H 515.041 -2.6794 1.64485 0
M  V30 5340 N 518.813 -1.54241 0.323641 0
M  V30 5341 C 519.745 -2.21836 -0.576311 0
M  V30 5342 C 520.758 -1.21837 -1.07979 0
M  V30 5343 O 521.947 -1.48306 -0.99336 0
M  V30 5344 C 519.047 -2.86923 -1.80356 0
M  V30 5345 C 518.22 -4.1306 -1.43875 0
M  V30 5346 C 517.279 -4.6174 -2.52353 0
M  V30 5347 O 516.305 -5.26421 -2.16494 0
M  V30 5348 N 517.507 -4.35974 -3.83284 0
M  V30 5349 H 520.272 -2.997 0.00247987 0
M  V30 5350 H 517.833 -1.61233 0.146848 0
M  V30 5351 H 519.825 -3.16414 -2.52318 0
M  V30 5352 H 518.395 -2.12765 -2.29019 0
M  V30 5353 H 517.615 -3.90334 -0.550752 0
M  V30 5354 H 518.903 -4.95148 -1.17071 0
M  V30 5355 H 518.301 -3.84203 -4.15216 0
M  V30 5356 H 516.858 -4.70119 -4.51477 0
M  V30 5357 N 520.291 -0.0518155 -1.57515 0
M  V30 5358 C 521.521 0.63048 -1.96745 0
M  V30 5359 C 521.929 1.64875 -0.928054 0
M  V30 5360 O 521.272 1.83449 0.0960678 0
M  V30 5361 C 521.334 1.37381 -3.32215 0
M  V30 5362 C 520.998 0.511298 -4.54131 0
M  V30 5363 C 521.995 -0.222884 -5.19422 0
M  V30 5364 C 519.68 0.442035 -5.00351 0
M  V30 5365 C 521.674 -1.01476 -6.2927 0
M  V30 5366 C 519.361 -0.35353 -6.10077 0
M  V30 5367 C 520.359 -1.08062 -6.74397 0
M  V30 5368 O 520.047 -1.8631 -7.82013 0
M  V30 5369 H 519.779 0.177126 -0.652382 0
M  V30 5370 H 522.333 -0.114726 -2.05079 0
M  V30 5371 H 520.563 2.16466 -3.20436 0
M  V30 5372 H 522.252 1.9464 -3.56188 0
M  V30 5373 H 523.018 -0.178846 -4.8467 0
M  V30 5374 H 518.897 0.997562 -4.50077 0
M  V30 5375 H 522.441 -1.58279 -6.79407 0
M  V30 5376 H 518.338 -0.399205 -6.44264 0
M  V30 5377 H 519.106 -1.78528 -7.98793 0
M  V30 5378 N 521.769 1.56035 0.221574 0
M  V30 5379 C 522.699 1.95434 1.2778 0
M  V30 5380 C 523.68 0.822564 1.48889 0
M  V30 5381 O 524.865 1.08486 1.61072 0
M  V30 5382 C 521.995 2.27102 2.62759 0
M  V30 5383 C 520.949 3.4277 2.56306 0
M  V30 5384 C 520.275 3.60043 3.95314 0
M  V30 5385 C 521.575 4.77742 2.11093 0
M  V30 5386 H 523.269 2.83912 0.950504 0
M  V30 5387 H 520.815 1.36596 0.455791 0
M  V30 5388 H 522.768 2.53256 3.36807 0
M  V30 5389 H 521.492 1.35478 2.97176 0
M  V30 5390 H 520.151 3.16664 1.84715 0
M  V30 5391 H 519.799 2.65794 4.27039 0
M  V30 5392 H 519.499 4.37841 3.91879 0
M  V30 5393 H 521.023 3.88545 4.71025 0
M  V30 5394 H 522.437 5.03102 2.74885 0
M  V30 5395 H 520.834 5.58823 2.18716 0
M  V30 5396 H 521.904 4.731 1.06321 0
M  V30 5397 N 523.247 -0.488276 1.49845 0
M  V30 5398 C 524.475 -1.26527 1.63702 0
M  V30 5399 C 524.89 -1.8618 0.313447 0
M  V30 5400 O 524.247 -1.68432 -0.702624 0
M  V30 5401 C 524.298 -2.3864 2.71538 0
M  V30 5402 O 524.019 -1.81437 3.98763 0
M  V30 5403 C 525.52 -3.29805 2.96215 0
M  V30 5404 H 522.74 -0.383295 0.55075 0
M  V30 5405 H 525.284 -0.584779 1.95961 0
M  V30 5406 H 523.439 -3.02496 2.42023 0
M  V30 5407 H 523.853 -2.55135 4.58265 0
M  V30 5408 H 525.327 -4.04722 3.75372 0
M  V30 5409 H 525.804 -3.87563 2.06619 0
M  V30 5410 H 526.41 -2.71703 3.27196 0
M  V30 5411 N 524.725 -1.39134 -0.740242 0
M  V30 5412 C 525.95 -1.39518 -1.53459 0
M  V30 5413 C 526.375 0.00968883 -1.88098 0
M  V30 5414 O 525.733 0.995312 -1.51536 0
M  V30 5415 C 525.781 -2.26981 -2.802 0
M  V30 5416 O 524.885 -1.69609 -3.75908 0
M  V30 5417 H 524.226 -0.475328 -0.463637 0
M  V30 5418 H 526.756 -1.83064 -0.913717 0
M  V30 5419 H 526.766 -2.41309 -3.28989 0
M  V30 5420 H 525.441 -3.29081 -2.5432 0
M  V30 5421 H 524.018 -1.64495 -3.34658 0
M  V30 5422 N 526.204 0.969867 -1.24223 0
M  V30 5423 C 527.481 1.68774 -0.988664 0
M  V30 5424 C 527.861 2.05342 0.489673 0
M  V30 5425 O 527.209 1.75486 1.46345 0
M  V30 5426 C 527.419 2.92135 -1.90941 0
M  V30 5427 C 528.767 3.64422 -2.17903 0
M  V30 5428 O 529.791 3.02188 -1.88576 0
M  V30 5429 O 528.65 4.76446 -2.67697 0
M  V30 5430 H 525.744 0.737736 -0.37373 0
M  V30 5431 H 528.29 1.02415 -1.35312 0
M  V30 5432 H 527.062 2.61788 -2.90831 0
M  V30 5433 H 526.685 3.66228 -1.54798 0
M  V30 5434 N 527.682 1.05563 1.17022 0
M  V30 5435 C 528.63 0.653887 2.2322 0
M  V30 5436 C 529.624 -0.326642 1.66221 0
M  V30 5437 O 530.83 -0.192301 1.7897 0
M  V30 5438 H 527.205 0.193297 0.726733 0
M  V30 5439 H 529.176 1.5596 2.54399 0
M  V30 5440 C 527.925 0.0485434 3.47666 0
M  V30 5441 H 527.248 0.79413 3.91834 0
M  V30 5442 H 528.688 -0.195133 4.23551 0
M  V30 5443 C 527.147 -1.20583 3.14581 0
M  V30 5444 O 527.677 -2.29475 3.29703 0
M  V30 5445 N 525.883 -1.10493 2.68774 0
M  V30 5446 H 525.43 -0.218795 2.56669 0
M  V30 5447 H 525.388 -1.94507 2.47011 0
M  V30 5448 N 529.16 -1.33526 0.837174 0
M  V30 5449 C 530.11 -2.2672 0.241269 0
M  V30 5450 C 531.094 -1.49183 -0.602756 0
M  V30 5451 O 532.286 -1.71052 -0.455002 0
M  V30 5452 C 529.415 -3.38294 -0.584125 0
M  V30 5453 C 528.501 -4.23231 0.271315 0
M  V30 5454 N 528.892 -4.87473 1.34922 0
M  V30 5455 C 527.19 -4.45962 0.0580589 0
M  V30 5456 C 527.891 -5.50685 1.87405 0
M  V30 5457 N 526.867 -5.30732 1.17578 0
M  V30 5458 H 530.669 -2.73903 1.06558 0
M  V30 5459 H 528.183 -1.47411 0.68145 0
M  V30 5460 H 530.18 -4.04044 -1.02731 0
M  V30 5461 H 528.84 -2.9266 -1.40643 0
M  V30 5462 H 529.851 -4.88077 1.7321 0
M  V30 5463 H 526.528 -4.11052 -0.730938 0
M  V30 5464 H 527.918 -6.11845 2.77661 0
M  V30 5465 N 530.638 -0.59345 -1.46 0
M  V30 5466 C 531.57 0.171569 -2.28557 0
M  V30 5467 C 532.583 0.845273 -1.39137 0
M  V30 5468 O 533.772 0.713033 -1.6364 0
M  V30 5469 C 530.872 1.26311 -3.14482 0
M  V30 5470 C 530.045 0.679258 -4.32094 0
M  V30 5471 C 529.104 1.65987 -4.99334 0
M  V30 5472 O 528.13 1.19171 -5.56585 0
M  V30 5473 N 529.332 2.99414 -4.97324 0
M  V30 5474 H 532.097 -0.536771 -2.94854 0
M  V30 5475 H 529.658 -0.431954 -1.56031 0
M  V30 5476 H 531.65 1.91863 -3.5633 0
M  V30 5477 H 530.22 1.87416 -2.50188 0
M  V30 5478 H 529.44 -0.153992 -3.93899 0
M  V30 5479 H 530.728 0.26916 -5.08088 0
M  V30 5480 H 530.126 3.40064 -4.52076 0
M  V30 5481 H 528.683 3.60426 -5.4308 0
M  V30 5482 N 532.116 1.54067 -0.331816 0
M  V30 5483 C 533.341 2.05599 0.272705 0
M  V30 5484 C 533.766 1.2059 1.44359 0
M  V30 5485 O 533.124 0.216907 1.79998 0
M  V30 5486 C 533.172 3.54188 0.677021 0
M  V30 5487 O 532.276 3.72082 1.77844 0
M  V30 5488 H 531.617 0.662286 0.0476801 0
M  V30 5489 H 534.147 1.98826 -0.482624 0
M  V30 5490 H 534.157 3.96608 0.957415 0
M  V30 5491 H 532.832 4.15513 -0.179325 0
M  V30 5492 H 531.409 3.41566 1.49622 0
M  V30 5493 N 533.594 0.0601682 1.57485 0
M  V30 5494 C 535.005 -0.474217 1.80577 0
M  V30 5495 C 535.356 -1.70365 0.973147 0
M  V30 5496 O 534.481 -2.15544 0.192306 0
M  V30 5497 C 535.076 -0.867102 3.27516 0
M  V30 5498 C 533.635 -1.34642 3.51495 0
M  V30 5499 C 532.782 -0.32594 2.75378 0
M  V30 5500 H 535.733 0.285973 1.56102 0
M  V30 5501 H 535.754 -1.72938 3.38929 0
M  V30 5502 H 535.266 0.0278927 3.8809 0
M  V30 5503 H 533.367 -2.2603 2.96212 0
M  V30 5504 H 533.48 -1.33237 4.60201 0
M  V30 5505 H 531.844 -0.800749 2.41785 0
M  V30 5506 H 532.627 0.561125 3.38683 0
M  V30 5507 N 535.072 -1.5615 -0.213296 0
M  V30 5508 C 536.312 -1.81325 -0.943435 0
M  V30 5509 C 536.676 -0.634934 -1.81198 0
M  V30 5510 O 537.877 -0.766166 -2.5765 0
M  V30 5511 C 536.148 -3.11437 -1.75334 0
M  V30 5512 S 537.707 -3.57955 -2.53799 0
M  V30 5513 H 534.525 -0.636538 -0.316766 0
M  V30 5514 H 537.127 -1.94387 -0.208313 0
M  V30 5515 H 535.831 -3.95228 -1.10556 0
M  V30 5516 H 535.362 -3.01204 -2.53061 0
M  V30 5517 H 537.377 -3.21947 -3.77577 0
M  V30 5518 N 536.55 0.480323 -1.50102 0
M  V30 5519 C 537.513 1.56181 -1.6775 0
M  V30 5520 C 538.513 1.51156 -0.548503 0
M  V30 5521 O 539.703 1.5394 -0.815363 0
M  V30 5522 C 536.835 2.95823 -1.69415 0
M  V30 5523 H 538.028 1.41855 -2.6423 0
M  V30 5524 H 535.581 0.70605 -1.39444 0
M  V30 5525 H 536.316 3.15604 -0.745948 0
M  V30 5526 H 536.101 3.00878 -2.51425 0
M  V30 5527 H 537.591 3.74359 -1.85054 0
M  V30 5528 N 538.028 1.39524 0.732853 0
M  V30 5529 C 539.277 1.36175 1.48792 0
M  V30 5530 C 539.59 -0.0388195 1.95561 0
M  V30 5531 O 540.796 -0.194899 2.708 0
M  V30 5532 C 539.252 2.39242 2.68871 0
M  V30 5533 C 538.86 3.85024 2.29042 0
M  V30 5534 C 540.604 2.44972 3.46683 0
M  V30 5535 C 538.511 4.79727 3.45856 0
M  V30 5536 H 537.441 0.506267 0.558757 0
M  V30 5537 H 540.092 1.65181 0.799226 0
M  V30 5538 H 538.474 2.0331 3.39825 0
M  V30 5539 H 539.648 4.30008 1.6562 0
M  V30 5540 H 537.963 3.82609 1.64316 0
M  V30 5541 H 540.56 3.12918 4.33574 0
M  V30 5542 H 540.903 1.4749 3.89297 0
M  V30 5543 H 541.436 2.79808 2.82759 0
M  V30 5544 H 538.175 5.78479 3.08289 0
M  V30 5545 H 537.695 4.39421 4.08251 0
M  V30 5546 H 539.374 4.98731 4.12161 0
M  V30 5547 N 539.506 -0.963266 1.24736 0
M  V30 5548 C 540.917 -1.52145 1.08207 0
M  V30 5549 C 541.268 -1.93142 -0.345061 0
M  V30 5550 O 540.393 -1.77769 -1.23399 0
M  V30 5551 C 540.988 -2.76486 1.95808 0
M  V30 5552 C 539.547 -3.28646 1.8349 0
M  V30 5553 C 538.694 -2.01529 1.90476 0
M  V30 5554 H 541.645 -0.781083 1.38148 0
M  V30 5555 H 541.666 -3.49986 1.49297 0
M  V30 5556 H 541.178 -2.46617 2.99669 0
M  V30 5557 H 539.279 -3.63357 0.824787 0
M  V30 5558 H 539.392 -3.97246 2.67829 0
M  V30 5559 H 537.756 -2.16442 1.34258 0
M  V30 5560 H 538.539 -1.7402 2.95926 0
M  V30 5561 N 540.985 -1.06182 -1.16461 0
M  V30 5562 C 541.895 -0.682671 -2.24448 0
M  V30 5563 C 542.911 0.30078 -1.71381 0
M  V30 5564 O 544.087 0.150376 -2.00838 0
M  V30 5565 C 541.152 -0.0737202 -3.46622 0
M  V30 5566 C 540.213 -1.10889 -4.14731 0
M  V30 5567 C 539.446 -0.528908 -5.31073 0
M  V30 5568 O 539.669 0.65868 -5.66584 0
M  V30 5569 O 538.603 -1.26805 -5.88391 0
M  V30 5570 H 542.429 -1.58291 -2.59187 0
M  V30 5571 H 540.014 -0.834013 -1.23954 0
M  V30 5572 H 541.896 0.264192 -4.20571 0
M  V30 5573 H 540.571 0.800015 -3.13658 0
M  V30 5574 H 539.478 -1.49896 -3.42756 0
M  V30 5575 H 540.811 -1.95412 -4.51747 0
M  V30 5576 N 542.463 1.3308 -0.844243 0
M  V30 5577 C 543.71 1.97605 -0.44255 0
M  V30 5578 C 544.038 1.66856 0.999458 0
M  V30 5579 O 543.293 0.943586 1.7145 0
M  V30 5580 C 543.592 3.52045 -0.616354 0
M  V30 5581 C 543.258 4.02757 -2.02726 0
M  V30 5582 C 541.92 4.16316 -2.41317 0
M  V30 5583 C 544.272 4.29776 -2.9486 0
M  V30 5584 C 541.6 4.54232 -3.71335 0
M  V30 5585 C 543.952 4.69146 -4.24364 0
M  V30 5586 C 542.616 4.80911 -4.62904 0
M  V30 5587 H 541.886 0.723088 -0.161941 0
M  V30 5588 H 544.533 1.58663 -1.0723 0
M  V30 5589 H 542.838 3.91681 0.0966812 0
M  V30 5590 H 544.535 3.99981 -0.285756 0
M  V30 5591 H 541.125 3.9268 -1.71756 0
M  V30 5592 H 545.309 4.18818 -2.6628 0
M  V30 5593 H 540.565 4.61535 -4.00993 0
M  V30 5594 H 544.739 4.89008 -4.95827 0
M  V30 5595 H 542.366 5.10048 -5.63698 0
M  V30 5596 N 543.941 0.601185 1.45683 0
M  V30 5597 C 545.218 0.0261659 1.95582 0
M  V30 5598 C 545.598 -1.4399 1.5437 0
M  V30 5599 O 544.946 -2.13919 0.80318 0
M  V30 5600 C 545.156 0.217557 3.48321 0
M  V30 5601 C 546.504 0.0950076 4.24494 0
M  V30 5602 O 547.528 0.147345 3.55895 0
M  V30 5603 O 546.387 -0.025261 5.46494 0
M  V30 5604 H 543.481 -0.0393688 0.826062 0
M  V30 5605 H 546.027 0.670798 1.55879 0
M  V30 5606 H 544.799 1.23601 3.71266 0
M  V30 5607 H 544.422 -0.46264 3.94899 0
M  V30 5608 N 545.419 -1.53889 0.339982 0
M  V30 5609 C 546.665 -2.01152 -0.258003 0
M  V30 5610 C 546.998 -1.22749 -1.50487 0
M  V30 5611 O 546.273 -0.314156 -1.91946 0
M  V30 5612 C 546.556 -3.55468 -0.575717 0
M  V30 5613 C 546.409 -4.44584 0.682996 0
M  V30 5614 C 547.728 -4.1768 -1.38677 0
M  V30 5615 H 544.847 -0.731198 -0.0922992 0
M  V30 5616 H 547.489 -1.84352 0.459814 0
M  V30 5617 H 545.639 -3.69914 -1.18725 0
M  V30 5618 H 547.311 -4.41981 1.32102 0
M  V30 5619 H 545.554 -4.13592 1.3086 0
M  V30 5620 H 546.225 -5.5043 0.416001 0
M  V30 5621 H 548.701 -4.0691 -0.869705 0
M  V30 5622 H 547.577 -5.25734 -1.57783 0
M  V30 5623 H 547.838 -3.72069 -2.38782 0
M  V30 5624 N 546.897 -0.0685191 -1.57451 0
M  V30 5625 C 548.125 0.610462 -1.97689 0
M  V30 5626 C 548.54 1.63346 -0.946758 0
M  V30 5627 O 547.897 1.82377 0.0669868 0
M  V30 5628 C 547.948 1.28196 -3.38006 0
M  V30 5629 O 547.669 0.299906 -4.37072 0
M  V30 5630 C 549.17 2.04907 -3.931 0
M  V30 5631 H 546.39 0.165689 -0.650222 0
M  V30 5632 H 548.934 -0.139953 -2.04021 0
M  V30 5633 H 547.089 1.98348 -3.32771 0
M  V30 5634 H 547.503 0.78126 -5.18649 0
M  V30 5635 H 548.977 2.47287 -4.93511 0
M  V30 5636 H 549.454 2.9043 -3.29465 0
M  V30 5637 H 550.06 1.39629 -4.01726 0
M  V30 5638 N 548.375 1.56261 0.205012 0
M  V30 5639 C 549.786 1.70056 0.770574 0
M  V30 5640 C 550.137 0.673398 1.84282 0
M  V30 5641 O 549.262 -0.172196 2.15714 0
M  V30 5642 C 549.857 3.08316 1.40451 0
M  V30 5643 C 548.416 3.2391 1.91727 0
M  V30 5644 C 547.563 2.66001 0.783516 0
M  V30 5645 H 550.514 1.58688 -0.019911 0
M  V30 5646 H 550.535 3.05094 2.27371 0
M  V30 5647 H 550.047 3.83053 0.623882 0
M  V30 5648 H 548.148 2.54072 2.7254 0
M  V30 5649 H 548.261 4.3131 2.08588 0
M  V30 5650 H 546.625 2.24915 1.19521 0
M  V30 5651 H 547.408 3.43297 0.0152883 0
M  V30 5652 N 549.853 -0.472356 1.50355 0
M  V30 5653 C 551.264 -1.05326 1.54154 0
M  V30 5654 C 551.615 -1.93155 0.344303 0
M  V30 5655 O 550.74 -2.09479 -0.542928 0
M  V30 5656 C 551.335 -1.91691 2.79356 0
M  V30 5657 C 549.894 -2.44892 2.8584 0
M  V30 5658 C 549.041 -1.23205 2.48426 0
M  V30 5659 H 551.992 -0.255027 1.56637 0
M  V30 5660 H 552.013 -2.76742 2.6114 0
M  V30 5661 H 551.525 -1.27741 3.66475 0
M  V30 5662 H 549.626 -3.12399 2.0307 0
M  V30 5663 H 549.739 -2.80086 3.88701 0
M  V30 5664 H 548.103 -1.56643 2.00836 0
M  V30 5665 H 548.886 -0.609194 3.37852 0
M  V30 5666 N 551.331 -1.39911 -0.725443 0
M  V30 5667 C 552.58 -1.36963 -1.48068 0
M  V30 5668 C 552.893 0.0284478 -1.95579 0
M  V30 5669 O 554.099 0.180535 -2.70899 0
M  V30 5670 C 552.555 -2.40664 -2.67598 0
M  V30 5671 C 552.163 -3.86234 -2.26997 0
M  V30 5672 C 553.907 -2.46807 -3.45379 0
M  V30 5673 C 551.814 -4.81554 -3.43307 0
M  V30 5674 H 550.744 -0.509223 -0.556065 0
M  V30 5675 H 553.395 -1.65602 -0.790454 0
M  V30 5676 H 551.777 -2.05109 -3.38742 0
M  V30 5677 H 552.951 -4.3088 -1.63337 0
M  V30 5678 H 551.266 -3.83475 -1.62284 0
M  V30 5679 H 553.863 -3.15213 -4.31909 0
M  V30 5680 H 554.206 -1.49552 -3.8851 0
M  V30 5681 H 554.739 -2.81303 -2.81271 0
M  V30 5682 H 551.478 -5.80106 -3.05217 0
M  V30 5683 H 550.998 -4.4158 -4.05915 0
M  V30 5684 H 552.677 -5.0091 -4.0951 0
M  V30 5685 N 552.809 0.956637 -1.25245 0
M  V30 5686 C 554.086 1.67716 -1.00651 0
M  V30 5687 C 554.466 2.0585 0.467866 0
M  V30 5688 O 553.814 1.77029 1.44475 0
M  V30 5689 C 554.024 2.90093 -1.94028 0
M  V30 5690 C 555.372 3.6209 -2.21756 0
M  V30 5691 O 556.396 3.00171 -1.9177 0
M  V30 5692 O 555.255 4.7358 -2.72735 0
M  V30 5693 H 552.349 0.733731 -0.381533 0
M  V30 5694 H 554.895 1.00974 -1.3639 0
M  V30 5695 H 553.667 2.58689 -2.93591 0
M  V30 5696 H 553.29 3.64566 -1.58674 0
M  V30 5697 N 554.287 1.06798 1.15896 0
M  V30 5698 C 555.536 0.782796 1.8589 0
M  V30 5699 C 555.849 -0.693498 1.82893 0
M  V30 5700 O 557.055 -1.09325 2.48516 0
M  V30 5701 C 555.511 1.3502 3.33613 0
M  V30 5702 C 555.119 2.8571 3.45071 0
M  V30 5703 C 556.863 1.14278 4.08829 0
M  V30 5704 C 554.77 3.35669 4.86909 0
M  V30 5705 H 553.7 0.289149 0.696354 0
M  V30 5706 H 556.351 1.28734 1.30766 0
M  V30 5707 H 554.733 0.773407 3.88374 0
M  V30 5708 H 555.907 3.49385 3.00445 0
M  V30 5709 H 554.222 3.05178 2.83294 0
M  V30 5710 H 556.819 1.49087 5.13495 0
M  V30 5711 H 557.162 0.0814575 4.1622 0
M  V30 5712 H 557.695 1.68563 3.60321 0
M  V30 5713 H 554.434 4.41302 4.84698 0
M  V30 5714 H 553.954 2.76745 5.32139 0
M  V30 5715 H 555.633 3.31296 5.55745 0
M  V30 5716 N 555.766 -1.3263 0.851289 0
M  V30 5717 C 557.177 -1.79653 0.5081 0
M  V30 5718 C 557.528 -1.70327 -0.973815 0
M  V30 5719 O 556.653 -1.25986 -1.75944 0
M  V30 5720 C 557.248 -3.26196 0.915515 0
M  V30 5721 C 555.807 -3.71187 0.624277 0
M  V30 5722 C 554.954 -2.53804 1.11709 0
M  V30 5723 H 557.905 -1.19976 1.03882 0
M  V30 5724 H 557.926 -3.79801 0.230535 0
M  V30 5725 H 557.438 -3.32952 1.99411 0
M  V30 5726 H 555.539 -3.69948 -0.443737 0
M  V30 5727 H 555.652 -4.64132 1.18821 0
M  V30 5728 H 554.016 -2.48964 0.537484 0
M  V30 5729 H 554.799 -2.63315 2.20272 0
M  V30 5730 N 557.244 -0.608902 -1.45362 0
M  V30 5731 C 558.492 -0.104401 -2.0183 0
M  V30 5732 C 558.813 1.27007 -1.47967 0
M  V30 5733 O 558.083 1.83924 -0.674455 0
M  V30 5734 H 556.663 -0.0356042 -0.746151 0
M  V30 5735 H 559.325 -0.790596 -1.78145 0
M  V30 5736 H 558.421 -0.0551793 -3.12051 0
M  V30 5737 N 558.722 1.53707 -0.348139 0
M  V30 5738 C 559.632 2.28881 0.514857 0
M  V30 5739 C 560.648 1.34168 1.10793 0
M  V30 5740 O 561.824 1.6721 1.12262 0
M  V30 5741 C 558.889 3.05042 1.64774 0
M  V30 5742 C 557.95 4.15389 1.08398 0
M  V30 5743 C 557.183 4.87909 2.16287 0
M  V30 5744 O 557.406 4.60137 3.3709 0
M  V30 5745 O 556.34 5.74254 1.80323 0
M  V30 5746 H 560.166 3.03547 -0.0963699 0
M  V30 5747 H 557.751 1.48972 -0.113043 0
M  V30 5748 H 559.633 3.52656 2.30677 0
M  V30 5749 H 558.308 2.33228 2.24469 0
M  V30 5750 H 557.215 3.72068 0.389341 0
M  V30 5751 H 558.548 4.89318 0.531829 0
M  V30 5752 N 560.2 0.0768682 1.57412 0
M  V30 5753 C 561.446 -0.591961 1.93968 0
M  V30 5754 C 561.779 -1.68954 0.9575 0
M  V30 5755 O 561.054 -1.94496 -0.0124675 0
M  V30 5756 C 561.337 -1.16418 3.40762 0
M  V30 5757 C 561.19 -0.0728933 4.49741 0
M  V30 5758 C 562.509 -2.06814 3.88479 0
M  V30 5759 H 559.628 -0.213716 0.705333 0
M  V30 5760 H 562.27 0.14387 1.89455 0
M  V30 5761 H 560.42 -1.79128 3.4474 0
M  V30 5762 H 562.092 0.560446 4.57883 0
M  V30 5763 H 560.335 0.595859 4.29688 0
M  V30 5764 H 561.006 -0.513755 5.49604 0
M  V30 5765 H 563.482 -1.54033 3.8654 0
M  V30 5766 H 562.358 -2.43785 4.91793 0
M  V30 5767 H 562.619 -2.97844 3.26713 0
M  V30 5768 N 561.678 -1.56367 -0.196722 0
M  V30 5769 C 562.625 -1.94417 -1.24382 0
M  V30 5770 C 563.595 -0.804543 -1.45315 0
M  V30 5771 O 564.78 -1.06256 -1.58475 0
M  V30 5772 C 561.92 -2.28757 -2.58388 0
M  V30 5773 C 561.033 -3.55775 -2.45047 0
M  V30 5774 C 560.168 -3.79445 -3.71746 0
M  V30 5775 C 559.207 -4.99894 -3.53231 0
M  V30 5776 N 558.344 -5.19826 -4.71938 0
M  V30 5777 H 563.184 -2.83691 -0.912338 0
M  V30 5778 H 560.721 -1.40392 -0.439135 0
M  V30 5779 H 562.679 -2.46682 -3.36457 0
M  V30 5780 H 561.309 -1.42625 -2.89582 0
M  V30 5781 H 560.361 -3.45905 -1.58284 0
M  V30 5782 H 561.673 -4.44 -2.27299 0
M  V30 5783 H 560.827 -3.97601 -4.58256 0
M  V30 5784 H 559.566 -2.89546 -3.92446 0
M  V30 5785 H 558.571 -4.81662 -2.65107 0
M  V30 5786 H 559.796 -5.913 -3.33978 0
M  V30 5787 H 557.742 -4.32875 -4.92905 0
M  V30 5788 H 557.659 -6.02228 -4.57009 0
M  V30 5789 H 558.927 -5.42439 -5.59803 0
M  V30 5790 N 563.156 0.464375 -1.50603 0
M  V30 5791 C 564.104 1.58224 -1.70493 0
M  V30 5792 C 565.098 1.59492 -0.570836 0
M  V30 5793 O 566.304 1.63561 -0.751517 0
M  V30 5794 H 562.679 0.525161 -0.538247 0
M  V30 5795 H 564.65 1.38613 -2.64252 0
M  V30 5796 C 563.399 2.96113 -1.82243 0
M  V30 5797 H 562.722 2.95858 -2.68901 0
M  V30 5798 H 564.162 3.73769 -2.00182 0
M  V30 5799 C 562.621 3.31946 -0.575628 0
M  V30 5800 O 563.151 4.00708 0.282152 0
M  V30 5801 N 561.357 2.87436 -0.427665 0
M  V30 5802 H 560.904 2.31652 -1.12674 0
M  V30 5803 H 560.862 3.11776 0.405379 0
M  V30 5804 N 564.634 1.40294 0.718013 0
M  V30 5805 C 565.567 1.34767 1.84155 0
M  V30 5806 C 566.545 0.218455 1.61126 0
M  V30 5807 O 567.729 0.401716 1.8417 0
M  V30 5808 C 564.856 1.09676 3.20451 0
M  V30 5809 C 563.902 2.25016 3.62312 0
M  V30 5810 S 564.735 3.87397 3.69707 0
M  V30 5811 C 565.891 3.64565 5.08766 0
M  V30 5812 H 566.124 2.29851 1.88562 0
M  V30 5813 H 563.657 1.2655 0.884555 0
M  V30 5814 H 565.615 0.95885 3.99144 0
M  V30 5815 H 564.276 0.162502 3.13679 0
M  V30 5816 H 563.469 2.03097 4.61268 0
M  V30 5817 H 563.071 2.35098 2.90869 0
M  V30 5818 H 565.363 3.22882 5.95612 0
M  V30 5819 H 566.306 4.63043 5.35721 0
M  V30 5820 H 566.714 2.98303 4.79245 0
M  V30 5821 N 566.112 -0.949982 1.2575 0
M  V30 5822 C 567.045 -2.047 1.00862 0
M  V30 5823 C 568.023 -1.62475 -0.0636982 0
M  V30 5824 O 569.207 -1.88343 0.0769153 0
M  V30 5825 C 566.334 -3.34597 0.525613 0
M  V30 5826 C 565.38 -3.95788 1.58916 0
M  V30 5827 S 566.213 -4.31175 3.17567 0
M  V30 5828 C 567.369 -5.64183 2.71013 0
M  V30 5829 H 567.602 -2.25497 1.93749 0
M  V30 5830 H 565.135 -1.09022 1.09332 0
M  V30 5831 H 567.093 -4.09716 0.25359 0
M  V30 5832 H 565.754 -3.11758 -0.382828 0
M  V30 5833 H 564.947 -4.89457 1.20201 0
M  V30 5834 H 564.549 -3.27168 1.81211 0
M  V30 5835 H 566.841 -6.42504 2.14928 0
M  V30 5836 H 567.784 -6.07774 3.6334 0
M  V30 5837 H 568.192 -5.2364 2.1086 0
M  V30 5838 N 567.59 -1.07411 -1.15328 0
M  V30 5839 C 568.5 -0.706438 -2.23711 0
M  V30 5840 C 569.516 0.282586 -1.7169 0
M  V30 5841 O 570.692 0.129066 -2.00986 0
M  V30 5842 C 567.757 -0.11048 -3.46524 0
M  V30 5843 C 566.818 -1.15282 -4.13532 0
M  V30 5844 C 566.051 -0.585205 -5.30482 0
M  V30 5845 O 566.274 0.598549 -5.67251 0
M  V30 5846 O 565.208 -1.33039 -5.87013 0
M  V30 5847 H 569.034 -1.61031 -2.57493 0
M  V30 5848 H 566.619 -0.847113 -1.23062 0
M  V30 5849 H 568.501 0.21957 -4.20828 0
M  V30 5850 H 567.176 0.766703 -3.14489 0
M  V30 5851 H 566.083 -1.53523 -3.41147 0
M  V30 5852 H 567.416 -2.00192 -4.49649 0
M  V30 5853 N 569.068 1.32177 -0.85831 0
M  V30 5854 C 569.998 2.31282 -0.321041 0
M  V30 5855 C 570.979 1.59841 0.581786 0
M  V30 5856 O 572.164 1.87619 0.501262 0
M  V30 5857 C 569.294 3.4385 0.48832 0
M  V30 5858 C 568.248 4.26799 -0.320391 0
M  V30 5859 C 567.574 5.31164 0.613934 0
M  V30 5860 C 568.874 4.98829 -1.54813 0
M  V30 5861 H 570.568 2.76469 -1.14915 0
M  V30 5862 H 568.114 1.32916 -0.554028 0
M  V30 5863 H 570.067 4.12224 0.874626 0
M  V30 5864 H 568.791 2.97401 1.34983 0
M  V30 5865 H 567.45 3.60077 -0.688497 0
M  V30 5866 H 567.098 4.80967 1.47239 0
M  V30 5867 H 566.798 5.8755 0.0768097 0
M  V30 5868 H 568.322 6.024 0.997336 0
M  V30 5869 H 569.736 5.59864 -1.23392 0
M  V30 5870 H 568.133 5.64957 -2.02346 0
M  V30 5871 H 569.203 4.26483 -2.30739 0
M  V30 5872 N 570.547 0.616602 1.45037 0
M  V30 5873 C 571.51 -0.0871112 2.29034 0
M  V30 5874 C 572.51 -0.786414 1.40258 0
M  V30 5875 O 573.7 -0.633207 1.62284 0
M  V30 5876 C 570.832 -1.13369 3.21497 0
M  V30 5877 H 572.025 0.651497 2.92738 0
M  V30 5878 H 569.578 0.376058 1.51709 0
M  V30 5879 H 570.313 -1.90277 2.62612 0
M  V30 5880 H 570.098 -0.636358 3.86902 0
M  V30 5881 H 571.588 -1.62627 3.84633 0
M  V30 5882 N 572.025 -1.5352 0.356285 0
M  V30 5883 C 572.935 -2.29151 -0.502712 0
M  V30 5884 C 573.951 -1.34753 -1.1008 0
M  V30 5885 O 575.127 -1.67803 -1.11374 0
M  V30 5886 C 572.192 -3.05911 -1.63154 0
M  V30 5887 C 571.253 -4.15958 -1.06194 0
M  V30 5888 C 570.486 -4.8905 -2.13696 0
M  V30 5889 O 570.709 -4.61919 -3.34645 0
M  V30 5890 O 569.643 -5.75202 -1.77275 0
M  V30 5891 H 573.469 -3.03492 0.112466 0
M  V30 5892 H 571.054 -1.4891 0.120942 0
M  V30 5893 H 572.936 -3.53874 -2.28804 0
M  V30 5894 H 571.611 -2.34415 -2.23229 0
M  V30 5895 H 570.518 -3.7227 -0.369603 0
M  V30 5896 H 571.851 -4.89593 -0.505872 0
M  V30 5897 N 573.503 -0.0852151 -1.57369 0
M  V30 5898 C 574.752 0.580443 -1.93168 0
M  V30 5899 C 575.065 1.6995 -0.968319 0
M  V30 5900 O 576.271 2.42564 -1.21963 0
M  V30 5901 C 574.727 1.08386 -3.43192 0
M  V30 5902 C 574.335 -0.00491388 -4.48 0
M  V30 5903 C 576.079 1.72281 -3.87968 0
M  V30 5904 C 573.986 0.513299 -5.89168 0
M  V30 5905 H 572.916 0.22059 -0.72101 0
M  V30 5906 H 575.567 -0.159621 -1.82804 0
M  V30 5907 H 573.949 1.8773 -3.48674 0
M  V30 5908 H 575.123 -0.780032 -4.5415 0
M  V30 5909 H 573.438 -0.548453 -4.12772 0
M  V30 5910 H 576.035 2.12108 -4.9083 0
M  V30 5911 H 576.378 2.58811 -3.26071 0
M  V30 5912 H 576.911 0.995359 -3.85146 0
M  V30 5913 H 573.65 -0.315153 -6.54742 0
M  V30 5914 H 573.17 1.25564 -5.8651 0
M  V30 5915 H 574.849 0.985433 -6.39451 0
M  V30 5916 N 574.981 1.5647 0.188427 0
M  V30 5917 C 576.258 1.71857 0.934058 0
M  V30 5918 C 576.638 0.641867 2.01105 0
M  V30 5919 O 575.986 -0.346098 2.25864 0
M  V30 5920 C 576.196 3.14431 1.5144 0
M  V30 5921 C 577.544 3.74869 1.99396 0
M  V30 5922 O 578.568 3.17601 1.61269 0
M  V30 5923 O 577.427 4.75387 2.69573 0
M  V30 5924 H 574.521 0.701186 0.438483 0
M  V30 5925 H 577.067 1.68768 0.177599 0
M  V30 5926 H 575.839 3.8427 0.738416 0
M  V30 5927 H 575.462 3.21775 2.33552 0
M  V30 5928 N 576.459 -0.456382 1.50847 0
M  V30 5929 C 577.687 -1.23026 1.66349 0
M  V30 5930 C 578.102 -1.85473 0.352868 0
M  V30 5931 O 577.459 -1.69885 -0.666739 0
M  V30 5932 C 577.51 -2.32827 2.76539 0
M  V30 5933 O 577.231 -1.72938 4.02522 0
M  V30 5934 C 578.732 -3.23448 3.03144 0
M  V30 5935 H 575.952 -0.371527 0.558756 0
M  V30 5936 H 578.496 -0.543082 1.97157 0
M  V30 5937 H 576.651 -2.97294 2.48384 0
M  V30 5938 H 577.065 -2.45357 4.63573 0
M  V30 5939 H 578.539 -3.96669 3.83872 0
M  V30 5940 H 579.016 -3.83094 2.14793 0
M  V30 5941 H 579.622 -2.64702 3.32886 0
M  V30 5942 N 577.937 -1.40673 -0.710563 0
M  V30 5943 C 578.87 -1.35742 -1.83438 0
M  V30 5944 C 579.848 -0.226997 -1.61008 0
M  V30 5945 O 581.032 -0.411477 -1.83954 0
M  V30 5946 C 578.159 -1.11374 -3.19865 0
M  V30 5947 C 577.205 -2.26935 -3.61113 0
M  V30 5948 S 578.038 -3.89352 -3.67648 0
M  V30 5949 C 579.194 -3.67258 -5.06826 0
M  V30 5950 H 579.427 -2.30848 -1.87341 0
M  V30 5951 H 576.96 -1.27018 -0.877831 0
M  V30 5952 H 578.918 -0.980004 -3.9863 0
M  V30 5953 H 577.579 -0.179135 -3.13589 0
M  V30 5954 H 576.772 -2.0554 -4.60184 0
M  V30 5955 H 576.374 -2.36638 -2.89618 0
M  V30 5956 H 578.666 -3.26036 -5.93891 0
M  V30 5957 H 579.609 -4.65878 -5.33257 0
M  V30 5958 H 580.017 -3.0084 -4.77656 0
M  V30 5959 N 579.415 0.9433 -1.26252 0
M  V30 5960 C 580.664 1.68369 -1.11062 0
M  V30 5961 C 580.977 1.92514 0.346104 0
M  V30 5962 O 582.183 2.64358 0.618646 0
M  V30 5963 C 580.639 3.03171 -1.93946 0
M  V30 5964 C 580.247 2.86782 -3.4418 0
M  V30 5965 C 581.991 3.80916 -1.87359 0
M  V30 5966 C 579.898 4.17044 -4.19319 0
M  V30 5967 H 578.828 0.631469 -0.412023 0
M  V30 5968 H 581.479 1.04922 -1.50544 0
M  V30 5969 H 579.861 3.67587 -1.47296 0
M  V30 5970 H 581.035 2.31229 -3.98585 0
M  V30 5971 H 579.35 2.22482 -3.51981 0
M  V30 5972 H 581.947 4.77417 -2.40784 0
M  V30 5973 H 582.29 4.07658 -0.843857 0
M  V30 5974 H 582.823 3.2327 -2.31821 0
M  V30 5975 H 579.562 3.95487 -5.22753 0
M  V30 5976 H 579.082 4.72319 -3.69696 0
M  V30 5977 H 580.761 4.85513 -4.27651 0
M  V30 5978 N 580.893 1.08022 1.14757 0
M  V30 5979 C 582.304 0.829144 1.67279 0
M  V30 5980 C 582.655 -0.644721 1.85305 0
M  V30 5981 O 581.78 -1.49838 1.56133 0
M  V30 5982 C 582.375 1.49855 3.03857 0
M  V30 5983 C 580.934 1.29482 3.53428 0
M  V30 5984 C 580.081 1.56386 2.28995 0
M  V30 5985 H 583.032 1.24134 0.988762 0
M  V30 5986 H 583.053 0.923572 3.69121 0
M  V30 5987 H 582.565 2.57123 2.90705 0
M  V30 5988 H 580.666 0.242669 3.71809 0
M  V30 5989 H 580.779 2.01974 4.34446 0
M  V30 5990 H 579.143 0.985217 2.34874 0
M  V30 5991 H 579.926 2.64851 2.18423 0
M  V30 5992 N 582.371 -1.3172 0.865308 0
M  V30 5993 C 583.301 -2.31109 0.333302 0
M  V30 5994 C 584.282 -1.60148 -0.573301 0
M  V30 5995 O 585.467 -1.87882 -0.491305 0
M  V30 5996 C 582.597 -3.44104 -0.470078 0
M  V30 5997 C 581.551 -4.26623 0.343021 0
M  V30 5998 C 580.877 -5.31482 -0.585756 0
M  V30 5999 C 582.177 -4.98001 1.57456 0
M  V30 6000 H 583.871 -2.75855 1.1638 0
M  V30 6001 H 581.417 -1.3262 0.561069 0
M  V30 6002 H 583.37 -4.12682 -0.852752 0
M  V30 6003 H 582.094 -2.98112 -1.33404 0
M  V30 6004 H 580.753 -3.59707 0.707583 0
M  V30 6005 H 580.401 -4.81741 -1.44686 0
M  V30 6006 H 580.101 -5.87582 -0.0456494 0
M  V30 6007 H 581.625 -6.0292 -0.965375 0
M  V30 6008 H 583.039 -5.59201 1.26359 0
M  V30 6009 H 581.436 -5.63876 2.05339 0
M  V30 6010 H 582.506 -4.25253 2.32997 0
M  V30 6011 N 583.85 -0.624285 -1.44708 0
M  V30 6012 C 584.798 0.0969952 -2.32398 0
M  V30 6013 C 585.792 0.842762 -1.46949 0
M  V30 6014 O 586.998 0.756436 -1.63334 0
M  V30 6015 H 583.373 0.0501306 -0.750327 0
M  V30 6016 H 585.344 -0.660767 -2.90992 0
M  V30 6017 C 584.093 1.06967 -3.30837 0
M  V30 6018 H 583.416 0.505242 -3.96595 0
M  V30 6019 H 584.856 1.54397 -3.94889 0
M  V30 6020 C 583.315 2.15153 -2.5925 0
M  V30 6021 O 583.845 3.23139 -2.3863 0
M  V30 6022 N 582.051 1.90898 -2.19103 0
M  V30 6023 H 581.598 1.03086 -2.36074 0
M  V30 6024 H 581.556 2.63485 -1.71531 0
M  V30 6025 N 585.328 1.53329 -0.364422 0
M  V30 6026 C 586.258 2.28627 0.474543 0
M  V30 6027 C 587.239 1.31009 1.08492 0
M  V30 6028 O 588.424 1.59878 1.10239 0
M  V30 6029 C 585.554 3.07465 1.61501 0
M  V30 6030 C 584.508 4.1276 1.13194 0
M  V30 6031 C 583.834 4.79674 2.36255 0
M  V30 6032 C 585.134 5.21847 0.217507 0
M  V30 6033 H 586.828 2.99005 -0.153656 0
M  V30 6034 H 584.374 1.43803 -0.0753406 0
M  V30 6035 H 586.327 3.58889 2.20855 0
M  V30 6036 H 585.051 2.34775 2.27042 0
M  V30 6037 H 583.71 3.62281 0.56109 0
M  V30 6038 H 583.358 4.03557 3.00251 0
M  V30 6039 H 583.058 5.50827 2.04606 0
M  V30 6040 H 584.582 5.33892 2.96297 0
M  V30 6041 H 585.996 5.6878 0.718493 0
M  V30 6042 H 584.393 6.00099 -0.00806408 0
M  V30 6043 H 585.463 4.7921 -0.740653 0
M  V30 6044 N 586.806 0.0935595 1.57322 0
M  V30 6045 C 587.716 -0.880192 2.17462 0
M  V30 6046 C 588.732 -1.31135 1.14366 0
M  V30 6047 O 589.908 -1.37958 1.46729 0
M  V30 6048 C 586.973 -2.12184 2.74188 0
M  V30 6049 C 586.034 -1.74503 3.92234 0
M  V30 6050 C 585.267 -2.92748 4.46245 0
M  V30 6051 O 585.49 -4.07427 3.99198 0
M  V30 6052 O 584.424 -2.71303 5.37288 0
M  V30 6053 H 588.25 -0.398516 3.01074 0
M  V30 6054 H 585.835 -0.130707 1.48827 0
M  V30 6055 H 587.717 -2.84953 3.10451 0
M  V30 6056 H 586.392 -2.59407 1.93623 0
M  V30 6057 H 585.299 -0.989186 3.60785 0
M  V30 6058 H 586.632 -1.32044 4.74157 0
M  V30 6059 N 588.284 -1.56567 -0.180126 0
M  V30 6060 C 589.509 -1.85975 -0.918041 0
M  V30 6061 C 589.934 -0.678888 -1.75422 0
M  V30 6062 O 589.292 0.372168 -1.77439 0
M  V30 6063 C 589.34 -3.13731 -1.77779 0
M  V30 6064 O 588.444 -2.95335 -2.87838 0
M  V30 6065 H 587.785 -0.61196 -0.257683 0
M  V30 6066 H 590.315 -2.03798 -0.180923 0
M  V30 6067 H 590.325 -3.4491 -2.17948 0
M  V30 6068 H 589 -3.99293 -1.16352 0
M  V30 6069 H 587.577 -2.7549 -2.51316 0
M  V30 6070 N 589.762 0.448376 -1.51087 0
M  V30 6071 C 590.99 1.22143 -1.66999 0
M  V30 6072 C 591.405 1.85283 -0.362699 0
M  V30 6073 O 590.762 1.70236 0.65772 0
M  V30 6074 C 590.813 2.31357 -2.7777 0
M  V30 6075 O 590.534 1.70801 -4.03434 0
M  V30 6076 C 592.035 3.21836 -3.04855 0
M  V30 6077 H 589.255 0.368558 -0.560719 0
M  V30 6078 H 591.799 0.532618 -1.97442 0
M  V30 6079 H 589.954 2.95973 -2.49958 0
M  V30 6080 H 590.368 2.42895 -4.64868 0
M  V30 6081 H 591.842 3.94627 -3.85971 0
M  V30 6082 H 592.319 3.81949 -2.16821 0
M  V30 6083 H 592.925 2.62933 -3.34285 0
M  V30 6084 N 591.24 1.41047 0.703093 0
M  V30 6085 C 592.187 1.42302 1.81711 0
M  V30 6086 C 593.157 0.278336 1.63751 0
M  V30 6087 O 594.342 0.478266 1.84709 0
M  V30 6088 C 591.482 1.30362 3.19531 0
M  V30 6089 C 590.595 2.54638 3.48975 0
M  V30 6090 C 589.73 2.35047 4.76368 0
M  V30 6091 C 588.769 3.54837 4.98756 0
M  V30 6092 N 587.906 3.34363 6.1737 0
M  V30 6093 H 592.746 2.37516 1.79973 0
M  V30 6094 H 590.283 1.1795 0.878983 0
M  V30 6095 H 592.241 1.21443 3.99134 0
M  V30 6096 H 590.871 0.387602 3.20464 0
M  V30 6097 H 589.923 2.74037 2.63833 0
M  V30 6098 H 591.235 3.43766 3.61423 0
M  V30 6099 H 590.389 2.23552 5.64012 0
M  V30 6100 H 589.128 1.43363 4.66153 0
M  V30 6101 H 588.133 3.66795 4.09563 0
M  V30 6102 H 589.358 4.47464 5.10835 0
M  V30 6103 H 587.304 2.45373 6.08382 0
M  V30 6104 H 587.221 4.17063 6.30551 0
M  V30 6105 H 588.489 3.26626 7.07768 0
M  V30 6106 N 592.718 -0.936591 1.26751 0
M  V30 6107 C 594.134 -1.21095 1.03963 0
M  V30 6108 C 594.334 -2.00156 -0.232372 0
M  V30 6109 O 593.39 -2.3434 -0.940274 0
M  V30 6110 C 594.703 -1.96775 2.27377 0
M  V30 6111 C 596.251 -2.09749 2.32324 0
M  V30 6112 C 596.726 -2.88832 3.55443 0
M  V30 6113 N 598.217 -2.96404 3.55948 0
M  V30 6114 C 598.952 -3.58036 4.47881 0
M  V30 6115 N 598.448 -4.21132 5.50109 0
M  V30 6116 N 600.241 -3.55353 4.35523 0
M  V30 6117 H 592.392 -0.408173 2.08441 0
M  V30 6118 H 594.655 -0.243139 0.91629 0
M  V30 6119 H 594.361 -1.46094 3.19921 0
M  V30 6120 H 594.235 -2.97424 2.31989 0
M  V30 6121 H 596.622 -2.5962 1.40291 0
M  V30 6122 H 596.703 -1.08347 2.31721 0
M  V30 6123 H 596.347 -2.39647 4.47808 0
M  V30 6124 H 596.277 -3.90499 3.53296 0
M  V30 6125 H 598.768 -2.51552 2.82011 0
M  V30 6126 H 599.081 -4.66071 6.16439 0
M  V30 6127 H 597.426 -4.19705 5.53961 0
M  V30 6128 H 600.617 -3.05256 3.54875 0
M  V30 6129 H 600.79 -4.03097 5.07363 0
M  V30 6130 N 594.196 -1.08629 -1.14182 0
M  V30 6131 C 595.144 -0.71284 -2.21408 0
M  V30 6132 C 596.138 0.282457 -1.67029 0
M  V30 6133 O 597.344 0.144783 -1.79417 0
M  V30 6134 H 593.719 -0.212497 -0.721352 0
M  V30 6135 H 595.69 -1.6265 -2.50175 0
M  V30 6136 C 594.439 -0.140704 -3.47415 0
M  V30 6137 H 593.762 -0.897739 -3.8959 0
M  V30 6138 H 595.202 0.0827677 -4.23919 0
M  V30 6139 C 593.661 1.122 -3.17668 0
M  V30 6140 O 594.191 2.20652 -3.35672 0
M  V30 6141 N 592.397 1.03328 -2.71609 0
M  V30 6142 H 591.944 0.150666 -2.57159 0
M  V30 6143 H 591.902 1.8789 -2.52081 0
M  V30 6144 N 595.674 1.31259 -0.872281 0
M  V30 6145 C 596.902 2.00795 -0.498907 0
M  V30 6146 C 597.317 1.65464 0.909238 0
M  V30 6147 O 596.674 0.885073 1.59602 0
M  V30 6148 C 596.725 3.55625 -0.649092 0
M  V30 6149 O 596.446 3.89692 -2.00179 0
M  V30 6150 C 597.947 4.42434 -0.277034 0
M  V30 6151 H 595.167 0.642299 -0.194145 0
M  V30 6152 H 597.711 1.67438 -1.17408 0
M  V30 6153 H 595.866 3.87394 -0.0214402 0
M  V30 6154 H 596.28 4.84407 -2.01122 0
M  V30 6155 H 597.754 5.50299 -0.433064 0
M  V30 6156 H 598.231 4.32146 0.783989 0
M  V30 6157 H 598.837 4.16086 -0.880483 0
M  V30 6158 N 597.152 0.631951 1.44375 0
M  V30 6159 C 598.085 -0.121822 2.27875 0
M  V30 6160 C 599.063 -0.850457 1.38586 0
M  V30 6161 O 600.247 -0.854378 1.68026 0
M  V30 6162 C 597.374 -1.17859 3.17533 0
M  V30 6163 C 596.42 -0.550391 4.22934 0
M  V30 6164 S 597.253 0.660145 5.31415 0
M  V30 6165 C 598.409 -0.396613 6.24642 0
M  V30 6166 H 598.642 0.586537 2.91457 0
M  V30 6167 H 596.175 0.420146 1.48574 0
M  V30 6168 H 598.133 -1.78335 3.69739 0
M  V30 6169 H 596.794 -1.85915 2.53169 0
M  V30 6170 H 595.987 -1.34631 4.85685 0
M  V30 6171 H 595.589 -0.0202306 3.73995 0
M  V30 6172 H 597.881 -1.26893 6.65511 0
M  V30 6173 H 598.824 0.195345 7.0783 0
M  V30 6174 H 599.232 -0.72288 5.59852 0
M  V30 6175 N 598.631 -1.53133 0.372548 0
M  V30 6176 C 599.908 -1.93704 -0.271693 0
M  V30 6177 C 600.288 -1.30667 -1.65799 0
M  V30 6178 O 599.636 -0.46838 -2.23648 0
M  V30 6179 C 599.846 -3.47576 -0.314903 0
M  V30 6180 C 601.194 -4.20998 -0.551912 0
M  V30 6181 O 602.218 -3.53994 -0.39582 0
M  V30 6182 O 601.077 -5.39748 -0.85639 0
M  V30 6183 H 598.171 -0.810457 -0.164586 0
M  V30 6184 H 600.717 -1.6427 0.425838 0
M  V30 6185 H 599.489 -3.85749 0.656792 0
M  V30 6186 H 599.112 -3.83264 -1.05804 0
M  V30 6187 N 600.109 -0.101901 -1.5727 0
M  V30 6188 C 601.042 0.891377 -2.10071 0
M  V30 6189 C 602.02 1.27197 -1.01291 0
M  V30 6190 O 603.204 1.37602 -1.28833 0
M  V30 6191 C 600.331 2.19049 -2.58331 0
M  V30 6192 C 599.377 1.95925 -3.78834 0
M  V30 6193 S 600.21 1.19106 -5.22086 0
M  V30 6194 C 601.366 2.50234 -5.73702 0
M  V30 6195 H 601.599 0.442212 -2.93993 0
M  V30 6196 H 599.132 0.111529 -1.53997 0
M  V30 6197 H 601.09 2.937 -2.86793 0
M  V30 6198 H 599.751 2.61086 -1.74622 0
M  V30 6199 H 598.944 2.92143 -4.10693 0
M  V30 6200 H 598.546 1.29401 -3.50901 0
M  V30 6201 H 600.838 3.46173 -5.82384 0
M  V30 6202 H 601.781 2.22944 -6.72088 0
M  V30 6203 H 602.189 2.58818 -5.01671 0
M  V30 6204 N 601.587 1.56661 0.17182 0
M  V30 6205 C 602.817 1.85831 0.902804 0
M  V30 6206 C 603.225 0.685157 1.76358 0
M  V30 6207 O 602.568 -0.354947 1.80238 0
M  V30 6208 C 602.63 3.09406 1.83053 0
M  V30 6209 C 602.294 4.4231 1.1494 0
M  V30 6210 C 603.291 5.17342 0.515104 0
M  V30 6211 C 600.976 4.89045 1.14631 0
M  V30 6212 C 602.97 6.37299 -0.113194 0
M  V30 6213 C 600.657 6.08933 0.514184 0
M  V30 6214 C 601.655 6.82904 -0.114463 0
M  V30 6215 O 601.343 8.00518 -0.736622 0
M  V30 6216 H 601.075 0.620715 0.267748 0
M  V30 6217 H 603.629 2.04637 0.176918 0
M  V30 6218 H 601.859 2.86544 2.59672 0
M  V30 6219 H 603.548 3.25027 2.4313 0
M  V30 6220 H 604.314 4.82317 0.509474 0
M  V30 6221 H 600.193 4.31409 1.62502 0
M  V30 6222 H 603.737 6.94976 -0.604477 0
M  V30 6223 H 599.634 6.43423 0.517395 0
M  V30 6224 H 600.402 8.16027 -0.635822 0
M  V30 6225 N 603.065 -0.440357 1.51323 0
M  V30 6226 C 604.481 -0.7766 1.39431 0
M  V30 6227 C 604.681 -1.95838 0.474296 0
M  V30 6228 O 603.737 -2.52398 -0.0716692 0
M  V30 6229 C 605.05 -1.05981 2.81405 0
M  V30 6230 C 606.598 -1.16442 2.90534 0
M  V30 6231 C 607.073 -1.48058 4.33408 0
M  V30 6232 N 608.564 -1.54988 4.36501 0
M  V30 6233 C 609.299 -1.81017 5.44078 0
M  V30 6234 N 608.795 -2.04858 6.61819 0
M  V30 6235 N 610.588 -1.82774 5.31554 0
M  V30 6236 H 602.739 0.338006 2.09693 0
M  V30 6237 H 605.002 0.0888072 0.943831 0
M  V30 6238 H 604.708 -0.264173 3.50706 0
M  V30 6239 H 604.582 -1.98822 3.20546 0
M  V30 6240 H 606.969 -1.95068 2.21432 0
M  V30 6241 H 607.05 -0.215088 2.54894 0
M  V30 6242 H 606.694 -0.699605 5.03059 0
M  V30 6243 H 606.624 -2.44192 4.66559 0
M  V30 6244 H 609.115 -1.38479 3.51613 0
M  V30 6245 H 609.428 -2.2408 7.396 0
M  V30 6246 H 607.773 -2.02187 6.6494 0
M  V30 6247 H 610.964 -1.63665 4.38556 0
M  V30 6248 H 611.137 -2.02722 6.15474 0
M  V30 6249 N 604.543 -1.41418 -0.695603 0
M  V30 6250 C 605.789 -1.40982 -1.4578 0
M  V30 6251 C 606.122 -0.0187763 -1.94191 0
M  V30 6252 O 605.397 0.95346 -1.69527 0
M  V30 6253 C 605.68 -2.41657 -2.66972 0
M  V30 6254 C 605.533 -3.89869 -2.24327 0
M  V30 6255 C 606.852 -2.39589 -3.69168 0
M  V30 6256 H 603.971 -0.513405 -0.528757 0
M  V30 6257 H 606.613 -1.72693 -0.792275 0
M  V30 6258 H 604.763 -2.14746 -3.23754 0
M  V30 6259 H 606.435 -4.27683 -1.72872 0
M  V30 6260 H 604.678 -4.04737 -1.56111 0
M  V30 6261 H 605.349 -4.55857 -3.11285 0
M  V30 6262 H 607.825 -2.63471 -3.2206 0
M  V30 6263 H 606.701 -3.12044 -4.51575 0
M  V30 6264 H 606.962 -1.41447 -4.18862 0
M  V30 6265 N 606.021 0.929856 -1.27246 0
M  V30 6266 C 607.249 1.71144 -1.16265 0
M  V30 6267 C 607.664 1.867 0.280786 0
M  V30 6268 O 607.021 1.38249 1.19136 0
M  V30 6269 C 607.072 3.11222 -1.83911 0
M  V30 6270 O 606.793 2.96398 -3.22614 0
M  V30 6271 C 608.294 4.05541 -1.79028 0
M  V30 6272 H 605.514 0.535499 -0.404328 0
M  V30 6273 H 608.058 1.16492 -1.68077 0
M  V30 6274 H 606.213 3.6274 -1.36009 0
M  V30 6275 H 606.627 3.8494 -3.56261 0
M  V30 6276 H 608.101 5.01351 -2.30978 0
M  V30 6277 H 608.578 4.32589 -0.759168 0
M  V30 6278 H 609.184 3.59947 -2.26535 0
M  V30 6279 N 607.499 1.09233 1.13605 0
M  V30 6280 C 608.429 0.751738 2.21068 0
M  V30 6281 C 609.41 -0.269688 1.67948 0
M  V30 6282 O 610.595 -0.13819 1.93708 0
M  V30 6283 C 607.725 0.16935 3.46887 0
M  V30 6284 C 606.679 1.12007 4.13084 0
M  V30 6285 C 606.005 0.399483 5.33206 0
M  V30 6286 C 607.305 2.46168 4.6065 0
M  V30 6287 H 608.999 1.65024 2.49815 0
M  V30 6288 H 606.545 0.794905 1.20072 0
M  V30 6289 H 608.498 -0.0809824 4.21322 0
M  V30 6290 H 607.222 -0.764335 3.1753 0
M  V30 6291 H 605.881 1.35564 3.40614 0
M  V30 6292 H 605.529 -0.538277 5.00112 0
M  V30 6293 H 605.229 1.03337 5.78442 0
M  V30 6294 H 606.753 0.157403 6.10397 0
M  V30 6295 H 608.167 2.26829 5.26518 0
M  V30 6296 H 606.564 3.05326 5.1662 0
M  V30 6297 H 607.634 3.07076 3.75276 0
M  V30 6298 N 608.977 -1.30795 0.87923 0
M  V30 6299 C 610.202 -2.01063 0.508769 0
M  V30 6300 C 610.627 -1.65508 -0.893803 0
M  V30 6301 O 609.985 -0.868616 -1.59138 0
M  V30 6302 C 610.033 -3.54054 0.683991 0
M  V30 6303 O 609.137 -4.11498 -0.272654 0
M  V30 6304 H 608.478 -0.632786 0.201191 0
M  V30 6305 H 611.008 -1.66776 1.18519 0
M  V30 6306 H 611.018 -4.03845 0.580798 0
M  V30 6307 H 609.693 -3.79271 1.70665 0
M  V30 6308 H 608.27 -3.72695 -0.12364 0
M  V30 6309 N 610.455 -0.639598 -1.44038 0
M  V30 6310 C 611.732 -0.078012 -1.95444 0
M  V30 6311 C 612.112 1.39847 -1.58133 0
M  V30 6312 O 611.46 2.11714 -0.859614 0
M  V30 6313 C 611.67 -0.309832 -3.47622 0
M  V30 6314 C 613.018 -0.207521 -4.24093 0
M  V30 6315 O 614.042 -0.241653 -3.55379 0
M  V30 6316 O 612.901 -0.119641 -5.46369 0
M  V30 6317 H 609.995 0.0174534 -0.826816 0
M  V30 6318 H 612.541 -0.711891 -1.54046 0
M  V30 6319 H 611.313 -1.33401 -3.67858 0
M  V30 6320 H 610.936 0.357777 -3.95987 0
M  V30 6321 N 611.933 1.52934 -0.380664 0
M  V30 6322 C 613.158 2.06363 0.207157 0
M  V30 6323 C 613.583 1.25122 1.4045 0
M  V30 6324 O 612.941 0.274062 1.79217 0
M  V30 6325 C 612.989 3.56162 0.563996 0
M  V30 6326 O 612.093 3.77552 1.65917 0
M  V30 6327 H 611.434 0.663468 0.0265859 0
M  V30 6328 H 613.964 1.9719 -0.545635 0
M  V30 6329 H 613.974 3.99453 0.830752 0
M  V30 6330 H 612.649 4.14732 -0.311427 0
M  V30 6331 H 611.226 3.46154 1.3868 0
M  V30 6332 N 613.412 0.11024 1.57214 0
M  V30 6333 C 614.375 -0.828808 2.1369 0
M  V30 6334 C 615.375 -1.20059 1.06969 0
M  V30 6335 O 616.565 -1.12754 1.32786 0
M  V30 6336 C 613.697 -2.11959 2.66994 0
M  V30 6337 H 614.89 -0.338146 2.97988 0
M  V30 6338 H 612.443 -0.138913 1.55681 0
M  V30 6339 H 613.178 -2.65476 1.8626 0
M  V30 6340 H 612.963 -1.86258 3.45037 0
M  V30 6341 H 614.453 -2.79105 3.10629 0
M  V30 6342 N 614.89 -1.56749 -0.16351 0
M  V30 6343 C 616.167 -1.73321 -0.906599 0
M  V30 6344 C 616.547 -0.673779 -2.00059 0
M  V30 6345 O 615.895 0.310121 -2.26386 0
M  V30 6346 C 616.105 -3.168 -1.46419 0
M  V30 6347 C 617.453 -3.77993 -1.93407 0
M  V30 6348 O 618.477 -3.20127 -1.56196 0
M  V30 6349 O 617.336 -4.79615 -2.61976 0
M  V30 6350 H 614.43 -0.708073 -0.427272 0
M  V30 6351 H 616.976 -1.69029 -0.150727 0
M  V30 6352 H 615.748 -3.85396 -0.677189 0
M  V30 6353 H 615.371 -3.2545 -2.28403 0
M  V30 6354 N 616.368 0.432326 -1.51554 0
M  V30 6355 C 617.298 1.53242 -1.76179 0
M  V30 6356 C 618.279 1.58717 -0.611801 0
M  V30 6357 O 619.464 1.74364 -0.855033 0
M  V30 6358 C 616.594 2.91278 -1.89141 0
M  V30 6359 C 615.548 3.00663 -3.04608 0
M  V30 6360 C 614.874 4.40728 -3.02759 0
M  V30 6361 C 616.174 2.74281 -4.44485 0
M  V30 6362 H 617.868 1.32886 -2.68294 0
M  V30 6363 H 615.414 0.637841 -1.29103 0
M  V30 6364 H 617.367 3.68203 -2.04951 0
M  V30 6365 H 616.091 3.12877 -0.936785 0
M  V30 6366 H 614.75 2.26179 -2.88511 0
M  V30 6367 H 614.398 4.59301 -2.05065 0
M  V30 6368 H 614.098 4.47936 -3.80299 0
M  V30 6369 H 615.622 5.19619 -3.20669 0
M  V30 6370 H 617.036 3.40936 -4.60907 0
M  V30 6371 H 615.433 2.92893 -5.23769 0
M  V30 6372 H 616.503 1.69856 -4.54177 0
M  V30 6373 N 617.846 1.41785 0.688094 0
M  V30 6374 C 619.071 1.45117 1.48175 0
M  V30 6375 C 619.496 0.060129 1.88004 0
M  V30 6376 O 618.854 -0.938385 1.55126 0
M  V30 6377 C 618.902 2.37224 2.71583 0
M  V30 6378 O 618.006 1.83443 3.69354 0
M  V30 6379 H 617.347 0.492208 0.445676 0
M  V30 6380 H 619.877 1.86329 0.845145 0
M  V30 6381 H 619.887 2.53353 3.19806 0
M  V30 6382 H 618.562 3.38293 2.41931 0
M  V30 6383 H 617.139 1.76802 3.28322 0
M  V30 6384 N 619.324 -0.923095 1.27737 0
M  V30 6385 C 620.256 -2.02871 1.06658 0
M  V30 6386 C 621.269 -1.62786 0.0212095 0
M  V30 6387 O 622.458 -1.76548 0.263267 0
M  V30 6388 C 619.558 -3.33603 0.59682 0
M  V30 6389 C 618.731 -4.02354 1.71551 0
M  V30 6390 C 617.79 -5.11364 1.24071 0
M  V30 6391 O 616.816 -5.35075 1.94123 0
M  V30 6392 N 618.018 -5.80416 0.0988444 0
M  V30 6393 H 620.783 -2.21515 2.01869 0
M  V30 6394 H 618.344 -1.09378 1.19365 0
M  V30 6395 H 620.336 -4.03845 0.262984 0
M  V30 6396 H 618.906 -3.11499 -0.262187 0
M  V30 6397 H 618.126 -3.25786 2.2194 0
M  V30 6398 H 619.414 -4.45035 2.46619 0
M  V30 6399 H 618.812 -5.63611 -0.485743 0
M  V30 6400 H 617.369 -6.51563 -0.17578 0
M  V30 6401 N 620.802 -1.09834 -1.13024 0
M  V30 6402 C 622.213 -0.855651 -1.65938 0
M  V30 6403 C 622.564 0.615159 -1.86307 0
M  V30 6404 O 621.689 1.47335 -1.58497 0
M  V30 6405 C 622.284 -1.5467 -3.01434 0
M  V30 6406 C 620.843 -1.35088 -3.51323 0
M  V30 6407 C 619.99 -1.6001 -2.26478 0
M  V30 6408 H 622.941 -1.25691 -0.968889 0
M  V30 6409 H 622.962 -0.982179 -3.67605 0
M  V30 6410 H 622.474 -2.61715 -2.86578 0
M  V30 6411 H 620.575 -0.30179 -3.71376 0
M  V30 6412 H 620.688 -2.0886 -4.31178 0
M  V30 6413 H 619.052 -1.02246 -2.33276 0
M  V30 6414 H 619.835 -2.68293 -2.14182 0
M  V30 6415 N 622.28 1.30327 -0.886154 0
M  V30 6416 C 623.529 1.95373 -0.501243 0
M  V30 6417 C 623.842 1.70722 0.954634 0
M  V30 6418 O 625.048 2.29761 1.44644 0
M  V30 6419 C 623.504 3.49828 -0.845493 0
M  V30 6420 C 623.112 3.83296 -2.31922 0
M  V30 6421 C 624.856 4.2118 -0.529838 0
M  V30 6422 C 622.763 5.30935 -2.60504 0
M  V30 6423 H 621.693 0.731274 -0.183722 0
M  V30 6424 H 624.344 1.48258 -1.08129 0
M  V30 6425 H 622.726 3.95522 -0.19452 0
M  V30 6426 H 623.9 3.48508 -3.01461 0
M  V30 6427 H 622.215 3.2505 -2.60253 0
M  V30 6428 H 624.812 5.29825 -0.720401 0
M  V30 6429 H 625.155 4.12902 0.530828 0
M  V30 6430 H 625.688 3.81173 -1.13806 0
M  V30 6431 H 622.427 5.44265 -3.65316 0
M  V30 6432 H 621.947 5.67019 -1.95575 0
M  V30 6433 H 623.626 5.98381 -2.46066 0
M  V30 6434 N 623.758 0.647228 1.43697 0
M  V30 6435 C 624.688 -0.0345631 2.33474 0
M  V30 6436 C 625.669 -0.818193 1.4913 0
M  V30 6437 O 626.854 -0.780867 1.77809 0
M  V30 6438 C 623.984 -1.00576 3.32418 0
M  V30 6439 C 622.938 -0.33266 4.26705 0
M  V30 6440 C 622.264 -1.41489 5.1564 0
M  V30 6441 C 623.564 0.771204 5.16575 0
M  V30 6442 H 625.258 0.715163 2.90733 0
M  V30 6443 H 622.804 0.345364 1.39797 0
M  V30 6444 H 624.757 -1.49159 3.94119 0
M  V30 6445 H 623.481 -1.78657 2.73403 0
M  V30 6446 H 622.14 0.13267 3.6636 0
M  V30 6447 H 621.788 -2.18698 4.52968 0
M  V30 6448 H 621.488 -0.969799 5.79542 0
M  V30 6449 H 623.012 -1.9022 5.80214 0
M  V30 6450 H 624.426 0.36779 5.72119 0
M  V30 6451 H 622.823 1.1404 5.89165 0
M  V30 6452 H 623.893 1.63169 4.56622 0
M  V30 6453 N 625.236 -1.5273 0.388769 0
M  V30 6454 C 626.476 -2.03483 -0.193372 0
M  V30 6455 C 626.84 -1.26897 -1.44087 0
M  V30 6456 O 628.041 -1.67773 -2.10014 0
M  V30 6457 C 626.312 -3.54488 -0.455325 0
M  V30 6458 S 627.871 -4.27069 -1.00783 0
M  V30 6459 H 624.689 -0.708907 -0.0545131 0
M  V30 6460 H 627.291 -1.8798 0.536993 0
M  V30 6461 H 625.995 -4.07817 0.459722 0
M  V30 6462 H 625.526 -3.74196 -1.21413 0
M  V30 6463 H 627.541 -4.40185 -2.29023 0
M  V30 6464 N 626.714 -0.118576 -1.57153 0
M  V30 6465 C 627.644 0.828436 -2.1831 0
M  V30 6466 C 628.625 1.27758 -1.12303 0
M  V30 6467 O 629.81 1.34026 -1.40537 0
M  V30 6468 C 626.94 2.07876 -2.78217 0
M  V30 6469 C 625.894 1.76742 -3.89803 0
M  V30 6470 C 625.22 3.08801 -4.36516 0
M  V30 6471 C 626.52 1.03606 -5.11921 0
M  V30 6472 H 628.214 0.318824 -2.97698 0
M  V30 6473 H 625.76 0.151911 -1.43196 0
M  V30 6474 H 627.713 2.74584 -3.19659 0
M  V30 6475 H 626.437 2.61161 -1.96118 0
M  V30 6476 H 625.096 1.12424 -3.48936 0
M  V30 6477 H 624.744 3.6002 -3.51276 0
M  V30 6478 H 624.444 2.88743 -5.11763 0
M  V30 6479 H 625.968 3.76627 -4.80608 0
M  V30 6480 H 627.382 1.60467 -5.50385 0
M  V30 6481 H 625.779 0.936454 -5.92748 0
M  V30 6482 H 626.849 0.0227421 -4.84895 0
M  V30 6483 N 628.193 1.56834 0.155195 0
M  V30 6484 C 629.418 1.87412 0.888337 0
M  V30 6485 C 629.843 0.70671 1.74319 0
M  V30 6486 O 629.201 -0.343892 1.78009 0
M  V30 6487 C 629.249 3.1652 1.72765 0
M  V30 6488 O 628.353 2.99877 2.83103 0
M  V30 6489 H 627.694 0.615983 0.247914 0
M  V30 6490 H 630.224 2.04061 0.148478 0
M  V30 6491 H 630.234 3.48334 2.12433 0
M  V30 6492 H 628.909 4.01094 1.09985 0
M  V30 6493 H 627.486 2.79453 2.46902 0
M  V30 6494 N 629.671 -0.424282 1.51781 0
M  V30 6495 C 630.601 -1.52305 1.7699 0
M  V30 6496 C 631.582 -1.5839 0.620209 0
M  V30 6497 O 632.767 -1.73908 0.864268 0
M  V30 6498 C 629.897 -2.90271 1.90683 0
M  V30 6499 C 628.851 -2.99043 3.06198 0
M  V30 6500 C 628.177 -4.39116 3.05092 0
M  V30 6501 C 629.477 -2.7192 4.45934 0
M  V30 6502 H 631.171 -1.31461 2.68995 0
M  V30 6503 H 628.717 -0.630985 1.29439 0
M  V30 6504 H 630.67 -3.6711 2.06901 0
M  V30 6505 H 629.394 -3.12376 0.953365 0
M  V30 6506 H 628.053 -2.24646 2.89706 0
M  V30 6507 H 627.701 -4.58207 2.07498 0
M  V30 6508 H 627.401 -4.45912 3.82669 0
M  V30 6509 H 628.925 -5.17911 3.2342 0
M  V30 6510 H 630.339 -3.38487 4.62709 0
M  V30 6511 H 628.736 -2.90111 5.25315 0
M  V30 6512 H 629.806 -1.67445 4.55072 0
M  V30 6513 N 631.149 -1.42148 -0.680565 0
M  V30 6514 C 632.374 -1.45901 -1.47403 0
M  V30 6515 C 632.799 -0.0700985 -1.87969 0
M  V30 6516 O 632.157 0.930145 -1.55621 0
M  V30 6517 C 632.205 -2.38661 -2.70321 0
M  V30 6518 O 631.309 -1.85399 -3.68376 0
M  V30 6519 H 630.65 -0.494565 -0.443059 0
M  V30 6520 H 633.18 -1.86774 -0.835251 0
M  V30 6521 H 633.19 -2.55046 -3.18458 0
M  V30 6522 H 631.865 -3.39571 -2.40134 0
M  V30 6523 H 630.442 -1.78541 -3.2738 0
M  V30 6524 N 632.627 0.916307 -1.28225 0
M  V30 6525 C 634.038 1.48024 -1.13779 0
M  V30 6526 C 634.389 1.94289 0.273139 0
M  V30 6527 O 633.514 1.82226 1.16716 0
M  V30 6528 C 634.109 2.69029 -2.05935 0
M  V30 6529 C 632.668 3.2161 -1.95561 0
M  V30 6530 C 631.815 1.94321 -1.97825 0
M  V30 6531 H 634.766 0.729272 -1.40951 0
M  V30 6532 H 634.787 3.44204 -1.62184 0
M  V30 6533 H 634.299 2.35325 -3.08616 0
M  V30 6534 H 632.4 3.60045 -0.959076 0
M  V30 6535 H 632.513 3.87032 -2.82388 0
M  V30 6536 H 630.877 2.1131 -1.42198 0
M  V30 6537 H 631.66 1.62917 -3.0218 0
M  V30 6538 N 634.105 1.10431 1.1244 0
M  V30 6539 C 635.068 0.756542 2.16354 0
M  V30 6540 C 636.068 -0.21899 1.59302 0
M  V30 6541 O 637.258 0.00415969 1.742 0
M  V30 6542 C 634.39 0.120612 3.40687 0
M  V30 6543 H 635.583 1.67696 2.48632 0
M  V30 6544 H 633.136 0.904832 1.27446 0
M  V30 6545 H 633.871 -0.810536 3.14008 0
M  V30 6546 H 633.656 0.822693 3.83372 0
M  V30 6547 H 635.146 -0.106945 4.17463 0
M  V30 6548 N 635.583 -1.29855 0.893053 0
M  V30 6549 C 636.808 -2.00512 0.530066 0
M  V30 6550 C 637.233 -1.66446 -0.876199 0
M  V30 6551 O 636.591 -0.885446 -1.58207 0
M  V30 6552 C 636.639 -3.53308 0.721505 0
M  V30 6553 O 635.743 -4.11764 -0.228994 0
M  V30 6554 H 635.084 -0.630617 0.207891 0
M  V30 6555 H 637.614 -1.6551 1.20282 0
M  V30 6556 H 637.624 -4.03206 0.623599 0
M  V30 6557 H 636.299 -3.77439 1.74678 0
M  V30 6558 H 634.876 -3.72805 -0.0841034 0
M  V30 6559 N 637.061 -0.65484 -1.43351 0
M  V30 6560 C 638.338 -0.0987371 -1.95351 0
M  V30 6561 C 638.718 1.38161 -1.59608 0
M  V30 6562 O 638.066 2.10791 -0.882021 0
M  V30 6563 C 638.276 -0.346684 -3.47274 0
M  V30 6564 C 639.624 -0.25249 -4.23849 0
M  V30 6565 O 640.648 -0.279332 -3.55103 0
M  V30 6566 O 639.507 -0.177584 -5.46211 0
M  V30 6567 H 636.601 0.0086829 -0.826954 0
M  V30 6568 H 639.147 -0.728189 -1.53282 0
M  V30 6569 H 637.919 -1.37296 -3.66423 0
M  V30 6570 H 637.542 0.315757 -3.96344 0
M  V30 6571 N 638.539 1.52521 -0.396863 0
M  V30 6572 C 639.95 1.86547 0.0754868 0
M  V30 6573 C 640.301 1.31621 1.45501 0
M  V30 6574 O 639.426 0.650563 2.0639 0
M  V30 6575 C 640.021 3.38495 0.143754 0
M  V30 6576 C 638.58 3.72205 0.560413 0
M  V30 6577 C 637.727 2.75954 -0.272856 0
M  V30 6578 H 640.678 1.46323 -0.614434 0
M  V30 6579 H 640.699 3.68153 0.961425 0
M  V30 6580 H 640.211 3.78442 -0.860415 0
M  V30 6581 H 638.312 3.3783 1.57167 0
M  V30 6582 H 638.425 4.78074 0.313314 0
M  V30 6583 H 636.789 2.53339 0.263 0
M  V30 6584 H 637.572 3.1874 -1.27515 0
M  V30 6585 N 640.017 0.126909 1.57088 0
M  V30 6586 C 641.433 -0.229641 1.57939 0
M  V30 6587 C 641.633 -1.66145 1.1401 0
M  V30 6588 O 640.689 -2.3843 0.831119 0
M  V30 6589 C 642.002 0.0108648 3.00698 0
M  V30 6590 C 643.55 -0.054418 3.12953 0
M  V30 6591 C 644.025 0.158497 4.57726 0
M  V30 6592 N 645.516 0.104735 4.63082 0
M  V30 6593 C 646.251 0.24427 5.72879 0
M  V30 6594 N 645.747 0.440415 6.91399 0
M  V30 6595 N 647.54 0.183286 5.61801 0
M  V30 6596 H 639.691 1.06203 1.83942 0
M  V30 6597 H 641.954 0.418834 0.85046 0
M  V30 6598 H 641.66 1.00102 3.37154 0
M  V30 6599 H 641.534 -0.717512 3.70313 0
M  V30 6600 H 643.921 -1.0351 2.7635 0
M  V30 6601 H 644.002 0.705967 2.45865 0
M  V30 6602 H 643.646 1.13619 4.95028 0
M  V30 6603 H 643.576 -0.62197 5.22914 0
M  V30 6604 H 646.067 -0.0430298 3.77876 0
M  V30 6605 H 646.38 0.537536 7.70928 0
M  V30 6606 H 644.725 0.476488 6.93365 0
M  V30 6607 H 647.916 0.0309561 4.6809 0
M  V30 6608 H 648.089 0.295471 6.47326 0
M  V30 6609 N 641.495 -1.56914 -0.146875 0
M  V30 6610 C 642.425 -2.01308 -1.1831 0
M  V30 6611 C 643.406 -0.892664 -1.44795 0
M  V30 6612 O 644.591 -1.16048 -1.55713 0
M  V30 6613 C 641.721 -2.3938 -2.51624 0
M  V30 6614 C 640.675 -3.54608 -2.3966 0
M  V30 6615 C 640.001 -3.78493 -3.77686 0
M  V30 6616 C 641.301 -4.87269 -1.88058 0
M  V30 6617 H 642.995 -2.88123 -0.813964 0
M  V30 6618 H 640.541 -1.38615 -0.3901 0
M  V30 6619 H 642.494 -2.69037 -3.24341 0
M  V30 6620 H 641.218 -1.49502 -2.90373 0
M  V30 6621 H 639.877 -3.25116 -1.69396 0
M  V30 6622 H 639.525 -2.85866 -4.13871 0
M  V30 6623 H 639.225 -4.56039 -3.70543 0
M  V30 6624 H 640.749 -4.10576 -4.51951 0
M  V30 6625 H 642.163 -5.15644 -2.50568 0
M  V30 6626 H 640.56 -5.68622 -1.91805 0
M  V30 6627 H 641.63 -4.77634 -0.836277 0
M  V30 6628 N 642.974 0.416227 -1.52004 0
M  V30 6629 C 644.199 1.19029 -1.69843 0
M  V30 6630 C 644.624 1.83708 -0.404103 0
M  V30 6631 O 643.982 1.69711 0.637787 0
M  V30 6632 C 644.03 2.23439 -2.83032 0
M  V30 6633 O 643.134 3.29419 -2.48106 0
M  V30 6634 H 642.475 0.347785 -0.565634 0
M  V30 6635 H 645.005 0.488871 -1.98674 0
M  V30 6636 H 645.015 2.67884 -3.07737 0
M  V30 6637 H 643.69 1.75745 -3.76944 0
M  V30 6638 H 642.267 2.90303 -2.34048 0
M  V30 6639 N 644.452 1.42507 0.673017 0
M  V30 6640 C 645.402 1.4258 1.77919 0
M  V30 6641 C 646.386 0.296885 1.58137 0
M  V30 6642 O 647.578 0.539243 1.68586 0
M  V30 6643 C 644.707 1.33238 3.1639 0
M  V30 6644 C 643.793 2.51081 3.41788 0
M  V30 6645 N 644.184 3.76498 3.37761 0
M  V30 6646 C 642.482 2.4538 3.72431 0
M  V30 6647 C 643.183 4.54784 3.62693 0
M  V30 6648 N 642.159 3.8522 3.83544 0
M  V30 6649 H 645.961 2.37442 1.73201 0
M  V30 6650 H 643.475 1.36881 0.873924 0
M  V30 6651 H 645.472 1.31372 3.9566 0
M  V30 6652 H 644.132 0.393794 3.22303 0
M  V30 6653 H 645.143 4.09068 3.17622 0
M  V30 6654 H 641.82 1.60109 3.85579 0
M  V30 6655 H 643.21 5.63774 3.65525 0
M  V30 6656 N 645.93 -0.909495 1.28709 0
M  V30 6657 C 647.158 -1.69272 1.18973 0
M  V30 6658 C 647.573 -1.87123 -0.251048 0
M  V30 6659 O 646.93 -1.40127 -1.16922 0
M  V30 6660 C 646.981 -3.08257 1.88839 0
M  V30 6661 O 646.702 -2.91228 3.27289 0
M  V30 6662 C 648.203 -4.02642 1.85457 0
M  V30 6663 H 645.423 -0.528999 0.412797 0
M  V30 6664 H 647.967 -1.13803 1.69909 0
M  V30 6665 H 646.122 -3.6053 1.41762 0
M  V30 6666 H 646.536 -3.79223 3.6234 0
M  V30 6667 H 648.01 -4.97613 2.38925 0
M  V30 6668 H 648.487 -4.31327 0.827893 0
M  V30 6669 H 649.093 -3.56298 2.32233 0
M  V30 6670 N 647.408 -1.11026 -1.11852 0
M  V30 6671 C 648.341 -0.708501 -2.16923 0
M  V30 6672 C 649.319 0.293196 -1.59935 0
M  V30 6673 O 650.503 0.190641 -1.87533 0
M  V30 6674 C 647.63 -0.0463705 -3.38668 0
M  V30 6675 C 646.676 -1.01252 -4.14307 0
M  V30 6676 S 647.509 -2.53291 -4.71809 0
M  V30 6677 C 648.665 -1.88366 -5.96883 0
M  V30 6678 H 648.898 -1.59854 -2.50667 0
M  V30 6679 H 646.431 -0.927869 -1.2341 0
M  V30 6680 H 648.389 0.329314 -4.09177 0
M  V30 6681 H 647.05 0.820562 -3.03192 0
M  V30 6682 H 646.243 -0.496596 -5.01548 0
M  V30 6683 H 645.845 -1.33042 -3.49537 0
M  V30 6684 H 648.137 -1.21753 -6.6647 0
M  V30 6685 H 649.08 -2.73588 -6.53112 0
M  V30 6686 H 649.488 -1.34562 -5.48227 0
M  V30 6687 N 648.886 1.2938 -0.899927 0
M  V30 6688 C 649.816 2.30144 -0.39446 0
M  V30 6689 C 650.797 1.61611 0.530639 0
M  V30 6690 O 651.982 1.89119 0.441319 0
M  V30 6691 C 649.112 3.45229 0.37868 0
M  V30 6692 C 648.066 4.25564 -0.456012 0
M  V30 6693 C 647.392 5.32848 0.444637 0
M  V30 6694 C 648.692 4.93651 -1.70605 0
M  V30 6695 H 650.386 2.72673 -1.23653 0
M  V30 6696 H 647.932 1.31086 -0.596034 0
M  V30 6697 H 649.885 4.14797 0.743037 0
M  V30 6698 H 648.609 3.01545 1.25453 0
M  V30 6699 H 647.268 3.57704 -0.802704 0
M  V30 6700 H 646.916 4.85408 1.31863 0
M  V30 6701 H 646.616 5.87497 -0.110154 0
M  V30 6702 H 648.14 6.05268 0.805182 0
M  V30 6703 H 649.554 5.55655 -1.41141 0
M  V30 6704 H 647.951 5.58233 -2.20217 0
M  V30 6705 H 649.021 4.18926 -2.4419 0
M  V30 6706 N 650.364 0.662433 1.43002 0
M  V30 6707 C 651.612 0.179237 2.01304 0
M  V30 6708 C 651.933 -1.21428 1.52579 0
M  V30 6709 O 651.203 -1.81294 0.742252 0
M  V30 6710 H 649.783 0.0632725 0.744316 0
M  V30 6711 H 652.445 0.856169 1.75088 0
M  V30 6712 H 651.541 0.170957 3.11631 0
M  V30 6713 N 651.842 -1.52309 0.404946 0
M  V30 6714 C 652.752 -2.30634 -0.429555 0
M  V30 6715 C 653.768 -1.38187 -1.05737 0
M  V30 6716 O 654.944 -1.71261 -1.05979 0
M  V30 6717 C 652.009 -3.10947 -1.53339 0
M  V30 6718 C 651.07 -4.19126 -0.929065 0
M  V30 6719 C 650.303 -4.95601 -1.9803 0
M  V30 6720 O 650.526 -4.72331 -3.1978 0
M  V30 6721 O 649.46 -5.80551 -1.58886 0
M  V30 6722 H 653.286 -3.0298 0.208963 0
M  V30 6723 H 650.871 -1.4845 0.168255 0
M  V30 6724 H 652.753 -3.60974 -2.1743 0
M  V30 6725 H 651.428 -2.41399 -2.15658 0
M  V30 6726 H 650.335 -3.73257 -0.250982 0
M  V30 6727 H 651.668 -4.90955 -0.349855 0
M  V30 6728 N 653.32 -0.135238 -1.57019 0
M  V30 6729 C 654.566 0.519563 -1.96032 0
M  V30 6730 C 654.899 1.65284 -1.01955 0
M  V30 6731 O 654.174 1.94408 -0.059727 0
M  V30 6732 C 654.457 1.0369 -3.44848 0
M  V30 6733 C 654.31 -0.0940754 -4.49702 0
M  V30 6734 C 655.629 1.92254 -3.95887 0
M  V30 6735 H 652.748 0.18739 -0.712779 0
M  V30 6736 H 655.39 -0.214086 -1.8879 0
M  V30 6737 H 653.54 1.66209 -3.5115 0
M  V30 6738 H 655.212 -0.73 -4.55487 0
M  V30 6739 H 653.455 -0.754924 -4.27181 0
M  V30 6740 H 654.126 0.309419 -5.51132 0
M  V30 6741 H 656.602 1.39581 -3.9199 0
M  V30 6742 H 655.478 2.25364 -5.00502 0
M  V30 6743 H 655.739 2.85513 -3.37543 0
M  V30 6744 N 654.798 1.5699 0.138552 0
M  V30 6745 C 655.728 2.01933 1.17241 0
M  V30 6746 C 656.709 0.90033 1.44319 0
M  V30 6747 O 657.894 1.16872 1.55095 0
M  V30 6748 C 655.024 2.40711 2.50351 0
M  V30 6749 C 653.978 3.55874 2.37776 0
M  V30 6750 C 653.304 3.80491 3.75674 0
M  V30 6751 C 654.604 4.8826 1.85472 0
M  V30 6752 H 656.298 2.88551 0.798672 0
M  V30 6753 H 653.844 1.3882 0.382743 0
M  V30 6754 H 655.797 2.70754 3.22909 0
M  V30 6755 H 654.521 1.5104 2.89576 0
M  V30 6756 H 653.18 3.2601 1.67669 0
M  V30 6757 H 652.828 2.88057 4.12349 0
M  V30 6758 H 652.528 4.57998 3.68119 0
M  V30 6759 H 654.052 4.12967 4.49767 0
M  V30 6760 H 655.466 5.16965 2.4783 0
M  V30 6761 H 653.863 5.69631 1.88787 0
M  V30 6762 H 654.933 4.78071 0.810935 0
M  V30 6763 N 656.276 -0.40816 1.52223 0
M  V30 6764 C 657.224 -1.51788 1.76248 0
M  V30 6765 C 658.218 -1.57264 0.629638 0
M  V30 6766 O 659.424 -1.60659 0.811704 0
M  V30 6767 H 655.799 -0.504823 0.557367 0
M  V30 6768 H 657.77 -1.2871 2.69214 0
M  V30 6769 C 656.519 -2.89145 1.93107 0
M  V30 6770 H 655.842 -2.85674 2.79697 0
M  V30 6771 H 657.282 -3.66082 2.13916 0
M  V30 6772 C 655.741 -3.29581 0.698431 0
M  V30 6773 O 656.271 -4.01479 -0.133238 0
M  V30 6774 N 654.477 -2.85651 0.53405 0
M  V30 6775 H 654.024 -2.2731 1.21194 0
M  V30 6776 H 653.982 -3.13065 -0.289387 0
M  V30 6777 N 657.755 -1.42862 -0.66545 0
M  V30 6778 C 658.985 -1.47032 -1.45138 0
M  V30 6779 C 659.393 -0.0829977 -1.89018 0
M  V30 6780 O 658.736 0.914551 -1.59316 0
M  V30 6781 C 658.798 -2.34302 -2.72659 0
M  V30 6782 C 658.462 -3.82034 -2.50796 0
M  V30 6783 C 659.459 -4.73453 -2.14799 0
M  V30 6784 C 657.144 -4.26397 -2.655 0
M  V30 6785 C 659.138 -6.07228 -1.93785 0
M  V30 6786 C 656.825 -5.6023 -2.44103 0
M  V30 6787 C 657.823 -6.50462 -2.08299 0
M  V30 6788 O 657.511 -7.8182 -1.87116 0
M  V30 6789 H 657.243 -0.501969 -0.452772 0
M  V30 6790 H 659.797 -1.88137 -0.82423 0
M  V30 6791 H 658.027 -1.88063 -3.37889 0
M  V30 6792 H 659.716 -2.29818 -3.34572 0
M  V30 6793 H 660.482 -4.4046 -2.03026 0
M  V30 6794 H 656.361 -3.56448 -2.92345 0
M  V30 6795 H 659.905 -6.7762 -1.65763 0
M  V30 6796 H 655.802 -5.92793 -2.55475 0
M  V30 6797 H 656.57 -7.93274 -2.01639 0
M  V30 6798 N 659.233 0.902656 -1.29189 0
M  V30 6799 C 660.463 1.68394 -1.19695 0
M  V30 6800 C 660.871 1.87602 0.245384 0
M  V30 6801 O 660.214 1.41084 1.17648 0
M  V30 6802 C 660.276 3.09094 -1.83578 0
M  V30 6803 C 659.94 3.1313 -3.32864 0
M  V30 6804 C 660.937 2.93497 -4.29134 0
M  V30 6805 C 658.622 3.3529 -3.74013 0
M  V30 6806 C 660.616 2.95953 -5.64527 0
M  V30 6807 C 658.303 3.37377 -5.09529 0
M  V30 6808 C 659.301 3.1773 -6.04596 0
M  V30 6809 O 658.989 3.196 -7.37639 0
M  V30 6810 H 658.721 0.532815 -0.416034 0
M  V30 6811 H 661.275 1.1374 -1.71033 0
M  V30 6812 H 659.505 3.65338 -1.26747 0
M  V30 6813 H 661.194 3.69297 -1.68447 0
M  V30 6814 H 661.96 2.76192 -3.98677 0
M  V30 6815 H 657.839 3.49623 -3.00474 0
M  V30 6816 H 661.383 2.80536 -6.38706 0
M  V30 6817 H 657.28 3.54213 -5.39633 0
M  V30 6818 H 658.048 3.35887 -7.46406 0
M  V30 6819 N 660.711 1.11618 1.11262 0
M  V30 6820 C 661.939 0.888739 1.8684 0
M  V30 6821 C 662.354 -0.561558 1.80255 0
M  V30 6822 O 661.711 -1.38782 1.18515 0
M  V30 6823 C 661.762 1.34422 3.35579 0
M  V30 6824 O 661.483 2.73766 3.42029 0
M  V30 6825 C 662.984 1.15246 4.28058 0
M  V30 6826 H 660.204 0.318152 0.590779 0
M  V30 6827 H 662.748 1.48398 1.40707 0
M  V30 6828 H 660.903 0.79239 3.7921 0
M  V30 6829 H 661.317 2.9355 4.34659 0
M  V30 6830 H 662.791 1.52015 5.30656 0
M  V30 6831 H 663.268 0.0922007 4.39103 0
M  V30 6832 H 663.874 1.69136 3.90222 0
M  V30 6833 N 662.189 -1.289 0.906776 0
M  V30 6834 C 663.139 -2.25122 0.361109 0
M  V30 6835 C 664.123 -1.52169 -0.52283 0
M  V30 6836 O 665.315 -1.73223 -0.363691 0
M  V30 6837 C 662.444 -3.40915 -0.403982 0
M  V30 6838 C 661.53 -4.21198 0.495279 0
M  V30 6839 N 661.921 -4.79636 1.60572 0
M  V30 6840 C 660.219 -4.45027 0.294372 0
M  V30 6841 C 660.92 -5.39977 2.16332 0
M  V30 6842 N 659.896 -5.23753 1.45546 0
M  V30 6843 H 663.698 -2.67869 1.20927 0
M  V30 6844 H 661.212 -1.43592 0.758632 0
M  V30 6845 H 663.209 -4.08922 -0.811695 0
M  V30 6846 H 661.869 -2.99703 -1.24932 0
M  V30 6847 H 662.88 -4.78209 1.98838 0
M  V30 6848 H 659.557 -4.14348 -0.512021 0
M  V30 6849 H 660.947 -5.96266 3.09704 0
M  V30 6850 N 663.667 -0.670007 -1.42649 0
M  V30 6851 C 664.913 -0.19923 -2.02422 0
M  V30 6852 C 665.268 1.17947 -1.52007 0
M  V30 6853 O 664.561 1.77939 -0.710512 0
M  V30 6854 C 664.755 -0.168298 -3.57004 0
M  V30 6855 C 664.584 -1.54246 -4.22419 0
M  V30 6856 C 663.354 -2.13904 -4.57792 0
M  V30 6857 C 665.552 -2.4842 -4.50324 0
M  V30 6858 N 663.534 -3.44151 -5.08364 0
M  V30 6859 C 664.905 -3.63317 -5.02395 0
M  V30 6860 C 666.96 -2.47011 -4.32308 0
M  V30 6861 C 665.663 -4.77051 -5.38345 0
M  V30 6862 C 667.689 -3.59838 -4.6933 0
M  V30 6863 C 667.051 -4.73462 -5.21549 0
M  V30 6864 H 663.15 -0.117717 -0.773089 0
M  V30 6865 H 665.734 -0.881955 -1.73579 0
M  V30 6866 H 663.905 0.483824 -3.85375 0
M  V30 6867 H 665.637 0.314914 -4.03473 0
M  V30 6868 H 662.392 -1.66441 -4.4339 0
M  V30 6869 H 662.816 -4.10846 -5.38084 0
M  V30 6870 H 667.458 -1.60394 -3.91195 0
M  V30 6871 H 665.176 -5.64347 -5.78393 0
M  V30 6872 H 668.762 -3.59969 -4.57071 0
M  V30 6873 H 667.642 -5.59321 -5.49663 0
M  V30 6874 N 665.145 1.52092 -0.413018 0
M  V30 6875 C 666.108 2.25706 0.398687 0
M  V30 6876 C 667.108 1.28221 0.970368 0
M  V30 6877 O 668.298 1.52131 0.848635 0
M  V30 6878 C 665.43 3.03029 1.5616 0
M  V30 6879 H 666.623 2.98888 -0.246131 0
M  V30 6880 H 664.176 1.5542 -0.165622 0
M  V30 6881 H 664.911 2.34205 2.24317 0
M  V30 6882 H 664.696 3.74606 1.15812 0
M  V30 6883 H 666.186 3.58857 2.13569 0
M  V30 6884 N 666.623 0.143563 1.56945 0
M  V30 6885 C 667.871 -0.507402 1.95627 0
M  V30 6886 C 668.192 -1.65626 1.02922 0
M  V30 6887 O 667.462 -1.95693 0.0901136 0
M  V30 6888 H 666.042 -0.190436 0.722318 0
M  V30 6889 H 668.704 0.218257 1.93674 0
M  V30 6890 H 667.8 -0.885816 2.99265 0
M  V30 6891 N 668.101 -1.57061 -0.130224 0
M  V30 6892 C 669.326 -1.88802 -0.858409 0
M  V30 6893 C 669.751 -0.734353 -1.73173 0
M  V30 6894 O 669.109 0.315529 -1.78533 0
M  V30 6895 C 669.157 -3.19228 -1.67708 0
M  V30 6896 O 668.261 -3.04343 -2.78297 0
M  V30 6897 H 667.602 -0.619849 -0.238083 0
M  V30 6898 H 670.132 -2.04271 -0.115995 0
M  V30 6899 H 670.142 -3.51669 -2.06864 0
M  V30 6900 H 668.817 -4.02793 -1.0359 0
M  V30 6901 H 667.394 -2.83346 -2.42425 0
M  V30 6902 N 669.579 0.400081 -1.52437 0
M  V30 6903 C 670.509 1.4947 -1.7939 0
M  V30 6904 C 671.49 1.57383 -0.645329 0
M  V30 6905 O 672.675 1.72511 -0.891826 0
M  V30 6906 C 669.805 2.87201 -1.95276 0
M  V30 6907 C 668.759 2.94134 -3.10917 0
M  V30 6908 C 668.085 4.34207 -3.1204 0
M  V30 6909 C 669.385 2.64791 -4.50203 0
M  V30 6910 H 671.079 1.27165 -2.71052 0
M  V30 6911 H 668.625 0.610312 -1.30427 0
M  V30 6912 H 670.578 3.63772 -2.12715 0
M  V30 6913 H 669.302 3.10819 -1.00294 0
M  V30 6914 H 667.961 2.20009 -2.93243 0
M  V30 6915 H 667.609 4.54848 -2.14761 0
M  V30 6916 H 667.309 4.39768 -3.89715 0
M  V30 6917 H 668.833 5.127 -3.31619 0
M  V30 6918 H 670.247 3.31083 -4.68035 0
M  V30 6919 H 668.644 2.81717 -5.29864 0
M  V30 6920 H 669.714 1.60184 -4.57678 0
M  V30 6921 N 671.057 1.43213 0.657864 0
M  V30 6922 C 672.004 1.48011 1.77092 0
M  V30 6923 C 672.974 0.330291 1.62783 0
M  V30 6924 O 674.159 0.536787 1.83094 0
M  V30 6925 C 671.299 1.40461 3.15222 0
M  V30 6926 C 670.412 2.65612 3.40697 0
M  V30 6927 C 669.547 2.50083 4.68649 0
M  V30 6928 C 668.586 3.70525 4.87214 0
M  V30 6929 N 667.723 3.53835 6.0642 0
M  V30 6930 H 672.563 2.43121 1.72326 0
M  V30 6931 H 670.1 1.20687 0.841013 0
M  V30 6932 H 672.058 1.34079 3.95068 0
M  V30 6933 H 670.688 0.489359 3.19069 0
M  V30 6934 H 669.74 2.82292 2.54982 0
M  V30 6935 H 671.052 3.5509 3.50303 0
M  V30 6936 H 670.206 2.41383 5.56614 0
M  V30 6937 H 668.945 1.58121 4.61356 0
M  V30 6938 H 667.95 3.79639 3.97686 0
M  V30 6939 H 669.175 4.63489 4.96341 0
M  V30 6940 H 667.121 2.64604 6.00267 0
M  V30 6941 H 667.038 4.36912 6.16963 0
M  V30 6942 H 668.306 3.48978 6.97019 0
M  V30 6943 N 672.536 -0.895792 1.29666 0
M  V30 6944 C 673.783 -1.64664 1.17864 0
M  V30 6945 C 674.111 -1.92631 -0.26902 0
M  V30 6946 O 673.366 -1.53787 -1.21029 0
M  V30 6947 C 673.665 -3.00075 1.94139 0
M  V30 6948 C 673.331 -2.91702 3.43833 0
M  V30 6949 C 671.993 -2.89126 3.84656 0
M  V30 6950 C 674.345 -2.80622 4.39205 0
M  V30 6951 C 671.673 -2.73293 5.1916 0
M  V30 6952 C 674.025 -2.66329 5.73805 0
M  V30 6953 C 672.689 -2.62121 6.1388 0
M  V30 6954 H 671.959 -0.602549 0.431295 0
M  V30 6955 H 674.606 -1.04234 1.60648 0
M  V30 6956 H 672.911 -3.64394 1.43958 0
M  V30 6957 H 674.608 -3.57111 1.82408 0
M  V30 6958 H 671.198 -2.94511 3.11386 0
M  V30 6959 H 675.382 -2.81686 4.08615 0
M  V30 6960 H 670.638 -2.68443 5.49316 0
M  V30 6961 H 674.812 -2.56727 6.47352 0
M  V30 6962 H 672.439 -2.49611 7.18052 0
M  V30 6963 N 674.014 -1.12206 -1.10668 0
M  V30 6964 C 675.242 -0.898635 -1.86366 0
M  V30 6965 C 675.657 0.551991 -1.80551 0
M  V30 6966 O 675.014 1.38152 -1.19249 0
M  V30 6967 C 675.065 -1.36199 -3.34861 0
M  V30 6968 O 674.786 -2.75576 -3.40573 0
M  V30 6969 C 676.287 -1.17515 -4.2744 0
M  V30 6970 H 673.507 -0.321281 -0.589084 0
M  V30 6971 H 676.051 -1.49142 -1.39918 0
M  V30 6972 H 674.206 -0.81249 -3.78784 0
M  V30 6973 H 674.62 -2.95851 -4.33096 0
M  V30 6974 H 676.094 -1.54827 -5.29842 0
M  V30 6975 H 676.571 -0.115486 -4.39048 0
M  V30 6976 H 677.177 -1.71203 -3.89319 0
M  V30 6977 N 675.492 1.28418 -0.913599 0
M  V30 6978 C 676.739 1.94981 -0.546674 0
M  V30 6979 C 677.067 1.7192 0.909606 0
M  V30 6980 O 676.322 1.03314 1.66207 0
M  V30 6981 C 676.621 3.48283 -0.802099 0
M  V30 6982 C 676.287 3.91444 -2.2379 0
M  V30 6983 C 674.949 4.02939 -2.63046 0
M  V30 6984 C 677.301 4.13542 -3.17227 0
M  V30 6985 C 674.629 4.3391 -3.94891 0
M  V30 6986 C 676.981 4.45992 -4.48636 0
M  V30 6987 C 675.645 4.55698 -4.87746 0
M  V30 6988 H 674.915 0.713487 -0.200042 0
M  V30 6989 H 677.562 1.52756 -1.15489 0
M  V30 6990 H 675.867 3.91643 -0.111076 0
M  V30 6991 H 677.564 3.97903 -0.497375 0
M  V30 6992 H 674.154 3.83024 -1.9233 0
M  V30 6993 H 678.338 4.04114 -2.88107 0
M  V30 6994 H 673.594 4.39631 -4.24894 0
M  V30 6995 H 677.768 4.62038 -5.21051 0
M  V30 6996 H 675.395 4.79451 -5.89942 0
M  V30 6997 N 676.97 0.677563 1.42291 0
M  V30 6998 C 677.9 0.014968 2.33495 0
M  V30 6999 C 678.881 -0.786376 1.50831 0
M  V30 7000 O 680.066 -0.742975 1.79426 0
M  V30 7001 C 677.196 -0.935023 3.34477 0
M  V30 7002 C 676.15 -0.242074 4.27315 0
M  V30 7003 C 675.476 -1.30519 5.18526 0
M  V30 7004 C 676.776 0.880604 5.14823 0
M  V30 7005 H 678.47 0.776671 2.89151 0
M  V30 7006 H 676.016 0.37494 1.39033 0
M  V30 7007 H 677.969 -1.40766 3.97194 0
M  V30 7008 H 676.693 -1.72818 2.77131 0
M  V30 7009 H 675.352 0.210351 3.65996 0
M  V30 7010 H 675 -2.09041 4.57505 0
M  V30 7011 H 674.7 -0.846652 5.81468 0
M  V30 7012 H 676.224 -1.7787 5.84119 0
M  V30 7013 H 677.638 0.489062 5.7121 0
M  V30 7014 H 676.035 1.26511 5.86613 0
M  V30 7015 H 677.105 1.72818 4.53059 0
M  V30 7016 N 678.448 -1.51871 0.421078 0
M  V30 7017 C 679.695 -2.01938 -0.15079 0
M  V30 7018 C 680.023 -1.30611 -1.44121 0
M  V30 7019 O 679.278 -0.404631 -1.91471 0
M  V30 7020 C 679.577 -3.54764 -0.433292 0
M  V30 7021 C 679.243 -4.44288 0.76936 0
M  V30 7022 C 677.905 -4.68477 1.09921 0
M  V30 7023 C 680.257 -4.96915 1.57242 0
M  V30 7024 C 677.585 -5.4254 2.2331 0
M  V30 7025 C 679.937 -5.7222 2.69716 0
M  V30 7026 C 678.601 -5.94678 3.03174 0
M  V30 7027 H 677.871 -0.738943 -0.0551781 0
M  V30 7028 H 680.518 -1.82977 0.564945 0
M  V30 7029 H 678.823 -3.71968 -1.23074 0
M  V30 7030 H 680.52 -3.91023 -0.888922 0
M  V30 7031 H 677.11 -4.25646 0.502305 0
M  V30 7032 H 681.294 -4.78125 1.3308 0
M  V30 7033 H 676.55 -5.58146 2.49565 0
M  V30 7034 H 680.724 -6.11992 3.32323 0
M  V30 7035 H 678.351 -6.51848 3.9115 0
M  V30 7036 N 679.926 -0.151884 -1.56866 0
M  V30 7037 C 681.166 0.500695 -1.98173 0
M  V30 7038 C 681.53 1.61715 -1.03499 0
M  V30 7039 O 682.731 2.33093 -1.33869 0
M  V30 7040 C 681.002 0.989333 -3.43434 0
M  V30 7041 S 682.561 1.64583 -4.06765 0
M  V30 7042 H 679.379 0.16173 -0.692361 0
M  V30 7043 H 681.981 -0.244754 -1.93962 0
M  V30 7044 H 680.685 0.166072 -4.10064 0
M  V30 7045 H 680.216 1.76929 -3.51368 0
M  V30 7046 H 682.231 2.93326 -4.00218 0
M  V30 7047 N 681.404 1.57128 0.121893 0
M  V30 7048 C 682.652 1.84335 0.828548 0
M  V30 7049 C 682.973 0.736632 1.80551 0
M  V30 7050 O 682.243 -0.23962 1.94429 0
M  V30 7051 H 680.823 0.680108 0.30897 0
M  V30 7052 H 683.485 1.9459 0.109906 0
M  V30 7053 H 682.581 2.80152 1.37554 0
M  V30 7054 N 682.882 -0.391992 1.52647 0
M  V30 7055 C 684.107 -1.16312 1.71716 0
M  V30 7056 C 684.532 -1.83042 0.433279 0
M  V30 7057 O 683.89 -1.70705 -0.610707 0
M  V30 7058 C 683.938 -2.18908 2.86551 0
M  V30 7059 O 683.042 -3.2543 2.53316 0
M  V30 7060 H 682.383 -0.338743 0.571095 0
M  V30 7061 H 684.913 -0.457202 1.99426 0
M  V30 7062 H 684.923 -2.62954 3.1196 0
M  V30 7063 H 683.598 -1.69726 3.79692 0
M  V30 7064 H 682.175 -2.86543 2.38637 0
M  V30 7065 N 684.36 -1.4356 -0.65026 0
M  V30 7066 C 685.293 -1.434 -1.77515 0
M  V30 7067 C 686.271 -0.295082 -1.599 0
M  V30 7068 O 687.455 -0.489128 -1.82043 0
M  V30 7069 C 684.582 -1.2484 -3.14853 0
M  V30 7070 C 683.628 -2.42046 -3.51163 0
M  V30 7071 S 684.461 -4.04595 -3.50803 0
M  V30 7072 C 685.617 -3.88424 -4.90793 0
M  V30 7073 H 685.85 -2.38586 -1.77381 0
M  V30 7074 H 683.383 -1.30627 -0.823169 0
M  V30 7075 H 685.341 -1.14819 -3.94115 0
M  V30 7076 H 684.002 -0.311977 -3.12547 0
M  V30 7077 H 683.195 -2.24873 -4.51052 0
M  V30 7078 H 682.797 -2.48708 -2.79321 0
M  V30 7079 H 685.089 -3.50932 -5.79528 0
M  V30 7080 H 686.032 -4.88076 -5.13018 0
M  V30 7081 H 686.44 -3.20829 -4.64467 0
M  V30 7082 N 685.838 0.888903 -1.30139 0
M  V30 7083 C 686.771 1.99655 -1.10514 0
M  V30 7084 C 687.749 1.62594 -0.0138934 0
M  V30 7085 O 688.933 1.87762 -0.166689 0
M  V30 7086 C 686.06 3.31708 -0.684655 0
M  V30 7087 C 685.106 3.87755 -1.77619 0
M  V30 7088 S 685.939 4.15532 -3.37777 0
M  V30 7089 C 687.095 5.5061 -2.97622 0
M  V30 7090 H 687.328 2.15996 -2.04287 0
M  V30 7091 H 684.861 1.03682 -1.14409 0
M  V30 7092 H 686.819 4.08039 -0.448782 0
M  V30 7093 H 685.48 3.1323 0.233648 0
M  V30 7094 H 684.673 4.83164 -1.43417 0
M  V30 7095 H 684.275 3.18149 -1.96614 0
M  V30 7096 H 686.567 6.31518 -2.45338 0
M  V30 7097 H 687.51 5.89747 -3.91924 0
M  V30 7098 H 687.918 5.12983 -2.35603 0
M  V30 7099 N 687.317 1.12792 1.10072 0
M  V30 7100 C 688.28 0.802264 2.14701 0
M  V30 7101 C 689.28 -0.18515 1.59731 0
M  V30 7102 O 690.47 0.041109 1.74151 0
M  V30 7103 C 687.602 0.19285 3.40354 0
M  V30 7104 H 688.795 1.72932 2.45019 0
M  V30 7105 H 686.348 0.931662 1.25498 0
M  V30 7106 H 687.083 -0.743748 3.15656 0
M  V30 7107 H 686.868 0.903827 3.81541 0
M  V30 7108 H 688.358 -0.0183704 4.17596 0
M  V30 7109 N 688.795 -1.27931 0.920396 0
M  V30 7110 C 690.023 -1.98805 0.573087 0
M  V30 7111 C 690.438 -1.68724 -0.847201 0
M  V30 7112 O 689.795 -0.943699 -1.56207 0
M  V30 7113 C 689.846 -3.52971 0.780633 0
M  V30 7114 O 689.567 -3.81994 2.14504 0
M  V30 7115 C 691.068 -4.411 0.44105 0
M  V30 7116 H 688.288 -0.634651 0.21785 0
M  V30 7117 H 690.832 -1.62965 1.23542 0
M  V30 7118 H 688.987 -3.87048 0.165204 0
M  V30 7119 H 689.401 -4.76609 2.18962 0
M  V30 7120 H 690.875 -5.48312 0.637006 0
M  V30 7121 H 691.352 -4.34758 -0.62306 0
M  V30 7122 H 691.958 -4.12532 1.0343 0
M  V30 7123 N 690.273 -0.685099 -1.4193 0
M  V30 7124 C 691.521 -0.21124 -2.00993 0
M  V30 7125 C 691.842 1.18985 -1.54491 0
M  V30 7126 O 691.112 1.8009 -0.771 0
M  V30 7127 H 689.692 -0.0751059 -0.743215 0
M  V30 7128 H 692.354 -0.883915 -1.73704 0
M  V30 7129 H 691.45 -0.220513 -3.1132 0
M  V30 7130 N 691.751 1.51645 -0.429126 0
M  V30 7131 C 692.698 2.27542 0.386446 0
M  V30 7132 C 693.668 1.30786 1.02393 0
M  V30 7133 O 694.853 1.59678 1.0444 0
M  V30 7134 C 691.993 3.11457 1.48623 0
M  V30 7135 C 691.106 4.23196 0.867691 0
M  V30 7136 C 690.241 4.94435 1.94183 0
M  V30 7137 C 689.28 5.98108 1.30129 0
M  V30 7138 N 688.417 6.62786 2.31644 0
M  V30 7139 H 693.257 2.968 -0.267155 0
M  V30 7140 H 690.794 1.46397 -0.143591 0
M  V30 7141 H 692.752 3.58429 2.13506 0
M  V30 7142 H 691.382 2.44329 2.10957 0
M  V30 7143 H 690.434 3.80248 0.107373 0
M  V30 7144 H 691.746 4.97499 0.35997 0
M  V30 7145 H 690.9 5.44914 2.66747 0
M  V30 7146 H 689.639 4.19744 2.48326 0
M  V30 7147 H 688.644 5.4693 0.561082 0
M  V30 7148 H 689.869 6.74751 0.767303 0
M  V30 7149 H 687.815 5.90913 2.84883 0
M  V30 7150 H 687.732 7.32828 1.85741 0
M  V30 7151 H 689 7.17897 3.03717 0
M  V30 7152 N 693.229 0.160201 1.56784 0
M  V30 7153 C 694.478 -0.487619 1.95717 0
M  V30 7154 C 694.791 -1.65136 1.0483 0
M  V30 7155 O 695.997 -2.36468 1.33398 0
M  V30 7156 C 694.453 -0.91888 3.47972 0
M  V30 7157 C 694.061 0.218655 4.47466 0
M  V30 7158 C 695.805 -1.53575 3.95746 0
M  V30 7159 C 693.712 -0.231614 5.90946 0
M  V30 7160 H 692.642 -0.185939 0.730714 0
M  V30 7161 H 695.293 0.246657 1.81835 0
M  V30 7162 H 693.675 -1.70881 3.57234 0
M  V30 7163 H 694.849 0.995825 4.49911 0
M  V30 7164 H 693.164 0.744767 4.09685 0
M  V30 7165 H 695.761 -1.88448 5.00391 0
M  V30 7166 H 696.104 -2.42959 3.38048 0
M  V30 7167 H 696.637 -0.810467 3.89456 0
M  V30 7168 H 693.376 0.62718 6.52493 0
M  V30 7169 H 692.896 -0.974379 5.91833 0
M  V30 7170 H 694.575 -0.67922 6.43425 0
M  V30 7171 N 694.707 -1.5719 -0.113559 0
M  V30 7172 C 695.637 -2.03772 -1.14013 0
M  V30 7173 C 696.618 -0.923176 -1.42869 0
M  V30 7174 O 697.803 -1.19325 -1.53216 0
M  V30 7175 C 694.933 -2.44663 -2.4649 0
M  V30 7176 C 693.887 -3.59612 -2.32085 0
M  V30 7177 C 693.213 -3.8642 -3.69573 0
M  V30 7178 C 694.513 -4.91149 -1.7768 0
M  V30 7179 H 696.207 -2.89785 -0.752665 0
M  V30 7180 H 693.753 -1.39412 -0.360609 0
M  V30 7181 H 695.706 -2.75857 -3.18561 0
M  V30 7182 H 694.43 -1.55628 -2.87137 0
M  V30 7183 H 693.089 -3.28636 -1.62461 0
M  V30 7184 H 692.737 -2.94581 -4.07715 0
M  V30 7185 H 692.437 -4.63797 -3.60786 0
M  V30 7186 H 693.961 -4.2007 -4.4314 0
M  V30 7187 H 695.375 -5.20843 -2.39574 0
M  V30 7188 H 693.772 -5.72562 -1.79701 0
M  V30 7189 H 694.842 -4.79301 -0.734776 0
M  V30 7190 N 696.185 0.383891 -1.52853 0
M  V30 7191 C 697.431 1.13009 -1.68395 0
M  V30 7192 C 697.764 1.89488 -0.425195 0
M  V30 7193 O 697.039 1.8574 0.577136 0
M  V30 7194 C 697.322 2.10419 -2.92226 0
M  V30 7195 C 697.175 1.3767 -4.28214 0
M  V30 7196 C 698.494 3.10781 -3.11614 0
M  V30 7197 H 695.613 0.409463 -0.612788 0
M  V30 7198 H 698.255 0.412895 -1.85459 0
M  V30 7199 H 696.405 2.71579 -2.77808 0
M  V30 7200 H 698.077 0.794352 -4.54409 0
M  V30 7201 H 696.32 0.678533 -4.2846 0
M  V30 7202 H 696.991 2.08874 -5.10956 0
M  V30 7203 H 699.467 2.59715 -3.25096 0
M  V30 7204 H 698.343 3.76179 -3.99725 0
M  V30 7205 H 698.604 3.79933 -2.2606 0
M  V30 7206 N 697.663 1.43903 0.642637 0
M  V30 7207 C 698.626 1.49538 1.73698 0
M  V30 7208 C 699.626 0.378776 1.56275 0
M  V30 7209 O 700.816 0.64095 1.6198 0
M  V30 7210 C 697.948 1.35821 3.12675 0
M  V30 7211 H 699.141 2.47008 1.70079 0
M  V30 7212 H 696.694 1.30824 0.85526 0
M  V30 7213 H 697.429 0.393994 3.21898 0
M  V30 7214 H 697.214 2.16776 3.26727 0
M  V30 7215 H 698.704 1.4272 3.92455 0
M  V30 7216 N 699.141 -0.881989 1.30609 0
M  V30 7217 C 700.371 -1.66469 1.22359 0
M  V30 7218 C 700.779 -1.87969 -0.215507 0
M  V30 7219 O 700.122 -1.42938 -1.15388 0
M  V30 7220 C 700.184 -3.06135 1.88472 0
M  V30 7221 C 699.848 -3.07795 3.37804 0
M  V30 7222 C 700.845 -2.86633 4.33749 0
M  V30 7223 C 698.53 -3.29297 3.793 0
M  V30 7224 C 700.524 -2.86934 5.69164 0
M  V30 7225 C 698.211 -3.29228 5.14832 0
M  V30 7226 C 699.209 -3.08071 6.09574 0
M  V30 7227 O 698.897 -3.07824 7.4263 0
M  V30 7228 H 698.629 -0.526129 0.424458 0
M  V30 7229 H 701.183 -1.11004 1.72821 0
M  V30 7230 H 699.413 -3.63276 1.32543 0
M  V30 7231 H 701.102 -3.66571 1.74301 0
M  V30 7232 H 701.868 -2.69814 4.0302 0
M  V30 7233 H 697.747 -3.44799 3.05998 0
M  V30 7234 H 701.291 -2.70339 6.43088 0
M  V30 7235 H 697.188 -3.45583 5.452 0
M  V30 7236 H 697.956 -3.2397 7.51656 0
M  V30 7237 N 700.619 -1.13374 -1.09472 0
M  V30 7238 C 701.582 -0.813639 -2.14272 0
M  V30 7239 C 702.582 0.176677 -1.59826 0
M  V30 7240 O 703.772 -0.0503441 -1.74127 0
M  V30 7241 C 700.904 -0.210897 -3.40247 0
M  V30 7242 H 702.097 -1.74229 -2.44099 0
M  V30 7243 H 699.65 -0.938304 -1.25002 0
M  V30 7244 H 700.385 0.726998 -3.16046 0
M  V30 7245 H 700.17 -0.924048 -3.81056 0
M  V30 7246 H 701.66 -0.00377603 -4.176 0
M  V30 7247 N 702.098 1.27442 -0.927168 0
M  V30 7248 C 703.509 1.76385 -0.611979 0
M  V30 7249 C 703.86 1.75715 0.872853 0
M  V30 7250 O 702.985 1.3603 1.683 0
M  V30 7251 C 703.58 3.20303 -1.10414 0
M  V30 7252 C 702.139 3.66916 -0.839628 0
M  V30 7253 C 701.286 2.46859 -1.26317 0
M  V30 7254 H 704.237 1.13716 -1.107 0
M  V30 7255 H 704.258 3.77811 -0.451578 0
M  V30 7256 H 703.77 3.20759 -2.18484 0
M  V30 7257 H 701.871 3.71906 0.227292 0
M  V30 7258 H 701.984 4.56415 -1.45679 0
M  V30 7259 H 700.348 2.45407 -0.681723 0
M  V30 7260 H 701.131 2.50025 -2.3525 0
M  V30 7261 N 703.576 0.692616 1.41565 0
M  V30 7262 C 704.987 0.297478 1.84315 0
M  V30 7263 C 705.338 -1.16379 1.57957 0
M  V30 7264 O 704.463 -1.89303 1.0485 0
M  V30 7265 C 705.058 0.533136 3.34579 0
M  V30 7266 C 703.617 0.191944 3.7591 0
M  V30 7267 C 702.764 0.816873 2.64995 0
M  V30 7268 H 705.715 0.893488 1.31158 0
M  V30 7269 H 705.736 -0.209105 3.79925 0
M  V30 7270 H 705.248 1.59674 3.53731 0
M  V30 7271 H 703.349 -0.867512 3.6236 0
M  V30 7272 H 703.462 0.644902 4.7474 0
M  V30 7273 H 701.826 0.246715 2.53502 0
M  V30 7274 H 702.609 1.88429 2.86966 0
M  V30 7275 N 705.054 -1.51416 0.437162 0
M  V30 7276 C 706.302 -2.01687 -0.129108 0
M  V30 7277 C 706.623 -1.32329 -1.43227 0
M  V30 7278 O 705.893 -0.457796 -1.90476 0
M  V30 7279 H 704.473 -0.745277 -0.0507023 0
M  V30 7280 H 707.135 -1.86075 0.579828 0
M  V30 7281 H 706.231 -3.10605 -0.305141 0
M  V30 7282 N 706.532 -0.168513 -1.56696 0
M  V30 7283 C 707.495 0.748928 -2.16619 0
M  V30 7284 C 708.495 1.16007 -1.11351 0
M  V30 7285 O 709.685 1.07748 -1.3688 0
M  V30 7286 C 706.817 2.01904 -2.74677 0
M  V30 7287 H 708.01 0.227317 -2.99037 0
M  V30 7288 H 705.563 0.0810372 -1.5609 0
M  V30 7289 H 706.298 2.58381 -1.95985 0
M  V30 7290 H 706.083 1.73323 -3.51712 0
M  V30 7291 H 707.573 2.67383 -3.20774 0
M  V30 7292 N 708.01 1.57248 0.105221 0
M  V30 7293 C 708.942 1.98008 1.15436 0
M  V30 7294 C 709.955 0.881236 1.36887 0
M  V30 7295 O 711.144 1.15943 1.35718 0
M  V30 7296 C 708.244 2.27509 2.51183 0
M  V30 7297 C 707.417 3.58811 2.50147 0
M  V30 7298 C 706.476 3.76365 3.67745 0
M  V30 7299 O 705.502 4.48329 3.50699 0
M  V30 7300 N 706.704 3.16174 4.86841 0
M  V30 7301 H 709.469 2.88616 0.807519 0
M  V30 7302 H 707.03 1.59202 0.29433 0
M  V30 7303 H 709.022 2.36455 3.28438 0
M  V30 7304 H 707.592 1.42959 2.77995 0
M  V30 7305 H 706.812 3.60927 1.5851 0
M  V30 7306 H 708.1 4.45088 2.46524 0
M  V30 7307 H 707.498 2.57701 5.03594 0
M  V30 7308 H 706.055 3.30621 5.61723 0
M  V30 7309 N 709.488 -0.375779 1.53054 0
M  V30 7310 C 710.899 -0.95309 1.6054 0
M  V30 7311 C 711.25 -1.90575 0.466446 0
M  V30 7312 O 710.375 -2.12507 -0.408609 0
M  V30 7313 C 710.97 -1.73537 2.90982 0
M  V30 7314 C 709.529 -2.26218 3.00836 0
M  V30 7315 C 708.676 -1.07157 2.55759 0
M  V30 7316 H 711.627 -0.154895 1.57942 0
M  V30 7317 H 711.648 -2.59574 2.78211 0
M  V30 7318 H 711.16 -1.04176 3.73857 0
M  V30 7319 H 709.261 -2.98852 2.22527 0
M  V30 7320 H 709.374 -2.54799 4.05727 0
M  V30 7321 H 707.738 -1.43553 2.10391 0
M  V30 7322 H 708.521 -0.393099 3.41042 0
M  V30 7323 N 710.966 -1.44241 -0.634997 0
M  V30 7324 C 712.377 -1.41622 -1.21655 0
M  V30 7325 C 712.728 -0.129584 -1.95772 0
M  V30 7326 O 711.853 0.770225 -2.02229 0
M  V30 7327 C 712.448 -2.56557 -2.21278 0
M  V30 7328 C 711.007 -2.57145 -2.7487 0
M  V30 7329 C 710.154 -2.33354 -1.49804 0
M  V30 7330 H 713.105 -1.52878 -0.425905 0
M  V30 7331 H 713.126 -2.29089 -3.03807 0
M  V30 7332 H 712.638 -3.50186 -1.67306 0
M  V30 7333 H 710.739 -1.67447 -3.32855 0
M  V30 7334 H 710.852 -3.55507 -3.21172 0
M  V30 7335 H 709.216 -1.82372 -1.77799 0
M  V30 7336 H 709.999 -3.29092 -0.977402 0
M  V30 7337 N 712.444 0.87505 -1.31075 0
M  V30 7338 C 713.672 1.66058 -1.23419 0
M  V30 7339 C 714.087 1.87723 0.201347 0
M  V30 7340 O 713.444 1.43178 1.13165 0
M  V30 7341 C 713.495 3.03142 -1.96945 0
M  V30 7342 O 713.216 2.82448 -3.34895 0
M  V30 7343 C 714.717 3.97583 -1.96067 0
M  V30 7344 H 711.937 0.517868 -0.426677 0
M  V30 7345 H 714.481 1.09258 -1.72867 0
M  V30 7346 H 712.636 3.56645 -1.51271 0
M  V30 7347 H 713.05 3.69483 -3.72267 0
M  V30 7348 H 714.524 4.91104 -2.52034 0
M  V30 7349 H 715.001 4.2898 -0.941961 0
M  V30 7350 H 715.607 3.50015 -2.41597 0
M  V30 7351 N 713.922 1.13953 1.08869 0
M  V30 7352 C 715.147 0.928559 1.85452 0
M  V30 7353 C 715.572 -0.517642 1.80837 0
M  V30 7354 O 714.93 -1.36779 1.19001 0
M  V30 7355 C 714.978 1.42814 3.31114 0
M  V30 7356 O 714.082 0.617129 4.07756 0
M  V30 7357 H 713.423 0.33235 0.574839 0
M  V30 7358 H 715.953 1.5156 1.37443 0
M  V30 7359 H 715.963 1.43425 3.8196 0
M  V30 7360 H 714.638 2.48109 3.33788 0
M  V30 7361 H 713.215 0.679365 3.66659 0
M  V30 7362 N 715.4 -1.26948 0.933913 0
M  V30 7363 C 716.816 -1.46419 0.635103 0
M  V30 7364 C 717.016 -1.84336 -0.813785 0
M  V30 7365 O 716.072 -1.96061 -1.59111 0
M  V30 7366 C 717.385 -2.55206 1.5903 0
M  V30 7367 C 718.933 -2.69062 1.5992 0
M  V30 7368 C 719.408 -3.81013 2.54152 0
M  V30 7369 N 720.899 -3.88395 2.52395 0
M  V30 7370 C 721.634 -4.74454 3.21996 0
M  V30 7371 N 721.13 -5.64954 4.00997 0
M  V30 7372 N 722.923 -4.68237 3.10983 0
M  V30 7373 H 715.074 -1.00622 1.87053 0
M  V30 7374 H 717.337 -0.503189 0.803433 0
M  V30 7375 H 717.043 -2.34153 2.62422 0
M  V30 7376 H 716.917 -3.52719 1.33677 0
M  V30 7377 H 719.304 -2.89492 0.572569 0
M  V30 7378 H 719.385 -1.72016 1.89325 0
M  V30 7379 H 719.029 -3.61336 3.5693 0
M  V30 7380 H 718.959 -4.77499 2.22041 0
M  V30 7381 H 721.45 -3.23687 1.95025 0
M  V30 7382 H 721.763 -6.27496 4.51074 0
M  V30 7383 H 720.108 -5.6473 4.05099 0
M  V30 7384 H 723.299 -3.96535 2.48753 0
M  V30 7385 H 723.472 -5.35087 3.65494 0
M  V30 7386 N 716.879 -0.700114 -1.41195 0
M  V30 7387 C 717.826 -0.0376652 -2.30769 0
M  V30 7388 C 718.796 0.766544 -1.47354 0
M  V30 7389 O 719.981 0.73365 -1.76131 0
M  V30 7390 C 717.121 0.889452 -3.33441 0
M  V30 7391 C 716.234 0.076373 -4.31932 0
M  V30 7392 C 715.369 1.00155 -5.21673 0
M  V30 7393 C 714.408 0.181644 -6.1183 0
M  V30 7394 N 713.545 1.06087 -6.94039 0
M  V30 7395 H 718.385 -0.80726 -2.86858 0
M  V30 7396 H 715.922 -0.409798 -1.41277 0
M  V30 7397 H 717.88 1.44107 -3.91522 0
M  V30 7398 H 716.51 1.6254 -2.78892 0
M  V30 7399 H 715.562 -0.592223 -3.75762 0
M  V30 7400 H 716.874 -0.559076 -4.95657 0
M  V30 7401 H 716.028 1.62223 -5.8461 0
M  V30 7402 H 714.767 1.67085 -4.58186 0
M  V30 7403 H 713.772 -0.452085 -5.47938 0
M  V30 7404 H 714.997 -0.483925 -6.77374 0
M  V30 7405 H 712.943 1.7161 -6.33156 0
M  V30 7406 H 712.86 0.481094 -7.54468 0
M  V30 7407 H 714.128 1.66822 -7.6144 0
M  V30 7408 N 718.357 1.51182 -0.445186 0
M  V30 7409 C 719.267 2.31692 0.368255 0
M  V30 7410 C 720.283 1.40942 1.02036 0
M  V30 7411 O 721.459 1.74011 1.01401 0
M  V30 7412 C 718.524 3.14903 1.45041 0
M  V30 7413 C 717.585 4.21442 0.817615 0
M  V30 7414 C 716.818 5.00677 1.8482 0
M  V30 7415 O 717.041 4.80644 3.07145 0
M  V30 7416 O 715.975 5.84559 1.43438 0
M  V30 7417 H 719.801 3.0232 -0.289219 0
M  V30 7418 H 717.386 1.47951 -0.207555 0
M  V30 7419 H 719.268 3.66612 2.07783 0
M  V30 7420 H 717.943 2.47031 2.09182 0
M  V30 7421 H 716.85 3.73791 0.151931 0
M  V30 7422 H 718.183 4.9171 0.219564 0
M  V30 7423 N 719.835 0.176821 1.56605 0
M  V30 7424 C 720.798 -0.737429 2.17013 0
M  V30 7425 C 721.798 -1.15414 1.11965 0
M  V30 7426 O 722.988 -1.0702 1.37449 0
M  V30 7427 C 720.12 -2.00445 2.75744 0
M  V30 7428 H 721.313 -0.211455 2.99154 0
M  V30 7429 H 718.866 -0.0727582 1.56131 0
M  V30 7430 H 719.601 -2.57338 1.97352 0
M  V30 7431 H 719.386 -1.71456 3.52626 0
M  V30 7432 H 720.876 -2.65679 3.22187 0
M  V30 7433 N 721.313 -1.57302 -0.09688 0
M  V30 7434 C 722.246 -1.97179 -1.14872 0
M  V30 7435 C 723.224 -0.844734 -1.38935 0
M  V30 7436 O 724.408 -1.10487 -1.52725 0
M  V30 7437 C 721.535 -2.28703 -2.49826 0
M  V30 7438 C 720.581 -3.51158 -2.42054 0
M  V30 7439 S 721.414 -5.0294 -1.83879 0
M  V30 7440 C 722.57 -5.37639 -3.2046 0
M  V30 7441 H 722.803 -2.86088 -0.808771 0
M  V30 7442 H 720.336 -1.51368 -0.304492 0
M  V30 7443 H 722.294 -2.47541 -3.27466 0
M  V30 7444 H 720.955 -1.40368 -2.8099 0
M  V30 7445 H 720.148 -3.70651 -3.41517 0
M  V30 7446 H 719.75 -3.31821 -1.72543 0
M  V30 7447 H 722.042 -5.34175 -4.16729 0
M  V30 7448 H 722.985 -6.38677 -3.05773 0
M  V30 7449 H 723.393 -4.651 -3.19909 0
M  V30 7450 N 722.791 0.367657 -1.53252 0
M  V30 7451 C 723.721 1.45632 -1.8252 0
M  V30 7452 C 724.702 1.55979 -0.678568 0
M  V30 7453 O 725.887 1.70581 -0.928217 0
M  V30 7454 C 723.017 2.82994 -2.01325 0
M  V30 7455 C 721.971 2.87473 -3.17086 0
M  V30 7456 C 721.297 4.2749 -3.21179 0
M  V30 7457 C 722.597 2.55182 -4.55719 0
M  V30 7458 H 724.291 1.21387 -2.73689 0
M  V30 7459 H 721.837 0.58251 -1.31692 0
M  V30 7460 H 723.79 3.59179 -2.20383 0
M  V30 7461 H 722.514 3.08622 -1.06864 0
M  V30 7462 H 721.173 2.13739 -2.97844 0
M  V30 7463 H 720.821 4.5019 -2.24361 0
M  V30 7464 H 720.521 4.31403 -3.98955 0
M  V30 7465 H 722.045 5.0555 -3.42419 0
M  V30 7466 H 723.459 3.21081 -4.74953 0
M  V30 7467 H 721.856 2.70414 -5.3572 0
M  V30 7468 H 722.926 1.5044 -4.60973 0
M  V30 7469 N 724.269 1.44576 0.627338 0
M  V30 7470 C 725.517 1.47267 1.38408 0
M  V30 7471 C 725.838 0.107971 1.94701 0
M  V30 7472 O 725.108 -0.860206 1.76004 0
M  V30 7473 H 723.688 0.542276 0.513756 0
M  V30 7474 H 726.35 1.80383 0.738099 0
M  V30 7475 H 725.446 2.20025 2.21349 0
M  V30 7476 N 725.747 -0.868086 1.31537 0
M  V30 7477 C 726.975 -1.65402 1.24298 0
M  V30 7478 C 727.39 -1.87827 -0.191389 0
M  V30 7479 O 726.747 -1.43776 -1.12404 0
M  V30 7480 C 726.798 -3.02093 1.9855 0
M  V30 7481 O 726.519 -2.80668 3.36388 0
M  V30 7482 C 728.02 -3.96538 1.98173 0
M  V30 7483 H 725.24 -0.515598 0.429417 0
M  V30 7484 H 727.784 -1.0834 1.73444 0
M  V30 7485 H 725.939 -3.55838 1.53161 0
M  V30 7486 H 726.353 -3.67504 3.74221 0
M  V30 7487 H 727.827 -4.8976 2.54635 0
M  V30 7488 H 728.304 -4.28474 0.964697 0
M  V30 7489 H 728.91 -3.48729 2.4345 0
M  V30 7490 N 727.225 -1.14528 -1.08264 0
M  V30 7491 C 728.175 -0.802141 -2.13424 0
M  V30 7492 C 729.159 0.209362 -1.59532 0
M  V30 7493 O 730.351 0.0114859 -1.76996 0
M  V30 7494 C 727.48 -0.282938 -3.42132 0
M  V30 7495 C 726.566 -1.32405 -4.02902 0
M  V30 7496 N 726.957 -2.52861 -4.38058 0
M  V30 7497 C 725.255 -1.17462 -4.30254 0
M  V30 7498 C 725.956 -3.1952 -4.86088 0
M  V30 7499 N 724.932 -2.46921 -4.84284 0
M  V30 7500 H 728.734 -1.71843 -2.38426 0
M  V30 7501 H 726.248 -1.02936 -1.2561 0
M  V30 7502 H 728.245 -0.0188053 -4.16896 0
M  V30 7503 H 726.905 0.627533 -3.18578 0
M  V30 7504 H 727.916 -2.90078 -4.2904 0
M  V30 7505 H 724.593 -0.323283 -4.16246 0
M  V30 7506 H 725.983 -4.2223 -5.22658 0
M  V30 7507 N 728.703 1.26451 -0.940633 0
M  V30 7508 C 729.949 1.94065 -0.58878 0
M  V30 7509 C 730.282 1.7363 0.869853 0
M  V30 7510 O 729.557 1.073 1.62225 0
M  V30 7511 C 729.84 3.47852 -0.931199 0
M  V30 7512 C 729.693 3.77575 -2.44453 0
M  V30 7513 C 731.012 4.37832 -0.446229 0
M  V30 7514 H 728.131 0.704827 -0.21538 0
M  V30 7515 H 730.773 1.4933 -1.17475 0
M  V30 7516 H 728.923 3.86085 -0.432539 0
M  V30 7517 H 730.595 3.49059 -3.01588 0
M  V30 7518 H 728.838 3.23671 -2.88825 0
M  V30 7519 H 729.509 4.85068 -2.63464 0
M  V30 7520 H 731.985 4.06822 -0.873778 0
M  V30 7521 H 730.861 5.44228 -0.714648 0
M  V30 7522 H 731.122 4.37239 0.653815 0
M  V30 7523 N 730.181 0.707592 1.40822 0
M  V30 7524 C 731.43 0.240705 2.00259 0
M  V30 7525 C 731.743 -1.17027 1.56729 0
M  V30 7526 O 732.949 -1.73526 2.08809 0
M  V30 7527 C 731.405 0.379432 3.57894 0
M  V30 7528 C 731.013 1.79654 4.104 0
M  V30 7529 C 732.757 -0.0270684 4.24491 0
M  V30 7530 C 730.664 1.88628 5.60512 0
M  V30 7531 H 729.594 0.0862369 0.749052 0
M  V30 7532 H 732.245 0.877528 1.61157 0
M  V30 7533 H 730.627 -0.325842 3.94657 0
M  V30 7534 H 731.801 2.53155 3.85032 0
M  V30 7535 H 730.116 2.15379 3.56372 0
M  V30 7536 H 732.713 0.0193743 5.34696 0
M  V30 7537 H 733.056 -1.06772 4.02375 0
M  V30 7538 H 733.589 0.628361 3.92806 0
M  V30 7539 H 730.328 2.90787 5.87472 0
M  V30 7540 H 729.848 1.19528 5.8777 0
M  V30 7541 H 731.527 1.6547 6.25483 0
M  V30 7542 N 731.66 -1.50943 0.453197 0
M  V30 7543 C 732.906 -2.03153 -0.100277 0
M  V30 7544 C 733.261 -1.33032 -1.38997 0
M  V30 7545 O 732.554 -0.441423 -1.86446 0
M  V30 7546 C 732.748 -3.55603 -0.357944 0
M  V30 7547 C 732.577 -4.40495 0.905223 0
M  V30 7548 C 731.347 -4.84247 1.44337 0
M  V30 7549 C 733.545 -4.81931 1.79575 0
M  V30 7550 N 731.527 -5.53403 2.65742 0
M  V30 7551 C 732.898 -5.50314 2.85577 0
M  V30 7552 C 734.953 -4.63903 1.80828 0
M  V30 7553 C 733.656 -6.02581 3.92797 0
M  V30 7554 C 735.682 -5.17097 2.86993 0
M  V30 7555 C 735.044 -5.8544 3.91713 0
M  V30 7556 H 731.143 -0.781995 0.00287755 0
M  V30 7557 H 733.727 -1.84651 0.617411 0
M  V30 7558 H 731.898 -3.74087 -1.04467 0
M  V30 7559 H 733.63 -3.9447 -0.904175 0
M  V30 7560 H 730.385 -4.63029 0.995045 0
M  V30 7561 H 730.809 -5.92598 3.27348 0
M  V30 7562 H 735.451 -4.10512 1.0119 0
M  V30 7563 H 733.169 -6.55018 4.73262 0
M  V30 7564 H 736.755 -5.0499 2.88923 0
M  V30 7565 H 735.635 -6.25861 4.72512 0
M  V30 7566 N 733.138 -0.185124 -1.56509 0
M  V30 7567 C 734.415 0.503348 -1.89013 0
M  V30 7568 C 734.795 1.80349 -1.09715 0
M  V30 7569 O 734.143 2.27665 -0.195203 0
M  V30 7570 C 734.353 0.731839 -3.41241 0
M  V30 7571 C 735.701 1.05568 -4.11267 0
M  V30 7572 O 736.725 0.819906 -3.46635 0
M  V30 7573 O 735.584 1.50116 -5.25478 0
M  V30 7574 H 732.678 0.261139 -0.784688 0
M  V30 7575 H 735.224 -0.224592 -1.68207 0
M  V30 7576 H 733.996 -0.18672 -3.90854 0
M  V30 7577 H 733.619 1.5126 -3.67704 0
M  V30 7578 N 734.616 1.57351 0.0885366 0
M  V30 7579 C 735.546 2.05561 1.10757 0
M  V30 7580 C 736.527 0.945789 1.41382 0
M  V30 7581 O 737.712 1.21747 1.51299 0
M  V30 7582 C 734.842 2.48554 2.42566 0
M  V30 7583 C 733.796 3.63259 2.26334 0
M  V30 7584 C 733.122 3.9225 3.63378 0
M  V30 7585 C 734.422 4.93913 1.69844 0
M  V30 7586 H 736.116 2.90946 0.706468 0
M  V30 7587 H 733.662 1.39968 0.338385 0
M  V30 7588 H 735.615 2.8089 3.14132 0
M  V30 7589 H 734.339 1.60176 2.84625 0
M  V30 7590 H 732.998 3.31179 1.57213 0
M  V30 7591 H 732.646 3.0103 4.02976 0
M  V30 7592 H 732.346 4.69478 3.53362 0
M  V30 7593 H 733.87 4.27067 4.36401 0
M  V30 7594 H 735.284 5.24588 2.31258 0
M  V30 7595 H 733.681 5.75349 1.70569 0
M  V30 7596 H 734.751 4.80409 0.65843 0
M  V30 7597 N 736.094 -0.359525 1.53444 0
M  V30 7598 C 737.342 -1.09935 1.69584 0
M  V30 7599 C 737.663 -1.89656 0.453371 0
M  V30 7600 O 736.933 -1.8852 -0.53263 0
M  V30 7601 H 735.513 -0.408843 0.625185 0
M  V30 7602 H 738.175 -0.40467 1.90653 0
M  V30 7603 H 737.271 -1.78575 2.55964 0
M  V30 7604 N 737.572 -1.44907 -0.619662 0
M  V30 7605 C 738.502 -1.55488 -1.742 0
M  V30 7606 C 739.483 -0.407143 -1.65156 0
M  V30 7607 O 740.668 -0.628743 -1.8374 0
M  V30 7608 C 737.798 -1.5097 -3.1277 0
M  V30 7609 C 736.752 -2.64337 -3.36615 0
M  V30 7610 C 736.078 -2.44872 -4.75333 0
M  V30 7611 C 737.378 -4.06423 -3.28051 0
M  V30 7612 H 739.072 -2.49432 -1.65602 0
M  V30 7613 H 736.618 -1.20047 -0.795281 0
M  V30 7614 H 738.571 -1.56971 -3.91073 0
M  V30 7615 H 737.295 -0.535486 -3.2218 0
M  V30 7616 H 735.954 -2.57744 -2.60698 0
M  V30 7617 H 735.602 -1.45617 -4.81461 0
M  V30 7618 H 735.302 -3.20888 -4.92244 0
M  V30 7619 H 736.826 -2.52709 -5.55851 0
M  V30 7620 H 738.24 -4.14324 -3.96243 0
M  V30 7621 H 736.637 -4.82733 -3.56495 0
M  V30 7622 H 737.707 -4.29183 -2.25676 0
M  V30 7623 N 739.05 0.861098 -1.31996 0
M  V30 7624 C 739.982 1.97551 -1.16216 0
M  V30 7625 C 740.995 1.625 -0.0988527 0
M  V30 7626 O 742.184 1.75091 -0.3472 0
M  V30 7627 C 739.284 3.30376 -0.755307 0
M  V30 7628 C 738.457 3.93711 -1.90552 0
M  V30 7629 C 737.516 5.04862 -1.48328 0
M  V30 7630 O 736.542 5.25204 -2.19431 0
M  V30 7631 N 737.744 5.79283 -0.375656 0
M  V30 7632 H 740.509 2.11632 -2.12208 0
M  V30 7633 H 738.07 1.03559 -1.24448 0
M  V30 7634 H 740.062 4.0213 -0.455364 0
M  V30 7635 H 738.632 3.12395 0.113269 0
M  V30 7636 H 737.852 3.14825 -2.37231 0
M  V30 7637 H 739.14 4.32762 -2.67571 0
M  V30 7638 H 738.538 5.65286 0.216284 0
M  V30 7639 H 737.095 6.5166 -0.135289 0
M  V30 7640 N 740.528 1.15101 1.07655 0
M  V30 7641 C 741.753 0.948177 1.84457 0
M  V30 7642 C 742.178 -0.498432 1.81376 0
M  V30 7643 O 741.536 -1.35509 1.20445 0
M  V30 7644 C 741.584 1.46318 3.29581 0
M  V30 7645 O 740.688 0.660342 4.07079 0
M  V30 7646 H 740.029 0.338428 0.571281 0
M  V30 7647 H 742.559 1.5301 1.35828 0
M  V30 7648 H 742.569 1.47468 3.80417 0
M  V30 7649 H 741.244 2.51635 3.31138 0
M  V30 7650 H 739.821 0.718216 3.65918 0
M  V30 7651 N 742.006 -1.2595 0.947325 0
M  V30 7652 C 743.231 -1.98083 0.614633 0
M  V30 7653 C 743.656 -1.70013 -0.804815 0
M  V30 7654 O 743.014 -0.95175 -1.54309 0
M  V30 7655 C 743.062 -3.4993 0.870706 0
M  V30 7656 O 742.166 -4.12364 -0.0541451 0
M  V30 7657 H 741.507 -0.621232 0.234451 0
M  V30 7658 H 744.037 -1.60259 1.27193 0
M  V30 7659 H 744.047 -4.00198 0.794051 0
M  V30 7660 H 742.722 -3.69691 1.90529 0
M  V30 7661 H 741.299 -3.72826 0.0740917 0
M  V30 7662 N 743.484 -0.715051 -1.40445 0
M  V30 7663 C 744.724 -0.258742 -2.02756 0
M  V30 7664 C 745.088 1.12661 -1.55472 0
M  V30 7665 O 746.289 1.67988 -2.09842 0
M  V30 7666 C 744.56 -0.335201 -3.55825 0
M  V30 7667 S 746.119 0.044201 -4.38778 0
M  V30 7668 H 742.937 -0.102683 -0.703546 0
M  V30 7669 H 745.539 -0.937151 -1.71574 0
M  V30 7670 H 744.243 -1.34511 -3.87731 0
M  V30 7671 H 743.774 0.361705 -3.91734 0
M  V30 7672 H 745.789 1.26639 -4.79768 0
M  V30 7673 N 744.962 1.50701 -0.461195 0
M  V30 7674 C 746.19 2.06681 0.0951756 0
M  V30 7675 C 746.605 1.32615 1.34382 0
M  V30 7676 O 745.962 0.392531 1.78229 0
M  V30 7677 C 746.013 3.59354 0.393316 0
M  V30 7678 O 745.734 4.30626 -0.805797 0
M  V30 7679 C 747.235 4.31926 0.997744 0
M  V30 7680 H 744.455 0.670995 -0.00267259 0
M  V30 7681 H 746.999 1.93991 -0.647137 0
M  V30 7682 H 745.154 3.7188 1.08555 0
M  V30 7683 H 745.568 5.21667 -0.544409 0
M  V30 7684 H 747.042 5.39756 1.15619 0
M  V30 7685 H 747.519 3.91772 1.98523 0
M  V30 7686 H 748.125 4.23905 0.344188 0
M  V30 7687 N 746.441 0.193421 1.56409 0
M  V30 7688 C 747.374 -0.767384 2.1491 0
M  V30 7689 C 748.352 -1.21075 1.08534 0
M  V30 7690 O 749.536 -1.29856 1.36637 0
M  V30 7691 C 746.663 -2.03615 2.70663 0
M  V30 7692 C 745.709 -1.73505 3.89613 0
M  V30 7693 S 746.542 -0.884645 5.28142 0
M  V30 7694 C 747.698 -2.1636 5.87315 0
M  V30 7695 H 747.931 -0.270053 2.96071 0
M  V30 7696 H 745.464 -0.0215546 1.54385 0
M  V30 7697 H 747.422 -2.7648 3.03429 0
M  V30 7698 H 746.083 -2.50461 1.89547 0
M  V30 7699 H 745.276 -2.67701 4.27027 0
M  V30 7700 H 744.878 -1.08723 3.57848 0
M  V30 7701 H 747.17 -3.11629 6.01576 0
M  V30 7702 H 748.113 -1.8338 6.83943 0
M  V30 7703 H 748.521 -2.29129 5.15907 0
M  V30 7704 N 747.919 -1.57396 -0.0801906 0
M  V30 7705 C 749.165 -1.87113 -0.782083 0
M  V30 7706 C 749.498 -0.78458 -1.77646 0
M  V30 7707 O 748.773 0.205993 -1.93406 0
M  V30 7708 C 749.056 -3.27483 -1.49756 0
M  V30 7709 C 748.909 -4.46782 -0.520171 0
M  V30 7710 C 750.228 -3.65965 -2.44454 0
M  V30 7711 H 747.347 -0.680559 -0.282858 0
M  V30 7712 H 749.989 -1.89946 -0.0454139 0
M  V30 7713 H 748.139 -3.25199 -2.12551 0
M  V30 7714 H 749.811 -4.61187 0.101919 0
M  V30 7715 H 748.054 -4.33485 0.165219 0
M  V30 7716 H 748.725 -5.41761 -1.05824 0
M  V30 7717 H 751.201 -3.69289 -1.91742 0
M  V30 7718 H 750.077 -4.65086 -2.91524 0
M  V30 7719 H 750.338 -2.95446 -3.28883 0
M  V30 7720 N 749.397 0.351382 -1.53633 0
M  V30 7721 C 750.643 1.09411 -1.70754 0
M  V30 7722 C 750.976 1.88544 -0.465293 0
M  V30 7723 O 750.251 1.86923 0.537608 0
M  V30 7724 C 750.534 2.04173 -2.96623 0
M  V30 7725 C 750.387 1.28556 -4.31038 0
M  V30 7726 C 751.706 3.04102 -3.18136 0
M  V30 7727 H 748.825 0.396373 -0.621335 0
M  V30 7728 H 751.467 0.373464 -1.86293 0
M  V30 7729 H 749.617 2.65625 -2.83506 0
M  V30 7730 H 751.289 0.697786 -4.55992 0
M  V30 7731 H 749.532 0.587498 -4.29803 0
M  V30 7732 H 750.203 1.97989 -5.15271 0
M  V30 7733 H 752.679 2.5276 -3.30532 0
M  V30 7734 H 751.555 3.67616 -4.07615 0
M  V30 7735 H 751.816 3.75053 -2.34068 0
M  V30 7736 N 750.875 1.45233 0.611969 0
M  V30 7737 C 752.286 1.4354 1.19387 0
M  V30 7738 C 752.637 0.160713 1.95541 0
M  V30 7739 O 751.762 -0.737954 2.03429 0
M  V30 7740 C 752.357 2.60045 2.17169 0
M  V30 7741 C 750.916 2.61486 2.70744 0
M  V30 7742 C 750.063 2.35708 1.46072 0
M  V30 7743 H 753.014 1.53536 0.401529 0
M  V30 7744 H 753.035 2.33893 3.00124 0
M  V30 7745 H 752.547 3.52803 1.61714 0
M  V30 7746 H 750.648 1.72721 3.30149 0
M  V30 7747 H 750.761 3.60572 3.15476 0
M  V30 7748 H 749.125 1.85178 1.74875 0
M  V30 7749 H 749.908 3.30606 0.924922 0
M  V30 7750 N 752.353 -0.854086 1.3245 0
M  V30 7751 C 753.599 -1.6105 1.24235 0
M  V30 7752 C 753.954 -1.91421 -0.193877 0
M  V30 7753 O 753.247 -1.54599 -1.1318 0
M  V30 7754 C 753.441 -2.93746 2.03587 0
M  V30 7755 C 753.27 -2.76335 3.54781 0
M  V30 7756 C 752.04 -2.74687 4.24117 0
M  V30 7757 C 754.238 -2.50052 4.4942 0
M  V30 7758 N 752.22 -2.48493 5.6136 0
M  V30 7759 C 753.591 -2.33269 5.74444 0
M  V30 7760 C 755.646 -2.35525 4.38671 0
M  V30 7761 C 754.349 -2.03434 6.89933 0
M  V30 7762 C 756.375 -2.07081 5.5396 0
M  V30 7763 C 755.737 -1.91098 6.77983 0
M  V30 7764 H 751.836 -0.593008 0.50977 0
M  V30 7765 H 754.42 -1.00392 1.66822 0
M  V30 7766 H 752.591 -3.52382 1.63345 0
M  V30 7767 H 754.323 -3.58768 1.87263 0
M  V30 7768 H 751.078 -2.87647 3.7624 0
M  V30 7769 H 751.502 -2.38322 6.33665 0
M  V30 7770 H 756.144 -2.46602 3.43435 0
M  V30 7771 H 753.862 -1.91095 7.85181 0
M  V30 7772 H 757.448 -1.96618 5.4757 0
M  V30 7773 H 756.328 -1.69402 7.65684 0
M  V30 7774 N 753.831 -1.1567 -1.07043 0
M  V30 7775 C 755.08 -0.928039 -1.79082 0
M  V30 7776 C 755.393 0.545968 -1.87826 0
M  V30 7777 O 756.599 0.892308 -2.56418 0
M  V30 7778 C 755.055 -1.61103 -3.21829 0
M  V30 7779 C 754.663 -3.12228 -3.21275 0
M  V30 7780 C 756.407 -1.46404 -3.98455 0
M  V30 7781 C 754.314 -3.733 -4.58695 0
M  V30 7782 H 753.244 -0.34357 -0.671175 0
M  V30 7783 H 755.895 -1.38718 -1.20123 0
M  V30 7784 H 754.277 -1.07958 -3.81 0
M  V30 7785 H 755.451 -3.72155 -2.71731 0
M  V30 7786 H 753.766 -3.26725 -2.58147 0
M  V30 7787 H 756.363 -1.8942 -5.00024 0
M  V30 7788 H 756.706 -0.41195 -4.14257 0
M  V30 7789 H 757.239 -1.96663 -3.45787 0
M  V30 7790 H 753.978 -4.78423 -4.48098 0
M  V30 7791 H 753.498 -3.18157 -5.08465 0
M  V30 7792 H 755.177 -3.7441 -5.27661 0
M  V30 7793 N 755.309 1.25446 -0.953992 0
M  V30 7794 C 756.534 1.97755 -0.625129 0
M  V30 7795 C 756.959 1.70437 0.795787 0
M  V30 7796 O 756.317 0.95992 1.53803 0
M  V30 7797 C 756.365 3.49463 -0.889251 0
M  V30 7798 O 755.469 4.12387 0.0322757 0
M  V30 7799 H 754.81 0.61998 -0.237742 0
M  V30 7800 H 757.34 1.59582 -1.28041 0
M  V30 7801 H 757.35 3.99772 -0.815263 0
M  V30 7802 H 756.025 3.68676 -1.92487 0
M  V30 7803 H 754.602 3.72782 -0.0938625 0
M  V30 7804 N 756.787 0.722489 1.40064 0
M  V30 7805 C 757.735 0.063329 2.32514 0
M  V30 7806 C 758.729 -0.73953 1.52405 0
M  V30 7807 O 759.935 -0.642122 1.68157 0
M  V30 7808 H 756.31 0.00167692 0.751998 0
M  V30 7809 H 758.281 0.859656 2.85749 0
M  V30 7810 C 757.03 -0.839219 3.3742 0
M  V30 7811 H 756.353 -0.230836 3.99133 0
M  V30 7812 H 757.793 -1.26827 4.04587 0
M  V30 7813 C 756.252 -1.96783 2.73456 0
M  V30 7814 O 756.782 -3.05933 2.60323 0
M  V30 7815 N 754.988 -1.75351 2.31734 0
M  V30 7816 H 754.535 -0.865787 2.42615 0
M  V30 7817 H 754.493 -2.51043 1.89275 0
M  V30 7818 N 758.265 -1.50454 0.469181 0
M  V30 7819 C 759.511 -2.02615 -0.0865971 0
M  V30 7820 C 759.844 -1.35062 -1.39542 0
M  V30 7821 O 759.119 -0.475701 -1.88593 0
M  V30 7822 C 759.402 -3.59068 -0.272385 0
M  V30 7823 C 759.255 -4.37196 1.05733 0
M  V30 7824 C 760.574 -4.2793 -1.0278 0
M  V30 7825 H 757.693 -0.736389 -0.0299977 0
M  V30 7826 H 760.335 -1.79792 0.614399 0
M  V30 7827 H 758.485 -3.78646 -0.869471 0
M  V30 7828 H 760.157 -4.29195 1.69084 0
M  V30 7829 H 758.4 -4.01013 1.65442 0
M  V30 7830 H 759.071 -5.44924 0.880997 0
M  V30 7831 H 761.547 -4.12816 -0.521718 0
M  V30 7832 H 760.423 -5.37214 -1.12659 0
M  V30 7833 H 760.684 -3.90968 -2.0639 0
M  V30 7834 N 759.743 -0.201713 -1.56304 0
M  V30 7835 C 760.971 0.440723 -2.02152 0
M  V30 7836 C 761.386 1.54735 -1.08179 0
M  V30 7837 O 760.743 1.82289 -0.0878196 0
M  V30 7838 C 760.794 0.990884 -3.47655 0
M  V30 7839 O 760.515 -0.0715937 -4.38041 0
M  V30 7840 C 762.016 1.70854 -4.09052 0
M  V30 7841 H 759.236 0.109987 -0.661924 0
M  V30 7842 H 761.78 -0.312358 -2.021 0
M  V30 7843 H 759.935 1.69432 -3.48384 0
M  V30 7844 H 760.349 0.338892 -5.23404 0
M  V30 7845 H 761.823 2.04572 -5.12693 0
M  V30 7846 H 762.3 2.61462 -3.52894 0
M  V30 7847 H 762.906 1.0508 -4.12114 0
M  V30 7848 N 761.222 1.57436 0.0718424 0
M  V30 7849 C 762.452 1.91196 0.782795 0
M  V30 7850 C 762.86 0.795927 1.71644 0
M  V30 7851 O 762.203 -0.239604 1.82131 0
M  V30 7852 C 762.265 3.20421 1.63005 0
M  V30 7853 C 761.929 4.48724 0.865782 0
M  V30 7854 C 762.926 5.19571 0.185051 0
M  V30 7855 C 760.611 4.95345 0.832971 0
M  V30 7856 C 762.605 6.3529 -0.518264 0
M  V30 7857 C 760.292 6.1097 0.125884 0
M  V30 7858 C 761.29 6.80794 -0.548533 0
M  V30 7859 O 760.978 7.94213 -1.24423 0
M  V30 7860 H 760.71 0.636486 0.227731 0
M  V30 7861 H 763.264 2.05348 0.0464187 0
M  V30 7862 H 761.494 3.02478 2.40923 0
M  V30 7863 H 763.183 3.39831 2.21968 0
M  V30 7864 H 763.949 4.8458 0.201707 0
M  V30 7865 H 759.828 4.40871 1.34737 0
M  V30 7866 H 763.372 6.89725 -1.04523 0
M  V30 7867 H 759.269 6.45411 0.107155 0
M  V30 7868 H 760.037 8.10331 -1.1535 0
M  V30 7869 N 762.7 -0.34323 1.53817 0
M  V30 7870 C 764.116 -0.686355 1.44088 0
M  V30 7871 C 764.316 -1.92426 0.597882 0
M  V30 7872 O 763.372 -2.52343 0.0889918 0
M  V30 7873 C 764.685 -0.878698 2.87575 0
M  V30 7874 C 766.233 -0.977296 2.97352 0
M  V30 7875 C 766.708 -1.20195 4.41947 0
M  V30 7876 N 768.199 -1.26915 4.45474 0
M  V30 7877 C 768.934 -1.46049 5.54488 0
M  V30 7878 N 768.43 -1.62354 6.73508 0
M  V30 7879 N 770.223 -1.48599 5.42102 0
M  V30 7880 H 762.374 0.470679 2.07119 0
M  V30 7881 H 764.637 0.148652 0.936273 0
M  V30 7882 H 764.343 -0.040602 3.51677 0
M  V30 7883 H 764.217 -1.78034 3.32541 0
M  V30 7884 H 766.604 -1.80591 2.3339 0
M  V30 7885 H 766.685 -0.0525498 2.55746 0
M  V30 7886 H 766.329 -0.378262 5.06489 0
M  V30 7887 H 766.259 -2.14027 4.81145 0
M  V30 7888 H 768.75 -1.15837 3.59708 0
M  V30 7889 H 769.063 -1.76591 7.52353 0
M  V30 7890 H 767.408 -1.5949 6.76453 0
M  V30 7891 H 770.599 -1.35443 4.48077 0
M  V30 7892 H 770.772 -1.6317 6.2712 0
M  V30 7893 N 764.178 -1.45556 -0.604258 0
M  V30 7894 C 765.11 -1.50494 -1.72871 0
M  V30 7895 C 766.123 -0.395368 -1.57926 0
M  V30 7896 O 767.312 -0.662603 -1.65746 0
M  V30 7897 C 764.412 -1.34874 -3.10906 0
M  V30 7898 C 763.585 -2.59564 -3.52058 0
M  V30 7899 C 762.644 -2.38453 -4.6907 0
M  V30 7900 O 761.67 -3.12082 -4.76018 0
M  V30 7901 N 762.872 -1.43229 -5.62553 0
M  V30 7902 H 765.637 -2.4744 -1.69097 0
M  V30 7903 H 763.198 -1.41338 -0.789636 0
M  V30 7904 H 765.19 -1.18556 -3.86945 0
M  V30 7905 H 763.76 -0.461913 -3.09168 0
M  V30 7906 H 762.98 -2.90974 -2.65946 0
M  V30 7907 H 764.268 -3.42441 -3.76313 0
M  V30 7908 H 763.666 -0.824714 -5.59656 0
M  V30 7909 H 762.223 -1.32882 -6.38111 0
M  V30 7910 N 765.656 0.84705 -1.32902 0
M  V30 7911 C 766.884 1.63403 -1.26913 0
M  V30 7912 C 767.299 1.88108 0.161483 0
M  V30 7913 O 766.656 1.45546 1.10103 0
M  V30 7914 C 766.707 2.98896 -2.03331 0
M  V30 7915 O 766.428 2.75281 -3.40811 0
M  V30 7916 C 767.929 3.93335 -2.04457 0
M  V30 7917 H 765.149 0.508701 -0.437566 0
M  V30 7918 H 767.693 1.05567 -1.75145 0
M  V30 7919 H 765.848 3.53356 -1.58802 0
M  V30 7920 H 766.262 3.61504 -3.8002 0
M  V30 7921 H 767.736 4.85647 -2.62394 0
M  V30 7922 H 768.213 4.26885 -1.03274 0
M  V30 7923 H 768.819 3.44812 -2.48967 0
M  V30 7924 N 767.134 1.16236 1.06428 0
M  V30 7925 C 768.362 0.967184 1.82902 0
M  V30 7926 C 768.777 -0.484601 1.82475 0
M  V30 7927 O 768.134 -1.33631 1.24294 0
M  V30 7928 C 768.185 1.48534 3.29576 0
M  V30 7929 O 767.906 2.88026 3.3011 0
M  V30 7930 C 769.407 1.33298 4.22784 0
M  V30 7931 H 766.627 0.342923 0.576754 0
M  V30 7932 H 769.171 1.54232 1.34286 0
M  V30 7933 H 767.326 0.952513 3.75508 0
M  V30 7934 H 767.74 3.11721 4.21818 0
M  V30 7935 H 769.214 1.74385 5.23731 0
M  V30 7936 H 769.691 0.278356 4.38317 0
M  V30 7937 H 770.297 1.85535 3.82697 0
M  V30 7938 N 768.612 -1.24939 0.960631 0
M  V30 7939 C 769.544 -2.24879 0.442937 0
M  V30 7940 C 770.557 -1.56615 -0.444464 0
M  V30 7941 O 771.746 -1.76715 -0.251776 0
M  V30 7942 C 768.846 -3.36757 -0.380537 0
M  V30 7943 C 768.019 -4.34587 0.495283 0
M  V30 7944 C 767.078 -5.25502 -0.270995 0
M  V30 7945 O 766.104 -5.68227 0.332661 0
M  V30 7946 N 767.306 -5.59077 -1.56249 0
M  V30 7947 H 770.071 -2.69932 1.30218 0
M  V30 7948 H 767.632 -1.38907 0.83166 0
M  V30 7949 H 769.624 -3.94542 -0.90103 0
M  V30 7950 H 768.194 -2.91045 -1.14067 0
M  V30 7951 H 767.414 -3.75593 1.19682 0
M  V30 7952 H 768.702 -4.96925 1.09285 0
M  V30 7953 H 768.1 -5.2628 -2.07476 0
M  V30 7954 H 766.657 -6.19421 -2.02882 0
M  V30 7955 N 770.09 -0.729906 -1.39679 0
M  V30 7956 C 771.367 -0.202149 -1.94553 0
M  V30 7957 C 771.747 1.29507 -1.66707 0
M  V30 7958 O 771.095 2.05819 -0.992517 0
M  V30 7959 C 771.305 -0.530279 -3.44948 0
M  V30 7960 C 772.653 -0.476808 -4.21914 0
M  V30 7961 O 773.677 -0.467171 -3.53123 0
M  V30 7962 O 772.536 -0.466869 -5.44502 0
M  V30 7963 H 769.63 -0.0351644 -0.826252 0
M  V30 7964 H 772.176 -0.808417 -1.49207 0
M  V30 7965 H 770.948 -1.56526 -3.5863 0
M  V30 7966 H 770.571 0.10522 -3.97461 0
M  V30 7967 N 771.568 1.50203 -0.477153 0
M  V30 7968 C 772.793 2.07263 0.0754986 0
M  V30 7969 C 773.218 1.33801 1.32208 0
M  V30 7970 O 772.576 0.387482 1.77111 0
M  V30 7971 C 772.624 3.59028 0.336348 0
M  V30 7972 O 771.728 3.87339 1.4157 0
M  V30 7973 H 771.069 0.663815 -0.015662 0
M  V30 7974 H 773.599 1.93321 -0.669936 0
M  V30 7975 H 773.609 4.03927 0.575034 0
M  V30 7976 H 772.284 4.11912 -0.574551 0
M  V30 7977 H 770.861 3.54272 1.16385 0
M  V30 7978 N 773.046 0.209999 1.56195 0
M  V30 7979 C 774.293 -0.424813 1.97994 0
M  V30 7980 C 774.621 -1.60589 1.09733 0
M  V30 7981 O 773.876 -1.95201 0.139693 0
M  V30 7982 C 774.175 -0.91312 3.45539 0
M  V30 7983 C 773.841 0.156187 4.50629 0
M  V30 7984 C 772.503 0.449966 4.79092 0
M  V30 7985 C 774.855 0.879959 5.13718 0
M  V30 7986 C 772.183 1.47223 5.67928 0
M  V30 7987 C 774.535 1.89148 6.0366 0
M  V30 7988 C 773.199 2.1923 6.30472 0
M  V30 7989 H 772.469 -0.15545 0.724511 0
M  V30 7990 H 775.116 0.310095 1.88973 0
M  V30 7991 H 773.421 -1.72658 3.51705 0
M  V30 7992 H 775.118 -1.41395 3.75245 0
M  V30 7993 H 771.708 -0.0829466 4.2852 0
M  V30 7994 H 775.892 0.66623 4.91808 0
M  V30 7995 H 771.148 1.71105 5.86969 0
M  V30 7996 H 775.322 2.45745 6.516 0
M  V30 7997 H 772.949 2.98587 6.99107 0
M  V30 7998 N 774.524 -1.57472 -0.0634922 0
M  V30 7999 C 775.752 -1.91887 -0.773767 0
M  V30 8000 C 776.167 -0.806733 -1.70696 0
M  V30 8001 O 775.524 0.219383 -1.81177 0
M  V30 8002 C 775.575 -3.26092 -1.56034 0
M  V30 8003 O 775.296 -4.33029 -0.66464 0
M  V30 8004 C 776.797 -3.74573 -2.37087 0
M  V30 8005 H 774.017 -0.634074 -0.219525 0
M  V30 8006 H 776.561 -2.04476 -0.0312828 0
M  V30 8007 H 774.716 -3.15004 -2.25502 0
M  V30 8008 H 775.13 -5.10291 -1.21258 0
M  V30 8009 H 776.604 -4.71084 -2.87722 0
M  V30 8010 H 777.081 -3.04003 -3.16984 0
M  V30 8011 H 777.687 -3.88631 -1.72759 0
M  V30 8012 N 776.003 0.335068 -1.53997 0
M  V30 8013 C 776.913 1.43511 -1.85585 0
M  V30 8014 C 777.929 1.57162 -0.746726 0
M  V30 8015 O 779.105 1.72477 -1.03988 0
M  V30 8016 C 776.17 2.78386 -2.06646 0
M  V30 8017 C 775.231 2.74007 -3.30483 0
M  V30 8018 C 774.464 4.02449 -3.50529 0
M  V30 8019 O 774.687 5.00147 -2.74242 0
M  V30 8020 O 773.621 4.06405 -4.4398 0
M  V30 8021 H 777.447 1.19731 -2.79102 0
M  V30 8022 H 775.032 0.528033 -1.39758 0
M  V30 8023 H 776.914 3.58247 -2.21894 0
M  V30 8024 H 775.589 3.0208 -1.16317 0
M  V30 8025 H 774.496 1.92736 -3.2063 0
M  V30 8026 H 775.829 2.55267 -4.20832 0
M  V30 8027 N 777.481 1.45874 0.596531 0
M  V30 8028 C 778.729 1.5017 1.35253 0
M  V30 8029 C 779.05 0.149246 1.94428 0
M  V30 8030 O 778.32 -0.82268 1.77789 0
M  V30 8031 H 776.9 0.553052 0.502138 0
M  V30 8032 H 779.562 1.81908 0.699671 0
M  V30 8033 H 778.658 2.24671 2.16632 0
M  V30 8034 N 778.959 -0.83999 1.33349 0
M  V30 8035 C 780.207 -1.59202 1.24496 0
M  V30 8036 C 780.528 -1.94077 -0.189499 0
M  V30 8037 O 779.798 -1.60868 -1.11796 0
M  V30 8038 H 778.378 -0.590276 0.457802 0
M  V30 8039 H 781.04 -1.00394 1.67054 0
M  V30 8040 H 780.136 -2.52247 1.83788 0
M  V30 8041 N 780.437 -1.16799 -1.0581 0
M  V30 8042 C 781.667 -0.975454 -1.82122 0
M  V30 8043 C 782.075 0.479584 -1.83021 0
M  V30 8044 O 781.418 1.34471 -1.25153 0
M  V30 8045 C 781.48 -1.43209 -3.29744 0
M  V30 8046 C 781.144 -2.908 -3.5254 0
M  V30 8047 C 782.141 -3.88775 -3.45181 0
M  V30 8048 C 779.826 -3.28832 -3.79703 0
M  V30 8049 C 781.82 -5.22782 -3.64661 0
M  V30 8050 C 779.507 -4.63007 -3.98832 0
M  V30 8051 C 780.505 -5.59791 -3.91309 0
M  V30 8052 O 780.193 -6.9154 -4.09911 0
M  V30 8053 H 779.925 -0.345655 -0.580947 0
M  V30 8054 H 782.479 -1.55355 -1.34365 0
M  V30 8055 H 780.709 -0.797504 -3.78387 0
M  V30 8056 H 782.398 -1.2062 -3.87564 0
M  V30 8057 H 783.164 -3.60738 -3.2418 0
M  V30 8058 H 779.043 -2.54073 -3.84666 0
M  V30 8059 H 782.587 -5.98312 -3.58705 0
M  V30 8060 H 778.484 -4.90752 -4.19324 0
M  V30 8061 H 779.252 -6.98188 -4.27172 0
M  V30 8062 N 781.915 1.24427 -0.967243 0
M  V30 8063 C 783.164 1.91789 -0.624478 0
M  V30 8064 C 783.477 1.76448 0.844129 0
M  V30 8065 O 784.683 2.38495 1.2974 0
M  V30 8066 C 783.139 3.43743 -1.06626 0
M  V30 8067 C 782.747 3.67771 -2.55829 0
M  V30 8068 C 784.491 4.16958 -0.79662 0
M  V30 8069 C 782.398 5.13293 -2.93742 0
M  V30 8070 H 781.328 0.71811 -0.229856 0
M  V30 8071 H 783.979 1.41081 -1.17339 0
M  V30 8072 H 782.361 3.93484 -0.445663 0
M  V30 8073 H 783.535 3.28631 -3.23015 0
M  V30 8074 H 781.85 3.07841 -2.80398 0
M  V30 8075 H 784.447 5.24171 -1.05589 0
M  V30 8076 H 784.79 4.15442 0.267163 0
M  V30 8077 H 785.323 3.73164 -1.37816 0
M  V30 8078 H 782.062 5.19931 -3.9919 0
M  V30 8079 H 781.582 5.53433 -2.3124 0
M  V30 8080 H 783.261 5.81521 -2.83623 0
M  V30 8081 N 783.393 0.737304 1.3929 0
M  V30 8082 C 784.618 0.295237 2.05288 0
M  V30 8083 C 785.043 -1.06235 1.55228 0
M  V30 8084 O 784.401 -1.67365 0.697043 0
M  V30 8085 C 784.449 0.309146 3.59272 0
M  V30 8086 O 783.553 -0.702437 4.06374 0
M  V30 8087 H 782.894 0.133762 0.650387 0
M  V30 8088 H 785.424 1.00387 1.78279 0
M  V30 8089 H 785.434 0.154336 4.07708 0
M  V30 8090 H 784.109 1.29974 3.95069 0
M  V30 8091 H 782.686 -0.513574 3.69346 0
M  V30 8092 N 784.871 -1.49948 0.485112 0
M  V30 8093 C 785.804 -2.25531 -0.348027 0
M  V30 8094 C 786.782 -1.29433 -0.984172 0
M  V30 8095 O 787.966 -1.58687 -1.01738 0
M  V30 8096 C 785.093 -3.04225 -1.48878 0
M  V30 8097 C 784.139 -4.15355 -0.968616 0
M  V30 8098 S 784.972 -5.35347 0.127934 0
M  V30 8099 C 786.128 -6.17593 -1.01637 0
M  V30 8100 H 786.361 -2.95847 0.293529 0
M  V30 8101 H 783.894 -1.52018 0.27018 0
M  V30 8102 H 785.852 -3.50153 -2.14251 0
M  V30 8103 H 784.513 -2.33407 -2.1019 0
M  V30 8104 H 783.706 -4.69873 -1.82305 0
M  V30 8105 H 783.308 -3.71936 -0.392377 0
M  V30 8106 H 785.6 -6.49576 -1.92503 0
M  V30 8107 H 786.543 -7.0626 -0.510149 0
M  V30 8108 H 786.951 -5.49877 -1.27653 0
M  V30 8109 N 786.349 -0.21828 -1.56081 0
M  V30 8110 C 787.596 0.414307 -1.98216 0
M  V30 8111 C 787.924 1.60005 -1.10584 0
M  V30 8112 O 787.179 1.95124 -0.150043 0
M  V30 8113 C 787.478 0.894782 -3.46018 0
M  V30 8114 C 787.144 -0.180083 -4.5054 0
M  V30 8115 C 785.806 -0.475367 -4.78846 0
M  V30 8116 C 788.158 -0.907191 -5.13244 0
M  V30 8117 C 785.486 -1.50233 -5.67139 0
M  V30 8118 C 787.838 -1.92347 -6.02649 0
M  V30 8119 C 786.502 -2.22571 -6.293 0
M  V30 8120 H 785.772 0.151606 -0.725325 0
M  V30 8121 H 788.419 -0.320113 -1.88806 0
M  V30 8122 H 786.724 1.7079 -3.52616 0
M  V30 8123 H 788.421 1.39403 -3.75989 0
M  V30 8124 H 785.011 0.06022 -4.28558 0
M  V30 8125 H 789.195 -0.692303 -4.91448 0
M  V30 8126 H 784.451 -1.74215 -5.86054 0
M  V30 8127 H 788.625 -2.49197 -6.50288 0
M  V30 8128 H 786.252 -3.0229 -6.97513 0
M  V30 8129 N 787.827 1.57504 0.0551401 0
M  V30 8130 C 789.057 1.92015 0.762472 0
M  V30 8131 C 789.465 0.814088 1.7079 0
M  V30 8132 O 788.808 -0.220273 1.82375 0
M  V30 8133 C 788.87 3.22132 1.59598 0
M  V30 8134 C 788.534 4.49617 0.818141 0
M  V30 8135 C 789.531 5.19738 0.129933 0
M  V30 8136 C 787.216 4.96201 0.780387 0
M  V30 8137 C 789.21 6.34704 -0.585616 0
M  V30 8138 C 786.897 6.11069 0.0610756 0
M  V30 8139 C 787.895 6.80174 -0.62071 0
M  V30 8140 O 787.583 7.92849 -1.3284 0
M  V30 8141 H 787.315 0.638866 0.220967 0
M  V30 8142 H 789.869 2.05385 0.0246362 0
M  V30 8143 H 788.099 3.05016 2.37701 0
M  V30 8144 H 789.788 3.42166 2.18351 0
M  V30 8145 H 790.554 4.84767 0.150299 0
M  V30 8146 H 786.433 4.42275 1.30054 0
M  V30 8147 H 789.977 6.88578 -1.11833 0
M  V30 8148 H 785.874 6.45488 0.0386945 0
M  V30 8149 H 786.642 8.09062 -1.23938 0
M  V30 8150 N 789.305 -0.326896 1.54172 0
M  V30 8151 C 790.237 -1.42319 1.79661 0
M  V30 8152 C 791.25 -1.47989 0.678456 0
M  V30 8153 O 792.439 -1.50773 0.955503 0
M  V30 8154 C 789.539 -2.80876 1.89636 0
M  V30 8155 C 788.712 -2.98449 3.19761 0
M  V30 8156 C 787.771 -4.17347 3.2048 0
M  V30 8157 O 786.797 -4.10667 3.94134 0
M  V30 8158 N 787.999 -5.26717 2.44027 0
M  V30 8159 H 790.764 -1.20819 2.74268 0
M  V30 8160 H 788.325 -0.516866 1.53428 0
M  V30 8161 H 790.317 -3.58619 1.87549 0
M  V30 8162 H 788.887 -2.95442 1.02141 0
M  V30 8163 H 788.107 -2.08035 3.34836 0
M  V30 8164 H 789.395 -3.07083 4.05681 0
M  V30 8165 H 788.793 -5.35019 1.8377 0
M  V30 8166 H 787.35 -6.02891 2.47721 0
M  V30 8167 N 790.784 -1.46188 -0.588786 0
M  V30 8168 C 792.012 -1.54743 -1.37339 0
M  V30 8169 C 792.427 -0.186446 -1.87877 0
M  V30 8170 O 791.784 0.815247 -1.63279 0
M  V30 8171 C 791.835 -2.54727 -2.56508 0
M  V30 8172 O 791.556 -3.85539 -2.08066 0
M  V30 8173 C 793.057 -2.73163 -3.49137 0
M  V30 8174 H 790.277 -0.523484 -0.419768 0
M  V30 8175 H 792.821 -1.91543 -0.716345 0
M  V30 8176 H 790.976 -2.20948 -3.18215 0
M  V30 8177 H 791.39 -4.39905 -2.85629 0
M  V30 8178 H 792.864 -3.47057 -4.2925 0
M  V30 8179 H 793.341 -1.79856 -4.00685 0
M  V30 8180 H 793.947 -3.08014 -2.9327 0
M  V30 8181 N 792.262 0.832906 -1.33792 0
M  V30 8182 C 793.678 1.1245 -1.13257 0
M  V30 8183 C 793.878 2.01369 0.0725832 0
M  V30 8184 O 792.934 2.41071 0.751082 0
M  V30 8185 C 794.247 1.78084 -2.42294 0
M  V30 8186 C 795.795 1.90624 -2.48257 0
M  V30 8187 C 796.27 2.59673 -3.77271 0
M  V30 8188 N 797.761 2.67181 -3.78376 0
M  V30 8189 C 798.496 3.21313 -4.74916 0
M  V30 8190 N 797.992 3.76086 -5.81835 0
M  V30 8191 N 799.785 3.19621 -4.62384 0
M  V30 8192 H 791.936 0.241244 -2.11026 0
M  V30 8193 H 794.199 0.169557 -0.932713 0
M  V30 8194 H 793.905 1.20209 -3.30519 0
M  V30 8195 H 793.779 2.78049 -2.5489 0
M  V30 8196 H 796.166 2.4765 -1.60478 0
M  V30 8197 H 796.247 0.89591 -2.39598 0
M  V30 8198 H 795.891 2.03304 -4.65435 0
M  V30 8199 H 795.821 3.61189 -3.8321 0
M  V30 8200 H 798.312 2.28346 -3.01108 0
M  V30 8201 H 798.625 4.15612 -6.51526 0
M  V30 8202 H 796.97 3.74357 -5.85561 0
M  V30 8203 H 800.161 2.76091 -3.7801 0
M  V30 8204 H 800.334 3.61504 -5.37791 0
M  V30 8205 N 793.74 1.17359 1.05189 0
M  V30 8206 C 794.989 0.956412 1.77583 0
M  V30 8207 C 795.302 -0.516018 1.88671 0
M  V30 8208 O 796.508 -0.851401 2.57805 0
M  V30 8209 C 794.964 1.66203 3.19225 0
M  V30 8210 C 794.572 3.17299 3.16267 0
M  V30 8211 C 796.316 1.52725 3.96075 0
M  V30 8212 C 794.223 3.8055 4.52698 0
M  V30 8213 H 793.153 0.354204 0.665624 0
M  V30 8214 H 795.804 1.40612 1.17901 0
M  V30 8215 H 794.186 1.14006 3.79234 0
M  V30 8216 H 795.36 3.76431 2.65776 0
M  V30 8217 H 793.675 3.3079 2.52917 0
M  V30 8218 H 796.272 1.97351 4.96947 0
M  V30 8219 H 796.615 0.477803 4.13549 0
M  V30 8220 H 797.148 2.02139 3.42614 0
M  V30 8221 H 793.887 4.85492 4.4043 0
M  V30 8222 H 793.407 3.26206 5.03339 0
M  V30 8223 H 795.086 3.82757 5.21638 0
M  V30 8224 N 795.218 -1.23913 0.973828 0
M  V30 8225 C 796.464 -1.92436 0.640026 0
M  V30 8226 C 796.797 -1.75875 -0.823512 0
M  V30 8227 O 796.072 -1.11563 -1.59323 0
M  V30 8228 C 796.355 -3.4526 1.0231 0
M  V30 8229 C 796.208 -3.70961 2.54378 0
M  V30 8230 C 797.527 -4.36495 0.562155 0
M  V30 8231 H 794.646 -0.698868 0.233992 0
M  V30 8232 H 797.288 -1.46163 1.21393 0
M  V30 8233 H 795.438 -3.84802 0.534751 0
M  V30 8234 H 797.11 -3.40941 3.10737 0
M  V30 8235 H 795.353 -3.15899 2.97305 0
M  V30 8236 H 796.024 -4.77912 2.76232 0
M  V30 8237 H 798.5 -4.04363 0.981333 0
M  V30 8238 H 797.376 -5.42142 0.858689 0
M  V30 8239 H 797.637 -4.38818 -0.537659 0
M  V30 8240 N 796.696 -0.74468 -1.38897 0
M  V30 8241 C 797.942 -0.297324 -2.00609 0
M  V30 8242 C 798.275 1.11547 -1.58968 0
M  V30 8243 O 797.55 1.76227 -0.823057 0
M  V30 8244 C 797.833 -0.410125 -3.57757 0
M  V30 8245 C 797.686 -1.86338 -4.09387 0
M  V30 8246 C 799.005 0.20176 -4.39637 0
M  V30 8247 H 796.124 -0.109509 -0.728819 0
M  V30 8248 H 798.766 -0.942653 -1.64967 0
M  V30 8249 H 796.916 0.139287 -3.8825 0
M  V30 8250 H 798.588 -2.47042 -3.89574 0
M  V30 8251 H 796.831 -2.38146 -3.62586 0
M  V30 8252 H 797.502 -1.89352 -5.18507 0
M  V30 8253 H 799.978 -0.266703 -4.15244 0
M  V30 8254 H 798.854 0.0925415 -5.48822 0
M  V30 8255 H 799.115 1.289 -4.22891 0
M  V30 8256 N 798.174 1.49689 -0.493057 0
M  V30 8257 C 799.585 1.8665 -0.0433032 0
M  V30 8258 C 799.936 1.40607 1.36836 0
M  V30 8259 O 799.061 0.780503 2.01834 0
M  V30 8260 C 799.656 3.38724 -0.0718069 0
M  V30 8261 C 798.215 3.75015 0.32257 0
M  V30 8262 C 797.362 2.7366 -0.4478 0
M  V30 8263 H 800.313 1.42119 -0.706246 0
M  V30 8264 H 800.334 3.73522 0.725347 0
M  V30 8265 H 799.846 3.72204 -1.09935 0
M  V30 8266 H 797.947 3.47142 1.35364 0
M  V30 8267 H 798.06 4.79099 0.00864259 0
M  V30 8268 H 796.424 2.54498 0.101354 0
M  V30 8269 H 797.207 3.09985 -1.47527 0
M  V30 8270 N 799.652 0.226554 1.55963 0
M  V30 8271 C 800.582 -0.676079 2.23498 0
M  V30 8272 C 801.563 -1.19718 1.20837 0
M  V30 8273 O 802.748 -1.24027 1.49436 0
M  V30 8274 C 799.878 -1.88217 2.91876 0
M  V30 8275 C 798.832 -1.4947 4.01052 0
M  V30 8276 C 798.158 -2.77997 4.56751 0
M  V30 8277 C 799.458 -0.680951 5.17842 0
M  V30 8278 H 801.152 -0.112989 2.99187 0
M  V30 8279 H 798.698 -0.0529046 1.43903 0
M  V30 8280 H 800.651 -2.51911 3.37815 0
M  V30 8281 H 799.375 -2.47031 2.13643 0
M  V30 8282 H 798.034 -0.881199 3.55852 0
M  V30 8283 H 797.682 -3.34966 3.75243 0
M  V30 8284 H 797.382 -2.52803 5.30438 0
M  V30 8285 H 798.906 -3.42625 5.05411 0
M  V30 8286 H 800.32 -1.22171 5.60131 0
M  V30 8287 H 798.717 -0.525898 5.97791 0
M  V30 8288 H 799.787 0.311346 4.83899 0
M  V30 8289 N 801.13 -1.57531 -0.0467866 0
M  V30 8290 C 802.355 -1.93087 -0.757123 0
M  V30 8291 C 802.78 -0.825116 -1.69037 0
M  V30 8292 O 802.138 0.220449 -1.79955 0
M  V30 8293 C 802.186 -3.27669 -1.5055 0
M  V30 8294 O 801.29 -3.18667 -2.61773 0
M  V30 8295 H 800.631 -0.631597 -0.204892 0
M  V30 8296 H 803.161 -2.04599 -0.00755232 0
M  V30 8297 H 803.171 -3.6214 -1.87932 0
M  V30 8298 H 801.846 -4.07717 -0.820931 0
M  V30 8299 H 800.423 -2.95798 -2.27064 0
M  V30 8300 N 802.608 0.318715 -1.54344 0
M  V30 8301 C 803.836 1.0755 -1.7675 0
M  V30 8302 C 804.251 1.81543 -0.518422 0
M  V30 8303 O 803.608 1.75198 0.511078 0
M  V30 8304 C 803.659 2.06983 -2.96378 0
M  V30 8305 O 803.38 1.35995 -4.16458 0
M  V30 8306 C 804.881 2.94841 -3.31034 0
M  V30 8307 H 802.101 0.319711 -0.589937 0
M  V30 8308 H 804.645 0.363369 -2.01246 0
M  V30 8309 H 802.8 2.73724 -2.74142 0
M  V30 8310 H 803.214 2.02623 -4.83781 0
M  V30 8311 H 804.688 3.60496 -4.18027 0
M  V30 8312 H 805.165 3.62199 -2.48412 0
M  V30 8313 H 805.771 2.33656 -3.55366 0
M  V30 8314 N 804.086 1.46499 0.581025 0
M  V30 8315 C 805.497 1.4604 1.16315 0
M  V30 8316 C 805.848 0.202154 1.95156 0
M  V30 8317 O 804.973 -0.694638 2.04948 0
M  V30 8318 C 805.568 2.64593 2.11604 0
M  V30 8319 C 804.127 2.6717 2.65136 0
M  V30 8320 C 803.274 2.38753 1.4104 0
M  V30 8321 H 806.225 1.54354 0.368871 0
M  V30 8322 H 806.246 2.40207 2.95095 0
M  V30 8323 H 805.758 3.56154 1.54194 0
M  V30 8324 H 803.859 1.79685 3.26411 0
M  V30 8325 H 803.972 3.67182 3.07757 0
M  V30 8326 H 802.336 1.88845 1.70908 0
M  V30 8327 H 803.119 3.32493 0.854588 0
M  V30 8328 N 805.565 -0.825799 1.34232 0
M  V30 8329 C 806.512 -1.93651 1.2557 0
M  V30 8330 C 807.482 -1.65578 0.131536 0
M  V30 8331 O 808.667 -1.88231 0.312027 0
M  V30 8332 C 805.807 -3.29862 1.01415 0
M  V30 8333 C 804.92 -3.70247 2.22579 0
M  V30 8334 C 804.055 -4.95392 1.91731 0
M  V30 8335 C 803.094 -5.28349 3.09053 0
M  V30 8336 N 802.231 -6.44671 2.78107 0
M  V30 8337 H 807.071 -2.00392 2.20561 0
M  V30 8338 H 804.608 -0.980441 1.09662 0
M  V30 8339 H 806.566 -4.08356 0.854485 0
M  V30 8340 H 805.196 -3.22642 0.100936 0
M  V30 8341 H 804.248 -2.87169 2.49476 0
M  V30 8342 H 805.56 -3.90575 3.10246 0
M  V30 8343 H 804.714 -5.81665 1.72484 0
M  V30 8344 H 803.453 -4.77059 1.0132 0
M  V30 8345 H 802.458 -4.40574 3.289 0
M  V30 8346 H 803.683 -5.48622 4.00239 0
M  V30 8347 H 801.629 -6.278 1.9027 0
M  V30 8348 H 801.546 -6.65158 3.59306 0
M  V30 8349 H 802.814 -7.34022 2.62358 0
M  V30 8350 N 807.043 -1.17915 -1.04565 0
M  V30 8351 C 808.268 -0.996749 -1.81878 0
M  V30 8352 C 808.693 0.450169 -1.82634 0
M  V30 8353 O 808.051 1.32268 -1.23995 0
M  V30 8354 C 808.099 -1.55005 -3.25585 0
M  V30 8355 O 807.203 -0.76804 -4.05185 0
M  V30 8356 H 806.544 -0.353456 -0.562108 0
M  V30 8357 H 809.074 -1.56557 -1.31723 0
M  V30 8358 H 809.084 -1.57503 -3.76373 0
M  V30 8359 H 807.759 -2.60327 -3.2435 0
M  V30 8360 H 806.336 -0.81498 -3.63885 0
M  V30 8361 N 808.521 1.23394 -0.980386 0
M  V30 8362 C 809.454 2.23404 -0.465404 0
M  V30 8363 C 810.432 1.55735 0.467471 0
M  V30 8364 O 811.616 1.84295 0.395921 0
M  V30 8365 C 808.743 3.3712 0.32672 0
M  V30 8366 C 807.789 4.22935 -0.550296 0
M  V30 8367 S 808.622 4.96824 -1.99814 0
M  V30 8368 C 809.778 6.13991 -1.21516 0
M  V30 8369 H 810.011 2.6674 -1.31289 0
M  V30 8370 H 807.544 1.32874 -0.78638 0
M  V30 8371 H 809.502 4.03065 0.777738 0
M  V30 8372 H 808.163 2.92317 1.14933 0
M  V30 8373 H 807.356 5.03966 0.0585298 0
M  V30 8374 H 806.958 3.62058 -0.937558 0
M  V30 8375 H 809.25 6.75822 -0.476476 0
M  V30 8376 H 810.193 6.7926 -2.0003 0
M  V30 8377 H 810.601 5.59708 -0.733949 0
M  V30 8378 N 809.999 0.752036 1.385 0
M  V30 8379 C 811.224 0.316993 2.04963 0
M  V30 8380 C 811.649 -1.04582 1.56346 0
M  V30 8381 O 811.007 -1.66616 0.714755 0
M  V30 8382 C 811.055 0.347235 3.58924 0
M  V30 8383 O 810.159 -0.659296 4.07096 0
M  V30 8384 H 809.5 0.140652 0.648932 0
M  V30 8385 H 812.03 1.02272 1.77205 0
M  V30 8386 H 812.04 0.19757 4.07521 0
M  V30 8387 H 810.715 1.34157 3.93668 0
M  V30 8388 H 809.292 -0.474371 3.6987 0
M  V30 8389 N 811.477 -1.49425 0.500989 0
M  V30 8390 C 812.41 -2.25887 -0.324087 0
M  V30 8391 C 813.388 -1.30469 -0.970388 0
M  V30 8392 O 814.572 -1.59758 -1.00049 0
M  V30 8393 C 811.699 -3.05787 -1.45643 0
M  V30 8394 C 810.745 -4.16359 -0.924508 0
M  V30 8395 S 811.578 -5.35181 0.184707 0
M  V30 8396 C 812.734 -6.18636 -0.950806 0
M  V30 8397 H 812.967 -2.95519 0.324891 0
M  V30 8398 H 810.5 -1.51723 0.286289 0
M  V30 8399 H 812.458 -3.52405 -2.10525 0
M  V30 8400 H 811.119 -2.35624 -2.07703 0
M  V30 8401 H 810.312 -4.71781 -1.77311 0
M  V30 8402 H 809.914 -3.72331 -0.352907 0
M  V30 8403 H 812.206 -6.51581 -1.85603 0
M  V30 8404 H 813.149 -7.06761 -0.435212 0
M  V30 8405 H 813.557 -5.512 -1.21813 0
M  V30 8406 N 812.955 -0.234822 -1.55841 0
M  V30 8407 C 813.885 0.664217 -2.23854 0
M  V30 8408 C 814.866 1.19076 -1.2147 0
M  V30 8409 O 816.051 1.23232 -1.50091 0
M  V30 8410 C 813.181 1.86666 -2.9287 0
M  V30 8411 C 812.135 1.47341 -4.01839 0
M  V30 8412 C 811.461 2.75571 -4.58219 0
M  V30 8413 C 812.761 0.653479 -5.18196 0
M  V30 8414 H 814.455 0.0971213 -2.99242 0
M  V30 8415 H 812.001 0.0452724 -1.43929 0
M  V30 8416 H 813.954 2.50116 -3.39146 0
M  V30 8417 H 812.678 2.45894 -2.1495 0
M  V30 8418 H 811.337 0.862314 -3.56314 0
M  V30 8419 H 810.985 3.32971 -3.77014 0
M  V30 8420 H 810.685 2.49987 -5.31771 0
M  V30 8421 H 812.209 3.39939 -5.07221 0
M  V30 8422 H 813.623 1.19198 -5.60771 0
M  V30 8423 H 812.02 0.494188 -5.98062 0
M  V30 8424 H 813.09 -0.337004 -4.83728 0
M  V30 8425 N 814.433 1.57553 0.0384317 0
M  V30 8426 C 815.681 1.88468 0.729672 0
M  V30 8427 C 816.002 0.831302 1.76393 0
M  V30 8428 O 815.272 -0.13622 1.95426 0
M  V30 8429 H 813.852 0.695529 0.272485 0
M  V30 8430 H 816.514 1.94899 0.0066032 0
M  V30 8431 H 815.61 2.8705 1.22511 0
M  V30 8432 N 815.911 -0.310526 1.54511 0
M  V30 8433 C 817.158 -1.04691 1.73338 0
M  V30 8434 C 817.486 -1.87584 0.514038 0
M  V30 8435 O 816.741 -1.89096 -0.504119 0
M  V30 8436 C 817.04 -1.98942 2.96912 0
M  V30 8437 C 816.706 -1.321 4.31115 0
M  V30 8438 C 815.368 -1.13603 4.67598 0
M  V30 8439 C 817.72 -0.842362 5.14348 0
M  V30 8440 C 815.048 -0.459102 5.84901 0
M  V30 8441 C 817.4 -0.179202 6.32346 0
M  V30 8442 C 816.064 0.0178111 6.67498 0
M  V30 8443 H 815.334 -0.38309 0.634289 0
M  V30 8444 H 817.981 -0.322723 1.88761 0
M  V30 8445 H 816.286 -2.77856 2.76231 0
M  V30 8446 H 817.983 -2.55972 3.08674 0
M  V30 8447 H 814.573 -1.47502 4.02419 0
M  V30 8448 H 818.757 -0.973013 4.86668 0
M  V30 8449 H 814.013 -0.295385 6.10686 0
M  V30 8450 H 818.187 0.199619 6.96114 0
M  V30 8451 H 815.814 0.544356 7.58249 0
M  V30 8452 N 817.389 -1.46805 -0.573248 0
M  V30 8453 C 818.635 -1.5283 -1.33307 0
M  V30 8454 C 818.968 -0.183287 -1.93333 0
M  V30 8455 O 818.243 0.806354 -1.76998 0
M  V30 8456 C 818.526 -2.63414 -2.45531 0
M  V30 8457 C 818.379 -4.07478 -1.90478 0
M  V30 8458 C 819.698 -2.70014 -3.47535 0
M  V30 8459 H 816.817 -0.556371 -0.483343 0
M  V30 8460 H 819.459 -1.78787 -0.643066 0
M  V30 8461 H 817.609 -2.41412 -3.04389 0
M  V30 8462 H 819.281 -4.40795 -1.36004 0
M  V30 8463 H 817.524 -4.16511 -1.21248 0
M  V30 8464 H 818.195 -4.80598 -2.71531 0
M  V30 8465 H 820.671 -2.89817 -2.98572 0
M  V30 8466 H 819.547 -3.49192 -4.23504 0
M  V30 8467 H 819.808 -1.76436 -4.05367 0
M  V30 8468 N 818.867 0.818669 -1.34668 0
M  V30 8469 C 820.092 1.61193 -1.30505 0
M  V30 8470 C 820.517 1.87734 0.117341 0
M  V30 8471 O 819.875 1.45591 1.08042 0
M  V30 8472 C 819.923 2.92733 -2.1057 0
M  V30 8473 O 819.027 3.85 -1.47813 0
M  V30 8474 H 818.368 0.490085 -0.44801 0
M  V30 8475 H 820.898 1.01701 -1.77534 0
M  V30 8476 H 820.908 3.42262 -2.22082 0
M  V30 8477 H 819.583 2.7274 -3.13984 0
M  V30 8478 H 818.16 3.43525 -1.45069 0
M  V30 8479 N 820.346 1.18468 1.03938 0
M  V30 8480 C 821.309 0.914944 2.10146 0
M  V30 8481 C 822.309 -0.10022 1.60487 0
M  V30 8482 O 823.499 0.133365 1.73689 0
M  V30 8483 C 820.631 0.372993 3.38853 0
M  V30 8484 H 821.824 1.85677 2.35508 0
M  V30 8485 H 819.377 0.996876 1.20383 0
M  V30 8486 H 820.112 -0.57538 3.19155 0
M  V30 8487 H 819.897 1.1048 3.76213 0
M  V30 8488 H 821.387 0.203014 4.17106 0
M  V30 8489 N 821.824 -1.22873 0.986916 0
M  V30 8490 C 823.064 -1.93192 0.667543 0
M  V30 8491 C 823.428 -1.7521 -0.785196 0
M  V30 8492 O 824.629 -2.39737 -1.2157 0
M  V30 8493 C 822.9 -3.4147 1.05513 0
M  V30 8494 S 824.459 -4.30425 0.853218 0
M  V30 8495 H 821.277 -0.667726 0.244261 0
M  V30 8496 H 823.879 -1.48808 1.26793 0
M  V30 8497 H 822.583 -3.52069 2.10892 0
M  V30 8498 H 822.114 -3.9086 0.446293 0
M  V30 8499 H 824.129 -4.95521 -0.259444 0
M  V30 8500 N 823.302 -0.75937 -1.38099 0
M  V30 8501 C 824.25 -0.124954 -2.32264 0
M  V30 8502 C 825.244 0.698863 -1.54312 0
M  V30 8503 O 826.45 0.597312 -1.698 0
M  V30 8504 H 822.825 -0.0216142 -0.751689 0
M  V30 8505 H 824.796 -0.935115 -2.83369 0
M  V30 8506 C 823.545 0.749463 -3.39527 0
M  V30 8507 H 822.868 0.124932 -3.99605 0
M  V30 8508 H 824.308 1.16055 -4.07808 0
M  V30 8509 C 822.767 1.89464 -2.78577 0
M  V30 8510 O 823.297 2.98923 -2.68343 0
M  V30 8511 N 821.503 1.69145 -2.36301 0
M  V30 8512 H 821.05 0.801157 -2.44825 0
M  V30 8513 H 821.008 2.45936 -1.95864 0
M  V30 8514 N 824.78 1.49157 -0.508906 0
M  V30 8515 C 826.057 1.95363 0.0961913 0
M  V30 8516 C 826.437 1.45064 1.53362 0
M  V30 8517 O 825.785 0.667835 2.18523 0
M  V30 8518 C 825.995 3.49 0.000688881 0
M  V30 8519 C 827.343 4.24257 0.170632 0
M  V30 8520 O 828.367 3.5612 0.0754994 0
M  V30 8521 O 827.226 5.45267 0.366957 0
M  V30 8522 H 824.32 0.821984 0.0909489 0
M  V30 8523 H 826.866 1.59769 -0.572007 0
M  V30 8524 H 825.638 3.78269 -1.00143 0
M  V30 8525 H 825.261 3.91233 0.708682 0
M  V30 8526 N 826.258 0.243083 1.55714 0
M  V30 8527 C 827.505 -0.38272 1.9885 0
M  V30 8528 C 827.833 -1.58225 1.13115 0
M  V30 8529 O 827.088 -1.94861 0.181067 0
M  V30 8530 C 827.387 -0.839621 3.47398 0
M  V30 8531 C 827.053 0.251737 4.50197 0
M  V30 8532 C 825.715 0.551487 4.78029 0
M  V30 8533 C 828.067 0.988728 5.11736 0
M  V30 8534 C 825.395 1.59237 5.64677 0
M  V30 8535 C 827.747 2.0191 5.99512 0
M  V30 8536 C 826.411 2.32554 6.2568 0
M  V30 8537 H 825.681 -0.140047 0.727645 0
M  V30 8538 H 828.328 0.35011 1.88272 0
M  V30 8539 H 826.633 -1.65159 3.55288 0
M  V30 8540 H 828.33 -1.33404 3.78159 0
M  V30 8541 H 824.92 0.00796741 4.28599 0
M  V30 8542 H 829.104 0.7704 4.90284 0
M  V30 8543 H 824.36 1.83517 5.83208 0
M  V30 8544 H 828.534 2.59511 6.46241 0
M  V30 8545 H 826.161 3.13349 6.92616 0
M  V30 8546 N 827.736 -1.57571 -0.0300757 0
M  V30 8547 C 828.961 -1.93879 -0.736601 0
M  V30 8548 C 829.386 -0.842998 -1.68152 0
M  V30 8549 O 828.744 0.20135 -1.80178 0
M  V30 8550 C 828.792 -3.29247 -1.47066 0
M  V30 8551 O 827.896 -3.21426 -2.58378 0
M  V30 8552 H 827.237 -0.633735 -0.198181 0
M  V30 8553 H 829.767 -2.04595 0.0141485 0
M  V30 8554 H 829.777 -3.64113 -1.84081 0
M  V30 8555 H 828.452 -4.08565 -0.77764 0
M  V30 8556 H 827.029 -2.98189 -2.23914 0
M  V30 8557 N 829.214 0.302327 -1.54673 0
M  V30 8558 C 830.46 1.03924 -1.74149 0
M  V30 8559 C 830.793 1.86968 -0.525041 0
M  V30 8560 O 830.068 1.88538 0.477868 0
M  V30 8561 C 830.351 1.94633 -3.02969 0
M  V30 8562 C 830.204 1.14778 -4.34909 0
M  V30 8563 C 831.523 2.93826 -3.27649 0
M  V30 8564 H 828.642 0.376405 -0.633631 0
M  V30 8565 H 831.284 0.314007 -1.87387 0
M  V30 8566 H 829.434 2.56471 -2.91813 0
M  V30 8567 H 831.106 0.552363 -4.57981 0
M  V30 8568 H 829.349 0.450462 -4.31455 0
M  V30 8569 H 830.02 1.81495 -5.21309 0
M  V30 8570 H 832.496 2.42117 -3.38406 0
M  V30 8571 H 831.372 3.54462 -4.19104 0
M  V30 8572 H 831.633 3.67416 -2.45882 0
M  V30 8573 N 830.692 1.47107 0.565454 0
M  V30 8574 C 832.108 1.32443 0.890566 0
M  V30 8575 C 832.308 0.308735 1.99121 0
M  V30 8576 O 831.364 -0.28265 2.50913 0
M  V30 8577 C 832.677 2.71548 1.2916 0
M  V30 8578 C 834.225 2.7977 1.40349 0
M  V30 8579 C 834.7 4.19497 1.83811 0
M  V30 8580 N 836.191 4.21998 1.90975 0
M  V30 8581 C 836.926 5.2702 2.25916 0
M  V30 8582 N 836.422 6.42353 2.59527 0
M  V30 8583 N 838.215 5.14393 2.26619 0
M  V30 8584 H 830.366 2.11786 -0.161328 0
M  V30 8585 H 832.629 0.947952 -0.00950631 0
M  V30 8586 H 832.335 3.47265 0.556753 0
M  V30 8587 H 832.209 3.02782 2.24951 0
M  V30 8588 H 834.596 2.0433 2.12916 0
M  V30 8589 H 834.677 2.522 0.427655 0
M  V30 8590 H 834.321 4.95439 1.11816 0
M  V30 8591 H 834.251 4.44486 2.82382 0
M  V30 8592 H 836.742 3.38791 1.6742 0
M  V30 8593 H 837.055 7.18252 2.85191 0
M  V30 8594 H 835.4 6.45687 2.57126 0
M  V30 8595 H 838.591 4.2332 1.99794 0
M  V30 8596 H 838.764 5.96349 2.5352 0
M  V30 8597 N 832.17 -0.811516 1.35101 0
M  V30 8598 C 833.1 -1.9378 1.30275 0
M  V30 8599 C 834.081 -1.69165 0.178075 0
M  V30 8600 O 835.266 -1.90599 0.372256 0
M  V30 8601 C 832.396 -3.30439 1.06899 0
M  V30 8602 C 831.35 -3.69523 2.15955 0
M  V30 8603 C 830.676 -5.0429 1.77751 0
M  V30 8604 C 831.976 -3.80419 3.57881 0
M  V30 8605 H 833.67 -1.98075 2.24514 0
M  V30 8606 H 831.216 -0.951586 1.08078 0
M  V30 8607 H 833.169 -4.08828 1.02164 0
M  V30 8608 H 831.893 -3.26473 0.0910462 0
M  V30 8609 H 830.552 -2.93416 2.19778 0
M  V30 8610 H 830.2 -4.96823 0.785876 0
M  V30 8611 H 829.9 -5.31411 2.5075 0
M  V30 8612 H 831.424 -5.85125 1.74533 0
M  V30 8613 H 832.838 -4.49051 3.56407 0
M  V30 8614 H 831.235 -4.19005 4.29598 0
M  V30 8615 H 832.305 -2.82105 3.94391 0
M  V30 8616 N 833.648 -1.19017 -1.03309 0
M  V30 8617 C 834.578 -0.94772 -2.13402 0
M  V30 8618 C 835.559 0.117383 -1.69694 0
M  V30 8619 O 836.744 -0.0367733 -1.94165 0
M  V30 8620 C 833.874 -0.480977 -3.43953 0
M  V30 8621 C 832.828 -1.48743 -4.01322 0
M  V30 8622 C 832.154 -0.877924 -5.27443 0
M  V30 8623 C 833.454 -2.86642 -4.36616 0
M  V30 8624 H 835.148 -1.86846 -2.33942 0
M  V30 8625 H 832.694 -0.899781 -1.12427 0
M  V30 8626 H 834.647 -0.298677 -4.2034 0
M  V30 8627 H 833.371 0.475348 -3.23122 0
M  V30 8628 H 832.03 -1.65681 -3.27025 0
M  V30 8629 H 831.678 0.0858232 -5.02927 0
M  V30 8630 H 831.378 -1.54996 -5.66789 0
M  V30 8631 H 832.902 -0.706326 -6.06501 0
M  V30 8632 H 834.316 -2.73312 -5.03958 0
M  V30 8633 H 832.713 -3.50599 -4.87032 0
M  V30 8634 H 833.783 -3.39617 -3.46105 0
M  V30 8635 N 835.127 1.22348 -0.993418 0
M  V30 8636 C 836.543 1.43222 -0.704238 0
M  V30 8637 C 836.743 1.88009 0.724909 0
M  V30 8638 O 835.799 2.03429 1.49575 0
M  V30 8639 C 837.112 2.47328 -1.71025 0
M  V30 8640 C 838.66 2.61126 -1.72576 0
M  V30 8641 C 839.135 3.68453 -2.72041 0
M  V30 8642 N 840.626 3.75911 -2.70639 0
M  V30 8643 C 841.361 4.58551 -3.44266 0
M  V30 8644 N 840.857 5.45179 -4.27495 0
M  V30 8645 N 842.65 4.52866 -3.32969 0
M  V30 8646 H 834.801 0.915832 -1.91641 0
M  V30 8647 H 837.064 0.464283 -0.826526 0
M  V30 8648 H 836.77 2.21366 -2.73295 0
M  V30 8649 H 836.644 3.45939 -1.50353 0
M  V30 8650 H 839.031 2.86431 -0.710037 0
M  V30 8651 H 839.112 1.62787 -1.97317 0
M  V30 8652 H 838.756 3.43895 -3.73763 0
M  V30 8653 H 838.686 4.66362 -2.4457 0
M  V30 8654 H 841.177 3.14014 -2.10247 0
M  V30 8655 H 841.49 6.0526 -4.80499 0
M  V30 8656 H 839.835 5.44759 -4.31582 0
M  V30 8657 H 843.026 3.84215 -2.67389 0
M  V30 8658 H 843.199 5.17039 -3.90608 0
M  V30 8659 N 836.605 0.766683 1.37694 0
M  V30 8660 C 837.882 0.25366 1.93948 0
M  V30 8661 C 838.262 -1.25041 1.70082 0
M  V30 8662 O 837.61 -2.03115 1.04674 0
M  V30 8663 C 837.82 0.621549 3.43421 0
M  V30 8664 C 839.168 0.588504 4.20502 0
M  V30 8665 O 840.192 0.560632 3.5176 0
M  V30 8666 O 839.051 0.61107 5.43073 0
M  V30 8667 H 836.145 0.0570586 0.825029 0
M  V30 8668 H 838.691 0.847693 1.47011 0
M  V30 8669 H 837.463 1.65979 3.54354 0
M  V30 8670 H 837.086 0.000197027 3.976 0
M  V30 8671 N 838.083 -1.48885 0.516809 0
M  V30 8672 C 839.311 -2.06892 -0.0184017 0
M  V30 8673 C 839.726 -1.37511 -1.29368 0
M  V30 8674 O 839.083 -0.458409 -1.76649 0
M  V30 8675 C 839.134 -3.60566 -0.259673 0
M  V30 8676 O 838.855 -4.27338 0.965065 0
M  V30 8677 C 840.356 -4.35331 -0.836751 0
M  V30 8678 H 837.576 -0.670433 0.0275743 0
M  V30 8679 H 840.12 -1.91455 0.718689 0
M  V30 8680 H 838.275 -3.75653 -0.94678 0
M  V30 8681 H 838.689 -5.19287 0.737647 0
M  V30 8682 H 840.163 -5.43675 -0.955065 0
M  V30 8683 H 840.64 -3.9887 -1.83845 0
M  V30 8684 H 841.246 -4.2489 -0.186622 0
M  V30 8685 N 839.561 -0.251338 -1.55583 0
M  V30 8686 C 840.789 0.376187 -2.03451 0
M  V30 8687 C 841.204 1.51215 -1.13047 0
M  V30 8688 O 840.561 1.81917 -0.145769 0
M  V30 8689 C 840.612 0.879779 -3.50631 0
M  V30 8690 O 840.333 -0.210917 -4.37592 0
M  V30 8691 C 841.834 1.57754 -4.14281 0
M  V30 8692 H 839.054 0.0888722 -0.665089 0
M  V30 8693 H 841.598 -0.376497 -2.01004 0
M  V30 8694 H 839.753 1.58263 -3.53598 0
M  V30 8695 H 840.167 0.172203 -5.24217 0
M  V30 8696 H 841.641 1.88158 -5.18942 0
M  V30 8697 H 842.118 2.50103 -3.61034 0
M  V30 8698 H 842.724 0.919154 -4.15249 0
M  V30 8699 N 841.039 1.57585 0.0217189 0
M  V30 8700 C 841.989 2.03506 1.02807 0
M  V30 8701 C 842.973 0.925716 1.31603 0
M  V30 8702 O 844.165 1.18958 1.31065 0
M  V30 8703 C 841.294 2.52407 2.32693 0
M  V30 8704 C 840.38 3.70176 2.06955 0
M  V30 8705 N 840.771 4.82641 1.513 0
M  V30 8706 C 839.069 3.77691 2.37204 0
M  V30 8707 C 839.77 5.64218 1.41536 0
M  V30 8708 N 838.746 5.09557 1.89348 0
M  V30 8709 H 842.548 2.87878 0.591899 0
M  V30 8710 H 840.062 1.60793 0.227875 0
M  V30 8711 H 842.059 2.83569 3.05605 0
M  V30 8712 H 840.719 1.69444 2.76982 0
M  V30 8713 H 841.73 5.03931 1.19472 0
M  V30 8714 H 838.407 3.05542 2.84517 0
M  V30 8715 H 839.797 6.64576 0.989333 0
M  V30 8716 N 842.517 -0.29412 1.54831 0
M  V30 8717 C 843.766 -1.02614 1.73647 0
M  V30 8718 C 844.079 -1.88193 0.533162 0
M  V30 8719 O 845.285 -2.64713 0.603275 0
M  V30 8720 C 843.741 -1.87417 3.07251 0
M  V30 8721 C 843.349 -1.06806 4.35082 0
M  V30 8722 C 845.093 -2.60176 3.35423 0
M  V30 8723 C 843 -1.90926 5.59733 0
M  V30 8724 H 841.93 -0.386834 0.647206 0
M  V30 8725 H 844.581 -0.282789 1.81308 0
M  V30 8726 H 842.963 -2.65765 2.93572 0
M  V30 8727 H 844.137 -0.330226 4.59615 0
M  V30 8728 H 842.452 -0.455979 4.13896 0
M  V30 8729 H 845.049 -3.23476 4.25755 0
M  V30 8730 H 845.392 -3.29365 2.54606 0
M  V30 8731 H 845.925 -1.88871 3.50103 0
M  V30 8732 H 842.664 -1.26194 6.43238 0
M  V30 8733 H 842.184 -2.62363 5.39375 0
M  V30 8734 H 843.863 -2.48807 5.97247 0
M  V30 8735 N 843.995 -1.47404 -0.557645 0
M  V30 8736 C 845.22 -1.57868 -1.34508 0
M  V30 8737 C 845.645 -0.229151 -1.86699 0
M  V30 8738 O 845.003 0.794908 -1.62944 0
M  V30 8739 C 845.051 -2.60712 -2.49122 0
M  V30 8740 O 844.155 -2.15952 -3.51338 0
M  V30 8741 H 843.496 -0.530335 -0.399551 0
M  V30 8742 H 846.026 -1.93181 -0.673954 0
M  V30 8743 H 846.036 -2.81118 -2.95697 0
M  V30 8744 H 844.711 -3.58701 -2.10491 0
M  V30 8745 H 843.288 -2.05644 -3.11071 0
M  V30 8746 N 845.473 0.80434 -1.35529 0
M  V30 8747 C 846.405 1.92445 -1.2449 0
M  V30 8748 C 847.418 1.61934 -0.167685 0
M  V30 8749 O 848.607 1.73461 -0.42115 0
M  V30 8750 C 845.707 3.26875 -0.894751 0
M  V30 8751 C 844.88 3.85275 -2.07079 0
M  V30 8752 C 843.939 4.98116 -1.69607 0
M  V30 8753 O 842.965 5.15424 -2.41509 0
M  V30 8754 N 844.167 5.77169 -0.621012 0
M  V30 8755 H 846.932 2.02441 -2.20993 0
M  V30 8756 H 844.493 0.981874 -1.28728 0
M  V30 8757 H 846.485 3.99837 -0.625511 0
M  V30 8758 H 845.055 3.12594 -0.0193306 0
M  V30 8759 H 844.275 3.0448 -2.5037 0
M  V30 8760 H 845.563 4.21024 -2.85685 0
M  V30 8761 H 844.961 5.65695 -0.0236679 0
M  V30 8762 H 843.518 6.50499 -0.411558 0
M  V30 8763 N 846.951 1.19563 1.02676 0
M  V30 8764 C 848.176 1.02556 1.80269 0
M  V30 8765 C 848.601 -0.421056 1.83327 0
M  V30 8766 O 847.959 -1.30279 1.26084 0
M  V30 8767 C 848.007 1.60165 3.23078 0
M  V30 8768 O 847.111 0.832404 4.03912 0
M  V30 8769 H 846.452 0.362354 0.556413 0
M  V30 8770 H 848.982 1.58633 1.29216 0
M  V30 8771 H 848.992 1.6347 3.7382 0
M  V30 8772 H 847.667 2.65454 3.20167 0
M  V30 8773 H 846.244 0.872768 3.62543 0
M  V30 8774 N 848.429 -1.21819 0.999893 0
M  V30 8775 C 849.392 -2.22227 0.561044 0
M  V30 8776 C 850.392 -1.56722 -0.359858 0
M  V30 8777 O 851.582 -1.73546 -0.150848 0
M  V30 8778 C 848.714 -3.40409 -0.182987 0
M  V30 8779 H 849.907 -2.62567 1.44909 0
M  V30 8780 H 847.46 -1.34991 0.78785 0
M  V30 8781 H 848.195 -3.05551 -1.08671 0
M  V30 8782 H 847.98 -3.89171 0.47833 0
M  V30 8783 H 849.47 -4.14856 -0.477952 0
M  V30 8784 N 849.908 -0.773975 -1.37286 0
M  V30 8785 C 850.838 -0.175782 -2.32837 0
M  V30 8786 C 851.819 0.680603 -1.5589 0
M  V30 8787 O 853.004 0.617607 -1.84117 0
M  V30 8788 C 850.134 0.702388 -3.40123 0
M  V30 8789 C 849.088 -0.0528687 -4.27967 0
M  V30 8790 C 848.414 0.944891 -5.26285 0
M  V30 8791 C 849.714 -1.23316 -5.07534 0
M  V30 8792 H 851.408 -0.974016 -2.83114 0
M  V30 8793 H 848.954 -0.469826 -1.3612 0
M  V30 8794 H 850.907 1.13069 -4.05947 0
M  V30 8795 H 849.631 1.53316 -2.88378 0
M  V30 8796 H 848.29 -0.461978 -3.63678 0
M  V30 8797 H 847.938 1.77028 -4.70819 0
M  V30 8798 H 847.638 0.444079 -5.8592 0
M  V30 8799 H 849.162 1.37209 -5.94984 0
M  V30 8800 H 850.576 -0.881395 -5.66484 0
M  V30 8801 H 848.973 -1.66621 -5.76504 0
M  V30 8802 H 850.043 -2.03617 -4.40077 0
M  V30 8803 N 851.386 1.48609 -0.524698 0
M  V30 8804 C 852.797 1.86516 -0.0828846 0
M  V30 8805 C 853.148 1.43478 1.33822 0
M  V30 8806 O 852.273 0.823139 2.00133 0
M  V30 8807 C 852.868 3.38495 -0.143639 0
M  V30 8808 C 851.427 3.75615 0.242951 0
M  V30 8809 C 850.574 2.72649 -0.505747 0
M  V30 8810 H 853.525 1.40589 -0.736233 0
M  V30 8811 H 853.546 3.74977 0.645955 0
M  V30 8812 H 853.058 3.69789 -1.17805 0
M  V30 8813 H 851.159 3.49935 1.27971 0
M  V30 8814 H 851.272 4.7901 -0.0929834 0
M  V30 8815 H 849.636 2.54656 0.0473482 0
M  V30 8816 H 850.419 3.06786 -1.54069 0
M  V30 8817 N 852.864 0.259585 1.55447 0
M  V30 8818 C 853.796 -0.667548 2.19263 0
M  V30 8819 C 854.809 -1.12925 1.17268 0
M  V30 8820 O 855.998 -1.05384 1.44071 0
M  V30 8821 C 853.098 -1.92066 2.7922 0
M  V30 8822 C 852.271 -1.60832 4.06758 0
M  V30 8823 C 851.33 -2.71231 4.50911 0
M  V30 8824 O 850.356 -2.38077 5.17019 0
M  V30 8825 N 851.558 -4.00984 4.19752 0
M  V30 8826 H 854.323 -0.121449 2.99454 0
M  V30 8827 H 851.884 0.0800519 1.61702 0
M  V30 8828 H 853.876 -2.65186 3.0571 0
M  V30 8829 H 852.446 -2.37621 2.03113 0
M  V30 8830 H 851.666 -0.711685 3.87722 0
M  V30 8831 H 852.954 -1.37445 4.89884 0
M  V30 8832 H 852.352 -4.30748 3.66706 0
M  V30 8833 H 850.909 -4.7053 4.51048 0
M  V30 8834 N 854.342 -1.57594 -0.0133615 0
M  V30 8835 C 855.59 -1.89605 -0.699596 0
M  V30 8836 C 855.911 -0.85926 -1.75048 0
M  V30 8837 O 855.181 0.105112 -1.95618 0
M  V30 8838 H 853.761 -0.699776 -0.261385 0
M  V30 8839 H 856.423 -1.94885 0.0244044 0
M  V30 8840 H 855.519 -2.88962 -1.17928 0
M  V30 8841 N 855.82 0.285905 -1.54985 0
M  V30 8842 C 857.069 1.01691 -1.74189 0
M  V30 8843 C 857.382 1.87908 -0.543135 0
M  V30 8844 O 858.588 2.64389 -0.617305 0
M  V30 8845 C 857.044 1.85785 -3.0824 0
M  V30 8846 C 856.652 1.04497 -4.35642 0
M  V30 8847 C 858.396 2.58393 -3.36798 0
M  V30 8848 C 856.303 1.87955 -5.60738 0
M  V30 8849 H 855.233 0.383396 -0.649248 0
M  V30 8850 H 857.884 0.27317 -1.81455 0
M  V30 8851 H 856.266 2.64205 -2.94978 0
M  V30 8852 H 857.44 0.305847 -4.59784 0
M  V30 8853 H 855.755 0.434023 -4.14132 0
M  V30 8854 H 858.352 3.21214 -4.27464 0
M  V30 8855 H 858.695 3.28011 -2.56349 0
M  V30 8856 H 859.228 1.87012 -3.511 0
M  V30 8857 H 855.967 1.22781 -6.43898 0
M  V30 8858 H 855.487 2.59499 -5.40759 0
M  V30 8859 H 857.166 2.45636 -5.98558 0
M  V30 8860 N 857.298 1.47698 0.54982 0
M  V30 8861 C 858.208 1.63386 1.68351 0
M  V30 8862 C 859.224 0.516583 1.66155 0
M  V30 8863 O 860.4 0.785088 1.85468 0
M  V30 8864 C 857.465 1.6513 3.04849 0
M  V30 8865 C 856.526 2.88338 3.18056 0
M  V30 8866 C 855.759 2.8999 4.48042 0
M  V30 8867 O 855.982 2.00633 5.3395 0
M  V30 8868 O 854.916 3.81938 4.65196 0
M  V30 8869 H 858.742 2.59329 1.58057 0
M  V30 8870 H 856.327 1.30869 0.72067 0
M  V30 8871 H 858.209 1.68913 3.86065 0
M  V30 8872 H 856.884 0.723555 3.1551 0
M  V30 8873 H 855.791 2.90097 2.36209 0
M  V30 8874 H 857.124 3.80431 3.12302 0
M  V30 8875 N 858.776 -0.797141 1.35954 0
M  V30 8876 C 860.053 -1.54224 1.2031 0
M  V30 8877 C 860.433 -2.10013 -0.213926 0
M  V30 8878 O 859.781 -1.93292 -1.21862 0
M  V30 8879 C 859.991 -2.6433 2.27883 0
M  V30 8880 C 861.339 -3.32418 2.64165 0
M  V30 8881 O 862.363 -2.74607 2.26868 0
M  V30 8882 O 861.222 -4.36876 3.28331 0
M  V30 8883 H 858.316 -0.681857 0.467974 0
M  V30 8884 H 860.862 -0.836288 1.47663 0
M  V30 8885 H 859.634 -2.21044 3.22885 0
M  V30 8886 H 859.257 -3.42551 2.01853 0
M  V30 8887 N 860.254 -1.20106 -1.0204 0
M  V30 8888 C 861.184 -0.970301 -2.12385 0
M  V30 8889 C 862.165 0.099378 -1.69809 0
M  V30 8890 O 863.35 -0.057365 -1.94115 0
M  V30 8891 C 860.48 -0.517431 -3.43424 0
M  V30 8892 C 859.434 -1.52992 -3.99722 0
M  V30 8893 C 858.76 -0.933817 -5.26483 0
M  V30 8894 C 860.06 -2.91257 -4.33551 0
M  V30 8895 H 861.754 -1.89316 -2.31948 0
M  V30 8896 H 859.3 -0.911655 -1.11467 0
M  V30 8897 H 861.253 -0.343243 -4.2 0
M  V30 8898 H 859.977 0.441049 -3.23608 0
M  V30 8899 H 858.636 -1.6914 -3.2525 0
M  V30 8900 H 858.284 0.0324763 -5.0299 0
M  V30 8901 H 857.984 -1.60999 -5.65113 0
M  V30 8902 H 859.508 -0.770614 -6.05718 0
M  V30 8903 H 860.922 -2.78642 -5.0103 0
M  V30 8904 H 859.319 -3.55745 -4.83286 0
M  V30 8905 H 860.389 -3.43269 -3.42483 0
M  V30 8906 N 861.732 1.21287 -1.00634 0
M  V30 8907 C 862.981 1.89706 -0.685178 0
M  V30 8908 C 863.294 1.79044 0.787566 0
M  V30 8909 O 864.5 2.42502 1.22086 0
M  V30 8910 C 862.956 3.40176 -1.17508 0
M  V30 8911 C 862.564 3.59446 -2.674 0
M  V30 8912 C 864.308 4.14213 -0.928869 0
M  V30 8913 C 862.215 5.03688 -3.09923 0
M  V30 8914 H 861.145 0.710434 -0.252586 0
M  V30 8915 H 863.796 1.37277 -1.21768 0
M  V30 8916 H 862.178 3.91867 -0.570622 0
M  V30 8917 H 863.352 3.18188 -3.33306 0
M  V30 8918 H 861.667 2.98764 -2.9005 0
M  V30 8919 H 864.264 5.20546 -1.22212 0
M  V30 8920 H 864.607 4.16082 0.134859 0
M  V30 8921 H 865.14 3.68591 -1.49619 0
M  V30 8922 H 861.879 5.06968 -4.15529 0
M  V30 8923 H 861.399 5.45796 -2.4873 0
M  V30 8924 H 863.078 5.72204 -3.0198 0
M  V30 8925 N 863.21 0.781244 1.36873 0
M  V30 8926 C 864.435 0.360398 2.04245 0
M  V30 8927 C 864.86 -1.01242 1.58529 0
M  V30 8928 O 864.218 -1.65063 0.749936 0
M  V30 8929 C 864.266 0.42329 3.58107 0
M  V30 8930 O 863.37 -0.572796 4.08403 0
M  V30 8931 H 862.711 0.154386 0.645803 0
M  V30 8932 H 865.241 1.06008 1.74996 0
M  V30 8933 H 865.251 0.283967 4.07011 0
M  V30 8934 H 863.926 1.42477 3.90734 0
M  V30 8935 H 862.503 -0.395809 3.70793 0
M  V30 8936 N 864.689 -1.48329 0.532571 0
M  V30 8937 C 865.599 -2.33445 -0.232546 0
M  V30 8938 C 866.615 -1.46651 -0.93645 0
M  V30 8939 O 867.791 -1.79627 -0.910834 0
M  V30 8940 C 864.856 -3.22824 -1.26434 0
M  V30 8941 C 863.917 -4.25492 -0.570511 0
M  V30 8942 C 863.15 -5.10601 -1.55315 0
M  V30 8943 O 863.373 -4.97733 -2.78599 0
M  V30 8944 O 862.307 -5.91927 -1.09112 0
M  V30 8945 H 866.133 -3.00119 0.464988 0
M  V30 8946 H 863.718 -1.46489 0.293462 0
M  V30 8947 H 865.6 -3.78103 -1.86055 0
M  V30 8948 H 864.275 -2.58807 -1.94424 0
M  V30 8949 H 863.182 -3.74041 0.0662587 0
M  V30 8950 H 864.515 -4.92154 0.0674904 0
M  V30 8951 N 866.167 -0.267825 -1.55308 0
M  V30 8952 C 867.413 0.351556 -1.9973 0
M  V30 8953 C 867.746 1.56049 -1.15596 0
M  V30 8954 O 867.021 1.93203 -0.224274 0
M  V30 8955 C 867.304 0.74091 -3.52395 0
M  V30 8956 C 867.157 -0.474861 -4.47286 0
M  V30 8957 C 868.476 1.5801 -4.10756 0
M  V30 8958 H 865.595 0.126308 -0.726096 0
M  V30 8959 H 868.237 -0.373316 -1.86296 0
M  V30 8960 H 866.387 1.35851 -3.63973 0
M  V30 8961 H 868.059 -1.1134 -4.47662 0
M  V30 8962 H 866.302 -1.11425 -4.19246 0
M  V30 8963 H 866.973 -0.158782 -5.51772 0
M  V30 8964 H 869.449 1.05857 -4.0241 0
M  V30 8965 H 868.325 1.82135 -5.17801 0
M  V30 8966 H 868.586 2.55878 -3.60526 0
M  V30 8967 N 867.645 1.57599 0.00500368 0
M  V30 8968 C 868.608 2.07058 0.982832 0
M  V30 8969 C 869.608 0.979045 1.27559 0
M  V30 8970 O 870.798 1.24187 1.22161 0
M  V30 8971 C 867.93 2.50782 2.30914 0
M  V30 8972 H 869.123 2.94718 0.555119 0
M  V30 8973 H 866.676 1.54249 0.25237 0
M  V30 8974 H 867.411 1.66351 2.78385 0
M  V30 8975 H 867.196 3.30495 2.10987 0
M  V30 8976 H 868.686 2.89391 3.0107 0
M  V30 8977 N 869.123 -0.277682 1.55134 0
M  V30 8978 C 870.055 -1.36531 1.84098 0
M  V30 8979 C 871.068 -1.45756 0.725194 0
M  V30 8980 O 872.257 -1.47656 1.00299 0
M  V30 8981 C 869.357 -2.74701 1.98476 0
M  V30 8982 C 868.53 -2.88125 3.29094 0
M  V30 8983 C 867.589 -4.0694 3.33596 0
M  V30 8984 O 866.615 -3.9792 4.06999 0
M  V30 8985 N 867.817 -5.18687 2.60661 0
M  V30 8986 H 870.582 -1.12032 2.77973 0
M  V30 8987 H 868.143 -0.467793 1.54995 0
M  V30 8988 H 870.135 -3.52471 1.98863 0
M  V30 8989 H 868.705 -2.92043 1.11488 0
M  V30 8990 H 867.925 -1.97277 3.41285 0
M  V30 8991 H 869.213 -2.94021 4.15246 0
M  V30 8992 H 868.611 -5.28901 2.00699 0
M  V30 8993 H 867.168 -5.94705 2.66776 0
M  V30 8994 N 870.601 -1.47988 -0.541979 0
M  V30 8995 C 871.849 -1.55086 -1.29587 0
M  V30 8996 C 872.17 -0.221304 -1.9374 0
M  V30 8997 O 871.44 0.756128 -1.80719 0
M  V30 8998 H 870.02 -0.571307 -0.481266 0
M  V30 8999 H 872.682 -1.8438 -0.631675 0
M  V30 9000 H 871.778 -2.32556 -2.08144 0
M  V30 9001 N 872.079 0.78992 -1.36375 0
M  V30 9002 C 873.042 1.88414 -1.30509 0
M  V30 9003 C 874.042 1.59384 -0.2129 0
M  V30 9004 O 875.232 1.67805 -0.467651 0
M  V30 9005 C 872.364 3.25188 -1.02302 0
M  V30 9006 H 873.557 1.95031 -2.27822 0
M  V30 9007 H 871.11 0.987664 -1.2114 0
M  V30 9008 H 871.845 3.24254 -0.0544486 0
M  V30 9009 H 871.63 3.47647 -1.81338 0
M  V30 9010 H 873.12 4.05252 -1.00801 0
M  V30 9011 N 873.557 1.20646 1.01402 0
M  V30 9012 C 874.487 0.98155 2.11867 0
M  V30 9013 C 875.468 -0.0903712 1.6986 0
M  V30 9014 O 876.653 0.0676586 1.94082 0
M  V30 9015 C 873.783 0.535636 3.43145 0
M  V30 9016 C 872.737 1.55109 3.98905 0
M  V30 9017 C 872.063 0.961725 5.2598 0
M  V30 9018 C 873.363 2.93552 4.32001 0
M  V30 9019 H 875.057 1.90544 2.3094 0
M  V30 9020 H 872.603 0.917554 1.10982 0
M  V30 9021 H 874.556 0.365512 4.19812 0
M  V30 9022 H 873.28 -0.423882 3.23838 0
M  V30 9023 H 871.939 1.70862 3.24348 0
M  V30 9024 H 871.587 -0.00580108 5.03 0
M  V30 9025 H 871.287 1.63993 5.64252 0
M  V30 9026 H 872.811 0.802726 6.053 0
M  V30 9027 H 874.225 2.81295 4.99546 0
M  V30 9028 H 872.622 3.58303 4.81393 0
M  V30 9029 H 873.692 3.4508 3.40658 0
M  V30 9030 N 875.035 -1.20752 1.01276 0
M  V30 9031 C 876.263 -1.94006 0.718976 0
M  V30 9032 C 876.678 -1.74544 -0.719711 0
M  V30 9033 O 876.035 -1.05697 -1.48776 0
M  V30 9034 C 876.086 -3.46208 1.04031 0
M  V30 9035 O 875.807 -3.65031 2.42248 0
M  V30 9036 C 877.308 -4.36614 0.767032 0
M  V30 9037 H 874.528 -0.616743 0.264327 0
M  V30 9038 H 877.072 -1.53352 1.3529 0
M  V30 9039 H 875.227 -3.84756 0.451852 0
M  V30 9040 H 875.641 -4.59054 2.53712 0
M  V30 9041 H 877.115 -5.42076 1.04198 0
M  V30 9042 H 877.592 -4.38182 -0.298851 0
M  V30 9043 H 878.198 -4.03723 1.33746 0
M  V30 9044 N 876.513 -0.788492 -1.36457 0
M  V30 9045 C 877.443 -0.200468 -2.32638 0
M  V30 9046 C 878.424 0.664031 -1.56603 0
M  V30 9047 O 879.609 0.598045 -1.84762 0
M  V30 9048 C 876.739 0.666274 -3.40849 0
M  V30 9049 C 875.693 -0.0982574 -4.27887 0
M  V30 9050 C 875.019 0.889018 -5.27258 0
M  V30 9051 C 876.319 -1.28692 -5.06197 0
M  V30 9052 H 878.013 -1.00399 -2.82065 0
M  V30 9053 H 875.559 -0.484237 -1.35614 0
M  V30 9054 H 877.512 1.08757 -4.07124 0
M  V30 9055 H 876.236 1.50249 -2.89987 0
M  V30 9056 H 874.895 -0.500525 -3.63167 0
M  V30 9057 H 874.543 1.72024 -4.7267 0
M  V30 9058 H 874.243 0.381909 -5.86358 0
M  V30 9059 H 875.767 1.30891 -5.96406 0
M  V30 9060 H 877.181 -0.941429 -5.65517 0
M  V30 9061 H 875.578 -1.72726 -5.74705 0
M  V30 9062 H 876.648 -2.08273 -4.37893 0
M  V30 9063 N 877.991 1.48044 -0.54043 0
M  V30 9064 C 879.216 2.07396 -0.0124765 0
M  V30 9065 C 879.641 1.39288 1.26414 0
M  V30 9066 O 878.999 0.462252 1.75308 0
M  V30 9067 C 879.047 3.60131 0.18377 0
M  V30 9068 O 878.151 3.92995 1.25014 0
M  V30 9069 H 877.492 0.662554 -0.0438026 0
M  V30 9070 H 880.022 1.90306 -0.751327 0
M  V30 9071 H 880.032 4.06003 0.403197 0
M  V30 9072 H 878.707 4.09105 -0.74874 0
M  V30 9073 H 877.284 3.5889 1.01254 0
M  V30 9074 N 879.47 0.276058 1.55163 0
M  V30 9075 C 880.4 -0.604633 2.25536 0
M  V30 9076 C 881.381 -1.15813 1.24585 0
M  V30 9077 O 882.566 -1.1921 1.53306 0
M  V30 9078 C 879.696 -1.78836 2.97716 0
M  V30 9079 C 878.65 -1.36635 4.05604 0
M  V30 9080 C 877.976 -2.63325 4.65364 0
M  V30 9081 C 879.276 -0.515858 5.19746 0
M  V30 9082 H 880.97 -0.0177483 2.99395 0
M  V30 9083 H 878.516 -0.00709627 1.43998 0
M  V30 9084 H 880.469 -2.41036 3.45658 0
M  V30 9085 H 879.193 -2.40109 2.21394 0
M  V30 9086 H 877.852 -0.767541 3.58475 0
M  V30 9087 H 877.5 -3.22858 3.85709 0
M  V30 9088 H 877.2 -2.358 5.38212 0
M  V30 9089 H 878.724 -3.26372 5.16056 0
M  V30 9090 H 880.138 -1.04289 5.63735 0
M  V30 9091 H 878.535 -0.335449 5.99162 0
M  V30 9092 H 879.605 0.465137 4.82664 0
M  V30 9093 N 880.948 -1.576 0.00335426 0
M  V30 9094 C 882.359 -1.7875 -0.539008 0
M  V30 9095 C 882.71 -0.911097 -1.73763 0
M  V30 9096 O 881.835 -0.114476 -2.16097 0
M  V30 9097 C 882.43 -3.24177 -0.984611 0
M  V30 9098 C 880.989 -3.46412 -1.47226 0
M  V30 9099 C 880.136 -2.74024 -0.425004 0
M  V30 9100 H 883.087 -1.57032 0.229511 0
M  V30 9101 H 883.108 -3.32474 -1.85044 0
M  V30 9102 H 882.62 -3.87938 -0.112035 0
M  V30 9103 H 880.721 -2.8787 -2.36562 0
M  V30 9104 H 880.834 -4.55098 -1.49741 0
M  V30 9105 H 879.198 -2.38741 -0.887394 0
M  V30 9106 H 879.981 -3.40486 0.438662 0
M  V30 9107 N 882.426 0.269451 -1.5528 0
M  V30 9108 C 883.373 1.33316 -1.88403 0
M  V30 9109 C 884.343 1.48909 -0.735881 0
M  V30 9110 O 885.528 1.63259 -0.987479 0
M  V30 9111 C 882.668 2.68778 -2.16454 0
M  V30 9112 C 881.781 2.61377 -3.43956 0
M  V30 9113 C 880.916 3.89042 -3.6169 0
M  V30 9114 C 879.955 3.76166 -4.82872 0
M  V30 9115 N 879.092 4.95673 -4.97245 0
M  V30 9116 H 883.932 1.04368 -2.79126 0
M  V30 9117 H 881.469 0.504147 -1.38191 0
M  V30 9118 H 883.427 3.47599 -2.30719 0
M  V30 9119 H 882.057 2.9592 -1.28961 0
M  V30 9120 H 881.109 1.74247 -3.38145 0
M  V30 9121 H 882.421 2.47764 -4.32914 0
M  V30 9122 H 881.575 4.76304 -3.75791 0
M  V30 9123 H 880.314 4.05526 -2.70924 0
M  V30 9124 H 879.319 2.87287 -4.68771 0
M  V30 9125 H 880.544 3.61198 -5.75077 0
M  V30 9126 H 878.49 5.12561 -4.09411 0
M  V30 9127 H 878.407 4.84605 -5.80254 0
M  V30 9128 H 879.675 5.84498 -5.15735 0
M  V30 9129 N 883.904 1.48273 0.534124 0
M  V30 9130 C 884.836 1.5857 1.65494 0
M  V30 9131 C 885.849 0.470266 1.5586 0
M  V30 9132 O 887.038 0.740928 1.62396 0
M  V30 9133 C 884.138 1.49554 3.04117 0
M  V30 9134 C 883.311 2.76066 3.39273 0
M  V30 9135 C 882.37 2.60562 4.57159 0
M  V30 9136 O 881.396 3.34438 4.60587 0
M  V30 9137 N 882.598 1.69906 5.55079 0
M  V30 9138 H 885.363 2.55226 1.57099 0
M  V30 9139 H 882.924 1.44944 0.721303 0
M  V30 9140 H 884.916 1.36882 3.80848 0
M  V30 9141 H 883.486 0.608895 3.06613 0
M  V30 9142 H 882.706 3.03332 2.51761 0
M  V30 9143 H 883.994 3.60006 3.59546 0
M  V30 9144 H 883.392 1.09079 5.55084 0
M  V30 9145 H 881.949 1.63175 6.31044 0
M  V30 9146 N 885.382 -0.782676 1.36792 0
M  V30 9147 C 886.314 -1.9044 1.27536 0
M  V30 9148 C 887.327 -1.61647 0.193426 0
M  V30 9149 O 888.516 -1.72769 0.448692 0
M  V30 9150 C 885.616 -3.2541 0.946641 0
M  V30 9151 C 884.789 -3.81932 2.13183 0
M  V30 9152 C 883.848 -4.95355 1.7751 0
M  V30 9153 O 882.874 -5.11517 2.49678 0
M  V30 9154 N 884.076 -5.76108 0.712755 0
M  V30 9155 H 886.841 -1.98899 2.24186 0
M  V30 9156 H 884.402 -0.96127 1.30274 0
M  V30 9157 H 886.394 -3.98791 0.689043 0
M  V30 9158 H 884.964 -3.12524 0.0690591 0
M  V30 9159 H 884.184 -3.00459 2.55183 0
M  V30 9160 H 885.472 -4.16426 2.92347 0
M  V30 9161 H 884.87 -5.65586 0.113662 0
M  V30 9162 H 883.427 -6.49762 0.514995 0
M  V30 9163 N 886.86 -1.21182 -1.00761 0
M  V30 9164 C 888.137 -0.936297 -1.71735 0
M  V30 9165 C 888.517 0.552585 -2.03739 0
M  V30 9166 O 887.865 1.51672 -1.70903 0
M  V30 9167 C 888.075 -1.81867 -2.97868 0
M  V30 9168 C 889.423 -2.06594 -3.7095 0
M  V30 9169 O 890.447 -1.79194 -3.07844 0
M  V30 9170 O 889.306 -2.5292 -4.84452 0
M  V30 9171 H 886.4 -0.350867 -0.74888 0
M  V30 9172 H 888.946 -1.32098 -1.06527 0
M  V30 9173 H 887.718 -2.82643 -2.70607 0
M  V30 9174 H 887.341 -1.43463 -3.70815 0
M  V30 9175 N 888.338 1.20213 -1.01915 0
M  V30 9176 C 889.563 1.94163 -0.729076 0
M  V30 9177 C 889.988 1.74416 0.704323 0
M  V30 9178 O 889.346 1.0401 1.48498 0
M  V30 9179 C 889.394 3.44258 -1.07324 0
M  V30 9180 O 888.498 4.11979 -0.186367 0
M  V30 9181 H 887.839 0.606506 -0.270272 0
M  V30 9182 H 890.369 1.52571 -1.3632 0
M  V30 9183 H 890.379 3.94888 -1.02603 0
M  V30 9184 H 889.054 3.57954 -2.11759 0
M  V30 9185 H 887.631 3.7176 -0.291334 0
M  V30 9186 N 889.816 0.795718 1.36037 0
M  V30 9187 C 890.746 0.212803 2.32528 0
M  V30 9188 C 891.727 -0.655716 1.56953 0
M  V30 9189 O 892.912 -0.588238 1.85077 0
M  V30 9190 C 890.042 -0.648189 3.41198 0
M  V30 9191 C 888.996 0.120948 4.27829 0
M  V30 9192 C 888.322 -0.861044 5.27722 0
M  V30 9193 C 889.622 1.31375 5.05508 0
M  V30 9194 H 891.316 1.01893 2.81528 0
M  V30 9195 H 888.862 0.491422 1.35355 0
M  V30 9196 H 890.815 -1.06597 4.07695 0
M  V30 9197 H 889.539 -1.48709 2.9078 0
M  V30 9198 H 888.198 0.519777 3.62897 0
M  V30 9199 H 887.846 -1.69515 4.73575 0
M  V30 9200 H 887.546 -0.350808 5.86552 0
M  V30 9201 H 889.07 -1.27726 5.97092 0
M  V30 9202 H 890.484 0.971406 5.6501 0
M  V30 9203 H 888.881 1.75772 5.73781 0
M  V30 9204 H 889.951 2.10593 4.36782 0
M  V30 9205 N 891.294 -1.47756 0.548274 0
M  V30 9206 C 892.705 -1.8636 0.112547 0
M  V30 9207 C 893.056 -1.45589 -1.31523 0
M  V30 9208 O 892.181 -0.854874 -1.98799 0
M  V30 9209 C 892.776 -3.38224 0.197473 0
M  V30 9210 C 891.335 -3.75954 -0.183163 0
M  V30 9211 C 890.482 -2.7181 0.549059 0
M  V30 9212 H 893.433 -1.394 0.758506 0
M  V30 9213 H 893.454 -3.75957 -0.586217 0
M  V30 9214 H 892.966 -3.67868 1.23673 0
M  V30 9215 H 891.067 -3.51926 -1.22387 0
M  V30 9216 H 891.18 -4.78801 0.169178 0
M  V30 9217 H 889.544 -2.54699 -0.00682862 0
M  V30 9218 H 890.327 -3.04296 1.5893 0
M  V30 9219 N 892.772 -0.284283 -1.55015 0
M  V30 9220 C 894.049 0.382125 -1.91831 0
M  V30 9221 C 894.429 1.73007 -1.20962 0
M  V30 9222 O 893.777 2.25962 -0.339594 0
M  V30 9223 C 893.987 0.513341 -3.45204 0
M  V30 9224 C 895.335 0.791989 -4.17148 0
M  V30 9225 O 896.359 0.597799 -3.51148 0
M  V30 9226 O 895.218 1.16394 -5.33961 0
M  V30 9227 H 892.312 0.210707 -0.799707 0
M  V30 9228 H 894.858 -0.331111 -1.66438 0
M  V30 9229 H 893.63 -0.434911 -3.88876 0
M  V30 9230 H 893.253 1.27569 -3.76579 0
M  V30 9231 N 894.251 1.57596 -0.0117121 0
M  V30 9232 C 895.479 1.9536 0.681334 0
M  V30 9233 C 895.894 0.887255 1.66653 0
M  V30 9234 O 895.251 -0.132692 1.82017 0
M  V30 9235 C 895.302 3.33165 1.40298 0
M  V30 9236 O 895.023 4.35707 0.45728 0
M  V30 9237 C 896.524 3.85458 2.18946 0
M  V30 9238 H 893.744 0.643826 0.189023 0
M  V30 9239 H 896.288 2.04392 -0.066311 0
M  V30 9240 H 894.443 3.25404 2.10216 0
M  V30 9241 H 894.857 5.15495 0.96773 0
M  V30 9242 H 896.331 4.84275 2.64918 0
M  V30 9243 H 896.808 3.18781 3.02118 0
M  V30 9244 H 897.414 3.96431 1.5402 0
M  V30 9245 N 895.729 -0.261212 1.5542 0
M  V30 9246 C 896.676 -1.32315 1.89107 0
M  V30 9247 C 897.646 -1.48517 0.743767 0
M  V30 9248 O 898.831 -1.62733 0.996123 0
M  V30 9249 C 895.971 -2.67626 2.17877 0
M  V30 9250 C 895.084 -2.59549 3.45338 0
M  V30 9251 C 894.219 -3.87118 3.63748 0
M  V30 9252 C 893.258 -3.736 4.8486 0
M  V30 9253 N 892.395 -4.93029 4.99867 0
M  V30 9254 H 897.235 -1.02886 2.79675 0
M  V30 9255 H 894.772 -0.496812 1.38456 0
M  V30 9256 H 896.73 -3.4637 2.32559 0
M  V30 9257 H 895.36 -2.95232 1.30529 0
M  V30 9258 H 894.412 -1.72452 3.39064 0
M  V30 9259 H 895.724 -2.45465 4.34222 0
M  V30 9260 H 894.878 -4.74305 3.78312 0
M  V30 9261 H 893.617 -4.04084 2.73071 0
M  V30 9262 H 892.622 -2.84797 4.70288 0
M  V30 9263 H 893.847 -3.58143 5.76984 0
M  V30 9264 H 891.793 -5.10383 4.12123 0
M  V30 9265 H 891.71 -4.81521 5.82815 0
M  V30 9266 H 892.978 -5.81754 5.18828 0
M  V30 9267 N 897.207 -1.48554 -0.526253 0
M  V30 9268 C 898.17 -1.62868 -1.61266 0
M  V30 9269 C 899.17 -0.501762 -1.52771 0
M  V30 9270 O 900.36 -0.76764 -1.56374 0
M  V30 9271 C 897.492 -1.60238 -3.00893 0
M  V30 9272 H 898.685 -2.59742 -1.49913 0
M  V30 9273 H 896.238 -1.37207 -0.748595 0
M  V30 9274 H 896.973 -0.648545 -3.17749 0
M  V30 9275 H 896.758 -2.42054 -3.08468 0
M  V30 9276 H 898.248 -1.73455 -3.79872 0
M  V30 9277 N 898.685 0.775411 -1.37205 0
M  V30 9278 C 899.91 1.5696 -1.35567 0
M  V30 9279 C 900.335 1.88012 0.0575554 0
M  V30 9280 O 899.693 1.48954 1.03355 0
M  V30 9281 C 899.741 2.85886 -2.19776 0
M  V30 9282 O 898.845 3.80103 -1.59987 0
M  V30 9283 H 898.186 0.475583 -0.463375 0
M  V30 9284 H 900.716 0.96001 -1.80679 0
M  V30 9285 H 900.726 3.35024 -2.32859 0
M  V30 9286 H 899.401 2.62613 -3.22502 0
M  V30 9287 H 897.978 3.38736 -1.55924 0
M  V30 9288 N 900.163 1.21714 1.00117 0
M  V30 9289 C 901.411 1.03465 1.73607 0
M  V30 9290 C 901.732 -0.432295 1.90148 0
M  V30 9291 O 901.002 -1.31157 1.45515 0
M  V30 9292 H 899.582 0.379857 0.643209 0
M  V30 9293 H 902.244 1.53088 1.20624 0
M  V30 9294 H 901.34 1.50574 2.73375 0
M  V30 9295 N 901.641 -1.19671 1.02551 0
M  V30 9296 C 903.052 -1.70964 0.750208 0
M  V30 9297 C 903.403 -1.82095 -0.730461 0
M  V30 9298 O 902.528 -1.48974 -1.56958 0
M  V30 9299 C 903.123 -3.10516 1.35518 0
M  V30 9300 C 901.682 -3.59083 1.12854 0
M  V30 9301 C 900.829 -2.36041 1.45534 0
M  V30 9302 H 903.78 -1.04559 1.19386 0
M  V30 9303 H 903.801 -3.73028 0.750378 0
M  V30 9304 H 903.313 -3.02383 2.43282 0
M  V30 9305 H 901.414 -3.72536 0.0689627 0
M  V30 9306 H 901.527 -4.43395 1.81488 0
M  V30 9307 H 899.891 -2.39214 0.87458 0
M  V30 9308 H 900.674 -2.3054 2.54374 0
M  V30 9309 N 903.119 -0.802921 -1.35613 0
M  V30 9310 C 904.082 -0.216422 -2.28176 0
M  V30 9311 C 905.082 0.594101 -1.49422 0
M  V30 9312 O 906.272 0.41312 -1.6923 0
M  V30 9313 C 903.404 0.698746 -3.33662 0
M  V30 9314 H 904.597 -1.03276 -2.81557 0
M  V30 9315 H 902.15 -0.573307 -1.45406 0
M  V30 9316 H 902.885 1.53891 -2.85461 0
M  V30 9317 H 902.67 0.119314 -3.91918 0
M  V30 9318 H 904.16 1.10354 -4.02755 0
M  V30 9319 N 904.597 1.47463 -0.556102 0
M  V30 9320 C 905.547 2.27007 0.212592 0
M  V30 9321 C 906.531 1.34288 0.886312 0
M  V30 9322 O 907.723 1.5865 0.784801 0
M  V30 9323 C 904.852 3.20021 1.24263 0
M  V30 9324 C 903.938 4.2022 0.572385 0
M  V30 9325 N 904.329 5.04539 -0.35691 0
M  V30 9326 C 902.627 4.38276 0.826441 0
M  V30 9327 C 903.328 5.76895 -0.746134 0
M  V30 9328 N 902.304 5.43506 -0.101225 0
M  V30 9329 H 906.106 2.89582 -0.501925 0
M  V30 9330 H 903.62 1.57988 -0.375961 0
M  V30 9331 H 905.617 3.7569 1.80728 0
M  V30 9332 H 904.277 2.59003 1.95826 0
M  V30 9333 H 905.288 5.12715 -0.731012 0
M  V30 9334 H 901.965 3.88429 1.53066 0
M  V30 9335 H 903.355 6.5472 -1.50967 0
M  V30 9336 N 906.075 0.2925 1.54862 0
M  V30 9337 C 907.3 -0.32494 2.04839 0
M  V30 9338 C 907.725 -1.47381 1.16877 0
M  V30 9339 O 907.083 -1.80492 0.171028 0
M  V30 9340 C 907.131 -0.76694 3.5235 0
M  V30 9341 O 906.235 -1.87256 3.67436 0
M  V30 9342 H 905.576 -0.0645195 0.660858 0
M  V30 9343 H 908.106 0.431867 1.9999 0
M  V30 9344 H 908.116 -1.05804 3.94043 0
M  V30 9345 H 906.791 0.0735212 4.15835 0
M  V30 9346 H 905.368 -1.58266 3.37648 0
M  V30 9347 N 907.553 -1.57587 0.0200696 0
M  V30 9348 C 908.5 -2.09667 -0.964791 0
M  V30 9349 C 909.47 -0.99664 -1.32877 0
M  V30 9350 O 910.655 -1.2703 -1.42366 0
M  V30 9351 C 907.795 -2.62101 -2.24493 0
M  V30 9352 C 906.908 -3.8608 -1.93821 0
M  V30 9353 C 906.043 -4.26939 -3.16064 0
M  V30 9354 C 905.082 -5.43701 -2.81169 0
M  V30 9355 N 904.219 -5.79759 -3.9601 0
M  V30 9356 H 909.059 -2.93538 -0.513751 0
M  V30 9357 H 906.596 -1.45096 -0.242 0
M  V30 9358 H 908.554 -2.90587 -2.99358 0
M  V30 9359 H 907.184 -1.81074 -2.6723 0
M  V30 9360 H 906.236 -3.64378 -1.09237 0
M  V30 9361 H 907.548 -4.71028 -1.64115 0
M  V30 9362 H 906.702 -4.56814 -3.99257 0
M  V30 9363 H 905.441 -3.40739 -3.48924 0
M  V30 9364 H 904.446 -5.13529 -1.96387 0
M  V30 9365 H 905.671 -6.31593 -2.49535 0
M  V30 9366 H 903.617 -4.96516 -4.28729 0
M  V30 9367 H 903.534 -6.59327 -3.69896 0
M  V30 9368 H 904.802 -6.14235 -4.79933 0
M  V30 9369 N 909.032 0.252966 -1.55557 0
M  V30 9370 C 909.942 1.33472 -1.92931 0
M  V30 9371 C 910.958 1.52983 -0.828985 0
M  V30 9372 O 912.134 1.66723 -1.12984 0
M  V30 9373 C 909.199 2.6704 -2.21112 0
M  V30 9374 C 908.26 2.56103 -3.44542 0
M  V30 9375 C 907.493 3.83302 -3.71369 0
M  V30 9376 O 907.716 4.84907 -3.00368 0
M  V30 9377 O 906.65 3.823 -4.64898 0
M  V30 9378 H 910.476 1.04768 -2.85057 0
M  V30 9379 H 908.061 0.453208 -1.4236 0
M  V30 9380 H 909.943 3.45981 -2.40572 0
M  V30 9381 H 908.618 2.95489 -1.32166 0
M  V30 9382 H 907.525 1.7547 -3.30396 0
M  V30 9383 H 908.858 2.32601 -4.33772 0
M  V30 9384 N 910.51 1.48831 0.518367 0
M  V30 9385 C 911.756 1.57672 1.27543 0
M  V30 9386 C 912.089 0.254915 1.9252 0
M  V30 9387 O 911.364 -0.740107 1.79868 0
M  V30 9388 C 911.647 2.72345 2.35585 0
M  V30 9389 C 911.5 4.14267 1.75224 0
M  V30 9390 C 912.819 2.82726 3.37274 0
M  V30 9391 H 909.938 0.573926 0.462361 0
M  V30 9392 H 912.58 1.8105 0.576267 0
M  V30 9393 H 910.73 2.52543 2.95219 0
M  V30 9394 H 912.402 4.45539 1.19551 0
M  V30 9395 H 910.645 4.20724 1.05706 0
M  V30 9396 H 911.316 4.90345 2.53507 0
M  V30 9397 H 913.792 3.00699 2.8761 0
M  V30 9398 H 912.668 3.6467 4.10252 0
M  V30 9399 H 912.929 1.9136 3.9854 0
M  V30 9400 N 911.988 -0.768124 1.37614 0
M  V30 9401 C 913.399 -1.34462 1.29525 0
M  V30 9402 C 913.75 -1.96121 -0.0555168 0
M  V30 9403 O 912.875 -1.94069 -0.957406 0
M  V30 9404 C 913.47 -2.44475 2.34558 0
M  V30 9405 C 912.029 -2.97883 2.30093 0
M  V30 9406 C 911.176 -1.71131 2.18196 0
M  V30 9407 H 914.127 -0.568103 1.48183 0
M  V30 9408 H 914.148 -3.24047 1.99434 0
M  V30 9409 H 913.66 -1.99568 3.32858 0
M  V30 9410 H 911.761 -3.47156 1.35328 0
M  V30 9411 H 911.874 -3.53251 3.23652 0
M  V30 9412 H 910.238 -1.94197 1.64802 0
M  V30 9413 H 911.021 -1.28323 3.18415 0
M  V30 9414 N 913.466 -1.22244 -0.994698 0
M  V30 9415 C 914.429 -0.992308 -2.06606 0
M  V30 9416 C 915.429 0.0405872 -1.60749 0
M  V30 9417 O 916.619 -0.197737 -1.73074 0
M  V30 9418 C 913.751 -0.498499 -3.37236 0
M  V30 9419 H 914.944 -1.9429 -2.28455 0
M  V30 9420 H 912.497 -1.04087 -1.166 0
M  V30 9421 H 913.232 0.456531 -3.21071 0
M  V30 9422 H 913.017 -1.24367 -3.71854 0
M  V30 9423 H 914.507 -0.35768 -4.16065 0
M  V30 9424 N 914.944 1.19125 -1.03184 0
M  V30 9425 C 915.874 2.24675 -0.635889 0
M  V30 9426 C 916.855 1.66321 0.356565 0
M  V30 9427 O 918.04 1.92728 0.238625 0
M  V30 9428 C 915.17 3.47298 0.011069 0
M  V30 9429 C 914.124 4.18345 -0.903979 0
M  V30 9430 C 913.45 5.34561 -0.12197 0
M  V30 9431 C 914.75 4.72816 -2.21907 0
M  V30 9432 H 916.444 2.5805 -1.51825 0
M  V30 9433 H 913.99 1.24039 -0.73146 0
M  V30 9434 H 915.943 4.20333 0.299729 0
M  V30 9435 H 914.667 3.13131 0.928245 0
M  V30 9436 H 913.326 3.47196 -1.17688 0
M  V30 9437 H 912.974 4.9664 0.797334 0
M  V30 9438 H 912.674 5.83029 -0.731498 0
M  V30 9439 H 914.198 6.10391 0.159881 0
M  V30 9440 H 915.612 5.3759 -1.99173 0
M  V30 9441 H 914.009 5.31782 -2.78078 0
M  V30 9442 H 915.079 3.9072 -2.87168 0
M  V30 9443 N 916.422 0.810101 1.35185 0
M  V30 9444 C 917.65 0.404696 2.02903 0
M  V30 9445 C 918.065 -0.985434 1.61042 0
M  V30 9446 O 917.422 -1.63557 0.809658 0
M  V30 9447 C 917.473 0.482493 3.58266 0
M  V30 9448 O 917.194 1.81782 3.98606 0
M  V30 9449 C 918.695 0.070345 4.43244 0
M  V30 9450 H 915.915 0.163972 0.650657 0
M  V30 9451 H 918.459 1.0947 1.72733 0
M  V30 9452 H 916.614 -0.159296 3.87072 0
M  V30 9453 H 917.028 1.78306 4.93262 0
M  V30 9454 H 918.502 0.175888 5.5172 0
M  V30 9455 H 918.979 -0.984724 4.28018 0
M  V30 9456 H 919.585 0.685427 4.1974 0
M  V30 9457 N 917.9 -1.47166 0.563914 0
M  V30 9458 C 918.863 -2.28571 -0.169624 0
M  V30 9459 C 919.863 -1.37331 -0.836467 0
M  V30 9460 O 921.053 -1.59896 -0.6913 0
M  V30 9461 C 918.185 -3.17201 -1.24886 0
M  V30 9462 H 919.378 -2.94896 0.545539 0
M  V30 9463 H 916.931 -1.52966 0.321121 0
M  V30 9464 H 917.666 -2.55582 -1.99621 0
M  V30 9465 H 917.451 -3.84356 -0.775426 0
M  V30 9466 H 918.941 -3.7852 -1.76388 0
M  V30 9467 N 919.378 -0.300708 -1.54705 0
M  V30 9468 C 920.624 0.309111 -2.0043 0
M  V30 9469 C 920.957 1.53562 -1.1888 0
M  V30 9470 O 920.232 1.92683 -0.265205 0
M  V30 9471 C 920.515 0.665995 -3.53888 0
M  V30 9472 C 920.368 -0.56963 -4.46178 0
M  V30 9473 C 921.687 1.49262 -4.14016 0
M  V30 9474 H 918.806 0.110878 -0.728612 0
M  V30 9475 H 921.448 -0.412748 -1.85463 0
M  V30 9476 H 919.598 1.281 -3.66773 0
M  V30 9477 H 921.27 -1.20811 -4.45199 0
M  V30 9478 H 919.513 -1.20292 -4.16788 0
M  V30 9479 H 920.184 -0.275785 -5.51311 0
M  V30 9480 H 922.66 0.972979 -4.04564 0
M  V30 9481 H 921.536 1.71111 -5.21548 0
M  V30 9482 H 921.797 2.48174 -3.65872 0
M  V30 9483 N 920.856 1.57574 -0.0284266 0
M  V30 9484 C 921.766 2.13637 0.96936 0
M  V30 9485 C 922.782 1.08845 1.35752 0
M  V30 9486 O 923.958 1.40899 1.43908 0
M  V30 9487 C 921.023 2.65179 2.2334 0
M  V30 9488 C 920.084 3.84683 1.90572 0
M  V30 9489 C 919.317 4.33758 3.1095 0
M  V30 9490 O 919.54 3.82009 4.23586 0
M  V30 9491 O 918.474 5.2561 2.93288 0
M  V30 9492 H 922.3 2.99169 0.52267 0
M  V30 9493 H 919.885 1.48159 0.192135 0
M  V30 9494 H 921.767 2.98402 2.97547 0
M  V30 9495 H 920.442 1.82731 2.67191 0
M  V30 9496 H 919.349 3.56386 1.13753 0
M  V30 9497 H 920.682 4.68292 1.51538 0
M  V30 9498 N 922.334 -0.244713 1.55689 0
M  V30 9499 C 923.562 -0.989944 1.8168 0
M  V30 9500 C 923.977 -1.78863 0.604449 0
M  V30 9501 O 923.334 -1.77437 -0.426907 0
M  V30 9502 C 923.385 -1.92607 3.05916 0
M  V30 9503 O 923.106 -1.1597 4.22472 0
M  V30 9504 C 924.607 -2.78711 3.44724 0
M  V30 9505 H 921.827 -0.2912 0.604519 0
M  V30 9506 H 924.371 -0.266938 2.0275 0
M  V30 9507 H 922.526 -2.60333 2.8689 0
M  V30 9508 H 922.94 -1.79311 4.92898 0
M  V30 9509 H 924.414 -3.40141 4.34751 0
M  V30 9510 H 924.891 -3.49935 2.6541 0
M  V30 9511 H 925.497 -2.16435 3.66109 0
M  V30 9512 N 923.813 -1.49104 -0.510467 0
M  V30 9513 C 925.061 -1.578 -1.26268 0
M  V30 9514 C 925.382 -0.262349 -1.93227 0
M  V30 9515 O 924.652 0.717624 -1.82283 0
M  V30 9516 H 923.232 -0.581387 -0.46904 0
M  V30 9517 H 925.894 -1.85678 -0.592423 0
M  V30 9518 H 924.99 -2.36919 -2.03165 0
M  V30 9519 N 925.291 0.760815 -1.38019 0
M  V30 9520 C 926.254 1.85604 -1.34476 0
M  V30 9521 C 927.254 1.58897 -0.24666 0
M  V30 9522 O 928.444 1.66776 -0.50314 0
M  V30 9523 C 925.576 3.22945 -1.09176 0
M  V30 9524 H 926.769 1.90155 -2.31908 0
M  V30 9525 H 924.322 0.961746 -1.23208 0
M  V30 9526 H 925.057 3.24066 -0.123216 0
M  V30 9527 H 924.842 3.43723 -1.88672 0
M  V30 9528 H 926.332 4.03022 -1.09375 0
M  V30 9529 N 926.769 1.22769 0.988202 0
M  V30 9530 C 927.997 1.08155 1.76381 0
M  V30 9531 C 928.412 -0.367573 1.85187 0
M  V30 9532 O 927.769 -1.25455 1.32541 0
M  V30 9533 C 927.82 1.69193 3.19462 0
M  V30 9534 O 927.541 3.08437 3.11125 0
M  V30 9535 C 929.042 1.59915 4.13451 0
M  V30 9536 H 926.262 0.378908 0.553778 0
M  V30 9537 H 928.806 1.6246 1.24206 0
M  V30 9538 H 926.961 1.18939 3.6869 0
M  V30 9539 H 927.375 3.37916 4.0114 0
M  V30 9540 H 928.849 2.07339 5.1158 0
M  V30 9541 H 929.326 0.556546 4.3566 0
M  V30 9542 H 929.932 2.09497 3.70123 0
M  V30 9543 N 928.247 -1.18576 1.03814 0
M  V30 9544 C 929.195 -2.24166 0.620678 0
M  V30 9545 C 930.189 -1.65718 -0.351282 0
M  V30 9546 O 931.395 -1.78665 -0.218848 0
M  V30 9547 H 927.77 -0.729522 0.182487 0
M  V30 9548 H 929.741 -2.56686 1.52166 0
M  V30 9549 C 928.49 -3.477 -0.00307331 0
M  V30 9550 H 927.813 -3.92969 0.735874 0
M  V30 9551 H 929.253 -4.23214 -0.257988 0
M  V30 9552 C 927.712 -3.12757 -1.2524 0
M  V30 9553 O 928.242 -3.26261 -2.34344 0
M  V30 9554 N 926.448 -2.67104 -1.14471 0
M  V30 9555 H 925.995 -2.56316 -0.256873 0
M  V30 9556 H 925.953 -2.44096 -1.98153 0
M  V30 9557 N 929.725 -0.817259 -1.34754 0
M  V30 9558 C 931.136 -0.462215 -1.80888 0
M  V30 9559 C 931.487 1.01685 -1.67794 0
M  V30 9560 O 930.612 1.79094 -1.21468 0
M  V30 9561 C 931.207 -0.832204 -3.2842 0
M  V30 9562 C 929.766 -0.52961 -3.72655 0
M  V30 9563 C 928.913 -1.05214 -2.56564 0
M  V30 9564 H 931.864 -1.00795 -1.22581 0
M  V30 9565 H 931.885 -0.133804 -3.80265 0
M  V30 9566 H 931.397 -1.90873 -3.37919 0
M  V30 9567 H 929.498 0.537743 -3.68699 0
M  V30 9568 H 929.611 -1.06971 -4.67005 0
M  V30 9569 H 927.975 -0.473949 -2.50251 0
M  V30 9570 H 928.758 -2.135 -2.68836 0
M  V30 9571 N 931.203 1.46865 -0.571711 0
M  V30 9572 C 932.133 2.3298 0.155795 0
M  V30 9573 C 933.114 1.44678 0.894553 0
M  V30 9574 O 934.299 1.73513 0.872176 0
M  V30 9575 C 931.429 3.26745 1.17708 0
M  V30 9576 C 930.383 4.24401 0.553863 0
M  V30 9577 C 929.709 5.07595 1.68083 0
M  V30 9578 C 931.009 5.19884 -0.501827 0
M  V30 9579 H 932.703 2.94056 -0.563176 0
M  V30 9580 H 930.249 1.41402 -0.27228 0
M  V30 9581 H 932.202 3.85838 1.6943 0
M  V30 9582 H 930.926 2.63753 1.92618 0
M  V30 9583 H 929.585 3.66554 0.057815 0
M  V30 9584 H 929.233 4.40996 2.41933 0
M  V30 9585 H 928.933 5.73722 1.26953 0
M  V30 9586 H 930.457 5.6955 2.20103 0
M  V30 9587 H 931.871 5.73257 -0.0701057 0
M  V30 9588 H 930.268 5.94293 -0.832815 0
M  V30 9589 H 931.338 4.64482 -1.39229 0
M  V30 9590 N 932.681 0.308908 1.54543 0
M  V30 9591 C 933.644 -0.550857 2.22482 0
M  V30 9592 C 934.644 -1.0551 1.21344 0
M  V30 9593 O 935.834 -0.949866 1.46025 0
M  V30 9594 C 932.966 -1.76354 2.9174 0
M  V30 9595 H 934.159 0.0428395 2.99869 0
M  V30 9596 H 931.712 0.059825 1.56185 0
M  V30 9597 H 932.447 -2.39686 2.18451 0
M  V30 9598 H 932.232 -1.40954 3.65889 0
M  V30 9599 H 933.722 -2.37417 3.43545 0
M  V30 9600 N 934.159 -1.57557 0.0367827 0
M  V30 9601 C 935.57 -1.79853 -0.500971 0
M  V30 9602 C 935.921 -0.947749 -1.71791 0
M  V30 9603 O 935.046 -0.160287 -2.15806 0
M  V30 9604 C 935.641 -3.26193 -0.915626 0
M  V30 9605 C 934.2 -3.49457 -1.39845 0
M  V30 9606 C 933.347 -2.74864 -0.366784 0
M  V30 9607 H 936.298 -1.56509 0.262768 0
M  V30 9608 H 936.319 -3.36324 -1.7795 0
M  V30 9609 H 935.831 -3.88089 -0.0297227 0
M  V30 9610 H 933.932 -2.92823 -2.30402 0
M  V30 9611 H 934.045 -4.58172 -1.40054 0
M  V30 9612 H 932.409 -2.4057 -0.836554 0
M  V30 9613 H 933.192 -3.39479 0.510785 0
M  V30 9614 N 935.637 0.236453 -1.55816 0
M  V30 9615 C 936.862 0.98449 -1.82545 0
M  V30 9616 C 937.287 1.77755 -0.615206 0
M  V30 9617 O 936.645 1.75982 0.435895 0
M  V30 9618 C 936.693 1.88973 -3.07118 0
M  V30 9619 O 935.797 2.98298 -2.84766 0
M  V30 9620 H 935.138 0.279577 -0.602273 0
M  V30 9621 H 937.668 0.254277 -2.03014 0
M  V30 9622 H 937.678 2.3024 -3.36829 0
M  V30 9623 H 936.353 1.30671 -3.94839 0
M  V30 9624 H 934.93 2.61085 -2.6625 0
M  V30 9625 N 937.115 1.49373 0.502552 0
M  V30 9626 C 938.392 1.49282 1.26389 0
M  V30 9627 C 938.772 0.219674 2.09954 0
M  V30 9628 O 938.12 -0.797991 2.14113 0
M  V30 9629 C 938.33 2.77083 2.12194 0
M  V30 9630 C 939.678 3.26511 2.71433 0
M  V30 9631 O 940.702 2.78189 2.22462 0
M  V30 9632 O 939.561 4.10665 3.60578 0
M  V30 9633 H 936.655 0.597415 0.57186 0
M  V30 9634 H 939.201 1.61634 0.516951 0
M  V30 9635 H 937.973 3.61237 1.50411 0
M  V30 9636 H 937.596 2.67583 2.94084 0
M  V30 9637 N 938.594 -0.753485 1.38421 0
M  V30 9638 C 939.822 -1.54272 1.37868 0
M  V30 9639 C 940.237 -1.88774 -0.0315155 0
M  V30 9640 O 939.594 -1.52785 -0.998148 0
M  V30 9641 C 939.645 -2.84179 2.23438 0
M  V30 9642 O 939.366 -2.51149 3.58965 0
M  V30 9643 C 940.867 -3.78316 2.31067 0
M  V30 9644 H 938.087 -0.47735 0.47157 0
M  V30 9645 H 940.631 -0.932509 1.82001 0
M  V30 9646 H 938.786 -3.41577 1.82767 0
M  V30 9647 H 939.2 -3.34466 4.04021 0
M  V30 9648 H 940.674 -4.66418 2.95226 0
M  V30 9649 H 941.151 -4.18757 1.32436 0
M  V30 9650 H 941.757 -3.26842 2.72129 0
M  V30 9651 N 940.072 -1.23292 -0.981677 0
M  V30 9652 C 941.318 -1.06582 -1.72535 0
M  V30 9653 C 941.651 0.396538 -1.90108 0
M  V30 9654 O 940.926 1.29363 -1.45243 0
M  V30 9655 C 941.209 -1.7904 -3.12437 0
M  V30 9656 C 941.062 -3.32941 -3.02441 0
M  V30 9657 C 942.381 -1.55185 -4.11832 0
M  V30 9658 H 939.5 -0.388585 -0.626236 0
M  V30 9659 H 942.142 -1.51779 -1.14293 0
M  V30 9660 H 940.292 -1.40619 -3.62158 0
M  V30 9661 H 941.964 -3.80875 -2.60254 0
M  V30 9662 H 940.207 -3.62039 -2.38977 0
M  V30 9663 H 940.878 -3.78827 -4.0149 0
M  V30 9664 H 943.354 -1.88581 -3.70913 0
M  V30 9665 H 942.23 -2.08362 -5.07815 0
M  V30 9666 H 942.491 -0.486925 -4.3941 0
M  V30 9667 N 941.55 1.18024 -1.04442 0
M  V30 9668 C 942.482 2.21294 -0.596799 0
M  V30 9669 C 943.495 1.59305 0.33552 0
M  V30 9670 O 944.684 1.7803 0.129443 0
M  V30 9671 C 941.784 3.38578 0.147648 0
M  V30 9672 C 940.957 4.30143 -0.793484 0
M  V30 9673 C 940.016 5.2612 -0.0916561 0
M  V30 9674 O 939.042 5.64586 -0.72331 0
M  V30 9675 N 940.244 5.68512 1.17364 0
M  V30 9676 H 943.009 2.6032 -1.48504 0
M  V30 9677 H 940.57 1.32847 -0.925374 0
M  V30 9678 H 942.562 3.99812 0.627098 0
M  V30 9679 H 941.132 2.98212 0.937466 0
M  V30 9680 H 940.352 3.66456 -1.45272 0
M  V30 9681 H 941.64 4.88216 -1.43258 0
M  V30 9682 H 941.038 5.39322 1.70729 0
M  V30 9683 H 939.595 6.31925 1.5973 0
M  V30 9684 N 943.028 0.824394 1.34319 0
M  V30 9685 C 944.256 0.426194 2.02463 0
M  V30 9686 C 944.671 -0.968298 1.62078 0
M  V30 9687 O 944.028 -1.62689 0.82696 0
M  V30 9688 C 944.079 0.520465 3.57734 0
M  V30 9689 O 943.8 1.86 3.96656 0
M  V30 9690 C 945.301 0.117353 4.43145 0
M  V30 9691 H 942.521 0.170864 0.648881 0
M  V30 9692 H 945.065 1.11296 1.71562 0
M  V30 9693 H 943.22 -0.118233 3.8722 0
M  V30 9694 H 943.634 1.83528 4.91343 0
M  V30 9695 H 945.108 0.234395 5.51502 0
M  V30 9696 H 945.585 -0.939271 4.29039 0
M  V30 9697 H 946.191 0.729908 4.1899 0
M  V30 9698 N 944.506 -1.46559 0.579492 0
M  V30 9699 C 945.922 -1.57771 0.240921 0
M  V30 9700 C 946.122 -1.57505 -1.25676 0
M  V30 9701 O 945.178 -1.4903 -2.03829 0
M  V30 9702 C 946.491 -2.87311 0.887285 0
M  V30 9703 C 948.039 -3.00937 0.860576 0
M  V30 9704 C 948.514 -4.33208 1.48642 0
M  V30 9705 N 950.005 -4.39899 1.45062 0
M  V30 9706 C 950.74 -5.40856 1.90428 0
M  V30 9707 N 950.236 -6.48503 2.43752 0
M  V30 9708 N 952.029 -5.32037 1.81364 0
M  V30 9709 H 944.18 -1.44976 1.55228 0
M  V30 9710 H 946.443 -0.691354 0.648639 0
M  V30 9711 H 946.149 -2.93307 1.94071 0
M  V30 9712 H 946.023 -3.75141 0.393577 0
M  V30 9713 H 948.41 -2.94524 -0.184223 0
M  V30 9714 H 948.491 -2.14591 1.39227 0
M  V30 9715 H 948.135 -4.40378 2.5304 0
M  V30 9716 H 948.065 -5.18323 0.92998 0
M  V30 9717 H 950.556 -3.62706 1.0608 0
M  V30 9718 H 950.869 -7.21744 2.76234 0
M  V30 9719 H 949.214 -6.49332 2.47776 0
M  V30 9720 H 952.405 -4.46841 1.39465 0
M  V30 9721 H 952.578 -6.10573 2.17035 0
M  V30 9722 N 945.984 -0.3171 -1.54377 0
M  V30 9723 C 946.934 0.567199 -2.20832 0
M  V30 9724 C 947.918 1.08661 -1.18666 0
M  V30 9725 O 949.11 1.0247 -1.44322 0
M  V30 9726 C 946.239 1.73079 -2.96477 0
M  V30 9727 C 945.325 1.22658 -4.05975 0
M  V30 9728 N 945.716 0.441565 -5.03869 0
M  V30 9729 C 944.014 1.50589 -4.19808 0
M  V30 9730 C 944.715 0.171063 -5.81448 0
M  V30 9731 N 943.691 0.755389 -5.38326 0
M  V30 9732 H 947.493 -0.0399349 -2.93873 0
M  V30 9733 H 945.007 -0.122639 -1.61936 0
M  V30 9734 H 947.004 2.37601 -3.42566 0
M  V30 9735 H 945.664 2.34146 -2.24957 0
M  V30 9736 H 946.675 0.0849921 -5.1783 0
M  V30 9737 H 943.352 2.12288 -3.595 0
M  V30 9738 H 944.742 -0.460484 -6.7032 0
M  V30 9739 N 947.462 1.57535 -0.0451378 0
M  V30 9740 C 948.708 1.92736 0.630921 0
M  V30 9741 C 949.041 0.923265 1.70849 0
M  V30 9742 O 948.316 -0.0516512 1.94431 0
M  V30 9743 C 948.599 3.38348 1.23259 0
M  V30 9744 C 948.452 4.49503 0.16349 0
M  V30 9745 C 949.771 3.84233 2.14599 0
M  V30 9746 H 946.89 0.700884 0.227883 0
M  V30 9747 H 949.532 1.89706 -0.10567 0
M  V30 9748 H 947.682 3.41061 1.86037 0
M  V30 9749 H 949.354 4.58919 -0.46808 0
M  V30 9750 H 947.597 4.30802 -0.509166 0
M  V30 9751 H 948.268 5.48457 0.624382 0
M  V30 9752 H 950.744 3.83358 1.6179 0
M  V30 9753 H 949.62 4.86781 2.53644 0
M  V30 9754 H 949.881 3.20646 3.04366 0
M  V30 9755 N 948.94 -0.228186 1.55939 0
M  V30 9756 C 950.186 -0.954964 1.78909 0
M  V30 9757 C 950.519 -1.8425 0.613648 0
M  V30 9758 O 949.794 -1.90604 -0.38737 0
M  V30 9759 C 950.077 -1.79957 3.1191 0
M  V30 9760 C 949.93 -0.938968 4.3989 0
M  V30 9761 C 951.249 -2.77859 3.41295 0
M  V30 9762 H 948.368 -0.345745 0.650868 0
M  V30 9763 H 951.01 -0.224244 1.88672 0
M  V30 9764 H 949.16 -2.42256 3.03717 0
M  V30 9765 H 950.832 -0.333225 4.60095 0
M  V30 9766 H 949.075 -0.244096 4.33113 0
M  V30 9767 H 949.746 -1.56416 5.29375 0
M  V30 9768 H 952.222 -2.25695 3.49572 0
M  V30 9769 H 951.098 -3.34062 4.35538 0
M  V30 9770 H 951.359 -3.55266 2.63132 0
M  V30 9771 N 950.418 -1.49637 -0.494624 0
M  V30 9772 C 951.35 -1.62902 -1.61231 0
M  V30 9773 C 952.363 -0.511425 -1.54558 0
M  V30 9774 O 953.552 -0.783724 -1.60375 0
M  V30 9775 C 950.652 -1.57564 -3.00045 0
M  V30 9776 C 949.825 -2.84964 -3.31835 0
M  V30 9777 C 948.884 -2.72591 -4.5009 0
M  V30 9778 O 947.91 -3.46532 -4.51558 0
M  V30 9779 N 949.112 -1.84563 -5.50379 0
M  V30 9780 H 951.877 -2.59301 -1.50276 0
M  V30 9781 H 949.438 -1.46806 -0.68262 0
M  V30 9782 H 951.43 -1.46932 -3.77085 0
M  V30 9783 H 950 -0.689974 -3.0489 0
M  V30 9784 H 949.22 -3.099 -2.4363 0
M  V30 9785 H 950.508 -3.69412 -3.49875 0
M  V30 9786 H 949.906 -1.23758 -5.51997 0
M  V30 9787 H 948.463 -1.79849 -6.26496 0
M  V30 9788 N 951.896 0.746133 -1.38819 0
M  V30 9789 C 953.312 1.0502 -1.20179 0
M  V30 9790 C 953.512 2.01423 -0.0556271 0
M  V30 9791 O 952.568 2.45359 0.59625 0
M  V30 9792 C 953.881 1.62315 -2.53129 0
M  V30 9793 C 955.429 1.74449 -2.59878 0
M  V30 9794 C 955.904 2.35155 -3.93022 0
M  V30 9795 N 957.395 2.42577 -3.94602 0
M  V30 9796 C 958.13 2.9046 -4.94389 0
M  V30 9797 N 957.626 3.38322 -6.04574 0
M  V30 9798 N 959.419 2.89568 -4.81775 0
M  V30 9799 H 951.57 0.106551 -2.12133 0
M  V30 9800 H 953.833 0.109897 -0.941609 0
M  V30 9801 H 953.539 0.98946 -3.37495 0
M  V30 9802 H 953.413 2.61276 -2.72057 0
M  V30 9803 H 955.8 2.36943 -1.75903 0
M  V30 9804 H 955.881 0.741721 -2.4481 0
M  V30 9805 H 955.525 1.73292 -4.77422 0
M  V30 9806 H 955.455 3.36088 -4.05404 0
M  V30 9807 H 957.946 2.08735 -3.15021 0
M  V30 9808 H 958.259 3.73336 -6.76639 0
M  V30 9809 H 956.604 3.3636 -6.08184 0
M  V30 9810 H 959.795 2.51492 -3.94803 0
M  V30 9811 H 959.968 3.26571 -5.59692 0
M  V30 9812 N 953.375 1.23811 0.975125 0
M  V30 9813 C 954.791 1.0019 1.24234 0
M  V30 9814 C 954.991 -0.293811 1.99346 0
M  V30 9815 O 954.047 -1.01189 2.31337 0
M  V30 9816 C 955.36 2.21218 2.03674 0
M  V30 9817 C 956.908 2.25764 2.16793 0
M  V30 9818 C 957.383 3.46394 2.99626 0
M  V30 9819 N 958.874 3.46665 3.07209 0
M  V30 9820 C 959.609 4.3666 3.71639 0
M  V30 9821 N 959.105 5.36899 4.37849 0
M  V30 9822 N 960.898 4.2439 3.68578 0
M  V30 9823 H 953.049 2.07087 0.472076 0
M  V30 9824 H 955.312 0.90838 0.271201 0
M  V30 9825 H 955.018 3.15277 1.55862 0
M  V30 9826 H 954.892 2.22733 3.04417 0
M  V30 9827 H 957.279 1.32242 2.63811 0
M  V30 9828 H 957.36 2.28279 1.15422 0
M  V30 9829 H 957.004 4.40227 2.53304 0
M  V30 9830 H 956.934 3.41121 4.01178 0
M  V30 9831 H 959.425 2.74142 2.60105 0
M  V30 9832 H 959.738 6.01816 4.84807 0
M  V30 9833 H 958.083 5.40793 4.36541 0
M  V30 9834 H 961.274 3.4532 3.16025 0
M  V30 9835 H 961.447 4.94727 4.18508 0
M  V30 9836 N 954.853 -1.17469 1.05066 0
M  V30 9837 C 956.078 -1.92162 0.780298 0
M  V30 9838 C 956.503 -1.76222 -0.657832 0
M  V30 9839 O 955.861 -1.0791 -1.45688 0
M  V30 9840 C 955.909 -3.41292 1.16414 0
M  V30 9841 O 955.013 -4.1134 0.295531 0
M  V30 9842 H 954.354 -0.599127 0.286257 0
M  V30 9843 H 956.884 -1.48903 1.40318 0
M  V30 9844 H 956.894 -3.92029 1.13036 0
M  V30 9845 H 955.569 -3.52214 2.21175 0
M  V30 9846 H 954.146 -3.70857 0.389797 0
M  V30 9847 N 956.331 -0.831506 -1.3388 0
M  V30 9848 C 957.747 -0.518349 -1.50948 0
M  V30 9849 C 957.947 0.955807 -1.77388 0
M  V30 9850 O 957.003 1.73993 -1.82983 0
M  V30 9851 C 958.316 -1.38531 -2.66889 0
M  V30 9852 C 959.864 -1.38332 -2.80772 0
M  V30 9853 C 960.339 -2.23497 -3.99766 0
M  V30 9854 N 961.83 -2.21167 -4.06988 0
M  V30 9855 C 962.565 -2.83805 -4.98239 0
M  V30 9856 N 962.061 -3.55468 -5.94655 0
M  V30 9857 N 963.854 -2.73314 -4.91178 0
M  V30 9858 H 956.005 -1.78588 -1.14978 0
M  V30 9859 H 958.268 -0.761508 -0.564633 0
M  V30 9860 H 957.974 -2.43255 -2.54007 0
M  V30 9861 H 957.848 -1.05611 -3.62114 0
M  V30 9862 H 960.235 -0.343832 -2.9309 0
M  V30 9863 H 960.316 -1.75256 -1.86331 0
M  V30 9864 H 959.96 -3.27501 -3.88208 0
M  V30 9865 H 959.89 -1.83919 -4.93438 0
M  V30 9866 H 962.381 -1.69046 -3.37982 0
M  V30 9867 H 962.694 -4.00487 -6.60931 0
M  V30 9868 H 961.039 -3.59575 -5.94753 0
M  V30 9869 H 964.23 -2.16897 -4.14817 0
M  V30 9870 H 964.403 -3.22416 -5.62096 0
M  V30 9871 N 957.809 1.4625 -0.587256 0
M  V30 9872 C 959.034 2.07252 -0.0784517 0
M  V30 9873 C 959.459 1.43239 1.21919 0
M  V30 9874 O 958.817 0.517791 1.73749 0
M  V30 9875 C 958.865 3.60534 0.0691037 0
M  V30 9876 O 957.969 3.96773 1.12448 0
M  V30 9877 H 957.31 0.660825 -0.064859 0
M  V30 9878 H 959.84 1.87819 -0.811491 0
M  V30 9879 H 959.85 4.0708 0.273826 0
M  V30 9880 H 958.525 4.06516 -0.878514 0
M  V30 9881 H 957.102 3.6193 0.897852 0
M  V30 9882 N 959.287 0.325282 1.54207 0
M  V30 9883 C 960.197 -0.548778 2.28091 0
M  V30 9884 C 961.213 -1.12772 1.32508 0
M  V30 9885 O 962.389 -1.14732 1.65525 0
M  V30 9886 C 959.454 -1.69284 3.02562 0
M  V30 9887 C 958.515 -1.14553 4.13734 0
M  V30 9888 C 957.748 -2.23506 4.84645 0
M  V30 9889 O 957.971 -3.43884 4.55082 0
M  V30 9890 O 956.905 -1.88828 5.71513 0
M  V30 9891 H 960.731 0.0512974 3.03657 0
M  V30 9892 H 958.316 0.0909159 1.49123 0
M  V30 9893 H 960.198 -2.35887 3.49192 0
M  V30 9894 H 958.873 -2.27906 2.2987 0
M  V30 9895 H 957.78 -0.444532 3.71449 0
M  V30 9896 H 959.113 -0.60441 4.88475 0
M  V30 9897 N 960.765 -1.57509 0.0534917 0
M  V30 9898 C 961.99 -1.97511 -0.632794 0
M  V30 9899 C 962.415 -0.930947 -1.63447 0
M  V30 9900 O 961.773 0.105558 -1.80992 0
M  V30 9901 C 961.821 -3.3658 -1.29407 0
M  V30 9902 O 960.925 -3.3467 -2.40977 0
M  V30 9903 H 960.266 -0.643349 -0.16431 0
M  V30 9904 H 962.796 -2.04232 0.12258 0
M  V30 9905 H 962.806 -3.73359 -1.64521 0
M  V30 9906 H 961.481 -4.12113 -0.559976 0
M  V30 9907 H 960.058 -3.09639 -2.07793 0
M  V30 9908 N 962.243 0.219913 -1.56058 0
M  V30 9909 C 963.471 0.960915 -1.83232 0
M  V30 9910 C 963.886 1.77878 -0.632828 0
M  V30 9911 O 963.243 1.78093 0.398624 0
M  V30 9912 C 963.294 1.87716 -3.08942 0
M  V30 9913 O 963.015 1.09235 -4.24263 0
M  V30 9914 C 964.516 2.73192 -3.49115 0
M  V30 9915 H 961.736 0.281546 -0.609075 0
M  V30 9916 H 964.28 0.234648 -2.03149 0
M  V30 9917 H 962.435 2.55736 -2.90995 0
M  V30 9918 H 962.849 1.71446 -4.95688 0
M  V30 9919 H 964.323 3.33181 -4.40107 0
M  V30 9920 H 964.8 3.45668 -2.70943 0
M  V30 9921 H 965.406 2.10583 -3.69506 0
M  V30 9922 N 963.721 1.49897 0.486681 0
M  V30 9923 C 964.97 1.59349 1.23656 0
M  V30 9924 C 965.283 0.292024 1.93408 0
M  V30 9925 O 966.489 0.265258 2.70201 0
M  V30 9926 C 964.945 2.81215 2.24602 0
M  V30 9927 C 964.553 4.18177 1.60725 0
M  V30 9928 C 966.297 3.00004 3.00329 0
M  V30 9929 C 964.204 5.31247 2.59866 0
M  V30 9930 H 963.134 0.593363 0.465227 0
M  V30 9931 H 965.785 1.76306 0.508769 0
M  V30 9932 H 964.167 2.57783 3.00606 0
M  V30 9933 H 965.341 4.51802 0.90616 0
M  V30 9934 H 963.656 4.04864 0.973362 0
M  V30 9935 H 966.253 3.81649 3.74497 0
M  V30 9936 H 966.596 2.1112 3.58795 0
M  V30 9937 H 967.129 3.23544 2.3144 0
M  V30 9938 H 963.868 6.22236 2.06161 0
M  V30 9939 H 963.388 5.02059 3.28172 0
M  V30 9940 H 965.067 5.61177 3.22009 0
M  V30 9941 N 965.199 -0.738761 1.39212 0
M  V30 9942 C 966.109 -1.88324 1.39897 0
M  V30 9943 C 967.125 -1.71494 0.294229 0
M  V30 9944 O 968.301 -1.94162 0.535087 0
M  V30 9945 C 965.366 -3.23871 1.23726 0
M  V30 9946 C 964.427 -3.53121 2.44139 0
M  V30 9947 C 963.66 -4.82202 2.2873 0
M  V30 9948 O 963.883 -5.55649 1.28879 0
M  V30 9949 O 962.817 -5.11265 3.17634 0
M  V30 9950 H 966.643 -1.90701 2.36362 0
M  V30 9951 H 964.228 -0.886067 1.20288 0
M  V30 9952 H 966.11 -4.04882 1.16826 0
M  V30 9953 H 964.785 -3.22274 0.303551 0
M  V30 9954 H 963.692 -2.72212 2.56615 0
M  V30 9955 H 965.025 -3.59495 3.36191 0
M  V30 9956 N 966.677 -1.24326 -0.968545 0
M  V30 9957 C 967.902 -1.1104 -1.75171 0
M  V30 9958 C 968.327 0.333109 -1.85127 0
M  V30 9959 O 967.685 1.24115 -1.32156 0
M  V30 9960 C 967.733 -1.75397 -3.15068 0
M  V30 9961 O 966.837 -1.02417 -3.9948 0
M  V30 9962 H 966.178 -0.388488 -0.538491 0
M  V30 9963 H 968.708 -1.64617 -1.215 0
M  V30 9964 H 968.718 -1.8112 -3.65595 0
M  V30 9965 H 967.393 -2.80427 -3.07138 0
M  V30 9966 H 965.97 -1.04475 -3.57966 0
M  V30 9967 N 968.156 1.1691 -1.05688 0
M  V30 9968 C 969.403 1.87292 -0.76993 0
M  V30 9969 C 969.731 1.81339 0.703295 0
M  V30 9970 O 968.986 1.21959 1.5305 0
M  V30 9971 C 969.285 3.36578 -1.20207 0
M  V30 9972 C 968.951 3.62732 -2.67836 0
M  V30 9973 C 967.613 3.69579 -3.08163 0
M  V30 9974 C 969.965 3.73803 -3.63209 0
M  V30 9975 C 967.293 3.84992 -4.42717 0
M  V30 9976 C 969.645 3.90735 -4.97503 0
M  V30 9977 C 968.309 3.95823 -5.37476 0
M  V30 9978 H 967.579 0.68535 -0.281737 0
M  V30 9979 H 970.226 1.38274 -1.32486 0
M  V30 9980 H 968.531 3.87687 -0.566222 0
M  V30 9981 H 970.228 3.89409 -0.957183 0
M  V30 9982 H 966.818 3.58031 -2.35609 0
M  V30 9983 H 971.002 3.67829 -3.3319 0
M  V30 9984 H 966.258 3.87181 -4.73182 0
M  V30 9985 H 970.432 3.98243 -5.71293 0
M  V30 9986 H 968.059 4.07518 -6.41742 0
M  V30 9987 N 969.634 0.838594 1.33437 0
M  V30 9988 C 970.881 0.434169 1.97791 0
M  V30 9989 C 971.209 -1.00652 1.66431 0
M  V30 9990 O 970.464 -1.71848 0.936309 0
M  V30 9991 C 970.763 0.601425 3.52303 0
M  V30 9992 C 970.429 2.01017 4.03612 0
M  V30 9993 C 969.091 2.39551 4.17336 0
M  V30 9994 C 971.443 2.93035 4.31022 0
M  V30 9995 C 968.771 3.69406 4.55802 0
M  V30 9996 C 971.123 4.22372 4.7094 0
M  V30 9997 C 969.787 4.60862 4.82869 0
M  V30 9998 H 969.057 0.158874 0.723768 0
M  V30 9999 H 971.704 1.06556 1.59116 0
M  V30 10000 H 970.009 -0.113284 3.91636 0
M  V30 10001 H 971.706 0.268798 4.00098 0
M  V30 10002 H 968.296 1.7009 3.93405 0
M  V30 10003 H 972.48 2.64503 4.19943 0
M  V30 10004 H 967.736 3.99033 4.63231 0
M  V30 10005 H 971.91 4.93749 4.91106 0
M  V30 10006 H 969.537 5.6153 5.12433 0
M  V30 10007 N 971.112 -1.45937 0.595003 0
M  V30 10008 C 972.075 -2.2888 -0.121102 0
M  V30 10009 C 973.075 -1.39075 -0.807149 0
M  V30 10010 O 974.265 -1.61326 -0.657228 0
M  V30 10011 C 971.397 -3.19778 -1.1813 0
M  V30 10012 H 972.59 -2.93673 0.607968 0
M  V30 10013 H 970.143 -1.5225 0.353495 0
M  V30 10014 H 970.878 -2.59759 -1.94154 0
M  V30 10015 H 970.663 -3.85914 -0.693724 0
M  V30 10016 H 972.153 -3.82176 -1.68319 0
M  V30 10017 N 972.59 -0.333456 -1.54032 0
M  V30 10018 C 974.006 0.0188405 -1.59589 0
M  V30 10019 C 974.206 1.49615 -1.34972 0
M  V30 10020 O 973.262 2.2535 -1.13901 0
M  V30 10021 C 974.575 -0.408273 -2.97915 0
M  V30 10022 C 976.123 -0.359763 -3.10926 0
M  V30 10023 C 976.598 -0.76219 -4.51613 0
M  V30 10024 N 978.089 -0.715981 -4.57633 0
M  V30 10025 C 978.824 -0.999436 -5.64623 0
M  V30 10026 N 978.32 -1.35053 -6.79509 0
M  V30 10027 N 980.113 -0.924343 -5.54448 0
M  V30 10028 H 972.264 -1.29587 -1.68289 0
M  V30 10029 H 974.527 -0.527584 -0.787629 0
M  V30 10030 H 974.233 -1.43793 -3.20962 0
M  V30 10031 H 974.107 0.221685 -3.76548 0
M  V30 10032 H 976.494 0.660703 -2.87609 0
M  V30 10033 H 976.575 -1.02479 -2.34375 0
M  V30 10034 H 976.219 -1.78062 -4.75664 0
M  V30 10035 H 976.149 -0.0747478 -5.26547 0
M  V30 10036 H 978.64 -0.456875 -3.75128 0
M  V30 10037 H 978.953 -1.55194 -7.57057 0
M  V30 10038 H 977.298 -1.38889 -6.80981 0
M  V30 10039 H 980.489 -0.649469 -4.63573 0
M  V30 10040 H 980.662 -1.1486 -6.37739 0
M  V30 10041 N 974.068 1.57479 -0.061844 0
M  V30 10042 C 975.316 1.92727 0.608336 0
M  V30 10043 C 975.637 0.941799 1.70749 0
M  V30 10044 O 974.907 -0.0116608 1.95897 0
M  V30 10045 H 973.487 0.71145 0.2277 0
M  V30 10046 H 976.149 1.94546 -0.117359 0
M  V30 10047 H 975.245 2.9426 1.04007 0
M  V30 10048 N 975.546 -0.211634 1.56173 0
M  V30 10049 C 976.509 -1.24588 1.92381 0
M  V30 10050 C 977.509 -1.39297 0.803311 0
M  V30 10051 O 978.699 -1.37392 1.07094 0
M  V30 10052 C 975.831 -2.61807 2.18335 0
M  V30 10053 H 977.024 -0.936814 2.84893 0
M  V30 10054 H 974.577 -0.452471 1.49607 0
M  V30 10055 H 975.312 -2.97795 1.28407 0
M  V30 10056 H 975.097 -2.52506 2.99972 0
M  V30 10057 H 976.587 -3.3642 2.4741 0
M  V30 10058 N 977.024 -1.50153 -0.478725 0
M  V30 10059 C 978.264 -1.62393 -1.24129 0
M  V30 10060 C 978.628 -0.313774 -1.89419 0
M  V30 10061 O 979.829 -0.311537 -2.66989 0
M  V30 10062 C 978.1 -2.76633 -2.26293 0
M  V30 10063 S 979.659 -3.08961 -3.11591 0
M  V30 10064 H 976.477 -0.572559 -0.421541 0
M  V30 10065 H 979.079 -1.87906 -0.539592 0
M  V30 10066 H 977.783 -3.70319 -1.76896 0
M  V30 10067 H 977.314 -2.53182 -3.01102 0
M  V30 10068 H 979.329 -2.52197 -4.2733 0
M  V30 10069 N 978.502 0.731368 -1.39602 0
M  V30 10070 C 979.748 1.49321 -1.37227 0
M  V30 10071 C 980.081 1.94176 0.0306502 0
M  V30 10072 O 979.356 1.67046 0.996294 0
M  V30 10073 C 979.639 2.73035 -2.34784 0
M  V30 10074 C 979.492 2.34176 -3.84033 0
M  V30 10075 C 980.811 3.75146 -2.30116 0
M  V30 10076 H 977.93 0.541652 -0.499783 0
M  V30 10077 H 980.572 0.835968 -1.70621 0
M  V30 10078 H 978.722 3.29114 -2.06437 0
M  V30 10079 H 980.394 1.83701 -4.23145 0
M  V30 10080 H 978.637 1.66361 -4.00633 0
M  V30 10081 H 979.308 3.22786 -4.47787 0
M  V30 10082 H 981.784 3.28661 -2.55189 0
M  V30 10083 H 980.66 4.5937 -3.00451 0
M  V30 10084 H 980.921 4.22326 -1.30741 0
M  V30 10085 N 979.98 1.24838 0.961938 0
M  V30 10086 C 980.943 1.04674 2.03902 0
M  V30 10087 C 981.943 0.00204674 1.608 0
M  V30 10088 O 983.133 0.243555 1.72489 0
M  V30 10089 C 980.265 0.587736 3.35795 0
M  V30 10090 H 981.458 2.00278 2.23223 0
M  V30 10091 H 979.011 1.07142 1.138 0
M  V30 10092 H 979.746 -0.371244 3.22168 0
M  V30 10093 H 979.531 1.34182 3.68426 0
M  V30 10094 H 981.021 0.467867 4.14971 0
M  V30 10095 N 981.458 -1.16348 1.06306 0
M  V30 10096 C 982.707 -1.8622 0.774909 0
M  V30 10097 C 983.02 -1.82598 -0.701245 0
M  V30 10098 O 984.226 -2.48051 -1.10377 0
M  V30 10099 C 982.682 -3.34182 1.33604 0
M  V30 10100 C 982.29 -3.46279 2.84245 0
M  V30 10101 C 984.034 -4.09309 1.12544 0
M  V30 10102 C 981.941 -4.88327 3.33602 0
M  V30 10103 H 980.871 -0.697574 0.286194 0
M  V30 10104 H 983.522 -1.31311 1.28179 0
M  V30 10105 H 981.904 -3.88698 0.756937 0
M  V30 10106 H 983.078 -3.01923 3.48108 0
M  V30 10107 H 981.393 -2.84585 3.03974 0
M  V30 10108 H 983.99 -5.14123 1.46909 0
M  V30 10109 H 984.333 -4.16251 0.0638129 0
M  V30 10110 H 984.866 -3.61032 1.67034 0
M  V30 10111 H 981.605 -4.86565 4.39244 0
M  V30 10112 H 981.125 -5.33307 2.74487 0
M  V30 10113 H 982.804 -5.57144 3.28937 0
M  V30 10114 N 982.937 -0.845659 -1.3299 0
M  V30 10115 C 984.186 -0.440928 -1.96822 0
M  V30 10116 C 984.499 1.00668 -1.67706 0
M  V30 10117 O 985.705 1.51641 -2.25205 0
M  V30 10118 C 984.161 -0.73752 -3.52262 0
M  V30 10119 C 983.769 -2.20026 -3.90247 0
M  V30 10120 C 985.513 -0.400072 -4.22611 0
M  V30 10121 C 983.42 -2.44054 -5.38694 0
M  V30 10122 H 982.35 -0.161148 -0.736578 0
M  V30 10123 H 985.001 -1.03519 -1.51513 0
M  V30 10124 H 983.383 -0.0728025 -3.95933 0
M  V30 10125 H 984.557 -2.90602 -3.57613 0
M  V30 10126 H 982.872 -2.50135 -3.32899 0
M  V30 10127 H 985.469 -0.557136 -5.3179 0
M  V30 10128 H 985.812 0.657547 -4.11074 0
M  V30 10129 H 986.345 -1.0203 -3.84493 0
M  V30 10130 H 983.084 -3.48407 -5.55241 0
M  V30 10131 H 982.604 -1.78047 -5.72765 0
M  V30 10132 H 984.283 -2.27549 -6.05665 0
M  V30 10133 N 984.415 1.45619 -0.602734 0
M  V30 10134 C 985.325 2.34288 0.120902 0
M  V30 10135 C 986.341 1.50952 0.865414 0
M  V30 10136 O 987.517 1.83768 0.824094 0
M  V30 10137 C 984.582 3.28489 1.10888 0
M  V30 10138 C 983.643 4.2773 0.366853 0
M  V30 10139 C 982.876 5.17429 1.30776 0
M  V30 10140 O 983.099 5.10459 2.54535 0
M  V30 10141 O 982.033 5.96459 0.807464 0
M  V30 10142 H 985.859 2.97559 -0.60765 0
M  V30 10143 H 983.444 1.44922 -0.363019 0
M  V30 10144 H 985.326 3.86549 1.67803 0
M  V30 10145 H 984.001 2.67789 1.81854 0
M  V30 10146 H 982.908 3.73299 -0.244643 0
M  V30 10147 H 984.241 4.91271 -0.302226 0
M  V30 10148 N 985.893 0.34162 1.53853 0
M  V30 10149 C 987.139 -0.255862 2.01179 0
M  V30 10150 C 987.472 -1.50356 1.22909 0
M  V30 10151 O 986.747 -1.91913 0.316198 0
M  V30 10152 C 987.03 -0.571934 3.55529 0
M  V30 10153 C 986.883 0.687727 4.44511 0
M  V30 10154 C 988.202 -1.38233 4.17827 0
M  V30 10155 H 985.321 -0.091521 0.731295 0
M  V30 10156 H 987.963 0.461775 1.84303 0
M  V30 10157 H 986.113 -1.18331 3.70041 0
M  V30 10158 H 987.785 1.32572 4.4184 0
M  V30 10159 H 986.028 1.313 4.13452 0
M  V30 10160 H 986.699 0.421858 5.50386 0
M  V30 10161 H 989.175 -0.865374 4.07002 0
M  V30 10162 H 988.051 -1.57223 5.25901 0
M  V30 10163 H 988.312 -2.38386 3.72323 0
M  V30 10164 N 987.371 -1.57444 0.0701946 0
M  V30 10165 C 988.648 -1.84826 -0.6402 0
M  V30 10166 C 989.028 -0.962344 -1.87889 0
M  V30 10167 O 988.376 -0.0282209 -2.28483 0
M  V30 10168 C 988.586 -3.34976 -0.979382 0
M  V30 10169 C 989.934 -4.02448 -1.35355 0
M  V30 10170 O 990.958 -3.39713 -1.07116 0
M  V30 10171 O 989.817 -5.13096 -1.88136 0
M  V30 10172 H 986.911 -0.763494 -0.317813 0
M  V30 10173 H 989.457 -1.69399 0.101004 0
M  V30 10174 H 988.229 -3.91173 -0.0995576 0
M  V30 10175 H 987.852 -3.5566 -1.7774 0
M  V30 10176 N 988.849 0.203349 -1.56283 0
M  V30 10177 C 989.797 1.27157 -1.94766 0
M  V30 10178 C 990.791 1.4756 -0.832005 0
M  V30 10179 O 991.997 1.48519 -1.01696 0
M  V30 10180 H 988.372 0.426712 -0.61921 0
M  V30 10181 H 990.343 0.919921 -2.83866 0
M  V30 10182 C 989.092 2.6108 -2.29636 0
M  V30 10183 H 988.415 2.46193 -3.15006 0
M  V30 10184 H 989.855 3.34591 -2.60433 0
M  V30 10185 C 988.314 3.17456 -1.12799 0
M  V30 10186 O 988.844 3.99717 -0.398661 0
M  V30 10187 N 987.05 2.76084 -0.906975 0
M  V30 10188 H 986.597 2.09294 -1.50179 0
M  V30 10189 H 986.555 3.14143 -0.127005 0
M  V30 10190 N 990.327 1.50405 0.470755 0
M  V30 10191 C 991.237 1.7208 1.59454 0
M  V30 10192 C 992.253 0.603932 1.63183 0
M  V30 10193 O 993.429 0.882296 1.81046 0
M  V30 10194 C 990.494 1.81057 2.95667 0
M  V30 10195 C 989.555 3.04792 3.02324 0
M  V30 10196 C 988.788 3.13332 4.3204 0
M  V30 10197 O 989.011 2.28655 5.22564 0
M  V30 10198 O 987.945 4.0606 4.44296 0
M  V30 10199 H 991.771 2.67343 1.44089 0
M  V30 10200 H 989.356 1.34505 0.650286 0
M  V30 10201 H 991.238 1.8914 3.76569 0
M  V30 10202 H 989.913 0.889782 3.11231 0
M  V30 10203 H 988.82 3.0221 2.205 0
M  V30 10204 H 990.153 3.96451 2.91698 0
M  V30 10205 N 991.805 -0.723954 1.39988 0
M  V30 10206 C 992.737 -1.84859 1.35498 0
M  V30 10207 C 993.75 -1.60681 0.261812 0
M  V30 10208 O 994.939 -1.7071 0.521566 0
M  V30 10209 C 992.039 -3.21103 1.08381 0
M  V30 10210 C 991.212 -3.72546 2.2919 0
M  V30 10211 C 990.271 -4.8738 1.9836 0
M  V30 10212 O 989.297 -5.00467 2.71149 0
M  V30 10213 N 990.499 -5.72566 0.956461 0
M  V30 10214 H 993.264 -1.89212 2.3242 0
M  V30 10215 H 990.825 -0.905152 1.34233 0
M  V30 10216 H 992.817 -3.9551 0.857564 0
M  V30 10217 H 991.387 -3.1195 0.201549 0
M  V30 10218 H 990.607 -2.89365 2.67697 0
M  V30 10219 H 991.895 -4.03652 3.09746 0
M  V30 10220 H 991.293 -5.64595 0.353444 0
M  V30 10221 H 989.85 -6.46993 0.790118 0
M  V30 10222 N 993.283 -1.25346 -0.955304 0
M  V30 10223 C 994.694 -1.09173 -1.51453 0
M  V30 10224 C 995.045 0.332755 -1.93358 0
M  V30 10225 O 994.17 1.22264 -1.78551 0
M  V30 10226 C 994.765 -1.97564 -2.75234 0
M  V30 10227 C 993.324 -1.85579 -3.27471 0
M  V30 10228 C 992.471 -1.91755 -2.00313 0
M  V30 10229 H 995.422 -1.38642 -0.772271 0
M  V30 10230 H 995.443 -1.51523 -3.49029 0
M  V30 10231 H 994.955 -3.01233 -2.44704 0
M  V30 10232 H 993.056 -0.847906 -3.62824 0
M  V30 10233 H 993.169 -2.70353 -3.95533 0
M  V30 10234 H 991.533 -1.35633 -2.15582 0
M  V30 10235 H 992.316 -2.97028 -1.72132 0
M  V30 10236 N 994.761 1.15782 -1.06922 0
M  V30 10237 C 995.989 1.90355 -0.81072 0
M  V30 10238 C 996.404 1.77779 0.635614 0
M  V30 10239 O 995.761 1.12675 1.43564 0
M  V30 10240 C 995.812 3.4085 -1.2043 0
M  V30 10241 O 995.533 3.53057 -2.59388 0
M  V30 10242 C 997.034 4.32457 -0.974473 0
M  V30 10243 H 994.254 0.60343 -0.293451 0
M  V30 10244 H 996.798 1.46723 -1.42452 0
M  V30 10245 H 994.953 3.82162 -0.634909 0
M  V30 10246 H 995.367 4.46426 -2.75326 0
M  V30 10247 H 996.841 5.36488 -1.29942 0
M  V30 10248 H 997.318 4.39109 0.0894481 0
M  V30 10249 H 997.924 3.96882 -1.52856 0
M  V30 10250 N 996.239 0.8527 1.3254 0
M  V30 10251 C 997.467 0.469044 2.01513 0
M  V30 10252 C 997.882 -0.933701 1.64096 0
M  V30 10253 O 997.239 -1.60898 0.861283 0
M  V30 10254 C 997.29 0.596228 3.56549 0
M  V30 10255 O 997.011 1.94371 3.92621 0
M  V30 10256 C 998.512 0.211324 4.42796 0
M  V30 10257 H 995.732 0.184589 0.645111 0
M  V30 10258 H 998.276 1.1491 1.69163 0
M  V30 10259 H 996.431 -0.0360712 3.87383 0
M  V30 10260 H 996.845 1.93909 4.87339 0
M  V30 10261 H 998.319 0.351324 5.50881 0
M  V30 10262 H 998.796 -0.848055 4.30935 0
M  V30 10263 H 999.402 0.818617 4.17347 0
M  V30 10264 N 997.718 -1.45297 0.610449 0
M  V30 10265 C 999.134 -1.57225 0.274332 0
M  V30 10266 C 999.334 -1.60136 -1.22306 0
M  V30 10267 O 998.39 -1.5332 -2.00622 0
M  V30 10268 C 999.703 -2.85365 0.948028 0
M  V30 10269 C 1001.25 -2.99044 0.924216 0
M  V30 10270 C 1001.73 -4.29958 1.57798 0
M  V30 10271 N 1003.22 -4.36723 1.5436 0
M  V30 10272 C 1003.95 -5.36695 2.01857 0
M  V30 10273 N 1003.45 -6.43187 2.57453 0
M  V30 10274 N 1005.24 -5.28071 1.92608 0
M  V30 10275 H 997.392 -1.41651 1.58268 0
M  V30 10276 H 999.655 -0.67744 0.663158 0
M  V30 10277 H 999.361 -2.89125 2.00249 0
M  V30 10278 H 999.235 -3.74222 0.473062 0
M  V30 10279 H 1001.62 -2.94849 -0.121709 0
M  V30 10280 H 1001.7 -2.1159 1.43748 0
M  V30 10281 H 1001.35 -4.34912 2.62325 0
M  V30 10282 H 1001.28 -5.16234 1.03972 0
M  V30 10283 H 1003.77 -3.60374 1.13749 0
M  V30 10284 H 1004.08 -7.15722 2.91482 0
M  V30 10285 H 1002.43 -6.4393 2.61493 0
M  V30 10286 H 1005.62 -4.43783 1.48912 0
M  V30 10287 H 1005.79 -6.05832 2.29938 0
M  V30 10288 N 999.196 -0.349774 -1.5367 0
M  V30 10289 C 1000.16 0.491676 -2.23864 0
M  V30 10290 C 1001.16 1.02256 -1.24098 0
M  V30 10291 O 1002.35 0.910816 -1.48492 0
M  V30 10292 C 999.481 1.68557 -2.96313 0
M  V30 10293 H 1000.67 -0.12233 -2.9965 0
M  V30 10294 H 998.227 -0.101214 -1.55972 0
M  V30 10295 H 998.962 2.3381 -2.2473 0
M  V30 10296 H 998.747 1.31203 -3.69497 0
M  V30 10297 H 1000.24 2.28225 -3.49718 0
M  V30 10298 N 1000.67 1.57404 -0.0785433 0
M  V30 10299 C 1001.61 2.101 0.916013 0
M  V30 10300 C 1002.62 1.03459 1.25698 0
M  V30 10301 O 1003.81 1.30954 1.21299 0
M  V30 10302 C 1000.91 2.55202 2.22992 0
M  V30 10303 C 1000.08 3.85491 2.06678 0
M  V30 10304 C 999.14 4.16614 3.21433 0
M  V30 10305 O 998.166 4.86105 2.96126 0
M  V30 10306 N 999.368 3.70697 4.46726 0
M  V30 10307 H 1002.13 2.96054 0.466059 0
M  V30 10308 H 999.694 1.61546 0.107006 0
M  V30 10309 H 1001.69 2.7308 2.9868 0
M  V30 10310 H 1000.26 1.74348 2.59464 0
M  V30 10311 H 999.476 3.76925 1.15417 0
M  V30 10312 H 1000.76 4.70759 1.93036 0
M  V30 10313 H 1000.16 3.14571 4.70172 0
M  V30 10314 H 998.719 3.93762 5.19418 0
M  V30 10315 N 1002.15 -0.195058 1.56388 0
M  V30 10316 C 1003.1 -1.24175 1.94549 0
M  V30 10317 C 1004.07 -1.45229 0.806089 0
M  V30 10318 O 1005.25 -1.58362 1.06425 0
M  V30 10319 C 1002.39 -2.58145 2.29031 0
M  V30 10320 C 1001.51 -2.44669 3.56035 0
M  V30 10321 C 1000.64 -3.71342 3.7984 0
M  V30 10322 C 999.681 -3.52699 5.0027 0
M  V30 10323 N 998.818 -4.71385 5.20328 0
M  V30 10324 H 1003.66 -0.909319 2.83788 0
M  V30 10325 H 1001.19 -0.437641 1.40439 0
M  V30 10326 H 1003.15 -3.36195 2.4704 0
M  V30 10327 H 1001.78 -2.8943 1.42933 0
M  V30 10328 H 1000.83 -1.57916 3.46073 0
M  V30 10329 H 1002.15 -2.26827 4.44242 0
M  V30 10330 H 1001.3 -4.57832 3.98088 0
M  V30 10331 H 1000.04 -3.92138 2.89964 0
M  V30 10332 H 999.045 -2.64594 4.81944 0
M  V30 10333 H 1000.27 -3.33349 5.91655 0
M  V30 10334 H 998.216 -4.92444 4.33399 0
M  V30 10335 H 998.133 -4.56368 6.02714 0
M  V30 10336 H 999.401 -5.59226 5.43035 0
M  V30 10337 N 1003.63 -1.50653 -0.462772 0
M  V30 10338 C 1004.56 -1.73056 -1.5676 0
M  V30 10339 C 1005.54 -0.579699 -1.59917 0
M  V30 10340 O 1006.73 -0.819729 -1.76051 0
M  V30 10341 C 1003.86 -1.83234 -2.9503 0
M  V30 10342 C 1002.81 -2.98488 -3.06739 0
M  V30 10343 C 1002.14 -2.93818 -4.46738 0
M  V30 10344 C 1003.44 -4.38869 -2.83181 0
M  V30 10345 H 1005.13 -2.65562 -1.38265 0
M  V30 10346 H 1002.68 -1.27792 -0.663722 0
M  V30 10347 H 1004.63 -1.97491 -3.72257 0
M  V30 10348 H 1003.35 -0.873558 -3.14701 0
M  V30 10349 H 1002.01 -2.83895 -2.31946 0
M  V30 10350 H 1001.66 -1.95769 -4.63339 0
M  V30 10351 H 1001.36 -3.71197 -4.55507 0
M  V30 10352 H 1002.88 -3.10135 -5.25974 0
M  V30 10353 H 1004.3 -4.53945 -3.50153 0
M  V30 10354 H 1002.69 -5.17762 -3.03386 0
M  V30 10355 H 1003.76 -4.50663 -1.78972 0
M  V30 10356 N 1005.11 0.71652 -1.4037 0
M  V30 10357 C 1006.36 1.47638 -1.38597 0
M  V30 10358 C 1006.68 1.94496 0.0120141 0
M  V30 10359 O 1005.94 1.68437 0.996373 0
M  V30 10360 C 1006.24 2.71777 -2.32103 0
M  V30 10361 C 1005.9 2.43689 -3.79376 0
M  V30 10362 C 1004.57 2.35739 -4.195 0
M  V30 10363 C 1006.92 2.20099 -4.72447 0
M  V30 10364 C 1004.25 2.02265 -5.50732 0
M  V30 10365 C 1006.6 1.88138 -6.03976 0
M  V30 10366 C 1005.26 1.78669 -6.43143 0
M  V30 10367 H 1004.53 0.540246 -0.507163 0
M  V30 10368 H 1007.18 0.820822 -1.73017 0
M  V30 10369 H 1005.48 3.42166 -1.90865 0
M  V30 10370 H 1007.18 3.29864 -2.28015 0
M  V30 10371 H 1003.77 2.50763 -3.47585 0
M  V30 10372 H 1007.95 2.25198 -4.42266 0
M  V30 10373 H 1003.21 1.93471 -5.79982 0
M  V30 10374 H 1007.38 1.68898 -6.75608 0
M  V30 10375 H 1005.01 1.52498 -7.44747 0
M  V30 10376 N 1006.59 1.25851 0.948643 0
M  V30 10377 C 1007.55 1.0683 2.0278 0
M  V30 10378 C 1008.55 0.0191016 1.60789 0
M  V30 10379 O 1009.74 0.261836 1.72221 0
M  V30 10380 C 1006.87 0.623318 3.35153 0
M  V30 10381 H 1008.06 2.02635 2.21086 0
M  V30 10382 H 1005.62 1.08343 1.12657 0
M  V30 10383 H 1006.35 -0.337053 3.22544 0
M  V30 10384 H 1006.14 1.38082 3.66982 0
M  V30 10385 H 1007.63 0.511854 4.14451 0
M  V30 10386 N 1008.06 -1.15214 1.07534 0
M  V30 10387 C 1009 -2.18999 0.641461 0
M  V30 10388 C 1009.98 -1.58958 -0.342238 0
M  V30 10389 O 1011.16 -1.86859 -0.248218 0
M  V30 10390 C 1008.29 -3.38651 -0.0577939 0
M  V30 10391 C 1007.33 -4.17225 0.884641 0
M  V30 10392 S 1008.17 -4.79375 2.38663 0
M  V30 10393 C 1009.32 -6.02393 1.69923 0
M  V30 10394 H 1009.55 -2.55464 1.52071 0
M  V30 10395 H 1007.09 -1.26205 0.889481 0
M  V30 10396 H 1009.05 -4.07971 -0.454982 0
M  V30 10397 H 1007.71 -3.00526 -0.913407 0
M  V30 10398 H 1006.9 -5.02837 0.342133 0
M  V30 10399 H 1006.5 -3.53463 1.2223 0
M  V30 10400 H 1008.79 -6.69899 1.01201 0
M  V30 10401 H 1009.74 -6.61216 2.53375 0
M  V30 10402 H 1010.14 -5.52106 1.1764 0
M  V30 10403 N 1009.54 -0.859717 -1.32086 0
M  V30 10404 C 1010.79 -0.475565 -1.97762 0
M  V30 10405 C 1011.14 0.959348 -1.66776 0
M  V30 10406 O 1010.44 1.66484 -0.948343 0
M  V30 10407 C 1010.63 -0.657397 -3.51302 0
M  V30 10408 C 1010.46 -2.10843 -3.97209 0
M  V30 10409 C 1009.23 -2.74796 -4.24046 0
M  V30 10410 C 1011.43 -3.07959 -4.11905 0
M  V30 10411 N 1009.41 -4.10758 -4.56236 0
M  V30 10412 C 1010.78 -4.28922 -4.4769 0
M  V30 10413 C 1012.84 -3.04086 -3.94254 0
M  V30 10414 C 1011.54 -5.46518 -4.67665 0
M  V30 10415 C 1013.56 -4.20931 -4.15416 0
M  V30 10416 C 1012.93 -5.40654 -4.51522 0
M  V30 10417 H 1009.03 -0.222859 -0.749572 0
M  V30 10418 H 1011.61 -1.11217 -1.59809 0
M  V30 10419 H 1009.78 -0.0504597 -3.88367 0
M  V30 10420 H 1011.51 -0.242642 -4.03972 0
M  V30 10421 H 1008.27 -2.25805 -4.16304 0
M  V30 10422 H 1008.69 -4.80905 -4.76507 0
M  V30 10423 H 1013.33 -2.12641 -3.65436 0
M  V30 10424 H 1011.05 -6.3849 -4.95335 0
M  V30 10425 H 1014.64 -4.19376 -4.03255 0
M  V30 10426 H 1013.52 -6.29563 -4.67568 0
M  V30 10427 N 1011.02 1.44971 -0.618145 0
M  V30 10428 C 1012.44 1.57077 -0.282666 0
M  V30 10429 C 1012.64 1.60782 1.21456 0
M  V30 10430 O 1011.69 1.54382 1.99806 0
M  V30 10431 C 1013.01 2.84858 -0.963148 0
M  V30 10432 C 1014.55 2.9855 -0.940062 0
M  V30 10433 C 1015.03 4.29115 -1.60076 0
M  V30 10434 N 1016.52 4.35899 -1.56674 0
M  V30 10435 C 1017.25 5.35617 -2.04701 0
M  V30 10436 N 1016.75 6.41813 -2.6086 0
M  V30 10437 N 1018.54 5.27042 -1.95406 0
M  V30 10438 H 1010.69 1.4081 -1.59017 0
M  V30 10439 H 1012.96 0.673914 -0.666741 0
M  V30 10440 H 1012.66 2.88059 -2.0178 0
M  V30 10441 H 1012.54 3.73966 -0.492901 0
M  V30 10442 H 1014.92 2.94909 0.10607 0
M  V30 10443 H 1015.01 2.10825 -1.44868 0
M  V30 10444 H 1014.65 4.33514 -2.64627 0
M  V30 10445 H 1014.58 5.15675 -1.06708 0
M  V30 10446 H 1017.07 3.59766 -1.15659 0
M  V30 10447 H 1017.38 7.14166 -2.95273 0
M  V30 10448 H 1015.73 6.42534 -2.64905 0
M  V30 10449 H 1018.92 4.42987 -1.51263 0
M  V30 10450 H 1019.09 6.04604 -2.33147 0
M  V30 10451 N 1012.5 0.357919 1.53482 0
M  V30 10452 C 1013.75 -0.235241 2.00324 0
M  V30 10453 C 1014.06 -1.50494 1.24944 0
M  V30 10454 O 1015.27 -2.17623 1.62335 0
M  V30 10455 C 1013.72 -0.469748 3.56821 0
M  V30 10456 C 1013.33 0.784877 4.41071 0
M  V30 10457 C 1015.07 -1.02098 4.12039 0
M  V30 10458 C 1012.98 0.520377 5.89106 0
M  V30 10459 H 1011.91 -0.0916816 0.748405 0
M  V30 10460 H 1014.56 0.475474 1.77233 0
M  V30 10461 H 1012.94 -1.24153 3.76035 0
M  V30 10462 H 1014.12 1.55886 4.33631 0
M  V30 10463 H 1012.43 1.25878 3.96918 0
M  V30 10464 H 1015.03 -1.23406 5.20264 0
M  V30 10465 H 1015.37 -1.98084 3.66154 0
M  V30 10466 H 1015.91 -0.309554 3.96594 0
M  V30 10467 H 1012.65 1.45035 6.39254 0
M  V30 10468 H 1012.17 -0.215254 5.99414 0
M  V30 10469 H 1013.84 0.143006 6.46842 0
M  V30 10470 N 1013.98 -1.5736 0.0868897 0
M  V30 10471 C 1015.2 -1.98388 -0.587349 0
M  V30 10472 C 1015.62 -0.965757 -1.6223 0
M  V30 10473 O 1014.98 0.0456981 -1.82443 0
M  V30 10474 C 1015.03 -3.39479 -1.24242 0
M  V30 10475 O 1014.75 -4.37393 -0.248878 0
M  V30 10476 C 1016.25 -3.95465 -2.00305 0
M  V30 10477 H 1013.47 -0.652111 -0.15809 0
M  V30 10478 H 1016.01 -2.03843 0.163754 0
M  V30 10479 H 1014.17 -3.35063 -1.94451 0
M  V30 10480 H 1014.58 -5.19525 -0.720678 0
M  V30 10481 H 1016.06 -4.96363 -2.41511 0
M  V30 10482 H 1016.53 -3.32832 -2.86565 0
M  V30 10483 H 1017.14 -4.03328 -1.34931 0
M  V30 10484 N 1015.45 0.186762 -1.56489 0
M  V30 10485 C 1016.68 0.920495 -1.84961 0
M  V30 10486 C 1017.09 1.77004 -0.668297 0
M  V30 10487 O 1016.44 1.79891 0.37213 0
M  V30 10488 C 1016.5 1.85997 -3.07645 0
M  V30 10489 C 1016.16 1.19156 -4.41193 0
M  V30 10490 C 1017.16 0.564446 -5.16827 0
M  V30 10491 C 1014.84 1.19292 -4.87929 0
M  V30 10492 C 1016.84 -0.0523768 -6.37378 0
M  V30 10493 C 1014.52 0.572266 -6.08415 0
M  V30 10494 C 1015.52 -0.049294 -6.82982 0
M  V30 10495 O 1015.21 -0.660201 -8.01184 0
M  V30 10496 H 1014.94 0.273659 -0.618132 0
M  V30 10497 H 1017.5 0.196437 -2.04459 0
M  V30 10498 H 1015.73 2.62394 -2.84053 0
M  V30 10499 H 1017.42 2.46221 -3.22692 0
M  V30 10500 H 1018.18 0.555474 -4.81809 0
M  V30 10501 H 1014.06 1.66611 -4.29839 0
M  V30 10502 H 1017.6 -0.538133 -6.95521 0
M  V30 10503 H 1013.5 0.578769 -6.429 0
M  V30 10504 H 1014.27 -0.557926 -8.16596 0
M  V30 10505 N 1016.93 1.50896 0.454776 0
M  V30 10506 C 1017.88 1.70947 1.55067 0
M  V30 10507 C 1018.85 0.550899 1.56698 0
M  V30 10508 O 1020.03 0.783352 1.73978 0
M  V30 10509 C 1017.17 1.82455 2.92924 0
M  V30 10510 C 1016.29 3.09919 3.00956 0
M  V30 10511 C 1015.42 3.12125 4.29827 0
M  V30 10512 C 1014.46 4.33975 4.31662 0
M  V30 10513 N 1013.6 4.33828 5.5203 0
M  V30 10514 H 1018.44 2.645 1.37273 0
M  V30 10515 H 1015.98 1.31101 0.667148 0
M  V30 10516 H 1017.93 1.87108 3.72889 0
M  V30 10517 H 1016.56 0.92327 3.09315 0
M  V30 10518 H 1015.62 3.14659 2.13761 0
M  V30 10519 H 1016.93 3.99869 2.98172 0
M  V30 10520 H 1016.08 3.15598 5.18154 0
M  V30 10521 H 1014.82 2.20033 4.35243 0
M  V30 10522 H 1013.83 4.30697 3.41731 0
M  V30 10523 H 1015.05 5.27312 4.27924 0
M  V30 10524 H 1013 3.44598 5.58201 0
M  V30 10525 H 1012.91 5.17566 5.51055 0
M  V30 10526 H 1014.18 4.4147 6.42437 0
M  V30 10527 N 1018.41 -0.709066 1.40748 0
M  V30 10528 C 1019.69 -1.4626 1.29874 0
M  V30 10529 C 1020.07 -2.10949 -0.0799322 0
M  V30 10530 O 1019.42 -2.00651 -1.09323 0
M  V30 10531 C 1019.63 -2.49302 2.44232 0
M  V30 10532 C 1020.97 -3.14945 2.84771 0
M  V30 10533 O 1022 -2.59623 2.43873 0
M  V30 10534 O 1020.86 -4.15111 3.5545 0
M  V30 10535 H 1017.95 -0.650716 0.51039 0
M  V30 10536 H 1020.5 -0.740687 1.52682 0
M  V30 10537 H 1019.27 -2.00063 3.36289 0
M  V30 10538 H 1018.89 -3.29021 2.23229 0
M  V30 10539 N 1019.89 -1.26353 -0.941956 0
M  V30 10540 C 1021.12 -1.14626 -1.72245 0
M  V30 10541 C 1021.53 0.298588 -1.86424 0
M  V30 10542 O 1020.89 1.2045 -1.37106 0
M  V30 10543 C 1020.94 -1.80933 -3.12963 0
M  V30 10544 O 1020.66 -3.19771 -2.99463 0
M  V30 10545 C 1022.16 -1.7515 -4.07231 0
M  V30 10546 H 1019.38 -0.3992 -0.539333 0
M  V30 10547 H 1021.93 -1.66958 -1.1809 0
M  V30 10548 H 1020.08 -1.32541 -3.64021 0
M  V30 10549 H 1020.5 -3.52571 -3.88322 0
M  V30 10550 H 1021.97 -2.26183 -5.03533 0
M  V30 10551 H 1022.45 -0.717855 -4.33294 0
M  V30 10552 H 1023.05 -2.2309 -3.62093 0
M  V30 10553 N 1021.37 1.14642 -1.08144 0
M  V30 10554 C 1022.61 1.85892 -0.810683 0
M  V30 10555 C 1022.95 1.82575 0.661821 0
M  V30 10556 O 1022.22 1.25454 1.48632 0
M  V30 10557 C 1022.5 3.34647 -1.32979 0
M  V30 10558 C 1022.36 3.46551 -2.86744 0
M  V30 10559 C 1023.68 4.29661 -0.952864 0
M  V30 10560 H 1020.8 0.674963 -0.295963 0
M  V30 10561 H 1023.44 1.3464 -1.3406 0
M  V30 10562 H 1021.59 3.78425 -0.87903 0
M  V30 10563 H 1023.26 3.11579 -3.40171 0
M  V30 10564 H 1021.5 2.87849 -3.24539 0
M  V30 10565 H 1022.17 4.51101 -3.18138 0
M  V30 10566 H 1024.65 3.93885 -1.34141 0
M  V30 10567 H 1023.53 5.32209 -1.34331 0
M  V30 10568 H 1023.79 4.41877 0.140392 0
M  V30 10569 N 1022.85 0.866709 1.31628 0
M  V30 10570 C 1023.78 0.277328 2.27516 0
M  V30 10571 C 1024.79 -0.557786 1.52946 0
M  V30 10572 O 1025.98 -0.38031 1.74402 0
M  V30 10573 C 1023.08 -0.625742 3.33073 0
M  V30 10574 C 1022.25 0.176204 4.37045 0
M  V30 10575 C 1021.31 -0.654497 5.22114 0
M  V30 10576 O 1020.34 -0.0836961 5.69138 0
M  V30 10577 N 1021.54 -1.96708 5.46156 0
M  V30 10578 H 1024.3 1.10133 2.78731 0
M  V30 10579 H 1021.87 0.72787 1.44616 0
M  V30 10580 H 1023.86 -1.18709 3.86898 0
M  V30 10581 H 1022.43 -1.35042 2.81926 0
M  V30 10582 H 1021.65 0.918999 3.83338 0
M  V30 10583 H 1022.94 0.726594 5.03585 0
M  V30 10584 H 1022.33 -2.454 5.09701 0
M  V30 10585 H 1020.89 -2.47629 6.02929 0
M  V30 10586 N 1024.32 -1.44642 0.625825 0
M  V30 10587 C 1025.25 -2.33397 -0.0692188 0
M  V30 10588 C 1026.23 -1.47898 -0.840241 0
M  V30 10589 O 1027.42 -1.7663 -0.807176 0
M  V30 10590 C 1024.55 -3.30888 -1.055 0
M  V30 10591 C 1023.5 -4.26164 -0.395968 0
M  V30 10592 C 1022.83 -5.13483 -1.49128 0
M  V30 10593 C 1024.13 -5.17663 0.694433 0
M  V30 10594 H 1025.82 -2.91763 0.671925 0
M  V30 10595 H 1023.37 -1.40294 0.324573 0
M  V30 10596 H 1025.32 -3.91861 -1.54993 0
M  V30 10597 H 1024.05 -2.7072 -1.82696 0
M  V30 10598 H 1022.71 -3.66516 0.0782691 0
M  V30 10599 H 1022.35 -4.49672 -2.25399 0
M  V30 10600 H 1022.05 -5.78038 -1.05573 0
M  V30 10601 H 1023.58 -5.77327 -1.98813 0
M  V30 10602 H 1024.99 -5.72602 0.282818 0
M  V30 10603 H 1023.39 -5.90793 1.05281 0
M  V30 10604 H 1024.46 -4.58994 1.56372 0
M  V30 10605 N 1025.8 -0.366053 -1.5329 0
M  V30 10606 C 1027.22 -0.0150149 -1.59593 0
M  V30 10607 C 1027.42 1.46719 -1.38116 0
M  V30 10608 O 1026.47 2.22884 -1.18656 0
M  V30 10609 C 1027.79 -0.471374 -2.96982 0
M  V30 10610 C 1029.33 -0.425634 -3.10092 0
M  V30 10611 C 1029.81 -0.857812 -4.49895 0
M  V30 10612 N 1031.3 -0.81289 -4.56011 0
M  V30 10613 C 1032.04 -1.11898 -5.62376 0
M  V30 10614 N 1031.53 -1.49436 -6.76491 0
M  V30 10615 N 1033.32 -1.04174 -5.52362 0
M  V30 10616 H 1025.48 -1.33127 -1.65502 0
M  V30 10617 H 1027.74 -0.544172 -0.776261 0
M  V30 10618 H 1027.44 -1.50569 -3.1784 0
M  V30 10619 H 1027.32 0.141764 -3.76934 0
M  V30 10620 H 1029.71 0.599548 -2.88945 0
M  V30 10621 H 1029.79 -1.07427 -2.32149 0
M  V30 10622 H 1029.43 -1.88111 -4.7178 0
M  V30 10623 H 1029.36 -0.186419 -5.2627 0
M  V30 10624 H 1031.85 -0.536343 -3.74075 0
M  V30 10625 H 1032.16 -1.71217 -7.53594 0
M  V30 10626 H 1030.51 -1.53302 -6.77882 0
M  V30 10627 H 1033.7 -0.747654 -4.62091 0
M  V30 10628 H 1033.87 -1.28362 -6.35159 0
M  V30 10629 N 1027.28 1.57312 -0.0952337 0
M  V30 10630 C 1028.7 1.57445 0.261416 0
M  V30 10631 C 1028.9 1.10639 1.68408 0
M  V30 10632 O 1027.95 0.782912 2.40056 0
M  V30 10633 C 1029.26 3.00659 0.0497206 0
M  V30 10634 C 1030.81 3.1278 0.117459 0
M  V30 10635 C 1031.29 4.57952 -0.0662441 0
M  V30 10636 N 1032.78 4.63199 -0.0114146 0
M  V30 10637 C 1033.51 5.73255 -0.128799 0
M  V30 10638 N 1033.01 6.92146 -0.301026 0
M  V30 10639 N 1034.8 5.62056 -0.0700599 0
M  V30 10640 H 1026.95 1.86045 -1.02475 0
M  V30 10641 H 1029.22 0.858726 -0.401614 0
M  V30 10642 H 1028.92 3.39102 -0.932888 0
M  V30 10643 H 1028.8 3.68792 0.791975 0
M  V30 10644 H 1031.18 2.74209 1.09057 0
M  V30 10645 H 1031.26 2.47238 -0.656288 0
M  V30 10646 H 1030.91 4.97217 -1.03623 0
M  V30 10647 H 1030.84 5.21555 0.727198 0
M  V30 10648 H 1033.33 3.77712 0.119154 0
M  V30 10649 H 1033.64 7.71855 -0.382104 0
M  V30 10650 H 1031.99 6.94184 -0.336695 0
M  V30 10651 H 1035.18 4.68057 0.0633587 0
M  V30 10652 H 1035.35 6.4779 -0.164991 0
M  V30 10653 N 1028.76 -0.17846 1.56586 0
M  V30 10654 C 1029.7 -1.22104 1.95855 0
M  V30 10655 C 1030.67 -1.44366 0.821447 0
M  V30 10656 O 1031.86 -1.57224 1.08098 0
M  V30 10657 C 1029 -2.55701 2.31757 0
M  V30 10658 C 1028.11 -2.40879 3.5861 0
M  V30 10659 C 1027.25 -3.67293 3.83757 0
M  V30 10660 C 1026.29 -3.47373 5.03982 0
M  V30 10661 N 1025.42 -4.65839 5.25298 0
M  V30 10662 H 1030.26 -0.879168 2.84736 0
M  V30 10663 H 1027.8 -0.422721 1.40895 0
M  V30 10664 H 1029.76 -3.33556 2.50592 0
M  V30 10665 H 1028.39 -2.87898 1.45995 0
M  V30 10666 H 1027.44 -1.54236 3.47729 0
M  V30 10667 H 1028.75 -2.22102 4.46623 0
M  V30 10668 H 1027.91 -4.53584 4.02922 0
M  V30 10669 H 1026.65 -3.89041 2.94107 0
M  V30 10670 H 1025.65 -2.59467 4.84723 0
M  V30 10671 H 1026.88 -3.27055 5.95157 0
M  V30 10672 H 1024.82 -4.8782 4.38598 0
M  V30 10673 H 1024.74 -4.4995 6.0752 0
M  V30 10674 H 1026.01 -5.53435 5.48936 0
M  V30 10675 N 1030.24 -1.51135 -0.446768 0
M  V30 10676 C 1031.17 -1.74709 -1.54916 0
M  V30 10677 C 1032.15 -0.596628 -1.59293 0
M  V30 10678 O 1033.33 -0.838356 -1.75172 0
M  V30 10679 C 1030.46 -1.86353 -2.9307 0
M  V30 10680 C 1029.42 -3.01725 -3.03556 0
M  V30 10681 C 1028.74 -2.9854 -4.43597 0
M  V30 10682 C 1030.04 -4.41848 -2.7851 0
M  V30 10683 H 1031.74 -2.67014 -1.3544 0
M  V30 10684 H 1029.28 -1.28489 -0.650131 0
M  V30 10685 H 1031.23 -2.01428 -3.70141 0
M  V30 10686 H 1029.96 -0.906887 -3.13756 0
M  V30 10687 H 1028.62 -2.86339 -2.28922 0
M  V30 10688 H 1028.27 -2.00673 -4.61237 0
M  V30 10689 H 1027.97 -3.76008 -4.51544 0
M  V30 10690 H 1029.49 -3.15696 -5.22655 0
M  V30 10691 H 1030.9 -4.57633 -3.45319 0
M  V30 10692 H 1029.3 -5.2095 -2.97877 0
M  V30 10693 H 1030.37 -4.52536 -1.74182 0
M  V30 10694 N 1031.71 0.701592 -1.41122 0
M  V30 10695 C 1032.62 1.84548 -1.44841 0
M  V30 10696 C 1033.64 1.70654 -0.339594 0
M  V30 10697 O 1034.82 1.92675 -0.586378 0
M  V30 10698 C 1031.88 3.20477 -1.3227 0
M  V30 10699 C 1030.94 3.46524 -2.53415 0
M  V30 10700 C 1030.17 4.75968 -2.41434 0
M  V30 10701 O 1030.4 5.52037 -1.43566 0
M  V30 10702 O 1029.33 5.02664 -3.31078 0
M  V30 10703 H 1033.16 1.84367 -2.41335 0
M  V30 10704 H 1030.74 0.853863 -1.22595 0
M  V30 10705 H 1032.62 4.01642 -1.2752 0
M  V30 10706 H 1031.3 3.21355 -0.388889 0
M  V30 10707 H 1030.21 2.65313 -2.63742 0
M  V30 10708 H 1031.54 3.50455 -3.45604 0
M  V30 10709 N 1033.19 1.2685 0.935242 0
M  V30 10710 C 1034.44 1.12745 1.68211 0
M  V30 10711 C 1034.77 -0.328128 1.91712 0
M  V30 10712 O 1034.02 -1.25701 1.49993 0
M  V30 10713 C 1034.32 1.8482 3.05903 0
M  V30 10714 C 1033.99 3.347 3.02137 0
M  V30 10715 C 1032.65 3.75583 3.00817 0
M  V30 10716 C 1035 4.30368 2.93995 0
M  V30 10717 C 1032.33 5.10511 2.89129 0
M  V30 10718 C 1034.68 5.65343 2.83848 0
M  V30 10719 C 1033.34 6.0553 2.80874 0
M  V30 10720 H 1032.61 0.412563 0.615527 0
M  V30 10721 H 1035.26 1.57366 1.09124 0
M  V30 10722 H 1033.57 1.32685 3.68649 0
M  V30 10723 H 1035.26 1.71341 3.62551 0
M  V30 10724 H 1031.85 3.02182 3.03947 0
M  V30 10725 H 1036.04 3.9976 2.94118 0
M  V30 10726 H 1031.29 5.40802 2.85208 0
M  V30 10727 H 1035.47 6.39151 2.76512 0
M  V30 10728 H 1033.09 7.10037 2.71573 0
M  V30 10729 N 1034.67 -1.14067 1.0875 0
M  V30 10730 C 1035.92 -1.85185 0.819317 0
M  V30 10731 C 1036.25 -1.8314 -0.654969 0
M  V30 10732 O 1035.5 -1.25974 -1.49763 0
M  V30 10733 C 1035.8 -3.33273 1.29089 0
M  V30 10734 C 1035.47 -3.55504 2.77359 0
M  V30 10735 C 1034.13 -3.61279 3.17853 0
M  V30 10736 C 1036.48 -3.64041 3.72992 0
M  V30 10737 C 1033.81 -3.73119 4.52768 0
M  V30 10738 C 1036.16 -3.77407 5.07687 0
M  V30 10739 C 1034.82 -3.81433 5.47782 0
M  V30 10740 H 1034.09 -0.67764 0.299809 0
M  V30 10741 H 1036.74 -1.34713 1.36106 0
M  V30 10742 H 1035.05 -3.86049 0.668811 0
M  V30 10743 H 1036.74 -3.86734 1.06009 0
M  V30 10744 H 1033.33 -3.51659 2.45019 0
M  V30 10745 H 1037.52 -3.58866 3.42825 0
M  V30 10746 H 1032.77 -3.74499 4.83281 0
M  V30 10747 H 1036.95 -3.82956 5.81651 0
M  V30 10748 H 1034.57 -3.9036 6.52321 0
M  V30 10749 N 1036.15 -0.873678 -1.31166 0
M  V30 10750 C 1037.38 -0.501043 -2.00742 0
M  V30 10751 C 1037.79 0.907477 -1.65561 0
M  V30 10752 O 1037.15 1.59507 -0.886771 0
M  V30 10753 C 1037.2 -0.652877 -3.55556 0
M  V30 10754 O 1036.92 -2.00593 -3.89479 0
M  V30 10755 C 1038.42 -0.281742 -4.42404 0
M  V30 10756 H 1035.64 -0.194829 -0.642092 0
M  V30 10757 H 1038.19 -1.17587 -1.67313 0
M  V30 10758 H 1036.34 -0.0255627 -3.87392 0
M  V30 10759 H 1036.75 -2.01638 -4.84193 0
M  V30 10760 H 1038.23 -0.43892 -5.50252 0
M  V30 10761 H 1038.71 0.779389 -4.32229 0
M  V30 10762 H 1039.31 -0.88491 -4.15992 0
M  V30 10763 N 1037.63 1.44308 -0.633487 0
M  V30 10764 C 1038.86 2.06085 -0.145852 0
M  V30 10765 C 1039.26 1.47432 1.18577 0
M  V30 10766 O 1038.61 0.592575 1.7388 0
M  V30 10767 C 1038.67 3.59477 0.0407848 0
M  V30 10768 C 1038.33 4.40607 -1.21304 0
M  V30 10769 C 1039.33 4.73937 -2.13728 0
M  V30 10770 C 1037.02 4.80943 -1.44911 0
M  V30 10771 C 1039.01 5.46489 -3.28068 0
M  V30 10772 C 1036.7 5.53243 -2.59548 0
M  V30 10773 C 1037.69 5.85936 -3.50953 0
M  V30 10774 O 1037.38 6.56764 -4.6359 0
M  V30 10775 H 1037.11 0.671484 -0.0780085 0
M  V30 10776 H 1039.67 1.86128 -0.868658 0
M  V30 10777 H 1037.9 3.77933 0.818761 0
M  V30 10778 H 1039.59 4.03013 0.483273 0
M  V30 10779 H 1040.35 4.43311 -1.96725 0
M  V30 10780 H 1036.23 4.54915 -0.746537 0
M  V30 10781 H 1039.78 5.71924 -3.99435 0
M  V30 10782 H 1035.67 5.83285 -2.76493 0
M  V30 10783 H 1036.44 6.75234 -4.62602 0
M  V30 10784 N 1039.1 0.374177 1.53094 0
M  V30 10785 C 1040.33 -0.215903 2.06273 0
M  V30 10786 C 1040.75 -1.40979 1.24526 0
M  V30 10787 O 1040.11 -1.79331 0.266462 0
M  V30 10788 C 1040.16 -0.579089 3.5592 0
M  V30 10789 O 1039.26 -1.67516 3.76845 0
M  V30 10790 H 1038.61 -0.0293981 0.663349 0
M  V30 10791 H 1041.14 0.537271 1.9742 0
M  V30 10792 H 1041.15 -0.847678 3.99097 0
M  V30 10793 H 1039.82 0.293843 4.14861 0
M  V30 10794 H 1038.4 -1.40146 3.45563 0
M  V30 10795 N 1040.58 -1.57259 0.103575 0
M  V30 10796 C 1042 -1.57581 -0.253062 0
M  V30 10797 C 1042.2 -1.11531 -1.67819 0
M  V30 10798 O 1041.25 -0.795632 -2.39637 0
M  V30 10799 C 1042.57 -3.00681 -0.0337753 0
M  V30 10800 C 1044.12 -3.12837 -0.10087 0
M  V30 10801 C 1044.59 -4.57911 0.0905295 0
M  V30 10802 N 1046.08 -4.63186 0.0359789 0
M  V30 10803 C 1046.82 -5.73179 0.159199 0
M  V30 10804 N 1046.31 -6.91976 0.337728 0
M  V30 10805 N 1048.11 -5.62011 0.0998662 0
M  V30 10806 H 1040.26 -1.85499 1.0346 0
M  V30 10807 H 1042.52 -0.856584 0.406163 0
M  V30 10808 H 1042.23 -3.38602 0.950858 0
M  V30 10809 H 1042.1 -3.69207 -0.772406 0
M  V30 10810 H 1044.49 -2.74783 -1.07601 0
M  V30 10811 H 1044.57 -2.46886 0.66939 0
M  V30 10812 H 1044.21 -4.9666 1.06258 0
M  V30 10813 H 1044.14 -5.21933 -0.699528 0
M  V30 10814 H 1046.63 -3.7777 -0.099121 0
M  V30 10815 H 1046.95 -7.71641 0.423032 0
M  V30 10816 H 1045.29 -6.93996 0.373504 0
M  V30 10817 H 1048.48 -4.68084 -0.0385356 0
M  V30 10818 H 1048.65 -6.47693 0.199342 0
M  V30 10819 N 1042.06 0.170153 -1.56679 0
M  V30 10820 C 1043.31 0.886592 -1.8206 0
M  V30 10821 C 1043.64 1.82194 -0.680839 0
M  V30 10822 O 1042.89 1.92866 0.331822 0
M  V30 10823 C 1043.19 1.71402 -3.13618 0
M  V30 10824 C 1042.86 0.927489 -4.41258 0
M  V30 10825 C 1041.52 0.710417 -4.75927 0
M  V30 10826 C 1043.87 0.375855 -5.19843 0
M  V30 10827 C 1041.2 -0.0693691 -5.86659 0
M  V30 10828 C 1043.55 -0.390849 -6.31391 0
M  V30 10829 C 1042.21 -0.61871 -6.64626 0
M  V30 10830 H 1041.48 0.324427 -0.666204 0
M  V30 10831 H 1044.13 0.151464 -1.909 0
M  V30 10832 H 1042.44 2.51858 -3.00125 0
M  V30 10833 H 1044.13 2.27141 -3.30466 0
M  V30 10834 H 1040.72 1.10672 -4.14065 0
M  V30 10835 H 1044.91 0.530897 -4.93452 0
M  V30 10836 H 1040.16 -0.255637 -6.10865 0
M  V30 10837 H 1044.34 -0.825544 -6.9149 0
M  V30 10838 H 1041.96 -1.22482 -7.50268 0
M  V30 10839 N 1043.54 1.5137 0.438746 0
M  V30 10840 C 1044.82 1.54508 1.19944 0
M  V30 10841 C 1045.2 0.308525 2.08833 0
M  V30 10842 O 1044.54 -0.706461 2.17305 0
M  V30 10843 C 1044.75 2.85833 2.00251 0
M  V30 10844 C 1046.1 3.37729 2.5734 0
M  V30 10845 O 1047.13 2.87374 2.10463 0
M  V30 10846 O 1045.98 4.25589 3.42836 0
M  V30 10847 H 1043.08 0.621132 0.546007 0
M  V30 10848 H 1045.62 1.63682 0.447931 0
M  V30 10849 H 1044.4 3.67291 1.34955 0
M  V30 10850 H 1044.02 2.79815 2.8247 0
M  V30 10851 N 1045.02 -0.694098 1.41492 0
M  V30 10852 C 1045.95 -1.81841 1.37873 0
M  V30 10853 C 1046.93 -1.60732 0.245772 0
M  V30 10854 O 1048.11 -1.83461 0.432917 0
M  V30 10855 C 1045.24 -3.18543 1.15099 0
M  V30 10856 C 1044.28 -3.5844 2.31133 0
M  V30 10857 S 1045.12 -3.63079 3.93617 0
M  V30 10858 C 1046.27 -5.02505 3.73148 0
M  V30 10859 H 1046.51 -1.84634 2.33018 0
M  V30 10860 H 1044.04 -0.862948 1.28033 0
M  V30 10861 H 1046 -3.9746 1.02646 0
M  V30 10862 H 1044.66 -3.13358 0.21572 0
M  V30 10863 H 1043.85 -4.57754 2.10896 0
M  V30 10864 H 1043.45 -2.86837 2.40002 0
M  V30 10865 H 1045.75 -5.90046 3.32945 0
M  V30 10866 H 1046.69 -5.27784 4.72069 0
M  V30 10867 H 1047.1 -4.74113 3.06394 0
M  V30 10868 N 1046.49 -1.27344 -0.928501 0
M  V30 10869 C 1047.4 -1.11812 -2.06241 0
M  V30 10870 C 1048.42 -0.048347 -1.73933 0
M  V30 10871 O 1049.6 -0.25467 -1.99783 0
M  V30 10872 C 1046.66 -0.766036 -3.38131 0
M  V30 10873 C 1045.72 -1.91659 -3.84142 0
M  V30 10874 C 1044.96 -1.58121 -5.09738 0
M  V30 10875 O 1045.18 -0.488742 -5.68302 0
M  V30 10876 O 1044.11 -2.42013 -5.51102 0
M  V30 10877 H 1047.94 -2.06967 -2.22258 0
M  V30 10878 H 1045.52 -1.06524 -1.04752 0
M  V30 10879 H 1047.41 -0.582982 -4.17348 0
M  V30 10880 H 1046.08 0.155998 -3.23324 0
M  V30 10881 H 1044.99 -2.1547 -3.05816 0
M  V30 10882 H 1046.32 -2.8188 -4.0349 0
M  V30 10883 N 1047.97 1.13488 -1.09353 0
M  V30 10884 C 1049.22 1.84748 -0.829126 0
M  V30 10885 C 1049.55 1.83485 0.645247 0
M  V30 10886 O 1048.8 1.26767 1.49093 0
M  V30 10887 C 1049.1 3.32584 -1.30854 0
M  V30 10888 C 1048.77 3.54028 -2.7924 0
M  V30 10889 C 1047.43 3.59588 -3.19765 0
M  V30 10890 C 1049.78 3.62058 -3.74918 0
M  V30 10891 C 1047.11 3.70712 -4.54741 0
M  V30 10892 C 1049.46 3.7471 -5.09682 0
M  V30 10893 C 1048.13 3.78523 -5.49797 0
M  V30 10894 H 1047.4 0.67604 -0.303399 0
M  V30 10895 H 1050.04 1.33989 -1.36818 0
M  V30 10896 H 1048.35 3.85689 -0.689275 0
M  V30 10897 H 1050.04 3.86166 -1.08059 0
M  V30 10898 H 1046.63 3.50354 -2.4688 0
M  V30 10899 H 1050.82 3.57043 -3.44723 0
M  V30 10900 H 1046.07 3.71931 -4.8526 0
M  V30 10901 H 1050.25 3.79866 -5.83674 0
M  V30 10902 H 1047.88 3.86895 -6.54382 0
M  V30 10903 N 1049.45 0.880621 1.30701 0
M  V30 10904 C 1050.68 0.511682 2.00473 0
M  V30 10905 C 1051.09 -0.898684 1.6604 0
M  V30 10906 O 1050.45 -1.59035 0.895218 0
M  V30 10907 C 1050.5 0.671723 3.55204 0
M  V30 10908 O 1050.22 2.02656 3.8841 0
M  V30 10909 C 1051.72 0.3052 4.42248 0
M  V30 10910 H 1048.94 0.198231 0.64105 0
M  V30 10911 H 1051.49 1.18472 1.66687 0
M  V30 10912 H 1049.64 0.0461066 3.87373 0
M  V30 10913 H 1050.06 2.04202 4.83117 0
M  V30 10914 H 1051.53 0.468095 5.50012 0
M  V30 10915 H 1052.01 -0.756456 4.32637 0
M  V30 10916 H 1052.61 0.906959 4.15517 0
M  V30 10917 N 1050.93 -1.4397 0.641131 0
M  V30 10918 C 1052.18 -2.01946 0.149629 0
M  V30 10919 C 1052.5 -1.50496 -1.23212 0
M  V30 10920 O 1051.76 -0.683453 -1.83378 0
M  V30 10921 C 1052.06 -3.5727 0.0963368 0
M  V30 10922 C 1051.72 -4.28016 1.4182 0
M  V30 10923 C 1050.39 -4.47059 1.78021 0
M  V30 10924 C 1052.74 -4.68183 2.29028 0
M  V30 10925 C 1050.07 -5.03532 3.01119 0
M  V30 10926 C 1052.42 -5.26019 3.51406 0
M  V30 10927 C 1051.08 -5.4328 3.87818 0
M  V30 10928 H 1050.35 -0.738974 0.0547531 0
M  V30 10929 H 1053 -1.72605 0.829436 0
M  V30 10930 H 1051.3 -3.86083 -0.666879 0
M  V30 10931 H 1053 -3.99871 -0.300635 0
M  V30 10932 H 1049.59 -4.13531 1.12651 0
M  V30 10933 H 1053.78 -4.53175 2.02353 0
M  V30 10934 H 1049.03 -5.15082 3.29395 0
M  V30 10935 H 1053.21 -5.56092 4.19208 0
M  V30 10936 H 1050.83 -5.86805 4.83284 0
M  V30 10937 N 1052.41 -0.382291 -1.52893 0
M  V30 10938 C 1053.65 0.202433 -2.01787 0
M  V30 10939 C 1053.99 1.47044 -1.26853 0
M  V30 10940 O 1053.26 1.91007 -0.366969 0
M  V30 10941 C 1053.54 0.477471 -3.5692 0
M  V30 10942 C 1053.4 -0.805339 -4.42532 0
M  V30 10943 C 1054.72 1.27106 -4.21346 0
M  V30 10944 H 1051.84 0.0720998 -0.733465 0
M  V30 10945 H 1054.48 -0.510478 -1.83014 0
M  V30 10946 H 1052.63 1.08478 -3.73048 0
M  V30 10947 H 1054.3 -1.4424 -4.3817 0
M  V30 10948 H 1052.54 -1.42216 -4.09826 0
M  V30 10949 H 1053.21 -0.567635 -5.49074 0
M  V30 10950 H 1055.69 0.757161 -4.09153 0
M  V30 10951 H 1054.57 1.43225 -5.29885 0
M  V30 10952 H 1054.83 2.28431 -3.78513 0
M  V30 10953 N 1053.89 1.57202 -0.111913 0
M  V30 10954 C 1055.13 1.95239 0.548607 0
M  V30 10955 C 1055.46 0.994897 1.6678 0
M  V30 10956 O 1054.74 0.0308603 1.94476 0
M  V30 10957 C 1055.02 3.43271 1.08798 0
M  V30 10958 C 1054.88 4.49792 -0.0273064 0
M  V30 10959 C 1056.19 3.92989 1.98109 0
M  V30 10960 H 1053.31 0.709919 0.197951 0
M  V30 10961 H 1055.96 1.89087 -0.186036 0
M  V30 10962 H 1054.11 3.48644 1.71404 0
M  V30 10963 H 1055.78 4.56521 -0.662302 0
M  V30 10964 H 1054.02 4.28254 -0.691426 0
M  V30 10965 H 1054.69 5.50612 0.391201 0
M  V30 10966 H 1057.17 3.89875 1.45385 0
M  V30 10967 H 1056.04 4.97101 2.32769 0
M  V30 10968 H 1056.3 3.33267 2.90492 0
M  V30 10969 N 1055.36 -0.161842 1.56767 0
M  V30 10970 C 1056.59 -0.892247 1.86672 0
M  V30 10971 C 1057.01 -1.75407 0.69841 0
M  V30 10972 O 1056.36 -1.7945 -0.332251 0
M  V30 10973 C 1056.41 -1.7612 3.15696 0
M  V30 10974 O 1056.14 -0.934131 4.28025 0
M  V30 10975 C 1057.64 -2.60046 3.59014 0
M  V30 10976 H 1054.86 -0.258747 0.619105 0
M  V30 10977 H 1057.4 -0.159089 2.0388 0
M  V30 10978 H 1055.56 -2.44759 3.00286 0
M  V30 10979 H 1055.97 -1.52931 5.01709 0
M  V30 10980 H 1057.44 -3.16618 4.5217 0
M  V30 10981 H 1057.92 -3.35374 2.83586 0
M  V30 10982 H 1058.53 -1.96724 3.77067 0
M  V30 10983 N 1056.84 -1.516 -0.430713 0
M  V30 10984 C 1057.8 -1.72794 -1.50582 0
M  V30 10985 C 1058.8 -0.597903 -1.49271 0
M  V30 10986 O 1059.99 -0.865535 -1.51176 0
M  V30 10987 C 1057.13 -1.79049 -2.90093 0
M  V30 10988 H 1058.32 -2.68751 -1.33091 0
M  V30 10989 H 1055.87 -1.4169 -0.659822 0
M  V30 10990 H 1056.61 -0.849309 -3.12981 0
M  V30 10991 H 1056.39 -2.61181 -2.92449 0
M  V30 10992 H 1057.88 -1.97262 -3.68072 0
M  V30 10993 N 1058.32 0.686584 -1.41858 0
M  V30 10994 C 1059.27 1.82167 -1.4463 0
M  V30 10995 C 1060.26 1.66286 -0.323313 0
M  V30 10996 O 1061.47 1.73038 -0.495773 0
M  V30 10997 H 1057.84 0.600454 -0.452724 0
M  V30 10998 H 1059.81 1.76947 -2.40276 0
M  V30 10999 C 1058.56 3.20248 -1.35412 0
M  V30 11000 H 1057.89 3.33089 -2.21115 0
M  V30 11001 H 1059.33 3.99723 -1.41413 0
M  V30 11002 C 1057.78 3.36832 -0.0674972 0
M  V30 11003 O 1058.31 3.91845 0.884325 0
M  V30 11004 N 1056.52 2.90598 0.011519 0
M  V30 11005 H 1056.07 2.46016 -0.76381 0
M  V30 11006 H 1056.03 3.02072 0.871774 0
M  V30 11007 N 1059.8 1.27835 0.921735 0
M  V30 11008 C 1061.04 1.14523 1.67005 0
M  V30 11009 C 1061.37 -0.307776 1.92049 0
M  V30 11010 O 1060.63 -1.24103 1.51317 0
M  V30 11011 C 1060.93 1.88054 3.03925 0
M  V30 11012 C 1060.59 3.37886 2.9857 0
M  V30 11013 C 1059.25 3.78752 2.96817 0
M  V30 11014 C 1061.61 4.33462 2.89414 0
M  V30 11015 C 1058.93 5.13549 2.83698 0
M  V30 11016 C 1061.29 5.68322 2.77836 0
M  V30 11017 C 1059.95 6.08475 2.74436 0
M  V30 11018 H 1059.22 0.419068 0.611116 0
M  V30 11019 H 1061.87 1.58515 1.07449 0
M  V30 11020 H 1060.17 1.36587 3.67221 0
M  V30 11021 H 1061.87 1.75176 3.60714 0
M  V30 11022 H 1058.46 3.05389 3.00725 0
M  V30 11023 H 1062.64 4.02857 2.89862 0
M  V30 11024 H 1057.9 5.43796 2.79456 0
M  V30 11025 H 1062.07 6.42048 2.69717 0
M  V30 11026 H 1059.7 7.12877 2.64027 0
M  V30 11027 N 1061.28 -1.12907 1.09954 0
M  V30 11028 C 1062.5 -1.88138 0.860905 0
M  V30 11029 C 1062.92 -1.79402 -0.588256 0
M  V30 11030 O 1062.28 -1.16442 -1.40526 0
M  V30 11031 C 1062.33 -3.37537 1.29425 0
M  V30 11032 O 1062.05 -3.46056 2.68658 0
M  V30 11033 C 1063.55 -4.29721 1.08879 0
M  V30 11034 H 1060.77 -0.595437 0.309347 0
M  V30 11035 H 1063.31 -1.42894 1.46292 0
M  V30 11036 H 1061.47 -3.80344 0.736009 0
M  V30 11037 H 1061.88 -4.38969 2.87065 0
M  V30 11038 H 1063.36 -5.32854 1.4412 0
M  V30 11039 H 1063.83 -4.39192 0.0270053 0
M  V30 11040 H 1064.44 -3.9269 1.63325 0
M  V30 11041 N 1062.75 -0.88754 -1.30232 0
M  V30 11042 C 1063.7 -0.345765 -2.30016 0
M  V30 11043 C 1064.7 0.5486 -1.60271 0
M  V30 11044 O 1065.9 0.43275 -1.74721 0
M  V30 11045 H 1062.28 -0.0931623 -0.746207 0
M  V30 11046 H 1064.25 -1.20095 -2.73166 0
M  V30 11047 C 1063 0.422435 -3.45124 0
M  V30 11048 H 1062.32 -0.256516 -3.98976 0
M  V30 11049 H 1063.76 0.766572 -4.17013 0
M  V30 11050 C 1062.22 1.62049 -2.95367 0
M  V30 11051 O 1062.75 2.71985 -2.95613 0
M  V30 11052 N 1060.95 1.45852 -2.51347 0
M  V30 11053 H 1060.5 0.564158 -2.51346 0
M  V30 11054 H 1060.46 2.26148 -2.18413 0
M  V30 11055 N 1064.23 1.43628 -0.648757 0
M  V30 11056 C 1065.2 2.29172 0.0360713 0
M  V30 11057 C 1066.2 1.41974 0.754976 0
M  V30 11058 O 1067.39 1.63654 0.5969 0
M  V30 11059 C 1064.52 3.23942 1.0618 0
M  V30 11060 H 1065.71 2.91214 -0.716544 0
M  V30 11061 H 1063.26 1.50833 -0.409759 0
M  V30 11062 H 1064 2.66786 1.8438 0
M  V30 11063 H 1063.78 3.88223 0.550016 0
M  V30 11064 H 1065.27 3.8816 1.54019 0
M  V30 11065 N 1065.71 0.390394 1.52688 0
M  V30 11066 C 1066.66 -0.4591 2.28024 0
M  V30 11067 C 1067.65 -1.06212 1.31967 0
M  V30 11068 O 1068.86 -1.00247 1.49501 0
M  V30 11069 H 1065.23 -0.16681 0.733266 0
M  V30 11070 H 1067.2 0.197747 2.97744 0
M  V30 11071 C 1065.95 -1.5737 3.10048 0
M  V30 11072 H 1065.28 -1.11901 3.83821 0
M  V30 11073 H 1066.72 -2.1423 3.65898 0
M  V30 11074 C 1065.18 -2.53036 2.22429 0
M  V30 11075 O 1065.71 -3.5647 1.85181 0
M  V30 11076 N 1063.91 -2.22802 1.86567 0
M  V30 11077 H 1063.46 -1.38723 2.17057 0
M  V30 11078 H 1063.42 -2.87061 1.28233 0
M  V30 11079 N 1067.19 -1.57141 0.120249 0
M  V30 11080 C 1068.14 -2.16638 -0.846809 0
M  V30 11081 C 1069.13 -1.11594 -1.27449 0
M  V30 11082 O 1070.34 -1.29895 -1.24608 0
M  V30 11083 H 1066.71 -0.693331 -0.291197 0
M  V30 11084 H 1068.68 -2.96673 -0.320536 0
M  V30 11085 C 1067.43 -2.78134 -2.08655 0
M  V30 11086 H 1066.75 -3.58662 -1.76639 0
M  V30 11087 H 1068.19 -3.23301 -2.74322 0
M  V30 11088 C 1066.65 -1.7528 -2.87713 0
M  V30 11089 O 1067.18 -1.20693 -3.8314 0
M  V30 11090 N 1065.39 -1.45192 -2.51729 0
M  V30 11091 H 1064.94 -1.89773 -1.74195 0
M  V30 11092 H 1064.89 -0.766166 -3.04922 0
M  V30 11093 N 1068.67 0.153526 -1.5685 0
M  V30 11094 C 1069.91 0.865519 -1.82629 0
M  V30 11095 C 1070.24 1.81999 -0.700105 0
M  V30 11096 O 1069.51 1.93907 0.278744 0
M  V30 11097 H 1068.09 0.32261 -0.673745 0
M  V30 11098 H 1070.75 0.149088 -1.94329 0
M  V30 11099 H 1069.84 1.43171 -2.77324 0
M  V30 11100 N 1070.14 1.51827 0.422667 0
M  V30 11101 C 1071.09 1.7058 1.51282 0
M  V30 11102 C 1072.08 0.5597 1.50851 0
M  V30 11103 O 1073.27 0.816223 1.57057 0
M  V30 11104 C 1070.4 1.84759 2.89342 0
M  V30 11105 C 1069.49 3.05199 2.94473 0
M  V30 11106 N 1069.88 4.28135 2.69322 0
M  V30 11107 C 1068.17 3.04755 3.25638 0
M  V30 11108 C 1068.88 5.09507 2.80674 0
M  V30 11109 N 1067.85 4.44464 3.12974 0
M  V30 11110 H 1071.65 2.63283 1.30611 0
M  V30 11111 H 1069.17 1.49674 0.630191 0
M  V30 11112 H 1071.16 1.96308 3.67789 0
M  V30 11113 H 1069.82 0.932478 3.11022 0
M  V30 11114 H 1070.84 4.56835 2.43972 0
M  V30 11115 H 1067.51 2.2293 3.52999 0
M  V30 11116 H 1068.9 6.17409 2.65058 0
M  V30 11117 N 1071.62 -0.679052 1.4222 0
M  V30 11118 C 1072.59 -1.77448 1.45069 0
M  V30 11119 C 1073.59 -1.57189 0.338882 0
M  V30 11120 O 1074.78 -1.63559 0.599519 0
M  V30 11121 C 1071.91 -3.1603 1.27819 0
M  V30 11122 H 1073.1 -1.7631 2.426 0
M  V30 11123 H 1070.65 -0.888277 1.28605 0
M  V30 11124 H 1071.39 -3.22796 0.311946 0
M  V30 11125 H 1071.17 -3.32138 2.08391 0
M  V30 11126 H 1072.66 -3.9596 1.32686 0
M  V30 11127 N 1073.1 -1.28322 -0.914942 0
M  V30 11128 C 1074.03 -1.14681 -2.03398 0
M  V30 11129 C 1075.01 -0.0448939 -1.70041 0
M  V30 11130 O 1076.2 -0.221672 -1.92931 0
M  V30 11131 C 1073.33 -0.806623 -3.37803 0
M  V30 11132 C 1072.28 -1.86318 -3.85318 0
M  V30 11133 C 1071.61 -1.37665 -5.16674 0
M  V30 11134 C 1072.91 -3.26953 -4.07307 0
M  V30 11135 H 1074.6 -2.08293 -2.15068 0
M  V30 11136 H 1072.15 -1.00284 -1.03339 0
M  V30 11137 H 1074.1 -0.69796 -4.1558 0
M  V30 11138 H 1072.82 0.165203 -3.26182 0
M  V30 11139 H 1071.48 -1.96096 -3.09745 0
M  V30 11140 H 1071.13 -0.393927 -5.01455 0
M  V30 11141 H 1070.83 -2.08313 -5.49435 0
M  V30 11142 H 1072.35 -1.28119 -5.97007 0
M  V30 11143 H 1073.77 -3.20102 -4.75613 0
M  V30 11144 H 1072.17 -3.95424 -4.51398 0
M  V30 11145 H 1073.24 -3.71059 -3.12159 0
M  V30 11146 N 1074.58 1.12322 -1.10551 0
M  V30 11147 C 1075.53 2.20166 -0.750317 0
M  V30 11148 C 1076.52 1.67484 0.254066 0
M  V30 11149 O 1077.73 1.79637 0.114309 0
M  V30 11150 H 1074.1 0.717642 -0.22471 0
M  V30 11151 H 1076.07 2.47378 -1.66873 0
M  V30 11152 C 1074.82 3.47126 -0.199651 0
M  V30 11153 H 1074.14 3.88011 -0.963735 0
M  V30 11154 H 1075.58 4.23999 0.0108033 0
M  V30 11155 C 1074.04 3.19526 1.06792 0
M  V30 11156 O 1074.57 3.39368 2.14923 0
M  V30 11157 N 1072.78 2.73324 0.987032 0
M  V30 11158 H 1072.33 2.57378 0.106997 0
M  V30 11159 H 1072.28 2.55234 1.83584 0
M  V30 11160 N 1076.06 0.894434 1.2976 0
M  V30 11161 C 1076.99 0.325525 2.26877 0
M  V30 11162 C 1078 -0.525218 1.54095 0
M  V30 11163 O 1079.19 -0.343231 1.75169 0
M  V30 11164 C 1076.29 -0.554952 3.34325 0
M  V30 11165 C 1075.46 0.268868 4.36573 0
M  V30 11166 C 1074.52 -0.543601 5.23385 0
M  V30 11167 O 1073.55 0.0370454 5.69188 0
M  V30 11168 N 1074.75 -1.85079 5.50205 0
M  V30 11169 H 1077.52 1.16021 2.76332 0
M  V30 11170 H 1075.08 0.758382 1.43039 0
M  V30 11171 H 1077.07 -1.10476 3.89329 0
M  V30 11172 H 1075.64 -1.29031 2.84727 0
M  V30 11173 H 1074.86 1.0001 3.81302 0
M  V30 11174 H 1076.15 0.833248 5.01931 0
M  V30 11175 H 1075.54 -2.34533 5.14792 0
M  V30 11176 H 1074.1 -2.34784 6.08046 0
M  V30 11177 N 1077.53 -1.43282 0.656365 0
M  V30 11178 C 1078.78 -2.02075 0.171293 0
M  V30 11179 C 1079.11 -1.51682 -1.21269 0
M  V30 11180 O 1078.39 -0.711243 -1.81029 0
M  V30 11181 C 1078.67 -3.59621 0.185602 0
M  V30 11182 C 1078.52 -4.20239 1.60373 0
M  V30 11183 C 1079.84 -4.37515 -0.476289 0
M  V30 11184 H 1076.96 -0.73424 0.0637185 0
M  V30 11185 H 1079.6 -1.70539 0.837648 0
M  V30 11186 H 1077.75 -3.86619 -0.381804 0
M  V30 11187 H 1079.43 -4.0426 2.22197 0
M  V30 11188 H 1077.67 -3.76769 2.15006 0
M  V30 11189 H 1078.34 -5.29333 1.56557 0
M  V30 11190 H 1080.82 -4.16099 0.00651073 0
M  V30 11191 H 1079.69 -5.47169 -0.435562 0
M  V30 11192 H 1079.95 -4.14003 -1.55093 0
M  V30 11193 N 1079.01 -0.398486 -1.52479 0
M  V30 11194 C 1080.24 0.180295 -2.05812 0
M  V30 11195 C 1080.65 1.40301 -1.26934 0
M  V30 11196 O 1079.99 1.81039 -0.311544 0
M  V30 11197 C 1080.06 0.60601 -3.54355 0
M  V30 11198 C 1079.72 -0.504508 -4.54207 0
M  V30 11199 C 1080.72 -1.36478 -5.01667 0
M  V30 11200 C 1078.4 -0.674161 -4.97755 0
M  V30 11201 C 1080.4 -2.37975 -5.91309 0
M  V30 11202 C 1078.08 -1.69246 -5.87196 0
M  V30 11203 C 1079.08 -2.54367 -6.33866 0
M  V30 11204 O 1078.77 -3.54454 -7.21538 0
M  V30 11205 H 1078.5 0.0286396 -0.675393 0
M  V30 11206 H 1081.06 -0.564912 -1.97479 0
M  V30 11207 H 1079.29 1.40334 -3.60338 0
M  V30 11208 H 1080.97 1.1115 -3.90385 0
M  V30 11209 H 1081.74 -1.24506 -4.68746 0
M  V30 11210 H 1077.62 -0.0213029 -4.60995 0
M  V30 11211 H 1081.16 -3.0445 -6.27659 0
M  V30 11212 H 1077.06 -1.81252 -6.1953 0
M  V30 11213 H 1077.83 -3.50571 -7.39623 0
M  V30 11214 N 1080.49 1.57075 -0.12858 0
M  V30 11215 C 1081.42 2.12907 0.848708 0
M  V30 11216 C 1082.44 1.07406 1.22343 0
M  V30 11217 O 1083.63 1.34746 1.17071 0
M  V30 11218 C 1080.73 2.62167 2.1476 0
M  V30 11219 C 1079.9 3.91871 1.94309 0
M  V30 11220 C 1078.96 4.26629 3.08016 0
M  V30 11221 O 1077.98 4.9528 2.80511 0
M  V30 11222 N 1079.19 3.84721 4.34706 0
M  V30 11223 H 1081.95 2.97387 0.371636 0
M  V30 11224 H 1079.51 1.61805 0.0555574 0
M  V30 11225 H 1081.5 2.82444 2.89841 0
M  V30 11226 H 1080.07 1.82514 2.53786 0
M  V30 11227 H 1079.29 3.80406 1.03367 0
M  V30 11228 H 1080.58 4.76662 1.77962 0
M  V30 11229 H 1079.98 3.2937 4.59926 0
M  V30 11230 H 1078.54 4.10087 5.06628 0
M  V30 11231 N 1081.97 -0.145205 1.5693 0
M  V30 11232 C 1083.22 -0.855955 1.82637 0
M  V30 11233 C 1083.53 -1.82255 0.710109 0
M  V30 11234 O 1084.74 -2.57758 0.852837 0
M  V30 11235 C 1083.19 -1.57278 3.23715 0
M  V30 11236 C 1082.8 -0.648507 4.43281 0
M  V30 11237 C 1084.55 -2.27021 3.58695 0
M  V30 11238 C 1082.45 -1.36706 5.75383 0
M  V30 11239 H 1081.38 -0.323385 0.68113 0
M  V30 11240 H 1084.03 -0.10869 1.83178 0
M  V30 11241 H 1082.42 -2.36574 3.17567 0
M  V30 11242 H 1083.59 0.109355 4.6067 0
M  V30 11243 H 1081.9 -0.0594029 4.16358 0
M  V30 11244 H 1084.5 -2.81423 4.54648 0
M  V30 11245 H 1084.84 -3.03598 2.8484 0
M  V30 11246 H 1085.38 -1.54642 3.66512 0
M  V30 11247 H 1082.12 -0.6431 6.52338 0
M  V30 11248 H 1081.64 -2.09759 5.61926 0
M  V30 11249 H 1083.32 -1.90748 6.18243 0
M  V30 11250 N 1083.45 -1.52049 -0.414609 0
M  V30 11251 C 1084.38 -1.69712 -1.52555 0
M  V30 11252 C 1085.36 -0.544681 -1.53206 0
M  V30 11253 O 1086.54 -0.771358 -1.71995 0
M  V30 11254 C 1083.67 -1.73145 -2.91099 0
M  V30 11255 C 1082.72 -2.94624 -3.08382 0
M  V30 11256 S 1083.55 -4.55062 -2.82274 0
M  V30 11257 C 1084.7 -4.61274 -4.23057 0
M  V30 11258 H 1084.94 -2.63675 -1.37342 0
M  V30 11259 H 1082.47 -1.42018 -0.605824 0
M  V30 11260 H 1084.43 -1.75808 -3.70947 0
M  V30 11261 H 1083.09 -0.803198 -3.03657 0
M  V30 11262 H 1082.28 -2.93492 -4.0973 0
M  V30 11263 H 1081.88 -2.8982 -2.36391 0
M  V30 11264 H 1084.18 -4.38313 -5.16612 0
M  V30 11265 H 1085.12 -5.63188 -4.29214 0
M  V30 11266 H 1085.53 -3.90361 -4.07773 0
M  V30 11267 N 1084.93 0.6715 -1.42579 0
M  V30 11268 C 1086.16 1.4576 -1.46416 0
M  V30 11269 C 1086.56 1.89051 -0.0749843 0
M  V30 11270 O 1085.91 1.58927 0.921296 0
M  V30 11271 C 1085.97 2.7365 -2.33144 0
M  V30 11272 C 1085.63 2.52414 -3.80968 0
M  V30 11273 C 1086.63 2.16804 -4.72538 0
M  V30 11274 C 1084.31 2.67306 -4.25268 0
M  V30 11275 C 1086.31 1.96358 -6.06401 0
M  V30 11276 C 1084 2.46475 -5.5919 0
M  V30 11277 C 1084.99 2.11055 -6.49573 0
M  V30 11278 O 1084.68 1.90428 -7.8102 0
M  V30 11279 H 1084.41 0.454896 -0.500045 0
M  V30 11280 H 1086.97 0.832198 -1.87786 0
M  V30 11281 H 1085.2 3.38684 -1.86629 0
M  V30 11282 H 1086.89 3.35543 -2.28398 0
M  V30 11283 H 1087.65 2.04891 -4.39596 0
M  V30 11284 H 1083.53 2.93854 -3.55206 0
M  V30 11285 H 1087.08 1.68634 -6.76911 0
M  V30 11286 H 1082.97 2.57985 -5.91704 0
M  V30 11287 H 1083.74 2.05 -7.92412 0
M  V30 11288 N 1086.4 1.28806 0.908124 0
M  V30 11289 C 1087.65 1.15663 1.65242 0
M  V30 11290 C 1087.97 -0.292883 1.93395 0
M  V30 11291 O 1089.17 -0.545509 2.65963 0
M  V30 11292 C 1087.63 2.02233 2.97707 0
M  V30 11293 C 1087.24 3.51958 2.77181 0
M  V30 11294 C 1088.98 1.97792 3.75604 0
M  V30 11295 C 1086.89 4.3066 4.05322 0
M  V30 11296 H 1085.82 0.42928 0.619867 0
M  V30 11297 H 1088.47 1.5338 1.00731 0
M  V30 11298 H 1086.85 1.57377 3.63385 0
M  V30 11299 H 1088.02 4.0481 2.20149 0
M  V30 11300 H 1086.34 3.57983 2.12691 0
M  V30 11301 H 1088.94 2.53858 4.70596 0
M  V30 11302 H 1089.28 0.955956 4.05175 0
M  V30 11303 H 1089.81 2.40648 3.16755 0
M  V30 11304 H 1086.55 5.3346 3.8092 0
M  V30 11305 H 1086.07 3.8258 4.61944 0
M  V30 11306 H 1087.75 4.40878 4.73535 0
M  V30 11307 N 1087.88 -1.11734 1.11145 0
M  V30 11308 C 1089.29 -1.64928 0.874959 0
M  V30 11309 C 1089.64 -1.87012 -0.593375 0
M  V30 11310 O 1088.77 -1.60206 -1.45475 0
M  V30 11311 C 1089.36 -2.99608 1.58178 0
M  V30 11312 C 1087.92 -3.49723 1.39179 0
M  V30 11313 C 1087.07 -2.24595 1.62642 0
M  V30 11314 H 1090.02 -0.954154 1.26813 0
M  V30 11315 H 1090.04 -3.66434 1.02501 0
M  V30 11316 H 1089.55 -2.83504 2.65042 0
M  V30 11317 H 1087.65 -3.70998 0.345111 0
M  V30 11318 H 1087.77 -4.28711 2.13878 0
M  V30 11319 H 1086.13 -2.32067 1.04961 0
M  V30 11320 H 1086.91 -2.11036 2.70774 0
M  V30 11321 N 1089.36 -0.901303 -1.29284 0
M  V30 11322 C 1090.77 -0.576317 -1.77582 0
M  V30 11323 C 1091.12 0.908078 -1.73921 0
M  V30 11324 O 1090.25 1.71006 -1.32611 0
M  V30 11325 C 1090.84 -1.03938 -3.22463 0
M  V30 11326 C 1089.4 -0.765533 -3.68533 0
M  V30 11327 C 1088.55 -1.21318 -2.49354 0
M  V30 11328 H 1091.5 -1.08386 -1.15923 0
M  V30 11329 H 1091.52 -0.375367 -3.78644 0
M  V30 11330 H 1091.03 -2.11977 -3.25096 0
M  V30 11331 H 1089.13 0.302176 -3.71373 0
M  V30 11332 H 1089.25 -1.36454 -4.59257 0
M  V30 11333 H 1087.61 -0.632141 -2.46731 0
M  V30 11334 H 1088.39 -2.30165 -2.54714 0
M  V30 11335 N 1090.84 1.42931 -0.663954 0
M  V30 11336 C 1092.09 2.01284 -0.181379 0
M  V30 11337 C 1092.41 1.52708 1.21265 0
M  V30 11338 O 1091.68 0.744181 1.81215 0
M  V30 11339 H 1090.26 0.744248 -0.0640646 0
M  V30 11340 H 1092.92 1.74997 -0.858031 0
M  V30 11341 H 1092.01 3.11613 -0.174273 0
M  V30 11342 N 1092.32 0.406567 1.52266 0
M  V30 11343 C 1093.28 -0.408251 2.25535 0
M  V30 11344 C 1094.28 -0.975795 1.27808 0
M  V30 11345 O 1095.47 -0.855077 1.5177 0
M  V30 11346 C 1092.6 -1.57443 3.02365 0
M  V30 11347 H 1093.79 0.233459 2.9899 0
M  V30 11348 H 1091.35 0.159032 1.55489 0
M  V30 11349 H 1092.08 -2.25308 2.33252 0
M  V30 11350 H 1091.87 -1.17399 3.74112 0
M  V30 11351 H 1093.36 -2.15088 3.57948 0
M  V30 11352 N 1093.79 -1.57004 0.136909 0
M  V30 11353 C 1095.21 -1.82675 -0.385577 0
M  V30 11354 C 1095.56 -1.05508 -1.65416 0
M  V30 11355 O 1094.68 -0.297207 -2.14349 0
M  V30 11356 C 1095.28 -3.31356 -0.706326 0
M  V30 11357 C 1093.84 -3.57644 -1.17337 0
M  V30 11358 C 1092.98 -2.7664 -0.191239 0
M  V30 11359 H 1095.93 -1.54522 0.36177 0
M  V30 11360 H 1095.95 -3.4696 -1.56201 0
M  V30 11361 H 1095.47 -3.87492 0.217147 0
M  V30 11362 H 1093.57 -3.06883 -2.11313 0
M  V30 11363 H 1093.68 -4.66152 -1.10632 0
M  V30 11364 H 1092.04 -2.45403 -0.681867 0
M  V30 11365 H 1092.83 -3.35543 0.725647 0
M  V30 11366 N 1095.27 0.136881 -1.57004 0
M  V30 11367 C 1096.5 0.862436 -1.88068 0
M  V30 11368 C 1096.92 1.74274 -0.726227 0
M  V30 11369 O 1096.27 1.79956 0.30366 0
M  V30 11370 C 1096.32 1.71076 -3.18458 0
M  V30 11371 O 1096.04 0.865918 -4.29457 0
M  V30 11372 C 1097.55 2.54302 -3.63105 0
M  V30 11373 H 1094.77 0.248865 -0.623143 0
M  V30 11374 H 1097.31 0.126633 -2.04108 0
M  V30 11375 H 1095.46 2.39951 -3.04142 0
M  V30 11376 H 1095.88 1.4493 -5.04079 0
M  V30 11377 H 1097.35 3.09384 -4.57149 0
M  V30 11378 H 1097.83 3.3082 -2.88886 0
M  V30 11379 H 1098.44 1.907 -3.80149 0
M  V30 11380 N 1096.75 1.52266 0.40654 0
M  V30 11381 C 1098.16 1.58587 0.985241 0
M  V30 11382 C 1098.51 0.427955 1.91476 0
M  V30 11383 O 1097.64 -0.451341 2.11641 0
M  V30 11384 C 1098.23 2.87426 1.79365 0
M  V30 11385 C 1096.79 2.96217 2.32233 0
M  V30 11386 C 1095.94 2.53548 1.12288 0
M  V30 11387 H 1098.89 1.57598 0.186685 0
M  V30 11388 H 1098.91 2.72925 2.65127 0
M  V30 11389 H 1098.42 3.71682 1.11687 0
M  V30 11390 H 1096.52 2.1646 3.03275 0
M  V30 11391 H 1096.64 4.00511 2.62922 0
M  V30 11392 H 1095 2.07457 1.47763 0
M  V30 11393 H 1095.78 3.40181 0.461731 0
M  V30 11394 N 1098.23 -0.663929 1.42933 0
M  V30 11395 C 1099.18 -1.77717 1.47259 0
M  V30 11396 C 1100.15 -1.62922 0.323387 0
M  V30 11397 O 1101.33 -1.83319 0.529021 0
M  V30 11398 C 1098.47 -3.15814 1.39124 0
M  V30 11399 C 1097.58 -3.4182 2.64165 0
M  V30 11400 C 1096.72 -4.69705 2.48094 0
M  V30 11401 C 1095.76 -4.88781 3.68456 0
M  V30 11402 N 1094.89 -6.07915 3.51261 0
M  V30 11403 H 1099.73 -1.73355 2.42388 0
M  V30 11404 H 1097.27 -0.846121 1.2033 0
M  V30 11405 H 1099.23 -3.95633 1.32403 0
M  V30 11406 H 1097.86 -3.19274 0.475829 0
M  V30 11407 H 1096.91 -2.56176 2.81208 0
M  V30 11408 H 1098.22 -3.51805 3.53602 0
M  V30 11409 H 1097.38 -5.57632 2.39021 0
M  V30 11410 H 1096.12 -4.62022 1.56164 0
M  V30 11411 H 1095.12 -3.99292 3.7795 0
M  V30 11412 H 1096.35 -4.98301 4.61381 0
M  V30 11413 H 1094.29 -6.01384 2.62057 0
M  V30 11414 H 1094.21 -6.1881 4.34293 0
M  V30 11415 H 1095.48 -6.98492 3.4602 0
M  V30 11416 N 1099.71 -1.29285 -0.901281 0
M  V30 11417 C 1100.93 -1.20169 -1.69039 0
M  V30 11418 C 1101.36 0.234509 -1.86632 0
M  V30 11419 O 1100.71 1.16935 -1.38549 0
M  V30 11420 C 1100.76 -1.91852 -3.05328 0
M  V30 11421 O 1099.87 -1.23448 -3.9349 0
M  V30 11422 H 1099.21 -0.416486 -0.517141 0
M  V30 11423 H 1101.74 -1.70826 -1.12603 0
M  V30 11424 H 1101.75 -2.00244 -3.5548 0
M  V30 11425 H 1100.42 -2.96313 -2.91841 0
M  V30 11426 H 1099 -1.23303 -3.51924 0
M  V30 11427 N 1101.18 1.11143 -1.11736 0
M  V30 11428 C 1102.43 1.8341 -0.879329 0
M  V30 11429 C 1102.79 1.83174 0.588657 0
M  V30 11430 O 1102.08 1.27609 1.42922 0
M  V30 11431 C 1102.27 3.29733 -1.3788 0
M  V30 11432 C 1102.1 3.44222 -2.89381 0
M  V30 11433 C 1100.87 3.57065 -3.57537 0
M  V30 11434 C 1103.07 3.38246 -3.8742 0
M  V30 11435 N 1101.05 3.60056 -4.97225 0
M  V30 11436 C 1102.42 3.47894 -5.13196 0
M  V30 11437 C 1104.48 3.21797 -3.79935 0
M  V30 11438 C 1103.18 3.4279 -6.32367 0
M  V30 11439 C 1105.21 3.18011 -4.98621 0
M  V30 11440 C 1104.57 3.28234 -6.23251 0
M  V30 11441 H 1100.67 0.686248 -0.374951 0
M  V30 11442 H 1103.25 1.32962 -1.42229 0
M  V30 11443 H 1101.42 3.78691 -0.86298 0
M  V30 11444 H 1103.15 3.89924 -1.08359 0
M  V30 11445 H 1099.91 3.59759 -3.08011 0
M  V30 11446 H 1100.33 3.65181 -5.70063 0
M  V30 11447 H 1104.98 3.12777 -2.84482 0
M  V30 11448 H 1102.69 3.50577 -7.28094 0
M  V30 11449 H 1106.28 3.06446 -4.94552 0
M  V30 11450 H 1105.16 3.25297 -7.13549 0
M  V30 11451 N 1102.66 0.908147 1.28804 0
M  V30 11452 C 1103.94 0.457561 1.90173 0
M  V30 11453 C 1104.32 -1.06333 1.82364 0
M  V30 11454 O 1103.67 -1.90892 1.25589 0
M  V30 11455 C 1103.88 0.981624 3.34911 0
M  V30 11456 C 1105.23 1.03037 4.11908 0
M  V30 11457 O 1106.25 0.929878 3.43848 0
M  V30 11458 O 1105.11 1.18257 5.33552 0
M  V30 11459 H 1102.2 0.144081 0.814352 0
M  V30 11460 H 1104.75 0.998565 1.37211 0
M  V30 11461 H 1103.52 2.02561 3.34791 0
M  V30 11462 H 1103.14 0.421122 3.95364 0
M  V30 11463 N 1104.14 -1.42577 0.671525 0
M  V30 11464 C 1105.42 -1.95222 0.121529 0
M  V30 11465 C 1105.8 -1.61209 -1.36289 0
M  V30 11466 O 1105.15 -0.906561 -2.09747 0
M  V30 11467 C 1105.36 -3.46846 0.387189 0
M  V30 11468 C 1106.7 -4.23525 0.301938 0
M  V30 11469 O 1107.73 -3.54753 0.320755 0
M  V30 11470 O 1106.59 -5.45967 0.241317 0
M  V30 11471 H 1103.68 -0.826999 0.000968615 0
M  V30 11472 H 1106.23 -1.52422 0.746029 0
M  V30 11473 H 1105 -3.64795 1.41563 0
M  V30 11474 H 1104.62 -3.96686 -0.26948 0
M  V30 11475 N 1105.62 -0.414636 -1.52048 0
M  V30 11476 C 1106.85 0.158456 -2.05991 0
M  V30 11477 C 1107.26 1.38947 -1.28415 0
M  V30 11478 O 1106.6 1.80698 -0.330728 0
M  V30 11479 C 1106.66 0.568392 -3.54978 0
M  V30 11480 C 1106.33 -0.552654 -4.53646 0
M  V30 11481 C 1107.32 -1.41791 -5.00191 0
M  V30 11482 C 1105.01 -0.726917 -4.97012 0
M  V30 11483 C 1107 -2.44234 -5.88752 0
M  V30 11484 C 1104.69 -1.75464 -5.85368 0
M  V30 11485 C 1105.69 -2.61075 -6.31133 0
M  V30 11486 O 1105.37 -3.62087 -7.17738 0
M  V30 11487 H 1105.11 0.0214746 -0.675659 0
M  V30 11488 H 1107.66 -0.585825 -1.96869 0
M  V30 11489 H 1105.89 1.36504 -3.61806 0
M  V30 11490 H 1107.58 1.07003 -3.91542 0
M  V30 11491 H 1108.35 -1.29471 -4.67399 0
M  V30 11492 H 1104.22 -0.0701964 -4.60947 0
M  V30 11493 H 1107.77 -3.1109 -6.24395 0
M  V30 11494 H 1103.67 -1.87813 -6.17573 0
M  V30 11495 H 1104.43 -3.58396 -7.35863 0
M  V30 11496 N 1107.1 1.56929 -0.145233 0
M  V30 11497 C 1108.32 2.00431 0.513314 0
M  V30 11498 C 1108.74 1.0253 1.58534 0
M  V30 11499 O 1108.1 0.0220459 1.82487 0
M  V30 11500 C 1108.15 3.43856 1.11557 0
M  V30 11501 O 1107.87 4.38015 0.0863707 0
M  V30 11502 C 1109.37 4.02627 1.8549 0
M  V30 11503 H 1106.59 0.657529 0.133778 0
M  V30 11504 H 1109.13 2.03095 -0.239296 0
M  V30 11505 H 1107.29 3.4205 1.81881 0
M  V30 11506 H 1107.7 5.21842 0.527363 0
M  V30 11507 H 1109.18 5.04985 2.22923 0
M  V30 11508 H 1109.65 3.43239 2.74014 0
M  V30 11509 H 1110.26 4.08058 1.19869 0
M  V30 11510 N 1108.58 -0.128553 1.57075 0
M  V30 11511 C 1109.82 -0.834322 1.85501 0
M  V30 11512 C 1110.18 -1.77943 0.731725 0
M  V30 11513 O 1109.47 -1.89702 -0.269003 0
M  V30 11514 C 1109.66 -1.63027 3.18052 0
M  V30 11515 C 1109.49 -0.763737 4.43167 0
M  V30 11516 C 1108.26 -0.42224 5.03533 0
M  V30 11517 C 1110.46 -0.0856773 5.14229 0
M  V30 11518 N 1108.44 0.455954 6.12204 0
M  V30 11519 C 1109.81 0.651902 6.16563 0
M  V30 11520 C 1111.87 -0.00826404 4.97899 0
M  V30 11521 C 1110.57 1.45961 7.04335 0
M  V30 11522 C 1112.6 0.786239 5.8615 0
M  V30 11523 C 1111.96 1.51204 6.8798 0
M  V30 11524 H 1108.06 -0.282535 0.729176 0
M  V30 11525 H 1110.64 -0.0985924 1.9445 0
M  V30 11526 H 1108.81 -2.3371 3.10216 0
M  V30 11527 H 1110.55 -2.28063 3.34319 0
M  V30 11528 H 1107.3 -0.76229 4.67425 0
M  V30 11529 H 1107.72 0.886619 6.71169 0
M  V30 11530 H 1112.37 -0.555051 4.19141 0
M  V30 11531 H 1110.08 2.01759 7.82508 0
M  V30 11532 H 1113.67 0.848372 5.75581 0
M  V30 11533 H 1112.55 2.11694 7.55086 0
M  V30 11534 N 1110.05 -1.5248 -0.398459 0
M  V30 11535 C 1110.99 -1.72826 -1.50545 0
M  V30 11536 C 1112 -0.608683 -1.50993 0
M  V30 11537 O 1113.19 -0.88413 -1.55066 0
M  V30 11538 C 1110.29 -1.76327 -2.89417 0
M  V30 11539 C 1109.46 -3.05491 -3.1304 0
M  V30 11540 C 1108.52 -3.00663 -4.31843 0
M  V30 11541 O 1107.55 -3.74548 -4.28605 0
M  V30 11542 N 1108.75 -2.19191 -5.37527 0
M  V30 11543 H 1111.51 -2.68333 -1.33482 0
M  V30 11544 H 1109.07 -1.5085 -0.587875 0
M  V30 11545 H 1111.07 -1.70616 -3.66977 0
M  V30 11546 H 1109.64 -0.882476 -2.99885 0
M  V30 11547 H 1108.86 -3.24767 -2.23428 0
M  V30 11548 H 1110.14 -3.90915 -3.25673 0
M  V30 11549 H 1109.54 -1.58613 -5.43009 0
M  V30 11550 H 1108.1 -2.19328 -6.1379 0
M  V30 11551 N 1111.53 0.65634 -1.43283 0
M  V30 11552 C 1112.76 1.44408 -1.48168 0
M  V30 11553 C 1113.17 1.88542 -0.0986016 0
M  V30 11554 O 1112.53 1.59298 0.890527 0
M  V30 11555 C 1112.58 2.68111 -2.42484 0
M  V30 11556 O 1112.3 2.25824 -3.75413 0
M  V30 11557 C 1113.8 3.61499 -2.56579 0
M  V30 11558 H 1111.02 0.443731 -0.503333 0
M  V30 11559 H 1113.57 0.804917 -1.87993 0
M  V30 11560 H 1111.72 3.28175 -2.05863 0
M  V30 11561 H 1112.14 3.05839 -4.26102 0
M  V30 11562 H 1113.61 4.44972 -3.26655 0
M  V30 11563 H 1114.09 4.08639 -1.60969 0
M  V30 11564 H 1114.69 3.07319 -2.93998 0
M  V30 11565 N 1113.01 1.29761 0.894412 0
M  V30 11566 C 1114.23 1.21064 1.68399 0
M  V30 11567 C 1114.66 -0.224608 1.86754 0
M  V30 11568 O 1114.02 -1.16199 1.39167 0
M  V30 11569 C 1114.07 1.93468 3.04306 0
M  V30 11570 O 1113.17 1.25533 3.9283 0
M  V30 11571 H 1112.51 0.419223 0.514925 0
M  V30 11572 H 1115.04 1.71421 1.11696 0
M  V30 11573 H 1115.05 2.02127 3.54413 0
M  V30 11574 H 1113.73 2.97857 2.90265 0
M  V30 11575 H 1112.3 1.25168 3.51266 0
M  V30 11576 N 1114.49 -1.10549 1.12324 0
M  V30 11577 C 1115.71 -1.8681 0.900927 0
M  V30 11578 C 1116.14 -1.80049 -0.54443 0
M  V30 11579 O 1115.5 -1.16957 -1.38531 0
M  V30 11580 C 1115.54 -3.33197 1.37883 0
M  V30 11581 O 1114.65 -4.08628 0.556529 0
M  V30 11582 H 1113.99 -0.579709 0.32378 0
M  V30 11583 H 1116.52 -1.39678 1.49503 0
M  V30 11584 H 1116.53 -3.84047 1.37739 0
M  V30 11585 H 1115.2 -3.37435 2.43127 0
M  V30 11586 H 1113.78 -3.67627 0.62486 0
M  V30 11587 N 1115.97 -0.914965 -1.28321 0
M  V30 11588 C 1116.91 -0.394477 -2.29231 0
M  V30 11589 C 1117.91 0.514481 -1.61398 0
M  V30 11590 O 1119.11 0.395591 -1.75599 0
M  V30 11591 H 1115.49 -0.108969 -0.744063 0
M  V30 11592 H 1117.46 -1.25862 -2.70557 0
M  V30 11593 C 1116.21 0.349134 -3.45943 0
M  V30 11594 H 1115.53 -0.341087 -3.98342 0
M  V30 11595 H 1116.97 0.677944 -4.18545 0
M  V30 11596 C 1115.43 1.55747 -2.98738 0
M  V30 11597 O 1115.96 2.65654 -3.01315 0
M  V30 11598 N 1114.17 1.40488 -2.54384 0
M  V30 11599 H 1113.71 0.510716 -2.52487 0
M  V30 11600 H 1113.67 2.21464 -2.23161 0
M  V30 11601 N 1117.44 1.42219 -0.679077 0
M  V30 11602 C 1118.85 1.8459 -0.279877 0
M  V30 11603 C 1119.21 1.56839 1.17881 0
M  V30 11604 O 1118.33 1.03039 1.90294 0
M  V30 11605 C 1118.93 3.35072 -0.501185 0
M  V30 11606 C 1117.48 3.76076 -0.156065 0
M  V30 11607 C 1116.63 2.65763 -0.791549 0
M  V30 11608 H 1119.58 1.32005 -0.880932 0
M  V30 11609 H 1119.6 3.79708 0.245349 0
M  V30 11610 H 1119.12 3.55239 -1.56291 0
M  V30 11611 H 1117.22 3.61516 0.90205 0
M  V30 11612 H 1117.33 4.75334 -0.599572 0
M  V30 11613 H 1115.69 2.53726 -0.222514 0
M  V30 11614 H 1116.48 2.88751 -1.85682 0
M  V30 11615 N 1118.92 0.422693 1.51826 0
M  V30 11616 C 1120.15 -0.15017 2.06856 0
M  V30 11617 C 1120.57 -1.36946 1.28948 0
M  V30 11618 O 1119.93 -1.78393 0.32338 0
M  V30 11619 C 1119.98 -0.465563 3.57582 0
M  V30 11620 O 1119.08 -1.55442 3.81984 0
M  V30 11621 H 1118.42 -0.00827931 0.663948 0
M  V30 11622 H 1120.95 0.599806 1.95611 0
M  V30 11623 H 1120.96 -0.720279 4.01592 0
M  V30 11624 H 1119.64 0.425679 4.13716 0
M  V30 11625 H 1118.21 -1.29081 3.49846 0
M  V30 11626 N 1120.4 -1.5685 0.153553 0
M  V30 11627 C 1121.65 -1.95509 -0.495911 0
M  V30 11628 C 1121.96 -1.04129 -1.65579 0
M  V30 11629 O 1123.17 -1.32394 -2.37032 0
M  V30 11630 C 1121.62 -3.47579 -0.933622 0
M  V30 11631 C 1121.23 -4.47555 0.199684 0
M  V30 11632 C 1122.98 -3.95092 -1.55251 0
M  V30 11633 C 1120.88 -5.90843 -0.256663 0
M  V30 11634 H 1119.81 -0.729919 -0.189035 0
M  V30 11635 H 1122.46 -1.81938 0.238947 0
M  V30 11636 H 1120.85 -3.56506 -1.72394 0
M  V30 11637 H 1122.02 -4.50329 0.976744 0
M  V30 11638 H 1120.33 -4.09997 0.727394 0
M  V30 11639 H 1122.93 -4.99588 -1.90567 0
M  V30 11640 H 1123.27 -3.37015 -2.4439 0
M  V30 11641 H 1123.81 -3.89109 -0.826969 0
M  V30 11642 H 1120.55 -6.52753 0.599515 0
M  V30 11643 H 1120.07 -5.91414 -0.999458 0
M  V30 11644 H 1121.75 -6.43131 -0.70649 0
M  V30 11645 N 1121.88 0.120221 -1.57141 0
M  V30 11646 C 1123.12 0.828222 -1.84788 0
M  V30 11647 C 1123.45 1.79936 -0.738459 0
M  V30 11648 O 1122.71 1.93824 0.270295 0
M  V30 11649 C 1123.01 1.61338 -3.18912 0
M  V30 11650 C 1122.67 0.786637 -4.43985 0
M  V30 11651 C 1121.33 0.558645 -4.77946 0
M  V30 11652 C 1123.69 0.210281 -5.20776 0
M  V30 11653 C 1121.01 -0.255975 -5.86141 0
M  V30 11654 C 1123.37 -0.591523 -6.29828 0
M  V30 11655 C 1122.03 -0.829843 -6.62322 0
M  V30 11656 H 1121.3 0.303068 -0.676188 0
M  V30 11657 H 1123.95 0.0906538 -1.91285 0
M  V30 11658 H 1122.25 2.42182 -3.07986 0
M  V30 11659 H 1123.95 2.16513 -3.37525 0
M  V30 11660 H 1120.54 0.974426 -4.17376 0
M  V30 11661 H 1124.72 0.373641 -4.94892 0
M  V30 11662 H 1119.98 -0.449849 -6.09743 0
M  V30 11663 H 1124.15 -1.04512 -6.88513 0
M  V30 11664 H 1121.78 -1.4629 -7.45992 0
M  V30 11665 N 1123.36 1.52689 0.390367 0
M  V30 11666 C 1124.59 1.71292 1.1551 0
M  V30 11667 C 1124.99 0.430405 1.84239 0
M  V30 11668 O 1124.34 -0.604823 1.73458 0
M  V30 11669 C 1124.4 2.80597 2.24735 0
M  V30 11670 C 1124.06 4.21757 1.75984 0
M  V30 11671 C 1125.06 5.04961 1.23733 0
M  V30 11672 C 1122.75 4.68071 1.82248 0
M  V30 11673 C 1124.74 6.32561 0.783926 0
M  V30 11674 C 1122.43 5.95656 1.36519 0
M  V30 11675 C 1123.42 6.7773 0.846786 0
M  V30 11676 O 1123.11 8.02923 0.396164 0
M  V30 11677 H 1122.84 0.576906 0.352356 0
M  V30 11678 H 1125.4 2.00117 0.462865 0
M  V30 11679 H 1123.63 2.4719 2.97378 0
M  V30 11680 H 1125.32 2.87616 2.86412 0
M  V30 11681 H 1126.08 4.70363 1.18251 0
M  V30 11682 H 1121.96 4.04278 2.21541 0
M  V30 11683 H 1125.51 6.96572 0.378612 0
M  V30 11684 H 1121.4 6.29758 1.41686 0
M  V30 11685 H 1122.17 8.16861 0.517766 0
M  V30 11686 N 1124.83 -0.648732 1.43629 0
M  V30 11687 C 1126.06 -1.4362 1.48932 0
M  V30 11688 C 1126.48 -1.88487 0.108599 0
M  V30 11689 O 1125.83 -1.59768 -0.882066 0
M  V30 11690 C 1125.89 -2.66822 2.43903 0
M  V30 11691 O 1125.61 -2.2383 3.76606 0
M  V30 11692 C 1127.11 -3.60134 2.58493 0
M  V30 11693 H 1124.33 -0.441055 0.505679 0
M  V30 11694 H 1126.87 -0.794936 1.88417 0
M  V30 11695 H 1125.03 -3.27079 2.07601 0
M  V30 11696 H 1125.44 -3.03575 4.27718 0
M  V30 11697 H 1126.91 -4.43234 3.29011 0
M  V30 11698 H 1127.39 -4.07779 1.63134 0
M  V30 11699 H 1128 -3.05756 2.95624 0
M  V30 11700 N 1126.31 -1.30234 -0.887518 0
M  V30 11701 C 1127.54 -1.21652 -1.66986 0
M  V30 11702 C 1127.95 0.223473 -1.87876 0
M  V30 11703 O 1127.29 1.15993 -1.42448 0
M  V30 11704 C 1127.36 -1.87173 -3.06931 0
M  V30 11705 C 1127.02 -3.36496 -3.09224 0
M  V30 11706 C 1128.02 -4.3253 -2.88469 0
M  V30 11707 C 1125.7 -3.77901 -3.30902 0
M  V30 11708 C 1127.7 -5.67942 -2.89344 0
M  V30 11709 C 1125.38 -5.13432 -3.31407 0
M  V30 11710 C 1126.38 -6.08263 -3.10653 0
M  V30 11711 O 1126.07 -7.41318 -3.1097 0
M  V30 11712 H 1125.8 -0.422224 -0.527923 0
M  V30 11713 H 1128.35 -1.72349 -1.11736 0
M  V30 11714 H 1126.58 -1.31002 -3.63834 0
M  V30 11715 H 1128.27 -1.72745 -3.67306 0
M  V30 11716 H 1129.04 -4.01873 -2.7152 0
M  V30 11717 H 1124.92 -3.04534 -3.46093 0
M  V30 11718 H 1128.46 -6.41936 -2.73063 0
M  V30 11719 H 1124.36 -5.4373 -3.47891 0
M  V30 11720 H 1125.13 -7.50275 -3.27153 0
M  V30 11721 N 1127.79 1.09952 -1.12909 0
M  V30 11722 C 1129.04 1.81657 -0.885729 0
M  V30 11723 C 1129.36 1.85863 0.589913 0
M  V30 11724 O 1128.63 1.34028 1.42875 0
M  V30 11725 H 1127.21 0.672743 -0.324694 0
M  V30 11726 H 1129.87 1.33013 -1.42456 0
M  V30 11727 H 1128.97 2.85018 -1.27167 0
M  V30 11728 N 1129.27 0.921757 1.27833 0
M  V30 11729 C 1130.23 0.420978 2.25301 0
M  V30 11730 C 1131.23 -0.457158 1.54165 0
M  V30 11731 O 1132.42 -0.259079 1.72263 0
M  V30 11732 C 1129.55 -0.395501 3.38598 0
M  V30 11733 H 1130.75 1.28206 2.71115 0
M  V30 11734 H 1128.3 0.701893 1.39654 0
M  V30 11735 H 1129.03 -1.27565 2.98157 0
M  V30 11736 H 1128.82 0.234029 3.91401 0
M  V30 11737 H 1130.31 -0.736444 4.11055 0
M  V30 11738 N 1130.75 -1.41857 0.686609 0
M  V30 11739 C 1131.71 -2.29187 0.0247022 0
M  V30 11740 C 1132.71 -1.43926 -0.717069 0
M  V30 11741 O 1133.9 -1.65179 -0.5533 0
M  V30 11742 C 1131.03 -3.26644 -0.975537 0
M  V30 11743 H 1132.22 -2.89212 0.793503 0
M  V30 11744 H 1129.78 -1.49694 0.449605 0
M  V30 11745 H 1130.51 -2.7158 -1.77242 0
M  V30 11746 H 1130.3 -3.89545 -0.446892 0
M  V30 11747 H 1131.79 -3.92107 -1.43673 0
M  V30 11748 N 1132.22 -0.430739 -1.51599 0
M  V30 11749 C 1133.64 0.0339139 -1.86669 0
M  V30 11750 C 1133.99 1.42533 -1.34829 0
M  V30 11751 O 1133.11 2.04889 -0.696376 0
M  V30 11752 C 1133.71 0.0683174 -3.38731 0
M  V30 11753 C 1132.27 0.477363 -3.73361 0
M  V30 11754 C 1131.41 -0.334258 -2.75278 0
M  V30 11755 H 1134.36 -0.646875 -1.44918 0
M  V30 11756 H 1134.38 0.879179 -3.70204 0
M  V30 11757 H 1133.9 -0.944501 -3.76432 0
M  V30 11758 H 1132 1.49603 -3.41247 0
M  V30 11759 H 1132.11 0.206744 -4.78654 0
M  V30 11760 H 1130.47 0.206503 -2.53861 0
M  V30 11761 H 1131.26 -1.34583 -3.1582 0
M  V30 11762 N 1133.7 1.56767 -0.161869 0
M  V30 11763 C 1134.67 2.16299 0.758104 0
M  V30 11764 C 1135.67 1.10859 1.16478 0
M  V30 11765 O 1136.86 1.36422 1.08327 0
M  V30 11766 C 1133.99 2.73819 2.03067 0
M  V30 11767 H 1135.18 2.98938 0.239992 0
M  V30 11768 H 1132.73 1.56054 0.0876532 0
M  V30 11769 H 1133.47 1.94887 2.59209 0
M  V30 11770 H 1133.25 3.50974 1.74813 0
M  V30 11771 H 1134.74 3.19638 2.68741 0
M  V30 11772 N 1135.18 -0.111886 1.57202 0
M  V30 11773 C 1136.6 -0.465629 1.52657 0
M  V30 11774 C 1136.8 -1.81463 0.875989 0
M  V30 11775 O 1135.85 -2.4825 0.461345 0
M  V30 11776 C 1137.17 -0.443571 2.9741 0
M  V30 11777 C 1138.71 -0.52662 3.08538 0
M  V30 11778 C 1139.19 -0.53488 4.54866 0
M  V30 11779 N 1140.68 -0.596117 4.59348 0
M  V30 11780 C 1141.41 -0.624073 5.69994 0
M  V30 11781 N 1140.91 -0.609245 6.90116 0
M  V30 11782 N 1142.7 -0.667619 5.58121 0
M  V30 11783 H 1134.85 0.771925 1.97876 0
M  V30 11784 H 1137.12 0.285534 0.903977 0
M  V30 11785 H 1136.82 0.480138 3.48407 0
M  V30 11786 H 1136.7 -1.26876 3.55221 0
M  V30 11787 H 1139.08 -1.44075 2.57539 0
M  V30 11788 H 1139.17 0.326396 2.53709 0
M  V30 11789 H 1138.81 0.375233 5.06512 0
M  V30 11790 H 1138.74 -1.40488 5.07514 0
M  V30 11791 H 1141.23 -0.613452 3.72888 0
M  V30 11792 H 1141.54 -0.633396 7.702 0
M  V30 11793 H 1139.89 -0.576557 6.92604 0
M  V30 11794 H 1143.08 -0.676616 4.63184 0
M  V30 11795 H 1143.25 -0.685938 6.44359 0
M  V30 11796 N 1136.66 -1.52894 -0.382264 0
M  V30 11797 C 1137.91 -1.67489 -1.12385 0
M  V30 11798 C 1138.22 -0.424565 -1.90937 0
M  V30 11799 O 1139.43 -0.450763 -2.67732 0
M  V30 11800 C 1137.88 -2.96019 -2.04697 0
M  V30 11801 C 1137.49 -4.28255 -1.31535 0
M  V30 11802 C 1139.23 -3.19981 -2.78949 0
M  V30 11803 C 1137.14 -5.47887 -2.22652 0
M  V30 11804 H 1136.07 -0.624002 -0.423246 0
M  V30 11805 H 1138.72 -1.79392 -0.386107 0
M  V30 11806 H 1137.1 -2.77878 -2.82134 0
M  V30 11807 H 1138.28 -4.56971 -0.592771 0
M  V30 11808 H 1136.59 -4.10607 -0.692148 0
M  V30 11809 H 1139.19 -4.06541 -3.47316 0
M  V30 11810 H 1139.53 -2.35335 -3.43399 0
M  V30 11811 H 1140.07 -3.38718 -2.08602 0
M  V30 11812 H 1136.81 -6.3496 -1.62806 0
M  V30 11813 H 1136.33 -5.23473 -2.92807 0
M  V30 11814 H 1138 -5.82026 -2.82586 0
M  V30 11815 N 1138.14 0.641106 -1.43971 0
M  V30 11816 C 1139.36 1.43324 -1.4991 0
M  V30 11817 C 1139.79 1.87705 -0.121908 0
M  V30 11818 O 1139.15 1.58127 0.886875 0
M  V30 11819 C 1139.19 2.63637 -2.46025 0
M  V30 11820 O 1138.3 3.63123 -1.95488 0
M  V30 11821 H 1137.64 0.429252 -0.506595 0
M  V30 11822 H 1140.17 0.783427 -1.89007 0
M  V30 11823 H 1140.18 3.11304 -2.63731 0
M  V30 11824 H 1138.85 2.30678 -3.46064 0
M  V30 11825 H 1137.43 3.22332 -1.87501 0
M  V30 11826 N 1139.62 1.30703 0.880598 0
M  V30 11827 C 1140.86 1.19955 1.63519 0
M  V30 11828 C 1141.19 -0.244214 1.92658 0
M  V30 11829 O 1140.47 -1.17412 1.55063 0
M  V30 11830 C 1140.75 2.03302 2.97221 0
M  V30 11831 C 1140.61 3.55921 2.75028 0
M  V30 11832 C 1141.92 1.87421 3.98198 0
M  V30 11833 H 1139.04 0.43712 0.593376 0
M  V30 11834 H 1141.69 1.60382 1.01871 0
M  V30 11835 H 1139.84 1.68953 3.49839 0
M  V30 11836 H 1141.51 4.00352 2.29164 0
M  V30 11837 H 1139.75 3.79885 2.09452 0
M  V30 11838 H 1140.42 4.09533 3.70117 0
M  V30 11839 H 1142.9 2.17459 3.54755 0
M  V30 11840 H 1141.77 2.48057 4.89652 0
M  V30 11841 H 1142.03 0.834563 4.34151 0
M  V30 11842 N 1141.09 -1.09351 1.1349 0
M  V30 11843 C 1142.5 -1.63035 0.909746 0
M  V30 11844 C 1142.86 -1.88229 -0.553573 0
M  V30 11845 O 1141.98 -1.63256 -1.42044 0
M  V30 11846 C 1142.58 -2.96186 1.64497 0
M  V30 11847 C 1141.13 -3.46692 1.46566 0
M  V30 11848 C 1140.28 -2.21095 1.67369 0
M  V30 11849 H 1143.23 -0.92704 1.28809 0
M  V30 11850 H 1143.25 -3.64177 1.10251 0
M  V30 11851 H 1142.77 -2.77818 2.70996 0
M  V30 11852 H 1140.87 -3.70183 0.423728 0
M  V30 11853 H 1140.98 -4.24078 2.22923 0
M  V30 11854 H 1139.34 -2.29789 1.0986 0
M  V30 11855 H 1140.13 -2.05245 2.7519 0
M  V30 11856 N 1142.57 -0.928524 -1.27343 0
M  V30 11857 C 1143.8 -0.584884 -1.98148 0
M  V30 11858 C 1144.21 0.841603 -1.69451 0
M  V30 11859 O 1143.55 1.57104 -0.952053 0
M  V30 11860 C 1143.61 -0.731911 -3.51971 0
M  V30 11861 C 1143.28 -2.13067 -4.04291 0
M  V30 11862 C 1144.28 -3.10492 -4.17002 0
M  V30 11863 C 1141.96 -2.44784 -4.38619 0
M  V30 11864 C 1143.95 -4.37742 -4.63315 0
M  V30 11865 C 1141.64 -3.72269 -4.84622 0
M  V30 11866 C 1142.64 -4.68562 -4.9693 0
M  V30 11867 O 1142.33 -5.93779 -5.41924 0
M  V30 11868 H 1142.06 -0.220347 -0.63908 0
M  V30 11869 H 1144.61 -1.24799 -1.63139 0
M  V30 11870 H 1142.84 -0.0116966 -3.86698 0
M  V30 11871 H 1144.53 -0.393206 -4.03991 0
M  V30 11872 H 1145.3 -2.8731 -3.9074 0
M  V30 11873 H 1141.18 -1.70577 -4.28281 0
M  V30 11874 H 1144.72 -5.12905 -4.72836 0
M  V30 11875 H 1140.62 -3.95269 -5.10326 0
M  V30 11876 H 1141.39 -5.96779 -5.60176 0
M  V30 11877 N 1144.05 1.41491 -0.694123 0
M  V30 11878 C 1145.3 2.0155 -0.224809 0
M  V30 11879 C 1145.63 1.54844 1.17205 0
M  V30 11880 O 1144.9 0.75899 1.7908 0
M  V30 11881 C 1145.19 3.59003 -0.280884 0
M  V30 11882 C 1145.04 4.15839 -1.71458 0
M  V30 11883 C 1146.36 4.38624 0.360122 0
M  V30 11884 H 1143.48 0.732293 -0.0831632 0
M  V30 11885 H 1146.12 1.68258 -0.882569 0
M  V30 11886 H 1144.27 3.87496 0.279164 0
M  V30 11887 H 1145.94 3.98227 -2.32837 0
M  V30 11888 H 1144.18 3.70936 -2.2492 0
M  V30 11889 H 1144.86 5.24997 -1.70536 0
M  V30 11890 H 1147.33 4.15936 -0.11683 0
M  V30 11891 H 1146.21 5.48132 0.290337 0
M  V30 11892 H 1146.47 4.1797 1.44062 0
M  V30 11893 N 1145.53 0.438773 1.51369 0
M  V30 11894 C 1146.78 -0.126962 2.01701 0
M  V30 11895 C 1147.1 -1.43086 1.32481 0
M  V30 11896 O 1146.37 -1.90427 0.459823 0
M  V30 11897 H 1144.95 -0.0499092 0.745331 0
M  V30 11898 H 1147.61 0.581808 1.86013 0
M  V30 11899 H 1146.7 -0.301836 3.10637 0
M  V30 11900 N 1147.01 -1.56678 0.170181 0
M  V30 11901 C 1147.94 -2.20916 -0.756213 0
M  V30 11902 C 1148.92 -1.16442 -1.23997 0
M  V30 11903 O 1150.1 -1.44867 -1.29333 0
M  V30 11904 C 1147.23 -2.84901 -1.98617 0
M  V30 11905 C 1146.19 -3.95403 -1.63831 0
M  V30 11906 C 1145.51 -4.46432 -2.94282 0
M  V30 11907 C 1146.81 -5.15051 -0.867195 0
M  V30 11908 H 1148.51 -2.98585 -0.220776 0
M  V30 11909 H 1146.05 -1.43619 -0.104748 0
M  V30 11910 H 1148 -3.28514 -2.63926 0
M  V30 11911 H 1146.73 -2.04598 -2.54572 0
M  V30 11912 H 1145.39 -3.52444 -1.00891 0
M  V30 11913 H 1145.04 -3.62923 -3.48276 0
M  V30 11914 H 1144.74 -5.20979 -2.71762 0
M  V30 11915 H 1146.26 -4.92731 -3.60622 0
M  V30 11916 H 1147.67 -5.55363 -1.42285 0
M  V30 11917 H 1146.07 -5.95507 -0.741065 0
M  V30 11918 H 1147.14 -4.84707 0.136693 0
M  V30 11919 N 1148.48 0.103547 -1.57259 0
M  V30 11920 C 1149.45 1.11039 -2.00507 0
M  V30 11921 C 1150.45 1.33432 -0.897361 0
M  V30 11922 O 1151.64 1.29688 -1.16304 0
M  V30 11923 C 1148.77 2.46144 -2.35851 0
M  V30 11924 H 1149.96 0.738332 -2.90669 0
M  V30 11925 H 1147.51 0.348334 -1.52369 0
M  V30 11926 H 1148.25 2.88242 -1.48617 0
M  V30 11927 H 1148.03 2.31241 -3.16654 0
M  V30 11928 H 1149.52 3.18577 -2.69997 0
M  V30 11929 N 1149.96 1.53094 0.37415 0
M  V30 11930 C 1150.91 1.79585 1.47824 0
M  V30 11931 C 1151.9 0.664513 1.55822 0
M  V30 11932 O 1153.11 0.84729 1.58811 0
M  V30 11933 H 1149.48 0.568474 0.492282 0
M  V30 11934 H 1151.46 2.72014 1.22681 0
M  V30 11935 C 1150.2 1.995 2.84772 0
M  V30 11936 H 1149.53 2.85991 2.79373 0
M  V30 11937 H 1150.97 2.22018 3.61226 0
M  V30 11938 C 1149.43 0.771673 3.27943 0
M  V30 11939 O 1149.96 -0.0437737 4.01676 0
M  V30 11940 N 1148.16 0.597547 2.8439 0
M  V30 11941 H 1147.71 1.26227 2.24554 0
M  V30 11942 H 1147.67 -0.219578 3.13632 0
M  V30 11943 N 1151.44 -0.633461 1.44309 0
M  V30 11944 C 1152.4 -1.72743 1.50641 0
M  V30 11945 C 1153.4 -1.56031 0.388718 0
M  V30 11946 O 1154.59 -1.61568 0.651251 0
M  V30 11947 C 1151.72 -3.11804 1.37809 0
M  V30 11948 H 1152.92 -1.68503 2.48086 0
M  V30 11949 H 1150.47 -0.846912 1.31366 0
M  V30 11950 H 1151.21 -3.2164 0.414483 0
M  V30 11951 H 1150.99 -3.2534 2.18852 0
M  V30 11952 H 1152.48 -3.91538 1.45216 0
M  V30 11953 N 1152.92 -1.31168 -0.873655 0
M  V30 11954 C 1154.15 -1.23416 -1.65686 0
M  V30 11955 C 1154.56 0.203534 -1.88102 0
M  V30 11956 O 1153.9 1.14476 -1.4367 0
M  V30 11957 C 1153.96 -1.90418 -3.04929 0
M  V30 11958 C 1153.63 -3.39757 -3.05637 0
M  V30 11959 C 1154.62 -4.35565 -2.83865 0
M  V30 11960 C 1152.31 -3.81389 -3.26875 0
M  V30 11961 C 1154.3 -5.70979 -2.83304 0
M  V30 11962 C 1151.99 -5.16918 -3.25943 0
M  V30 11963 C 1152.99 -6.11524 -3.04184 0
M  V30 11964 O 1152.67 -7.44575 -3.0309 0
M  V30 11965 H 1152.41 -0.4278 -0.523415 0
M  V30 11966 H 1154.96 -1.73525 -1.09902 0
M  V30 11967 H 1153.19 -1.34854 -3.62424 0
M  V30 11968 H 1154.88 -1.76631 -3.65453 0
M  V30 11969 H 1155.65 -4.0473 -2.67243 0
M  V30 11970 H 1151.52 -3.08187 -3.42844 0
M  V30 11971 H 1155.07 -6.44796 -2.66239 0
M  V30 11972 H 1150.97 -5.47389 -3.42104 0
M  V30 11973 H 1151.73 -7.53703 -3.19177 0
M  V30 11974 N 1154.4 1.08748 -1.14068 0
M  V30 11975 C 1155.62 1.85353 -0.930532 0
M  V30 11976 C 1156.05 1.80892 0.515717 0
M  V30 11977 O 1155.4 1.19146 1.36652 0
M  V30 11978 C 1155.45 3.30962 -1.43167 0
M  V30 11979 O 1154.56 4.0769 -0.621468 0
M  V30 11980 H 1153.9 0.574485 -0.332962 0
M  V30 11981 H 1156.43 1.37282 -1.51707 0
M  V30 11982 H 1156.44 3.81807 -1.43832 0
M  V30 11983 H 1155.11 3.33524 -2.48464 0
M  V30 11984 H 1153.69 3.66587 -0.683267 0
M  V30 11985 N 1155.87 0.935264 1.26849 0
M  V30 11986 C 1156.82 0.411166 2.24262 0
M  V30 11987 C 1157.81 -0.488804 1.53296 0
M  V30 11988 O 1159 -0.325015 1.7399 0
M  V30 11989 C 1156.13 -0.327941 3.4173 0
M  V30 11990 C 1155.22 0.58898 4.1999 0
M  V30 11991 N 1155.61 1.71216 4.7594 0
M  V30 11992 C 1153.9 0.393431 4.44261 0
M  V30 11993 C 1154.61 2.28306 5.35024 0
M  V30 11994 N 1153.58 1.57176 5.20381 0
M  V30 11995 H 1157.38 1.26864 2.65109 0
M  V30 11996 H 1154.9 0.790429 1.41866 0
M  V30 11997 H 1156.89 -0.720404 4.10629 0
M  V30 11998 H 1155.55 -1.18225 3.02412 0
M  V30 11999 H 1156.57 2.09441 4.73661 0
M  V30 12000 H 1153.24 -0.419596 4.15386 0
M  V30 12001 H 1154.63 3.22909 5.89219 0
M  V30 12002 N 1157.35 -1.41121 0.701616 0
M  V30 12003 C 1158.6 -2.0113 0.235147 0
M  V30 12004 C 1158.93 -1.55587 -1.16718 0
M  V30 12005 O 1158.18 -0.760615 -1.80314 0
M  V30 12006 C 1158.48 -3.5654 0.247781 0
M  V30 12007 C 1158.15 -4.21616 1.59846 0
M  V30 12008 C 1156.81 -4.39106 1.96822 0
M  V30 12009 C 1159.16 -4.58048 2.48679 0
M  V30 12010 C 1156.49 -4.90307 3.22205 0
M  V30 12011 C 1158.84 -5.10642 3.734 0
M  V30 12012 C 1157.51 -5.26343 4.10512 0
M  V30 12013 H 1156.78 -0.735987 0.0860462 0
M  V30 12014 H 1159.42 -1.68932 0.901898 0
M  V30 12015 H 1157.73 -3.88564 -0.502528 0
M  V30 12016 H 1159.42 -4.00787 -0.130766 0
M  V30 12017 H 1156.01 -4.08381 1.30088 0
M  V30 12018 H 1160.2 -4.44184 2.21391 0
M  V30 12019 H 1155.45 -5.00647 3.50945 0
M  V30 12020 H 1159.63 -5.37811 4.42416 0
M  V30 12021 H 1157.26 -5.65779 5.07738 0
M  V30 12022 N 1158.83 -0.446794 -1.51134 0
M  V30 12023 C 1160.06 0.114727 -2.06281 0
M  V30 12024 C 1160.47 1.36192 -1.31333 0
M  V30 12025 O 1159.81 1.79956 -0.368982 0
M  V30 12026 C 1159.87 0.492968 -3.56104 0
M  V30 12027 C 1159.54 -0.648755 -4.52372 0
M  V30 12028 C 1160.53 -1.52369 -4.97071 0
M  V30 12029 C 1158.22 -0.832177 -4.95359 0
M  V30 12030 C 1160.21 -2.56667 -5.83439 0
M  V30 12031 C 1157.9 -1.87841 -5.81514 0
M  V30 12032 C 1158.9 -2.74404 -6.25453 0
M  V30 12033 O 1158.59 -3.7723 -7.09896 0
M  V30 12034 H 1158.32 0.007138 -0.675962 0
M  V30 12035 H 1160.87 -0.627452 -1.95582 0
M  V30 12036 H 1159.1 1.28799 -3.6462 0
M  V30 12037 H 1160.79 0.986739 -3.93724 0
M  V30 12038 H 1161.56 -1.39356 -4.64548 0
M  V30 12039 H 1157.44 -0.167954 -4.60694 0
M  V30 12040 H 1160.98 -3.24264 -6.17656 0
M  V30 12041 H 1156.88 -2.00871 -6.1345 0
M  V30 12042 H 1157.65 -3.73924 -7.28095 0
M  V30 12043 N 1160.31 1.56586 -0.178487 0
M  V30 12044 C 1161.59 1.88798 0.511356 0
M  V30 12045 C 1161.97 1.08949 1.80813 0
M  V30 12046 O 1161.31 0.185551 2.27745 0
M  V30 12047 C 1161.52 3.40927 0.746298 0
M  V30 12048 C 1162.87 4.10816 1.0731 0
M  V30 12049 O 1163.9 3.46285 0.834592 0
M  V30 12050 O 1162.75 5.24837 1.52343 0
M  V30 12051 H 1159.85 0.783574 0.264463 0
M  V30 12052 H 1162.39 1.68301 -0.21746 0
M  V30 12053 H 1161.17 3.9093 -0.17015 0
M  V30 12054 H 1160.79 3.67059 1.52817 0
M  V30 12055 N 1161.79 -0.095206 1.57312 0
M  V30 12056 C 1163.03 -0.797142 1.85715 0
M  V30 12057 C 1163.36 -1.79275 0.767171 0
M  V30 12058 O 1162.63 -1.94808 -0.206584 0
M  V30 12059 H 1161.21 -0.297382 0.685254 0
M  V30 12060 H 1163.87 -0.0768617 1.94748 0
M  V30 12061 H 1162.96 -1.32779 2.82447 0
M  V30 12062 N 1163.26 -1.53291 -0.366026 0
M  V30 12063 C 1164.51 -1.69451 -1.10872 0
M  V30 12064 C 1164.84 -0.446078 -1.89316 0
M  V30 12065 O 1164.09 0.571962 -1.87155 0
M  V30 12066 C 1164.39 -2.89547 -2.09517 0
M  V30 12067 C 1164.06 -4.26073 -1.47556 0
M  V30 12068 C 1162.72 -4.63199 -1.30386 0
M  V30 12069 C 1165.07 -5.10977 -1.02724 0
M  V30 12070 C 1162.4 -5.82866 -0.669666 0
M  V30 12071 C 1164.75 -6.31289 -0.407052 0
M  V30 12072 C 1163.42 -6.67128 -0.222839 0
M  V30 12073 H 1162.69 -0.620066 -0.405708 0
M  V30 12074 H 1165.33 -1.87475 -0.390563 0
M  V30 12075 H 1163.64 -2.66034 -2.87634 0
M  V30 12076 H 1165.34 -2.99245 -2.66933 0
M  V30 12077 H 1161.93 -3.9684 -1.61914 0
M  V30 12078 H 1166.11 -4.82844 -1.14783 0
M  V30 12079 H 1161.37 -6.09224 -0.515351 0
M  V30 12080 H 1165.54 -6.96381 -0.0514661 0
M  V30 12081 H 1163.17 -7.59718 0.270647 0
M  V30 12082 N 1164.74 0.6258 -1.44643 0
M  V30 12083 C 1165.71 1.71941 -1.51555 0
M  V30 12084 C 1166.71 1.55822 -0.396988 0
M  V30 12085 O 1167.9 1.61221 -0.65981 0
M  V30 12086 C 1165.03 3.11068 -1.39461 0
M  V30 12087 H 1166.22 1.67185 -2.48976 0
M  V30 12088 H 1163.77 0.839934 -1.31814 0
M  V30 12089 H 1164.51 3.21416 -0.431534 0
M  V30 12090 H 1164.29 3.24175 -2.20574 0
M  V30 12091 H 1165.78 3.90762 -1.4729 0
M  V30 12092 N 1166.22 1.31629 0.866686 0
M  V30 12093 C 1167.17 1.19556 1.97421 0
M  V30 12094 C 1168.14 0.0805578 1.65905 0
M  V30 12095 O 1169.32 0.253997 1.89102 0
M  V30 12096 C 1166.46 0.912234 3.32825 0
M  V30 12097 C 1165.58 2.11088 3.76916 0
M  V30 12098 C 1164.71 1.76406 5.01053 0
M  V30 12099 C 1163.75 2.9266 5.37602 0
M  V30 12100 N 1162.89 2.58152 6.52918 0
M  V30 12101 H 1167.73 2.14294 2.0708 0
M  V30 12102 H 1165.26 1.06595 1.0137 0
M  V30 12103 H 1167.22 0.72851 4.1079 0
M  V30 12104 H 1165.85 0.00167404 3.228 0
M  V30 12105 H 1164.9 2.40527 2.94705 0
M  V30 12106 H 1166.22 2.98089 3.99931 0
M  V30 12107 H 1165.37 1.54515 5.86694 0
M  V30 12108 H 1164.11 0.866018 4.79949 0
M  V30 12109 H 1163.11 3.15196 4.50479 0
M  V30 12110 H 1164.34 3.83179 5.6067 0
M  V30 12111 H 1162.28 1.70874 6.33355 0
M  V30 12112 H 1162.2 3.38682 6.75892 0
M  V30 12113 H 1163.47 2.39662 7.41743 0
M  V30 12114 N 1167.7 -1.08142 1.14644 0
M  V30 12115 C 1168.95 -1.80849 0.917685 0
M  V30 12116 C 1169.28 -1.86123 -0.554249 0
M  V30 12117 O 1168.55 -1.33907 -1.41065 0
M  V30 12118 C 1168.84 -3.26325 1.52264 0
M  V30 12119 C 1168.69 -3.29244 3.06461 0
M  V30 12120 C 1170.01 -4.23375 1.20175 0
M  V30 12121 H 1167.13 -0.656559 0.334812 0
M  V30 12122 H 1169.77 -1.26595 1.41682 0
M  V30 12123 H 1167.92 -3.72656 1.09817 0
M  V30 12124 H 1169.59 -2.91216 3.57758 0
M  V30 12125 H 1167.83 -2.68438 3.40769 0
M  V30 12126 H 1168.51 -4.31785 3.43897 0
M  V30 12127 H 1170.98 -3.85394 1.56877 0
M  V30 12128 H 1169.86 -5.23472 1.65132 0
M  V30 12129 H 1170.12 -4.41944 0.117474 0
M  V30 12130 N 1169.18 -0.941978 -1.26351 0
M  V30 12131 C 1170.59 -0.632522 -1.75659 0
M  V30 12132 C 1170.94 0.852287 -1.76722 0
M  V30 12133 O 1170.06 1.66701 -1.37985 0
M  V30 12134 C 1170.66 -1.14145 -3.18993 0
M  V30 12135 C 1169.22 -0.882391 -3.65911 0
M  V30 12136 C 1168.37 -1.29189 -2.45368 0
M  V30 12137 H 1171.32 -1.12019 -1.12416 0
M  V30 12138 H 1171.34 -0.495639 -3.77258 0
M  V30 12139 H 1170.85 -2.22213 -3.18187 0
M  V30 12140 H 1168.95 0.183873 -3.72146 0
M  V30 12141 H 1169.06 -1.50996 -4.54683 0
M  V30 12142 H 1167.43 -0.710316 -2.44595 0
M  V30 12143 H 1168.21 -2.38152 -2.47262 0
M  V30 12144 N 1170.66 1.40747 -0.709091 0
M  V30 12145 C 1171.59 2.33404 -0.0669763 0
M  V30 12146 C 1172.57 1.52546 0.752582 0
M  V30 12147 O 1173.75 1.81036 0.702823 0
M  V30 12148 C 1170.88 3.36476 0.860285 0
M  V30 12149 C 1169.84 4.27748 0.146828 0
M  V30 12150 C 1169.16 5.21304 1.18937 0
M  V30 12151 C 1170.46 5.12734 -0.995064 0
M  V30 12152 H 1172.16 2.87349 -0.840888 0
M  V30 12153 H 1169.7 1.38163 -0.405817 0
M  V30 12154 H 1171.65 4.00231 1.31883 0
M  V30 12155 H 1170.38 2.80912 1.66602 0
M  V30 12156 H 1169.04 3.65437 -0.291826 0
M  V30 12157 H 1168.69 4.62048 1.98798 0
M  V30 12158 H 1168.39 5.8321 0.716917 0
M  V30 12159 H 1169.91 5.87936 1.64815 0
M  V30 12160 H 1171.32 5.69979 -0.61618 0
M  V30 12161 H 1169.72 5.83649 -1.39547 0
M  V30 12162 H 1170.79 4.49097 -1.82867 0
M  V30 12163 N 1172.13 0.454803 1.50895 0
M  V30 12164 C 1173.08 -0.347769 2.28165 0
M  V30 12165 C 1174.05 -1.00158 1.32505 0
M  V30 12166 O 1175.24 -1.01715 1.61427 0
M  V30 12167 C 1172.38 -1.43315 3.13934 0
M  V30 12168 C 1171.49 -0.795736 4.24608 0
M  V30 12169 C 1170.62 -1.85763 4.9766 0
M  V30 12170 C 1169.66 -1.19959 6.0023 0
M  V30 12171 N 1168.8 -2.20361 6.66622 0
M  V30 12172 H 1173.64 0.317493 2.96304 0
M  V30 12173 H 1171.18 0.168418 1.46133 0
M  V30 12174 H 1173.13 -2.07391 3.62001 0
M  V30 12175 H 1171.76 -2.0678 2.47875 0
M  V30 12176 H 1170.82 -0.0428173 3.80376 0
M  V30 12177 H 1172.13 -0.275477 4.98039 0
M  V30 12178 H 1171.28 -2.5746 5.49363 0
M  V30 12179 H 1170.02 -2.41166 4.23899 0
M  V30 12180 H 1169.03 -0.46817 5.47803 0
M  V30 12181 H 1170.25 -0.652666 6.75956 0
M  V30 12182 H 1168.2 -2.74812 5.95663 0
M  V30 12183 H 1168.11 -1.73275 7.35875 0
M  V30 12184 H 1169.38 -2.91488 7.22949 0
M  V30 12185 N 1173.61 -1.56489 0.186789 0
M  V30 12186 C 1174.84 -2.01722 -0.459993 0
M  V30 12187 C 1175.25 -1.06697 -1.5576 0
M  V30 12188 O 1174.61 -0.0704212 -1.82364 0
M  V30 12189 C 1174.66 -3.46693 -1.02401 0
M  V30 12190 O 1174.38 -4.3809 0.0297916 0
M  V30 12191 C 1175.88 -4.07403 -1.7475 0
M  V30 12192 H 1173.1 -0.660845 -0.116298 0
M  V30 12193 H 1175.65 -2.02389 0.293059 0
M  V30 12194 H 1173.8 -3.46752 -1.72749 0
M  V30 12195 H 1174.22 -5.23057 -0.388821 0
M  V30 12196 H 1175.69 -5.10718 -2.09455 0
M  V30 12197 H 1176.17 -3.50383 -2.64818 0
M  V30 12198 H 1176.77 -4.11093 -1.09007 0
M  V30 12199 N 1175.09 0.086862 -1.5736 0
M  V30 12200 C 1176.37 0.820984 -1.77537 0
M  V30 12201 C 1176.75 1.96534 -0.770554 0
M  V30 12202 O 1176.09 2.27629 0.199334 0
M  V30 12203 C 1176.3 1.30793 -3.23565 0
M  V30 12204 C 1177.65 1.7474 -3.86977 0
M  V30 12205 O 1178.68 1.40396 -3.27364 0
M  V30 12206 O 1177.54 2.38271 -4.91822 0
M  V30 12207 H 1174.63 0.392228 -0.72807 0
M  V30 12208 H 1177.18 0.0681051 -1.69563 0
M  V30 12209 H 1175.95 0.488409 -3.8824 0
M  V30 12210 H 1175.57 2.12258 -3.36203 0
M  V30 12211 N 1176.57 1.53483 0.357892 0
M  V30 12212 C 1177.53 1.79782 1.42166 0
M  V30 12213 C 1178.53 0.668441 1.46248 0
M  V30 12214 O 1179.72 0.936677 1.46874 0
M  V30 12215 C 1176.85 1.92686 2.8122 0
M  V30 12216 H 1178.05 2.74794 1.20117 0
M  V30 12217 H 1175.6 1.44677 0.591468 0
M  V30 12218 H 1176.33 0.997669 3.08573 0
M  V30 12219 H 1176.12 2.74837 2.79655 0
M  V30 12220 H 1177.61 2.14599 3.58242 0
M  V30 12221 N 1178.05 -0.61812 1.44973 0
M  V30 12222 C 1178.99 -1.75059 1.53157 0
M  V30 12223 C 1179.99 -1.64554 0.402282 0
M  V30 12224 O 1181.19 -1.70475 0.577767 0
M  V30 12225 H 1177.57 -0.57817 0.480856 0
M  V30 12226 H 1179.54 -1.65281 2.48445 0
M  V30 12227 C 1178.29 -3.13423 1.50538 0
M  V30 12228 H 1177.61 -3.2216 2.36755 0
M  V30 12229 H 1179.05 -3.92521 1.60323 0
M  V30 12230 C 1177.51 -3.36127 0.228127 0
M  V30 12231 O 1178.04 -3.95618 -0.696364 0
M  V30 12232 N 1176.25 -2.90322 0.127142 0
M  V30 12233 H 1175.79 -2.42091 0.880317 0
M  V30 12234 H 1175.75 -3.05887 -0.726659 0
M  V30 12235 N 1179.52 -1.32087 -0.859693 0
M  V30 12236 C 1180.8 -1.12984 -1.59668 0
M  V30 12237 C 1181.18 0.311661 -2.08787 0
M  V30 12238 O 1180.53 1.30746 -1.87397 0
M  V30 12239 C 1180.74 -2.15305 -2.74672 0
M  V30 12240 C 1182.09 -2.48371 -3.44379 0
M  V30 12241 O 1183.11 -2.13811 -2.84891 0
M  V30 12242 O 1181.97 -3.07594 -4.51717 0
M  V30 12243 H 1179.06 -0.435657 -0.702945 0
M  V30 12244 H 1181.61 -1.43601 -0.90426 0
M  V30 12245 H 1180.38 -3.12223 -2.35866 0
M  V30 12246 H 1180 -1.85653 -3.51594 0
M  V30 12247 N 1181 1.07532 -1.15215 0
M  V30 12248 C 1181.93 2.14598 -0.805006 0
M  V30 12249 C 1182.95 1.61778 0.182152 0
M  V30 12250 O 1184.14 1.78453 -0.040834 0
M  V30 12251 C 1181.24 3.38444 -0.175736 0
M  V30 12252 C 1180.41 4.20621 -1.19986 0
M  V30 12253 C 1179.47 5.22851 -0.592705 0
M  V30 12254 O 1178.49 5.55121 -1.25815 0
M  V30 12255 N 1179.7 5.7711 0.626425 0
M  V30 12256 H 1182.46 2.44981 -1.7264 0
M  V30 12257 H 1180.02 1.23423 -1.04778 0
M  V30 12258 H 1182.01 4.03969 0.243166 0
M  V30 12259 H 1180.58 3.0579 0.64896 0
M  V30 12260 H 1179.8 3.50941 -1.79539 0
M  V30 12261 H 1181.09 4.72339 -1.89139 0
M  V30 12262 H 1180.49 5.53139 1.18546 0
M  V30 12263 H 1179.05 6.44273 0.98771 0
M  V30 12264 N 1182.48 0.948665 1.2585 0
M  V30 12265 C 1183.73 0.595938 1.92695 0
M  V30 12266 C 1184.04 -0.870229 1.75175 0
M  V30 12267 O 1185.25 -1.33266 2.36543 0
M  V30 12268 C 1183.7 1.01511 3.45288 0
M  V30 12269 C 1183.31 2.50341 3.71528 0
M  V30 12270 C 1185.06 0.734635 4.18095 0
M  V30 12271 C 1182.96 2.8609 5.17597 0
M  V30 12272 H 1181.89 0.219171 0.721443 0
M  V30 12273 H 1184.54 1.15231 1.42807 0
M  V30 12274 H 1182.93 0.387201 3.94102 0
M  V30 12275 H 1184.1 3.18101 3.3339 0
M  V30 12276 H 1182.42 2.75797 3.11969 0
M  V30 12277 H 1185.01 0.977962 5.25681 0
M  V30 12278 H 1185.36 -0.328807 4.14999 0
M  V30 12279 H 1185.89 1.32262 3.75169 0
M  V30 12280 H 1182.63 3.91427 5.25799 0
M  V30 12281 H 1182.15 2.22999 5.56805 0
M  V30 12282 H 1183.83 2.74959 5.85668 0
M  V30 12283 N 1183.96 -1.40369 0.716545 0
M  V30 12284 C 1185.21 -2.00473 0.255959 0
M  V30 12285 C 1185.53 -1.57104 -1.15514 0
M  V30 12286 O 1184.8 -0.810925 -1.78328 0
M  V30 12287 H 1183.38 -0.741357 0.0916427 0
M  V30 12288 H 1186.04 -1.71692 0.922389 0
M  V30 12289 H 1185.14 -3.10752 0.289806 0
M  V30 12290 N 1185.44 -0.462799 -1.50652 0
M  V30 12291 C 1186.71 0.156221 -1.94975 0
M  V30 12292 C 1187.09 1.5775 -1.40279 0
M  V30 12293 O 1186.44 2.20473 -0.600323 0
M  V30 12294 C 1186.65 0.108008 -3.48833 0
M  V30 12295 C 1188 0.301013 -4.23532 0
M  V30 12296 O 1189.02 0.184973 -3.55719 0
M  V30 12297 O 1187.88 0.534457 -5.4388 0
M  V30 12298 H 1184.98 0.116182 -0.818798 0
M  V30 12299 H 1187.52 -0.522607 -1.61453 0
M  V30 12300 H 1186.29 -0.884634 -3.81169 0
M  V30 12301 H 1185.92 0.828653 -3.88869 0
M  V30 12302 N 1186.91 1.56388 -0.195085 0
M  V30 12303 C 1188.14 2.02406 0.452399 0
M  V30 12304 C 1188.56 1.07432 1.54402 0
M  V30 12305 O 1187.92 0.0578246 1.81208 0
M  V30 12306 C 1187.97 3.46864 0.985778 0
M  V30 12307 O 1187.07 3.55007 2.09867 0
M  V30 12308 H 1186.42 0.65553 0.105719 0
M  V30 12309 H 1188.95 2.02299 -0.30596 0
M  V30 12310 H 1188.96 3.86655 1.30238 0
M  V30 12311 H 1187.63 4.15481 0.186662 0
M  V30 12312 H 1186.21 3.2709 1.79071 0
M  V30 12313 N 1188.39 -0.0785156 1.57404 0
M  V30 12314 C 1189.32 -1.09446 2.06262 0
M  V30 12315 C 1190.3 -1.40777 0.954772 0
M  V30 12316 O 1191.49 -1.5052 1.22708 0
M  V30 12317 C 1188.62 -2.40979 2.50093 0
M  V30 12318 C 1187.57 -2.24017 3.64692 0
M  V30 12319 C 1186.9 -3.60873 3.94556 0
M  V30 12320 C 1188.2 -1.66696 4.94985 0
M  V30 12321 H 1189.89 -0.687928 2.9139 0
M  V30 12322 H 1187.44 -0.329466 1.4018 0
M  V30 12323 H 1189.39 -3.12337 2.82884 0
M  V30 12324 H 1188.12 -2.83599 1.61985 0
M  V30 12325 H 1186.77 -1.55101 3.32174 0
M  V30 12326 H 1186.42 -4.01051 3.0359 0
M  V30 12327 H 1186.12 -3.50365 4.71718 0
M  V30 12328 H 1187.65 -4.33673 4.29837 0
M  V30 12329 H 1189.06 -2.27913 5.2605 0
M  V30 12330 H 1187.46 -1.66902 5.76423 0
M  V30 12331 H 1188.53 -0.627827 4.80818 0
M  V30 12332 N 1189.87 -1.5367 -0.349747 0
M  V30 12333 C 1191.1 -1.74294 -1.10928 0
M  V30 12334 C 1191.51 -0.479102 -1.83033 0
M  V30 12335 O 1190.85 0.558621 -1.75 0
M  V30 12336 C 1190.91 -2.86457 -2.17216 0
M  V30 12337 C 1190.58 -4.26274 -1.6474 0
M  V30 12338 C 1191.57 -5.08065 -1.10302 0
M  V30 12339 C 1189.26 -4.72739 -1.69774 0
M  V30 12340 C 1191.25 -6.34417 -0.615938 0
M  V30 12341 C 1188.94 -5.99066 -1.20678 0
M  V30 12342 C 1189.94 -6.79737 -0.6668 0
M  V30 12343 O 1189.63 -8.03691 -0.183143 0
M  V30 12344 H 1189.36 -0.586046 -0.336937 0
M  V30 12345 H 1191.91 -2.01274 -0.409645 0
M  V30 12346 H 1190.14 -2.54988 -2.9072 0
M  V30 12347 H 1191.83 -2.95109 -2.78686 0
M  V30 12348 H 1192.6 -4.73333 -1.05739 0
M  V30 12349 H 1188.48 -4.1001 -2.10744 0
M  V30 12350 H 1192.02 -6.97331 -0.193795 0
M  V30 12351 H 1187.92 -6.33293 -1.24939 0
M  V30 12352 H 1188.69 -8.17946 -0.301008 0
M  V30 12353 N 1191.35 0.610423 -1.45298 0
M  V30 12354 C 1192.57 1.40112 -1.52917 0
M  V30 12355 C 1193 1.87404 -0.161696 0
M  V30 12356 O 1192.36 1.59973 0.853135 0
M  V30 12357 C 1192.4 2.58359 -2.51561 0
M  V30 12358 O 1191.51 3.58895 -2.03146 0
M  V30 12359 H 1190.85 0.41841 -0.515586 0
M  V30 12360 H 1193.38 0.743159 -1.90626 0
M  V30 12361 H 1193.39 3.0564 -2.70275 0
M  V30 12362 H 1192.06 2.23286 -3.50879 0
M  V30 12363 H 1190.64 3.18282 -1.94296 0
M  V30 12364 N 1192.83 1.32541 0.852676 0
M  V30 12365 C 1193.79 1.21578 1.94297 0
M  V30 12366 C 1194.79 0.138318 1.60204 0
M  V30 12367 O 1195.98 0.388864 1.69804 0
M  V30 12368 C 1193.11 0.870209 3.29606 0
M  V30 12369 H 1194.3 2.18476 2.05446 0
M  V30 12370 H 1191.86 1.16401 1.0431 0
M  V30 12371 H 1192.59 -0.0968698 3.24155 0
M  V30 12372 H 1192.38 1.64924 3.55728 0
M  V30 12373 H 1193.87 0.817874 4.09513 0
M  V30 12374 N 1194.3 -1.0692 1.15784 0
M  V30 12375 C 1195.24 -2.13637 0.802141 0
M  V30 12376 C 1196.22 -1.61058 -0.223384 0
M  V30 12377 O 1197.4 -1.88185 -0.108927 0
M  V30 12378 C 1194.53 -3.38146 0.193568 0
M  V30 12379 C 1193.57 -4.09513 1.19169 0
M  V30 12380 S 1194.41 -4.60351 2.73564 0
M  V30 12381 C 1195.56 -5.88129 2.14138 0
M  V30 12382 H 1195.79 -2.4348 1.70601 0
M  V30 12383 H 1193.33 -1.19259 0.980646 0
M  V30 12384 H 1195.29 -4.10222 -0.151106 0
M  V30 12385 H 1193.95 -3.06473 -0.687968 0
M  V30 12386 H 1193.14 -4.98914 0.714183 0
M  V30 12387 H 1192.74 -3.43422 1.48113 0
M  V30 12388 H 1195.03 -6.60547 1.50614 0
M  V30 12389 H 1195.98 -6.406 3.01724 0
M  V30 12390 H 1196.38 -5.41859 1.5827 0
M  V30 12391 N 1195.78 -0.955326 -1.25345 0
M  V30 12392 C 1197.01 -0.627693 -1.97149 0
M  V30 12393 C 1197.43 0.800349 -1.70997 0
M  V30 12394 O 1196.78 1.53545 -0.986417 0
M  V30 12395 C 1196.83 -0.877675 -3.50684 0
M  V30 12396 O 1196.55 -2.24957 -3.75934 0
M  V30 12397 C 1198.06 -0.562524 -4.39716 0
M  V30 12398 H 1195.28 -0.235269 -0.628402 0
M  V30 12399 H 1197.82 -1.27989 -1.59496 0
M  V30 12400 H 1195.97 -0.271878 -3.86445 0
M  V30 12401 H 1196.39 -2.32022 -4.70389 0
M  V30 12402 H 1197.86 -0.787972 -5.46347 0
M  V30 12403 H 1198.34 0.50293 -4.36311 0
M  V30 12404 H 1198.95 -1.14767 -4.09522 0
M  V30 12405 N 1197.26 1.39987 -0.723979 0
M  V30 12406 C 1198.51 2.01028 -0.267511 0
M  V30 12407 C 1198.84 1.57295 1.13894 0
M  V30 12408 O 1198.12 0.796805 1.7743 0
M  V30 12409 C 1198.4 3.58326 -0.356971 0
M  V30 12410 C 1198.25 4.12109 -1.8024 0
M  V30 12411 C 1199.57 4.39289 0.267003 0
M  V30 12412 H 1196.69 0.730364 -0.0986775 0
M  V30 12413 H 1199.33 1.66348 -0.91806 0
M  V30 12414 H 1197.48 3.88001 0.196908 0
M  V30 12415 H 1199.15 3.93199 -2.41231 0
M  V30 12416 H 1197.4 3.66082 -2.32737 0
M  V30 12417 H 1198.07 5.21261 -1.81634 0
M  V30 12418 H 1200.54 4.15595 -0.20503 0
M  V30 12419 H 1199.42 5.48624 0.174004 0
M  V30 12420 H 1199.68 4.20931 1.35164 0
M  V30 12421 N 1198.74 0.470782 1.50404 0
M  V30 12422 C 1200.02 -0.145879 1.95055 0
M  V30 12423 C 1200.4 -1.57004 1.41114 0
M  V30 12424 O 1199.74 -2.20152 0.612006 0
M  V30 12425 C 1199.95 -0.0895071 3.48885 0
M  V30 12426 C 1201.3 -0.278548 4.23685 0
M  V30 12427 O 1202.33 -0.166105 3.55812 0
M  V30 12428 O 1201.19 -0.505606 5.44156 0
M  V30 12429 H 1198.28 -0.111838 0.819403 0
M  V30 12430 H 1200.83 0.531162 1.61173 0
M  V30 12431 H 1199.6 0.904836 3.80695 0
M  V30 12432 H 1199.22 -0.808019 3.89303 0
M  V30 12433 N 1200.22 -1.56282 0.203376 0
M  V30 12434 C 1201.49 -1.89587 -0.481256 0
M  V30 12435 C 1201.87 -1.11812 -1.79057 0
M  V30 12436 O 1201.22 -0.221759 -2.27421 0
M  V30 12437 C 1201.43 -3.42071 -0.691965 0
M  V30 12438 C 1202.78 -4.12471 -1.00761 0
M  V30 12439 O 1203.8 -3.47568 -0.779396 0
M  V30 12440 O 1202.66 -5.27194 -1.43974 0
M  V30 12441 H 1199.76 -0.787682 -0.251963 0
M  V30 12442 H 1202.3 -1.67934 0.244207 0
M  V30 12443 H 1201.08 -3.9061 0.232322 0
M  V30 12444 H 1200.7 -3.69444 -1.46958 0
M  V30 12445 N 1201.7 0.070167 -1.57444 0
M  V30 12446 C 1202.94 0.769014 -1.8733 0
M  V30 12447 C 1203.27 1.77496 -0.79533 0
M  V30 12448 O 1202.53 1.94586 0.208495 0
M  V30 12449 C 1202.82 1.5111 -3.23883 0
M  V30 12450 C 1202.49 0.644988 -4.46263 0
M  V30 12451 C 1201.15 0.406307 -4.79482 0
M  V30 12452 C 1203.5 0.0444938 -5.21181 0
M  V30 12453 C 1200.83 -0.442322 -5.8503 0
M  V30 12454 C 1203.18 -0.791599 -6.27628 0
M  V30 12455 C 1201.85 -1.04014 -6.59346 0
M  V30 12456 H 1201.12 0.281402 -0.685488 0
M  V30 12457 H 1203.77 0.029752 -1.91477 0
M  V30 12458 H 1202.07 2.32261 -3.15535 0
M  V30 12459 H 1203.77 2.05665 -3.44242 0
M  V30 12460 H 1200.36 0.841148 -4.20265 0
M  V30 12461 H 1204.54 0.216005 -4.9583 0
M  V30 12462 H 1199.8 -0.643607 -6.08003 0
M  V30 12463 H 1203.97 -1.26363 -6.8484 0
M  V30 12464 H 1201.6 -1.69949 -7.4096 0
M  V30 12465 N 1203.17 1.53854 0.341593 0
M  V30 12466 C 1204.42 1.70856 1.07948 0
M  V30 12467 C 1204.74 0.475474 1.89114 0
M  V30 12468 O 1204.01 -0.510592 1.89129 0
M  V30 12469 H 1202.59 0.629914 0.401519 0
M  V30 12470 H 1205.25 1.91112 0.382393 0
M  V30 12471 H 1204.35 2.5803 1.75575 0
M  V30 12472 N 1204.65 -0.602709 1.4562 0
M  V30 12473 C 1205.9 -1.36359 1.50113 0
M  V30 12474 C 1206.23 -1.93663 0.144297 0
M  V30 12475 O 1205.51 -1.75337 -0.841851 0
M  V30 12476 C 1205.79 -2.50788 2.58413 0
M  V30 12477 C 1205.64 -1.98649 4.03557 0
M  V30 12478 C 1206.96 -3.52905 2.62957 0
M  V30 12479 H 1204.08 -0.494455 0.54652 0
M  V30 12480 H 1206.72 -0.678957 1.77455 0
M  V30 12481 H 1204.87 -3.09191 2.3523 0
M  V30 12482 H 1206.54 -1.44857 4.37966 0
M  V30 12483 H 1204.79 -1.29615 4.13984 0
M  V30 12484 H 1205.46 -2.81159 4.7503 0
M  V30 12485 H 1207.93 -3.0435 2.83743 0
M  V30 12486 H 1206.81 -4.30454 3.40589 0
M  V30 12487 H 1207.07 -4.0884 1.68233 0
M  V30 12488 N 1206.13 -1.32992 -0.845635 0
M  V30 12489 C 1207.06 -1.25301 -1.97033 0
M  V30 12490 C 1208.04 -0.134966 -1.69564 0
M  V30 12491 O 1209.23 -0.323629 -1.91484 0
M  V30 12492 C 1206.36 -0.984551 -3.33052 0
M  V30 12493 C 1205.31 -2.06481 -3.749 0
M  V30 12494 C 1204.64 -1.6486 -5.08651 0
M  V30 12495 C 1205.94 -3.48083 -3.89404 0
M  V30 12496 H 1207.63 -2.194 -2.03725 0
M  V30 12497 H 1205.18 -1.05621 -0.978783 0
M  V30 12498 H 1207.13 -0.917269 -4.11296 0
M  V30 12499 H 1205.85 -0.00793116 -3.26599 0
M  V30 12500 H 1204.51 -2.1224 -2.98915 0
M  V30 12501 H 1204.16 -0.659183 -4.98662 0
M  V30 12502 H 1203.86 -2.37145 -5.37621 0
M  V30 12503 H 1205.38 -1.59585 -5.89377 0
M  V30 12504 H 1206.8 -3.44863 -4.57976 0
M  V30 12505 H 1205.19 -4.18796 -4.29802 0
M  V30 12506 H 1206.26 -3.87084 -2.92051 0
M  V30 12507 N 1207.61 1.06304 -1.1635 0
M  V30 12508 C 1208.57 2.11947 -0.872419 0
M  V30 12509 C 1209.57 1.60253 0.132534 0
M  V30 12510 O 1210.76 1.73922 -0.0983441 0
M  V30 12511 C 1207.89 3.39536 -0.304646 0
M  V30 12512 H 1209.09 2.39201 -1.80894 0
M  V30 12513 H 1206.64 1.22367 -0.972419 0
M  V30 12514 H 1207.37 3.17931 0.639565 0
M  V30 12515 H 1207.16 3.78363 -1.02878 0
M  V30 12516 H 1208.65 4.17431 -0.118936 0
M  V30 12517 N 1209.09 0.96196 1.24836 0
M  V30 12518 C 1210.33 0.621634 1.93038 0
M  V30 12519 C 1210.66 -0.840257 1.75081 0
M  V30 12520 O 1209.94 -1.60381 1.10038 0
M  V30 12521 C 1210.22 0.990107 3.46221 0
M  V30 12522 C 1210.08 2.50827 3.73371 0
M  V30 12523 C 1211.39 0.520478 4.37011 0
M  V30 12524 H 1208.51 0.227312 0.701069 0
M  V30 12525 H 1211.16 1.19993 1.47315 0
M  V30 12526 H 1209.31 0.498008 3.85295 0
M  V30 12527 H 1210.98 3.07469 3.4389 0
M  V30 12528 H 1209.22 2.94277 3.18722 0
M  V30 12529 H 1209.89 2.71659 4.80526 0
M  V30 12530 H 1212.37 0.942703 4.05281 0
M  V30 12531 H 1211.24 0.806918 5.42937 0
M  V30 12532 H 1211.5 -0.579507 4.38285 0
M  V30 12533 N 1210.56 -1.39601 0.731392 0
M  V30 12534 C 1211.98 -1.54334 0.406594 0
M  V30 12535 C 1212.18 -1.69925 -1.08295 0
M  V30 12536 O 1211.24 -1.69771 -1.86906 0
M  V30 12537 C 1212.55 -2.76303 1.18647 0
M  V30 12538 C 1214.1 -2.90135 1.17433 0
M  V30 12539 C 1214.57 -4.15038 1.93669 0
M  V30 12540 N 1216.06 -4.2207 1.90817 0
M  V30 12541 C 1216.8 -5.17656 2.46616 0
M  V30 12542 N 1216.29 -6.19054 3.11037 0
M  V30 12543 N 1218.09 -5.09847 2.3667 0
M  V30 12544 H 1210.24 -1.27728 1.69703 0
M  V30 12545 H 1212.5 -0.6188 0.718186 0
M  V30 12546 H 1212.21 -2.71113 2.24032 0
M  V30 12547 H 1212.08 -3.68866 0.788514 0
M  V30 12548 H 1214.47 -2.9482 0.128615 0
M  V30 12549 H 1214.55 -1.98646 1.61163 0
M  V30 12550 H 1214.19 -4.11115 2.9824 0
M  V30 12551 H 1214.12 -5.05565 1.47349 0
M  V30 12552 H 1216.61 -3.49437 1.43882 0
M  V30 12553 H 1216.93 -6.88444 3.51091 0
M  V30 12554 H 1215.27 -6.19452 3.15126 0
M  V30 12555 H 1218.46 -4.29566 1.85987 0
M  V30 12556 H 1218.64 -5.84165 2.80455 0
M  V30 12557 N 1212.04 -0.478751 -1.50152 0
M  V30 12558 C 1213.29 0.073694 -2.02666 0
M  V30 12559 C 1213.62 1.38679 -1.35947 0
M  V30 12560 O 1212.9 1.88286 -0.4877 0
M  V30 12561 C 1213.18 0.249516 -3.59235 0
M  V30 12562 C 1213.03 -1.08514 -4.36514 0
M  V30 12563 C 1214.35 1.00053 -4.28576 0
M  V30 12564 H 1211.47 0.0253082 -0.736565 0
M  V30 12565 H 1214.11 -0.625834 -1.79397 0
M  V30 12566 H 1212.26 0.845343 -3.79192 0
M  V30 12567 H 1213.93 -1.71814 -4.28109 0
M  V30 12568 H 1212.18 -1.67992 -3.99952 0
M  V30 12569 H 1212.85 -0.915676 -5.44352 0
M  V30 12570 H 1215.32 0.495422 -4.1314 0
M  V30 12571 H 1214.2 1.09236 -5.37921 0
M  V30 12572 H 1214.46 2.03896 -3.92274 0
M  V30 12573 N 1213.52 1.56172 -0.211661 0
M  V30 12574 C 1214.77 1.98332 0.423332 0
M  V30 12575 C 1215.1 1.09895 1.60115 0
M  V30 12576 O 1214.37 0.154477 1.93886 0
M  V30 12577 C 1214.66 3.49495 0.86747 0
M  V30 12578 C 1214.51 4.48708 -0.313302 0
M  V30 12579 C 1215.83 4.04793 1.72716 0
M  V30 12580 H 1212.95 0.72107 0.152402 0
M  V30 12581 H 1215.59 1.87521 -0.305912 0
M  V30 12582 H 1213.74 3.58839 1.48885 0
M  V30 12583 H 1215.41 4.51385 -0.951291 0
M  V30 12584 H 1213.66 4.2299 -0.96238 0
M  V30 12585 H 1214.33 5.51985 0.0402402 0
M  V30 12586 H 1216.8 3.98332 1.20296 0
M  V30 12587 H 1215.68 5.10898 2.00684 0
M  V30 12588 H 1215.94 3.51067 2.68709 0
M  V30 12589 N 1215 -0.0618163 1.57479 0
M  V30 12590 C 1215.95 -1.09105 2.05424 0
M  V30 12591 C 1216.94 -1.3947 0.961479 0
M  V30 12592 O 1218.15 -1.3876 1.14655 0
M  V30 12593 H 1214.52 -0.36923 0.655113 0
M  V30 12594 H 1216.49 -0.66061 2.90996 0
M  V30 12595 C 1215.24 -2.39345 2.52209 0
M  V30 12596 H 1214.56 -2.16832 3.35893 0
M  V30 12597 H 1216 -3.09784 2.89499 0
M  V30 12598 C 1214.46 -3.06011 1.40922 0
M  V30 12599 O 1214.99 -3.94504 0.756921 0
M  V30 12600 N 1213.2 -2.66797 1.15186 0
M  V30 12601 H 1212.75 -1.94923 1.68412 0
M  V30 12602 H 1212.7 -3.11724 0.409324 0
M  V30 12603 N 1216.48 -1.54033 -0.333429 0
M  V30 12604 C 1217.75 -1.62404 -1.09015 0
M  V30 12605 C 1218.13 -0.451653 -2.06212 0
M  V30 12606 O 1217.48 0.555086 -2.21655 0
M  V30 12607 C 1217.69 -2.98949 -1.80085 0
M  V30 12608 C 1219.04 -3.54655 -2.33464 0
M  V30 12609 O 1220.06 -3.0119 -1.90166 0
M  V30 12610 O 1218.92 -4.48195 -3.12703 0
M  V30 12611 H 1216.02 -0.65727 -0.501921 0
M  V30 12612 H 1218.56 -1.66378 -0.33411 0
M  V30 12613 H 1217.33 -3.75716 -1.09332 0
M  V30 12614 H 1216.96 -2.98609 -2.62523 0
M  V30 12615 N 1217.95 0.594978 -1.45938 0
M  V30 12616 C 1218.9 1.69949 -1.51991 0
M  V30 12617 C 1219.89 1.56301 -0.381956 0
M  V30 12618 O 1221.08 1.65423 -0.62961 0
M  V30 12619 C 1218.21 3.08723 -1.5015 0
M  V30 12620 C 1217.3 3.27712 -2.69194 0
M  V30 12621 N 1217.69 3.1691 -3.9421 0
M  V30 12622 C 1215.98 3.58618 -2.65158 0
M  V30 12623 C 1216.69 3.37572 -4.7373 0
M  V30 12624 N 1215.66 3.62154 -4.05395 0
M  V30 12625 H 1219.46 1.60109 -2.46459 0
M  V30 12626 H 1216.98 0.798634 -1.41406 0
M  V30 12627 H 1218.97 3.87978 -1.52573 0
M  V30 12628 H 1217.63 3.19702 -0.567488 0
M  V30 12629 H 1218.65 2.95039 -4.25643 0
M  V30 12630 H 1215.32 3.76358 -1.80724 0
M  V30 12631 H 1216.71 3.34507 -5.82713 0
M  V30 12632 N 1219.43 1.33438 0.838571 0
M  V30 12633 C 1220.38 1.23698 1.96981 0
M  V30 12634 C 1221.37 0.138299 1.68835 0
M  V30 12635 O 1222.58 0.302278 1.77444 0
M  V30 12636 H 1218.96 0.383874 0.646641 0
M  V30 12637 H 1220.93 2.19337 2.02321 0
M  V30 12638 C 1219.68 0.993362 3.33208 0
M  V30 12639 H 1219 1.83104 3.55405 0
M  V30 12640 H 1220.44 0.965517 4.1286 0
M  V30 12641 C 1218.9 -0.303701 3.35528 0
M  V30 12642 O 1219.43 -1.3103 3.79729 0
M  V30 12643 N 1217.63 -0.331342 2.88705 0
M  V30 12644 H 1217.18 0.488351 2.52929 0
M  V30 12645 H 1217.14 -1.199 2.9064 0
M  V30 12646 N 1220.91 -1.05686 1.16912 0
M  V30 12647 C 1222.32 -1.60059 0.961153 0
M  V30 12648 C 1222.67 -1.89894 -0.493409 0
M  V30 12649 O 1221.8 -1.67692 -1.36778 0
M  V30 12650 C 1222.39 -2.90803 1.73837 0
M  V30 12651 C 1220.95 -3.41854 1.57522 0
M  V30 12652 C 1220.1 -2.15658 1.74319 0
M  V30 12653 H 1223.05 -0.885592 1.31693 0
M  V30 12654 H 1223.07 -3.60485 1.21781 0
M  V30 12655 H 1222.58 -2.69056 2.79697 0
M  V30 12656 H 1220.68 -3.68647 0.541284 0
M  V30 12657 H 1220.8 -4.16771 2.36302 0
M  V30 12658 H 1219.16 -2.26177 1.17115 0
M  V30 12659 H 1219.94 -1.96386 2.8158 0
M  V30 12660 N 1222.39 -0.968567 -1.24324 0
M  V30 12661 C 1223.62 -0.648568 -1.96472 0
M  V30 12662 C 1224.03 0.782168 -1.71836 0
M  V30 12663 O 1223.39 1.5249 -1.00265 0
M  V30 12664 C 1223.44 -0.91482 -3.49733 0
M  V30 12665 O 1223.16 -2.28931 -3.73527 0
M  V30 12666 C 1224.66 -0.609131 -4.39095 0
M  V30 12667 H 1221.88 -0.241921 -0.625872 0
M  V30 12668 H 1224.43 -1.29673 -1.5813 0
M  V30 12669 H 1222.58 -0.31285 -3.86135 0
M  V30 12670 H 1222.99 -2.36998 -4.67902 0
M  V30 12671 H 1224.47 -0.845875 -5.4548 0
M  V30 12672 H 1224.95 0.456625 -4.3682 0
M  V30 12673 H 1225.55 -1.19105 -4.08282 0
M  V30 12674 N 1223.87 1.39211 -0.738786 0
M  V30 12675 C 1224.81 2.30578 -0.10129 0
M  V30 12676 C 1225.78 1.49412 0.725616 0
M  V30 12677 O 1226.97 1.78087 0.684799 0
M  V30 12678 C 1224.11 3.35767 0.797161 0
M  V30 12679 C 1223.22 4.31979 -0.0427701 0
M  V30 12680 C 1222.36 5.24236 0.857306 0
M  V30 12681 C 1221.4 6.12099 0.0128501 0
M  V30 12682 N 1220.53 6.96701 0.869067 0
M  V30 12683 H 1225.37 2.84522 -0.88606 0
M  V30 12684 H 1222.91 1.40093 -0.448602 0
M  V30 12685 H 1224.87 3.95347 1.33255 0
M  V30 12686 H 1223.5 2.83268 1.54787 0
M  V30 12687 H 1222.55 3.73986 -0.695622 0
M  V30 12688 H 1223.86 4.93927 -0.69555 0
M  V30 12689 H 1223.02 5.88861 1.4604 0
M  V30 12690 H 1221.75 4.62619 1.54386 0
M  V30 12691 H 1220.76 5.46483 -0.603018 0
M  V30 12692 H 1221.98 6.75781 -0.67054 0
M  V30 12693 H 1219.93 6.37647 1.54084 0
M  V30 12694 H 1219.85 7.55507 0.272852 0
M  V30 12695 H 1221.12 7.65751 1.4576 0
M  V30 12696 N 1225.34 0.486708 1.49896 0
M  V30 12697 C 1226.59 -0.0629451 2.02702 0
M  V30 12698 C 1226.92 -1.37956 1.36681 0
M  V30 12699 O 1226.2 -1.88025 0.497678 0
M  V30 12700 C 1226.48 -0.230461 3.59362 0
M  V30 12701 C 1226.33 1.10828 4.35933 0
M  V30 12702 C 1227.65 -0.977785 4.29101 0
M  V30 12703 H 1224.77 -0.0214017 0.736689 0
M  V30 12704 H 1227.41 0.635339 1.79063 0
M  V30 12705 H 1225.56 -0.825222 3.79634 0
M  V30 12706 H 1227.24 1.74082 4.27192 0
M  V30 12707 H 1225.48 1.7011 3.99055 0
M  V30 12708 H 1226.15 0.944532 5.43859 0
M  V30 12709 H 1228.63 -0.473505 4.13397 0
M  V30 12710 H 1227.5 -1.06382 5.38492 0
M  V30 12711 H 1227.76 -2.01813 3.9335 0
M  V30 12712 N 1226.82 -1.56058 0.219941 0
M  V30 12713 C 1228.05 -2.02652 -0.417101 0
M  V30 12714 C 1228.47 -1.09977 -1.53461 0
M  V30 12715 O 1227.82 -0.109088 -1.82174 0
M  V30 12716 C 1227.87 -3.48787 -0.950244 0
M  V30 12717 O 1227.6 -4.37928 0.12271 0
M  V30 12718 C 1229.1 -4.11018 -1.66069 0
M  V30 12719 H 1226.32 -0.663163 -0.102254 0
M  V30 12720 H 1228.86 -2.01722 0.335923 0
M  V30 12721 H 1227.02 -3.50338 -1.65355 0
M  V30 12722 H 1227.43 -5.23764 -0.277785 0
M  V30 12723 H 1228.9 -5.15046 -1.98575 0
M  V30 12724 H 1229.38 -3.55921 -2.57326 0
M  V30 12725 H 1229.99 -4.13313 -1.00263 0
M  V30 12726 N 1228.3 0.053464 -1.57509 0
M  V30 12727 C 1229.53 0.765301 -1.92764 0
M  V30 12728 C 1229.95 1.69385 -0.817943 0
M  V30 12729 O 1229.31 1.7986 0.228075 0
M  V30 12730 C 1229.36 1.51938 -3.27028 0
M  V30 12731 O 1228.46 2.63121 -3.17555 0
M  V30 12732 H 1227.8 0.207567 -0.630723 0
M  V30 12733 H 1230.33 0.0162254 -2.04594 0
M  V30 12734 H 1230.34 1.89466 -3.6134 0
M  V30 12735 H 1229.02 0.838207 -4.07366 0
M  V30 12736 H 1227.59 2.28316 -2.94832 0
M  V30 12737 N 1229.78 1.54207 0.325255 0
M  V30 12738 C 1230.73 1.83474 1.40021 0
M  V30 12739 C 1231.7 0.681719 1.51466 0
M  V30 12740 O 1232.88 0.92798 1.66713 0
M  V30 12741 C 1230.02 2.06624 2.76407 0
M  V30 12742 C 1229.13 3.3431 2.73607 0
M  V30 12743 C 1228.27 3.4743 4.01828 0
M  V30 12744 C 1227.31 4.68997 3.93329 0
M  V30 12745 N 1226.45 4.79052 5.13277 0
M  V30 12746 H 1231.29 2.75182 1.14363 0
M  V30 12747 H 1228.82 1.36284 0.553639 0
M  V30 12748 H 1230.78 2.18037 3.5569 0
M  V30 12749 H 1229.41 1.18209 3.00377 0
M  V30 12750 H 1228.46 3.31643 1.86324 0
M  V30 12751 H 1229.77 4.237 2.6321 0
M  V30 12752 H 1228.93 3.58376 4.89542 0
M  V30 12753 H 1227.67 2.56128 4.1503 0
M  V30 12754 H 1226.67 4.58109 3.04 0
M  V30 12755 H 1227.9 5.61681 3.81695 0
M  V30 12756 H 1225.84 3.90666 5.26988 0
M  V30 12757 H 1225.76 5.62406 5.05208 0
M  V30 12758 H 1227.03 4.94328 6.02711 0
M  V30 12759 N 1231.26 -0.58723 1.46251 0
M  V30 12760 C 1232.5 -1.3476 1.51551 0
M  V30 12761 C 1232.84 -1.93499 0.16483 0
M  V30 12762 O 1232.11 -1.7622 -0.823207 0
M  V30 12763 C 1232.39 -2.48033 2.61059 0
M  V30 12764 C 1232.25 -1.94358 4.05642 0
M  V30 12765 C 1233.57 -3.50096 2.66685 0
M  V30 12766 H 1230.69 -0.48863 0.551733 0
M  V30 12767 H 1233.33 -0.660097 1.78165 0
M  V30 12768 H 1231.48 -3.06679 2.38496 0
M  V30 12769 H 1233.15 -1.40204 4.39478 0
M  V30 12770 H 1231.39 -1.25217 4.15335 0
M  V30 12771 H 1232.06 -2.76105 4.77986 0
M  V30 12772 H 1234.54 -3.01324 2.86955 0
M  V30 12773 H 1233.42 -4.26817 3.45135 0
M  V30 12774 H 1233.68 -4.07032 1.7256 0
M  V30 12775 N 1232.74 -1.33881 -0.831482 0
M  V30 12776 C 1234.15 -1.13376 -1.1233 0
M  V30 12777 C 1234.35 0.0704402 -2.01377 0
M  V30 12778 O 1233.41 0.748516 -2.4115 0
M  V30 12779 C 1234.72 -2.42484 -1.77826 0
M  V30 12780 C 1236.27 -2.4846 -1.90359 0
M  V30 12781 C 1236.74 -3.77548 -2.59272 0
M  V30 12782 N 1238.23 -3.7866 -2.66778 0
M  V30 12783 C 1238.97 -4.75258 -3.20807 0
M  V30 12784 N 1238.47 -5.82234 -3.75466 0
M  V30 12785 N 1240.26 -4.62724 -3.19128 0
M  V30 12786 H 1232.41 -2.11051 -0.238998 0
M  V30 12787 H 1234.67 -0.932893 -0.168565 0
M  V30 12788 H 1234.38 -3.30647 -1.19857 0
M  V30 12789 H 1234.25 -2.55186 -2.77777 0
M  V30 12790 H 1236.64 -1.60742 -2.47479 0
M  V30 12791 H 1236.72 -2.39693 -0.893359 0
M  V30 12792 H 1236.36 -4.65651 -2.02808 0
M  V30 12793 H 1236.29 -3.83594 -3.60781 0
M  V30 12794 H 1238.79 -3.01351 -2.28026 0
M  V30 12795 H 1239.1 -6.51968 -4.14918 0
M  V30 12796 H 1237.44 -5.85959 -3.73733 0
M  V30 12797 H 1240.63 -3.78303 -2.75688 0
M  V30 12798 H 1240.81 -5.38175 -3.60932 0
M  V30 12799 N 1234.21 1.05064 -1.1747 0
M  V30 12800 C 1235.46 1.77481 -0.958301 0
M  V30 12801 C 1235.78 1.88725 0.51401 0
M  V30 12802 O 1236.98 2.57895 0.848657 0
M  V30 12803 C 1235.44 3.19048 -1.66543 0
M  V30 12804 C 1235.05 3.1593 -3.17636 0
M  V30 12805 C 1236.79 3.95912 -1.53146 0
M  V30 12806 C 1234.7 4.52293 -3.81032 0
M  V30 12807 H 1233.63 0.665247 -0.354913 0
M  V30 12808 H 1236.28 1.17751 -1.40737 0
M  V30 12809 H 1234.66 3.79113 -1.1441 0
M  V30 12810 H 1235.83 2.65375 -3.76713 0
M  V30 12811 H 1234.15 2.52564 -3.31059 0
M  V30 12812 H 1236.75 4.96737 -1.9788 0
M  V30 12813 H 1237.09 4.13498 -0.482203 0
M  V30 12814 H 1237.62 3.42399 -2.02504 0
M  V30 12815 H 1234.36 4.39913 -4.8596 0
M  V30 12816 H 1233.88 5.02991 -3.26741 0
M  V30 12817 H 1235.56 5.2123 -3.83312 0
M  V30 12818 N 1235.69 0.975146 1.23809 0
M  V30 12819 C 1236.92 0.658023 1.95841 0
M  V30 12820 C 1237.33 -0.778132 1.72458 0
M  V30 12821 O 1236.67 -1.53462 1.00971 0
M  V30 12822 C 1236.73 0.862038 3.49012 0
M  V30 12823 C 1236.4 2.27925 3.96105 0
M  V30 12824 C 1237.4 3.25755 4.05191 0
M  V30 12825 C 1235.08 2.60894 4.29231 0
M  V30 12826 C 1237.07 4.54636 4.46749 0
M  V30 12827 C 1234.76 3.89999 4.70472 0
M  V30 12828 C 1235.76 4.86682 4.79197 0
M  V30 12829 O 1235.45 6.13483 5.19513 0
M  V30 12830 H 1235.18 0.243915 0.630461 0
M  V30 12831 H 1237.73 1.30768 1.58395 0
M  V30 12832 H 1235.96 0.155209 3.86388 0
M  V30 12833 H 1237.65 0.542873 4.02253 0
M  V30 12834 H 1238.42 3.01614 3.79808 0
M  V30 12835 H 1234.3 1.86355 4.21655 0
M  V30 12836 H 1237.84 5.30101 4.53474 0
M  V30 12837 H 1233.74 4.13937 4.95304 0
M  V30 12838 H 1234.51 6.17158 5.37641 0
M  V30 12839 N 1237.17 -1.38817 0.746158 0
M  V30 12840 C 1238.1 -2.28116 0.0620717 0
M  V30 12841 C 1239.08 -1.44984 -0.736097 0
M  V30 12842 O 1240.26 -1.7436 -0.7163 0
M  V30 12843 C 1237.39 -3.25992 -0.919065 0
M  V30 12844 C 1236.44 -4.25992 -0.208033 0
M  V30 12845 S 1237.27 -5.24374 1.08593 0
M  V30 12846 C 1238.43 -6.25807 0.107674 0
M  V30 12847 H 1238.66 -2.85787 0.819331 0
M  V30 12848 H 1236.19 -1.44708 0.538422 0
M  V30 12849 H 1238.15 -3.82899 -1.47982 0
M  V30 12850 H 1236.81 -2.67318 -1.64924 0
M  V30 12851 H 1236 -4.9495 -0.95084 0
M  V30 12852 H 1235.61 -3.72943 0.280998 0
M  V30 12853 H 1237.9 -6.73568 -0.728905 0
M  V30 12854 H 1238.84 -7.03959 0.764698 0
M  V30 12855 H 1239.25 -5.63855 -0.269706 0
M  V30 12856 N 1238.65 -0.49465 -1.49636 0
M  V30 12857 C 1239.59 0.287153 -2.29007 0
M  V30 12858 C 1240.56 0.966099 -1.35114 0
M  V30 12859 O 1241.75 0.973991 -1.64067 0
M  V30 12860 C 1238.89 1.34941 -3.17624 0
M  V30 12861 C 1238 0.682879 -4.26569 0
M  V30 12862 C 1237.14 1.72503 -5.0241 0
M  V30 12863 C 1236.18 1.04003 -6.032 0
M  V30 12864 N 1235.31 2.0261 -6.7223 0
M  V30 12865 H 1240.15 -0.395941 -2.95358 0
M  V30 12866 H 1237.69 -0.207103 -1.45635 0
M  V30 12867 H 1239.65 1.9772 -3.67372 0
M  V30 12868 H 1238.28 2.00135 -2.5327 0
M  V30 12869 H 1237.33 -0.0580477 -3.80356 0
M  V30 12870 H 1238.64 0.143334 -4.98594 0
M  V30 12871 H 1237.8 2.42804 -5.55996 0
M  V30 12872 H 1236.54 2.29843 -4.30144 0
M  V30 12873 H 1235.54 0.322765 -5.48852 0
M  V30 12874 H 1236.77 0.473219 -6.77449 0
M  V30 12875 H 1234.71 2.58922 -6.0274 0
M  V30 12876 H 1234.63 1.53704 -7.4021 0
M  V30 12877 H 1235.9 2.72218 -7.30423 0
M  V30 12878 N 1240.13 1.55939 -0.228214 0
M  V30 12879 C 1241.54 1.84612 0.278417 0
M  V30 12880 C 1241.89 1.14973 1.58983 0
M  V30 12881 O 1241.01 0.421673 2.12252 0
M  V30 12882 C 1241.61 3.3491 0.511935 0
M  V30 12883 C 1240.17 3.63876 0.962861 0
M  V30 12884 C 1239.31 2.77284 0.0296246 0
M  V30 12885 H 1242.26 1.52149 -0.451245 0
M  V30 12886 H 1242.29 3.55477 1.35707 0
M  V30 12887 H 1241.8 3.85567 -0.442697 0
M  V30 12888 H 1239.9 3.18682 1.93062 0
M  V30 12889 H 1240.01 4.71809 0.832659 0
M  V30 12890 H 1238.38 2.48961 0.53763 0
M  V30 12891 H 1239.16 3.30742 -0.920044 0
M  V30 12892 N 1241.6 -0.0451101 1.57535 0
M  V30 12893 C 1242.55 -1.05066 2.05499 0
M  V30 12894 C 1243.52 -1.36884 0.940843 0
M  V30 12895 O 1244.71 -1.47497 1.21034 0
M  V30 12896 C 1241.85 -2.35139 2.52594 0
M  V30 12897 C 1240.96 -2.0962 3.77735 0
M  V30 12898 C 1240.09 -3.33447 4.13505 0
M  V30 12899 C 1239.13 -3.03411 5.31609 0
M  V30 12900 N 1238.27 -4.19644 5.62888 0
M  V30 12901 H 1243.11 -0.63469 2.91163 0
M  V30 12902 H 1240.65 -0.30179 1.43971 0
M  V30 12903 H 1242.61 -3.11118 2.7796 0
M  V30 12904 H 1241.24 -2.74489 1.69869 0
M  V30 12905 H 1240.29 -1.24211 3.59549 0
M  V30 12906 H 1241.6 -1.83452 4.63839 0
M  V30 12907 H 1240.75 -4.17805 4.39914 0
M  V30 12908 H 1239.49 -3.62715 3.2602 0
M  V30 12909 H 1238.5 -2.17453 5.04969 0
M  V30 12910 H 1239.72 -2.75438 6.20734 0
M  V30 12911 H 1237.67 -4.48893 4.78363 0
M  V30 12912 H 1237.59 -3.96843 6.43468 0
M  V30 12913 H 1238.85 -5.04921 5.93865 0
M  V30 12914 N 1243.08 -1.54377 -0.317073 0
M  V30 12915 C 1244.03 -1.80597 -1.39172 0
M  V30 12916 C 1245.02 -0.662289 -1.46637 0
M  V30 12917 O 1246.21 -0.922477 -1.51061 0
M  V30 12918 C 1243.34 -2.04252 -2.75927 0
M  V30 12919 C 1242.42 -3.2476 -2.72749 0
M  V30 12920 N 1242.81 -4.45671 -2.39189 0
M  V30 12921 C 1241.11 -3.26464 -3.03871 0
M  V30 12922 C 1241.81 -5.27631 -2.44908 0
M  V30 12923 N 1240.79 -4.64968 -2.81613 0
M  V30 12924 H 1244.59 -2.71655 -1.12164 0
M  V30 12925 H 1242.11 -1.5366 -0.525586 0
M  V30 12926 H 1244.1 -2.21178 -3.53392 0
M  V30 12927 H 1242.76 -1.14452 -3.0386 0
M  V30 12928 H 1243.77 -4.72556 -2.11922 0
M  V30 12929 H 1240.45 -2.46718 -3.36803 0
M  V30 12930 H 1241.84 -6.34202 -2.21896 0
M  V30 12931 N 1244.56 0.579466 -1.4656 0
M  V30 12932 C 1245.81 1.33954 -1.52264 0
M  V30 12933 C 1246.14 1.93409 -0.175089 0
M  V30 12934 O 1245.41 1.76654 0.81385 0
M  V30 12935 C 1245.7 2.46645 -2.6237 0
M  V30 12936 C 1245.55 1.92204 -4.06667 0
M  V30 12937 C 1246.87 3.48676 -2.68538 0
M  V30 12938 H 1243.99 0.485697 -0.554317 0
M  V30 12939 H 1246.63 0.650639 -1.78512 0
M  V30 12940 H 1244.78 3.0541 -2.40119 0
M  V30 12941 H 1246.45 1.37871 -4.40215 0
M  V30 12942 H 1244.7 1.23012 -4.15993 0
M  V30 12943 H 1245.37 2.73566 -4.79443 0
M  V30 12944 H 1247.84 2.99798 -2.88549 0
M  V30 12945 H 1246.72 4.24981 -3.47394 0
M  V30 12946 H 1246.98 4.06112 -1.74716 0
M  V30 12947 N 1246.04 1.3432 0.824371 0
M  V30 12948 C 1247.45 1.1397 1.11727 0
M  V30 12949 C 1247.65 -0.0597597 2.01411 0
M  V30 12950 O 1246.71 -0.735717 2.41544 0
M  V30 12951 C 1248.02 2.43423 1.76538 0
M  V30 12952 C 1249.57 2.49466 1.89039 0
M  V30 12953 C 1250.05 3.78917 2.57266 0
M  V30 12954 N 1251.54 3.8007 2.64767 0
M  V30 12955 C 1252.27 4.76953 3.18282 0
M  V30 12956 N 1251.77 5.84217 3.72373 0
M  V30 12957 N 1253.56 4.6441 3.1667 0
M  V30 12958 H 1245.71 2.11175 0.227802 0
M  V30 12959 H 1247.98 0.933774 0.163615 0
M  V30 12960 H 1247.68 3.31278 1.18102 0
M  V30 12961 H 1247.56 2.56655 2.7642 0
M  V30 12962 H 1249.94 1.62052 2.46623 0
M  V30 12963 H 1250.02 2.40163 0.880635 0
M  V30 12964 H 1249.67 4.6672 2.00336 0
M  V30 12965 H 1249.6 3.85502 3.58742 0
M  V30 12966 H 1252.09 3.02556 2.26425 0
M  V30 12967 H 1252.4 6.54159 4.11455 0
M  V30 12968 H 1250.75 5.87933 3.70621 0
M  V30 12969 H 1253.94 3.7976 2.73678 0
M  V30 12970 H 1254.11 5.40081 3.58073 0
M  V30 12971 N 1247.52 -1.0444 1.18026 0
M  V30 12972 C 1248.76 -1.77838 0.974756 0
M  V30 12973 C 1249.1 -1.87792 -0.494755 0
M  V30 12974 O 1248.37 -1.38327 -1.36733 0
M  V30 12975 C 1248.65 -3.21315 1.62569 0
M  V30 12976 C 1248.51 -3.19327 3.16781 0
M  V30 12977 C 1249.83 -4.19337 1.33583 0
M  V30 12978 H 1246.94 -0.645575 0.35553 0
M  V30 12979 H 1249.59 -1.22023 1.45638 0
M  V30 12980 H 1247.74 -3.68974 1.21617 0
M  V30 12981 H 1249.41 -2.79687 3.66842 0
M  V30 12982 H 1247.65 -2.57461 3.49137 0
M  V30 12983 H 1248.32 -4.20626 3.5746 0
M  V30 12984 H 1250.8 -3.80208 1.69059 0
M  V30 12985 H 1249.67 -5.17953 1.81702 0
M  V30 12986 H 1249.94 -4.41346 0.258016 0
M  V30 12987 N 1248.99 -0.981699 -1.2329 0
M  V30 12988 C 1250.24 -0.661895 -1.92329 0
M  V30 12989 C 1250.6 0.79602 -1.75161 0
M  V30 12990 O 1249.89 1.56687 -1.10271 0
M  V30 12991 C 1250.08 -0.989244 -3.43437 0
M  V30 12992 C 1249.91 -2.47743 -3.75305 0
M  V30 12993 C 1248.68 -3.13963 -3.95924 0
M  V30 12994 C 1250.88 -3.45817 -3.80677 0
M  V30 12995 N 1248.86 -4.52374 -4.15008 0
M  V30 12996 C 1250.23 -4.6964 -4.04769 0
M  V30 12997 C 1252.29 -3.4028 -3.63475 0
M  V30 12998 C 1250.99 -5.88605 -4.13445 0
M  V30 12999 C 1253.02 -4.5861 -3.73405 0
M  V30 13000 C 1252.38 -5.81229 -3.97935 0
M  V30 13001 H 1248.48 -0.293289 -0.724918 0
M  V30 13002 H 1251.06 -1.25942 -1.48481 0
M  V30 13003 H 1249.23 -0.420398 -3.86118 0
M  V30 13004 H 1250.96 -0.626579 -3.9982 0
M  V30 13005 H 1247.72 -2.64456 -3.92887 0
M  V30 13006 H 1248.14 -5.24134 -4.28501 0
M  V30 13007 H 1252.79 -2.46504 -3.43505 0
M  V30 13008 H 1250.5 -6.82795 -4.32223 0
M  V30 13009 H 1254.09 -4.55903 -3.61447 0
M  V30 13010 H 1252.97 -6.71263 -4.05433 0
M  V30 13011 N 1250.47 1.3842 -0.753509 0
M  V30 13012 C 1251.71 2.01965 -0.314558 0
M  V30 13013 C 1252.08 1.58519 1.08331 0
M  V30 13014 O 1253.28 2.14395 1.62137 0
M  V30 13015 C 1251.55 3.54765 -0.433199 0
M  V30 13016 S 1253.11 4.38733 -0.0768176 0
M  V30 13017 H 1249.93 0.700447 -0.122045 0
M  V30 13018 H 1252.53 1.68925 -0.98411 0
M  V30 13019 H 1251.23 3.83874 -1.45152 0
M  V30 13020 H 1250.76 3.92582 0.253539 0
M  V30 13021 H 1252.78 4.83077 1.13361 0
M  V30 13022 N 1251.95 0.502579 1.49372 0
M  V30 13023 C 1253.36 0.055187 1.86618 0
M  V30 13024 C 1253.71 -1.35938 1.41476 0
M  V30 13025 O 1252.84 -2.01333 0.793338 0
M  V30 13026 C 1253.43 0.0933734 3.38671 0
M  V30 13027 C 1251.99 -0.298685 3.75213 0
M  V30 13028 C 1251.14 0.465216 2.7337 0
M  V30 13029 H 1254.09 0.715281 1.41667 0
M  V30 13030 H 1254.11 -0.701549 3.73977 0
M  V30 13031 H 1253.62 1.12303 3.71497 0
M  V30 13032 H 1251.72 -1.33151 3.47996 0
M  V30 13033 H 1251.84 0.0218637 4.79095 0
M  V30 13034 H 1250.2 -0.0851469 2.54558 0
M  V30 13035 H 1250.98 1.49498 3.09039 0
M  V30 13036 N 1253.43 -1.55816 0.23648 0
M  V30 13037 C 1254.84 -1.59159 -0.118601 0
M  V30 13038 C 1255.04 -1.25352 -1.57763 0
M  V30 13039 O 1254.1 -0.995863 -2.32032 0
M  V30 13040 C 1255.41 -2.99885 0.221175 0
M  V30 13041 C 1256.96 -3.12567 0.164624 0
M  V30 13042 C 1257.44 -4.55496 0.478285 0
M  V30 13043 N 1258.93 -4.61215 0.428402 0
M  V30 13044 C 1259.66 -5.69768 0.644398 0
M  V30 13045 N 1259.16 -6.86624 0.922966 0
M  V30 13046 N 1260.95 -5.59143 0.575814 0
M  V30 13047 H 1253.1 -1.76063 1.18809 0
M  V30 13048 H 1255.37 -0.819079 0.477297 0
M  V30 13049 H 1255.07 -3.29326 1.2344 0
M  V30 13050 H 1254.95 -3.74425 -0.456723 0
M  V30 13051 H 1257.33 -2.82914 -0.839263 0
M  V30 13052 H 1257.41 -2.40325 0.876219 0
M  V30 13053 H 1257.06 -4.85868 1.47968 0
M  V30 13054 H 1256.99 -5.25984 -0.254671 0
M  V30 13055 H 1259.48 -3.77251 0.221398 0
M  V30 13056 H 1259.79 -7.6528 1.07548 0
M  V30 13057 H 1258.14 -6.88333 0.960325 0
M  V30 13058 H 1261.33 -4.66727 0.358307 0
M  V30 13059 H 1261.5 -6.43674 0.747548 0
M  V30 13060 N 1254.91 0.036755 -1.57557 0
M  V30 13061 C 1256.32 0.584324 -1.7732 0
M  V30 13062 C 1256.67 1.76025 -0.86658 0
M  V30 13063 O 1255.79 2.16318 -0.059443 0
M  V30 13064 C 1256.39 1.06679 -3.21566 0
M  V30 13065 C 1254.95 1.55994 -3.42553 0
M  V30 13066 C 1254.09 0.494604 -2.72853 0
M  V30 13067 H 1257.05 -0.189473 -1.57565 0
M  V30 13068 H 1257.07 1.93446 -3.27657 0
M  V30 13069 H 1256.58 0.210727 -3.87527 0
M  V30 13070 H 1254.68 2.43811 -2.81757 0
M  V30 13071 H 1254.79 1.61274 -4.5114 0
M  V30 13072 H 1253.16 0.947865 -2.36406 0
M  V30 13073 H 1253.94 -0.351868 -3.41492 0
M  V30 13074 N 1256.39 1.54543 0.308881 0
M  V30 13075 C 1257.8 1.64532 0.882392 0
M  V30 13076 C 1258.15 0.54886 1.88367 0
M  V30 13077 O 1257.27 -0.315832 2.14083 0
M  V30 13078 C 1257.87 2.98251 1.60722 0
M  V30 13079 C 1256.43 3.10387 2.12925 0
M  V30 13080 C 1255.57 2.60176 0.959362 0
M  V30 13081 H 1258.52 1.58466 0.0860803 0
M  V30 13082 H 1258.55 2.89233 2.47233 0
M  V30 13083 H 1258.06 3.78033 0.878233 0
M  V30 13084 H 1256.16 2.35309 2.88895 0
M  V30 13085 H 1256.27 4.16421 2.36918 0
M  V30 13086 H 1254.64 2.16434 1.3427 0
M  V30 13087 H 1255.42 3.42429 0.244454 0
M  V30 13088 N 1257.86 -0.571685 1.46866 0
M  V30 13089 C 1259.28 -0.896172 1.32064 0
M  V30 13090 C 1259.48 -1.9925 0.300291 0
M  V30 13091 O 1258.54 -2.50791 -0.293284 0
M  V30 13092 C 1259.85 -1.3031 2.70998 0
M  V30 13093 C 1261.4 -1.41533 2.79173 0
M  V30 13094 C 1261.87 -1.85587 4.18714 0
M  V30 13095 N 1263.36 -1.92762 4.21185 0
M  V30 13096 C 1264.1 -2.28148 5.26057 0
M  V30 13097 N 1263.59 -2.62248 6.41247 0
M  V30 13098 N 1265.39 -2.28797 5.13428 0
M  V30 13099 H 1257.54 0.152349 2.11853 0
M  V30 13100 H 1259.8 0.00548777 0.947984 0
M  V30 13101 H 1259.51 -0.571469 3.47026 0
M  V30 13102 H 1259.38 -2.26233 3.01826 0
M  V30 13103 H 1261.77 -2.1378 2.03426 0
M  V30 13104 H 1261.85 -0.438342 2.52016 0
M  V30 13105 H 1261.49 -1.13915 4.9496 0
M  V30 13106 H 1261.42 -2.84264 4.43285 0
M  V30 13107 H 1263.91 -1.68854 3.38078 0
M  V30 13108 H 1264.23 -2.88234 7.17036 0
M  V30 13109 H 1262.57 -2.59861 6.44591 0
M  V30 13110 H 1265.76 -2.01587 4.22469 0
M  V30 13111 H 1265.94 -2.56045 5.95269 0
M  V30 13112 N 1259.34 -1.34755 -0.817236 0
M  V30 13113 C 1260.3 -1.26687 -1.91006 0
M  V30 13114 C 1261.3 -0.180745 -1.59781 0
M  V30 13115 O 1262.49 -0.433748 -1.68714 0
M  V30 13116 C 1259.63 -0.957293 -3.27183 0
M  V30 13117 H 1260.82 -2.23846 -1.99582 0
M  V30 13118 H 1258.37 -1.19125 -1.01187 0
M  V30 13119 H 1259.11 0.0108917 -3.24298 0
M  V30 13120 H 1258.89 -1.74297 -3.5123 0
M  V30 13121 H 1260.38 -0.926161 -4.072 0
M  V30 13122 N 1260.82 1.03812 -1.18578 0
M  V30 13123 C 1262.07 1.77319 -0.984173 0
M  V30 13124 C 1262.4 1.88052 0.484789 0
M  V30 13125 O 1261.67 1.3905 1.35998 0
M  V30 13126 C 1261.96 3.20448 -1.6427 0
M  V30 13127 C 1261.81 3.17643 -3.1847 0
M  V30 13128 C 1263.13 4.18623 -1.35805 0
M  V30 13129 H 1260.25 0.643681 -0.358949 0
M  V30 13130 H 1262.89 1.21249 -1.46283 0
M  V30 13131 H 1261.04 3.68324 -1.23572 0
M  V30 13132 H 1262.71 2.77738 -3.6832 0
M  V30 13133 H 1260.95 2.55606 -3.50497 0
M  V30 13134 H 1261.63 4.18724 -3.59686 0
M  V30 13135 H 1264.1 3.79306 -1.71073 0
M  V30 13136 H 1262.98 5.16982 -1.84446 0
M  V30 13137 H 1263.24 4.41203 -0.281418 0
M  V30 13138 N 1262.3 0.988223 1.22768 0
M  V30 13139 C 1263.71 0.697281 1.7319 0
M  V30 13140 C 1264.06 -0.786111 1.79763 0
M  V30 13141 O 1263.18 -1.61465 1.44077 0
M  V30 13142 C 1263.78 1.25905 3.14537 0
M  V30 13143 C 1262.34 1.01759 3.62384 0
M  V30 13144 C 1261.49 1.38207 2.40404 0
M  V30 13145 H 1264.44 1.16114 1.08181 0
M  V30 13146 H 1264.46 0.635315 3.75159 0
M  V30 13147 H 1263.97 2.33869 3.09721 0
M  V30 13148 H 1262.07 -0.045627 3.72572 0
M  V30 13149 H 1262.18 1.67767 4.48766 0
M  V30 13150 H 1260.55 0.800607 2.4179 0
M  V30 13151 H 1261.33 2.47165 2.38253 0
M  V30 13152 N 1263.78 -1.38018 0.760839 0
M  V30 13153 C 1265.01 -2.03934 0.330804 0
M  V30 13154 C 1265.41 -1.57509 -1.04821 0
M  V30 13155 O 1264.76 -0.746718 -1.67839 0
M  V30 13156 C 1264.82 -3.58384 0.28303 0
M  V30 13157 C 1264.48 -4.27896 1.6048 0
M  V30 13158 C 1265.48 -4.52769 2.5553 0
M  V30 13159 C 1263.16 -4.65943 1.87624 0
M  V30 13160 C 1265.16 -5.14732 3.75938 0
M  V30 13161 C 1262.85 -5.27629 3.08304 0
M  V30 13162 C 1263.84 -5.51959 4.02281 0
M  V30 13163 O 1263.53 -6.12358 5.20838 0
M  V30 13164 H 1263.26 -0.661733 0.138148 0
M  V30 13165 H 1265.82 -1.77551 1.03271 0
M  V30 13166 H 1264.05 -3.83769 -0.47517 0
M  V30 13167 H 1265.74 -4.05727 -0.118464 0
M  V30 13168 H 1266.5 -4.23798 2.35839 0
M  V30 13169 H 1262.38 -4.46346 1.15308 0
M  V30 13170 H 1265.93 -5.33639 4.49305 0
M  V30 13171 H 1261.82 -5.56023 3.27886 0
M  V30 13172 H 1262.59 -6.30842 5.21517 0
M  V30 13173 N 1265.25 -0.510493 -1.49103 0
M  V30 13174 C 1266.48 0.0271324 -2.06582 0
M  V30 13175 C 1266.89 1.30499 -1.36991 0
M  V30 13176 O 1266.23 1.78229 -0.444976 0
M  V30 13177 C 1266.3 0.341488 -3.57874 0
M  V30 13178 C 1265.96 -0.840037 -4.49213 0
M  V30 13179 C 1266.96 -1.73315 -4.90161 0
M  V30 13180 C 1264.64 -1.04153 -4.91383 0
M  V30 13181 C 1266.64 -2.81182 -5.72028 0
M  V30 13182 C 1264.32 -2.12336 -5.73024 0
M  V30 13183 C 1265.32 -3.00684 -6.13252 0
M  V30 13184 O 1265.01 -4.06999 -6.93258 0
M  V30 13185 H 1264.74 -0.0215383 -0.675657 0
M  V30 13186 H 1267.3 -0.709841 -1.92744 0
M  V30 13187 H 1265.53 1.13218 -3.69755 0
M  V30 13188 H 1267.21 0.818859 -3.97554 0
M  V30 13189 H 1267.98 -1.58934 -4.58219 0
M  V30 13190 H 1263.86 -0.363199 -4.59567 0
M  V30 13191 H 1267.4 -3.50169 -6.03347 0
M  V30 13192 H 1263.3 -2.26708 -6.04379 0
M  V30 13193 H 1264.07 -4.04469 -7.11581 0
M  V30 13194 N 1266.73 1.55688 -0.24474 0
M  V30 13195 C 1267.98 1.98498 0.379852 0
M  V30 13196 C 1268.3 1.13416 1.58625 0
M  V30 13197 O 1267.57 0.216456 1.947 0
M  V30 13198 H 1266.15 0.73312 0.143334 0
M  V30 13199 H 1268.81 1.91858 -0.343027 0
M  V30 13200 H 1267.91 3.04367 0.690463 0
M  V30 13201 N 1268.21 -0.0283989 1.57574 0
M  V30 13202 C 1269.62 -0.574912 1.77628 0
M  V30 13203 C 1269.97 -1.75563 0.875903 0
M  V30 13204 O 1269.1 -2.16284 0.0709141 0
M  V30 13205 C 1269.69 -1.04972 3.22128 0
M  V30 13206 C 1268.25 -1.54175 3.43376 0
M  V30 13207 C 1267.4 -0.480127 2.73112 0
M  V30 13208 H 1270.35 0.197826 1.57462 0
M  V30 13209 H 1270.37 -1.91705 3.28678 0
M  V30 13210 H 1269.88 -0.190173 3.87634 0
M  V30 13211 H 1267.98 -2.42313 2.83046 0
M  V30 13212 H 1268.1 -1.58879 4.51989 0
M  V30 13213 H 1266.46 -0.935314 2.36905 0
M  V30 13214 H 1267.24 0.369973 3.41301 0
M  V30 13215 N 1269.69 -1.54705 -0.300681 0
M  V30 13216 C 1270.94 -1.73658 -1.0338 0
M  V30 13217 C 1271.26 -0.525447 -1.87787 0
M  V30 13218 O 1270.53 0.460269 -1.90416 0
M  V30 13219 H 1269.11 -0.640338 -0.384677 0
M  V30 13220 H 1271.77 -1.92059 -0.331588 0
M  V30 13221 H 1270.86 -2.62595 -1.68672 0
M  V30 13222 N 1271.17 0.563888 -1.47167 0
M  V30 13223 C 1272.41 1.32331 -1.53676 0
M  V30 13224 C 1272.75 1.93213 -0.195593 0
M  V30 13225 O 1272.02 1.77508 0.795068 0
M  V30 13226 C 1272.3 2.43848 -2.64972 0
M  V30 13227 C 1272.16 1.8788 -4.08682 0
M  V30 13228 C 1273.48 3.45809 -2.72221 0
M  V30 13229 H 1270.59 0.479791 -0.559437 0
M  V30 13230 H 1273.24 0.631669 -1.79192 0
M  V30 13231 H 1271.39 3.02846 -2.43345 0
M  V30 13232 H 1273.06 1.33195 -4.41652 0
M  V30 13233 H 1271.3 1.18593 -4.17275 0
M  V30 13234 H 1271.97 2.68465 -4.82318 0
M  V30 13235 H 1274.45 2.9672 -2.91713 0
M  V30 13236 H 1273.32 4.21272 -3.51882 0
M  V30 13237 H 1273.59 4.04236 -1.79014 0
M  V30 13238 N 1272.64 1.35187 0.810078 0
M  V30 13239 C 1273.92 1.18832 1.55365 0
M  V30 13240 C 1274.3 -0.233956 2.098 0
M  V30 13241 O 1273.65 -1.23701 1.92121 0
M  V30 13242 C 1273.86 2.25351 2.66492 0
M  V30 13243 C 1275.21 2.60981 3.34924 0
M  V30 13244 O 1276.23 2.24238 2.7676 0
M  V30 13245 O 1275.09 3.24147 4.3999 0
M  V30 13246 H 1272.18 0.461446 0.686292 0
M  V30 13247 H 1274.73 1.46858 0.850341 0
M  V30 13248 H 1273.5 3.20762 2.24115 0
M  V30 13249 H 1273.13 1.98575 3.44462 0
M  V30 13250 N 1274.12 -1.03182 1.19127 0
M  V30 13251 C 1275.35 -1.79904 1.01578 0
M  V30 13252 C 1275.76 -1.84044 -0.438697 0
M  V30 13253 O 1275.1 -1.28117 -1.3165 0
M  V30 13254 C 1275.17 -3.26473 1.50519 0
M  V30 13255 C 1274.83 -3.45975 2.98581 0
M  V30 13256 C 1275.83 -3.36436 3.96367 0
M  V30 13257 C 1273.51 -3.72284 3.37209 0
M  V30 13258 C 1275.51 -3.52925 5.30775 0
M  V30 13259 C 1273.19 -3.8842 4.71777 0
M  V30 13260 C 1274.19 -3.78742 5.68369 0
M  V30 13261 O 1273.88 -3.94405 7.005 0
M  V30 13262 H 1273.61 -0.573103 0.35851 0
M  V30 13263 H 1276.16 -1.30871 1.5831 0
M  V30 13264 H 1274.39 -3.76517 0.881593 0
M  V30 13265 H 1276.08 -3.84781 1.29223 0
M  V30 13266 H 1276.85 -3.16064 3.6787 0
M  V30 13267 H 1272.73 -3.78911 2.62579 0
M  V30 13268 H 1276.27 -3.45288 6.06153 0
M  V30 13269 H 1272.17 -4.08288 4.99971 0
M  V30 13270 H 1272.94 -4.11514 7.0753 0
M  V30 13271 N 1275.6 -0.99472 -1.22242 0
M  V30 13272 C 1276.55 -0.546504 -2.24236 0
M  V30 13273 C 1277.52 0.422101 -1.60647 0
M  V30 13274 O 1278.7 0.326452 -1.87987 0
M  V30 13275 C 1275.84 0.130909 -3.44852 0
M  V30 13276 C 1274.96 -0.879653 -4.22949 0
M  V30 13277 C 1274.09 -0.175569 -5.3091 0
M  V30 13278 C 1273.13 -1.17438 -6.00729 0
M  V30 13279 N 1272.27 -0.498474 -7.00328 0
M  V30 13280 H 1277.11 -1.42099 -2.61939 0
M  V30 13281 H 1274.64 -0.711755 -1.28734 0
M  V30 13282 H 1276.6 0.540596 -4.13683 0
M  V30 13283 H 1275.23 0.96917 -3.07907 0
M  V30 13284 H 1274.28 -1.40765 -3.53397 0
M  V30 13285 H 1275.6 -1.64017 -4.71062 0
M  V30 13286 H 1274.75 0.290756 -6.06003 0
M  V30 13287 H 1273.49 0.617438 -4.83776 0
M  V30 13288 H 1272.49 -1.65131 -5.24416 0
M  V30 13289 H 1273.72 -1.96829 -6.4995 0
M  V30 13290 H 1271.66 0.275063 -6.55423 0
M  V30 13291 H 1271.58 -1.19741 -7.46457 0
M  V30 13292 H 1272.85 -0.0550119 -7.79481 0
M  V30 13293 N 1277.08 1.37613 -0.768148 0
M  V30 13294 C 1278.03 2.3218 -0.13974 0
M  V30 13295 C 1279.02 1.54754 0.689023 0
M  V30 13296 O 1280.23 1.70177 0.586489 0
M  V30 13297 H 1276.6 0.751536 -0.0264001 0
M  V30 13298 H 1278.57 2.82768 -0.953139 0
M  V30 13299 C 1277.32 3.39997 0.727829 0
M  V30 13300 H 1276.64 3.99676 0.0994851 0
M  V30 13301 H 1278.08 4.08538 1.13456 0
M  V30 13302 C 1276.54 2.79778 1.87686 0
M  V30 13303 O 1277.07 2.70241 2.97208 0
M  V30 13304 N 1275.28 2.37373 1.67637 0
M  V30 13305 H 1274.83 2.4533 0.785552 0
M  V30 13306 H 1274.78 1.97426 2.44684 0
M  V30 13307 N 1278.56 0.518393 1.4883 0
M  V30 13308 C 1279.5 -0.264197 2.31095 0
M  V30 13309 C 1280.5 -0.946455 1.40494 0
M  V30 13310 O 1281.7 -0.872161 1.57459 0
M  V30 13311 H 1278.08 -0.104065 0.744765 0
M  V30 13312 H 1280.05 0.449375 2.94997 0
M  V30 13313 C 1278.8 -1.30527 3.2227 0
M  V30 13314 H 1278.12 -0.789695 3.91923 0
M  V30 13315 H 1279.56 -1.82449 3.82738 0
M  V30 13316 C 1278.02 -2.33274 2.43073 0
M  V30 13317 O 1278.55 -3.39493 2.14726 0
M  V30 13318 N 1276.76 -2.06189 2.04779 0
M  V30 13319 H 1276.3 -1.19829 2.28033 0
M  V30 13320 H 1276.26 -2.7516 1.521 0
M  V30 13321 N 1280.03 -1.55556 0.252993 0
M  V30 13322 C 1280.96 -2.24613 -0.638047 0
M  V30 13323 C 1281.95 -1.22852 -1.1765 0
M  V30 13324 O 1283.13 -1.51519 -1.21472 0
M  V30 13325 C 1280.26 -2.95029 -1.83236 0
M  V30 13326 C 1279.21 -4.03531 -1.42641 0
M  V30 13327 C 1278.54 -4.61404 -2.70204 0
M  V30 13328 C 1279.84 -5.18923 -0.592958 0
M  V30 13329 H 1281.53 -2.99335 -0.0621918 0
M  V30 13330 H 1279.08 -1.43972 -0.0284722 0
M  V30 13331 H 1281.03 -3.42042 -2.46141 0
M  V30 13332 H 1279.76 -2.17805 -2.43369 0
M  V30 13333 H 1278.42 -3.57296 -0.820672 0
M  V30 13334 H 1278.06 -3.80874 -3.28548 0
M  V30 13335 H 1277.76 -5.34652 -2.43764 0
M  V30 13336 H 1279.29 -5.11154 -3.33997 0
M  V30 13337 H 1280.7 -5.62124 -1.12646 0
M  V30 13338 H 1279.1 -5.98598 -0.424358 0
M  V30 13339 H 1280.17 -4.83301 0.393434 0
M  V30 13340 N 1281.51 0.0200419 -1.57587 0
M  V30 13341 C 1282.79 0.744946 -1.80859 0
M  V30 13342 C 1283.17 1.93089 -0.853218 0
M  V30 13343 O 1282.52 2.28269 0.10261 0
M  V30 13344 C 1282.73 1.16952 -3.28821 0
M  V30 13345 C 1284.08 1.5817 -3.9404 0
M  V30 13346 O 1285.1 1.26385 -3.33024 0
M  V30 13347 O 1283.96 2.17197 -5.01486 0
M  V30 13348 H 1281.05 0.360995 -0.744051 0
M  V30 13349 H 1283.6 -0.00387374 -1.697 0
M  V30 13350 H 1282.37 0.323304 -3.89962 0
M  V30 13351 H 1281.99 1.97807 -3.44903 0
M  V30 13352 N 1282.99 1.54862 0.292472 0
M  V30 13353 C 1284.4 1.65459 0.864891 0
M  V30 13354 C 1284.75 0.568808 1.87774 0
M  V30 13355 O 1283.88 -0.293107 2.14406 0
M  V30 13356 C 1284.47 2.99939 1.5755 0
M  V30 13357 C 1283.03 3.12628 2.09621 0
M  V30 13358 C 1282.18 2.61179 0.931713 0
M  V30 13359 H 1285.13 1.58549 0.0692679 0
M  V30 13360 H 1285.15 2.91839 2.44152 0
M  V30 13361 H 1284.66 3.78943 0.838088 0
M  V30 13362 H 1282.76 2.3836 2.86383 0
M  V30 13363 H 1282.88 4.18911 2.32488 0
M  V30 13364 H 1281.24 2.17846 1.31967 0
M  V30 13365 H 1282.02 3.42669 0.208121 0
M  V30 13366 N 1284.47 -0.556076 1.47464 0
M  V30 13367 C 1285.4 -1.67275 1.62915 0
M  V30 13368 C 1286.38 -1.63229 0.478562 0
M  V30 13369 O 1287.56 -1.80833 0.708032 0
M  V30 13370 C 1284.69 -3.05911 1.64426 0
M  V30 13371 C 1283.65 -3.24804 2.78722 0
M  V30 13372 C 1282.97 -4.64238 2.65307 0
M  V30 13373 C 1284.27 -3.10071 4.20302 0
M  V30 13374 H 1285.97 -1.54601 2.56396 0
M  V30 13375 H 1283.51 -0.742337 1.23391 0
M  V30 13376 H 1285.47 -3.83878 1.73826 0
M  V30 13377 H 1284.19 -3.19547 0.675053 0
M  V30 13378 H 1282.85 -2.49246 2.68835 0
M  V30 13379 H 1282.5 -4.74675 1.66412 0
M  V30 13380 H 1282.2 -4.77828 3.41986 0
M  V30 13381 H 1283.72 -5.44339 2.76637 0
M  V30 13382 H 1285.14 -3.77855 4.3116 0
M  V30 13383 H 1283.53 -3.3517 4.97776 0
M  V30 13384 H 1284.6 -2.06803 4.38589 0
M  V30 13385 N 1285.95 -1.35615 -0.802897 0
M  V30 13386 C 1287.17 -1.32377 -1.59659 0
M  V30 13387 C 1287.6 0.0954235 -1.87858 0
M  V30 13388 O 1286.96 1.06336 -1.46842 0
M  V30 13389 C 1287 -2.13972 -2.90256 0
M  V30 13390 O 1286.11 -1.52296 -3.83249 0
M  V30 13391 H 1285.45 -0.453699 -0.484823 0
M  V30 13392 H 1287.98 -1.78708 -0.996217 0
M  V30 13393 H 1287.99 -2.26061 -3.39647 0
M  V30 13394 H 1286.66 -3.17145 -2.69057 0
M  V30 13395 H 1285.24 -1.49068 -3.41809 0
M  V30 13396 N 1287.43 1.02549 -1.19673 0
M  V30 13397 C 1288.34 2.14373 -0.952972 0
M  V30 13398 C 1289.35 1.73776 0.0881727 0
M  V30 13399 O 1290.53 2.01165 -0.0972471 0
M  V30 13400 C 1287.59 3.43096 -0.498569 0
M  V30 13401 C 1286.65 3.97987 -1.60951 0
M  V30 13402 C 1285.89 5.20567 -1.17669 0
M  V30 13403 O 1286.11 5.70385 -0.0416636 0
M  V30 13404 O 1285.04 5.6838 -1.98059 0
M  V30 13405 H 1288.87 2.378 -1.88904 0
M  V30 13406 H 1286.45 1.12781 -0.979836 0
M  V30 13407 H 1288.34 4.20634 -0.253968 0
M  V30 13408 H 1287.01 3.21105 0.409018 0
M  V30 13409 H 1285.92 3.21768 -1.90829 0
M  V30 13410 H 1287.25 4.24349 -2.49377 0
M  V30 13411 N 1288.9 1.00119 1.21713 0
M  V30 13412 C 1289.85 0.558388 2.23943 0
M  V30 13413 C 1290.82 -0.413576 1.60869 0
M  V30 13414 O 1292.01 -0.316478 1.88157 0
M  V30 13415 C 1289.15 -0.112618 3.44916 0
M  V30 13416 C 1288.26 0.902071 4.22477 0
M  V30 13417 C 1287.39 0.203722 5.30809 0
M  V30 13418 C 1286.43 1.20622 6.00097 0
M  V30 13419 N 1285.57 0.535607 7.00054 0
M  V30 13420 H 1290.41 1.43486 2.61182 0
M  V30 13421 H 1287.95 0.718572 1.28355 0
M  V30 13422 H 1289.9 -0.51865 4.13964 0
M  V30 13423 H 1288.53 -0.952827 3.08417 0
M  V30 13424 H 1287.59 1.42637 3.52645 0
M  V30 13425 H 1288.9 1.66513 4.70186 0
M  V30 13426 H 1288.05 -0.258614 6.06149 0
M  V30 13427 H 1286.79 -0.591773 4.84096 0
M  V30 13428 H 1285.8 1.6791 5.23532 0
M  V30 13429 H 1287.02 2.00273 6.48897 0
M  V30 13430 H 1284.97 -0.2403 6.5556 0
M  V30 13431 H 1284.88 1.23698 7.45812 0
M  V30 13432 H 1286.15 0.0963489 7.7944 0
M  V30 13433 N 1290.38 -1.37203 0.775435 0
M  V30 13434 C 1291.63 -1.99207 0.340756 0
M  V30 13435 C 1291.95 -1.61861 -1.08747 0
M  V30 13436 O 1291.22 -0.88583 -1.74728 0
M  V30 13437 H 1289.8 -0.736803 0.123004 0
M  V30 13438 H 1292.46 -1.67625 0.994379 0
M  V30 13439 H 1291.56 -3.09243 0.421346 0
M  V30 13440 N 1291.86 -0.526279 -1.48553 0
M  V30 13441 C 1292.79 0.227364 -2.3239 0
M  V30 13442 C 1293.77 0.93862 -1.41859 0
M  V30 13443 O 1294.96 0.925119 -1.70749 0
M  V30 13444 C 1292.09 1.277 -3.22971 0
M  V30 13445 C 1291.04 0.684107 -4.22497 0
M  V30 13446 C 1290.37 1.83612 -5.02186 0
M  V30 13447 C 1291.67 -0.341723 -5.21181 0
M  V30 13448 H 1293.36 -0.472486 -2.95648 0
M  V30 13449 H 1290.91 -0.228669 -1.42173 0
M  V30 13450 H 1292.86 1.81215 -3.80446 0
M  V30 13451 H 1291.58 2.00638 -2.57705 0
M  V30 13452 H 1290.24 0.170505 -3.66203 0
M  V30 13453 H 1289.89 2.55379 -4.33348 0
M  V30 13454 H 1289.59 1.44536 -5.69547 0
M  V30 13455 H 1291.11 2.37513 -5.62512 0
M  V30 13456 H 1292.53 0.106207 -5.73202 0
M  V30 13457 H 1290.92 -0.649673 -5.96573 0
M  V30 13458 H 1291.99 -1.2488 -4.68543 0
M  V30 13459 N 1293.34 1.5542 -0.261239 0
M  V30 13460 C 1294.57 2.03687 0.363225 0
M  V30 13461 C 1294.98 1.14007 1.50492 0
M  V30 13462 O 1294.34 0.157349 1.8182 0
M  V30 13463 C 1294.39 3.51184 0.857435 0
M  V30 13464 O 1294.11 4.37449 -0.238776 0
M  V30 13465 C 1295.61 4.15277 1.55113 0
M  V30 13466 H 1292.83 0.665641 0.0846356 0
M  V30 13467 H 1295.37 2.00761 -0.389288 0
M  V30 13468 H 1293.53 3.54599 1.56008 0
M  V30 13469 H 1293.94 5.24316 0.138821 0
M  V30 13470 H 1295.42 5.20129 1.8485 0
M  V30 13471 H 1295.89 3.62619 2.47799 0
M  V30 13472 H 1296.5 4.15826 0.892695 0
M  V30 13473 N 1294.82 -0.0116844 1.57596 0
M  V30 13474 C 1296.04 -0.71026 1.94327 0
M  V30 13475 C 1296.46 -1.67952 0.862418 0
M  V30 13476 O 1295.82 -1.818 -0.159698 0
M  V30 13477 C 1295.87 -1.45228 3.31045 0
M  V30 13478 O 1295.59 -0.52191 4.3498 0
M  V30 13479 C 1297.09 -2.24644 3.82165 0
M  V30 13480 H 1294.31 -0.198559 0.640949 0
M  V30 13481 H 1296.85 0.0359615 2.04468 0
M  V30 13482 H 1295.01 -2.15023 3.22248 0
M  V30 13483 H 1295.42 -1.04415 5.14002 0
M  V30 13484 H 1296.9 -2.72078 4.80289 0
M  V30 13485 H 1297.37 -3.06817 3.14261 0
M  V30 13486 H 1297.98 -1.59888 3.94101 0
M  V30 13487 N 1296.29 -1.55015 -0.284256 0
M  V30 13488 C 1297.52 -1.78842 -1.03436 0
M  V30 13489 C 1297.93 -0.556301 -1.80837 0
M  V30 13490 O 1297.27 0.483895 -1.77212 0
M  V30 13491 C 1297.34 -2.95412 -2.04871 0
M  V30 13492 C 1297 -4.32878 -1.46512 0
M  V30 13493 C 1298 -5.12286 -0.886535 0
M  V30 13494 C 1295.68 -4.79514 -1.49571 0
M  V30 13495 C 1297.68 -6.36459 -0.346305 0
M  V30 13496 C 1295.36 -6.03645 -0.951613 0
M  V30 13497 C 1296.36 -6.81954 -0.3779 0
M  V30 13498 O 1296.05 -8.03745 0.157894 0
M  V30 13499 H 1295.78 -0.599809 -0.311778 0
M  V30 13500 H 1298.34 -2.0283 -0.323909 0
M  V30 13501 H 1296.57 -2.67089 -2.79644 0
M  V30 13502 H 1298.25 -3.06663 -2.65918 0
M  V30 13503 H 1299.02 -4.77392 -0.855682 0
M  V30 13504 H 1294.9 -4.18579 -1.93165 0
M  V30 13505 H 1298.44 -6.97525 0.102141 0
M  V30 13506 H 1294.34 -6.38023 -0.979669 0
M  V30 13507 H 1295.11 -8.18487 0.046182 0
M  V30 13508 N 1297.77 0.548248 -1.47757 0
M  V30 13509 C 1299.02 1.30243 -1.54535 0
M  V30 13510 C 1299.34 1.93832 -0.213089 0
M  V30 13511 O 1298.61 1.80397 0.763782 0
M  V30 13512 H 1297.19 0.483684 -0.569262 0
M  V30 13513 H 1299.85 0.639485 -1.8411 0
M  V30 13514 H 1298.95 2.09128 -2.31672 0
M  V30 13515 N 1299.25 1.36039 0.795694 0
M  V30 13516 C 1300.5 1.29919 1.5533 0
M  V30 13517 C 1300.82 -0.123325 1.94109 0
M  V30 13518 O 1300.08 -1.09115 1.62457 0
M  V30 13519 C 1300.38 2.16166 2.84617 0
M  V30 13520 C 1300.04 3.64805 2.65006 0
M  V30 13521 C 1298.71 4.05319 2.59365 0
M  V30 13522 C 1301.06 4.59073 2.46781 0
M  V30 13523 C 1298.39 5.38251 2.33458 0
M  V30 13524 C 1300.74 5.92216 2.22402 0
M  V30 13525 C 1299.4 6.31862 2.1519 0
M  V30 13526 H 1298.67 0.475408 0.568391 0
M  V30 13527 H 1301.32 1.68035 0.918512 0
M  V30 13528 H 1299.62 1.70967 3.5253 0
M  V30 13529 H 1301.32 2.0876 3.42375 0
M  V30 13530 H 1297.91 3.32662 2.70248 0
M  V30 13531 H 1302.1 4.28651 2.50144 0
M  V30 13532 H 1297.35 5.67957 2.26352 0
M  V30 13533 H 1301.53 6.64833 2.07293 0
M  V30 13534 H 1299.15 7.34797 1.94878 0
M  V30 13535 N 1300.73 -1.01913 1.20215 0
M  V30 13536 C 1301.98 -1.75124 1.00876 0
M  V30 13537 C 1302.3 -1.89485 -0.460475 0
M  V30 13538 O 1301.57 -1.43552 -1.33302 0
M  V30 13539 H 1300.15 -0.648777 0.370266 0
M  V30 13540 H 1302.81 -1.22883 1.5128 0
M  V30 13541 H 1301.91 -2.7558 1.46499 0
M  V30 13542 N 1302.21 -1.00763 -1.2118 0
M  V30 13543 C 1303.16 -0.541218 -2.21483 0
M  V30 13544 C 1304.14 0.398597 -1.55885 0
M  V30 13545 O 1305.33 0.22302 -1.75589 0
M  V30 13546 C 1302.46 0.128145 -3.43061 0
M  V30 13547 C 1301.55 -0.832845 -4.15842 0
M  V30 13548 N 1301.94 -1.98673 -4.65148 0
M  V30 13549 C 1300.24 -0.651779 -4.41212 0
M  V30 13550 C 1300.94 -2.59112 -5.20803 0
M  V30 13551 N 1299.91 -1.87249 -5.10332 0
M  V30 13552 H 1303.72 -1.42105 -2.57262 0
M  V30 13553 H 1301.23 -0.871796 -1.37016 0
M  V30 13554 H 1303.23 0.479771 -4.1413 0
M  V30 13555 H 1301.89 1.00392 -3.0879 0
M  V30 13556 H 1302.9 -2.36701 -4.60644 0
M  V30 13557 H 1299.57 0.1767 -4.17126 0
M  V30 13558 H 1300.96 -3.56713 -5.69391 0
M  V30 13559 N 1303.68 1.3679 -0.7827 0
M  V30 13560 C 1304.62 2.28805 -0.13451 0
M  V30 13561 C 1305.63 1.49159 0.652338 0
M  V30 13562 O 1306.82 1.71682 0.488626 0
M  V30 13563 C 1303.92 3.28508 0.832802 0
M  V30 13564 C 1303.09 4.37291 0.0974435 0
M  V30 13565 C 1302.15 5.16999 0.979715 0
M  V30 13566 O 1301.18 5.67501 0.439439 0
M  V30 13567 N 1302.38 5.32786 2.30477 0
M  V30 13568 H 1305.14 2.85072 -0.924873 0
M  V30 13569 H 1302.7 1.48884 -0.636012 0
M  V30 13570 H 1304.7 3.78718 1.42671 0
M  V30 13571 H 1303.27 2.7293 1.52408 0
M  V30 13572 H 1302.49 3.88335 -0.677483 0
M  V30 13573 H 1303.77 5.07143 -0.410259 0
M  V30 13574 H 1303.17 4.93358 2.76793 0
M  V30 13575 H 1301.73 5.86264 2.84848 0
M  V30 13576 N 1305.16 0.53415 1.48272 0
M  V30 13577 C 1306.11 -0.239672 2.31362 0
M  V30 13578 C 1307.1 -0.931501 1.4149 0
M  V30 13579 O 1308.31 -0.855411 1.58375 0
M  V30 13580 H 1304.69 -0.09616 0.745827 0
M  V30 13581 H 1306.66 0.480638 2.94504 0
M  V30 13582 C 1305.41 -1.27102 3.23636 0
M  V30 13583 H 1304.73 -0.748082 3.92739 0
M  V30 13584 H 1306.17 -1.78379 3.84652 0
M  V30 13585 C 1304.63 -2.30683 2.45534 0
M  V30 13586 O 1305.16 -3.37197 2.18314 0
M  V30 13587 N 1303.36 -2.04006 2.06954 0
M  V30 13588 H 1302.91 -1.17403 2.29291 0
M  V30 13589 H 1302.87 -2.73531 1.5501 0
M  V30 13590 N 1306.64 -1.55279 0.269478 0
M  V30 13591 C 1307.59 -2.22304 -0.620435 0
M  V30 13592 C 1308.56 -1.19457 -1.15409 0
M  V30 13593 O 1309.74 -1.4798 -1.20443 0
M  V30 13594 C 1306.88 -2.94356 -1.80134 0
M  V30 13595 C 1306 -4.1191 -1.30207 0
M  V30 13596 C 1305.13 -4.71621 -2.44433 0
M  V30 13597 C 1304.17 -5.81379 -1.91481 0
M  V30 13598 N 1303.31 -6.35176 -2.99158 0
M  V30 13599 H 1308.15 -2.9797 -0.0422165 0
M  V30 13600 H 1305.68 -1.47097 -0.00907173 0
M  V30 13601 H 1307.64 -3.34343 -2.4954 0
M  V30 13602 H 1306.27 -2.21124 -2.35168 0
M  V30 13603 H 1305.32 -3.77082 -0.501301 0
M  V30 13604 H 1306.64 -4.9108 -0.874183 0
M  V30 13605 H 1305.79 -5.14298 -3.21842 0
M  V30 13606 H 1304.53 -3.91715 -2.90535 0
M  V30 13607 H 1303.53 -5.38157 -1.12549 0
M  V30 13608 H 1304.76 -6.63149 -1.46322 0
M  V30 13609 H 1302.7 -5.58167 -3.44652 0
M  V30 13610 H 1302.62 -7.09602 -2.60769 0
M  V30 13611 H 1303.89 -6.82512 -3.7656 0
M  V30 13612 N 1308.12 0.00332656 -1.576 0
M  V30 13613 C 1309.08 0.980628 -2.07163 0
M  V30 13614 C 1310.08 1.27455 -0.980402 0
M  V30 13615 O 1311.27 1.22029 -1.24317 0
M  V30 13616 C 1308.4 2.30647 -2.51028 0
M  V30 13617 H 1309.6 0.551982 -2.94776 0
M  V30 13618 H 1307.15 0.250728 -1.54276 0
M  V30 13619 H 1307.88 2.78207 -1.66647 0
M  V30 13620 H 1307.67 2.10635 -3.30719 0
M  V30 13621 H 1309.16 3.00761 -2.89711 0
M  V30 13622 N 1309.6 1.55164 0.276031 0
M  V30 13623 C 1310.84 1.75887 1.00953 0
M  V30 13624 C 1311.18 0.5567 1.8605 0
M  V30 13625 O 1310.45 -0.445799 1.89322 0
M  V30 13626 C 1310.73 3.06228 1.89463 0
M  V30 13627 C 1310.59 4.36795 1.07379 0
M  V30 13628 C 1311.91 3.32589 2.88223 0
M  V30 13629 H 1309.02 0.639929 0.365596 0
M  V30 13630 H 1311.67 1.87893 0.282156 0
M  V30 13631 H 1309.82 2.96124 2.51481 0
M  V30 13632 H 1311.49 4.58853 0.474549 0
M  V30 13633 H 1309.73 4.32157 0.377165 0
M  V30 13634 H 1310.4 5.24315 1.72621 0
M  V30 13635 H 1312.88 3.42467 2.36338 0
M  V30 13636 H 1311.75 4.2506 3.47297 0
M  V30 13637 H 1312.02 2.52083 3.6319 0
M  V30 13638 N 1311.07 -0.540404 1.48045 0
M  V30 13639 C 1312.3 -1.31986 1.58944 0
M  V30 13640 C 1312.71 -1.87608 0.244889 0
M  V30 13641 O 1312.06 -1.66576 -0.774467 0
M  V30 13642 C 1312.12 -2.51547 2.56835 0
M  V30 13643 C 1311.78 -2.17089 4.02146 0
M  V30 13644 C 1312.78 -1.73379 4.90138 0
M  V30 13645 C 1310.46 -2.27932 4.47607 0
M  V30 13646 C 1312.46 -1.40964 6.21617 0
M  V30 13647 C 1310.14 -1.95129 5.7911 0
M  V30 13648 C 1311.14 -1.51715 6.65937 0
M  V30 13649 O 1310.83 -1.19337 7.94993 0
M  V30 13650 H 1310.56 -0.408028 0.538971 0
M  V30 13651 H 1313.12 -0.659748 1.94516 0
M  V30 13652 H 1311.35 -3.20505 2.16364 0
M  V30 13653 H 1313.04 -3.13617 2.57681 0
M  V30 13654 H 1313.8 -1.64481 4.56258 0
M  V30 13655 H 1309.68 -2.6068 3.8022 0
M  V30 13656 H 1313.22 -1.07005 6.89344 0
M  V30 13657 H 1309.12 -2.03664 6.12528 0
M  V30 13658 H 1309.89 -1.32824 8.07651 0
M  V30 13659 N 1312.55 -1.36459 -0.788468 0
M  V30 13660 C 1313.78 -1.33898 -1.57731 0
M  V30 13661 C 1314.2 0.0795471 -1.88632 0
M  V30 13662 O 1313.55 1.03671 -1.50195 0
M  V30 13663 C 1313.6 -2.16134 -2.89773 0
M  V30 13664 O 1313.32 -3.52457 -2.60203 0
M  V30 13665 C 1314.83 -2.21364 -3.84074 0
M  V30 13666 H 1312.05 -0.459269 -0.489197 0
M  V30 13667 H 1314.59 -1.79569 -0.978526 0
M  V30 13668 H 1312.74 -1.74015 -3.46118 0
M  V30 13669 H 1313.16 -3.95378 -3.4464 0
M  V30 13670 H 1314.63 -2.83261 -4.7378 0
M  V30 13671 H 1315.11 -1.21736 -4.21992 0
M  V30 13672 H 1315.72 -2.63723 -3.33662 0
M  V30 13673 N 1314.03 1.01274 -1.20754 0
M  V30 13674 C 1314.99 2.08056 -0.961528 0
M  V30 13675 C 1315.99 1.60671 0.0644461 0
M  V30 13676 O 1317.18 1.73349 -0.172022 0
M  V30 13677 C 1314.32 3.37938 -0.448381 0
M  V30 13678 H 1315.51 2.31314 -1.90877 0
M  V30 13679 H 1313.06 1.18133 -1.02344 0
M  V30 13680 H 1313.8 3.20357 0.504144 0
M  V30 13681 H 1313.58 3.73659 -1.18833 0
M  V30 13682 H 1315.07 4.16551 -0.295876 0
M  V30 13683 N 1315.51 1.01404 1.20644 0
M  V30 13684 C 1316.76 0.700523 1.89571 0
M  V30 13685 C 1317.08 -0.771978 1.79068 0
M  V30 13686 O 1316.35 -1.55506 1.19142 0
M  V30 13687 H 1314.93 0.256122 0.70172 0
M  V30 13688 H 1317.59 1.28509 1.46531 0
M  V30 13689 H 1316.69 0.981665 2.9626 0
M  V30 13690 N 1316.99 -1.36373 0.789944 0
M  V30 13691 C 1318.22 -2.03187 0.373987 0
M  V30 13692 C 1318.63 -1.59697 -1.01457 0
M  V30 13693 O 1317.97 -0.782151 -1.66217 0
M  V30 13694 C 1318.03 -3.57703 0.358985 0
M  V30 13695 C 1317.69 -4.24396 1.69521 0
M  V30 13696 C 1318.69 -4.47247 2.65077 0
M  V30 13697 C 1316.38 -4.61858 1.97465 0
M  V30 13698 C 1318.37 -5.06642 3.86772 0
M  V30 13699 C 1316.06 -5.2097 3.19426 0
M  V30 13700 C 1317.06 -5.43302 4.13899 0
M  V30 13701 O 1316.74 -6.01173 5.3371 0
M  V30 13702 H 1316.48 -0.658654 0.152153 0
M  V30 13703 H 1319.03 -1.7532 1.07014 0
M  V30 13704 H 1317.26 -3.84691 -0.39366 0
M  V30 13705 H 1318.95 -4.05887 -0.0323762 0
M  V30 13706 H 1319.71 -4.18701 2.44775 0
M  V30 13707 H 1315.59 -4.438 1.2475 0
M  V30 13708 H 1319.14 -5.23989 4.60523 0
M  V30 13709 H 1315.03 -5.48943 3.39606 0
M  V30 13710 H 1315.8 -6.19638 5.34781 0
M  V30 13711 N 1318.47 -0.542005 -1.47987 0
M  V30 13712 C 1319.41 0.214151 -2.29804 0
M  V30 13713 C 1320.38 0.922625 -1.38119 0
M  V30 13714 O 1321.57 0.921301 -1.67083 0
M  V30 13715 C 1318.71 1.24768 -3.21756 0
M  V30 13716 C 1317.82 0.546824 -4.28525 0
M  V30 13717 C 1316.96 1.56432 -5.07644 0
M  V30 13718 C 1315.99 0.847598 -6.06203 0
M  V30 13719 N 1315.13 1.81121 -6.78336 0
M  V30 13720 H 1319.97 -0.489707 -2.93949 0
M  V30 13721 H 1317.51 -0.253331 -1.44902 0
M  V30 13722 H 1319.47 1.85933 -3.73477 0
M  V30 13723 H 1318.1 1.91976 -2.59509 0
M  V30 13724 H 1317.15 -0.179026 -3.79978 0
M  V30 13725 H 1318.46 -0.0153623 -4.98798 0
M  V30 13726 H 1317.61 2.24992 -5.63439 0
M  V30 13727 H 1316.35 2.16041 -4.37238 0
M  V30 13728 H 1315.36 0.147989 -5.49601 0
M  V30 13729 H 1316.58 0.257454 -6.78612 0
M  V30 13730 H 1314.53 2.39615 -6.10672 0
M  V30 13731 H 1314.45 1.30077 -7.44725 0
M  V30 13732 H 1315.71 2.48842 -7.38714 0
M  V30 13733 N 1319.94 1.55134 -0.277709 0
M  V30 13734 C 1321.19 1.98831 0.338982 0
M  V30 13735 C 1321.51 1.16958 1.56781 0
M  V30 13736 O 1322.71 1.50811 2.25762 0
M  V30 13737 C 1321.17 3.53899 0.654465 0
M  V30 13738 C 1320.78 4.44553 -0.554703 0
M  V30 13739 C 1322.52 4.06179 1.23364 0
M  V30 13740 C 1320.43 5.91014 -0.213663 0
M  V30 13741 H 1319.36 0.742632 0.130434 0
M  V30 13742 H 1322.01 1.79463 -0.382768 0
M  V30 13743 H 1320.39 3.69078 1.43519 0
M  V30 13744 H 1321.56 4.41143 -1.33151 0
M  V30 13745 H 1319.88 4.02921 -1.0509 0
M  V30 13746 H 1322.48 5.13152 1.50265 0
M  V30 13747 H 1322.82 3.5537 2.16836 0
M  V30 13748 H 1323.35 3.9445 0.515147 0
M  V30 13749 H 1320.09 6.45924 -1.11633 0
M  V30 13750 H 1319.61 5.97486 0.526329 0
M  V30 13751 H 1321.29 6.46712 0.19319 0
M  V30 13752 N 1321.42 0.00503138 1.57599 0
M  V30 13753 C 1322.66 -0.683203 1.92644 0
M  V30 13754 C 1323.03 -1.70657 0.879778 0
M  V30 13755 O 1324.23 -2.44555 1.11563 0
M  V30 13756 C 1322.5 -1.30509 3.32719 0
M  V30 13757 S 1324.06 -2.01775 3.89657 0
M  V30 13758 H 1320.87 -0.225551 0.674276 0
M  V30 13759 H 1323.48 0.0629255 1.95399 0
M  V30 13760 H 1322.18 -0.547509 4.06731 0
M  V30 13761 H 1321.71 -2.08904 3.3335 0
M  V30 13762 H 1323.73 -3.29348 3.7114 0
M  V30 13763 N 1322.9 -1.55308 -0.267798 0
M  V30 13764 C 1323.85 -1.89342 -1.35102 0
M  V30 13765 C 1324.84 -0.770277 -1.50874 0
M  V30 13766 O 1326.05 -0.954679 -1.52597 0
M  V30 13767 H 1322.42 -0.601036 -0.451952 0
M  V30 13768 H 1324.39 -2.7982 -1.03651 0
M  V30 13769 C 1323.14 -2.18644 -2.70352 0
M  V30 13770 H 1322.47 -3.04557 -2.59008 0
M  V30 13771 H 1323.91 -2.46374 -3.45073 0
M  V30 13772 C 1322.36 -0.995753 -3.21848 0
M  V30 13773 O 1322.89 -0.233037 -4.01023 0
M  V30 13774 N 1321.1 -0.792038 -2.79598 0
M  V30 13775 H 1320.65 -1.41396 -2.15325 0
M  V30 13776 H 1320.61 0.00300201 -3.144 0
M  V30 13777 N 1324.38 0.532545 -1.4833 0
M  V30 13778 C 1325.61 1.31141 -1.59642 0
M  V30 13779 C 1326.02 1.87476 -0.254835 0
M  V30 13780 O 1325.36 1.66985 0.765622 0
M  V30 13781 C 1325.42 2.50182 -2.58165 0
M  V30 13782 C 1325.08 2.14953 -4.03292 0
M  V30 13783 C 1326.08 1.70777 -4.91051 0
M  V30 13784 C 1323.77 2.25555 -4.4881 0
M  V30 13785 C 1325.76 1.37665 -6.22356 0
M  V30 13786 C 1323.45 1.92055 -5.80136 0
M  V30 13787 C 1324.45 1.48181 -6.66732 0
M  V30 13788 O 1324.13 1.15119 -7.95615 0
M  V30 13789 H 1323.87 0.405164 -0.541127 0
M  V30 13790 H 1326.42 0.649423 -1.94863 0
M  V30 13791 H 1324.65 3.19353 -2.1806 0
M  V30 13792 H 1326.34 3.12246 -2.5934 0
M  V30 13793 H 1327.1 1.62059 -4.57124 0
M  V30 13794 H 1322.98 2.5866 -3.81597 0
M  V30 13795 H 1326.53 1.03348 -6.89902 0
M  V30 13796 H 1322.42 2.00413 -6.136 0
M  V30 13797 H 1323.19 1.28539 -8.08344 0
M  V30 13798 N 1325.86 1.36875 0.78122 0
M  V30 13799 C 1326.81 1.28392 1.88413 0
M  V30 13800 C 1327.79 0.173687 1.5996 0
M  V30 13801 O 1328.98 0.407238 1.72251 0
M  V30 13802 C 1326.11 1.08368 3.25747 0
M  V30 13803 C 1325.2 2.23894 3.60184 0
M  V30 13804 N 1325.59 3.49247 3.65869 0
M  V30 13805 C 1323.89 2.1584 3.90294 0
M  V30 13806 C 1324.59 4.2537 3.96781 0
M  V30 13807 N 1323.56 3.54402 4.1219 0
M  V30 13808 H 1327.36 2.23334 1.91047 0
M  V30 13809 H 1324.88 1.29711 0.977175 0
M  V30 13810 H 1326.88 1.00376 4.04636 0
M  V30 13811 H 1325.54 0.143334 3.24383 0
M  V30 13812 H 1326.55 3.83276 3.4831 0
M  V30 13813 H 1323.22 1.29808 3.96807 0
M  V30 13814 H 1324.61 5.33814 4.08035 0
M  V30 13815 N 1327.33 -1.00632 1.21289 0
M  V30 13816 C 1328.26 -2.11238 0.995021 0
M  V30 13817 C 1329.24 -1.69914 -0.0795537 0
M  V30 13818 O 1330.43 -1.94035 0.0800152 0
M  V30 13819 C 1327.56 -3.42797 0.557475 0
M  V30 13820 C 1326.51 -3.97909 1.57646 0
M  V30 13821 C 1325.84 -5.25357 0.995197 0
M  V30 13822 C 1327.14 -4.30123 2.96297 0
M  V30 13823 H 1328.83 -2.29722 1.9201 0
M  V30 13824 H 1326.38 -1.10395 0.924602 0
M  V30 13825 H 1328.33 -4.19571 0.392236 0
M  V30 13826 H 1327.06 -3.24101 -0.403253 0
M  V30 13827 H 1325.72 -3.23254 1.72924 0
M  V30 13828 H 1325.36 -5.02993 0.026227 0
M  V30 13829 H 1325.06 -5.63196 1.67583 0
M  V30 13830 H 1326.59 -6.04777 0.841251 0
M  V30 13831 H 1328 -4.97744 2.8447 0
M  V30 13832 H 1326.4 -4.79101 3.61361 0
M  V30 13833 H 1327.47 -3.38454 3.47242 0
M  V30 13834 N 1328.81 -1.02043 -1.20104 0
M  V30 13835 C 1329.77 -0.598682 -2.21243 0
M  V30 13836 C 1330.77 0.333205 -1.5731 0
M  V30 13837 O 1331.96 0.12137 -1.73777 0
M  V30 13838 C 1329.1 0.125183 -3.4067 0
M  V30 13839 H 1330.29 -1.49345 -2.60069 0
M  V30 13840 H 1327.84 -0.810649 -1.33634 0
M  V30 13841 H 1328.58 1.03469 -3.07351 0
M  V30 13842 H 1328.36 -0.544316 -3.88304 0
M  V30 13843 H 1329.85 0.407469 -4.15607 0
M  V30 13844 N 1330.29 1.35952 -0.797165 0
M  V30 13845 C 1331.52 2.0328 -0.385316 0
M  V30 13846 C 1331.93 1.60095 1.00076 0
M  V30 13847 O 1331.29 0.794014 1.64322 0
M  V30 13848 C 1331.34 3.5871 -0.448284 0
M  V30 13849 O 1331.06 4.00323 -1.7797 0
M  V30 13850 C 1332.56 4.43291 -0.0280465 0
M  V30 13851 H 1329.78 0.652192 -0.157756 0
M  V30 13852 H 1332.33 1.73769 -1.07817 0
M  V30 13853 H 1330.48 3.86903 0.196224 0
M  V30 13854 H 1330.9 4.94941 -1.73592 0
M  V30 13855 H 1332.37 5.51862 -0.123234 0
M  V30 13856 H 1332.85 4.27059 1.02552 0
M  V30 13857 H 1333.45 4.20375 -0.645343 0
M  V30 13858 N 1331.77 0.549846 1.47697 0
M  V30 13859 C 1332.72 -0.201961 2.29915 0
M  V30 13860 C 1333.69 -0.915287 1.38606 0
M  V30 13861 O 1334.87 -0.912427 1.67569 0
M  V30 13862 C 1332.01 -1.2306 3.22413 0
M  V30 13863 C 1331.12 -0.524091 4.28809 0
M  V30 13864 C 1330.26 -1.53738 5.08466 0
M  V30 13865 C 1329.3 -0.815437 6.06644 0
M  V30 13866 N 1328.43 -1.77521 6.79287 0
M  V30 13867 H 1333.27 0.505289 2.93685 0
M  V30 13868 H 1330.81 0.261012 1.44766 0
M  V30 13869 H 1332.77 -1.83949 3.74458 0
M  V30 13870 H 1331.4 -1.90597 2.60523 0
M  V30 13871 H 1330.45 0.199174 3.79878 0
M  V30 13872 H 1331.76 0.0418145 4.98782 0
M  V30 13873 H 1330.92 -2.22001 5.64624 0
M  V30 13874 H 1329.66 -2.1372 4.38378 0
M  V30 13875 H 1328.66 -0.11884 5.49672 0
M  V30 13876 H 1329.89 -0.221462 6.78739 0
M  V30 13877 H 1327.83 -2.36374 6.11934 0
M  V30 13878 H 1327.75 -1.26126 7.45405 0
M  V30 13879 H 1329.02 -2.44921 7.40023 0
M  V30 13880 N 1333.25 -1.54984 0.285932 0
M  V30 13881 C 1334.16 -2.26621 -0.606648 0
M  V30 13882 C 1335.17 -1.29595 -1.16108 0
M  V30 13883 O 1336.35 -1.62551 -1.18908 0
M  V30 13884 C 1333.41 -2.98156 -1.76929 0
M  V30 13885 C 1332.47 -4.10685 -1.25045 0
M  V30 13886 C 1331.71 -4.788 -2.35768 0
M  V30 13887 O 1331.93 -4.46183 -3.55354 0
M  V30 13888 O 1330.86 -5.66523 -2.03312 0
M  V30 13889 H 1334.69 -3.03689 -0.0259981 0
M  V30 13890 H 1332.28 -1.49306 0.0529355 0
M  V30 13891 H 1334.16 -3.43076 -2.44697 0
M  V30 13892 H 1332.83 -2.23996 -2.33683 0
M  V30 13893 H 1331.74 -3.70198 -0.538919 0
M  V30 13894 H 1333.07 -4.86778 -0.728528 0
M  V30 13895 N 1334.72 -0.0133892 -1.57594 0
M  V30 13896 C 1336 0.706416 -1.82398 0
M  V30 13897 C 1336.38 1.91236 -0.893983 0
M  V30 13898 O 1335.73 2.28436 0.0541675 0
M  V30 13899 C 1335.94 1.09951 -3.31228 0
M  V30 13900 C 1337.29 1.49776 -3.97306 0
M  V30 13901 O 1338.31 1.19293 -3.3563 0
M  V30 13902 O 1337.17 2.06511 -5.0598 0
M  V30 13903 H 1334.26 0.345131 -0.751541 0
M  V30 13904 H 1336.81 -0.0398687 -1.69653 0
M  V30 13905 H 1335.58 0.240514 -3.9056 0
M  V30 13906 H 1335.21 1.90447 -3.49021 0
M  V30 13907 N 1336.2 1.55448 0.259558 0
M  V30 13908 C 1337.13 1.9226 1.32508 0
M  V30 13909 C 1338.11 0.786012 1.5085 0
M  V30 13910 O 1339.3 1.04526 1.6367 0
M  V30 13911 C 1336.43 2.20627 2.68218 0
M  V30 13912 C 1335.38 3.36418 2.64589 0
M  V30 13913 C 1334.71 3.50295 4.03977 0
M  V30 13914 C 1336.01 4.72452 2.2268 0
M  V30 13915 H 1337.7 2.81509 1.01945 0
M  V30 13916 H 1335.25 1.35444 0.488965 0
M  V30 13917 H 1337.2 2.44968 3.42883 0
M  V30 13918 H 1335.93 1.28191 3.00391 0
M  V30 13919 H 1334.58 3.12065 1.92382 0
M  V30 13920 H 1334.23 2.55302 4.33394 0
M  V30 13921 H 1333.93 4.28155 4.02439 0
M  V30 13922 H 1335.46 3.76944 4.8036 0
M  V30 13923 H 1336.87 4.96249 2.87071 0
M  V30 13924 H 1335.27 5.53323 2.32279 0
M  V30 13925 H 1336.34 4.70367 1.17826 0
M  V30 13926 N 1337.68 -0.524672 1.4861 0
M  V30 13927 C 1338.61 -1.64481 1.59621 0
M  V30 13928 C 1339.63 -1.55557 0.480181 0
M  V30 13929 O 1340.81 -1.61921 0.751254 0
M  V30 13930 C 1337.91 -3.03158 1.51487 0
M  V30 13931 C 1337.09 -3.37509 2.78221 0
M  V30 13932 C 1336.15 -4.5549 2.63467 0
M  V30 13933 O 1335.17 -4.58448 3.37364 0
M  V30 13934 N 1336.37 -5.53986 1.73437 0
M  V30 13935 H 1339.14 -1.5547 2.56221 0
M  V30 13936 H 1336.7 -0.712059 1.45401 0
M  V30 13937 H 1338.69 -3.79969 1.39305 0
M  V30 13938 H 1337.26 -3.06219 0.628406 0
M  V30 13939 H 1336.48 -2.49824 3.04929 0
M  V30 13940 H 1337.77 -3.57246 3.62288 0
M  V30 13941 H 1337.17 -5.54378 1.12612 0
M  V30 13942 H 1335.73 -6.29993 1.6719 0
M  V30 13943 N 1339.16 -1.37287 -0.77395 0
M  V30 13944 C 1340.11 -1.32955 -1.90855 0
M  V30 13945 C 1341.1 -0.218695 -1.67982 0
M  V30 13946 O 1342.31 -0.386594 -1.75799 0
M  V30 13947 H 1338.68 -0.414289 -0.62759 0
M  V30 13948 H 1340.65 -2.2874 -1.91626 0
M  V30 13949 C 1339.4 -1.15121 -3.28089 0
M  V30 13950 H 1338.72 -1.99852 -3.46264 0
M  V30 13951 H 1340.16 -1.1614 -4.07784 0
M  V30 13952 C 1338.62 0.14327 -3.36595 0
M  V30 13953 O 1339.15 1.12763 -3.85548 0
M  V30 13954 N 1337.36 0.193219 -2.89957 0
M  V30 13955 H 1336.91 -0.608471 -2.50311 0
M  V30 13956 H 1336.86 1.05897 -2.96029 0
M  V30 13957 N 1340.64 0.999871 -1.21821 0
M  V30 13958 C 1341.86 1.77405 -1.06467 0
M  V30 13959 C 1342.28 1.84828 0.385227 0
M  V30 13960 O 1341.64 1.31338 1.26714 0
M  V30 13961 C 1341.69 3.21062 -1.66137 0
M  V30 13962 O 1341.41 3.14054 -3.05454 0
M  V30 13963 C 1342.91 4.14958 -1.55963 0
M  V30 13964 H 1340.13 0.557368 -0.373607 0
M  V30 13965 H 1342.67 1.2575 -1.61267 0
M  V30 13966 H 1340.83 3.69808 -1.15416 0
M  V30 13967 H 1341.24 4.04346 -3.34073 0
M  V30 13968 H 1342.72 5.13536 -2.02448 0
M  V30 13969 H 1343.19 4.36171 -0.514949 0
M  V30 13970 H 1343.8 3.72105 -2.05956 0
M  V30 13971 N 1342.11 1.02678 1.19562 0
M  V30 13972 C 1343.36 0.723086 1.89471 0
M  V30 13973 C 1343.69 -0.746269 1.79289 0
M  V30 13974 O 1342.97 -1.54322 1.18384 0
M  V30 13975 C 1343.25 1.17224 3.40486 0
M  V30 13976 C 1343.1 2.70266 3.5955 0
M  V30 13977 C 1344.42 0.751397 4.33638 0
M  V30 13978 H 1341.54 0.264155 0.688034 0
M  V30 13979 H 1344.18 1.27633 1.40747 0
M  V30 13980 H 1342.33 0.701544 3.82113 0
M  V30 13981 H 1344.01 3.25266 3.27108 0
M  V30 13982 H 1342.25 3.10758 3.02675 0
M  V30 13983 H 1342.92 2.96748 4.65451 0
M  V30 13984 H 1345.4 1.15621 3.99714 0
M  V30 13985 H 1344.27 1.09358 5.37896 0
M  V30 13986 H 1344.53 -0.346367 4.40741 0
M  V30 13987 N 1343.59 -1.35528 0.804364 0
M  V30 13988 C 1344.82 -2.03604 0.395013 0
M  V30 13989 C 1345.24 -1.60225 -0.985371 0
M  V30 13990 O 1344.6 -0.777844 -1.63766 0
M  V30 13991 C 1344.65 -3.57337 0.484011 0
M  V30 13992 O 1343.75 -4.09316 -0.503395 0
M  V30 13993 H 1343.09 -0.643089 0.165325 0
M  V30 13994 H 1345.62 -1.73171 1.08963 0
M  V30 13995 H 1345.63 -4.0647 0.353009 0
M  V30 13996 H 1344.31 -3.8826 1.49088 0
M  V30 13997 H 1342.89 -3.71412 -0.332817 0
M  V30 13998 N 1345.07 -0.557671 -1.47404 0
M  V30 13999 C 1346.32 -0.0316382 -2.01675 0
M  V30 14000 C 1346.63 1.32656 -1.43742 0
M  V30 14001 O 1347.84 1.94253 -1.89678 0
M  V30 14002 C 1346.3 -0.00606931 -3.59899 0
M  V30 14003 C 1345.9 -1.36106 -4.26825 0
M  V30 14004 C 1347.65 0.467332 -4.2192 0
M  V30 14005 C 1345.55 -1.29457 -5.77057 0
M  V30 14006 H 1344.48 -0.00805738 -0.753957 0
M  V30 14007 H 1347.14 -0.705592 -1.69392 0
M  V30 14008 H 1345.52 0.733541 -3.89147 0
M  V30 14009 H 1346.69 -2.11842 -4.09218 0
M  V30 14010 H 1345.01 -1.77243 -3.76794 0
M  V30 14011 H 1347.6 0.535478 -5.32012 0
M  V30 14012 H 1347.95 1.47942 -3.89126 0
M  V30 14013 H 1348.48 -0.217434 -3.97205 0
M  V30 14014 H 1345.22 -2.28267 -6.14471 0
M  V30 14015 H 1344.74 -0.579022 -5.96999 0
M  V30 14016 H 1346.42 -0.996834 -6.39275 0
M  V30 14017 N 1346.55 1.54831 -0.294147 0
M  V30 14018 C 1347.48 2.19422 0.626821 0
M  V30 14019 C 1348.46 1.16136 1.13804 0
M  V30 14020 O 1349.64 1.44747 1.2075 0
M  V30 14021 C 1346.77 2.83262 1.85689 0
M  V30 14022 C 1345.82 4.00016 1.4795 0
M  V30 14023 S 1346.65 5.32757 0.541307 0
M  V30 14024 C 1347.81 6.00076 1.77932 0
M  V30 14025 H 1348.04 2.97198 0.0780539 0
M  V30 14026 H 1345.57 1.54201 -0.0783131 0
M  V30 14027 H 1347.53 3.20671 2.56282 0
M  V30 14028 H 1346.19 2.05345 2.37681 0
M  V30 14029 H 1345.38 4.43443 2.3953 0
M  V30 14030 H 1344.99 3.64129 0.853573 0
M  V30 14031 H 1347.28 6.20466 2.7208 0
M  V30 14032 H 1348.22 6.94368 1.38774 0
M  V30 14033 H 1348.63 5.29643 1.95292 0
M  V30 14034 N 1348.03 0.0217466 1.57585 0
M  V30 14035 C 1349.27 -0.653715 1.92609 0
M  V30 14036 C 1349.63 -1.70158 0.897998 0
M  V30 14037 O 1348.92 -1.91403 -0.0869654 0
M  V30 14038 C 1349.12 -1.3197 3.32143 0
M  V30 14039 C 1348.94 -0.33786 4.48429 0
M  V30 14040 C 1347.71 0.0596192 5.05265 0
M  V30 14041 C 1349.91 0.404844 5.12704 0
M  V30 14042 N 1347.89 1.03739 6.05071 0
M  V30 14043 C 1349.27 1.2366 6.07543 0
M  V30 14044 C 1351.32 0.466341 4.95711 0
M  V30 14045 C 1350.02 2.1243 6.87216 0
M  V30 14046 C 1352.05 1.34134 5.75988 0
M  V30 14047 C 1351.41 2.1609 6.70436 0
M  V30 14048 H 1347.51 -0.211748 0.752786 0
M  V30 14049 H 1350.09 0.0871946 1.94505 0
M  V30 14050 H 1348.27 -2.03078 3.3108 0
M  V30 14051 H 1350 -1.95159 3.54535 0
M  V30 14052 H 1346.75 -0.313299 4.72563 0
M  V30 14053 H 1347.18 1.5223 6.59663 0
M  V30 14054 H 1351.82 -0.153024 4.22523 0
M  V30 14055 H 1349.54 2.75424 7.59715 0
M  V30 14056 H 1353.12 1.39312 5.64875 0
M  V30 14057 H 1352 2.82701 7.31471 0
M  V30 14058 N 1349.51 -1.55583 -0.251311 0
M  V30 14059 C 1350.45 -1.90764 -1.33086 0
M  V30 14060 C 1351.45 -0.786236 -1.50049 0
M  V30 14061 O 1352.65 -0.97081 -1.51576 0
M  V30 14062 H 1349.03 -0.605795 -0.445551 0
M  V30 14063 H 1351 -2.80903 -1.00678 0
M  V30 14064 C 1349.75 -2.21499 -2.68018 0
M  V30 14065 H 1349.07 -3.07287 -2.55763 0
M  V30 14066 H 1350.51 -2.50021 -3.42441 0
M  V30 14067 C 1348.97 -1.02983 -3.20774 0
M  V30 14068 O 1349.5 -0.275557 -4.00754 0
M  V30 14069 N 1347.71 -0.821649 -2.78742 0
M  V30 14070 H 1347.25 -1.43672 -2.13813 0
M  V30 14071 H 1347.21 -0.0303445 -3.14385 0
M  V30 14072 N 1350.98 0.516783 -1.48886 0
M  V30 14073 C 1352.4 0.84654 -1.35299 0
M  V30 14074 C 1352.6 1.97998 -0.374035 0
M  V30 14075 O 1351.66 2.51707 0.200003 0
M  V30 14076 C 1352.97 1.20162 -2.75648 0
M  V30 14077 C 1354.52 1.31074 -2.84233 0
M  V30 14078 C 1354.99 1.69919 -4.25313 0
M  V30 14079 N 1356.48 1.76998 -4.28049 0
M  V30 14080 C 1357.22 2.08466 -5.34162 0
M  V30 14081 N 1356.71 2.38268 -6.50538 0
M  V30 14082 N 1358.51 2.09584 -5.21566 0
M  V30 14083 H 1350.66 -0.230871 -2.11142 0
M  V30 14084 H 1352.92 -0.0406678 -0.947127 0
M  V30 14085 H 1352.63 0.442278 -3.48908 0
M  V30 14086 H 1352.5 2.14875 -3.10014 0
M  V30 14087 H 1354.89 2.06083 -2.1122 0
M  V30 14088 H 1354.97 0.344506 -2.5347 0
M  V30 14089 H 1354.61 0.954667 -4.98847 0
M  V30 14090 H 1354.54 2.67616 -4.5353 0
M  V30 14091 H 1357.03 1.56191 -3.44112 0
M  V30 14092 H 1357.35 2.61423 -7.2724 0
M  V30 14093 H 1355.69 2.35758 -6.53791 0
M  V30 14094 H 1358.88 1.85768 -4.2966 0
M  V30 14095 H 1359.06 2.33776 -6.04362 0
M  V30 14096 N 1352.46 1.37696 0.766659 0
M  V30 14097 C 1353.74 1.23715 1.51506 0
M  V30 14098 C 1354.12 -0.167091 2.10438 0
M  V30 14099 O 1353.47 -1.17526 1.95959 0
M  V30 14100 C 1353.68 2.33715 2.59188 0
M  V30 14101 C 1355.02 2.71504 3.26451 0
M  V30 14102 O 1356.05 2.32929 2.69486 0
M  V30 14103 O 1354.91 3.37981 4.29454 0
M  V30 14104 H 1352 0.483046 0.671264 0
M  V30 14105 H 1354.55 1.49489 0.803188 0
M  V30 14106 H 1353.32 3.27729 2.13797 0
M  V30 14107 H 1352.94 2.09433 3.3797 0
M  V30 14108 N 1353.94 -0.993397 1.22349 0
M  V30 14109 C 1354.87 -2.10171 1.01737 0
M  V30 14110 C 1355.85 -1.69989 -0.0615276 0
M  V30 14111 O 1357.04 -1.93939 0.100591 0
M  V30 14112 C 1354.17 -3.42186 0.593801 0
M  V30 14113 C 1353.12 -3.96215 1.61858 0
M  V30 14114 C 1352.45 -5.24272 1.05086 0
M  V30 14115 C 1353.75 -4.26956 3.00842 0
M  V30 14116 H 1355.44 -2.27673 1.94436 0
M  V30 14117 H 1352.99 -1.09408 0.936258 0
M  V30 14118 H 1354.94 -4.19131 0.436715 0
M  V30 14119 H 1353.66 -3.2451 -0.368855 0
M  V30 14120 H 1352.32 -3.21401 1.76343 0
M  V30 14121 H 1351.97 -5.02937 0.0795747 0
M  V30 14122 H 1351.67 -5.61387 1.73547 0
M  V30 14123 H 1353.19 -6.03851 0.905349 0
M  V30 14124 H 1354.61 -4.94699 2.89734 0
M  V30 14125 H 1353 -4.75242 3.66422 0
M  V30 14126 H 1354.07 -3.34752 3.50812 0
M  V30 14127 N 1355.42 -1.03311 -1.19015 0
M  V30 14128 C 1356.35 -0.638279 -2.24607 0
M  V30 14129 C 1357.33 0.354795 -1.66359 0
M  V30 14130 O 1358.51 0.236574 -1.92754 0
M  V30 14131 C 1355.64 0.00737316 -3.47299 0
M  V30 14132 C 1354.6 -0.908431 -4.18248 0
M  V30 14133 C 1353.92 -0.127658 -5.34548 0
M  V30 14134 C 1355.22 -2.2241 -4.72579 0
M  V30 14135 H 1356.92 -1.52099 -2.57888 0
M  V30 14136 H 1354.46 -0.732779 -1.23961 0
M  V30 14137 H 1356.42 0.295256 -4.20364 0
M  V30 14138 H 1355.14 0.924912 -3.1323 0
M  V30 14139 H 1353.8 -1.18058 -3.47071 0
M  V30 14140 H 1353.45 0.792048 -4.96725 0
M  V30 14141 H 1353.15 -0.737702 -5.82951 0
M  V30 14142 H 1354.67 0.153385 -6.10407 0
M  V30 14143 H 1356.09 -1.99745 -5.37378 0
M  V30 14144 H 1354.48 -2.78644 -5.31486 0
M  V30 14145 H 1355.55 -2.87584 -3.90415 0
M  V30 14146 N 1356.9 1.35099 -0.81154 0
M  V30 14147 C 1358.14 1.9892 -0.394815 0
M  V30 14148 C 1358.47 1.6422 1.0366 0
M  V30 14149 O 1357.75 0.908031 1.72003 0
M  V30 14150 C 1358.03 3.55331 -0.58413 0
M  V30 14151 C 1357.89 3.99812 -2.06084 0
M  V30 14152 C 1359.2 4.40098 -0.0129096 0
M  V30 14153 H 1356.32 0.72261 -0.144926 0
M  V30 14154 H 1358.97 1.60173 -1.02199 0
M  V30 14155 H 1357.12 3.88468 -0.0502446 0
M  V30 14156 H 1358.79 3.77061 -2.65749 0
M  V30 14157 H 1357.03 3.50539 -2.55548 0
M  V30 14158 H 1357.7 5.08655 -2.14416 0
M  V30 14159 H 1360.18 4.13449 -0.468917 0
M  V30 14160 H 1359.05 5.4862 -0.175252 0
M  V30 14161 H 1359.31 4.28675 1.0812 0
M  V30 14162 N 1358.37 0.56548 1.47106 0
M  V30 14163 C 1359.62 0.0445914 2.02751 0
M  V30 14164 C 1359.95 -1.30517 1.43801 0
M  V30 14165 O 1359.23 -1.85123 0.596646 0
M  V30 14166 C 1359.51 -0.0396474 3.60078 0
M  V30 14167 C 1359.36 1.3378 4.29445 0
M  V30 14168 C 1360.68 -0.748954 4.3368 0
M  V30 14169 H 1357.8 0.0176787 0.736788 0
M  V30 14170 H 1360.44 0.729363 1.75443 0
M  V30 14171 H 1358.59 -0.622826 3.83475 0
M  V30 14172 H 1360.27 1.96482 4.17364 0
M  V30 14173 H 1358.51 1.91024 3.89477 0
M  V30 14174 H 1359.18 1.23149 5.38088 0
M  V30 14175 H 1361.66 -0.253707 4.15326 0
M  V30 14176 H 1360.53 -0.776877 5.43374 0
M  V30 14177 H 1360.79 -1.80679 4.03494 0
M  V30 14178 N 1359.85 -1.54672 0.302354 0
M  V30 14179 C 1360.76 -2.27251 -0.582578 0
M  V30 14180 C 1361.78 -1.30819 -1.14727 0
M  V30 14181 O 1362.95 -1.63803 -1.17177 0
M  V30 14182 C 1360.02 -3.00016 -1.73757 0
M  V30 14183 C 1359.08 -4.11988 -1.20682 0
M  V30 14184 C 1358.31 -4.81273 -2.30676 0
M  V30 14185 O 1358.54 -4.49927 -3.50602 0
M  V30 14186 O 1357.47 -5.68647 -1.97291 0
M  V30 14187 H 1361.3 -3.03699 0.00621365 0
M  V30 14188 H 1358.88 -1.49242 0.0687684 0
M  V30 14189 H 1360.76 -3.45652 -2.41045 0
M  V30 14190 H 1359.44 -2.26462 -2.31294 0
M  V30 14191 H 1358.35 -3.70749 -0.499625 0
M  V30 14192 H 1359.68 -4.87524 -0.676858 0
M  V30 14193 N 1361.33 -0.0301034 -1.57571 0
M  V30 14194 C 1362.56 0.662045 -1.9655 0
M  V30 14195 C 1362.98 1.64811 -0.906581 0
M  V30 14196 O 1362.34 1.80816 0.132415 0
M  V30 14197 C 1362.39 1.34389 -3.34622 0
M  V30 14198 O 1361.49 2.45919 -3.31056 0
M  V30 14199 H 1360.83 0.173842 -0.640839 0
M  V30 14200 H 1363.36 -0.092248 -2.04392 0
M  V30 14201 H 1363.37 1.70045 -3.70875 0
M  V30 14202 H 1362.05 0.621092 -4.11236 0
M  V30 14203 H 1360.62 2.12367 -3.06521 0
M  V30 14204 N 1362.81 1.55714 0.243056 0
M  V30 14205 C 1363.76 1.90638 1.30099 0
M  V30 14206 C 1364.73 0.761049 1.47639 0
M  V30 14207 O 1365.91 1.01505 1.61559 0
M  V30 14208 C 1363.05 2.20985 2.65065 0
M  V30 14209 C 1362.16 3.48343 2.55501 0
M  V30 14210 C 1361.3 3.68241 3.82847 0
M  V30 14211 C 1360.34 4.89187 3.67916 0
M  V30 14212 N 1359.47 5.05586 4.87162 0
M  V30 14213 H 1364.31 2.80857 0.996155 0
M  V30 14214 H 1361.85 1.39027 0.480619 0
M  V30 14215 H 1363.81 2.36585 3.43632 0
M  V30 14216 H 1362.44 1.33966 2.93689 0
M  V30 14217 H 1361.49 3.41054 1.68483 0
M  V30 14218 H 1362.8 4.37057 2.4038 0
M  V30 14219 H 1361.96 3.83822 4.69857 0
M  V30 14220 H 1360.7 2.77768 4.00869 0
M  V30 14221 H 1359.7 4.7358 2.79289 0
M  V30 14222 H 1360.93 5.81124 3.51385 0
M  V30 14223 H 1358.87 4.18051 5.05538 0
M  V30 14224 H 1358.79 5.88395 4.74686 0
M  V30 14225 H 1360.06 5.25582 5.7566 0
M  V30 14226 N 1364.29 -0.50888 1.49158 0
M  V30 14227 C 1365.25 -1.59354 1.64739 0
M  V30 14228 C 1366.25 -1.52175 0.519557 0
M  V30 14229 O 1367.44 -1.55468 0.785838 0
M  V30 14230 C 1364.57 -2.99002 1.63739 0
M  V30 14231 H 1365.76 -1.46871 2.61474 0
M  V30 14232 H 1363.32 -0.732532 1.38071 0
M  V30 14233 H 1364.05 -3.1697 0.685583 0
M  V30 14234 H 1363.84 -3.05622 2.45637 0
M  V30 14235 H 1365.33 -3.77822 1.77877 0
M  V30 14236 N 1365.76 -1.381 -0.759346 0
M  V30 14237 C 1366.7 -1.3075 -1.88248 0
M  V30 14238 C 1367.71 -0.220835 -1.61295 0
M  V30 14239 O 1368.9 -0.477952 -1.71982 0
M  V30 14240 C 1366 -1.00174 -3.23757 0
M  V30 14241 C 1365.17 -2.19635 -3.78258 0
M  V30 14242 C 1364.23 -1.85892 -4.92271 0
M  V30 14243 O 1363.26 -2.58325 -5.07205 0
M  V30 14244 N 1364.46 -0.810436 -5.74815 0
M  V30 14245 H 1367.22 -2.27529 -1.95065 0
M  V30 14246 H 1364.78 -1.31886 -0.93902 0
M  V30 14247 H 1366.78 -0.756631 -3.97564 0
M  V30 14248 H 1365.35 -0.122094 -3.12361 0
M  V30 14249 H 1364.57 -2.60246 -2.96084 0
M  V30 14250 H 1365.85 -2.99373 -4.11404 0
M  V30 14251 H 1365.25 -0.209644 -5.65311 0
M  V30 14252 H 1363.81 -0.625206 -6.48795 0
M  V30 14253 N 1367.24 0.986894 -1.22875 0
M  V30 14254 C 1368.49 1.72388 -1.05484 0
M  V30 14255 C 1368.81 1.90639 0.410074 0
M  V30 14256 O 1368.08 1.47036 1.2945 0
M  V30 14257 H 1366.66 0.638732 -0.387337 0
M  V30 14258 H 1369.32 1.18829 -1.54485 0
M  V30 14259 H 1368.42 2.71599 -1.53754 0
M  V30 14260 N 1368.72 1.0394 1.18466 0
M  V30 14261 C 1369.95 0.762014 1.92356 0
M  V30 14262 C 1370.36 -0.680652 1.76104 0
M  V30 14263 O 1369.72 -1.46385 1.08985 0
M  V30 14264 C 1369.77 1.11717 3.43805 0
M  V30 14265 O 1369.49 2.50319 3.59544 0
M  V30 14266 C 1370.99 0.864099 4.34797 0
M  V30 14267 H 1368.21 0.277999 0.610702 0
M  V30 14268 H 1370.76 1.38672 1.503 0
M  V30 14269 H 1368.91 0.537445 3.83654 0
M  V30 14270 H 1369.33 2.63875 4.53288 0
M  V30 14271 H 1370.8 1.16247 5.39621 0
M  V30 14272 H 1371.28 -0.20117 4.38739 0
M  V30 14273 H 1371.88 1.42706 4.00643 0
M  V30 14274 N 1370.2 -1.34667 0.818693 0
M  V30 14275 C 1371.48 -1.92838 0.327521 0
M  V30 14276 C 1371.86 -1.74732 -1.18457 0
M  V30 14277 O 1371.2 -1.12352 -1.98971 0
M  V30 14278 C 1371.41 -3.40797 0.752207 0
M  V30 14279 C 1372.76 -4.17948 0.748613 0
M  V30 14280 O 1373.79 -3.49364 0.694517 0
M  V30 14281 O 1372.64 -5.40344 0.817958 0
M  V30 14282 H 1369.74 -0.822249 0.0885148 0
M  V30 14283 H 1372.28 -1.43668 0.9032 0
M  V30 14284 H 1371.06 -3.47759 1.79387 0
M  V30 14285 H 1370.68 -3.97309 0.151992 0
M  V30 14286 N 1371.68 -0.573274 -1.46804 0
M  V30 14287 C 1372.9 -0.0586717 -2.07317 0
M  V30 14288 C 1373.33 1.2328 -1.42069 0
M  V30 14289 O 1372.68 1.74235 -0.501188 0
M  V30 14290 C 1372.73 0.103503 -3.60451 0
M  V30 14291 O 1371.84 1.16229 -3.95682 0
M  V30 14292 H 1371.18 -0.0585504 -0.661414 0
M  V30 14293 H 1373.71 -0.793532 -1.88585 0
M  V30 14294 H 1373.72 0.312658 -4.068 0
M  V30 14295 H 1372.39 -0.839684 -4.07335 0
M  V30 14296 H 1370.97 0.932347 -3.61056 0
M  V30 14297 N 1373.15 1.5451 -0.310553 0
M  V30 14298 C 1374.4 1.99505 0.296731 0
M  V30 14299 C 1374.72 1.20257 1.54265 0
M  V30 14300 O 1375.92 1.55566 2.22512 0
M  V30 14301 C 1374.38 3.55208 0.579251 0
M  V30 14302 C 1373.99 4.43276 -0.648874 0
M  V30 14303 C 1375.73 4.08705 1.1472 0
M  V30 14304 C 1373.64 5.90428 -0.338978 0
M  V30 14305 H 1372.57 0.745232 0.114652 0
M  V30 14306 H 1375.22 1.78611 -0.420749 0
M  V30 14307 H 1373.6 3.72039 1.35658 0
M  V30 14308 H 1374.77 4.3822 -1.42478 0
M  V30 14309 H 1373.09 4.00601 -1.13613 0
M  V30 14310 H 1375.69 5.16223 1.39346 0
M  V30 14311 H 1376.03 3.59889 2.09249 0
M  V30 14312 H 1376.56 3.95454 0.431363 0
M  V30 14313 H 1373.3 6.43411 -1.25309 0
M  V30 14314 H 1372.82 5.98468 0.399475 0
M  V30 14315 H 1374.5 6.46976 0.0559696 0
M  V30 14316 N 1374.63 0.0384594 1.57553 0
M  V30 14317 C 1375.6 -0.925358 2.0969 0
M  V30 14318 C 1376.6 -1.24811 1.01385 0
M  V30 14319 O 1377.79 -1.1869 1.27508 0
M  V30 14320 C 1374.92 -2.2391 2.57055 0
M  V30 14321 H 1376.11 -0.473633 2.96136 0
M  V30 14322 H 1373.66 -0.209736 1.54886 0
M  V30 14323 H 1374.4 -2.73691 1.73964 0
M  V30 14324 H 1374.18 -2.01793 3.36188 0
M  V30 14325 H 1375.67 -2.92974 2.97583 0
M  V30 14326 N 1376.11 -1.55841 -0.234795 0
M  V30 14327 C 1377.53 -1.48536 -0.583885 0
M  V30 14328 C 1377.73 -0.731018 -1.87772 0
M  V30 14329 O 1376.78 -0.265287 -2.51103 0
M  V30 14330 C 1378.1 -2.93017 -0.675389 0
M  V30 14331 C 1379.64 -3.03459 -0.766906 0
M  V30 14332 C 1380.12 -4.49272 -0.889868 0
M  V30 14333 N 1381.61 -4.5326 -0.95443 0
M  V30 14334 C 1382.35 -5.63346 -1.06905 0
M  V30 14335 N 1381.84 -6.83215 -1.14845 0
M  V30 14336 N 1383.63 -5.51169 -1.10315 0
M  V30 14337 H 1375.79 -2.0332 0.614405 0
M  V30 14338 H 1378.05 -0.923581 0.213779 0
M  V30 14339 H 1377.75 -3.51099 0.205493 0
M  V30 14340 H 1377.63 -3.4418 -1.54337 0
M  V30 14341 H 1380.02 -2.4545 -1.63823 0
M  V30 14342 H 1380.1 -2.55487 0.126472 0
M  V30 14343 H 1379.74 -5.07895 -0.0230489 0
M  V30 14344 H 1379.67 -4.94937 -1.79847 0
M  V30 14345 H 1382.16 -3.6693 -0.903923 0
M  V30 14346 H 1382.47 -7.62863 -1.23532 0
M  V30 14347 H 1380.82 -6.85952 -1.11781 0
M  V30 14348 H 1384.01 -4.56453 -1.03769 0
M  V30 14349 H 1384.18 -6.36998 -1.18903 0
M  V30 14350 N 1377.59 0.500963 -1.49426 0
M  V30 14351 C 1378.83 1.26526 -1.60532 0
M  V30 14352 C 1379.19 1.89864 -0.28562 0
M  V30 14353 O 1380.39 2.67422 -0.271868 0
M  V30 14354 C 1378.67 2.30375 -2.73244 0
M  V30 14355 S 1380.22 3.16143 -3.04301 0
M  V30 14356 H 1377.04 0.429994 -0.566238 0
M  V30 14357 H 1379.64 0.567427 -1.87084 0
M  V30 14358 H 1378.35 1.82373 -3.67652 0
M  V30 14359 H 1377.88 3.04827 -2.48685 0
M  V30 14360 H 1379.89 4.31027 -2.45826 0
M  V30 14361 N 1379.07 1.38501 0.752011 0
M  V30 14362 C 1380.02 1.35975 1.88716 0
M  V30 14363 C 1381.01 0.245392 1.67613 0
M  V30 14364 O 1382.22 0.414514 1.75162 0
M  V30 14365 H 1378.59 0.424221 0.620919 0
M  V30 14366 H 1380.56 2.3176 1.87962 0
M  V30 14367 C 1379.31 1.20326 3.26216 0
M  V30 14368 H 1378.63 2.05336 3.43041 0
M  V30 14369 H 1380.07 1.22613 4.05884 0
M  V30 14370 C 1378.53 -0.0897029 3.36781 0
M  V30 14371 O 1379.06 -1.06615 3.87293 0
M  V30 14372 N 1377.27 -0.147065 2.90228 0
M  V30 14373 H 1376.82 0.648216 2.49311 0
M  V30 14374 H 1376.77 -1.01174 2.97676 0
M  V30 14375 N 1380.55 -0.980364 1.23396 0
M  V30 14376 C 1381.79 -1.73674 1.07781 0
M  V30 14377 C 1382.15 -1.88227 -0.378759 0
M  V30 14378 O 1383.35 -2.6067 -0.656092 0
M  V30 14379 C 1381.62 -3.09727 1.78337 0
M  V30 14380 S 1383.18 -4.00944 1.78295 0
M  V30 14381 H 1380 -0.597273 0.385728 0
M  V30 14382 H 1382.6 -1.17123 1.56533 0
M  V30 14383 H 1381.3 -2.96786 2.83455 0
M  V30 14384 H 1380.84 -3.71346 1.29868 0
M  V30 14385 H 1382.85 -4.89011 0.841572 0
M  V30 14386 N 1382.02 -1.04567 -1.17913 0
M  V30 14387 C 1382.97 -0.634939 -2.23766 0
M  V30 14388 C 1383.97 0.340723 -1.65938 0
M  V30 14389 O 1385.17 0.207467 -1.788 0
M  V30 14390 H 1381.55 -0.187129 -0.728345 0
M  V30 14391 H 1383.52 -1.53798 -2.55712 0
M  V30 14392 C 1382.27 -0.0190662 -3.47695 0
M  V30 14393 H 1381.59 -0.760881 -3.92493 0
M  V30 14394 H 1383.03 0.231035 -4.2337 0
M  V30 14395 C 1381.49 1.23246 -3.13548 0
M  V30 14396 O 1382.02 2.32262 -3.27746 0
M  V30 14397 N 1380.22 1.12768 -2.67828 0
M  V30 14398 H 1379.77 0.240547 -2.56474 0
M  V30 14399 H 1379.73 1.96594 -2.45353 0
M  V30 14400 N 1383.5 1.34231 -0.825823 0
M  V30 14401 C 1384.46 2.27776 -0.25512 0
M  V30 14402 C 1385.46 1.50409 0.568654 0
M  V30 14403 O 1386.65 1.69907 0.384337 0
M  V30 14404 C 1383.79 3.348 0.642013 0
M  V30 14405 H 1384.98 2.79763 -1.0804 0
M  V30 14406 H 1382.53 1.44412 -0.597904 0
M  V30 14407 H 1383.27 2.88032 1.49024 0
M  V30 14408 H 1383.05 3.92064 0.0527756 0
M  V30 14409 H 1384.54 4.0457 1.03502 0
M  V30 14410 N 1384.98 0.581051 1.46498 0
M  V30 14411 C 1386.23 0.0658652 2.01993 0
M  V30 14412 C 1386.55 -1.29807 1.45516 0
M  V30 14413 O 1385.82 -1.85177 0.639233 0
M  V30 14414 H 1384.4 0.0213584 0.746695 0
M  V30 14415 H 1387.06 0.756456 1.79621 0
M  V30 14416 H 1386.16 -0.00438128 3.121 0
M  V30 14417 N 1386.46 -1.54343 0.318742 0
M  V30 14418 C 1387.7 -2.00777 -0.285699 0
M  V30 14419 C 1388.04 -1.20664 -1.52164 0
M  V30 14420 O 1387.31 -0.287674 -1.92361 0
M  V30 14421 C 1387.59 -3.54641 -0.624649 0
M  V30 14422 C 1387.45 -4.45483 0.621663 0
M  V30 14423 C 1388.77 -4.15729 -1.4442 0
M  V30 14424 H 1385.89 -0.729856 -0.102367 0
M  V30 14425 H 1388.53 -1.84968 0.434364 0
M  V30 14426 H 1386.68 -3.68243 -1.23811 0
M  V30 14427 H 1388.35 -4.43759 1.25998 0
M  V30 14428 H 1386.59 -4.15356 1.25148 0
M  V30 14429 H 1387.26 -5.50951 0.340106 0
M  V30 14430 H 1389.74 -4.05672 -0.925699 0
M  V30 14431 H 1388.62 -5.23509 -1.65013 0
M  V30 14432 H 1388.88 -3.68743 -2.43887 0
M  V30 14433 N 1387.94 -0.0468143 -1.5753 0
M  V30 14434 C 1389.17 0.636723 -1.96544 0
M  V30 14435 C 1389.57 1.65169 -0.922814 0
M  V30 14436 O 1388.92 1.83417 0.101892 0
M  V30 14437 C 1388.98 1.38435 -3.31777 0
M  V30 14438 C 1388.64 0.525714 -4.53966 0
M  V30 14439 C 1389.64 -0.206392 -5.1949 0
M  V30 14440 C 1387.32 0.457919 -5.00208 0
M  V30 14441 C 1389.32 -0.994779 -6.29589 0
M  V30 14442 C 1387.01 -0.334159 -6.10186 0
M  V30 14443 C 1388 -1.0592 -6.74737 0
M  V30 14444 O 1387.69 -1.83826 -7.826 0
M  V30 14445 H 1387.42 0.179197 -0.651816 0
M  V30 14446 H 1389.98 -0.108214 -2.05115 0
M  V30 14447 H 1388.21 2.17482 -3.19748 0
M  V30 14448 H 1389.9 1.9577 -3.55568 0
M  V30 14449 H 1390.66 -0.163457 -4.84724 0
M  V30 14450 H 1386.54 1.01185 -4.49758 0
M  V30 14451 H 1390.09 -1.56121 -6.79906 0
M  V30 14452 H 1385.98 -0.378748 -6.44388 0
M  V30 14453 H 1386.75 -1.75991 -7.99356 0
M  V30 14454 N 1389.41 1.55964 0.226527 0
M  V30 14455 C 1390.64 1.82558 0.967269 0
M  V30 14456 C 1391.05 0.623034 1.78647 0
M  V30 14457 O 1390.4 -0.41779 1.78886 0
M  V30 14458 C 1390.46 3.02812 1.93766 0
M  V30 14459 C 1390.12 4.38017 1.30345 0
M  V30 14460 C 1391.12 5.15223 0.695793 0
M  V30 14461 C 1388.8 4.84735 1.31671 0
M  V30 14462 C 1390.8 6.37305 0.109849 0
M  V30 14463 C 1388.48 6.06761 0.726919 0
M  V30 14464 C 1389.48 6.82886 0.124537 0
M  V30 14465 O 1389.17 8.02605 -0.45609 0
M  V30 14466 H 1388.9 0.610967 0.289301 0
M  V30 14467 H 1391.46 2.03892 0.248407 0
M  V30 14468 H 1389.69 2.77283 2.69538 0
M  V30 14469 H 1391.38 3.16321 2.54353 0
M  V30 14470 H 1392.14 4.80239 0.677912 0
M  V30 14471 H 1388.02 4.2546 1.77496 0
M  V30 14472 H 1391.56 6.96666 -0.360953 0
M  V30 14473 H 1387.46 6.41219 0.742196 0
M  V30 14474 H 1388.23 8.17752 -0.349926 0
M  V30 14475 N 1390.89 -0.493031 1.4969 0
M  V30 14476 C 1392.13 -1.25673 1.61201 0
M  V30 14477 C 1392.5 -1.8971 0.295685 0
M  V30 14478 O 1393.7 -2.67274 0.286046 0
M  V30 14479 C 1391.97 -2.28923 2.74462 0
M  V30 14480 S 1393.53 -3.14525 3.05973 0
M  V30 14481 H 1390.35 -0.426985 0.568511 0
M  V30 14482 H 1392.95 -0.557497 1.87383 0
M  V30 14483 H 1391.65 -1.80421 3.68614 0
M  V30 14484 H 1391.18 -3.03504 2.50298 0
M  V30 14485 H 1393.2 -4.29717 2.48108 0
M  V30 14486 N 1392.37 -1.38898 -0.744656 0
M  V30 14487 C 1393.28 -1.39098 -1.88915 0
M  V30 14488 C 1394.3 -0.286956 -1.71617 0
M  V30 14489 O 1395.47 -0.526852 -1.94387 0
M  V30 14490 C 1392.54 -1.22352 -3.24393 0
M  V30 14491 C 1391.6 -2.4264 -3.54153 0
M  V30 14492 C 1390.83 -2.26683 -4.83167 0
M  V30 14493 O 1391.05 -1.26523 -5.56191 0
M  V30 14494 O 1389.99 -3.15464 -5.12607 0
M  V30 14495 H 1393.81 -2.35551 -1.91701 0
M  V30 14496 H 1391.4 -1.19911 -0.891158 0
M  V30 14497 H 1393.28 -1.15109 -4.05374 0
M  V30 14498 H 1391.96 -0.289886 -3.22399 0
M  V30 14499 H 1390.86 -2.55459 -2.73298 0
M  V30 14500 H 1392.2 -3.34664 -3.60917 0
M  V30 14501 N 1393.85 0.973806 -1.23914 0
M  V30 14502 C 1395.07 1.7564 -1.10296 0
M  V30 14503 C 1395.5 1.84984 0.340954 0
M  V30 14504 O 1394.86 1.31629 1.24674 0
M  V30 14505 C 1394.9 3.15809 -1.7406 0
M  V30 14506 O 1394.01 3.99911 -1.00722 0
M  V30 14507 H 1393.35 0.540133 -0.386202 0
M  V30 14508 H 1395.88 1.22197 -1.64101 0
M  V30 14509 H 1395.89 3.66359 -1.79568 0
M  V30 14510 H 1394.56 3.08324 -2.79122 0
M  V30 14511 H 1393.14 3.58405 -1.02956 0
M  V30 14512 N 1395.33 1.05191 1.17357 0
M  V30 14513 C 1396.74 0.773255 1.39617 0
M  V30 14514 C 1396.94 -0.632346 1.91321 0
M  V30 14515 O 1396 -1.39475 2.10483 0
M  V30 14516 C 1397.31 1.82885 2.38692 0
M  V30 14517 C 1398.86 1.85106 2.52398 0
M  V30 14518 C 1399.33 2.89689 3.54746 0
M  V30 14519 N 1400.83 2.88651 3.62263 0
M  V30 14520 C 1401.56 3.66221 4.41214 0
M  V30 14521 N 1401.06 4.53577 5.23679 0
M  V30 14522 N 1402.85 3.54661 4.36087 0
M  V30 14523 H 1395 1.9588 0.82127 0
M  V30 14524 H 1397.26 0.848187 0.423417 0
M  V30 14525 H 1396.97 2.83766 2.07773 0
M  V30 14526 H 1396.84 1.67047 3.38194 0
M  V30 14527 H 1399.23 0.848896 2.82627 0
M  V30 14528 H 1399.31 2.05022 1.5297 0
M  V30 14529 H 1398.96 3.90091 3.25255 0
M  V30 14530 H 1398.89 2.67025 4.53878 0
M  V30 14531 H 1401.38 2.25312 3.03386 0
M  V30 14532 H 1401.69 5.09449 5.81104 0
M  V30 14533 H 1400.03 4.57638 5.23061 0
M  V30 14534 H 1403.23 2.8581 3.70716 0
M  V30 14535 H 1403.4 4.15361 4.97372 0
M  V30 14536 N 1396.8 -1.33791 0.83293 0
M  V30 14537 C 1398.22 -1.50893 0.519955 0
M  V30 14538 C 1398.42 -1.7749 -0.953919 0
M  V30 14539 O 1397.48 -1.83168 -1.73798 0
M  V30 14540 C 1398.79 -2.66741 1.38815 0
M  V30 14541 C 1400.34 -2.80625 1.38631 0
M  V30 14542 C 1400.81 -3.99528 2.23922 0
M  V30 14543 N 1402.3 -4.06753 2.21599 0
M  V30 14544 C 1403.04 -4.97937 2.84335 0
M  V30 14545 N 1402.53 -5.94276 3.561 0
M  V30 14546 N 1404.33 -4.90887 2.73837 0
M  V30 14547 H 1396.48 -1.14788 1.7871 0
M  V30 14548 H 1398.74 -0.563822 0.762108 0
M  V30 14549 H 1398.45 -2.53748 2.43525 0
M  V30 14550 H 1398.32 -3.62001 1.05996 0
M  V30 14551 H 1400.71 -2.93053 0.346951 0
M  V30 14552 H 1400.79 -1.86144 1.75454 0
M  V30 14553 H 1400.43 -3.8786 3.27914 0
M  V30 14554 H 1400.36 -4.93242 1.84444 0
M  V30 14555 H 1402.85 -3.37802 1.69406 0
M  V30 14556 H 1403.17 -6.60504 4.01191 0
M  V30 14557 H 1401.51 -5.9437 3.60207 0
M  V30 14558 H 1404.7 -4.14586 2.17338 0
M  V30 14559 H 1404.88 -5.61752 3.23014 0
M  V30 14560 N 1398.28 -0.588812 -1.46187 0
M  V30 14561 C 1399.23 0.140932 -2.30369 0
M  V30 14562 C 1400.2 0.878216 -1.40984 0
M  V30 14563 O 1401.38 0.867678 -1.69929 0
M  V30 14564 C 1398.52 1.14468 -3.25563 0
M  V30 14565 C 1397.64 0.410215 -4.30048 0
M  V30 14566 C 1396.77 1.40203 -5.12364 0
M  V30 14567 C 1395.81 0.65431 -6.08593 0
M  V30 14568 N 1394.95 1.59448 -6.83755 0
M  V30 14569 H 1399.79 -0.582976 -2.92242 0
M  V30 14570 H 1397.33 -0.299302 -1.44023 0
M  V30 14571 H 1399.28 1.73957 -3.79203 0
M  V30 14572 H 1397.91 1.83623 -2.65485 0
M  V30 14573 H 1396.97 -0.299822 -3.79217 0
M  V30 14574 H 1398.28 -0.174043 -4.98496 0
M  V30 14575 H 1397.43 2.06953 -5.70312 0
M  V30 14576 H 1396.17 2.02022 -4.4389 0
M  V30 14577 H 1395.18 -0.0269371 -5.49793 0
M  V30 14578 H 1396.4 0.0414285 -6.79087 0
M  V30 14579 H 1394.35 2.20066 -6.17986 0
M  V30 14580 H 1394.26 1.06318 -7.48487 0
M  V30 14581 H 1395.53 2.25215 -7.46256 0
M  V30 14582 N 1399.76 1.54172 -0.326923 0
M  V30 14583 C 1400.99 2.04747 0.276107 0
M  V30 14584 C 1401.4 1.20251 1.4607 0
M  V30 14585 O 1400.74 0.226753 1.82295 0
M  V30 14586 C 1400.8 3.51143 0.770651 0
M  V30 14587 C 1400.47 4.56066 -0.292079 0
M  V30 14588 C 1401.46 5.07487 -1.12928 0
M  V30 14589 C 1399.15 5.00358 -0.441232 0
M  V30 14590 C 1401.14 6.01767 -2.10133 0
M  V30 14591 C 1398.83 5.94452 -1.4167 0
M  V30 14592 C 1399.83 6.45042 -2.24521 0
M  V30 14593 O 1399.52 7.37288 -3.20409 0
M  V30 14594 H 1399.25 0.673322 0.0601144 0
M  V30 14595 H 1401.8 1.99899 -0.472176 0
M  V30 14596 H 1400.03 3.53399 1.5699 0
M  V30 14597 H 1401.72 3.84775 1.2924 0
M  V30 14598 H 1402.49 4.74044 -1.02505 0
M  V30 14599 H 1398.37 4.60593 0.193767 0
M  V30 14600 H 1401.91 6.41178 -2.74839 0
M  V30 14601 H 1397.81 6.27311 -1.52155 0
M  V30 14602 H 1398.58 7.55171 -3.15687 0
M  V30 14603 N 1401.24 0.0551678 1.57503 0
M  V30 14604 C 1402.47 -0.626291 1.96879 0
M  V30 14605 C 1402.88 -1.64677 0.93156 0
M  V30 14606 O 1402.22 -1.83469 -0.0921632 0
M  V30 14607 C 1402.28 -1.36674 3.32506 0
M  V30 14608 C 1401.95 -0.501632 4.54239 0
M  V30 14609 C 1402.94 0.233939 5.19373 0
M  V30 14610 C 1400.63 -0.431385 5.00444 0
M  V30 14611 C 1402.62 1.02815 6.29053 0
M  V30 14612 C 1400.31 0.366514 6.1 0
M  V30 14613 C 1401.31 1.09497 6.74166 0
M  V30 14614 O 1400.99 1.87974 7.81614 0
M  V30 14615 H 1400.73 -0.175738 0.652757 0
M  V30 14616 H 1403.28 0.11909 2.05054 0
M  V30 14617 H 1401.51 -2.15783 3.20896 0
M  V30 14618 H 1403.2 -1.93882 3.56602 0
M  V30 14619 H 1403.97 0.189161 4.84631 0
M  V30 14620 H 1399.84 -0.98798 4.50289 0
M  V30 14621 H 1403.39 1.59724 6.79068 0
M  V30 14622 H 1399.29 0.412916 6.44178 0
M  V30 14623 H 1400.05 1.80228 7.98411 0
M  V30 14624 N 1402.72 -1.56081 -0.218252 0
M  V30 14625 C 1404.13 -1.69397 -0.784964 0
M  V30 14626 C 1404.48 -0.65775 -1.84846 0
M  V30 14627 O 1403.6 0.190478 -2.1556 0
M  V30 14628 C 1404.2 -3.07114 -1.4306 0
M  V30 14629 C 1402.76 -3.22273 -1.94466 0
M  V30 14630 C 1401.9 -2.65327 -0.80604 0
M  V30 14631 H 1404.86 -1.58699 0.0064566 0
M  V30 14632 H 1404.88 -3.03156 -2.2995 0
M  V30 14633 H 1404.39 -3.8251 -0.656335 0
M  V30 14634 H 1402.49 -2.51752 -2.74684 0
M  V30 14635 H 1402.6 -4.29526 -2.12237 0
M  V30 14636 H 1400.97 -2.23894 -1.21423 0
M  V30 14637 H 1401.75 -3.43271 -0.0443928 0
M  V30 14638 N 1404.2 0.485086 -1.49949 0
M  V30 14639 C 1405.44 1.23999 -1.60474 0
M  V30 14640 C 1405.77 1.91904 -0.297736 0
M  V30 14641 O 1405.05 1.81472 0.699857 0
M  V30 14642 C 1405.33 2.2946 -2.77525 0
M  V30 14643 C 1405.19 1.65952 -4.18067 0
M  V30 14644 C 1406.5 3.30893 -2.90169 0
M  V30 14645 H 1403.62 0.449462 -0.584083 0
M  V30 14646 H 1406.27 0.535795 -1.82289 0
M  V30 14647 H 1404.42 2.89521 -2.59056 0
M  V30 14648 H 1406.09 1.09596 -4.48092 0
M  V30 14649 H 1404.33 0.963079 -4.22974 0
M  V30 14650 H 1405 2.42521 -4.9587 0
M  V30 14651 H 1407.48 2.8084 -3.07031 0
M  V30 14652 H 1406.35 4.02027 -3.73718 0
M  V30 14653 H 1406.61 3.94178 -2.0019 0
M  V30 14654 N 1405.67 1.39291 0.737279 0
M  V30 14655 C 1406.9 1.39844 1.53162 0
M  V30 14656 C 1407.32 -0.00568546 1.88099 0
M  V30 14657 O 1406.68 -0.992085 1.51748 0
M  V30 14658 C 1406.73 2.27577 2.79716 0
M  V30 14659 O 1405.83 1.70408 3.75546 0
M  V30 14660 H 1405.17 0.476314 0.462624 0
M  V30 14661 H 1407.7 1.83258 0.909819 0
M  V30 14662 H 1407.71 2.42009 3.28475 0
M  V30 14663 H 1406.39 3.29621 2.53619 0
M  V30 14664 H 1404.97 1.65206 3.34307 0
M  V30 14665 N 1407.15 -0.967221 1.24429 0
M  V30 14666 C 1408.4 -1.71026 1.08427 0
M  V30 14667 C 1408.73 -1.90815 -0.376812 0
M  V30 14668 O 1407.98 -1.46745 -1.29477 0
M  V30 14669 C 1408.28 -3.10507 1.76975 0
M  V30 14670 C 1407.95 -3.10557 3.26902 0
M  V30 14671 C 1406.61 -3.10278 3.67806 0
M  V30 14672 C 1408.96 -3.04852 4.22746 0
M  V30 14673 C 1406.29 -3.02027 5.02988 0
M  V30 14674 C 1408.64 -2.98143 5.57937 0
M  V30 14675 C 1407.3 -2.96193 5.98185 0
M  V30 14676 H 1406.57 -0.625827 0.396764 0
M  V30 14677 H 1409.22 -1.13094 1.54538 0
M  V30 14678 H 1407.53 -3.71906 1.2326 0
M  V30 14679 H 1409.22 -3.66794 1.62058 0
M  V30 14680 H 1405.81 -3.11539 2.94349 0
M  V30 14681 H 1410 -3.04197 3.92145 0
M  V30 14682 H 1405.25 -2.98878 5.33368 0
M  V30 14683 H 1409.43 -2.92688 6.31907 0
M  V30 14684 H 1407.05 -2.89555 7.02895 0
M  V30 14685 N 1408.63 -1.05812 -1.16797 0
M  V30 14686 C 1409.88 -0.773066 -1.87487 0
M  V30 14687 C 1410.21 0.698471 -1.81204 0
M  V30 14688 O 1409.48 1.51129 -1.22434 0
M  V30 14689 C 1409.77 -1.2621 -3.37258 0
M  V30 14690 C 1409.62 -2.79704 -3.52258 0
M  V30 14691 C 1410.94 -0.866104 -4.31494 0
M  V30 14692 H 1408.06 -0.282304 -0.680789 0
M  V30 14693 H 1410.7 -1.3132 -1.37314 0
M  V30 14694 H 1408.85 -0.802608 -3.80119 0
M  V30 14695 H 1410.52 -3.33824 -3.1837 0
M  V30 14696 H 1408.76 -3.18673 -2.94329 0
M  V30 14697 H 1409.44 -3.08985 -4.57419 0
M  V30 14698 H 1411.91 -1.26178 -3.96508 0
M  V30 14699 H 1410.79 -1.23581 -5.34807 0
M  V30 14700 H 1411.05 0.229391 -4.41504 0
M  V30 14701 N 1410.11 1.33347 -0.840014 0
M  V30 14702 C 1411.36 1.97354 -0.435412 0
M  V30 14703 C 1411.68 1.66866 1.009 0
M  V30 14704 O 1410.95 0.968186 1.70303 0
M  V30 14705 H 1409.53 0.730096 -0.158017 0
M  V30 14706 H 1412.19 1.6269 -1.07322 0
M  V30 14707 H 1411.28 3.0688 -0.56841 0
M  V30 14708 N 1411.59 0.596556 1.45873 0
M  V30 14709 C 1413 0.173758 1.8589 0
M  V30 14710 C 1413.35 -1.26665 1.49835 0
M  V30 14711 O 1412.47 -1.9588 0.919773 0
M  V30 14712 C 1413.07 0.308567 3.37392 0
M  V30 14713 C 1411.63 -0.0594585 3.76353 0
M  V30 14714 C 1410.77 0.638127 2.69858 0
M  V30 14715 H 1413.72 0.803928 1.36831 0
M  V30 14716 H 1413.75 -0.462294 3.77681 0
M  V30 14717 H 1413.26 1.35701 3.63603 0
M  V30 14718 H 1411.36 -1.1075 3.5576 0
M  V30 14719 H 1411.47 0.326506 4.77986 0
M  V30 14720 H 1409.84 0.0769147 2.54584 0
M  V30 14721 H 1410.62 1.68849 2.98906 0
M  V30 14722 N 1413.06 -1.53996 0.335095 0
M  V30 14723 C 1414.29 -2.05188 -0.26563 0
M  V30 14724 C 1414.71 -1.21058 -1.44881 0
M  V30 14725 O 1414.06 -0.243919 -1.80863 0
M  V30 14726 C 1414.11 -3.54875 -0.688904 0
M  V30 14727 O 1413.84 -4.35811 0.447217 0
M  V30 14728 C 1415.34 -4.22204 -1.35123 0
M  V30 14729 H 1412.56 -0.668921 -0.0527806 0
M  V30 14730 H 1415.1 -1.98675 0.48463 0
M  V30 14731 H 1413.26 -3.61638 -1.38912 0
M  V30 14732 H 1413.67 -5.24381 0.111495 0
M  V30 14733 H 1415.14 -5.28356 -1.59823 0
M  V30 14734 H 1415.62 -3.74029 -2.30216 0
M  V30 14735 H 1416.23 -4.19611 -0.693283 0
M  V30 14736 N 1414.54 -0.0635198 -1.57472 0
M  V30 14737 C 1415.79 0.607484 -1.93173 0
M  V30 14738 C 1416.12 1.70117 -0.942897 0
M  V30 14739 O 1415.37 1.95653 0.042832 0
M  V30 14740 C 1415.67 1.23117 -3.35525 0
M  V30 14741 C 1415.34 0.264457 -4.50124 0
M  V30 14742 C 1414 -0.00151762 -4.812 0
M  V30 14743 C 1416.35 -0.39737 -5.19683 0
M  V30 14744 C 1413.68 -0.936547 -5.79177 0
M  V30 14745 C 1416.03 -1.32067 -6.18661 0
M  V30 14746 C 1414.69 -1.59519 -6.48159 0
M  V30 14747 H 1413.96 0.222294 -0.706871 0
M  V30 14748 H 1416.61 -0.132633 -1.9104 0
M  V30 14749 H 1414.92 2.04684 -3.34084 0
M  V30 14750 H 1416.61 1.7575 -3.60434 0
M  V30 14751 H 1413.2 0.481945 -4.25882 0
M  V30 14752 H 1417.39 -0.20499 -4.95876 0
M  V30 14753 H 1412.64 -1.15658 -6.00361 0
M  V30 14754 H 1416.82 -1.83949 -6.71666 0
M  V30 14755 H 1414.44 -2.32134 -7.23891 0
M  V30 14756 N 1416.02 1.56195 0.209972 0
M  V30 14757 C 1416.95 1.89859 1.28398 0
M  V30 14758 C 1417.96 0.787878 1.42465 0
M  V30 14759 O 1419.15 1.06623 1.43156 0
M  V30 14760 C 1416.25 2.10231 2.65812 0
M  V30 14761 C 1415.43 3.41309 2.73545 0
M  V30 14762 C 1414.49 3.50973 3.92052 0
M  V30 14763 O 1413.51 4.23915 3.79849 0
M  V30 14764 N 1414.71 2.82965 5.06864 0
M  V30 14765 H 1417.48 2.82581 0.998411 0
M  V30 14766 H 1415.04 1.56882 0.399964 0
M  V30 14767 H 1417.03 2.13999 3.43492 0
M  V30 14768 H 1415.6 1.2408 2.8692 0
M  V30 14769 H 1414.82 3.49539 1.82253 0
M  V30 14770 H 1416.11 4.27636 2.7569 0
M  V30 14771 H 1415.51 2.23504 5.19676 0
M  V30 14772 H 1414.06 2.9238 5.82544 0
M  V30 14773 N 1417.5 -0.477127 1.50204 0
M  V30 14774 C 1418.73 -1.25126 1.64399 0
M  V30 14775 C 1419.14 -1.86401 0.32424 0
M  V30 14776 O 1418.48 -1.69711 -0.703119 0
M  V30 14777 C 1418.54 -2.40428 2.67273 0
M  V30 14778 C 1418.2 -1.99837 4.10992 0
M  V30 14779 C 1419.2 -1.52435 4.97051 0
M  V30 14780 C 1416.89 -2.08742 4.56872 0
M  V30 14781 C 1418.88 -1.14472 6.27037 0
M  V30 14782 C 1416.57 -1.70391 5.86865 0
M  V30 14783 C 1417.57 -1.23333 6.71772 0
M  V30 14784 O 1417.25 -0.855111 7.99339 0
M  V30 14785 H 1416.99 -0.384801 0.555791 0
M  V30 14786 H 1419.54 -0.576654 1.97139 0
M  V30 14787 H 1417.77 -3.1104 2.29763 0
M  V30 14788 H 1419.46 -3.02406 2.7075 0
M  V30 14789 H 1420.22 -1.44981 4.62823 0
M  V30 14790 H 1416.1 -2.44319 3.90934 0
M  V30 14791 H 1419.65 -0.776712 6.93263 0
M  V30 14792 H 1415.54 -1.77501 6.20615 0
M  V30 14793 H 1416.31 -0.984492 8.12558 0
M  V30 14794 N 1418.98 -1.3968 -0.729882 0
M  V30 14795 C 1419.91 -1.33201 -1.85291 0
M  V30 14796 C 1420.89 -0.204787 -1.61305 0
M  V30 14797 O 1422.07 -0.386087 -1.84504 0
M  V30 14798 C 1419.2 -1.06955 -3.21369 0
M  V30 14799 C 1418.24 -2.21937 -3.64207 0
M  V30 14800 S 1419.08 -3.84249 -3.72979 0
M  V30 14801 C 1420.23 -3.60239 -5.11839 0
M  V30 14802 H 1420.47 -2.28244 -1.90504 0
M  V30 14803 H 1418 -1.25796 -0.895252 0
M  V30 14804 H 1419.96 -0.924975 -3.99943 0
M  V30 14805 H 1418.62 -0.135902 -3.13806 0
M  V30 14806 H 1417.81 -1.99179 -4.62973 0
M  V30 14807 H 1417.41 -2.32624 -2.92852 0
M  V30 14808 H 1419.71 -3.17821 -5.98328 0
M  V30 14809 H 1420.65 -4.58485 -5.39627 0
M  V30 14810 H 1421.06 -2.94229 -4.81757 0
M  V30 14811 N 1420.45 0.960609 -1.2494 0
M  V30 14812 C 1421.36 2.0902 -1.06527 0
M  V30 14813 C 1422.38 1.74 -0.00406641 0
M  V30 14814 O 1423.56 2.00367 -0.203744 0
M  V30 14815 C 1420.62 3.39971 -0.679736 0
M  V30 14816 C 1419.68 3.88895 -1.81821 0
M  V30 14817 C 1418.92 5.13597 -1.45098 0
M  V30 14818 O 1419.14 5.69362 -0.343954 0
M  V30 14819 O 1418.07 5.57083 -2.27909 0
M  V30 14820 H 1421.9 2.27453 -2.01243 0
M  V30 14821 H 1419.48 1.07429 -1.03824 0
M  V30 14822 H 1421.37 4.18696 -0.47658 0
M  V30 14823 H 1420.04 3.22822 0.238231 0
M  V30 14824 H 1418.95 3.11201 -2.07617 0
M  V30 14825 H 1420.28 4.10533 -2.7152 0
M  V30 14826 N 1421.93 1.0643 1.16234 0
M  V30 14827 C 1422.9 0.680383 2.18869 0
M  V30 14828 C 1423.9 -0.274591 1.58438 0
M  V30 14829 O 1425.09 -0.0567907 1.74107 0
M  V30 14830 C 1422.22 0.00134091 3.409 0
M  V30 14831 H 1423.41 1.58894 2.54347 0
M  V30 14832 H 1420.96 0.859688 1.30534 0
M  V30 14833 H 1421.7 -0.919903 3.1098 0
M  V30 14834 H 1421.48 0.688057 3.86016 0
M  V30 14835 H 1422.97 -0.252938 4.16833 0
M  V30 14836 N 1423.41 -1.329 0.847073 0
M  V30 14837 C 1424.36 -2.3097 0.27487 0
M  V30 14838 C 1425.35 -1.58508 -0.597625 0
M  V30 14839 O 1426.56 -1.73307 -0.486273 0
M  V30 14840 H 1422.93 -0.748719 0.0701719 0
M  V30 14841 H 1424.9 -2.7673 1.11638 0
M  V30 14842 C 1423.65 -3.43662 -0.528363 0
M  V30 14843 H 1422.98 -3.99576 0.133707 0
M  V30 14844 H 1424.42 -4.14458 -0.894443 0
M  V30 14845 C 1422.88 -2.90244 -1.71055 0
M  V30 14846 O 1423.41 -2.87109 -2.80947 0
M  V30 14847 N 1421.61 -2.46743 -1.53512 0
M  V30 14848 H 1421.16 -2.49493 -0.641181 0
M  V30 14849 H 1421.12 -2.11356 -2.32757 0
M  V30 14850 N 1424.89 -0.604284 -1.45555 0
M  V30 14851 C 1426.17 -0.0303285 -1.95576 0
M  V30 14852 C 1426.55 1.43661 -1.54676 0
M  V30 14853 O 1425.89 2.13747 -0.807731 0
M  V30 14854 C 1426.1 -0.22497 -3.48274 0
M  V30 14855 C 1427.45 -0.104042 -4.24473 0
M  V30 14856 O 1428.48 -0.154919 -3.55863 0
M  V30 14857 O 1427.33 0.0136297 -5.46498 0
M  V30 14858 H 1424.43 0.0376106 -0.826144 0
M  V30 14859 H 1426.97 -0.674114 -1.55736 0
M  V30 14860 H 1425.75 -1.24391 -3.71002 0
M  V30 14861 H 1425.37 0.454234 -3.94997 0
M  V30 14862 N 1426.37 1.53816 -0.343257 0
M  V30 14863 C 1427.6 2.05028 0.254375 0
M  V30 14864 C 1428 1.21793 1.44786 0
M  V30 14865 O 1427.35 0.246075 1.82044 0
M  V30 14866 C 1427.41 3.5194 0.733364 0
M  V30 14867 C 1427.07 4.5573 -0.340434 0
M  V30 14868 C 1428.07 5.06261 -1.18304 0
M  V30 14869 C 1425.76 4.99862 -0.494277 0
M  V30 14870 C 1427.75 5.99504 -2.16503 0
M  V30 14871 C 1425.44 5.92916 -1.47967 0
M  V30 14872 C 1426.43 6.42625 -2.3135 0
M  V30 14873 O 1426.12 7.33848 -3.28211 0
M  V30 14874 H 1425.85 0.673922 0.0529695 0
M  V30 14875 H 1428.41 1.99387 -0.493352 0
M  V30 14876 H 1426.64 3.55044 1.53233 0
M  V30 14877 H 1428.33 3.86124 1.25151 0
M  V30 14878 H 1429.09 4.7293 -1.07527 0
M  V30 14879 H 1424.97 4.60772 0.144904 0
M  V30 14880 H 1428.52 6.38227 -2.81624 0
M  V30 14881 H 1424.41 6.25662 -1.588 0
M  V30 14882 H 1425.18 7.51781 -3.23679 0
M  V30 14883 N 1427.84 0.0718701 1.57436 0
M  V30 14884 C 1429.07 -0.605374 1.97532 0
M  V30 14885 C 1429.48 -1.6368 0.948974 0
M  V30 14886 O 1428.83 -1.83556 -0.0726987 0
M  V30 14887 C 1428.89 -1.33139 3.33937 0
M  V30 14888 C 1428.55 -0.453426 4.54745 0
M  V30 14889 C 1429.55 0.289012 5.19096 0
M  V30 14890 C 1427.23 -0.378282 5.00874 0
M  V30 14891 C 1429.23 1.09482 6.27927 0
M  V30 14892 C 1426.91 0.431192 6.09577 0
M  V30 14893 C 1427.91 1.16641 6.72966 0
M  V30 14894 O 1427.6 1.96253 7.79577 0
M  V30 14895 H 1427.33 -0.168804 0.654585 0
M  V30 14896 H 1429.89 0.140832 2.04917 0
M  V30 14897 H 1428.12 -2.12367 3.23167 0
M  V30 14898 H 1429.81 -1.90089 3.58638 0
M  V30 14899 H 1430.57 0.240552 4.84403 0
M  V30 14900 H 1426.45 -0.940166 4.51311 0
M  V30 14901 H 1429.99 1.66918 6.77336 0
M  V30 14902 H 1425.89 0.481217 6.43704 0
M  V30 14903 H 1426.66 1.88686 7.96455 0
M  V30 14904 N 1429.32 -1.56304 -0.201686 0
M  V30 14905 C 1430.73 -1.7022 -0.766953 0
M  V30 14906 C 1431.08 -0.677318 -1.84138 0
M  V30 14907 O 1430.21 0.167604 -2.1575 0
M  V30 14908 C 1430.8 -3.08615 -1.39795 0
M  V30 14909 C 1429.36 -3.24317 -1.91037 0
M  V30 14910 C 1428.51 -2.66167 -0.777853 0
M  V30 14911 H 1431.46 -1.58683 0.0232884 0
M  V30 14912 H 1431.48 -3.05578 -2.26721 0
M  V30 14913 H 1430.99 -3.83185 -0.615728 0
M  V30 14914 H 1429.1 -2.54652 -2.71999 0
M  V30 14915 H 1429.21 -4.31753 -2.07669 0
M  V30 14916 H 1427.57 -2.25169 -1.19042 0
M  V30 14917 H 1428.36 -3.43299 -0.00798179 0
M  V30 14918 N 1430.8 0.469154 -1.50455 0
M  V30 14919 C 1431.76 1.5493 -1.68906 0
M  V30 14920 C 1432.76 1.50744 -0.559721 0
M  V30 14921 O 1433.95 1.5333 -0.826781 0
M  V30 14922 C 1431.09 2.94556 -1.71609 0
M  V30 14923 H 1432.28 1.39887 -2.65276 0
M  V30 14924 H 1429.83 0.695667 -1.39965 0
M  V30 14925 H 1430.57 3.15041 -0.769382 0
M  V30 14926 H 1430.35 2.99002 -2.53654 0
M  V30 14927 H 1431.84 3.72973 -1.87831 0
M  V30 14928 N 1432.28 1.40065 0.722464 0
M  V30 14929 C 1433.69 1.21944 1.02965 0
M  V30 14930 C 1433.89 0.0898069 2.013 0
M  V30 14931 O 1432.95 -0.554519 2.46336 0
M  V30 14932 C 1434.26 2.55848 1.57995 0
M  V30 14933 C 1435.81 2.62801 1.70013 0
M  V30 14934 C 1436.29 3.96957 2.2845 0
M  V30 14935 N 1437.78 3.98662 2.35844 0
M  V30 14936 C 1438.51 4.99248 2.82026 0
M  V30 14937 N 1438.01 6.1023 3.28012 0
M  V30 14938 N 1439.8 4.8662 2.81349 0
M  V30 14939 H 1431.95 2.12283 0.0705301 0
M  V30 14940 H 1434.22 0.943338 0.0938991 0
M  V30 14941 H 1433.92 3.39125 0.932034 0
M  V30 14942 H 1433.8 2.76452 2.5662 0
M  V30 14943 H 1436.18 1.799 2.33923 0
M  V30 14944 H 1436.26 2.46034 0.700062 0
M  V30 14945 H 1435.91 4.80295 1.65164 0
M  V30 14946 H 1435.84 4.1105 3.29158 0
M  V30 14947 H 1438.33 3.18518 2.03358 0
M  V30 14948 H 1438.64 6.82878 3.61797 0
M  V30 14949 H 1436.99 6.13805 3.25988 0
M  V30 14950 H 1440.18 3.99015 2.44755 0
M  V30 14951 H 1440.35 5.65155 3.17024 0
M  V30 14952 N 1433.76 -0.95397 1.25448 0
M  V30 14953 C 1434.99 -1.7308 1.12814 0
M  V30 14954 C 1435.4 -1.86461 -0.320764 0
M  V30 14955 O 1434.74 -1.3623 -1.23236 0
M  V30 14956 C 1434.8 -3.16239 1.70976 0
M  V30 14957 C 1434.46 -3.26286 3.19979 0
M  V30 14958 C 1435.46 -3.10547 4.16961 0
M  V30 14959 C 1433.15 -3.50085 3.60202 0
M  V30 14960 C 1435.14 -3.18456 5.52146 0
M  V30 14961 C 1432.83 -3.5763 4.95524 0
M  V30 14962 C 1433.83 -3.4183 5.91305 0
M  V30 14963 O 1433.51 -3.49058 7.24164 0
M  V30 14964 H 1433.25 -0.549143 0.394231 0
M  V30 14965 H 1435.8 -1.20538 1.66312 0
M  V30 14966 H 1434.03 -3.70148 1.11926 0
M  V30 14967 H 1435.72 -3.75784 1.53432 0
M  V30 14968 H 1436.48 -2.92029 3.87226 0
M  V30 14969 H 1432.36 -3.61445 2.86145 0
M  V30 14970 H 1435.91 -3.0604 6.26885 0
M  V30 14971 H 1431.8 -3.75665 5.24925 0
M  V30 14972 H 1432.57 -3.65684 7.32269 0
M  V30 14973 N 1435.24 -1.07045 -1.15668 0
M  V30 14974 C 1436.17 -0.645945 -2.1991 0
M  V30 14975 C 1437.18 0.29995 -1.60013 0
M  V30 14976 O 1438.37 0.0897537 -1.78274 0
M  V30 14977 C 1435.47 0.0721917 -3.38823 0
M  V30 14978 C 1434.64 -0.889103 -4.28268 0
M  V30 14979 C 1433.7 -0.208829 -5.25785 0
M  V30 14980 O 1432.73 -0.848894 -5.62834 0
M  V30 14981 N 1433.93 1.04671 -5.70985 0
M  V30 14982 H 1436.69 -1.54266 -2.56948 0
M  V30 14983 H 1434.26 -0.954736 -1.30753 0
M  V30 14984 H 1436.25 0.537882 -4.0111 0
M  V30 14985 H 1434.82 0.870805 -3.00226 0
M  V30 14986 H 1434.04 -1.53399 -3.63129 0
M  V30 14987 H 1435.33 -1.54097 -4.84904 0
M  V30 14988 H 1434.72 1.58673 -5.42991 0
M  V30 14989 H 1433.28 1.45613 -6.35327 0
M  V30 14990 N 1436.71 1.32449 -0.85411 0
M  V30 14991 C 1437.94 2.01997 -0.470307 0
M  V30 14992 C 1438.36 1.63772 0.925225 0
M  V30 14993 O 1437.72 0.838089 1.60766 0
M  V30 14994 C 1437.77 3.55294 -0.616301 0
M  V30 14995 O 1436.87 4.10902 0.351133 0
M  V30 14996 H 1436.21 0.63651 -0.189079 0
M  V30 14997 H 1438.74 1.69008 -1.15315 0
M  V30 14998 H 1438.75 4.0488 -0.503624 0
M  V30 14999 H 1437.43 3.82459 -1.63396 0
M  V30 15000 H 1436.01 3.72391 0.194741 0
M  V30 15001 N 1438.19 0.611994 1.45232 0
M  V30 15002 C 1439.14 -0.125771 2.27653 0
M  V30 15003 C 1440.13 -0.834397 1.37574 0
M  V30 15004 O 1441.32 -0.72366 1.61531 0
M  V30 15005 C 1438.45 -1.11955 3.24532 0
M  V30 15006 C 1437.53 -0.411537 4.22099 0
M  V30 15007 N 1437.92 0.549272 5.02809 0
M  V30 15008 C 1436.22 -0.658514 4.41112 0
M  V30 15009 C 1436.92 0.965836 5.73626 0
M  V30 15010 N 1435.9 0.308649 5.42723 0
M  V30 15011 H 1439.7 0.612115 2.87455 0
M  V30 15012 H 1437.21 0.436003 1.56438 0
M  V30 15013 H 1439.21 -1.66253 3.82316 0
M  V30 15014 H 1437.87 -1.85795 2.6629 0
M  V30 15015 H 1438.88 0.926222 5.0955 0
M  V30 15016 H 1435.56 -1.38125 3.9399 0
M  V30 15017 H 1436.95 1.75853 6.48479 0
M  V30 15018 N 1439.67 -1.53632 0.351409 0
M  V30 15019 C 1440.6 -2.21598 -0.544952 0
M  V30 15020 C 1441.58 -1.20279 -1.09415 0
M  V30 15021 O 1442.76 -1.49129 -1.15295 0
M  V30 15022 C 1439.89 -2.89959 -1.75048 0
M  V30 15023 C 1438.94 -4.05232 -1.33002 0
M  V30 15024 S 1439.77 -5.34399 -0.343204 0
M  V30 15025 C 1440.93 -6.06266 -1.55538 0
M  V30 15026 H 1441.16 -2.97282 0.0323028 0
M  V30 15027 H 1438.69 -1.53804 0.13549 0
M  V30 15028 H 1440.65 -3.29961 -2.44204 0
M  V30 15029 H 1439.31 -2.14025 -2.29896 0
M  V30 15030 H 1438.5 -4.52027 -2.22907 0
M  V30 15031 H 1438.11 -3.67046 -0.717841 0
M  V30 15032 H 1440.4 -6.30137 -2.48865 0
M  V30 15033 H 1441.34 -6.9904 -1.12907 0
M  V30 15034 H 1441.75 -5.36526 -1.755 0
M  V30 15035 N 1441.15 -0.0802183 -1.57396 0
M  V30 15036 C 1442.08 0.881426 -2.16225 0
M  V30 15037 C 1443.06 1.30459 -1.09154 0
M  V30 15038 O 1444.24 1.37413 -1.37227 0
M  V30 15039 C 1441.37 2.14599 -2.73065 0
M  V30 15040 C 1440.33 1.86195 -3.85377 0
M  V30 15041 C 1439.65 3.19354 -4.28856 0
M  V30 15042 C 1440.95 1.16059 -5.09242 0
M  V30 15043 H 1442.65 0.391325 -2.96832 0
M  V30 15044 H 1440.19 0.186785 -1.42783 0
M  V30 15045 H 1442.15 2.82297 -3.12868 0
M  V30 15046 H 1440.87 2.65866 -1.89691 0
M  V30 15047 H 1439.53 1.209 -3.46091 0
M  V30 15048 H 1439.18 3.68479 -3.42392 0
M  V30 15049 H 1438.88 3.01137 -5.04569 0
M  V30 15050 H 1440.4 3.88235 -4.71281 0
M  V30 15051 H 1441.82 1.7384 -5.46308 0
M  V30 15052 H 1440.21 1.08072 -5.90288 0
M  V30 15053 H 1441.28 0.14098 -4.84695 0
M  V30 15054 N 1442.63 1.56409 0.193394 0
M  V30 15055 C 1443.87 1.79919 0.911712 0
M  V30 15056 C 1444.19 0.653729 1.84352 0
M  V30 15057 O 1445.39 0.773172 2.60258 0
M  V30 15058 C 1443.85 3.18726 1.67158 0
M  V30 15059 C 1443.46 4.41078 0.784512 0
M  V30 15060 C 1445.2 3.51544 2.37944 0
M  V30 15061 C 1443.11 5.70907 1.54335 0
M  V30 15062 H 1442.04 0.670864 0.344177 0
M  V30 15063 H 1444.69 1.82757 0.164967 0
M  V30 15064 H 1443.07 3.10142 2.46227 0
M  V30 15065 H 1444.25 4.60789 0.032356 0
M  V30 15066 H 1442.56 4.15978 0.187407 0
M  V30 15067 H 1445.16 4.45779 2.95271 0
M  V30 15068 H 1445.5 2.75369 3.12214 0
M  V30 15069 H 1446.03 3.61583 1.65839 0
M  V30 15070 H 1442.77 6.50052 0.843393 0
M  V30 15071 H 1442.29 5.5521 2.26939 0
M  V30 15072 H 1443.97 6.12085 2.09669 0
M  V30 15073 N 1444.1 -0.461169 1.50702 0
M  V30 15074 C 1445.35 -1.21012 1.61866 0
M  V30 15075 C 1445.67 -1.9226 0.325736 0
M  V30 15076 O 1444.94 -1.84543 -0.657306 0
M  V30 15077 H 1443.52 -0.449671 0.596494 0
M  V30 15078 H 1446.18 -0.531056 1.87525 0
M  V30 15079 H 1445.28 -1.95266 2.4347 0
M  V30 15080 N 1445.58 -1.40446 -0.715026 0
M  V30 15081 C 1446.53 -1.37235 -1.82073 0
M  V30 15082 C 1447.52 -0.249808 -1.58949 0
M  V30 15083 O 1448.71 -0.488958 -1.70112 0
M  V30 15084 C 1445.84 -1.23786 -3.20206 0
M  V30 15085 C 1444.92 -2.40824 -3.49091 0
M  V30 15086 N 1445.31 -3.66305 -3.4879 0
M  V30 15087 C 1443.61 -2.34215 -3.79551 0
M  V30 15088 C 1444.31 -4.43817 -3.76034 0
M  V30 15089 N 1443.29 -3.73664 -3.94811 0
M  V30 15090 H 1447.09 -2.32195 -1.80174 0
M  V30 15091 H 1444.6 -1.34226 -0.914175 0
M  V30 15092 H 1446.6 -1.19568 -3.99386 0
M  V30 15093 H 1445.26 -0.297938 -3.2333 0
M  V30 15094 H 1446.27 -3.99458 -3.29626 0
M  V30 15095 H 1442.95 -1.48592 -3.90162 0
M  V30 15096 H 1444.34 -5.52674 -3.82101 0
M  V30 15097 N 1447.06 0.947303 -1.25952 0
M  V30 15098 C 1448.31 1.68945 -1.10915 0
M  V30 15099 C 1448.63 1.91848 0.349216 0
M  V30 15100 O 1447.9 1.5108 1.24706 0
M  V30 15101 H 1446.48 0.626086 -0.407462 0
M  V30 15102 H 1449.14 1.13854 -1.58187 0
M  V30 15103 H 1448.24 2.6657 -1.62317 0
M  V30 15104 N 1448.54 1.07657 1.15099 0
M  V30 15105 C 1449.79 0.801609 1.85958 0
M  V30 15106 C 1450.11 -0.672415 1.82507 0
M  V30 15107 O 1449.37 -1.50958 1.2454 0
M  V30 15108 C 1449.67 1.25903 3.3449 0
M  V30 15109 C 1449.33 2.73954 3.58134 0
M  V30 15110 C 1448 3.14392 3.64296 0
M  V30 15111 C 1450.35 3.69502 3.67584 0
M  V30 15112 C 1447.68 4.49187 3.77422 0
M  V30 15113 C 1450.03 5.04063 3.82235 0
M  V30 15114 C 1448.69 5.44117 3.86643 0
M  V30 15115 H 1447.96 0.293329 0.68047 0
M  V30 15116 H 1450.61 1.34814 1.36005 0
M  V30 15117 H 1448.91 0.631943 3.8667 0
M  V30 15118 H 1450.61 1.02314 3.87728 0
M  V30 15119 H 1447.2 2.41652 3.53981 0
M  V30 15120 H 1451.38 3.39385 3.62121 0
M  V30 15121 H 1446.64 4.79685 3.79094 0
M  V30 15122 H 1450.81 5.7797 3.88489 0
M  V30 15123 H 1448.44 6.48567 3.96567 0
M  V30 15124 N 1450.02 -1.31994 0.861122 0
M  V30 15125 C 1450.98 -2.27019 0.315421 0
M  V30 15126 C 1451.98 -1.51864 -0.528575 0
M  V30 15127 O 1453.17 -1.70867 -0.339154 0
M  V30 15128 C 1450.3 -3.36384 -0.553021 0
M  V30 15129 H 1451.49 -2.768 1.1542 0
M  V30 15130 H 1449.05 -1.42776 0.635982 0
M  V30 15131 H 1449.78 -2.91882 -1.41335 0
M  V30 15132 H 1449.57 -3.92067 0.0511919 0
M  V30 15133 H 1451.06 -4.07172 -0.927392 0
M  V30 15134 N 1451.49 -0.619688 -1.44906 0
M  V30 15135 C 1452.72 -0.124598 -2.07025 0
M  V30 15136 C 1453.14 1.18698 -1.45919 0
M  V30 15137 O 1452.5 1.72552 -0.556366 0
M  V30 15138 C 1452.55 -0.0112238 -3.60598 0
M  V30 15139 O 1451.65 1.03582 -3.9918 0
M  V30 15140 H 1451 -0.0795631 -0.659216 0
M  V30 15141 H 1453.53 -0.853127 -1.85965 0
M  V30 15142 H 1453.54 0.183079 -4.07589 0
M  V30 15143 H 1452.21 -0.968849 -4.04458 0
M  V30 15144 H 1450.79 0.817008 -3.6384 0
M  V30 15145 N 1452.97 1.53444 -0.359552 0
M  V30 15146 C 1454.38 1.86308 0.120955 0
M  V30 15147 C 1454.73 1.28033 1.48667 0
M  V30 15148 O 1453.86 0.600041 2.07915 0
M  V30 15149 C 1454.45 3.38044 0.226255 0
M  V30 15150 C 1453.01 3.70727 0.65101 0
M  V30 15151 C 1452.16 2.76538 -0.205482 0
M  V30 15152 H 1455.11 1.47778 -0.578569 0
M  V30 15153 H 1455.13 3.65699 1.05092 0
M  V30 15154 H 1454.64 3.80428 -0.767874 0
M  V30 15155 H 1452.75 3.33897 1.65359 0
M  V30 15156 H 1452.86 4.77168 0.429802 0
M  V30 15157 H 1451.22 2.52622 0.3247 0
M  V30 15158 H 1452.01 3.21754 -1.19704 0
M  V30 15159 N 1454.45 0.0885642 1.57351 0
M  V30 15160 C 1455.7 -0.575536 1.93732 0
M  V30 15161 C 1456.02 -1.69126 0.970644 0
M  V30 15162 O 1455.29 -1.95888 0.0215907 0
M  V30 15163 H 1453.87 -0.215592 0.715213 0
M  V30 15164 H 1456.53 0.150362 1.94319 0
M  V30 15165 H 1455.63 -0.989979 2.95983 0
M  V30 15166 N 1455.93 -1.56509 -0.185096 0
M  V30 15167 C 1457.21 -1.72055 -0.930398 0
M  V30 15168 C 1457.59 -0.646145 -2.00968 0
M  V30 15169 O 1456.93 0.34129 -2.25937 0
M  V30 15170 C 1457.14 -3.14752 -1.50771 0
M  V30 15171 C 1458.49 -3.75292 -1.98597 0
M  V30 15172 O 1459.52 -3.17944 -1.60593 0
M  V30 15173 O 1458.37 -4.7596 -2.68561 0
M  V30 15174 H 1455.47 -0.702118 -0.436989 0
M  V30 15175 H 1458.01 -1.68806 -0.174007 0
M  V30 15176 H 1456.79 -3.84426 -0.730236 0
M  V30 15177 H 1456.41 -3.22272 -2.32866 0
M  V30 15178 N 1457.41 0.45317 -1.50944 0
M  V30 15179 C 1458.65 1.21354 -1.64476 0
M  V30 15180 C 1459.01 1.88859 -0.345879 0
M  V30 15181 O 1460.21 2.66421 -0.356808 0
M  V30 15182 C 1458.48 2.21565 -2.80435 0
M  V30 15183 S 1460.04 3.06302 -3.14205 0
M  V30 15184 H 1456.86 0.411762 -0.579632 0
M  V30 15185 H 1459.46 0.50762 -1.88795 0
M  V30 15186 H 1458.17 1.70585 -3.73268 0
M  V30 15187 H 1457.7 2.96761 -2.58257 0
M  V30 15188 H 1459.71 4.22988 -2.59414 0
M  V30 15189 N 1458.88 1.40823 0.707568 0
M  V30 15190 C 1460.13 1.39259 1.46463 0
M  V30 15191 C 1460.45 -0.00157854 1.95 0
M  V30 15192 O 1459.72 -0.957723 1.70893 0
M  V30 15193 H 1458.3 0.512558 0.543409 0
M  V30 15194 H 1460.97 1.75952 0.838269 0
M  V30 15195 H 1460.06 2.07243 2.3336 0
M  V30 15196 N 1460.36 -0.94061 1.26453 0
M  V30 15197 C 1461.61 -1.68354 1.11809 0
M  V30 15198 C 1461.93 -1.9203 -0.339037 0
M  V30 15199 O 1461.2 -1.51739 -1.23903 0
M  V30 15200 H 1459.78 -0.623916 0.410777 0
M  V30 15201 H 1462.44 -1.13014 1.58789 0
M  V30 15202 H 1461.54 -2.65706 1.63728 0
M  V30 15203 N 1461.84 -1.08266 -1.14527 0
M  V30 15204 C 1463.09 -0.806405 -1.84878 0
M  V30 15205 C 1463.4 0.670151 -1.83762 0
M  V30 15206 O 1464.61 1.06151 -2.49888 0
M  V30 15207 C 1463.06 -1.39257 -3.31867 0
M  V30 15208 C 1462.67 -2.90081 -3.41404 0
M  V30 15209 C 1464.42 -1.19475 -4.0734 0
M  V30 15210 C 1462.32 -3.41842 -4.82595 0
M  V30 15211 H 1461.25 -0.297993 -0.692615 0
M  V30 15212 H 1463.9 -1.30389 -1.29116 0
M  V30 15213 H 1462.29 -0.822802 -3.87358 0
M  V30 15214 H 1463.46 -3.53182 -2.95971 0
M  V30 15215 H 1461.78 -3.08761 -2.79385 0
M  V30 15216 H 1464.37 -1.55614 -5.11555 0
M  V30 15217 H 1464.72 -0.134455 -4.16083 0
M  V30 15218 H 1465.25 -1.73138 -3.58145 0
M  V30 15219 H 1461.99 -4.47439 -4.79039 0
M  V30 15220 H 1461.51 -2.835 -5.28572 0
M  V30 15221 H 1463.19 -3.38346 -5.51481 0
M  V30 15222 N 1463.32 1.31536 -0.86811 0
M  V30 15223 C 1464.25 2.31037 -0.33822 0
M  V30 15224 C 1465.23 1.60269 0.569892 0
M  V30 15225 O 1466.42 1.87987 0.487305 0
M  V30 15226 C 1463.55 3.44203 0.462753 0
M  V30 15227 C 1462.5 4.26549 -0.3521 0
M  V30 15228 C 1461.83 5.31605 0.574443 0
M  V30 15229 C 1463.13 4.97665 -1.58516 0
M  V30 15230 H 1464.82 2.75607 -1.16967 0
M  V30 15231 H 1462.37 1.325 -0.56389 0
M  V30 15232 H 1464.32 4.12862 0.843967 0
M  V30 15233 H 1463.04 2.98396 1.32769 0
M  V30 15234 H 1461.7 3.59555 -0.715237 0
M  V30 15235 H 1461.35 4.82048 1.43661 0
M  V30 15236 H 1461.05 5.87591 0.0331436 0
M  V30 15237 H 1462.57 6.03124 0.952541 0
M  V30 15238 H 1463.99 5.58931 -1.27549 0
M  V30 15239 H 1462.38 5.63437 -2.06539 0
M  V30 15240 H 1463.45 4.24756 -2.33902 0
M  V30 15241 N 1464.8 0.627364 1.44575 0
M  V30 15242 C 1466.21 0.292662 1.56894 0
M  V30 15243 C 1466.41 -1.20429 1.61552 0
M  V30 15244 O 1465.47 -1.98819 1.55651 0
M  V30 15245 C 1466.78 0.981267 2.84239 0
M  V30 15246 C 1468.33 0.959053 2.97945 0
M  V30 15247 C 1468.81 1.62805 4.28087 0
M  V30 15248 N 1470.3 1.59446 4.34892 0
M  V30 15249 C 1471.03 2.08107 5.34302 0
M  V30 15250 N 1470.53 2.64942 6.40139 0
M  V30 15251 N 1472.32 1.98758 5.25787 0
M  V30 15252 H 1464.47 1.5991 1.39795 0
M  V30 15253 H 1466.73 0.671019 0.669655 0
M  V30 15254 H 1466.44 2.0361 2.86768 0
M  V30 15255 H 1466.31 0.516703 3.73644 0
M  V30 15256 H 1468.7 -0.0872902 2.94971 0
M  V30 15257 H 1468.78 1.46207 2.09898 0
M  V30 15258 H 1468.43 2.67382 4.31821 0
M  V30 15259 H 1468.36 1.09989 5.14985 0
M  V30 15260 H 1470.85 1.17947 3.59022 0
M  V30 15261 H 1471.16 2.99814 7.12272 0
M  V30 15262 H 1469.51 2.68991 6.40835 0
M  V30 15263 H 1472.7 1.54081 4.42014 0
M  V30 15264 H 1472.87 2.36992 6.03107 0
M  V30 15265 N 1466.28 -1.53251 0.367684 0
M  V30 15266 C 1467.52 -2.03197 -0.221396 0
M  V30 15267 C 1467.88 -1.249 -1.45822 0
M  V30 15268 O 1469.08 -1.64863 -2.12306 0
M  V30 15269 C 1467.35 -3.53827 -0.504134 0
M  V30 15270 S 1468.91 -4.2564 -1.06658 0
M  V30 15271 H 1465.73 -0.708089 -0.0642774 0
M  V30 15272 H 1468.33 -1.88703 0.511037 0
M  V30 15273 H 1467.03 -4.08412 0.403477 0
M  V30 15274 H 1466.57 -3.72487 -1.26558 0
M  V30 15275 H 1468.58 -4.36987 -2.35068 0
M  V30 15276 N 1467.75 -0.0969077 -1.57302 0
M  V30 15277 C 1468.69 0.891431 -2.11154 0
M  V30 15278 C 1469.7 1.24482 -1.04919 0
M  V30 15279 O 1470.89 1.19762 -1.3236 0
M  V30 15280 C 1467.99 2.19998 -2.57787 0
M  V30 15281 C 1467.16 2.02165 -3.87876 0
M  V30 15282 C 1466.22 3.16549 -4.20337 0
M  V30 15283 O 1465.25 2.90432 -4.89528 0
M  V30 15284 N 1466.45 4.42369 -3.75885 0
M  V30 15285 H 1469.21 0.431477 -2.96578 0
M  V30 15286 H 1466.77 0.0881458 -1.6166 0
M  V30 15287 H 1468.77 2.95472 -2.76547 0
M  V30 15288 H 1467.34 2.57412 -1.77364 0
M  V30 15289 H 1466.56 1.11011 -3.78246 0
M  V30 15290 H 1467.84 1.87529 -4.7298 0
M  V30 15291 H 1467.24 4.66469 -3.20036 0
M  V30 15292 H 1465.8 5.14787 -3.99797 0
M  V30 15293 N 1469.23 1.56605 0.176793 0
M  V30 15294 C 1470.18 1.92393 1.22347 0
M  V30 15295 C 1471.17 0.791622 1.40079 0
M  V30 15296 O 1472.36 1.05474 1.42142 0
M  V30 15297 C 1469.49 2.28266 2.56417 0
M  V30 15298 C 1468.57 3.47997 2.42402 0
M  V30 15299 N 1468.96 4.65396 1.98092 0
M  V30 15300 C 1467.26 3.52496 2.73244 0
M  V30 15301 C 1467.96 5.47539 1.96409 0
M  V30 15302 N 1466.94 4.88434 2.38606 0
M  V30 15303 H 1470.74 2.8065 0.872507 0
M  V30 15304 H 1468.25 1.57768 0.385107 0
M  V30 15305 H 1470.25 2.52097 3.32043 0
M  V30 15306 H 1468.91 1.41345 2.92321 0
M  V30 15307 H 1469.92 4.89717 1.68515 0
M  V30 15308 H 1466.6 2.7604 3.13223 0
M  V30 15309 H 1467.99 6.51604 1.63896 0
M  V30 15310 N 1470.71 -0.445159 1.51182 0
M  V30 15311 C 1471.96 -1.19288 1.6314 0
M  V30 15312 C 1472.28 -1.91904 0.346109 0
M  V30 15313 O 1471.55 -1.8523 -0.637695 0
M  V30 15314 H 1470.13 -0.443319 0.601229 0
M  V30 15315 H 1472.79 -0.511136 1.88078 0
M  V30 15316 H 1471.89 -1.92672 2.45528 0
M  V30 15317 N 1472.19 -1.41197 -0.700089 0
M  V30 15318 C 1473.43 -1.40519 -1.46227 0
M  V30 15319 C 1473.77 -0.0126108 -1.94196 0
M  V30 15320 O 1473.04 0.958837 -1.69223 0
M  V30 15321 C 1473.32 -2.40808 -2.67738 0
M  V30 15322 C 1473.18 -3.89154 -2.25563 0
M  V30 15323 C 1474.5 -2.38415 -3.69927 0
M  V30 15324 H 1471.62 -0.511724 -0.530384 0
M  V30 15325 H 1474.26 -1.72441 -0.797754 0
M  V30 15326 H 1472.41 -2.13717 -3.24434 0
M  V30 15327 H 1474.08 -4.27132 -1.74229 0
M  V30 15328 H 1472.32 -4.04239 -1.57395 0
M  V30 15329 H 1472.99 -4.54866 -3.12731 0
M  V30 15330 H 1475.47 -2.62447 -3.22895 0
M  V30 15331 H 1474.35 -3.10609 -4.52563 0
M  V30 15332 H 1474.61 -1.40116 -4.19309 0
M  V30 15333 N 1473.67 0.933891 -1.2695 0
M  V30 15334 C 1474.91 1.67539 -1.1231 0
M  V30 15335 C 1475.23 1.92765 0.331788 0
M  V30 15336 O 1476.43 2.6481 0.598983 0
M  V30 15337 C 1474.89 3.01722 -1.96194 0
M  V30 15338 C 1474.5 2.84216 -3.46302 0
M  V30 15339 C 1476.24 3.79513 -1.90185 0
M  V30 15340 C 1474.15 4.13916 -4.22407 0
M  V30 15341 H 1473.08 0.62839 -0.416704 0
M  V30 15342 H 1475.73 1.03801 -1.5132 0
M  V30 15343 H 1474.11 3.66482 -1.50023 0
M  V30 15344 H 1475.29 2.28261 -4.00292 0
M  V30 15345 H 1473.6 2.1986 -3.53625 0
M  V30 15346 H 1476.2 4.75615 -2.44325 0
M  V30 15347 H 1476.54 4.07019 -0.874129 0
M  V30 15348 H 1477.07 3.21539 -2.34217 0
M  V30 15349 H 1473.81 3.91591 -5.25677 0
M  V30 15350 H 1473.33 4.69558 -3.73196 0
M  V30 15351 H 1475.01 4.82322 -4.31248 0
M  V30 15352 N 1475.14 1.08871 1.13951 0
M  V30 15353 C 1476.39 0.819665 1.84732 0
M  V30 15354 C 1476.71 -0.656535 1.83615 0
M  V30 15355 O 1475.98 -1.47614 1.28791 0
M  V30 15356 H 1474.56 0.30023 0.684011 0
M  V30 15357 H 1477.22 1.37568 1.38062 0
M  V30 15358 H 1476.32 1.16809 2.89417 0
M  V30 15359 N 1476.62 -1.31073 0.875073 0
M  V30 15360 C 1477.87 -1.95791 0.484661 0
M  V30 15361 C 1478.18 -1.69907 -0.969074 0
M  V30 15362 O 1479.39 -2.28527 -1.46587 0
M  V30 15363 C 1477.85 -3.50532 0.815804 0
M  V30 15364 C 1477.45 -3.85249 2.28664 0
M  V30 15365 C 1479.2 -4.21615 0.494111 0
M  V30 15366 C 1477.1 -5.33124 2.55993 0
M  V30 15367 H 1476.03 -0.732806 0.177516 0
M  V30 15368 H 1478.69 -1.49169 1.06868 0
M  V30 15369 H 1477.07 -3.95673 0.16098 0
M  V30 15370 H 1478.24 -3.51051 2.98496 0
M  V30 15371 H 1476.56 -3.27244 2.57488 0
M  V30 15372 H 1479.15 -5.30417 0.675456 0
M  V30 15373 H 1479.5 -4.12437 -0.565815 0
M  V30 15374 H 1480.03 -3.82125 1.1057 0
M  V30 15375 H 1476.77 -5.47343 3.60688 0
M  V30 15376 H 1476.29 -5.68657 1.90761 0
M  V30 15377 H 1477.97 -6.00446 2.40984 0
M  V30 15378 N 1478.1 -0.635022 -1.4424 0
M  V30 15379 C 1479.35 -0.141276 -2.02307 0
M  V30 15380 C 1479.68 1.23508 -1.49865 0
M  V30 15381 O 1478.95 1.82065 -0.684291 0
M  V30 15382 C 1479.24 -0.132196 -3.59857 0
M  V30 15383 C 1479.09 -1.54117 -4.22573 0
M  V30 15384 C 1480.41 0.541186 -4.3676 0
M  V30 15385 H 1477.53 -0.0528117 -0.735105 0
M  V30 15386 H 1480.17 -0.812239 -1.71763 0
M  V30 15387 H 1478.32 0.439156 -3.8601 0
M  V30 15388 H 1479.99 -2.16171 -4.07514 0
M  V30 15389 H 1478.24 -2.09389 -3.79919 0
M  V30 15390 H 1478.91 -1.48682 -5.31599 0
M  V30 15391 H 1481.38 0.0552603 -4.16063 0
M  V30 15392 H 1480.26 0.516742 -5.46462 0
M  V30 15393 H 1480.52 1.61222 -4.11655 0
M  V30 15394 N 1479.58 1.53054 -0.375806 0
M  V30 15395 C 1480.81 2.0582 0.211135 0
M  V30 15396 C 1481.22 1.24856 1.4162 0
M  V30 15397 O 1480.58 0.291786 1.80152 0
M  V30 15398 C 1480.63 3.56577 0.594573 0
M  V30 15399 O 1480.35 4.34472 -0.562607 0
M  V30 15400 C 1481.85 4.25639 1.23882 0
M  V30 15401 H 1479.07 0.670085 0.0350268 0
M  V30 15402 H 1481.62 1.9732 -0.537135 0
M  V30 15403 H 1479.77 3.65194 1.29275 0
M  V30 15404 H 1480.18 5.23902 -0.250487 0
M  V30 15405 H 1481.66 5.32408 1.45759 0
M  V30 15406 H 1482.14 3.80001 2.20218 0
M  V30 15407 H 1482.74 4.21302 0.581786 0
M  V30 15408 N 1481.06 0.105248 1.57248 0
M  V30 15409 C 1482.02 -0.835589 2.13426 0
M  V30 15410 C 1483.02 -1.20398 1.06587 0
M  V30 15411 O 1484.21 -1.13175 1.32428 0
M  V30 15412 C 1481.34 -2.12806 2.6632 0
M  V30 15413 H 1482.53 -0.347606 2.97879 0
M  V30 15414 H 1480.09 -0.143855 1.55637 0
M  V30 15415 H 1480.82 -2.66066 1.85416 0
M  V30 15416 H 1480.61 -1.87352 3.44444 0
M  V30 15417 H 1482.1 -2.80089 3.09741 0
M  V30 15418 N 1482.53 -1.56697 -0.168486 0
M  V30 15419 C 1483.78 -1.81794 -0.882907 0
M  V30 15420 C 1484.1 -0.682707 -1.82658 0
M  V30 15421 O 1483.37 0.297234 -1.93632 0
M  V30 15422 H 1481.95 -0.670636 -0.329024 0
M  V30 15423 H 1484.62 -1.94178 -0.167625 0
M  V30 15424 H 1483.71 -2.75945 -1.45811 0
M  V30 15425 N 1484.01 0.437135 -1.51416 0
M  V30 15426 C 1485.26 1.18421 -1.63771 0
M  V30 15427 C 1485.58 1.91718 -0.356282 0
M  V30 15428 O 1484.85 1.85566 0.627863 0
M  V30 15429 H 1483.43 0.440125 -0.603572 0
M  V30 15430 H 1486.09 0.501155 -1.88347 0
M  V30 15431 H 1485.19 1.91367 -2.46546 0
M  V30 15432 N 1485.49 1.41566 0.692592 0
M  V30 15433 C 1486.4 1.46014 1.83622 0
M  V30 15434 C 1487.42 0.350453 1.70434 0
M  V30 15435 O 1488.59 0.598634 1.92298 0
M  V30 15436 C 1485.66 1.34308 3.19628 0
M  V30 15437 C 1484.72 2.55617 3.44904 0
M  V30 15438 C 1483.95 2.4446 4.74421 0
M  V30 15439 O 1484.17 1.47078 5.51112 0
M  V30 15440 O 1483.11 3.34272 5.00546 0
M  V30 15441 H 1486.93 2.42504 1.82826 0
M  V30 15442 H 1484.52 1.23136 0.846039 0
M  V30 15443 H 1486.4 1.30075 4.00822 0
M  V30 15444 H 1485.08 0.409343 3.21101 0
M  V30 15445 H 1483.98 2.65426 2.63628 0
M  V30 15446 H 1485.32 3.47829 3.48247 0
M  V30 15447 N 1486.97 -0.927146 1.27443 0
M  V30 15448 C 1488.22 -1.67159 1.13589 0
M  V30 15449 C 1488.54 -1.92379 -0.31865 0
M  V30 15450 O 1487.81 -1.53045 -1.22287 0
M  V30 15451 H 1486.39 -0.619524 0.417371 0
M  V30 15452 H 1489.05 -1.11323 1.59979 0
M  V30 15453 H 1488.15 -2.63954 1.66537 0
M  V30 15454 N 1488.45 -1.09474 -1.13372 0
M  V30 15455 C 1489.38 -0.756441 -2.20908 0
M  V30 15456 C 1490.36 0.266113 -1.68006 0
M  V30 15457 O 1491.54 0.134067 -1.93737 0
M  V30 15458 C 1488.67 -0.176733 -3.4685 0
M  V30 15459 C 1487.63 -1.12886 -4.12845 0
M  V30 15460 C 1486.95 -0.410831 -5.33119 0
M  V30 15461 C 1488.25 -2.47148 -4.60125 0
M  V30 15462 H 1489.95 -1.65555 -2.49463 0
M  V30 15463 H 1487.49 -0.797458 -1.19902 0
M  V30 15464 H 1489.45 0.0720151 -4.21338 0
M  V30 15465 H 1488.17 0.757576 -3.17692 0
M  V30 15466 H 1486.83 -1.36289 -3.40325 0
M  V30 15467 H 1486.48 0.527632 -5.00225 0
M  V30 15468 H 1486.18 -1.04567 -5.78221 0
M  V30 15469 H 1487.7 -0.170394 -6.10362 0
M  V30 15470 H 1489.11 -2.27949 -5.26034 0
M  V30 15471 H 1487.51 -3.06425 -5.15969 0
M  V30 15472 H 1488.58 -3.07874 -3.74622 0
M  V30 15473 N 1489.92 1.30607 -0.882012 0
M  V30 15474 C 1491.17 1.96547 -0.499703 0
M  V30 15475 C 1491.5 1.69484 0.948098 0
M  V30 15476 O 1490.78 0.997929 1.66948 0
M  V30 15477 C 1491.06 3.51735 -0.771662 0
M  V30 15478 C 1490.91 3.88326 -2.26987 0
M  V30 15479 C 1492.23 4.39411 -0.246178 0
M  V30 15480 H 1489.35 0.713912 -0.183026 0
M  V30 15481 H 1491.99 1.5453 -1.10546 0
M  V30 15482 H 1490.14 3.87655 -0.256092 0
M  V30 15483 H 1491.82 3.62444 -2.85362 0
M  V30 15484 H 1490.06 3.36501 -2.7377 0
M  V30 15485 H 1490.73 4.96574 -2.41078 0
M  V30 15486 H 1493.21 4.10382 -0.687419 0
M  V30 15487 H 1492.08 5.4692 -0.465817 0
M  V30 15488 H 1492.34 4.33804 0.852452 0
M  V30 15489 N 1491.4 0.642663 1.43901 0
M  V30 15490 C 1492.37 -0.0457858 2.29154 0
M  V30 15491 C 1493.37 -0.760988 1.41653 0
M  V30 15492 O 1494.56 -0.603832 1.634 0
M  V30 15493 C 1491.69 -1.07552 3.23489 0
M  V30 15494 H 1492.88 0.704193 2.91515 0
M  V30 15495 H 1490.43 0.403361 1.51006 0
M  V30 15496 H 1491.17 -1.85509 2.66002 0
M  V30 15497 H 1490.95 -0.566468 3.87987 0
M  V30 15498 H 1492.44 -1.55663 3.87503 0
M  V30 15499 N 1492.88 -1.52852 0.383918 0
M  V30 15500 C 1494.13 -2.0151 -0.199989 0
M  V30 15501 C 1494.46 -1.27058 -1.47263 0
M  V30 15502 O 1493.71 -0.357819 -1.92401 0
M  V30 15503 C 1494.01 -3.53602 -0.519674 0
M  V30 15504 C 1493.68 -4.46032 0.660789 0
M  V30 15505 C 1492.34 -4.71018 0.984646 0
M  V30 15506 C 1494.69 -5.00602 1.45077 0
M  V30 15507 C 1492.02 -5.47824 2.10013 0
M  V30 15508 C 1494.37 -5.78627 2.55682 0
M  V30 15509 C 1493.03 -6.01894 2.88582 0
M  V30 15510 H 1492.3 -0.737377 -0.0731812 0
M  V30 15511 H 1494.95 -1.843 0.520157 0
M  V30 15512 H 1493.26 -3.68856 -1.32108 0
M  V30 15513 H 1494.95 -3.88739 -0.984011 0
M  V30 15514 H 1491.54 -4.26745 0.398359 0
M  V30 15515 H 1495.73 -4.81228 1.21381 0
M  V30 15516 H 1490.98 -5.64066 2.3588 0
M  V30 15517 H 1495.16 -6.19914 3.173 0
M  V30 15518 H 1492.78 -6.61192 3.75138 0
M  V30 15519 N 1494.36 -0.113586 -1.5719 0
M  V30 15520 C 1495.58 0.556928 -1.99783 0
M  V30 15521 C 1496.01 1.59774 -0.992669 0
M  V30 15522 O 1495.37 1.81263 0.0363821 0
M  V30 15523 C 1495.42 1.16463 -3.41275 0
M  V30 15524 O 1494.52 2.28024 -3.43626 0
M  V30 15525 H 1493.86 0.139628 -0.649153 0
M  V30 15526 H 1496.39 -0.200462 -2.03616 0
M  V30 15527 H 1496.4 1.50147 -3.79368 0
M  V30 15528 H 1495.08 0.402232 -4.1395 0
M  V30 15529 H 1493.65 1.9582 -3.17347 0
M  V30 15530 N 1495.84 1.56784 0.160173 0
M  V30 15531 C 1497.11 1.73513 0.902908 0
M  V30 15532 C 1497.49 0.678036 1.99915 0
M  V30 15533 O 1496.84 -0.305302 2.26451 0
M  V30 15534 C 1497.05 3.17111 1.45744 0
M  V30 15535 C 1498.4 3.78404 1.92602 0
M  V30 15536 O 1499.42 3.20459 1.55515 0
M  V30 15537 O 1498.28 4.80172 2.60954 0
M  V30 15538 H 1495.38 0.708981 0.425764 0
M  V30 15539 H 1497.92 1.69061 0.147129 0
M  V30 15540 H 1496.7 3.85539 0.668985 0
M  V30 15541 H 1496.32 3.25936 2.2771 0
M  V30 15542 N 1497.32 -0.429099 1.51646 0
M  V30 15543 C 1498.56 -1.17482 1.63954 0
M  V30 15544 C 1498.88 -1.92152 0.36565 0
M  V30 15545 O 1500.08 -2.68991 0.368221 0
M  V30 15546 C 1498.54 -2.13703 2.89585 0
M  V30 15547 C 1498.15 -1.44642 4.24008 0
M  V30 15548 C 1499.89 -2.88657 3.11252 0
M  V30 15549 C 1497.8 -2.39395 5.40781 0
M  V30 15550 H 1496.73 -0.442234 0.610692 0
M  V30 15551 H 1499.38 -0.441088 1.7812 0
M  V30 15552 H 1497.76 -2.90545 2.69071 0
M  V30 15553 H 1498.94 -0.733012 4.54932 0
M  V30 15554 H 1497.25 -0.818084 4.08285 0
M  V30 15555 H 1499.85 -3.59653 3.95669 0
M  V30 15556 H 1500.19 -3.50473 2.24664 0
M  V30 15557 H 1500.72 -2.18919 3.32144 0
M  V30 15558 H 1497.46 -1.82255 6.29653 0
M  V30 15559 H 1496.98 -3.08766 5.14222 0
M  V30 15560 H 1498.66 -3.0035 5.73061 0
M  V30 15561 N 1498.79 -1.41931 -0.685074 0
M  V30 15562 C 1500.21 -1.24631 -0.996957 0
M  V30 15563 C 1500.41 -0.143146 -2.00991 0
M  V30 15564 O 1499.47 0.489012 -2.47719 0
M  V30 15565 C 1500.78 -2.59947 -1.51156 0
M  V30 15566 C 1502.33 -2.67216 -1.62986 0
M  V30 15567 C 1502.8 -4.02874 -2.17845 0
M  V30 15568 N 1504.29 -4.04775 -2.25192 0
M  V30 15569 C 1505.03 -5.0655 -2.68691 0
M  V30 15570 N 1504.52 -6.18712 -3.11717 0
M  V30 15571 N 1506.32 -4.93909 -2.68348 0
M  V30 15572 H 1498.47 -2.12395 -0.0142223 0
M  V30 15573 H 1500.73 -0.945496 -0.0688552 0
M  V30 15574 H 1500.44 -3.41477 -0.841793 0
M  V30 15575 H 1500.31 -2.83159 -2.49201 0
M  V30 15576 H 1502.7 -1.86038 -2.29071 0
M  V30 15577 H 1502.78 -2.47804 -0.634584 0
M  V30 15578 H 1502.42 -4.84505 -1.52372 0
M  V30 15579 H 1502.35 -4.19633 -3.18144 0
M  V30 15580 H 1504.84 -3.23798 -1.94841 0
M  V30 15581 H 1505.16 -6.9223 -3.43565 0
M  V30 15582 H 1503.5 -6.22232 -3.096 0
M  V30 15583 H 1506.69 -4.05364 -2.34089 0
M  V30 15584 H 1506.87 -5.73361 -3.01929 0
M  V30 15585 N 1500.27 0.920374 -1.27933 0
M  V30 15586 C 1501.55 1.64765 -1.05413 0
M  V30 15587 C 1501.93 2.07106 0.408717 0
M  V30 15588 O 1501.28 1.81094 1.39346 0
M  V30 15589 C 1501.49 2.84417 -2.02257 0
M  V30 15590 C 1502.83 3.5559 -2.32036 0
M  V30 15591 O 1503.86 2.94555 -2.00289 0
M  V30 15592 O 1502.72 4.65574 -2.86187 0
M  V30 15593 H 1499.81 0.722503 -0.402391 0
M  V30 15594 H 1502.36 0.970263 -1.39226 0
M  V30 15595 H 1501.13 2.50174 -3.0088 0
M  V30 15596 H 1500.75 3.59872 -1.6905 0
M  V30 15597 N 1501.75 1.10074 1.1279 0
M  V30 15598 C 1502.68 0.768146 2.20503 0
M  V30 15599 C 1503.66 -0.257199 1.68144 0
M  V30 15600 O 1504.85 -0.12379 1.93805 0
M  V30 15601 C 1501.98 0.195125 3.46751 0
M  V30 15602 C 1500.93 1.15074 4.1224 0
M  V30 15603 C 1500.26 0.439098 5.32894 0
M  V30 15604 C 1501.56 2.49584 4.58808 0
M  V30 15605 H 1503.25 1.66876 2.48581 0
M  V30 15606 H 1500.8 0.803806 1.19478 0
M  V30 15607 H 1502.75 -0.0496695 4.21371 0
M  V30 15608 H 1501.47 -0.740717 3.1809 0
M  V30 15609 H 1500.13 1.38092 3.39597 0
M  V30 15610 H 1499.78 -0.501096 5.00498 0
M  V30 15611 H 1499.48 1.07632 5.77658 0
M  V30 15612 H 1501 0.202761 6.10263 0
M  V30 15613 H 1502.42 2.30736 5.24818 0
M  V30 15614 H 1500.81 3.09157 5.14336 0
M  V30 15615 H 1501.88 3.09857 3.72984 0
M  V30 15616 N 1503.23 -1.30138 0.888926 0
M  V30 15617 C 1504.46 -1.99853 0.523676 0
M  V30 15618 C 1504.87 -1.66783 -0.893312 0
M  V30 15619 O 1504.21 -0.903292 -1.59957 0
M  V30 15620 C 1504.27 -3.54055 0.623332 0
M  V30 15621 C 1503.93 -4.10652 2.00534 0
M  V30 15622 C 1504.93 -4.26353 2.97522 0
M  V30 15623 C 1502.62 -4.45938 2.3118 0
M  V30 15624 C 1504.61 -4.76557 4.23288 0
M  V30 15625 C 1502.3 -4.95841 3.57191 0
M  V30 15626 C 1503.3 -5.11103 4.53059 0
M  V30 15627 O 1502.98 -5.59927 5.76833 0
M  V30 15628 H 1502.72 -0.645553 0.200591 0
M  V30 15629 H 1505.27 -1.66899 1.19724 0
M  V30 15630 H 1503.5 -3.86551 -0.107221 0
M  V30 15631 H 1505.19 -4.05009 0.26879 0
M  V30 15632 H 1505.95 -3.9939 2.75159 0
M  V30 15633 H 1501.83 -4.33324 1.57326 0
M  V30 15634 H 1505.38 -4.88385 4.98123 0
M  V30 15635 H 1501.27 -5.22239 3.7939 0
M  V30 15636 H 1502.04 -5.78263 5.79271 0
M  V30 15637 N 1504.71 -0.650285 -1.43559 0
M  V30 15638 C 1505.67 0.0336325 -2.29175 0
M  V30 15639 C 1506.67 0.753465 -1.42055 0
M  V30 15640 O 1507.86 0.595158 -1.63718 0
M  V30 15641 C 1504.99 1.05835 -3.24055 0
M  V30 15642 H 1506.18 -0.719643 -2.91138 0
M  V30 15643 H 1503.74 -0.411363 -1.5079 0
M  V30 15644 H 1504.47 1.84096 -2.66982 0
M  V30 15645 H 1504.26 0.545884 -3.88281 0
M  V30 15646 H 1505.75 1.53606 -3.88323 0
M  V30 15647 N 1506.18 1.52647 -0.392018 0
M  V30 15648 C 1507.41 2.05734 0.189018 0
M  V30 15649 C 1507.82 1.26338 1.40838 0
M  V30 15650 O 1507.16 0.303866 1.81169 0
M  V30 15651 C 1507.23 3.54095 0.621026 0
M  V30 15652 C 1506.89 4.54416 -0.485249 0
M  V30 15653 C 1507.89 5.02241 -1.3435 0
M  V30 15654 C 1505.57 4.98037 -0.653055 0
M  V30 15655 C 1507.57 5.92313 -2.35467 0
M  V30 15656 C 1505.25 5.87908 -1.66755 0
M  V30 15657 C 1506.25 6.34939 -2.51677 0
M  V30 15658 O 1505.94 7.23034 -3.51392 0
M  V30 15659 H 1505.67 0.675266 0.0315024 0
M  V30 15660 H 1508.23 1.97717 -0.556535 0
M  V30 15661 H 1506.46 3.5974 1.4186 0
M  V30 15662 H 1508.14 3.8991 1.12804 0
M  V30 15663 H 1508.91 4.6927 -1.22518 0
M  V30 15664 H 1504.79 4.61 -0.00176071 0
M  V30 15665 H 1508.33 6.28944 -3.01786 0
M  V30 15666 H 1504.23 6.20293 -1.78624 0
M  V30 15667 H 1505 7.41102 -3.47433 0
M  V30 15668 N 1507.66 0.121921 1.57128 0
M  V30 15669 C 1508.57 -0.840825 2.19014 0
M  V30 15670 C 1509.59 -1.29051 1.16712 0
M  V30 15671 O 1510.76 -1.35289 1.49194 0
M  V30 15672 C 1507.83 -2.07204 2.7797 0
M  V30 15673 C 1506.89 -1.67399 3.95318 0
M  V30 15674 C 1506.12 -2.84652 4.51452 0
M  V30 15675 O 1506.35 -4.00161 4.06482 0
M  V30 15676 O 1505.28 -2.61568 5.42094 0
M  V30 15677 H 1509.11 -0.344146 3.01744 0
M  V30 15678 H 1506.69 -0.103841 1.49039 0
M  V30 15679 H 1508.57 -2.79307 3.1554 0
M  V30 15680 H 1507.25 -2.55872 1.9827 0
M  V30 15681 H 1506.16 -0.92395 3.62511 0
M  V30 15682 H 1507.49 -1.2347 4.76462 0
M  V30 15683 N 1509.14 -1.56867 -0.151857 0
M  V30 15684 C 1510.05 -2.01157 -1.20718 0
M  V30 15685 C 1511.07 -0.926166 -1.47303 0
M  V30 15686 O 1512.24 -1.23528 -1.59069 0
M  V30 15687 C 1509.31 -2.37915 -2.52185 0
M  V30 15688 C 1508.37 -3.60381 -2.3329 0
M  V30 15689 C 1507.6 -3.95376 -3.58488 0
M  V30 15690 O 1507.82 -3.31093 -4.64471 0
M  V30 15691 O 1506.76 -4.88645 -3.5144 0
M  V30 15692 H 1510.58 -2.91234 -0.861175 0
M  V30 15693 H 1508.17 -1.44993 -0.360213 0
M  V30 15694 H 1510.05 -2.6244 -3.29702 0
M  V30 15695 H 1508.73 -1.50995 -2.86325 0
M  V30 15696 H 1507.63 -3.4105 -1.5374 0
M  V30 15697 H 1508.97 -4.47903 -2.04067 0
M  V30 15698 N 1510.62 0.421051 -1.51871 0
M  V30 15699 C 1511.53 1.5371 -1.7723 0
M  V30 15700 C 1512.54 1.61109 -0.657256 0
M  V30 15701 O 1513.72 1.78047 -0.941343 0
M  V30 15702 C 1510.79 2.89555 -1.9068 0
M  V30 15703 C 1509.85 2.9214 -3.14567 0
M  V30 15704 C 1509.08 4.21505 -3.27367 0
M  V30 15705 O 1509.3 5.14764 -2.45712 0
M  V30 15706 O 1508.24 4.30706 -4.20448 0
M  V30 15707 H 1512.06 1.35221 -2.71935 0
M  V30 15708 H 1509.65 0.605712 -1.3657 0
M  V30 15709 H 1511.53 3.70147 -2.01418 0
M  V30 15710 H 1510.2 3.08137 -0.991627 0
M  V30 15711 H 1509.11 2.10444 -3.09296 0
M  V30 15712 H 1510.44 2.78505 -4.05827 0
M  V30 15713 N 1512.1 1.42293 0.677538 0
M  V30 15714 C 1513.06 1.45258 1.77293 0
M  V30 15715 C 1514.06 0.340554 1.57152 0
M  V30 15716 O 1515.25 0.601259 1.63495 0
M  V30 15717 C 1512.38 1.28156 3.15894 0
M  V30 15718 H 1513.57 2.42787 1.76052 0
M  V30 15719 H 1511.13 1.287 0.886908 0
M  V30 15720 H 1511.86 0.315381 3.22763 0
M  V30 15721 H 1511.65 2.08744 3.31916 0
M  V30 15722 H 1513.14 1.33107 3.95818 0
M  V30 15723 N 1513.57 -0.913576 1.28419 0
M  V30 15724 C 1514.51 -2.01727 1.06683 0
M  V30 15725 C 1515.49 -1.62591 -0.0171379 0
M  V30 15726 O 1516.67 -1.88045 0.130827 0
M  V30 15727 C 1513.8 -3.32954 0.621229 0
M  V30 15728 C 1512.84 -3.91074 1.70187 0
M  V30 15729 S 1513.68 -4.21902 3.29786 0
M  V30 15730 C 1514.83 -5.5619 2.8706 0
M  V30 15731 H 1515.06 -2.19855 2.00127 0
M  V30 15732 H 1512.6 -1.05846 1.1241 0
M  V30 15733 H 1514.56 -4.08822 0.370832 0
M  V30 15734 H 1513.22 -3.12727 -0.293381 0
M  V30 15735 H 1512.41 -4.85813 1.3417 0
M  V30 15736 H 1512.01 -3.21843 1.90507 0
M  V30 15737 H 1514.3 -6.36085 2.33242 0
M  V30 15738 H 1515.25 -5.97119 3.80598 0
M  V30 15739 H 1515.65 -5.17386 2.25771 0
M  V30 15740 N 1515.05 -1.1067 -1.12204 0
M  V30 15741 C 1515.96 -0.770221 -2.21596 0
M  V30 15742 C 1516.98 0.233297 -1.72429 0
M  V30 15743 O 1518.15 0.0714493 -2.01273 0
M  V30 15744 C 1515.22 -0.209682 -3.46065 0
M  V30 15745 C 1514.28 -1.27079 -4.1006 0
M  V30 15746 C 1513.51 -0.736899 -5.28588 0
M  V30 15747 O 1513.74 0.435838 -5.68732 0
M  V30 15748 O 1512.67 -1.49797 -5.82962 0
M  V30 15749 H 1516.5 -1.6834 -2.52776 0
M  V30 15750 H 1514.08 -0.882012 -1.20586 0
M  V30 15751 H 1515.96 0.0989516 -4.21284 0
M  V30 15752 H 1514.64 0.676316 -3.16556 0
M  V30 15753 H 1513.55 -1.63231 -3.3661 0
M  V30 15754 H 1514.88 -2.12989 -4.4373 0
M  V30 15755 N 1516.53 1.29665 -0.895815 0
M  V30 15756 C 1517.46 2.26842 -0.327939 0
M  V30 15757 C 1518.48 1.54151 0.523578 0
M  V30 15758 O 1519.66 1.75205 0.341367 0
M  V30 15759 C 1516.76 3.34384 0.551393 0
M  V30 15760 C 1515.94 4.36544 -0.273514 0
M  V30 15761 C 1515 5.23442 0.538031 0
M  V30 15762 O 1514.02 5.69184 -0.0431025 0
M  V30 15763 N 1515.22 5.50402 1.84493 0
M  V30 15764 H 1517.99 2.76208 -1.16315 0
M  V30 15765 H 1515.55 1.42958 -0.759903 0
M  V30 15766 H 1517.54 3.89446 1.10062 0
M  V30 15767 H 1516.11 2.84864 1.28728 0
M  V30 15768 H 1515.33 3.81196 -1.00416 0
M  V30 15769 H 1516.62 5.01842 -0.838589 0
M  V30 15770 H 1516.02 5.15041 2.33985 0
M  V30 15771 H 1514.58 6.08295 2.34137 0
M  V30 15772 N 1518.01 0.657889 1.43212 0
M  V30 15773 C 1519.26 0.172845 2.0136 0
M  V30 15774 C 1519.58 -1.21911 1.52193 0
M  V30 15775 O 1518.85 -1.81529 0.736492 0
M  V30 15776 H 1517.43 0.0609091 0.744513 0
M  V30 15777 H 1520.09 0.850605 1.75359 0
M  V30 15778 H 1519.19 0.161062 3.11684 0
M  V30 15779 N 1519.49 -1.52437 0.400108 0
M  V30 15780 C 1520.74 -2.00896 -0.179909 0
M  V30 15781 C 1521.05 -1.29046 -1.46991 0
M  V30 15782 O 1522.25 -1.68274 -2.13063 0
M  V30 15783 C 1520.71 -3.57981 -0.371169 0
M  V30 15784 C 1520.32 -4.38739 0.906213 0
M  V30 15785 C 1522.06 -4.14698 -0.906965 0
M  V30 15786 C 1519.97 -5.87447 0.682637 0
M  V30 15787 H 1518.9 -0.750649 -0.071008 0
M  V30 15788 H 1521.55 -1.75854 0.524169 0
M  V30 15789 H 1519.93 -3.79315 -1.13736 0
M  V30 15790 H 1521.11 -4.29167 1.67785 0
M  V30 15791 H 1519.42 -3.93296 1.36776 0
M  V30 15792 H 1522.02 -5.2347 -1.09012 0
M  V30 15793 H 1522.36 -3.71477 -1.87911 0
M  V30 15794 H 1522.89 -3.97297 -0.200068 0
M  V30 15795 H 1519.63 -6.35011 1.62608 0
M  V30 15796 H 1519.15 -5.99779 -0.0498716 0
M  V30 15797 H 1520.83 -6.46202 0.321331 0
M  V30 15798 N 1520.96 -0.130252 -1.57061 0
M  V30 15799 C 1522.19 0.535707 -2.00362 0
M  V30 15800 C 1522.61 1.58712 -1.00956 0
M  V30 15801 O 1521.97 1.81292 0.0171546 0
M  V30 15802 C 1522.02 1.12836 -3.42491 0
M  V30 15803 O 1521.12 2.24367 -3.46025 0
M  V30 15804 H 1520.47 0.132735 -0.650598 0
M  V30 15805 H 1523 -0.222047 -2.03392 0
M  V30 15806 H 1523.01 1.46115 -3.80939 0
M  V30 15807 H 1521.68 0.358304 -4.14354 0
M  V30 15808 H 1520.26 1.92443 -3.19406 0
M  V30 15809 N 1522.44 1.56945 0.143535 0
M  V30 15810 C 1523.39 1.99479 1.19628 0
M  V30 15811 C 1524.39 0.887733 1.44276 0
M  V30 15812 O 1525.59 1.07292 1.44528 0
M  V30 15813 H 1521.97 0.635049 0.402761 0
M  V30 15814 H 1523.94 2.87171 0.810877 0
M  V30 15815 C 1522.69 2.39436 2.52123 0
M  V30 15816 H 1522.01 3.24176 2.33987 0
M  V30 15817 H 1523.45 2.73017 3.24404 0
M  V30 15818 C 1521.91 1.24836 3.12918 0
M  V30 15819 O 1522.44 0.550973 3.97903 0
M  V30 15820 N 1520.64 1.01172 2.7242 0
M  V30 15821 H 1520.19 1.5806 2.03408 0
M  V30 15822 H 1520.15 0.246846 3.13429 0
M  V30 15823 N 1523.92 -0.412991 1.52093 0
M  V30 15824 C 1525.15 -1.1804 1.69558 0
M  V30 15825 C 1525.56 -1.84858 0.403007 0
M  V30 15826 O 1524.9 -1.72541 -0.630506 0
M  V30 15827 C 1524.96 -2.28876 2.7723 0
M  V30 15828 C 1524.63 -1.82226 4.19098 0
M  V30 15829 C 1525.63 -1.31216 5.03069 0
M  V30 15830 C 1523.31 -1.89177 4.65314 0
M  V30 15831 C 1525.3 -0.877743 6.31328 0
M  V30 15832 C 1522.99 -1.45347 5.93563 0
M  V30 15833 C 1523.99 -0.947302 6.76399 0
M  V30 15834 O 1523.68 -0.515315 8.02247 0
M  V30 15835 H 1523.41 -0.360882 0.571612 0
M  V30 15836 H 1525.96 -0.492521 1.99408 0
M  V30 15837 H 1524.19 -3.01015 2.42748 0
M  V30 15838 H 1525.88 -2.9065 2.83333 0
M  V30 15839 H 1526.65 -1.25221 4.68556 0
M  V30 15840 H 1522.53 -2.27518 4.00945 0
M  V30 15841 H 1526.07 -0.481977 6.95933 0
M  V30 15842 H 1521.97 -1.51019 6.27585 0
M  V30 15843 H 1522.74 -0.638973 8.16002 0
M  V30 15844 N 1525.4 -1.4265 -0.669982 0
M  V30 15845 C 1526.65 -1.42667 -1.42579 0
M  V30 15846 C 1526.96 -0.0483217 -1.9554 0
M  V30 15847 O 1528.17 0.0740917 -2.71399 0
M  V30 15848 C 1526.62 -2.5098 -2.57948 0
M  V30 15849 C 1526.23 -3.94844 -2.11666 0
M  V30 15850 C 1527.98 -2.6017 -3.35428 0
M  V30 15851 C 1525.88 -4.94655 -3.24146 0
M  V30 15852 H 1524.81 -0.530651 -0.535654 0
M  V30 15853 H 1527.46 -1.68576 -0.724861 0
M  V30 15854 H 1525.85 -2.18244 -3.30432 0
M  V30 15855 H 1527.02 -4.36958 -1.46303 0
M  V30 15856 H 1525.33 -3.89547 -1.47111 0
M  V30 15857 H 1527.93 -3.31918 -4.19207 0
M  V30 15858 H 1528.27 -1.64683 -3.82342 0
M  V30 15859 H 1528.81 -2.92124 -2.70016 0
M  V30 15860 H 1525.55 -5.91636 -2.82218 0
M  V30 15861 H 1525.07 -4.57168 -3.88275 0
M  V30 15862 H 1526.75 -5.16593 -3.89538 0
M  V30 15863 N 1526.88 0.906753 -1.28902 0
M  V30 15864 C 1527.79 2.04313 -1.15296 0
M  V30 15865 C 1528.8 1.73826 -0.0778619 0
M  V30 15866 O 1529.98 1.99322 -0.288543 0
M  V30 15867 C 1527.04 3.36782 -0.823317 0
M  V30 15868 C 1526.11 3.80834 -1.98152 0
M  V30 15869 C 1525.34 5.06981 -1.66751 0
M  V30 15870 O 1525.56 5.67391 -0.58513 0
M  V30 15871 O 1524.5 5.46915 -2.51332 0
M  V30 15872 H 1528.32 2.18713 -2.10709 0
M  V30 15873 H 1525.91 1.02928 -1.08287 0
M  V30 15874 H 1527.79 4.16298 -0.653735 0
M  V30 15875 H 1526.46 3.23542 0.101097 0
M  V30 15876 H 1525.37 3.02115 -2.2063 0
M  V30 15877 H 1526.7 3.98648 -2.88688 0
M  V30 15878 N 1528.36 1.11264 1.11616 0
M  V30 15879 C 1529.58 0.88306 1.87661 0
M  V30 15880 C 1530.01 -0.561586 1.79521 0
M  V30 15881 O 1529.36 -1.3964 1.1563 0
M  V30 15882 C 1529.41 1.34698 3.34498 0
M  V30 15883 O 1528.52 0.517512 4.0914 0
M  V30 15884 H 1527.86 0.318233 0.582772 0
M  V30 15885 H 1530.39 1.48164 1.41098 0
M  V30 15886 H 1530.4 1.34068 3.85344 0
M  V30 15887 H 1529.07 2.39896 3.39739 0
M  V30 15888 H 1527.65 0.589751 3.68207 0
M  V30 15889 N 1529.83 -1.29188 0.902679 0
M  V30 15890 C 1530.76 -2.3006 0.399357 0
M  V30 15891 C 1531.74 -1.61724 -0.527199 0
M  V30 15892 O 1532.93 -1.89213 -0.437293 0
M  V30 15893 C 1530.06 -3.45309 -0.371331 0
M  V30 15894 C 1529.01 -4.25466 0.465068 0
M  V30 15895 C 1528.34 -5.32941 -0.433295 0
M  V30 15896 C 1529.64 -4.93287 1.71655 0
M  V30 15897 H 1531.33 -2.72409 1.24233 0
M  V30 15898 H 1528.88 -1.30958 0.598822 0
M  V30 15899 H 1530.83 -4.14955 -0.734207 0
M  V30 15900 H 1529.56 -3.01811 -1.24811 0
M  V30 15901 H 1528.22 -3.57532 0.810315 0
M  V30 15902 H 1527.86 -4.85688 -1.3083 0
M  V30 15903 H 1527.56 -5.87472 0.122657 0
M  V30 15904 H 1529.09 -6.05438 -0.792298 0
M  V30 15905 H 1530.5 -5.55353 1.42323 0
M  V30 15906 H 1528.9 -5.57763 2.21405 0
M  V30 15907 H 1529.97 -4.18406 2.45081 0
M  V30 15908 N 1531.31 -0.665475 -1.42861 0
M  V30 15909 C 1532.56 -0.183521 -2.01265 0
M  V30 15910 C 1532.88 1.21103 -1.52837 0
M  V30 15911 O 1532.15 1.81135 -0.746109 0
M  V30 15912 H 1530.73 -0.0648565 -0.744179 0
M  V30 15913 H 1533.39 -0.859893 -1.74905 0
M  V30 15914 H 1532.49 -0.177589 -3.11594 0
M  V30 15915 N 1532.79 1.52222 -0.408187 0
M  V30 15916 C 1533.75 2.25578 0.405851 0
M  V30 15917 C 1534.75 1.27912 0.974434 0
M  V30 15918 O 1535.94 1.51861 0.853461 0
M  V30 15919 C 1533.07 3.02532 1.57122 0
M  V30 15920 H 1534.27 2.98965 -0.23664 0
M  V30 15921 H 1531.82 1.55472 -0.160687 0
M  V30 15922 H 1532.56 2.33492 2.2506 0
M  V30 15923 H 1532.34 3.74237 1.17001 0
M  V30 15924 H 1533.83 3.58177 2.14707 0
M  V30 15925 N 1534.27 0.138579 1.5699 0
M  V30 15926 C 1535.23 -0.79013 2.1515 0
M  V30 15927 C 1536.23 -1.1811 1.09117 0
M  V30 15928 O 1537.42 -1.1034 1.34798 0
M  V30 15929 C 1534.55 -2.07109 2.70774 0
M  V30 15930 H 1535.75 -0.284343 2.98549 0
M  V30 15931 H 1533.3 -0.11081 1.55907 0
M  V30 15932 H 1534.03 -2.62074 1.91018 0
M  V30 15933 H 1533.82 -1.80004 3.4834 0
M  V30 15934 H 1535.31 -2.73456 3.15613 0
M  V30 15935 N 1535.75 -1.57019 -0.13521 0
M  V30 15936 C 1536.99 -1.8399 -0.845818 0
M  V30 15937 C 1537.32 -0.721255 -1.80633 0
M  V30 15938 O 1536.58 0.288778 -1.93558 0
M  V30 15939 C 1536.87 -3.17358 -1.64373 0
M  V30 15940 C 1536.54 -4.43214 -0.828967 0
M  V30 15941 C 1535.2 -4.77391 -0.604226 0
M  V30 15942 C 1537.55 -5.20551 -0.259965 0
M  V30 15943 C 1534.88 -5.86359 0.200033 0
M  V30 15944 C 1537.23 -6.30364 0.531397 0
M  V30 15945 C 1535.9 -6.63083 0.766605 0
M  V30 15946 H 1535.17 -0.673266 -0.309507 0
M  V30 15947 H 1537.82 -1.9119 -0.108903 0
M  V30 15948 H 1536.12 -3.05661 -2.4511 0
M  V30 15949 H 1537.82 -3.35444 -2.19724 0
M  V30 15950 H 1534.41 -4.16427 -1.01421 0
M  V30 15951 H 1538.59 -4.94512 -0.420847 0
M  V30 15952 H 1533.85 -6.10144 0.391646 0
M  V30 15953 H 1538.02 -6.89479 0.979371 0
M  V30 15954 H 1535.65 -7.47354 1.39164 0
M  V30 15955 N 1537.22 0.404919 -1.52309 0
M  V30 15956 C 1538.47 1.14921 -1.66246 0
M  V30 15957 C 1538.79 1.90919 -0.396868 0
M  V30 15958 O 1538.06 1.86856 0.588361 0
M  V30 15959 H 1536.64 0.427223 -0.612772 0
M  V30 15960 H 1539.31 0.461091 -1.89367 0
M  V30 15961 H 1538.4 1.86095 -2.5055 0
M  V30 15962 N 1538.7 1.43003 0.662408 0
M  V30 15963 C 1539.93 1.47766 1.45533 0
M  V30 15964 C 1540.35 0.0940298 1.87865 0
M  V30 15965 O 1539.71 -0.910252 1.56793 0
M  V30 15966 C 1539.76 2.42084 2.6726 0
M  V30 15967 O 1538.86 1.90076 3.65985 0
M  V30 15968 H 1538.2 0.500167 0.436725 0
M  V30 15969 H 1540.73 1.87823 0.811399 0
M  V30 15970 H 1540.74 2.5908 3.15185 0
M  V30 15971 H 1539.42 3.42601 2.3579 0
M  V30 15972 H 1538 1.82695 3.2508 0
M  V30 15973 N 1540.18 -0.899904 1.29381 0
M  V30 15974 C 1541.43 -1.64712 1.17109 0
M  V30 15975 C 1541.75 -1.93011 -0.277772 0
M  V30 15976 O 1541.02 -1.55604 -1.19013 0
M  V30 15977 H 1539.6 -0.610532 0.430418 0
M  V30 15978 H 1542.26 -1.07905 1.62304 0
M  V30 15979 H 1541.36 -2.60362 1.72098 0
M  V30 15980 N 1541.66 -1.11854 -1.11024 0
M  V30 15981 C 1542.91 -0.870073 -1.82855 0
M  V30 15982 C 1543.23 0.604215 -1.84877 0
M  V30 15983 O 1542.49 1.46232 -1.30056 0
M  V30 15984 C 1542.79 -1.3823 -3.29586 0
M  V30 15985 C 1542.45 -2.87057 -3.4772 0
M  V30 15986 C 1541.12 -3.27696 -3.52376 0
M  V30 15987 C 1543.47 -3.8289 -3.53617 0
M  V30 15988 C 1540.8 -4.62886 -3.60491 0
M  V30 15989 C 1543.15 -5.17902 -3.63263 0
M  V30 15990 C 1541.81 -5.58092 -3.66182 0
M  V30 15991 H 1541.08 -0.318382 -0.669114 0
M  V30 15992 H 1543.73 -1.39769 -1.30908 0
M  V30 15993 H 1542.03 -0.775018 -3.84058 0
M  V30 15994 H 1543.73 -1.16634 -3.83663 0
M  V30 15995 H 1540.32 -2.54623 -3.44768 0
M  V30 15996 H 1544.5 -3.52591 -3.49275 0
M  V30 15997 H 1539.76 -4.93425 -3.61029 0
M  V30 15998 H 1543.93 -5.9199 -3.6677 0
M  V30 15999 H 1541.56 -6.62838 -3.72222 0
M  V30 16000 N 1543.14 1.28707 -0.909517 0
M  V30 16001 C 1544.36 1.99283 -0.556211 0
M  V30 16002 C 1544.78 1.68 0.861475 0
M  V30 16003 O 1544.14 0.930421 1.57001 0
M  V30 16004 C 1544.19 3.5362 -0.75068 0
M  V30 16005 O 1543.91 3.83799 -2.11258 0
M  V30 16006 C 1545.41 4.41459 -0.403637 0
M  V30 16007 H 1542.63 0.636476 -0.212462 0
M  V30 16008 H 1545.17 1.64007 -1.22156 0
M  V30 16009 H 1543.33 3.87174 -0.132384 0
M  V30 16010 H 1543.74 4.78448 -2.14913 0
M  V30 16011 H 1545.22 5.48833 -0.590496 0
M  V30 16012 H 1545.69 4.34214 0.659897 0
M  V30 16013 H 1546.3 4.13394 -0.999292 0
M  V30 16014 N 1544.61 0.673042 1.42506 0
M  V30 16015 C 1545.55 -0.0452975 2.29155 0
M  V30 16016 C 1546.56 -0.767277 1.43585 0
M  V30 16017 O 1547.75 -0.621728 1.67322 0
M  V30 16018 C 1544.85 -1.0878 3.20967 0
M  V30 16019 C 1544.02 -0.439999 4.35181 0
M  V30 16020 C 1543.08 -1.38205 5.07726 0
M  V30 16021 O 1542.11 -0.883031 5.62309 0
M  V30 16022 N 1543.31 -2.7154 5.13075 0
M  V30 16023 H 1546.07 0.698517 2.91446 0
M  V30 16024 H 1543.63 0.517322 1.53412 0
M  V30 16025 H 1545.63 -1.71925 3.66366 0
M  V30 16026 H 1544.2 -1.73337 2.6014 0
M  V30 16027 H 1543.42 0.370926 3.92451 0
M  V30 16028 H 1544.7 0.0113738 5.08799 0
M  V30 16029 H 1544.1 -3.14623 4.70137 0
M  V30 16030 H 1542.66 -3.29937 5.62126 0
M  V30 16031 N 1546.09 -1.52004 0.416254 0
M  V30 16032 C 1547.02 -2.24913 -0.441208 0
M  V30 16033 C 1548.04 -1.28139 -1.0042 0
M  V30 16034 O 1549.23 -1.54037 -0.901928 0
M  V30 16035 C 1546.33 -2.97298 -1.62688 0
M  V30 16036 C 1545.5 -4.20999 -1.18652 0
M  V30 16037 C 1544.56 -4.76146 -2.2399 0
M  V30 16038 O 1543.58 -5.38541 -1.84288 0
M  V30 16039 N 1544.79 -4.58338 -3.56239 0
M  V30 16040 H 1547.55 -2.99137 0.183576 0
M  V30 16041 H 1545.11 -1.60051 0.244008 0
M  V30 16042 H 1547.1 -3.31082 -2.32737 0
M  V30 16043 H 1545.67 -2.26216 -2.15744 0
M  V30 16044 H 1544.89 -3.92948 -0.313877 0
M  V30 16045 H 1546.18 -5.01318 -0.869365 0
M  V30 16046 H 1545.58 -4.08592 -3.91241 0
M  V30 16047 H 1544.14 -4.96542 -4.22244 0
M  V30 16048 N 1547.57 -0.146903 -1.56914 0
M  V30 16049 C 1548.82 0.504195 -1.95297 0
M  V30 16050 C 1549.13 1.66019 -1.03426 0
M  V30 16051 O 1550.34 2.37591 -1.31388 0
M  V30 16052 C 1548.79 0.948348 -3.47181 0
M  V30 16053 C 1548.4 -0.18071 -4.47635 0
M  V30 16054 C 1550.15 1.56924 -3.9443 0
M  V30 16055 C 1548.05 0.281707 -5.90729 0
M  V30 16056 H 1546.98 0.192127 -0.729111 0
M  V30 16057 H 1549.63 -0.231232 -1.82037 0
M  V30 16058 H 1548.02 1.73903 -3.55772 0
M  V30 16059 H 1549.19 -0.957645 -4.50739 0
M  V30 16060 H 1547.51 -0.710007 -4.10302 0
M  V30 16061 H 1550.1 1.92684 -4.98776 0
M  V30 16062 H 1550.45 2.45816 -3.35976 0
M  V30 16063 H 1550.98 0.843456 -3.88755 0
M  V30 16064 H 1547.72 -0.571839 -6.53001 0
M  V30 16065 H 1547.24 1.02452 -5.90985 0
M  V30 16066 H 1548.92 0.733746 -6.42826 0
M  V30 16067 N 1549.05 1.57088 0.126881 0
M  V30 16068 C 1550.3 1.84071 0.834397 0
M  V30 16069 C 1550.62 0.730896 1.80784 0
M  V30 16070 O 1549.89 -0.245791 1.94352 0
M  V30 16071 H 1548.47 0.679123 0.311128 0
M  V30 16072 H 1551.13 1.94554 0.116083 0
M  V30 16073 H 1550.23 2.79714 1.38443 0
M  V30 16074 N 1550.53 -0.396836 1.52522 0
M  V30 16075 C 1551.8 -1.15638 1.57757 0
M  V30 16076 C 1552.18 -2.07903 0.365998 0
M  V30 16077 O 1551.53 -2.1917 -0.646266 0
M  V30 16078 C 1551.74 -1.92292 2.91247 0
M  V30 16079 C 1553.09 -2.47929 3.44697 0
M  V30 16080 O 1554.11 -2.02458 2.93069 0
M  V30 16081 O 1552.97 -3.30969 4.34881 0
M  V30 16082 H 1550.07 -0.52867 0.635953 0
M  V30 16083 H 1552.61 -0.402622 1.64855 0
M  V30 16084 H 1551.38 -1.24775 3.70873 0
M  V30 16085 H 1551.01 -2.74646 2.87498 0
M  V30 16086 N 1552.01 -1.43353 -0.654814 0
M  V30 16087 C 1552.95 -1.48387 -1.76776 0
M  V30 16088 C 1553.92 -0.333755 -1.62712 0
M  V30 16089 O 1555.11 -0.540683 -1.82979 0
M  V30 16090 C 1552.25 -1.41132 -3.14922 0
M  V30 16091 C 1551.36 -2.66336 -3.40131 0
M  V30 16092 C 1550.5 -2.5108 -4.68116 0
M  V30 16093 C 1549.53 -3.71561 -4.86425 0
M  V30 16094 N 1548.67 -3.55125 -6.05666 0
M  V30 16095 H 1553.51 -2.43487 -1.71808 0
M  V30 16096 H 1551.05 -1.20866 -0.838442 0
M  V30 16097 H 1553.01 -1.3492 -3.94782 0
M  V30 16098 H 1551.64 -0.496149 -3.18964 0
M  V30 16099 H 1550.69 -2.82834 -2.5438 0
M  V30 16100 H 1552 -3.55835 -3.49546 0
M  V30 16101 H 1551.15 -2.42567 -5.56099 0
M  V30 16102 H 1549.89 -1.59103 -4.61018 0
M  V30 16103 H 1548.9 -3.80484 -3.96877 0
M  V30 16104 H 1550.12 -4.64545 -4.95353 0
M  V30 16105 H 1548.07 -2.65881 -5.99703 0
M  V30 16106 H 1547.99 -4.38224 -6.16032 0
M  V30 16107 H 1549.25 -3.5046 -6.96274 0
M  V30 16108 N 1553.48 0.89303 -1.29857 0
M  V30 16109 C 1554.73 1.63881 -1.17583 0
M  V30 16110 C 1555.05 1.93723 0.270293 0
M  V30 16111 O 1556.25 2.66582 0.514432 0
M  V30 16112 C 1554.71 2.95327 -2.05694 0
M  V30 16113 C 1554.32 2.73055 -3.55169 0
M  V30 16114 C 1556.06 3.7327 -2.02162 0
M  V30 16115 C 1553.97 4.00268 -4.35361 0
M  V30 16116 H 1552.9 0.614815 -0.436485 0
M  V30 16117 H 1555.55 0.989339 -1.54546 0
M  V30 16118 H 1553.93 3.61523 -1.61607 0
M  V30 16119 H 1555.1 2.1541 -4.07351 0
M  V30 16120 H 1553.42 2.08498 -3.6044 0
M  V30 16121 H 1556.02 4.67601 -2.59333 0
M  V30 16122 H 1556.36 4.04032 -1.00318 0
M  V30 16123 H 1556.89 3.13925 -2.44328 0
M  V30 16124 H 1553.63 3.74669 -5.37869 0
M  V30 16125 H 1553.15 4.57448 -3.87945 0
M  V30 16126 H 1554.83 4.68358 -4.46374 0
M  V30 16127 N 1554.96 1.12442 1.10429 0
M  V30 16128 C 1556.19 0.902914 1.86714 0
M  V30 16129 C 1556.61 -0.542514 1.80107 0
M  V30 16130 O 1555.97 -1.38406 1.17105 0
M  V30 16131 C 1556.02 1.38238 3.33051 0
M  V30 16132 O 1555.12 0.560877 4.08568 0
M  V30 16133 H 1554.46 0.324397 0.579364 0
M  V30 16134 H 1556.99 1.49652 1.39519 0
M  V30 16135 H 1557 1.38148 3.839 0
M  V30 16136 H 1555.68 2.43486 3.37176 0
M  V30 16137 H 1554.25 0.628771 3.67561 0
M  V30 16138 N 1556.44 -1.28223 0.91633 0
M  V30 16139 C 1557.35 -2.30956 0.411882 0
M  V30 16140 C 1558.37 -1.66609 -0.501753 0
M  V30 16141 O 1559.54 -1.97641 -0.387317 0
M  V30 16142 C 1556.61 -3.45053 -0.337558 0
M  V30 16143 C 1555.67 -4.2495 0.609609 0
M  V30 16144 C 1554.9 -5.33598 -0.104159 0
M  V30 16145 O 1555.12 -5.54786 -1.32546 0
M  V30 16146 O 1554.06 -5.99272 0.561851 0
M  V30 16147 H 1557.88 -2.76118 1.26461 0
M  V30 16148 H 1555.47 -1.32964 0.681246 0
M  V30 16149 H 1557.35 -4.14477 -0.760722 0
M  V30 16150 H 1556.03 -3.01968 -1.16607 0
M  V30 16151 H 1554.93 -3.58104 1.08222 0
M  V30 16152 H 1556.27 -4.7172 1.40502 0
M  V30 16153 N 1557.92 -0.68059 -1.42147 0
M  V30 16154 C 1558.85 -0.0199376 -2.33491 0
M  V30 16155 C 1559.83 0.783164 -1.50999 0
M  V30 16156 O 1561.01 0.739154 -1.79583 0
M  V30 16157 C 1558.14 0.927902 -3.34675 0
M  V30 16158 C 1557.1 0.232979 -4.27365 0
M  V30 16159 C 1556.42 1.29415 -5.18802 0
M  V30 16160 C 1557.72 -0.891559 -5.14634 0
M  V30 16161 H 1559.42 -0.782823 -2.88985 0
M  V30 16162 H 1556.96 -0.377898 -1.38953 0
M  V30 16163 H 1558.92 1.3992 -3.97493 0
M  V30 16164 H 1557.64 1.72228 -2.77498 0
M  V30 16165 H 1556.3 -0.21814 -3.6595 0
M  V30 16166 H 1555.95 2.08067 -4.57949 0
M  V30 16167 H 1555.65 0.834274 -5.81647 0
M  V30 16168 H 1557.17 1.76627 -5.84496 0
M  V30 16169 H 1558.59 -0.501219 -5.71105 0
M  V30 16170 H 1556.98 -1.27759 -5.86343 0
M  V30 16171 H 1558.05 -1.73781 -4.5269 0
M  V30 16172 N 1559.4 1.51781 -0.424309 0
M  V30 16173 C 1560.62 2.06387 0.145548 0
M  V30 16174 C 1561.04 1.29299 1.37576 0
M  V30 16175 O 1560.4 0.348952 1.79133 0
M  V30 16176 C 1560.45 3.58288 0.48083 0
M  V30 16177 O 1560.17 4.32463 -0.700546 0
M  V30 16178 C 1561.67 4.29364 1.10278 0
M  V30 16179 H 1558.89 0.67086 0.0136908 0
M  V30 16180 H 1561.43 1.95511 -0.599639 0
M  V30 16181 H 1559.59 3.69122 1.17591 0
M  V30 16182 H 1560 5.22839 -0.417035 0
M  V30 16183 H 1561.48 5.36776 1.28747 0
M  V30 16184 H 1561.95 3.86815 2.08017 0
M  V30 16185 H 1562.56 4.2294 0.447458 0
M  V30 16186 N 1560.87 0.155222 1.56834 0
M  V30 16187 C 1562.1 -0.503763 2.01189 0
M  V30 16188 C 1562.52 -1.57086 1.03468 0
M  V30 16189 O 1561.88 -1.81296 0.0116895 0
M  V30 16190 C 1561.93 -1.07373 3.44243 0
M  V30 16191 O 1561.03 -2.18834 3.49551 0
M  V30 16192 H 1560.37 -0.122368 0.652627 0
M  V30 16193 H 1562.9 0.254377 2.03013 0
M  V30 16194 H 1562.91 -1.40036 3.83215 0
M  V30 16195 H 1561.59 -0.292339 4.14871 0
M  V30 16196 H 1560.17 -1.87337 3.22427 0
M  V30 16197 N 1562.35 -1.57153 -0.118549 0
M  V30 16198 C 1563.28 -1.95577 -1.17579 0
M  V30 16199 C 1564.26 -0.825508 -1.40086 0
M  V30 16200 O 1565.45 -1.08372 -1.54233 0
M  V30 16201 C 1562.57 -2.25238 -2.52954 0
M  V30 16202 C 1561.62 -3.47789 -2.46871 0
M  V30 16203 S 1562.45 -5.00358 -1.90792 0
M  V30 16204 C 1563.61 -5.33172 -3.27839 0
M  V30 16205 H 1563.84 -2.84946 -0.84812 0
M  V30 16206 H 1561.37 -1.50934 -0.325323 0
M  V30 16207 H 1563.33 -2.43005 -3.30846 0
M  V30 16208 H 1561.99 -1.36482 -2.82898 0
M  V30 16209 H 1561.19 -3.6591 -3.46592 0
M  V30 16210 H 1560.79 -3.29411 -1.771 0
M  V30 16211 H 1563.08 -5.28381 -4.24051 0
M  V30 16212 H 1564.02 -6.34403 -3.14545 0
M  V30 16213 H 1564.43 -4.60647 -3.26289 0
M  V30 16214 N 1563.83 0.388742 -1.5273 0
M  V30 16215 C 1565.08 1.13543 -1.68035 0
M  V30 16216 C 1565.41 1.89622 -0.419177 0
M  V30 16217 O 1564.68 1.85556 0.583031 0
M  V30 16218 C 1564.97 2.11346 -2.91556 0
M  V30 16219 C 1564.82 1.39029 -4.27775 0
M  V30 16220 C 1566.14 3.11769 -3.10625 0
M  V30 16221 H 1563.26 0.411406 -0.611485 0
M  V30 16222 H 1565.9 0.418781 -1.85327 0
M  V30 16223 H 1564.05 2.7246 -2.76944 0
M  V30 16224 H 1565.72 0.808775 -4.54155 0
M  V30 16225 H 1563.96 0.692133 -4.28243 0
M  V30 16226 H 1564.64 2.10495 -5.1029 0
M  V30 16227 H 1567.11 2.60745 -3.2427 0
M  V30 16228 H 1565.99 3.77447 -3.98529 0
M  V30 16229 H 1566.25 3.80649 -2.24853 0
M  V30 16230 N 1565.31 1.43698 0.647203 0
M  V30 16231 C 1566.54 1.49085 1.43462 0
M  V30 16232 C 1566.95 0.110605 1.88476 0
M  V30 16233 O 1566.31 -0.880365 1.59862 0
M  V30 16234 C 1566.36 2.44186 2.66562 0
M  V30 16235 O 1566.08 3.76844 2.23429 0
M  V30 16236 C 1567.58 2.58876 3.59858 0
M  V30 16237 H 1564.8 0.506148 0.440517 0
M  V30 16238 H 1567.34 1.88502 0.792931 0
M  V30 16239 H 1565.5 2.07949 3.26858 0
M  V30 16240 H 1565.91 4.2804 3.0312 0
M  V30 16241 H 1567.39 3.29482 4.42883 0
M  V30 16242 H 1567.86 1.63567 4.07606 0
M  V30 16243 H 1568.47 2.95949 3.05441 0
M  V30 16244 N 1566.79 -0.886131 1.30328 0
M  V30 16245 C 1568.01 -1.67625 1.22134 0
M  V30 16246 C 1568.44 -1.86893 -0.212712 0
M  V30 16247 O 1567.79 -1.39905 -1.1531 0
M  V30 16248 C 1567.84 -3.03068 1.95402 0
M  V30 16249 O 1566.95 -3.92022 1.28032 0
M  V30 16250 H 1566.29 -0.512246 0.422493 0
M  V30 16251 H 1568.82 -1.10602 1.72129 0
M  V30 16252 H 1568.83 -3.53119 2.04379 0
M  V30 16253 H 1567.5 -2.88363 2.99699 0
M  V30 16254 H 1566.08 -3.50461 1.27402 0
M  V30 16255 N 1568.26 -1.13026 -1.09832 0
M  V30 16256 C 1569.49 -0.91246 -1.85693 0
M  V30 16257 C 1569.91 0.538558 -1.80956 0
M  V30 16258 O 1569.26 1.37262 -1.20273 0
M  V30 16259 C 1569.32 -1.38684 -3.3384 0
M  V30 16260 O 1569.04 -2.78099 -3.38515 0
M  V30 16261 C 1570.54 -1.20688 -4.26555 0
M  V30 16262 H 1567.76 -0.32565 -0.58668 0
M  V30 16263 H 1570.3 -1.50177 -1.38806 0
M  V30 16264 H 1568.46 -0.840617 -3.7817 0
M  V30 16265 H 1568.87 -2.99061 -4.30886 0
M  V30 16266 H 1570.34 -1.5876 -5.28677 0
M  V30 16267 H 1570.82 -0.148111 -4.3895 0
M  V30 16268 H 1571.43 -1.74092 -3.88036 0
M  V30 16269 N 1569.74 1.27735 -0.923117 0
M  V30 16270 C 1570.99 1.93857 -0.556994 0
M  V30 16271 C 1571.3 1.73386 0.905346 0
M  V30 16272 O 1572.51 2.3381 1.38005 0
M  V30 16273 C 1570.97 3.47263 -0.94534 0
M  V30 16274 C 1570.57 3.76497 -2.42805 0
M  V30 16275 C 1572.32 4.1949 -0.65025 0
M  V30 16276 C 1570.23 5.23256 -2.75603 0
M  V30 16277 H 1569.16 0.725712 -0.204591 0
M  V30 16278 H 1571.81 1.451 -1.12331 0
M  V30 16279 H 1570.19 3.94803 -0.307721 0
M  V30 16280 H 1571.36 3.39731 -3.11319 0
M  V30 16281 H 1569.68 3.17463 -2.69456 0
M  V30 16282 H 1572.27 5.27544 -0.871851 0
M  V30 16283 H 1572.62 4.14253 0.412352 0
M  V30 16284 H 1573.15 3.77758 -1.24676 0
M  V30 16285 H 1569.89 5.33579 -3.80754 0
M  V30 16286 H 1569.41 5.61185 -2.11735 0
M  V30 16287 H 1571.09 5.91088 -2.63103 0
M  V30 16288 N 1571.22 0.688118 1.41784 0
M  V30 16289 C 1572.45 0.22475 2.05676 0
M  V30 16290 C 1572.86 -1.1232 1.51755 0
M  V30 16291 O 1572.22 -1.70041 0.662735 0
M  V30 16292 C 1572.27 0.165661 3.6112 0
M  V30 16293 O 1571.99 1.46035 4.13044 0
M  V30 16294 C 1573.49 -0.319599 4.42146 0
M  V30 16295 H 1570.71 0.106135 0.662553 0
M  V30 16296 H 1573.26 0.938605 1.81688 0
M  V30 16297 H 1571.41 -0.498968 3.84173 0
M  V30 16298 H 1571.83 1.34252 5.07027 0
M  V30 16299 H 1573.3 -0.30983 5.5113 0
M  V30 16300 H 1573.78 -1.3572 4.17704 0
M  V30 16301 H 1574.38 0.313764 4.24141 0
M  V30 16302 N 1572.7 -1.51554 0.432352 0
M  V30 16303 C 1573.61 -2.31371 -0.387885 0
M  V30 16304 C 1574.62 -1.40072 -1.03227 0
M  V30 16305 O 1575.8 -1.73145 -1.02873 0
M  V30 16306 C 1572.87 -3.13662 -1.47705 0
M  V30 16307 C 1571.93 -4.20734 -0.853315 0
M  V30 16308 C 1571.16 -4.99092 -1.89058 0
M  V30 16309 O 1571.38 -4.78022 -3.11209 0
M  V30 16310 O 1570.32 -5.83322 -1.48389 0
M  V30 16311 H 1574.14 -3.02554 0.263578 0
M  V30 16312 H 1571.73 -1.48122 0.195004 0
M  V30 16313 H 1573.61 -3.64837 -2.10884 0
M  V30 16314 H 1572.28 -2.45249 -2.11269 0
M  V30 16315 H 1571.19 -3.73649 -0.183616 0
M  V30 16316 H 1572.52 -4.91506 -0.261244 0
M  V30 16317 N 1574.18 -0.163538 -1.56749 0
M  V30 16318 C 1575.12 0.769787 -2.17584 0
M  V30 16319 C 1576.09 1.23246 -1.11354 0
M  V30 16320 O 1577.28 1.30203 -1.3947 0
M  V30 16321 C 1574.42 1.99685 -2.81461 0
M  V30 16322 C 1573.53 1.57846 -4.0213 0
M  V30 16323 C 1572.67 2.75858 -4.53955 0
M  V30 16324 C 1571.71 2.30473 -5.67053 0
M  V30 16325 N 1570.84 3.41551 -6.13423 0
M  V30 16326 H 1575.68 0.244221 -2.96998 0
M  V30 16327 H 1573.22 0.108821 -1.46697 0
M  V30 16328 H 1575.18 2.71643 -3.16648 0
M  V30 16329 H 1573.81 2.49624 -2.04664 0
M  V30 16330 H 1572.86 0.755907 -3.72814 0
M  V30 16331 H 1574.17 1.20525 -4.8402 0
M  V30 16332 H 1573.33 3.55984 -4.91284 0
M  V30 16333 H 1572.06 3.16434 -3.71107 0
M  V30 16334 H 1571.07 1.48791 -5.29284 0
M  V30 16335 H 1572.29 1.90964 -6.51698 0
M  V30 16336 H 1570.24 3.81717 -5.33506 0
M  V30 16337 H 1570.16 3.08298 -6.90281 0
M  V30 16338 H 1571.43 4.21985 -6.554 0
M  V30 16339 N 1575.65 1.57214 0.110213 0
M  V30 16340 C 1576.58 2.04015 1.13579 0
M  V30 16341 C 1577.57 0.926215 1.42672 0
M  V30 16342 O 1578.75 1.19651 1.52962 0
M  V30 16343 C 1575.88 2.45187 2.45969 0
M  V30 16344 C 1574.83 3.60105 2.31319 0
M  V30 16345 C 1574.16 3.87205 3.68749 0
M  V30 16346 C 1575.46 4.91526 1.76635 0
M  V30 16347 H 1577.15 2.89944 0.746496 0
M  V30 16348 H 1574.7 1.39488 0.357642 0
M  V30 16349 H 1576.65 2.76534 3.17973 0
M  V30 16350 H 1575.38 1.56238 2.86805 0
M  V30 16351 H 1574.04 3.28981 1.61762 0
M  V30 16352 H 1573.68 2.95448 4.07087 0
M  V30 16353 H 1573.38 4.64563 3.59798 0
M  V30 16354 H 1574.91 4.21013 4.42245 0
M  V30 16355 H 1576.32 5.21351 2.38465 0
M  V30 16356 H 1574.72 5.72944 1.78482 0
M  V30 16357 H 1575.79 4.79456 0.724573 0
M  V30 16358 N 1577.13 -0.380637 1.52934 0
M  V30 16359 C 1578.06 -1.47174 1.81279 0
M  V30 16360 C 1579.04 -1.56549 0.665319 0
M  V30 16361 O 1580.23 -1.71362 0.913722 0
M  V30 16362 C 1577.36 -2.84691 1.98918 0
M  V30 16363 C 1576.31 -2.90151 3.14637 0
M  V30 16364 C 1575.64 -4.30198 3.17544 0
M  V30 16365 C 1576.94 -2.59037 4.53539 0
M  V30 16366 H 1578.63 -1.23703 2.7265 0
M  V30 16367 H 1576.18 -0.593654 1.31194 0
M  V30 16368 H 1578.13 -3.61034 2.1733 0
M  V30 16369 H 1576.86 -3.09517 1.04244 0
M  V30 16370 H 1575.51 -2.16257 2.96021 0
M  V30 16371 H 1575.16 -4.52076 2.20536 0
M  V30 16372 H 1574.86 -4.3477 3.95284 0
M  V30 16373 H 1576.39 -5.08435 3.38121 0
M  V30 16374 H 1577.8 -3.25096 4.72214 0
M  V30 16375 H 1576.2 -2.74946 5.33408 0
M  V30 16376 H 1577.27 -1.54342 4.59681 0
M  V30 16377 N 1578.61 -1.44039 -0.639573 0
M  V30 16378 C 1579.56 -1.50254 -1.75192 0
M  V30 16379 C 1580.53 -0.350994 -1.62349 0
M  V30 16380 O 1581.71 -0.56006 -1.82395 0
M  V30 16381 C 1578.85 -1.44464 -3.13407 0
M  V30 16382 C 1577.97 -2.69929 -3.37287 0
M  V30 16383 C 1577.1 -2.56031 -4.65426 0
M  V30 16384 C 1576.14 -3.76699 -4.82456 0
M  V30 16385 N 1575.28 -3.61529 -6.01865 0
M  V30 16386 H 1580.12 -2.45296 -1.69216 0
M  V30 16387 H 1577.65 -1.21748 -0.825576 0
M  V30 16388 H 1579.61 -1.39099 -3.93328 0
M  V30 16389 H 1578.24 -0.529951 -3.1842 0
M  V30 16390 H 1577.29 -2.85516 -2.51366 0
M  V30 16391 H 1578.61 -3.59523 -3.45753 0
M  V30 16392 H 1577.76 -2.48451 -5.53495 0
M  V30 16393 H 1576.5 -1.63983 -4.59305 0
M  V30 16394 H 1575.5 -3.84672 -3.92819 0
M  V30 16395 H 1576.73 -4.69772 -4.90398 0
M  V30 16396 H 1574.67 -2.72226 -5.96849 0
M  V30 16397 H 1574.59 -4.44733 -6.1135 0
M  V30 16398 H 1575.86 -3.57826 -6.92518 0
M  V30 16399 N 1580.09 0.879207 -1.30796 0
M  V30 16400 C 1581.04 2.00692 -1.17582 0
M  V30 16401 C 1582.03 1.6918 -0.0863163 0
M  V30 16402 O 1583.24 1.78289 -0.24757 0
M  V30 16403 H 1579.61 0.65814 -0.363808 0
M  V30 16404 H 1581.58 2.0897 -2.13012 0
M  V30 16405 C 1580.33 3.36105 -0.890429 0
M  V30 16406 H 1579.65 3.60868 -1.72088 0
M  V30 16407 H 1581.09 4.15634 -0.838103 0
M  V30 16408 C 1579.55 3.34436 0.406734 0
M  V30 16409 O 1580.08 3.7552 1.42645 0
M  V30 16410 N 1578.29 2.87549 0.419963 0
M  V30 16411 H 1577.84 2.54311 -0.410343 0
M  V30 16412 H 1577.79 2.86815 1.28781 0
M  V30 16413 N 1581.57 1.13606 1.09231 0
M  V30 16414 C 1582.5 0.837908 2.17948 0
M  V30 16415 C 1583.48 -0.203575 1.68877 0
M  V30 16416 O 1584.66 -0.0620702 1.94101 0
M  V30 16417 C 1581.79 0.305342 3.45955 0
M  V30 16418 C 1580.75 1.2813 4.08371 0
M  V30 16419 C 1580.07 0.608412 5.31227 0
M  V30 16420 C 1581.37 2.64055 4.50636 0
M  V30 16421 H 1583.07 1.747 2.43147 0
M  V30 16422 H 1580.61 0.84141 1.1686 0
M  V30 16423 H 1582.57 0.0844116 4.21315 0
M  V30 16424 H 1581.29 -0.639144 3.20285 0
M  V30 16425 H 1579.95 1.48826 3.35032 0
M  V30 16426 H 1579.6 -0.341613 5.01839 0
M  V30 16427 H 1579.3 1.25956 5.73942 0
M  V30 16428 H 1580.82 0.396809 6.09309 0
M  V30 16429 H 1582.24 2.47316 5.17212 0
M  V30 16430 H 1580.63 3.25364 5.0424 0
M  V30 16431 H 1581.7 3.21566 3.62937 0
M  V30 16432 N 1583.05 -1.27244 0.929878 0
M  V30 16433 C 1584.29 -1.93559 0.567267 0
M  V30 16434 C 1584.61 -1.73864 -0.896138 0
M  V30 16435 O 1585.81 -2.34538 -1.36763 0
M  V30 16436 C 1584.27 -3.46756 0.963743 0
M  V30 16437 C 1583.88 -3.75204 2.44798 0
M  V30 16438 C 1585.62 -4.19139 0.672487 0
M  V30 16439 C 1583.53 -5.21787 2.78375 0
M  V30 16440 H 1582.46 -0.724617 0.208437 0
M  V30 16441 H 1585.11 -1.44502 1.13099 0
M  V30 16442 H 1583.49 -3.94634 0.328654 0
M  V30 16443 H 1584.67 -3.38075 3.13116 0
M  V30 16444 H 1582.98 -3.16029 2.71136 0
M  V30 16445 H 1585.58 -5.27074 0.899816 0
M  V30 16446 H 1585.92 -4.14466 -0.390378 0
M  V30 16447 H 1586.45 -3.77091 1.26678 0
M  V30 16448 H 1583.19 -5.31552 3.83579 0
M  V30 16449 H 1582.71 -5.60054 2.14708 0
M  V30 16450 H 1584.39 -5.89685 2.66234 0
M  V30 16451 N 1584.52 -0.695628 -1.41417 0
M  V30 16452 C 1585.47 -0.0303383 -2.3078 0
M  V30 16453 C 1586.44 0.771218 -1.4711 0
M  V30 16454 O 1587.63 0.739239 -1.75897 0
M  V30 16455 C 1584.77 0.900034 -3.33157 0
M  V30 16456 C 1583.88 0.0900862 -4.31906 0
M  V30 16457 C 1583.01 1.01811 -5.21352 0
M  V30 16458 C 1582.05 0.201068 -6.1177 0
M  V30 16459 N 1581.19 1.0829 -6.93699 0
M  V30 16460 H 1586.03 -0.798148 -2.87113 0
M  V30 16461 H 1583.57 -0.405311 -1.41406 0
M  V30 16462 H 1585.52 1.45349 -3.91062 0
M  V30 16463 H 1584.15 1.63424 -2.78375 0
M  V30 16464 H 1583.21 -0.58029 -3.75948 0
M  V30 16465 H 1584.52 -0.543336 -4.95832 0
M  V30 16466 H 1583.67 1.64079 -5.84092 0
M  V30 16467 H 1582.41 1.68538 -4.57653 0
M  V30 16468 H 1581.42 -0.434686 -5.48079 0
M  V30 16469 H 1582.64 -0.462416 -6.77524 0
M  V30 16470 H 1580.59 1.73619 -6.32608 0
M  V30 16471 H 1580.5 0.505046 -7.54311 0
M  V30 16472 H 1581.77 1.69239 -7.60906 0
M  V30 16473 N 1586 1.51322 -0.440383 0
M  V30 16474 C 1587.25 2.01302 0.126581 0
M  V30 16475 C 1587.56 1.32898 1.43518 0
M  V30 16476 O 1588.77 1.73864 2.08527 0
M  V30 16477 C 1587.23 3.58839 0.276126 0
M  V30 16478 C 1586.83 4.36182 -1.02222 0
M  V30 16479 C 1588.58 4.16957 0.796697 0
M  V30 16480 C 1586.48 5.85431 -0.838148 0
M  V30 16481 H 1585.41 0.752268 0.0510809 0
M  V30 16482 H 1588.07 1.74403 -0.570609 0
M  V30 16483 H 1586.45 3.82198 1.03639 0
M  V30 16484 H 1587.62 4.24568 -1.79105 0
M  V30 16485 H 1585.94 3.89531 -1.47155 0
M  V30 16486 H 1588.53 5.26176 0.95095 0
M  V30 16487 H 1588.88 3.76329 1.77996 0
M  V30 16488 H 1589.41 3.97687 0.0946613 0
M  V30 16489 H 1586.15 6.30476 -1.79387 0
M  V30 16490 H 1585.67 5.99701 -0.109167 0
M  V30 16491 H 1587.35 6.45122 -0.492547 0
M  V30 16492 N 1587.48 0.171848 1.5666 0
M  V30 16493 C 1588.73 -0.473061 1.96074 0
M  V30 16494 C 1589.04 -1.64353 1.06054 0
M  V30 16495 O 1590.25 -2.35471 1.35151 0
M  V30 16496 C 1588.7 -0.892995 3.48645 0
M  V30 16497 C 1588.31 0.251902 4.47291 0
M  V30 16498 C 1590.06 -1.50629 3.96877 0
M  V30 16499 C 1587.96 -0.187691 5.91102 0
M  V30 16500 H 1586.89 -0.180503 0.732075 0
M  V30 16501 H 1589.54 0.260164 1.81646 0
M  V30 16502 H 1587.93 -1.68221 3.58494 0
M  V30 16503 H 1589.1 1.02923 4.49159 0
M  V30 16504 H 1587.41 0.775193 4.09121 0
M  V30 16505 H 1590.01 -1.84724 5.01778 0
M  V30 16506 H 1590.35 -2.4044 3.39844 0
M  V30 16507 H 1590.89 -0.781502 3.90048 0
M  V30 16508 H 1587.63 0.675653 6.52009 0
M  V30 16509 H 1587.15 -0.93037 5.9254 0
M  V30 16510 H 1588.83 -0.631385 6.43912 0
M  V30 16511 N 1588.96 -1.5727 -0.101874 0
M  V30 16512 C 1590.18 -1.90319 -0.824215 0
M  V30 16513 C 1590.61 -0.765469 -1.7182 0
M  V30 16514 O 1589.97 0.283275 -1.79073 0
M  V30 16515 C 1590.01 -3.22201 -1.61922 0
M  V30 16516 O 1589.12 -3.09313 -2.72762 0
M  V30 16517 H 1588.46 -0.624042 -0.226864 0
M  V30 16518 H 1590.99 -2.04447 -0.0791314 0
M  V30 16519 H 1591 -3.55343 -2.00487 0
M  V30 16520 H 1589.67 -4.04596 -0.963078 0
M  V30 16521 H 1588.25 -2.87672 -2.37274 0
M  V30 16522 N 1590.44 0.372521 -1.53134 0
M  V30 16523 C 1591.66 1.14116 -1.73183 0
M  V30 16524 C 1592.09 1.82475 -0.456553 0
M  V30 16525 O 1591.44 1.71468 0.588919 0
M  V30 16526 C 1591.49 2.15241 -2.89316 0
M  V30 16527 O 1590.6 3.22178 -2.57439 0
M  V30 16528 H 1589.94 0.331442 -0.575362 0
M  V30 16529 H 1592.47 0.431769 -1.99992 0
M  V30 16530 H 1592.48 2.58961 -3.15283 0
M  V30 16531 H 1591.15 1.64877 -3.81822 0
M  V30 16532 H 1589.73 2.83481 -2.42267 0
M  V30 16533 N 1591.91 1.44376 0.631925 0
M  V30 16534 C 1592.84 1.54005 1.75512 0
M  V30 16535 C 1593.82 0.393126 1.65495 0
M  V30 16536 O 1595.01 0.613143 1.84267 0
M  V30 16537 C 1592.14 1.48313 3.14039 0
M  V30 16538 C 1591.09 2.61474 3.38844 0
M  V30 16539 C 1590.42 2.40834 4.77392 0
M  V30 16540 C 1591.72 4.03627 3.31485 0
M  V30 16541 H 1593.41 2.48019 1.6771 0
M  V30 16542 H 1590.96 1.19368 0.80543 0
M  V30 16543 H 1592.91 1.5365 3.9239 0
M  V30 16544 H 1591.64 0.508152 3.22623 0
M  V30 16545 H 1590.3 2.55525 2.62874 0
M  V30 16546 H 1589.94 1.4153 4.82678 0
M  V30 16547 H 1589.64 3.16703 4.94947 0
M  V30 16548 H 1591.17 2.47988 5.57974 0
M  V30 16549 H 1592.58 4.1095 3.99741 0
M  V30 16550 H 1590.98 4.79694 3.60574 0
M  V30 16551 H 1592.05 4.27255 2.29307 0
M  V30 16552 N 1593.39 -0.872258 1.31261 0
M  V30 16553 C 1594.64 -1.62752 1.20994 0
M  V30 16554 C 1594.97 -1.9281 -0.231942 0
M  V30 16555 O 1594.25 -1.55808 -1.16423 0
M  V30 16556 C 1594.53 -2.95921 2.0519 0
M  V30 16557 C 1594.38 -2.72756 3.57665 0
M  V30 16558 C 1595.7 -3.96996 1.89953 0
M  V30 16559 H 1592.82 -0.590581 0.440889 0
M  V30 16560 H 1595.46 -1.00848 1.61027 0
M  V30 16561 H 1593.61 -3.48756 1.71177 0
M  V30 16562 H 1595.28 -2.26611 4.01803 0
M  V30 16563 H 1593.53 -2.07029 3.81211 0
M  V30 16564 H 1594.2 -3.67502 4.11882 0
M  V30 16565 H 1596.67 -3.53363 2.19713 0
M  V30 16566 H 1595.55 -4.88063 2.51169 0
M  V30 16567 H 1595.81 -4.33611 0.862191 0
M  V30 16568 N 1594.87 -1.14184 -1.08627 0
M  V30 16569 C 1596.12 -0.903271 -1.80344 0
M  V30 16570 C 1596.43 0.571801 -1.87056 0
M  V30 16571 O 1597.64 0.92756 -2.55164 0
M  V30 16572 C 1596.09 -1.56653 -3.24018 0
M  V30 16573 C 1595.7 -3.07771 -3.25548 0
M  V30 16574 C 1597.45 -1.40899 -4.00434 0
M  V30 16575 C 1595.35 -3.66943 -4.63796 0
M  V30 16576 H 1594.28 -0.334288 -0.675846 0
M  V30 16577 H 1596.93 -1.3705 -1.22023 0
M  V30 16578 H 1595.32 -1.02698 -3.82452 0
M  V30 16579 H 1596.49 -3.68375 -2.76834 0
M  V30 16580 H 1594.8 -3.23136 -2.62625 0
M  V30 16581 H 1597.4 -1.82511 -5.02587 0
M  V30 16582 H 1597.74 -0.354822 -4.14785 0
M  V30 16583 H 1598.28 -1.91879 -3.48464 0
M  V30 16584 H 1595.02 -4.72203 -4.54648 0
M  V30 16585 H 1594.54 -3.11119 -5.12801 0
M  V30 16586 H 1596.22 -3.67103 -5.32771 0
M  V30 16587 N 1596.35 1.26749 -0.936613 0
M  V30 16588 C 1597.6 1.93255 -0.577524 0
M  V30 16589 C 1597.91 1.74337 0.886905 0
M  V30 16590 O 1599.12 2.3526 1.35517 0
M  V30 16591 C 1597.57 3.4624 -0.982119 0
M  V30 16592 C 1597.18 3.739 -2.46784 0
M  V30 16593 C 1598.92 4.18777 -0.694706 0
M  V30 16594 C 1596.83 5.20303 -2.81138 0
M  V30 16595 H 1595.76 0.723502 -0.212276 0
M  V30 16596 H 1598.41 1.43901 -1.13863 0
M  V30 16597 H 1596.79 3.94454 -0.349577 0
M  V30 16598 H 1597.97 3.3641 -3.14905 0
M  V30 16599 H 1596.28 3.14587 -2.72808 0
M  V30 16600 H 1598.88 5.2659 -0.927756 0
M  V30 16601 H 1599.22 4.14667 0.368392 0
M  V30 16602 H 1599.76 3.76414 -1.28676 0
M  V30 16603 H 1596.5 5.29511 -3.86392 0
M  V30 16604 H 1596.02 5.58907 -2.17675 0
M  V30 16605 H 1597.69 5.88265 -2.69358 0
M  V30 16606 N 1597.83 0.703118 1.41046 0
M  V30 16607 C 1599.05 0.246552 2.05426 0
M  V30 16608 C 1599.47 -1.10704 1.52938 0
M  V30 16609 O 1598.83 -1.69329 0.680733 0
M  V30 16610 C 1598.88 0.203953 3.60924 0
M  V30 16611 O 1598.6 1.50408 4.11472 0
M  V30 16612 C 1600.1 -0.272686 4.42461 0
M  V30 16613 H 1597.32 0.113157 0.66139 0
M  V30 16614 H 1599.86 0.957823 1.80682 0
M  V30 16615 H 1598.02 -0.458194 3.84681 0
M  V30 16616 H 1598.43 1.39622 5.05575 0
M  V30 16617 H 1599.91 -0.251357 5.51427 0
M  V30 16618 H 1600.38 -1.31282 4.1912 0
M  V30 16619 H 1600.99 0.358733 4.23784 0
M  V30 16620 N 1599.3 -1.51086 0.448402 0
M  V30 16621 C 1600.72 -1.59278 0.101286 0
M  V30 16622 C 1600.92 -1.45847 -1.39036 0
M  V30 16623 O 1599.98 -1.30534 -2.16142 0
M  V30 16624 C 1601.29 -2.93999 0.631264 0
M  V30 16625 C 1602.84 -3.07337 0.59268 0
M  V30 16626 C 1603.31 -4.44599 1.09982 0
M  V30 16627 N 1604.8 -4.50949 1.05827 0
M  V30 16628 C 1605.54 -5.55503 1.42142 0
M  V30 16629 N 1605.03 -6.67422 1.85796 0
M  V30 16630 N 1606.83 -5.45922 1.33888 0
M  V30 16631 H 1598.98 -1.58062 1.41881 0
M  V30 16632 H 1601.24 -0.745702 0.585349 0
M  V30 16633 H 1600.95 -3.09233 1.67534 0
M  V30 16634 H 1600.82 -3.77149 0.0622533 0
M  V30 16635 H 1603.21 -2.91764 -0.442437 0
M  V30 16636 H 1603.29 -2.26 1.19823 0
M  V30 16637 H 1602.93 -4.60919 2.13345 0
M  V30 16638 H 1602.86 -5.24492 0.470703 0
M  V30 16639 H 1605.35 -3.70627 0.737822 0
M  V30 16640 H 1605.67 -7.43234 2.11714 0
M  V30 16641 H 1604.01 -6.68601 1.89731 0
M  V30 16642 H 1607.2 -4.57372 0.996415 0
M  V30 16643 H 1607.38 -6.2729 1.62517 0
M  V30 16644 N 1600.78 -0.180154 -1.56567 0
M  V30 16645 C 1601.73 0.763484 -2.19713 0
M  V30 16646 C 1602.72 1.23095 -1.16378 0
M  V30 16647 O 1603.93 1.19558 -1.34558 0
M  V30 16648 H 1600.31 0.264515 -0.703943 0
M  V30 16649 H 1602.28 0.207039 -2.97681 0
M  V30 16650 C 1601.03 1.97884 -2.85897 0
M  V30 16651 H 1600.35 1.62818 -3.65144 0
M  V30 16652 H 1601.79 2.61779 -3.33538 0
M  V30 16653 C 1600.25 2.80811 -1.86136 0
M  V30 16654 O 1600.78 3.78253 -1.35232 0
M  V30 16655 N 1598.98 2.46003 -1.54697 0
M  V30 16656 H 1598.53 1.66823 -1.96285 0
M  V30 16657 H 1598.49 3.01774 -0.88202 0
M  V30 16658 N 1602.26 1.57322 0.0935319 0
M  V30 16659 C 1603.49 1.90099 0.80907 0
M  V30 16660 C 1603.9 0.772198 1.72724 0
M  V30 16661 O 1603.24 -0.26468 1.81783 0
M  V30 16662 C 1603.3 3.18144 1.67405 0
M  V30 16663 C 1602.97 4.47488 0.927539 0
M  V30 16664 C 1603.96 5.19266 0.256635 0
M  V30 16665 C 1601.65 4.9415 0.901156 0
M  V30 16666 C 1603.64 6.35943 -0.430665 0
M  V30 16667 C 1601.33 6.10739 0.21007 0
M  V30 16668 C 1602.33 6.81485 -0.454661 0
M  V30 16669 O 1602.02 7.95852 -1.13466 0
M  V30 16670 H 1601.75 0.633287 0.236481 0
M  V30 16671 H 1604.3 2.05264 0.0747132 0
M  V30 16672 H 1602.53 2.99129 2.45068 0
M  V30 16673 H 1604.22 3.3674 2.2663 0
M  V30 16674 H 1604.99 4.84256 0.268468 0
M  V30 16675 H 1600.87 4.38972 1.408 0
M  V30 16676 H 1604.41 6.911 -0.950082 0
M  V30 16677 H 1600.31 6.45202 0.196089 0
M  V30 16678 H 1601.08 8.11844 -1.04172 0
M  V30 16679 N 1603.74 -0.364395 1.53329 0
M  V30 16680 C 1604.65 -1.47027 1.82812 0
M  V30 16681 C 1605.66 -1.58559 0.716598 0
M  V30 16682 O 1606.84 -1.7443 1.00678 0
M  V30 16683 C 1603.91 -2.82278 2.01295 0
M  V30 16684 C 1602.97 -2.80264 3.25193 0
M  V30 16685 C 1602.2 -4.09065 3.42785 0
M  V30 16686 O 1602.42 -5.0529 2.64648 0
M  V30 16687 O 1601.36 -4.14804 4.36144 0
M  V30 16688 H 1605.18 -1.25035 2.76767 0
M  V30 16689 H 1602.77 -0.554608 1.38724 0
M  V30 16690 H 1604.65 -3.62416 2.15017 0
M  V30 16691 H 1603.32 -3.04244 1.10531 0
M  V30 16692 H 1602.23 -1.9882 3.16893 0
M  V30 16693 H 1603.56 -2.63252 4.15884 0
M  V30 16694 N 1605.22 -1.44709 -0.62426 0
M  V30 16695 C 1606.49 -1.38328 -1.38292 0
M  V30 16696 C 1606.87 -0.0454388 -2.11051 0
M  V30 16697 O 1606.22 0.972183 -2.06787 0
M  V30 16698 C 1606.43 -2.58602 -2.34364 0
M  V30 16699 C 1607.78 -3.02966 -2.97484 0
M  V30 16700 O 1608.8 -2.58856 -2.44688 0
M  V30 16701 O 1607.66 -3.79466 -3.93278 0
M  V30 16702 H 1604.76 -0.54812 -0.619269 0
M  V30 16703 H 1607.3 -1.5681 -0.648741 0
M  V30 16704 H 1606.07 -3.47573 -1.79746 0
M  V30 16705 H 1605.7 -2.42368 -3.15188 0
M  V30 16706 N 1606.69 0.865285 -1.31722 0
M  V30 16707 C 1607.92 1.65137 -1.24649 0
M  V30 16708 C 1608.34 1.87868 0.187391 0
M  V30 16709 O 1607.69 1.44015 1.12098 0
M  V30 16710 C 1607.75 3.0167 -1.99193 0
M  V30 16711 O 1607.47 2.79951 -3.36985 0
M  V30 16712 C 1608.97 3.96115 -1.99017 0
M  V30 16713 H 1606.19 0.514683 -0.430514 0
M  V30 16714 H 1608.73 1.07971 -1.73674 0
M  V30 16715 H 1606.89 3.55511 -1.53918 0
M  V30 16716 H 1607.3 3.66706 -3.75002 0
M  V30 16717 H 1608.77 4.89217 -2.55677 0
M  V30 16718 H 1609.25 4.28268 -0.973815 0
M  V30 16719 H 1609.86 3.4821 -2.44192 0
M  V30 16720 N 1608.17 1.14759 1.0802 0
M  V30 16721 C 1609.4 0.941887 1.84218 0
M  V30 16722 C 1609.82 -0.509702 1.8179 0
M  V30 16723 O 1609.17 -1.35331 1.22441 0
M  V30 16724 C 1609.22 1.43978 3.31591 0
M  V30 16725 O 1608.94 2.83449 3.34048 0
M  V30 16726 C 1610.45 1.27459 4.24581 0
M  V30 16727 H 1607.67 0.334942 0.581425 0
M  V30 16728 H 1610.21 1.52367 1.36399 0
M  V30 16729 H 1608.36 0.900674 3.76785 0
M  V30 16730 H 1608.78 3.05878 4.26073 0
M  V30 16731 H 1610.25 1.67151 5.26084 0
M  V30 16732 H 1610.73 0.217925 4.38659 0
M  V30 16733 H 1611.34 1.80243 3.85217 0
M  V30 16734 N 1609.65 -1.26251 0.943322 0
M  V30 16735 C 1610.88 -1.97739 0.608852 0
M  V30 16736 C 1611.29 -1.70225 -0.81663 0
M  V30 16737 O 1610.65 -0.97172 -1.54479 0
M  V30 16738 C 1610.7 -3.51505 0.844172 0
M  V30 16739 O 1610.42 -3.78063 2.21359 0
M  V30 16740 C 1611.92 -4.40233 0.52054 0
M  V30 16741 H 1609.14 -0.630619 0.229262 0
M  V30 16742 H 1611.69 -1.6071 1.26461 0
M  V30 16743 H 1609.84 -3.86687 0.23499 0
M  V30 16744 H 1610.26 -4.72582 2.27523 0
M  V30 16745 H 1611.73 -5.47074 0.735802 0
M  V30 16746 H 1612.21 -4.35811 -0.544541 0
M  V30 16747 H 1612.81 -4.10599 1.10854 0
M  V30 16748 N 1611.13 -0.710588 -1.40671 0
M  V30 16749 C 1612.38 -0.248316 -2.01274 0
M  V30 16750 C 1612.71 1.1539 -1.56201 0
M  V30 16751 O 1611.98 1.78182 -0.779838 0
M  V30 16752 C 1612.27 -0.322762 -3.58651 0
M  V30 16753 C 1612.12 -1.763 -4.1381 0
M  V30 16754 C 1613.44 0.308908 -4.39015 0
M  V30 16755 H 1610.56 -0.0917037 -0.731272 0
M  V30 16756 H 1613.2 -0.902145 -1.67216 0
M  V30 16757 H 1611.35 0.233923 -3.87795 0
M  V30 16758 H 1613.02 -2.37468 -3.95483 0
M  V30 16759 H 1611.26 -2.29233 -3.68286 0
M  V30 16760 H 1611.94 -1.76652 -5.22971 0
M  V30 16761 H 1614.41 -0.165363 -4.15771 0
M  V30 16762 H 1613.29 0.226347 -5.48433 0
M  V30 16763 H 1613.55 1.39174 -4.19622 0
M  V30 16764 N 1612.61 1.50847 -0.456408 0
M  V30 16765 C 1613.54 2.31077 0.335523 0
M  V30 16766 C 1614.52 1.37326 1.00377 0
M  V30 16767 O 1615.7 1.66247 1.00376 0
M  V30 16768 C 1612.83 3.16662 1.42627 0
M  V30 16769 C 1611.79 4.18846 0.88045 0
M  V30 16770 C 1611.11 4.93074 2.06838 0
M  V30 16771 C 1612.41 5.22208 -0.0982288 0
M  V30 16772 H 1614.11 2.97531 -0.334056 0
M  V30 16773 H 1611.65 1.43085 -0.162099 0
M  V30 16774 H 1613.61 3.71578 1.98765 0
M  V30 16775 H 1612.33 2.48066 2.12441 0
M  V30 16776 H 1610.99 3.65009 0.341147 0
M  V30 16777 H 1610.64 4.20963 2.75316 0
M  V30 16778 H 1610.34 5.62184 1.70947 0
M  V30 16779 H 1611.86 5.5082 2.63494 0
M  V30 16780 H 1613.28 5.72082 0.373481 0
M  V30 16781 H 1611.67 5.98954 -0.370674 0
M  V30 16782 H 1612.74 4.73859 -1.02887 0
M  V30 16783 N 1614.09 0.188454 1.56469 0
M  V30 16784 C 1615.05 -0.721282 2.17555 0
M  V30 16785 C 1616.05 -1.14579 1.1282 0
M  V30 16786 O 1617.24 -1.05996 1.38241 0
M  V30 16787 C 1614.37 -1.9839 2.77226 0
M  V30 16788 H 1615.56 -0.189218 2.99302 0
M  V30 16789 H 1613.12 -0.0611533 1.5618 0
M  V30 16790 H 1613.85 -2.55864 1.99259 0
M  V30 16791 H 1613.64 -1.68831 3.53891 0
M  V30 16792 H 1615.13 -2.63277 3.24153 0
M  V30 16793 N 1615.56 -1.5737 -0.0851874 0
M  V30 16794 C 1616.79 -1.90802 -0.800137 0
M  V30 16795 C 1617.21 -0.783132 -1.71792 0
M  V30 16796 O 1616.56 0.244331 -1.80857 0
M  V30 16797 C 1616.61 -3.2391 -1.60513 0
M  V30 16798 O 1616.34 -4.32072 -0.724253 0
M  V30 16799 C 1617.84 -3.7127 -2.42226 0
M  V30 16800 H 1615.06 -0.630988 -0.228242 0
M  V30 16801 H 1617.6 -2.04414 -0.0594587 0
M  V30 16802 H 1615.76 -3.11867 -2.29822 0
M  V30 16803 H 1616.17 -5.08571 -1.28279 0
M  V30 16804 H 1617.64 -4.67074 -2.94187 0
M  V30 16805 H 1618.12 -2.99606 -3.21143 0
M  V30 16806 H 1618.73 -3.86214 -1.78099 0
M  V30 16807 N 1617.04 0.356258 -1.53521 0
M  V30 16808 C 1617.97 1.44271 -1.83598 0
M  V30 16809 C 1618.95 1.5547 -0.690141 0
M  V30 16810 O 1620.14 1.69886 -0.940868 0
M  V30 16811 C 1617.27 2.8149 -2.03422 0
M  V30 16812 C 1616.22 2.85108 -3.19213 0
M  V30 16813 C 1615.55 4.25091 -3.24348 0
M  V30 16814 C 1616.85 2.51788 -4.57602 0
M  V30 16815 H 1618.54 1.1935 -2.74583 0
M  V30 16816 H 1616.09 0.572707 -1.32121 0
M  V30 16817 H 1618.04 3.57531 -2.23046 0
M  V30 16818 H 1616.76 3.07819 -1.09155 0
M  V30 16819 H 1615.42 2.1152 -2.99424 0
M  V30 16820 H 1615.07 4.4851 -2.277 0
M  V30 16821 H 1614.77 4.28426 -4.0215 0
M  V30 16822 H 1616.3 5.02992 -3.46167 0
M  V30 16823 H 1617.71 3.17542 -4.77326 0
M  V30 16824 H 1616.11 2.66426 -5.37715 0
M  V30 16825 H 1617.18 1.4701 -4.62078 0
M  V30 16826 N 1618.52 1.45038 0.616577 0
M  V30 16827 C 1619.48 1.52647 1.70973 0
M  V30 16828 C 1620.48 0.406902 1.55567 0
M  V30 16829 O 1621.67 0.670062 1.60797 0
M  V30 16830 C 1618.8 1.41438 3.10174 0
M  V30 16831 H 1620 2.50036 1.65596 0
M  V30 16832 H 1617.55 1.32346 0.831524 0
M  V30 16833 H 1618.29 0.451991 3.21135 0
M  V30 16834 H 1618.07 2.22634 3.22764 0
M  V30 16835 H 1619.56 1.49776 3.89817 0
M  V30 16836 N 1620 -0.858287 1.32179 0
M  V30 16837 C 1620.93 -1.98219 1.23415 0
M  V30 16838 C 1621.91 -1.69685 0.118779 0
M  V30 16839 O 1623.09 -1.91785 0.305342 0
M  V30 16840 C 1620.22 -3.33977 0.952725 0
M  V30 16841 C 1619.18 -3.76853 2.02894 0
M  V30 16842 C 1618.5 -5.10201 1.59999 0
M  V30 16843 C 1619.8 -3.92707 3.44352 0
M  V30 16844 H 1621.5 -2.05809 2.17446 0
M  V30 16845 H 1619.04 -0.988817 1.04682 0
M  V30 16846 H 1621 -4.12152 0.87798 0
M  V30 16847 H 1619.72 -3.26592 -0.023234 0
M  V30 16848 H 1618.38 -3.00926 2.09378 0
M  V30 16849 H 1618.03 -4.99268 0.61157 0
M  V30 16850 H 1617.73 -5.39859 2.32004 0
M  V30 16851 H 1619.25 -5.90873 1.53954 0
M  V30 16852 H 1620.67 -4.61246 3.40477 0
M  V30 16853 H 1619.06 -4.33779 4.14675 0
M  V30 16854 H 1620.13 -2.95731 3.8428 0
M  V30 16855 N 1621.48 -1.1533 -1.07409 0
M  V30 16856 C 1622.41 -0.872476 -2.16587 0
M  V30 16857 C 1623.39 0.176683 -1.6918 0
M  V30 16858 O 1624.57 0.0311826 -1.94175 0
M  V30 16859 C 1621.7 -0.360342 -3.45426 0
M  V30 16860 C 1620.66 -1.34611 -4.06281 0
M  V30 16861 C 1619.98 -0.692848 -5.30192 0
M  V30 16862 C 1621.28 -2.71191 -4.46378 0
M  V30 16863 H 1622.98 -1.78546 -2.40336 0
M  V30 16864 H 1620.52 -0.859895 -1.15507 0
M  V30 16865 H 1622.47 -0.151429 -4.21128 0
M  V30 16866 H 1621.2 0.588109 -3.21261 0
M  V30 16867 H 1619.86 -1.54137 -3.32622 0
M  V30 16868 H 1619.51 0.261732 -5.02319 0
M  V30 16869 H 1619.21 -1.35071 -5.71865 0
M  V30 16870 H 1620.73 -0.493695 -6.08601 0
M  V30 16871 H 1622.14 -2.55513 -5.13212 0
M  V30 16872 H 1620.54 -3.33345 -4.99 0
M  V30 16873 H 1621.61 -3.273 -3.57775 0
M  V30 16874 N 1622.95 1.25748 -0.950004 0
M  V30 16875 C 1624.2 1.92954 -0.601104 0
M  V30 16876 C 1624.52 1.74817 0.863953 0
M  V30 16877 O 1623.79 1.10904 1.61484 0
M  V30 16878 H 1622.37 0.714077 -0.219325 0
M  V30 16879 H 1625.03 1.53009 -1.20724 0
M  V30 16880 H 1624.13 3.00959 -0.826447 0
M  V30 16881 N 1624.43 0.718038 1.40292 0
M  V30 16882 C 1625.67 0.263057 2.027 0
M  V30 16883 C 1626.04 -1.1233 1.55711 0
M  V30 16884 O 1627.24 -1.67541 2.10199 0
M  V30 16885 C 1625.51 0.342773 3.55752 0
M  V30 16886 S 1627.07 -0.0348622 4.38786 0
M  V30 16887 H 1623.88 0.10418 0.703326 0
M  V30 16888 H 1626.49 0.940801 1.71374 0
M  V30 16889 H 1625.19 1.35336 3.87443 0
M  V30 16890 H 1624.72 -0.353367 3.9181 0
M  V30 16891 H 1626.74 -1.25618 4.80036 0
M  V30 16892 N 1625.91 -1.50602 0.464402 0
M  V30 16893 C 1627.19 -1.94992 -0.154146 0
M  V30 16894 C 1627.57 -1.40447 -1.57601 0
M  V30 16895 O 1626.92 -0.602668 -2.20409 0
M  V30 16896 C 1627.13 -3.48844 -0.104296 0
M  V30 16897 C 1628.47 -4.23563 -0.296506 0
M  V30 16898 O 1629.5 -3.55739 -0.181187 0
M  V30 16899 O 1628.36 -5.43937 -0.528668 0
M  V30 16900 H 1625.45 -0.818921 -0.115311 0
M  V30 16901 H 1628 -1.61397 0.524324 0
M  V30 16902 H 1626.77 -3.81075 0.88869 0
M  V30 16903 H 1626.39 -3.88957 -0.824514 0
M  V30 16904 N 1627.39 -0.19675 -1.56367 0
M  V30 16905 C 1628.63 0.442238 -1.97919 0
M  V30 16906 C 1628.97 1.61156 -1.08362 0
M  V30 16907 O 1628.24 1.94024 -0.135969 0
M  V30 16908 C 1628.53 0.90078 -3.48652 0
M  V30 16909 C 1628.38 -0.270471 -4.48986 0
M  V30 16910 C 1629.7 1.7657 -4.03126 0
M  V30 16911 H 1626.82 0.159276 -0.719583 0
M  V30 16912 H 1629.46 -0.288004 -1.87805 0
M  V30 16913 H 1627.61 1.52302 -3.57402 0
M  V30 16914 H 1629.28 -0.908176 -4.52272 0
M  V30 16915 H 1627.52 -0.921973 -4.23889 0
M  V30 16916 H 1628.19 0.0929101 -5.51922 0
M  V30 16917 H 1630.67 1.24091 -3.97166 0
M  V30 16918 H 1629.55 2.0555 -5.0896 0
M  V30 16919 H 1629.81 2.72047 -3.48486 0
M  V30 16920 N 1628.87 1.57413 0.0768405 0
M  V30 16921 C 1630.09 1.91607 0.793833 0
M  V30 16922 C 1630.52 0.792708 1.70581 0
M  V30 16923 O 1629.87 -0.25475 1.79501 0
M  V30 16924 C 1629.92 3.24736 1.56776 0
M  V30 16925 O 1629.03 3.13613 2.67807 0
M  V30 16926 H 1628.37 0.627572 0.216908 0
M  V30 16927 H 1630.9 2.04547 0.0465957 0
M  V30 16928 H 1630.91 3.58488 1.94809 0
M  V30 16929 H 1629.58 4.06077 0.898588 0
M  V30 16930 H 1628.16 2.91411 2.32668 0
M  V30 16931 N 1630.34 -0.348112 1.53707 0
M  V30 16932 C 1631.76 -0.923978 1.62233 0
M  V30 16933 C 1632.11 -1.89702 0.500744 0
M  V30 16934 O 1631.23 -2.1321 -0.370212 0
M  V30 16935 C 1631.83 -1.68261 2.94064 0
M  V30 16936 C 1630.39 -2.20755 3.04867 0
M  V30 16937 C 1629.53 -1.02526 2.5765 0
M  V30 16938 H 1632.48 -0.126381 1.58196 0
M  V30 16939 H 1632.5 -2.54514 2.82848 0
M  V30 16940 H 1632.02 -0.974155 3.75675 0
M  V30 16941 H 1630.12 -2.9479 2.27881 0
M  V30 16942 H 1630.23 -2.47439 4.10257 0
M  V30 16943 H 1628.59 -1.39735 2.12947 0
M  V30 16944 H 1629.38 -0.331521 3.41696 0
M  V30 16945 N 1631.82 -1.45363 -0.608876 0
M  V30 16946 C 1633.07 -1.50525 -1.36799 0
M  V30 16947 C 1633.42 -0.14442 -1.91857 0
M  V30 16948 O 1632.72 0.843502 -1.72034 0
M  V30 16949 C 1632.91 -2.51893 -2.53544 0
M  V30 16950 C 1632.74 -3.97699 -2.09918 0
M  V30 16951 C 1631.51 -4.65675 -1.96151 0
M  V30 16952 C 1633.71 -4.86272 -1.67464 0
M  V30 16953 N 1631.69 -5.96207 -1.46321 0
M  V30 16954 C 1633.06 -6.06423 -1.29041 0
M  V30 16955 C 1635.12 -4.73144 -1.55045 0
M  V30 16956 C 1633.82 -7.149 -0.794378 0
M  V30 16957 C 1635.84 -5.81668 -1.06846 0
M  V30 16958 C 1635.21 -7.00974 -0.693858 0
M  V30 16959 H 1631.31 -0.605762 -0.494546 0
M  V30 16960 H 1633.89 -1.81828 -0.696187 0
M  V30 16961 H 1632.06 -2.22544 -3.18322 0
M  V30 16962 H 1633.79 -2.47211 -3.2042 0
M  V30 16963 H 1630.55 -4.20808 -2.17296 0
M  V30 16964 H 1630.97 -6.65614 -1.23642 0
M  V30 16965 H 1635.61 -3.81321 -1.82632 0
M  V30 16966 H 1633.33 -8.06514 -0.506051 0
M  V30 16967 H 1636.92 -5.73544 -0.976637 0
M  V30 16968 H 1635.8 -7.83519 -0.326629 0
M  V30 16969 N 1633.3 0.851265 -1.32632 0
M  V30 16970 C 1634.23 1.96682 -1.17681 0
M  V30 16971 C 1635.25 1.62422 -0.110926 0
M  V30 16972 O 1636.43 1.74828 -0.360202 0
M  V30 16973 C 1633.53 3.29806 -0.779838 0
M  V30 16974 C 1632.71 3.92284 -1.93473 0
M  V30 16975 C 1631.77 5.03745 -1.52075 0
M  V30 16976 O 1630.79 5.23558 -2.23328 0
M  V30 16977 N 1631.99 5.78988 -0.418695 0
M  V30 16978 H 1634.76 2.10049 -2.13775 0
M  V30 16979 H 1632.32 1.02631 -1.25214 0
M  V30 16980 H 1634.31 4.0178 -0.485236 0
M  V30 16981 H 1632.88 3.1247 0.0900498 0
M  V30 16982 H 1632.1 3.13054 -2.39564 0
M  V30 16983 H 1633.39 4.30762 -2.7078 0
M  V30 16984 H 1632.79 5.65432 0.174269 0
M  V30 16985 H 1631.35 6.51541 -0.183714 0
M  V30 16986 N 1634.78 1.15898 1.06796 0
M  V30 16987 C 1636.02 0.94871 1.7992 0
M  V30 16988 C 1636.38 -0.518297 1.85287 0
M  V30 16989 O 1635.67 -1.37946 1.32972 0
M  V30 16990 C 1635.87 1.50368 3.24229 0
M  V30 16991 C 1635.7 3.02311 3.32923 0
M  V30 16992 C 1634.47 3.70908 3.43155 0
M  V30 16993 C 1636.66 4.00051 3.23209 0
M  V30 16994 N 1634.65 5.10609 3.4081 0
M  V30 16995 C 1636.02 5.26103 3.28048 0
M  V30 16996 C 1638.07 3.91944 3.07058 0
M  V30 16997 C 1636.77 6.44993 3.18397 0
M  V30 16998 C 1638.8 5.10398 2.98743 0
M  V30 16999 C 1638.16 6.35328 3.042 0
M  V30 17000 H 1634.26 0.400877 0.671433 0
M  V30 17001 H 1636.85 1.47202 1.27436 0
M  V30 17002 H 1635.02 1.00693 3.75121 0
M  V30 17003 H 1636.75 1.23166 3.85502 0
M  V30 17004 H 1633.5 3.21521 3.47737 0
M  V30 17005 H 1633.93 5.83589 3.43151 0
M  V30 17006 H 1638.57 2.96216 3.01688 0
M  V30 17007 H 1636.29 7.40948 3.22524 0
M  V30 17008 H 1639.87 5.05891 2.87342 0
M  V30 17009 H 1638.75 7.25448 2.97818 0
M  V30 17010 N 1636.26 -1.25243 0.956659 0
M  V30 17011 C 1637.19 -2.28159 0.496574 0
M  V30 17012 C 1638.17 -1.63814 -0.458132 0
M  V30 17013 O 1639.35 -1.90897 -0.356648 0
M  V30 17014 C 1636.48 -3.46573 -0.22454 0
M  V30 17015 C 1635.44 -4.2311 0.645104 0
M  V30 17016 C 1634.76 -5.343 -0.206867 0
M  V30 17017 C 1636.06 -4.85562 1.92422 0
M  V30 17018 H 1637.76 -2.66895 1.35675 0
M  V30 17019 H 1635.3 -1.28301 0.653827 0
M  V30 17020 H 1637.26 -4.17695 -0.55755 0
M  V30 17021 H 1635.98 -3.06833 -1.11898 0
M  V30 17022 H 1634.64 -3.53774 0.961228 0
M  V30 17023 H 1634.29 -4.908 -1.10112 0
M  V30 17024 H 1633.99 -5.86423 0.371714 0
M  V30 17025 H 1635.51 -6.08253 -0.534798 0
M  V30 17026 H 1636.92 -5.48817 1.65749 0
M  V30 17027 H 1635.32 -5.47871 2.44862 0
M  V30 17028 H 1636.39 -4.07634 2.62607 0
M  V30 17029 N 1637.73 -0.725468 -1.3991 0
M  V30 17030 C 1638.68 -0.0792833 -2.30664 0
M  V30 17031 C 1639.65 0.73984 -1.48713 0
M  V30 17032 O 1640.84 0.701762 -1.77426 0
M  V30 17033 C 1637.98 0.829164 -3.34991 0
M  V30 17034 C 1637.09 -0.00154779 -4.32 0
M  V30 17035 C 1636.22 0.907291 -5.23394 0
M  V30 17036 C 1635.26 0.0712573 -6.12059 0
M  V30 17037 N 1634.4 0.935508 -6.9584 0
M  V30 17038 H 1639.24 -0.858869 -2.85355 0
M  V30 17039 H 1636.78 -0.435214 -1.40514 0
M  V30 17040 H 1638.74 1.37021 -3.94057 0
M  V30 17041 H 1637.37 1.57483 -2.81778 0
M  V30 17042 H 1636.42 -0.659903 -3.74632 0
M  V30 17043 H 1637.73 -0.648387 -4.94568 0
M  V30 17044 H 1636.88 1.51652 -5.87441 0
M  V30 17045 H 1635.62 1.58793 -4.61125 0
M  V30 17046 H 1634.63 -0.550844 -5.47034 0
M  V30 17047 H 1635.85 -0.606025 -6.76391 0
M  V30 17048 H 1633.8 1.60162 -6.36148 0
M  V30 17049 H 1633.72 0.344932 -7.55213 0
M  V30 17050 H 1634.98 1.53061 -7.64325 0
M  V30 17051 N 1639.21 1.50354 -0.472382 0
M  V30 17052 C 1640.16 2.28555 0.321118 0
M  V30 17053 C 1641.13 1.33665 0.98605 0
M  V30 17054 O 1642.31 1.62603 0.998239 0
M  V30 17055 C 1639.45 3.15586 1.39641 0
M  V30 17056 C 1638.57 4.25508 0.746129 0
M  V30 17057 C 1637.7 4.99794 1.79943 0
M  V30 17058 C 1636.74 6.01589 1.12946 0
M  V30 17059 N 1635.88 6.69149 2.12567 0
M  V30 17060 H 1640.72 2.95913 -0.352051 0
M  V30 17061 H 1638.26 1.45926 -0.185461 0
M  V30 17062 H 1640.21 3.64397 2.03152 0
M  V30 17063 H 1638.84 2.50271 2.03873 0
M  V30 17064 H 1637.9 3.804 -0.00157718 0
M  V30 17065 H 1639.21 4.98326 0.217335 0
M  V30 17066 H 1638.36 5.5233 2.51031 0
M  V30 17067 H 1637.1 4.26684 2.36203 0
M  V30 17068 H 1636.11 5.48312 0.404207 0
M  V30 17069 H 1637.33 6.76672 0.573735 0
M  V30 17070 H 1635.28 5.9883 2.67841 0
M  V30 17071 H 1635.19 7.37847 1.64676 0
M  V30 17072 H 1636.46 7.26301 2.83031 0
M  V30 17073 N 1640.69 0.205039 1.56261 0
M  V30 17074 C 1641.64 -0.711828 2.19549 0
M  V30 17075 C 1642.61 -1.2025 1.14582 0
M  V30 17076 O 1643.79 -1.26459 1.42873 0
M  V30 17077 C 1640.93 -1.92152 2.86656 0
M  V30 17078 C 1640.05 -1.47129 4.06174 0
M  V30 17079 C 1639.18 -2.63726 4.6111 0
M  V30 17080 C 1638.22 -2.15357 5.72964 0
M  V30 17081 N 1637.36 -3.25167 6.22263 0
M  V30 17082 H 1642.2 -0.165392 2.97541 0
M  V30 17083 H 1639.73 -0.0698889 1.46934 0
M  V30 17084 H 1641.69 -2.63152 3.23739 0
M  V30 17085 H 1640.32 -2.4411 2.11211 0
M  V30 17086 H 1639.37 -0.656797 3.74687 0
M  V30 17087 H 1640.69 -1.0765 4.87045 0
M  V30 17088 H 1639.84 -3.42833 5.0055 0
M  V30 17089 H 1638.58 -3.06484 3.79367 0
M  V30 17090 H 1637.58 -1.34706 5.33043 0
M  V30 17091 H 1638.81 -1.73618 6.56532 0
M  V30 17092 H 1636.76 -3.67438 5.43439 0
M  V30 17093 H 1636.67 -2.89888 6.98213 0
M  V30 17094 H 1637.94 -4.0446 6.66358 0
M  V30 17095 N 1642.17 -1.57451 -0.0684915 0
M  V30 17096 C 1643.13 -2.0293 -1.06545 0
M  V30 17097 C 1644.13 -0.926861 -1.314 0
M  V30 17098 O 1645.32 -1.19164 -1.27065 0
M  V30 17099 C 1642.45 -2.41276 -2.4083 0
M  V30 17100 H 1643.65 -2.92242 -0.673401 0
M  V30 17101 H 1641.2 -1.53107 -0.314307 0
M  V30 17102 H 1641.94 -1.55 -2.8486 0
M  V30 17103 H 1641.72 -3.21727 -2.2413 0
M  V30 17104 H 1643.21 -2.77026 -3.12484 0
M  V30 17105 N 1643.65 0.339955 -1.5389 0
M  V30 17106 C 1644.89 1.0882 -1.73025 0
M  V30 17107 C 1645.25 1.85773 -0.485017 0
M  V30 17108 O 1646.45 2.63041 -0.55345 0
M  V30 17109 C 1644.72 2.00153 -2.96097 0
M  V30 17110 S 1646.28 2.82151 -3.3606 0
M  V30 17111 H 1643.1 0.367632 -0.608578 0
M  V30 17112 H 1645.7 0.366178 -1.9204 0
M  V30 17113 H 1644.41 1.42426 -3.84893 0
M  V30 17114 H 1643.94 2.76787 -2.79558 0
M  V30 17115 H 1645.95 4.0258 -2.90076 0
M  V30 17116 N 1645.13 1.45684 0.601159 0
M  V30 17117 C 1646.4 1.4051 1.36074 0
M  V30 17118 C 1646.78 0.0790095 2.10952 0
M  V30 17119 O 1646.13 -0.939162 2.08307 0
M  V30 17120 C 1646.34 2.62297 2.3022 0
M  V30 17121 C 1647.69 3.0766 2.92627 0
M  V30 17122 O 1648.71 2.62716 2.40539 0
M  V30 17123 O 1647.57 3.85675 3.87191 0
M  V30 17124 H 1644.67 0.557902 0.61047 0
M  V30 17125 H 1647.21 1.57822 0.623712 0
M  V30 17126 H 1645.98 3.50389 1.74194 0
M  V30 17127 H 1645.61 2.47351 3.11293 0
M  V30 17128 N 1646.6 -0.84422 1.33082 0
M  V30 17129 C 1647.83 -1.63133 1.27261 0
M  V30 17130 C 1648.25 -1.88142 -0.157479 0
M  V30 17131 O 1647.6 -1.4578 -1.09793 0
M  V30 17132 C 1647.65 -2.98462 2.03967 0
M  V30 17133 O 1647.38 -2.74555 3.41396 0
M  V30 17134 C 1648.88 -3.92899 2.05293 0
M  V30 17135 H 1646.1 -0.507769 0.438647 0
M  V30 17136 H 1648.64 -1.05194 1.75369 0
M  V30 17137 H 1646.8 -3.53017 1.59554 0
M  V30 17138 H 1647.21 -3.60694 3.80789 0
M  V30 17139 H 1648.68 -4.85088 2.63427 0
M  V30 17140 H 1649.16 -4.26665 1.04183 0
M  V30 17141 H 1649.77 -3.44281 2.49701 0
M  V30 17142 N 1648.08 -1.16463 -1.0618 0
M  V30 17143 C 1649.01 -0.895399 -2.1565 0
M  V30 17144 C 1649.99 0.158729 -1.69358 0
M  V30 17145 O 1651.18 0.010586 -1.94197 0
M  V30 17146 C 1648.31 -0.396959 -3.45024 0
M  V30 17147 C 1647.26 -1.38913 -4.0483 0
M  V30 17148 C 1646.59 -0.749043 -5.29427 0
M  V30 17149 C 1647.89 -2.7591 -4.43476 0
M  V30 17150 H 1649.58 -1.81085 -2.38429 0
M  V30 17151 H 1647.13 -0.872098 -1.14588 0
M  V30 17152 H 1649.08 -0.196086 -4.20944 0
M  V30 17153 H 1647.8 0.554002 -3.21867 0
M  V30 17154 H 1646.46 -1.57657 -3.30968 0
M  V30 17155 H 1646.11 0.208439 -5.02568 0
M  V30 17156 H 1645.81 -1.41128 -5.704 0
M  V30 17157 H 1647.34 -0.558217 -6.08043 0
M  V30 17158 H 1648.75 -2.60942 -5.10473 0
M  V30 17159 H 1647.15 -3.38618 -4.95437 0
M  V30 17160 H 1648.22 -3.31076 -3.54284 0
M  V30 17161 N 1649.56 1.24734 -0.963288 0
M  V30 17162 C 1650.47 2.29268 -0.497316 0
M  V30 17163 C 1651.49 1.68356 0.439572 0
M  V30 17164 O 1652.66 1.98942 0.313697 0
M  V30 17165 C 1649.73 3.46068 0.209261 0
M  V30 17166 C 1648.79 4.22394 -0.766907 0
M  V30 17167 C 1648.02 5.33617 -0.0939542 0
M  V30 17168 O 1648.24 5.59323 1.11864 0
M  V30 17169 O 1647.18 5.96774 -0.78388 0
M  V30 17170 H 1651 2.71235 -1.36622 0
M  V30 17171 H 1648.59 1.30344 -0.730126 0
M  V30 17172 H 1650.47 4.17015 0.606367 0
M  V30 17173 H 1649.15 3.06087 1.0532 0
M  V30 17174 H 1648.05 3.53841 -1.21439 0
M  V30 17175 H 1649.39 4.66181 -1.57912 0
M  V30 17176 N 1651.04 0.732878 1.39523 0
M  V30 17177 C 1652.29 0.276787 1.99792 0
M  V30 17178 C 1652.6 -1.14181 1.58814 0
M  V30 17179 O 1653.81 -1.69731 2.11905 0
M  V30 17180 C 1652.26 0.443924 3.57152 0
M  V30 17181 C 1651.87 1.87027 4.07093 0
M  V30 17182 C 1653.61 0.0495022 4.24471 0
M  V30 17183 C 1651.52 1.98708 5.57018 0
M  V30 17184 H 1650.45 0.0997337 0.747375 0
M  V30 17185 H 1653.1 0.906454 1.59548 0
M  V30 17186 H 1651.48 -0.254605 3.95181 0
M  V30 17187 H 1652.66 2.60059 3.80403 0
M  V30 17188 H 1650.97 2.21772 3.52429 0
M  V30 17189 H 1653.57 0.115815 5.34575 0
M  V30 17190 H 1653.91 -0.994967 4.04235 0
M  V30 17191 H 1654.45 0.69911 3.91609 0
M  V30 17192 H 1651.18 3.01336 5.82131 0
M  V30 17193 H 1650.7 1.30111 5.85518 0
M  V30 17194 H 1652.38 1.76725 6.22396 0
M  V30 17195 N 1652.52 -1.50101 0.480349 0
M  V30 17196 C 1653.93 -1.8668 0.0274773 0
M  V30 17197 C 1654.28 -1.39442 -1.38023 0
M  V30 17198 O 1653.4 -0.763363 -2.02489 0
M  V30 17199 C 1654 -3.38773 0.043087 0
M  V30 17200 C 1652.56 -3.74728 -0.354352 0
M  V30 17201 C 1651.7 -2.7403 0.424583 0
M  V30 17202 H 1654.65 -1.42713 0.694172 0
M  V30 17203 H 1654.68 -3.72894 -0.756989 0
M  V30 17204 H 1654.19 -3.73123 1.06775 0
M  V30 17205 H 1652.29 -3.45981 -1.38303 0
M  V30 17206 H 1652.4 -4.79075 -0.0492608 0
M  V30 17207 H 1650.77 -2.54403 -0.122927 0
M  V30 17208 H 1651.55 -3.11225 1.44894 0
M  V30 17209 N 1653.99 -0.213323 -1.5615 0
M  V30 17210 C 1655.22 0.425071 -2.0218 0
M  V30 17211 C 1655.63 1.54471 -1.09249 0
M  V30 17212 O 1654.97 1.83465 -0.0928585 0
M  V30 17213 C 1655.04 1.02533 -3.44568 0
M  V30 17214 C 1654.7 0.0421613 -4.56981 0
M  V30 17215 C 1655.7 -0.755199 -5.14386 0
M  V30 17216 C 1653.38 -0.0742081 -5.02245 0
M  V30 17217 C 1655.38 -1.65571 -6.1552 0
M  V30 17218 C 1653.06 -0.978264 -6.03219 0
M  V30 17219 C 1654.06 -1.76757 -6.59732 0
M  V30 17220 O 1653.75 -2.65644 -7.58741 0
M  V30 17221 H 1653.48 0.109184 -0.667124 0
M  V30 17222 H 1656.04 -0.324754 -2.02816 0
M  V30 17223 H 1654.27 1.82409 -3.40975 0
M  V30 17224 H 1655.95 1.57027 -3.74296 0
M  V30 17225 H 1656.72 -0.6757 -4.8027 0
M  V30 17226 H 1652.6 0.530016 -4.57943 0
M  V30 17227 H 1656.14 -2.27223 -6.59557 0
M  V30 17228 H 1652.04 -1.05881 -6.36757 0
M  V30 17229 H 1652.81 -2.59627 -7.76232 0
M  V30 17230 N 1655.47 1.57485 0.0601405 0
M  V30 17231 C 1656.72 1.88094 0.758192 0
M  V30 17232 C 1657.05 0.807138 1.76632 0
M  V30 17233 O 1656.33 -0.181347 1.93653 0
M  V30 17234 C 1656.61 3.29363 1.45574 0
M  V30 17235 C 1656.46 4.47408 0.463233 0
M  V30 17236 C 1657.78 3.69048 2.39773 0
M  V30 17237 H 1654.9 0.684106 0.274169 0
M  V30 17238 H 1657.54 1.89988 0.0212215 0
M  V30 17239 H 1655.69 3.27879 2.08393 0
M  V30 17240 H 1657.36 4.6102 -0.160641 0
M  V30 17241 H 1655.61 4.3324 -0.220408 0
M  V30 17242 H 1656.28 5.43065 0.989164 0
M  V30 17243 H 1658.75 3.71701 1.87024 0
M  V30 17244 H 1657.63 4.68761 2.85577 0
M  V30 17245 H 1657.89 2.9961 3.25094 0
M  V30 17246 N 1656.95 -0.331789 1.54068 0
M  V30 17247 C 1658.2 -1.06818 1.71093 0
M  V30 17248 C 1658.51 -1.89438 0.487111 0
M  V30 17249 O 1659.72 -2.66105 0.538544 0
M  V30 17250 C 1658.17 -1.94853 3.02589 0
M  V30 17251 C 1657.78 -1.17384 4.32348 0
M  V30 17252 C 1659.53 -2.68278 3.28979 0
M  V30 17253 C 1657.43 -2.04518 5.54911 0
M  V30 17254 H 1656.36 -0.402501 0.63758 0
M  V30 17255 H 1659.01 -0.326918 1.80564 0
M  V30 17256 H 1657.4 -2.72845 2.87004 0
M  V30 17257 H 1658.57 -0.442208 4.58673 0
M  V30 17258 H 1656.89 -0.556775 4.12661 0
M  V30 17259 H 1659.48 -3.33762 4.1774 0
M  V30 17260 H 1659.83 -3.35476 2.46498 0
M  V30 17261 H 1660.36 -1.97353 3.45394 0
M  V30 17262 H 1657.1 -1.41842 6.3997 0
M  V30 17263 H 1656.62 -2.75438 5.32817 0
M  V30 17264 H 1658.3 -2.63297 5.91002 0
M  V30 17265 N 1658.43 -1.46001 -0.593424 0
M  V30 17266 C 1659.84 -1.30719 -0.915678 0
M  V30 17267 C 1660.04 -0.270679 -1.99674 0
M  V30 17268 O 1659.1 0.330482 -2.50328 0
M  V30 17269 C 1660.41 -2.69034 -1.34318 0
M  V30 17270 C 1661.96 -2.77041 -1.45662 0
M  V30 17271 C 1662.44 -4.15913 -1.91783 0
M  V30 17272 N 1663.93 -4.18277 -1.98994 0
M  V30 17273 C 1664.66 -5.22612 -2.35932 0
M  V30 17274 N 1664.16 -6.37283 -2.71738 0
M  V30 17275 N 1665.95 -5.09975 -2.36394 0
M  V30 17276 H 1658.1 -2.12056 0.120882 0
M  V30 17277 H 1660.37 -0.947961 -0.00858574 0
M  V30 17278 H 1660.07 -3.4614 -0.622922 0
M  V30 17279 H 1659.95 -2.98434 -2.30688 0
M  V30 17280 H 1662.33 -2.0023 -2.16776 0
M  V30 17281 H 1662.41 -2.51338 -0.475706 0
M  V30 17282 H 1662.06 -4.93215 -1.2125 0
M  V30 17283 H 1661.99 -4.39016 -2.90813 0
M  V30 17284 H 1664.48 -3.35534 -1.73855 0
M  V30 17285 H 1664.79 -7.12679 -2.98846 0
M  V30 17286 H 1663.14 -6.40662 -2.69401 0
M  V30 17287 H 1666.33 -4.1943 -2.07836 0
M  V30 17288 H 1666.5 -5.91402 -2.64854 0
M  V30 17289 N 1659.91 0.83715 -1.33527 0
M  V30 17290 C 1660.84 1.95423 -1.1976 0
M  V30 17291 C 1661.85 1.62295 -0.128147 0
M  V30 17292 O 1663.04 1.74436 -0.378725 0
M  V30 17293 C 1660.14 3.2896 -0.814775 0
M  V30 17294 C 1659.31 3.9021 -1.97623 0
M  V30 17295 C 1658.37 5.02104 -1.5741 0
M  V30 17296 O 1657.4 5.2116 -2.28868 0
M  V30 17297 N 1658.6 5.78511 -0.480081 0
M  V30 17298 H 1661.37 2.0777 -2.15991 0
M  V30 17299 H 1658.93 1.01297 -1.26295 0
M  V30 17300 H 1660.92 4.01243 -0.527823 0
M  V30 17301 H 1659.49 3.12548 0.0569031 0
M  V30 17302 H 1658.71 3.10495 -2.42871 0
M  V30 17303 H 1660 4.27865 -2.75334 0
M  V30 17304 H 1659.39 5.65585 0.114287 0
M  V30 17305 H 1657.95 6.5131 -0.252808 0
M  V30 17306 N 1661.38 1.17024 1.05561 0
M  V30 17307 C 1662.63 0.954436 1.78143 0
M  V30 17308 C 1662.95 -0.518525 1.8798 0
M  V30 17309 O 1662.22 -1.37654 1.39385 0
M  V30 17310 H 1660.8 0.350141 0.659856 0
M  V30 17311 H 1663.47 1.4743 1.27477 0
M  V30 17312 H 1662.56 1.37955 2.79955 0
M  V30 17313 N 1662.86 -1.24221 0.969889 0
M  V30 17314 C 1664.14 -1.87715 0.549772 0
M  V30 17315 C 1664.52 -1.87333 -0.973114 0
M  V30 17316 O 1663.87 -1.3475 -1.84539 0
M  V30 17317 C 1664.08 -3.29724 1.14381 0
M  V30 17318 C 1665.43 -4.06393 1.23005 0
M  V30 17319 O 1666.45 -3.38904 1.09648 0
M  V30 17320 O 1665.31 -5.27149 1.4414 0
M  V30 17321 H 1662.4 -0.806356 0.183629 0
M  V30 17322 H 1664.95 -1.32177 1.0643 0
M  V30 17323 H 1663.72 -3.24513 2.18649 0
M  V30 17324 H 1663.34 -3.92839 0.613456 0
M  V30 17325 N 1664.34 -0.740267 -1.39132 0
M  V30 17326 C 1665.57 -0.299605 -2.05225 0
M  V30 17327 C 1665.99 1.05904 -1.55454 0
M  V30 17328 O 1665.35 1.67216 -0.700603 0
M  V30 17329 C 1665.4 -0.316792 -3.59206 0
M  V30 17330 O 1664.5 0.693786 -4.06522 0
M  V30 17331 H 1663.84 -0.135146 -0.650101 0
M  V30 17332 H 1666.37 -1.00766 -1.78065 0
M  V30 17333 H 1666.38 -0.163013 -4.07674 0
M  V30 17334 H 1665.06 -1.30814 -3.94792 0
M  V30 17335 H 1663.63 0.505712 -3.69455 0
M  V30 17336 N 1665.82 1.49844 -0.488302 0
M  V30 17337 C 1667.06 2.03331 0.052835 0
M  V30 17338 C 1667.42 1.3624 1.35854 0
M  V30 17339 O 1666.71 0.484818 1.85365 0
M  V30 17340 C 1666.91 3.56342 0.274851 0
M  V30 17341 C 1666.74 4.38262 -1.00779 0
M  V30 17342 C 1665.51 4.80746 -1.55599 0
M  V30 17343 C 1667.7 4.77608 -1.90774 0
M  V30 17344 N 1665.69 5.4705 -2.78586 0
M  V30 17345 C 1667.06 5.43499 -2.98343 0
M  V30 17346 C 1669.11 4.59556 -1.91606 0
M  V30 17347 C 1667.81 5.93249 -4.06753 0
M  V30 17348 C 1669.84 5.10258 -2.98983 0
M  V30 17349 C 1669.2 5.76138 -4.0527 0
M  V30 17350 H 1665.3 0.781715 -0.021128 0
M  V30 17351 H 1667.89 1.8316 -0.66034 0
M  V30 17352 H 1666.06 3.76424 0.957074 0
M  V30 17353 H 1667.79 3.96473 0.811862 0
M  V30 17354 H 1664.54 4.6058 -1.10284 0
M  V30 17355 H 1664.97 5.84796 -3.4109 0
M  V30 17356 H 1669.61 4.08039 -1.10744 0
M  V30 17357 H 1667.33 6.43794 -4.88421 0
M  V30 17358 H 1670.91 4.98109 -3.00631 0
M  V30 17359 H 1669.79 6.14663 -4.8699 0
M  V30 17360 N 1667.3 0.221601 1.56034 0
M  V30 17361 C 1668.23 -0.683171 2.23282 0
M  V30 17362 C 1669.21 -1.20101 1.20456 0
M  V30 17363 O 1670.39 -1.245 1.49041 0
M  V30 17364 C 1667.52 -1.89143 2.91277 0
M  V30 17365 C 1666.48 -1.50742 4.00576 0
M  V30 17366 C 1665.8 -2.79446 4.55867 0
M  V30 17367 C 1667.1 -0.697388 5.17623 0
M  V30 17368 H 1668.8 -0.122488 2.99149 0
M  V30 17369 H 1666.34 -0.0574732 1.43885 0
M  V30 17370 H 1668.3 -2.52982 3.37013 0
M  V30 17371 H 1667.02 -2.47708 2.12858 0
M  V30 17372 H 1665.68 -0.892492 3.5557 0
M  V30 17373 H 1665.33 -3.36155 3.74177 0
M  V30 17374 H 1665.03 -2.54486 5.29633 0
M  V30 17375 H 1666.55 -3.44228 5.04321 0
M  V30 17376 H 1667.96 -1.23948 5.59741 0
M  V30 17377 H 1666.36 -0.544875 5.97621 0
M  V30 17378 H 1667.43 0.295981 4.83996 0
M  V30 17379 N 1668.77 -1.57515 -0.0517878 0
M  V30 17380 C 1669.72 -2.05051 -1.05937 0
M  V30 17381 C 1670.69 -0.935032 -1.37282 0
M  V30 17382 O 1671.88 -1.20408 -1.48009 0
M  V30 17383 C 1669.02 -2.51594 -2.36208 0
M  V30 17384 C 1668.13 -3.76843 -2.11219 0
M  V30 17385 C 1667.26 -4.12088 -3.35197 0
M  V30 17386 C 1666.3 -5.30318 -3.05662 0
M  V30 17387 N 1665.44 -5.61104 -4.22026 0
M  V30 17388 H 1670.28 -2.90891 -0.647027 0
M  V30 17389 H 1667.82 -1.43842 -0.307891 0
M  V30 17390 H 1669.78 -2.76638 -3.12293 0
M  V30 17391 H 1668.41 -1.68704 -2.75207 0
M  V30 17392 H 1667.46 -3.5902 -1.25734 0
M  V30 17393 H 1668.77 -4.63057 -1.85416 0
M  V30 17394 H 1667.92 -4.38139 -4.19666 0
M  V30 17395 H 1666.66 -3.24479 -3.64094 0
M  V30 17396 H 1665.67 -5.04043 -2.19592 0
M  V30 17397 H 1666.89 -6.19561 -2.78067 0
M  V30 17398 H 1664.84 -4.76456 -4.50917 0
M  V30 17399 H 1664.76 -6.4178 -3.99568 0
M  V30 17400 H 1666.02 -5.91719 -5.07434 0
M  V30 17401 N 1670.25 0.323614 -1.54242 0
M  V30 17402 C 1671.2 1.39826 -1.83623 0
M  V30 17403 C 1672.17 1.51393 -0.683331 0
M  V30 17404 O 1673.36 1.66614 -0.929754 0
M  V30 17405 C 1670.5 2.76187 -2.06918 0
M  V30 17406 C 1669.61 2.73251 -3.34601 0
M  V30 17407 C 1668.74 4.01458 -3.47857 0
M  V30 17408 C 1667.78 3.9283 -4.69415 0
M  V30 17409 N 1666.92 5.12767 -4.79598 0
M  V30 17410 H 1671.76 1.1407 -2.75303 0
M  V30 17411 H 1669.3 0.552188 -1.36343 0
M  V30 17412 H 1671.25 3.55458 -2.18416 0
M  V30 17413 H 1669.88 3.00251 -1.18529 0
M  V30 17414 H 1668.94 1.85971 -3.31842 0
M  V30 17415 H 1670.25 2.62759 -4.2398 0
M  V30 17416 H 1669.4 4.89161 -3.58897 0
M  V30 17417 H 1668.14 4.14757 -2.5657 0
M  V30 17418 H 1667.15 3.03512 -4.58433 0
M  V30 17419 H 1668.37 3.81097 -5.62087 0
M  V30 17420 H 1666.32 5.26572 -3.91227 0
M  V30 17421 H 1666.23 5.0461 -5.62943 0
M  V30 17422 H 1667.5 6.02184 -4.94969 0
M  V30 17423 N 1671.73 1.46313 0.585673 0
M  V30 17424 C 1672.98 1.5147 1.34399 0
M  V30 17425 C 1673.31 0.165209 1.93797 0
M  V30 17426 O 1672.56 -0.838796 1.76813 0
M  V30 17427 C 1672.86 2.55895 2.49504 0
M  V30 17428 C 1672.53 3.99997 2.08118 0
M  V30 17429 C 1671.19 4.3923 1.96545 0
M  V30 17430 C 1673.54 4.90532 1.76147 0
M  V30 17431 C 1670.87 5.66867 1.51256 0
M  V30 17432 C 1673.22 6.18603 1.32338 0
M  V30 17433 C 1671.88 6.56745 1.1934 0
M  V30 17434 H 1671.15 0.554268 0.491801 0
M  V30 17435 H 1673.8 1.79774 0.659803 0
M  V30 17436 H 1672.11 2.21241 3.23357 0
M  V30 17437 H 1673.8 2.57116 3.07722 0
M  V30 17438 H 1670.39 3.68983 2.18058 0
M  V30 17439 H 1674.58 4.60942 1.83974 0
M  V30 17440 H 1669.83 5.95194 1.39834 0
M  V30 17441 H 1674.01 6.88185 1.06653 0
M  V30 17442 H 1671.63 7.55542 0.840228 0
M  V30 17443 N 1673.21 -0.830057 1.33969 0
M  V30 17444 C 1674.44 -1.61774 1.28984 0
M  V30 17445 C 1674.85 -1.88299 -0.137515 0
M  V30 17446 O 1674.21 -1.46936 -1.0824 0
M  V30 17447 C 1674.26 -2.96282 2.07121 0
M  V30 17448 O 1673.98 -2.70918 3.44289 0
M  V30 17449 C 1675.48 -3.90699 2.09449 0
M  V30 17450 H 1672.7 -0.503088 0.444008 0
M  V30 17451 H 1675.25 -1.03328 1.76475 0
M  V30 17452 H 1673.4 -3.51305 1.63289 0
M  V30 17453 H 1673.82 -3.56635 3.84593 0
M  V30 17454 H 1675.29 -4.82266 2.68558 0
M  V30 17455 H 1675.77 -4.25536 1.08702 0
M  V30 17456 H 1676.37 -3.41614 2.53338 0
M  V30 17457 N 1674.69 -1.17582 -1.04939 0
M  V30 17458 C 1675.6 -0.909588 -2.16249 0
M  V30 17459 C 1676.61 0.123166 -1.73564 0
M  V30 17460 O 1677.79 -0.0566976 -2.0132 0
M  V30 17461 C 1674.85 -0.429342 -3.44031 0
M  V30 17462 C 1673.92 -1.529 -4.01149 0
M  V30 17463 C 1673.15 -1.07157 -5.22832 0
M  V30 17464 O 1673.37 0.0732634 -5.70353 0
M  V30 17465 O 1672.31 -1.86567 -5.72255 0
M  V30 17466 H 1676.13 -1.84074 -2.41558 0
M  V30 17467 H 1673.72 -0.956914 -1.14732 0
M  V30 17468 H 1675.6 -0.16917 -4.2106 0
M  V30 17469 H 1674.27 0.473629 -3.20216 0
M  V30 17470 H 1673.18 -1.84308 -3.25548 0
M  V30 17471 H 1674.51 -2.40777 -4.29287 0
M  V30 17472 N 1676.17 1.23705 -0.976463 0
M  V30 17473 C 1677.13 2.23257 -0.518533 0
M  V30 17474 C 1678.13 1.56006 0.3897 0
M  V30 17475 O 1679.32 1.73226 0.18394 0
M  V30 17476 C 1676.45 3.39997 0.247916 0
M  V30 17477 H 1677.64 2.65284 -1.39872 0
M  V30 17478 H 1675.2 1.3647 -0.761946 0
M  V30 17479 H 1675.93 3.03421 1.14482 0
M  V30 17480 H 1675.72 3.90013 -0.403975 0
M  V30 17481 H 1677.21 4.13868 0.557034 0
M  V30 17482 N 1677.64 0.747635 1.38738 0
M  V30 17483 C 1678.88 0.305993 2.02097 0
M  V30 17484 C 1679.25 -1.09002 1.58059 0
M  V30 17485 O 1680.45 -1.63044 2.13705 0
M  V30 17486 C 1678.72 0.418156 3.54945 0
M  V30 17487 S 1680.28 0.0582187 4.38761 0
M  V30 17488 H 1677.1 0.119075 0.700958 0
M  V30 17489 H 1679.7 0.97694 1.6934 0
M  V30 17490 H 1678.4 1.43524 3.84486 0
M  V30 17491 H 1677.93 -0.270178 3.92471 0
M  V30 17492 H 1679.95 -1.15407 4.82593 0
M  V30 17493 N 1679.12 -1.49583 0.496242 0
M  V30 17494 C 1680.07 -2.30677 -0.298474 0
M  V30 17495 C 1681.06 -1.39074 -0.967207 0
M  V30 17496 O 1682.27 -1.56147 -0.895439 0
M  V30 17497 H 1678.64 -0.743138 -0.11511 0
M  V30 17498 H 1680.62 -2.95632 0.405533 0
M  V30 17499 C 1679.36 -3.20297 -1.35297 0
M  V30 17500 H 1678.69 -3.90708 -0.847789 0
M  V30 17501 H 1680.13 -3.79987 -1.88111 0
M  V30 17502 C 1678.59 -2.39584 -2.36857 0
M  V30 17503 O 1679.12 -2.09662 -3.42644 0
M  V30 17504 N 1677.32 -2.01695 -2.09206 0
M  V30 17505 H 1676.87 -2.26229 -1.23201 0
M  V30 17506 H 1676.83 -1.47998 -2.77388 0
M  V30 17507 N 1680.6 -0.229873 -1.55915 0
M  V30 17508 C 1681.56 0.663347 -2.19391 0
M  V30 17509 C 1682.56 1.11548 -1.15818 0
M  V30 17510 O 1683.75 1.02294 -1.41002 0
M  V30 17511 C 1680.88 1.9097 -2.82389 0
M  V30 17512 H 1682.08 0.109797 -2.99699 0
M  V30 17513 H 1679.63 0.0197234 -1.56288 0
M  V30 17514 H 1680.37 2.50491 -2.05973 0
M  V30 17515 H 1680.15 1.59388 -3.58243 0
M  V30 17516 H 1681.64 2.5459 -3.31019 0
M  V30 17517 N 1682.08 1.5754 0.0434337 0
M  V30 17518 C 1683.04 2.046 1.03303 0
M  V30 17519 C 1684.04 0.947648 1.29909 0
M  V30 17520 O 1685.23 1.21171 1.25153 0
M  V30 17521 C 1682.36 2.45077 2.36961 0
M  V30 17522 H 1683.56 2.93276 0.626822 0
M  V30 17523 H 1681.11 1.53588 0.289909 0
M  V30 17524 H 1681.84 1.59513 2.82358 0
M  V30 17525 H 1681.63 3.25252 2.18983 0
M  V30 17526 H 1683.12 2.81963 3.08037 0
M  V30 17527 N 1683.56 -0.31543 1.54411 0
M  V30 17528 C 1684.5 -1.3885 1.84362 0
M  V30 17529 C 1685.47 -1.51028 0.69135 0
M  V30 17530 O 1686.66 -1.66119 0.938577 0
M  V30 17531 C 1683.8 -2.75085 2.0838 0
M  V30 17532 C 1682.91 -2.71473 3.36045 0
M  V30 17533 C 1682.05 -3.99608 3.49981 0
M  V30 17534 C 1681.08 -3.90335 4.71492 0
M  V30 17535 N 1680.22 -5.10216 4.82311 0
M  V30 17536 H 1685.06 -1.12609 2.75905 0
M  V30 17537 H 1682.6 -0.54495 1.36633 0
M  V30 17538 H 1684.56 -3.54295 2.20298 0
M  V30 17539 H 1683.19 -2.99618 1.2012 0
M  V30 17540 H 1682.24 -1.84209 3.32823 0
M  V30 17541 H 1683.55 -2.60507 4.25368 0
M  V30 17542 H 1682.7 -4.8725 3.61486 0
M  V30 17543 H 1681.44 -4.1339 2.58766 0
M  V30 17544 H 1680.45 -3.01077 4.60036 0
M  V30 17545 H 1681.67 -3.78111 5.641 0
M  V30 17546 H 1679.62 -5.24489 3.94014 0
M  V30 17547 H 1679.54 -5.01617 5.65612 0
M  V30 17548 H 1680.8 -5.99551 4.98156 0
M  V30 17549 N 1685.03 -1.46622 -0.577906 0
M  V30 17550 C 1686.28 -1.5188 -1.3333 0
M  V30 17551 C 1686.6 -0.173993 -1.94222 0
M  V30 17552 O 1685.87 0.799972 -1.78822 0
M  V30 17553 H 1684.45 -0.559401 -0.495055 0
M  V30 17554 H 1687.12 -1.82785 -0.676449 0
M  V30 17555 H 1686.21 -2.27411 -2.13754 0
M  V30 17556 N 1686.51 0.822941 -1.34408 0
M  V30 17557 C 1687.44 1.94878 -1.28627 0
M  V30 17558 C 1688.42 1.6931 -0.163727 0
M  V30 17559 O 1689.61 1.90908 -0.356083 0
M  V30 17560 C 1686.74 3.31333 -1.04094 0
M  V30 17561 C 1685.69 3.71341 -2.12814 0
M  V30 17562 C 1685.02 5.05779 -1.73469 0
M  V30 17563 C 1686.32 3.83439 -3.54643 0
M  V30 17564 H 1688.01 1.99972 -2.22827 0
M  V30 17565 H 1685.56 0.960715 -1.07267 0
M  V30 17566 H 1687.51 4.0968 -0.986947 0
M  V30 17567 H 1686.24 3.26539 -0.0633642 0
M  V30 17568 H 1684.89 2.95269 -2.17282 0
M  V30 17569 H 1684.54 4.97471 -0.743727 0
M  V30 17570 H 1684.24 5.33518 -2.46236 0
M  V30 17571 H 1685.77 5.86583 -1.69566 0
M  V30 17572 H 1687.18 4.52057 -3.52587 0
M  V30 17573 H 1685.58 4.22632 -4.2603 0
M  V30 17574 H 1686.65 2.85439 -3.91986 0
M  V30 17575 N 1687.99 1.18137 1.04314 0
M  V30 17576 C 1688.9 0.921044 2.15764 0
M  V30 17577 C 1689.92 -0.11396 1.73626 0
M  V30 17578 O 1691.09 0.0673733 2.01287 0
M  V30 17579 C 1688.16 0.447581 3.43799 0
M  V30 17580 C 1687.22 1.55025 4.00332 0
M  V30 17581 C 1686.45 1.09928 5.22256 0
M  V30 17582 O 1686.67 -0.0430152 5.70384 0
M  V30 17583 O 1685.61 1.896 5.71258 0
M  V30 17584 H 1689.43 1.85353 2.40579 0
M  V30 17585 H 1687.02 0.962985 1.14223 0
M  V30 17586 H 1688.9 0.191497 4.20965 0
M  V30 17587 H 1687.58 -0.456641 3.20463 0
M  V30 17588 H 1686.48 1.86032 3.24566 0
M  V30 17589 H 1687.82 2.4305 4.28004 0
M  V30 17590 N 1689.47 -1.23186 0.98301 0
M  V30 17591 C 1690.71 -1.92259 0.663941 0
M  V30 17592 C 1691.07 -1.75245 -0.794155 0
M  V30 17593 O 1690.36 -1.10437 -1.5657 0
M  V30 17594 C 1690.56 -3.43331 0.992898 0
M  V30 17595 C 1690.39 -3.75041 2.48142 0
M  V30 17596 C 1689.16 -3.95589 3.14384 0
M  V30 17597 C 1691.35 -3.80309 3.46222 0
M  V30 17598 N 1689.34 -4.14526 4.52815 0
M  V30 17599 C 1690.71 -4.04269 4.70071 0
M  V30 17600 C 1692.76 -3.63113 3.40666 0
M  V30 17601 C 1691.46 -4.12819 5.89044 0
M  V30 17602 C 1693.49 -3.72916 4.59007 0
M  V30 17603 C 1692.85 -3.97316 5.81652 0
M  V30 17604 H 1688.95 -0.724605 0.29406 0
M  V30 17605 H 1691.54 -1.48347 1.261 0
M  V30 17606 H 1689.71 -3.86073 0.424507 0
M  V30 17607 H 1691.44 -3.99753 0.630833 0
M  V30 17608 H 1688.19 -3.92605 2.64874 0
M  V30 17609 H 1688.62 -4.27943 5.24589 0
M  V30 17610 H 1693.26 -3.43242 2.4687 0
M  V30 17611 H 1690.98 -4.31496 6.83255 0
M  V30 17612 H 1694.56 -3.60962 4.56287 0
M  V30 17613 H 1693.44 -4.04719 6.71694 0
M  V30 17614 N 1690.95 -0.754982 -1.38339 0
M  V30 17615 C 1692.19 -0.312224 -2.00382 0
M  V30 17616 C 1692.53 1.10362 -1.59793 0
M  V30 17617 O 1691.8 1.75611 -0.83613 0
M  V30 17618 C 1692.08 -0.436701 -3.57442 0
M  V30 17619 C 1691.94 -1.89376 -4.07991 0
M  V30 17620 C 1693.26 0.169083 -4.39775 0
M  V30 17621 H 1690.37 -0.114922 -0.727985 0
M  V30 17622 H 1693.02 -0.954887 -1.64262 0
M  V30 17623 H 1691.17 0.11043 -3.88343 0
M  V30 17624 H 1692.84 -2.4993 -3.87728 0
M  V30 17625 H 1691.08 -2.40834 -3.60807 0
M  V30 17626 H 1691.75 -1.932 -5.17086 0
M  V30 17627 H 1694.23 -0.297554 -4.15035 0
M  V30 17628 H 1693.1 0.0517531 -5.48876 0
M  V30 17629 H 1693.37 1.25754 -4.23838 0
M  V30 17630 N 1692.42 1.49318 -0.504168 0
M  V30 17631 C 1693.65 2.07365 0.038102 0
M  V30 17632 C 1694.07 1.36164 1.29773 0
M  V30 17633 O 1693.43 0.419365 1.76383 0
M  V30 17634 C 1693.48 3.59576 0.271535 0
M  V30 17635 O 1692.58 3.8983 1.34561 0
M  V30 17636 H 1691.93 0.663425 -0.0276328 0
M  V30 17637 H 1694.46 1.92081 -0.704696 0
M  V30 17638 H 1694.47 4.04899 0.502083 0
M  V30 17639 H 1693.14 4.10809 -0.648754 0
M  V30 17640 H 1691.72 3.56314 1.09976 0
M  V30 17641 N 1693.9 0.238138 1.5579 0
M  V30 17642 C 1694.85 -0.681413 2.22395 0
M  V30 17643 C 1695.84 -1.18691 1.20867 0
M  V30 17644 O 1697.05 -1.14482 1.38903 0
M  V30 17645 H 1693.43 -0.238207 0.713275 0
M  V30 17646 H 1695.4 -0.0964141 2.98244 0
M  V30 17647 C 1694.15 -1.87137 2.93045 0
M  V30 17648 H 1693.47 -1.49153 3.70936 0
M  V30 17649 H 1694.91 -2.4922 3.43024 0
M  V30 17650 C 1693.37 -2.73709 1.9643 0
M  V30 17651 O 1693.9 -3.72973 1.49178 0
M  V30 17652 N 1692.1 -2.40092 1.6372 0
M  V30 17653 H 1691.65 -1.59423 2.02341 0
M  V30 17654 H 1691.61 -2.98293 0.993414 0
M  V30 17655 N 1695.38 -1.57561 -0.0350783 0
M  V30 17656 C 1696.33 -2.06163 -1.03756 0
M  V30 17657 C 1697.3 -0.94954 -1.36283 0
M  V30 17658 O 1698.48 -1.21971 -1.46723 0
M  V30 17659 C 1695.62 -2.54086 -2.33526 0
M  V30 17660 C 1694.74 -3.79062 -2.0721 0
M  V30 17661 C 1693.87 -4.1562 -3.30808 0
M  V30 17662 C 1692.91 -5.3353 -3.0002 0
M  V30 17663 N 1692.05 -5.65549 -4.16051 0
M  V30 17664 H 1696.89 -2.91561 -0.616137 0
M  V30 17665 H 1694.42 -1.4416 -0.292617 0
M  V30 17666 H 1696.38 -2.79935 -3.09342 0
M  V30 17667 H 1695.01 -1.71614 -2.73402 0
M  V30 17668 H 1694.06 -3.60333 -1.21919 0
M  V30 17669 H 1695.38 -4.64998 -1.80495 0
M  V30 17670 H 1694.53 -4.42565 -4.14995 0
M  V30 17671 H 1693.27 -3.28323 -3.60632 0
M  V30 17672 H 1692.27 -5.06344 -2.14234 0
M  V30 17673 H 1693.5 -6.22475 -2.7148 0
M  V30 17674 H 1691.44 -4.81211 -4.45838 0
M  V30 17675 H 1691.36 -6.45982 -3.92738 0
M  V30 17676 H 1692.63 -5.97068 -5.01129 0
M  V30 17677 N 1696.86 0.307236 -1.54576 0
M  V30 17678 C 1698.11 1.04082 -1.72771 0
M  V30 17679 C 1698.42 1.88639 -0.517188 0
M  V30 17680 O 1699.63 2.65215 -0.580811 0
M  V30 17681 C 1698.08 1.90015 -3.05651 0
M  V30 17682 C 1697.69 1.10491 -4.34161 0
M  V30 17683 C 1699.43 2.6301 -3.33205 0
M  V30 17684 C 1697.34 1.95664 -5.58094 0
M  V30 17685 H 1696.27 0.392307 -0.643903 0
M  V30 17686 H 1698.92 0.29815 -1.81062 0
M  V30 17687 H 1697.3 2.68245 -2.91309 0
M  V30 17688 H 1698.48 0.369181 -4.59319 0
M  V30 17689 H 1696.79 0.491053 -4.13494 0
M  V30 17690 H 1699.39 3.27074 -4.22997 0
M  V30 17691 H 1699.73 3.31512 -2.51804 0
M  V30 17692 H 1700.27 1.91833 -3.4849 0
M  V30 17693 H 1697.01 1.31643 -6.42145 0
M  V30 17694 H 1696.53 2.66927 -5.37131 0
M  V30 17695 H 1698.2 2.53861 -5.95116 0
M  V30 17696 N 1698.34 1.46926 0.570122 0
M  V30 17697 C 1699.56 1.56722 1.35841 0
M  V30 17698 C 1699.99 0.213314 1.86887 0
M  V30 17699 O 1699.34 -0.808694 1.62265 0
M  V30 17700 C 1699.39 2.5859 2.51323 0
M  V30 17701 O 1698.5 2.12966 3.53156 0
M  V30 17702 H 1697.84 0.526929 0.404032 0
M  V30 17703 H 1700.37 1.92603 0.690308 0
M  V30 17704 H 1700.38 2.78601 2.9807 0
M  V30 17705 H 1699.05 3.56903 2.13525 0
M  V30 17706 H 1697.63 2.02999 3.12803 0
M  V30 17707 N 1699.82 -0.815801 1.34842 0
M  V30 17708 C 1700.76 -1.92713 1.27006 0
M  V30 17709 C 1701.73 -1.65476 0.143838 0
M  V30 17710 O 1702.92 -1.87994 0.326007 0
M  V30 17711 C 1700.06 -3.29099 1.03863 0
M  V30 17712 C 1699.17 -3.68583 2.25324 0
M  V30 17713 C 1698.31 -4.93953 1.95407 0
M  V30 17714 C 1697.34 -5.26037 3.12971 0
M  V30 17715 N 1696.48 -6.42586 2.82891 0
M  V30 17716 H 1701.32 -1.98747 2.22044 0
M  V30 17717 H 1698.86 -0.972265 1.10388 0
M  V30 17718 H 1700.82 -4.07709 0.884809 0
M  V30 17719 H 1699.45 -3.22558 0.124911 0
M  V30 17720 H 1698.5 -2.85307 2.51603 0
M  V30 17721 H 1699.81 -3.88259 3.1314 0
M  V30 17722 H 1698.96 -5.80367 1.76801 0
M  V30 17723 H 1697.7 -4.76293 1.04862 0
M  V30 17724 H 1696.71 -4.38117 3.32165 0
M  V30 17725 H 1697.93 -5.45632 4.04305 0
M  V30 17726 H 1695.88 -6.26369 1.9493 0
M  V30 17727 H 1695.8 -6.62469 3.64239 0
M  V30 17728 H 1697.06 -7.32052 2.67805 0
M  V30 17729 N 1701.29 -1.18689 -1.03686 0
M  V30 17730 C 1702.54 -0.984601 -1.76952 0
M  V30 17731 C 1702.87 0.485417 -1.88345 0
M  V30 17732 O 1702.12 1.37665 -1.39093 0
M  V30 17733 C 1702.42 -1.58911 -3.20128 0
M  V30 17734 C 1702.09 -3.0859 -3.2876 0
M  V30 17735 C 1700.75 -3.49442 -3.30823 0
M  V30 17736 C 1703.1 -4.04603 -3.28551 0
M  V30 17737 C 1700.43 -4.84875 -3.30323 0
M  V30 17738 C 1702.78 -5.39956 -3.29591 0
M  V30 17739 C 1701.45 -5.8025 -3.29948 0
M  V30 17740 H 1700.72 -0.360291 -0.647512 0
M  V30 17741 H 1703.36 -1.47811 -1.21754 0
M  V30 17742 H 1701.67 -1.0177 -3.78352 0
M  V30 17743 H 1703.37 -1.40797 -3.75469 0
M  V30 17744 H 1699.96 -2.76034 -3.27877 0
M  V30 17745 H 1704.14 -3.7409 -3.26145 0
M  V30 17746 H 1699.4 -5.15386 -3.28919 0
M  V30 17747 H 1703.57 -6.14117 -3.28379 0
M  V30 17748 H 1701.2 -6.85169 -3.29315 0
M  V30 17749 N 1702.77 1.22662 -0.989529 0
M  V30 17750 C 1704.02 1.90632 -0.65897 0
M  V30 17751 C 1704.33 1.77942 0.812165 0
M  V30 17752 O 1705.54 2.40796 1.25417 0
M  V30 17753 C 1704 3.41763 -1.12809 0
M  V30 17754 C 1703.6 3.63097 -2.62421 0
M  V30 17755 C 1705.35 4.15454 -0.871698 0
M  V30 17756 C 1703.25 5.07911 -3.02953 0
M  V30 17757 H 1702.18 0.713847 -0.242772 0
M  V30 17758 H 1704.84 1.38942 -1.19864 0
M  V30 17759 H 1703.22 3.92616 -0.516564 0
M  V30 17760 H 1704.39 3.22751 -3.2889 0
M  V30 17761 H 1702.71 3.02733 -2.85905 0
M  V30 17762 H 1705.3 5.22181 -1.15027 0
M  V30 17763 H 1705.65 4.15856 0.192186 0
M  V30 17764 H 1706.18 3.70618 -1.44525 0
M  V30 17765 H 1702.92 5.12646 -4.08503 0
M  V30 17766 H 1702.44 5.49172 -2.41185 0
M  V30 17767 H 1704.12 5.76311 -2.94066 0
M  V30 17768 N 1704.25 0.762308 1.37937 0
M  V30 17769 C 1705.53 0.247502 1.94028 0
M  V30 17770 C 1705.91 -1.25581 1.69684 0
M  V30 17771 O 1705.25 -2.03446 1.04028 0
M  V30 17772 C 1705.46 0.610643 3.43616 0
M  V30 17773 C 1706.81 0.57515 4.20687 0
M  V30 17774 O 1707.84 0.549461 3.51937 0
M  V30 17775 O 1706.7 0.593825 5.43264 0
M  V30 17776 H 1703.79 0.0544389 0.825206 0
M  V30 17777 H 1706.34 0.843021 1.47279 0
M  V30 17778 H 1705.11 1.64853 3.54879 0
M  V30 17779 H 1704.73 -0.0124265 3.97598 0
M  V30 17780 N 1705.73 -1.49049 0.51208 0
M  V30 17781 C 1706.97 -2.0339 -0.0204801 0
M  V30 17782 C 1707.33 -1.38384 -1.33669 0
M  V30 17783 O 1706.62 -0.514246 -1.8457 0
M  V30 17784 C 1706.82 -3.56734 -0.218125 0
M  V30 17785 C 1706.64 -4.36603 1.07738 0
M  V30 17786 C 1705.41 -4.7821 1.63228 0
M  V30 17787 C 1707.61 -4.74513 1.98349 0
M  V30 17788 N 1705.59 -5.42548 2.87253 0
M  V30 17789 C 1706.97 -5.38684 3.06952 0
M  V30 17790 C 1709.02 -4.56449 1.98893 0
M  V30 17791 C 1707.72 -5.86703 4.1614 0
M  V30 17792 C 1709.75 -5.05437 3.07063 0
M  V30 17793 C 1709.11 -5.69618 4.14385 0
M  V30 17794 H 1705.21 -0.781279 0.0335617 0
M  V30 17795 H 1707.79 -1.82086 0.689395 0
M  V30 17796 H 1705.97 -3.77898 -0.897067 0
M  V30 17797 H 1707.7 -3.97714 -0.748684 0
M  V30 17798 H 1704.45 -4.58768 1.17598 0
M  V30 17799 H 1704.88 -5.79296 3.5035 0
M  V30 17800 H 1709.52 -4.06225 1.17221 0
M  V30 17801 H 1707.24 -6.35942 4.98602 0
M  V30 17802 H 1710.82 -4.93263 3.08517 0
M  V30 17803 H 1709.7 -6.06837 4.96707 0
M  V30 17804 N 1707.21 -0.246397 -1.55662 0
M  V30 17805 C 1708.14 0.647563 -2.24341 0
M  V30 17806 C 1709.12 1.1817 -1.22352 0
M  V30 17807 O 1710.3 1.22114 -1.51003 0
M  V30 17808 C 1707.43 1.84485 -2.94249 0
M  V30 17809 C 1706.39 1.4435 -4.02923 0
M  V30 17810 C 1705.71 2.72158 -4.60255 0
M  V30 17811 C 1707.01 0.614951 -5.18667 0
M  V30 17812 H 1708.71 0.0748803 -2.99306 0
M  V30 17813 H 1706.25 0.034575 -1.43958 0
M  V30 17814 H 1708.2 2.47588 -3.40995 0
M  V30 17815 H 1706.93 2.4429 -2.16772 0
M  V30 17816 H 1705.59 0.835811 -3.56945 0
M  V30 17817 H 1705.24 3.3016 -3.79478 0
M  V30 17818 H 1704.94 2.46028 -5.33614 0
M  V30 17819 H 1706.46 3.36161 -5.09734 0
M  V30 17820 H 1707.87 1.15028 -5.61642 0
M  V30 17821 H 1706.27 0.449729 -5.98412 0
M  V30 17822 H 1707.34 -0.372943 -4.83464 0
M  V30 17823 N 1708.68 1.57577 0.026722 0
M  V30 17824 C 1710.1 1.54951 0.382406 0
M  V30 17825 C 1710.3 0.972826 1.76461 0
M  V30 17826 O 1709.36 0.5949 2.45392 0
M  V30 17827 C 1710.67 2.99374 0.282111 0
M  V30 17828 C 1712.22 3.10934 0.359022 0
M  V30 17829 C 1712.69 4.57093 0.28815 0
M  V30 17830 N 1714.18 4.61899 0.346873 0
M  V30 17831 C 1714.92 5.72534 0.314961 0
M  V30 17832 N 1714.41 6.92401 0.235205 0
M  V30 17833 N 1716.21 5.60915 0.364863 0
M  V30 17834 H 1708.36 1.93413 -0.877788 0
M  V30 17835 H 1710.62 0.887216 -0.333995 0
M  V30 17836 H 1710.33 3.45301 -0.667821 0
M  V30 17837 H 1710.2 3.61562 1.07484 0
M  V30 17838 H 1712.59 2.64953 1.29939 0
M  V30 17839 H 1712.67 2.51573 -0.4631 0
M  V30 17840 H 1712.31 5.03742 -0.648558 0
M  V30 17841 H 1712.24 5.14368 1.12841 0
M  V30 17842 H 1714.73 3.75659 0.410932 0
M  V30 17843 H 1715.05 7.72498 0.216019 0
M  V30 17844 H 1713.39 6.94709 0.201219 0
M  V30 17845 H 1716.58 4.66165 0.42518 0
M  V30 17846 H 1716.76 6.47126 0.336526 0
M  V30 17847 N 1710.16 -0.299034 1.54737 0
M  V30 17848 C 1711.07 -1.39141 1.88884 0
M  V30 17849 C 1712.09 -1.55377 0.783203 0
M  V30 17850 O 1713.26 -1.70003 1.07985 0
M  V30 17851 C 1710.33 -2.73487 2.13087 0
M  V30 17852 C 1709.39 -2.66219 3.36788 0
M  V30 17853 C 1708.62 -3.94158 3.59827 0
M  V30 17854 O 1708.85 -4.9361 2.85841 0
M  V30 17855 O 1707.78 -3.95933 4.53344 0
M  V30 17856 H 1711.61 -1.13184 2.81821 0
M  V30 17857 H 1709.19 -0.495271 1.40952 0
M  V30 17858 H 1711.07 -3.5297 2.30195 0
M  V30 17859 H 1709.75 -2.99283 1.23335 0
M  V30 17860 H 1708.65 -1.85201 3.25041 0
M  V30 17861 H 1709.99 -2.45376 4.26675 0
M  V30 17862 N 1711.64 -1.47227 -0.562322 0
M  V30 17863 C 1713.06 -1.32632 -0.887745 0
M  V30 17864 C 1713.26 -0.312972 -1.99055 0
M  V30 17865 O 1712.31 0.277309 -2.50973 0
M  V30 17866 C 1713.62 -2.71822 -1.28581 0
M  V30 17867 C 1715.17 -2.80068 -1.39753 0
M  V30 17868 C 1715.65 -4.19887 -1.82917 0
M  V30 17869 N 1717.14 -4.22404 -1.90077 0
M  V30 17870 C 1717.87 -5.27499 -2.24793 0
M  V30 17871 N 1717.37 -6.42904 -2.58159 0
M  V30 17872 N 1719.16 -5.14874 -2.25523 0
M  V30 17873 H 1711.31 -2.11752 0.165835 0
M  V30 17874 H 1713.58 -0.94793 0.0115238 0
M  V30 17875 H 1713.28 -3.47383 -0.549361 0
M  V30 17876 H 1713.16 -3.0326 -2.24306 0
M  V30 17877 H 1715.54 -2.04783 -2.1248 0
M  V30 17878 H 1715.62 -2.5229 -0.422286 0
M  V30 17879 H 1715.27 -4.95676 -1.10761 0
M  V30 17880 H 1715.2 -4.45086 -2.81436 0
M  V30 17881 H 1717.69 -3.39146 -1.66698 0
M  V30 17882 H 1718 -7.18857 -2.83662 0
M  V30 17883 H 1716.35 -6.46232 -2.55751 0
M  V30 17884 H 1719.54 -4.23745 -1.98892 0
M  V30 17885 H 1719.71 -5.96887 -2.5225 0
M  V30 17886 N 1713.12 0.808639 -1.35273 0
M  V30 17887 C 1714.37 1.56071 -1.27768 0
M  V30 17888 C 1714.68 1.9505 0.146545 0
M  V30 17889 O 1715.89 2.69314 0.343855 0
M  V30 17890 C 1714.34 2.81648 -2.24059 0
M  V30 17891 C 1713.95 2.49915 -3.71815 0
M  V30 17892 C 1715.69 3.59658 -2.25492 0
M  V30 17893 C 1713.6 3.7177 -4.59936 0
M  V30 17894 H 1712.53 0.585811 -0.474701 0
M  V30 17895 H 1715.18 0.889051 -1.60525 0
M  V30 17896 H 1713.56 3.50514 -1.84271 0
M  V30 17897 H 1714.74 1.89068 -4.20226 0
M  V30 17898 H 1713.05 1.85154 -3.72971 0
M  V30 17899 H 1715.65 4.50162 -2.88545 0
M  V30 17900 H 1715.99 3.96835 -1.2581 0
M  V30 17901 H 1716.53 2.97751 -2.63798 0
M  V30 17902 H 1713.26 3.39704 -5.60608 0
M  V30 17903 H 1712.78 4.3185 -4.16252 0
M  V30 17904 H 1714.46 4.39022 -4.75256 0
M  V30 17905 N 1714.6 1.19237 1.03055 0
M  V30 17906 C 1715.85 0.988287 1.75829 0
M  V30 17907 C 1716.16 -0.481903 1.89571 0
M  V30 17908 O 1717.36 -0.804762 2.59299 0
M  V30 17909 C 1715.82 1.71934 3.16175 0
M  V30 17910 C 1715.43 3.22952 3.10493 0
M  V30 17911 C 1717.17 1.59844 3.93256 0
M  V30 17912 C 1715.08 3.88654 4.4576 0
M  V30 17913 H 1714.01 0.366153 0.659127 0
M  V30 17914 H 1716.66 1.42716 1.15345 0
M  V30 17915 H 1715.04 1.20828 3.77116 0
M  V30 17916 H 1716.22 3.81163 2.58943 0
M  V30 17917 H 1714.53 3.35298 2.46909 0
M  V30 17918 H 1717.13 2.06283 4.93307 0
M  V30 17919 H 1717.47 0.552317 4.1262 0
M  V30 17920 H 1718 2.08286 3.38913 0
M  V30 17921 H 1714.74 4.93357 4.31601 0
M  V30 17922 H 1714.26 3.35231 4.97373 0
M  V30 17923 H 1715.94 3.92104 5.14649 0
M  V30 17924 N 1716.07 -1.22136 0.99602 0
M  V30 17925 C 1717.49 -1.72743 0.708295 0
M  V30 17926 C 1717.84 -1.8026 -0.774649 0
M  V30 17927 O 1716.96 -1.45102 -1.60544 0
M  V30 17928 C 1717.56 -3.13729 1.27905 0
M  V30 17929 C 1716.12 -3.61729 1.04064 0
M  V30 17930 C 1715.26 -2.39519 1.39735 0
M  V30 17931 H 1718.21 -1.07439 1.16801 0
M  V30 17932 H 1718.23 -3.74746 0.65919 0
M  V30 17933 H 1717.75 -3.08225 2.35836 0
M  V30 17934 H 1715.85 -3.72594 -0.0219029 0
M  V30 17935 H 1715.96 -4.47689 1.70621 0
M  V30 17936 H 1714.32 -2.41275 0.815986 0
M  V30 17937 H 1715.11 -2.36675 2.48677 0
M  V30 17938 N 1717.55 -0.769612 -1.37531 0
M  V30 17939 C 1718.48 -0.11267 -2.28923 0
M  V30 17940 C 1719.5 0.666541 -1.4853 0
M  V30 17941 O 1720.69 0.504986 -1.71208 0
M  V30 17942 C 1717.79 0.864111 -3.27699 0
M  V30 17943 C 1716.96 0.139166 -4.37179 0
M  V30 17944 C 1716.02 1.029 -5.16041 0
M  V30 17945 O 1715.04 0.493571 -5.67056 0
M  V30 17946 N 1716.25 2.3555 -5.30562 0
M  V30 17947 H 1719.01 -0.897628 -2.85942 0
M  V30 17948 H 1716.57 -0.621776 -1.49484 0
M  V30 17949 H 1718.56 1.46279 -3.77339 0
M  V30 17950 H 1717.13 1.55005 -2.71463 0
M  V30 17951 H 1716.35 -0.640396 -3.88963 0
M  V30 17952 H 1717.64 -0.361847 -5.07512 0
M  V30 17953 H 1717.04 2.81489 -4.90694 0
M  V30 17954 H 1715.6 2.90429 -5.83519 0
M  V30 17955 N 1719.03 1.48775 -0.519977 0
M  V30 17956 C 1719.99 2.27967 0.237405 0
M  V30 17957 C 1720.99 1.34787 0.876868 0
M  V30 17958 O 1722.18 1.57773 0.738463 0
M  V30 17959 C 1719.32 3.13353 1.34248 0
M  V30 17960 H 1720.51 2.96386 -0.457753 0
M  V30 17961 H 1718.06 1.53852 -0.275569 0
M  V30 17962 H 1718.8 2.49543 2.0712 0
M  V30 17963 H 1718.58 3.81885 0.889187 0
M  V30 17964 H 1720.07 3.73116 1.87547 0
M  V30 17965 N 1720.51 0.254649 1.55529 0
M  V30 17966 C 1721.92 -0.100019 1.59286 0
M  V30 17967 C 1722.12 -1.56289 1.27185 0
M  V30 17968 O 1721.18 -2.30854 1.02287 0
M  V30 17969 C 1722.49 0.256158 2.99607 0
M  V30 17970 C 1724.04 0.201091 3.12353 0
M  V30 17971 C 1724.52 0.531411 4.54907 0
M  V30 17972 N 1726.01 0.482199 4.60683 0
M  V30 17973 C 1726.74 0.710848 5.68977 0
M  V30 17974 N 1726.24 1.00304 6.85501 0
M  V30 17975 N 1728.03 0.641029 5.58433 0
M  V30 17976 H 1720.18 1.20856 1.74664 0
M  V30 17977 H 1722.45 0.486824 0.813453 0
M  V30 17978 H 1722.15 1.27275 3.27863 0
M  V30 17979 H 1722.03 -0.412994 3.74932 0
M  V30 17980 H 1724.41 -0.806189 2.83874 0
M  V30 17981 H 1724.49 0.904206 2.39286 0
M  V30 17982 H 1724.14 1.53628 4.84108 0
M  V30 17983 H 1724.07 -0.193269 5.26245 0
M  V30 17984 H 1726.56 0.265409 3.76967 0
M  V30 17985 H 1726.87 1.16472 7.63973 0
M  V30 17986 H 1725.22 1.04059 6.87166 0
M  V30 17987 H 1728.41 0.412751 4.66277 0
M  V30 17988 H 1728.58 0.822617 6.42757 0
M  V30 17989 N 1721.99 -1.57589 -0.0183649 0
M  V30 17990 C 1723.26 -1.80938 -0.743021 0
M  V30 17991 C 1723.64 -0.855272 -1.92998 0
M  V30 17992 O 1722.99 0.100181 -2.2828 0
M  V30 17993 C 1723.2 -3.28945 -1.16602 0
M  V30 17994 C 1724.55 -3.94208 -1.5775 0
M  V30 17995 O 1725.57 -3.33159 -1.26031 0
M  V30 17996 O 1724.43 -5.01716 -2.16663 0
M  V30 17997 H 1721.53 -0.744435 -0.360203 0
M  V30 17998 H 1724.07 -1.69699 0.00567963 0
M  V30 17999 H 1722.84 -3.89996 -0.319154 0
M  V30 18000 H 1722.47 -3.45113 -1.9744 0
M  V30 18001 N 1723.46 0.290824 -1.54893 0
M  V30 18002 C 1724.41 1.35899 -1.86548 0
M  V30 18003 C 1725.38 1.49909 -0.71529 0
M  V30 18004 O 1726.57 1.64604 -0.964886 0
M  V30 18005 C 1723.71 2.71735 -2.1273 0
M  V30 18006 C 1722.82 2.66092 -3.40322 0
M  V30 18007 C 1721.95 3.93989 -3.56295 0
M  V30 18008 C 1720.99 3.82785 -4.77642 0
M  V30 18009 N 1720.13 5.02479 -4.90367 0
M  V30 18010 H 1724.97 1.08205 -2.77661 0
M  V30 18011 H 1722.51 0.523144 -1.37483 0
M  V30 18012 H 1724.47 3.50745 -2.25907 0
M  V30 18013 H 1723.1 2.97669 -1.24871 0
M  V30 18014 H 1722.15 1.78891 -3.35712 0
M  V30 18015 H 1723.46 2.53706 -4.29458 0
M  V30 18016 H 1722.61 4.81438 -3.69192 0
M  V30 18017 H 1721.35 4.09221 -2.6531 0
M  V30 18018 H 1720.36 2.9372 -4.64767 0
M  V30 18019 H 1721.58 3.69088 -5.70044 0
M  V30 18020 H 1719.53 5.18155 -4.02308 0
M  V30 18021 H 1719.45 4.92555 -5.7352 0
M  V30 18022 H 1720.71 5.9155 -5.07631 0
M  V30 18023 N 1724.94 1.47523 0.554506 0
M  V30 18024 C 1725.87 1.63093 1.67102 0
M  V30 18025 C 1726.85 0.480298 1.63178 0
M  V30 18026 O 1728.04 0.709956 1.80757 0
M  V30 18027 C 1725.17 1.64751 3.05736 0
M  V30 18028 C 1724.12 2.79068 3.24507 0
M  V30 18029 C 1723.45 2.65801 4.63955 0
M  V30 18030 C 1724.75 4.20631 3.09623 0
M  V30 18031 H 1726.44 2.56561 1.54328 0
M  V30 18032 H 1723.99 1.2347 0.741023 0
M  V30 18033 H 1725.94 1.74234 3.83693 0
M  V30 18034 H 1724.67 0.678453 3.19475 0
M  V30 18035 H 1723.32 2.691 2.48959 0
M  V30 18036 H 1722.97 1.66917 4.74497 0
M  V30 18037 H 1722.67 3.42494 4.77464 0
M  V30 18038 H 1724.2 2.77216 5.44044 0
M  V30 18039 H 1725.61 4.31562 3.77396 0
M  V30 18040 H 1724.01 4.98133 3.3464 0
M  V30 18041 H 1725.08 4.38809 2.06336 0
M  V30 18042 N 1726.42 -0.801453 1.357 0
M  V30 18043 C 1727.33 -1.94505 1.31167 0
M  V30 18044 C 1728.35 -1.72657 0.215747 0
M  V30 18045 O 1729.52 -1.96399 0.446022 0
M  V30 18046 C 1726.59 -3.29175 1.08834 0
M  V30 18047 C 1725.65 -3.63883 2.27788 0
M  V30 18048 C 1724.88 -4.92127 2.06511 0
M  V30 18049 O 1725.1 -5.60947 1.03416 0
M  V30 18050 O 1724.04 -5.25213 2.93998 0
M  V30 18051 H 1727.86 -2.01277 2.27423 0
M  V30 18052 H 1725.45 -0.939979 1.16124 0
M  V30 18053 H 1727.33 -4.09787 0.98248 0
M  V30 18054 H 1726.01 -3.23322 0.156326 0
M  V30 18055 H 1724.91 -2.83627 2.4394 0
M  V30 18056 H 1726.25 -3.74446 3.19454 0
M  V30 18057 N 1727.9 -1.19782 -1.02421 0
M  V30 18058 C 1729.15 -1.00331 -1.75897 0
M  V30 18059 C 1729.47 0.465413 -1.8885 0
M  V30 18060 O 1728.73 1.36182 -1.40545 0
M  V30 18061 C 1729.03 -1.62297 -3.18425 0
M  V30 18062 C 1728.69 -3.12059 -3.25468 0
M  V30 18063 C 1727.36 -3.52931 -3.27098 0
M  V30 18064 C 1729.71 -4.08065 -3.24241 0
M  V30 18065 C 1727.04 -4.88351 -3.25162 0
M  V30 18066 C 1729.39 -5.43421 -3.23846 0
M  V30 18067 C 1728.05 -5.83717 -3.23775 0
M  V30 18068 H 1727.32 -0.367139 -0.643654 0
M  V30 18069 H 1729.97 -1.49094 -1.2018 0
M  V30 18070 H 1728.27 -1.05777 -3.77251 0
M  V30 18071 H 1729.97 -1.44772 -3.73955 0
M  V30 18072 H 1726.56 -2.79496 -3.24931 0
M  V30 18073 H 1730.74 -3.77528 -3.22159 0
M  V30 18074 H 1726 -5.18845 -3.23434 0
M  V30 18075 H 1730.17 -6.17566 -3.21847 0
M  V30 18076 H 1727.8 -6.88623 -3.22029 0
M  V30 18077 N 1729.38 1.21606 -1.00248 0
M  V30 18078 C 1730.62 1.9089 -0.684765 0
M  V30 18079 C 1730.96 1.77749 0.78224 0
M  V30 18080 O 1730.23 1.15251 1.56676 0
M  V30 18081 C 1730.51 3.42778 -1.1034 0
M  V30 18082 C 1730.37 3.64923 -2.62967 0
M  V30 18083 C 1731.69 4.35064 -0.663877 0
M  V30 18084 H 1728.81 0.693217 -0.250239 0
M  V30 18085 H 1731.45 1.4329 -1.24772 0
M  V30 18086 H 1729.6 3.83449 -0.624415 0
M  V30 18087 H 1731.27 3.33595 -3.18609 0
M  V30 18088 H 1729.51 3.08874 -3.04596 0
M  V30 18089 H 1730.18 4.71335 -2.87311 0
M  V30 18090 H 1732.66 4.01962 -1.07544 0
M  V30 18091 H 1731.54 5.3999 -0.984987 0
M  V30 18092 H 1731.8 4.39954 0.435095 0
M  V30 18093 N 1730.86 0.776895 1.37121 0
M  V30 18094 C 1732.08 0.355097 2.0383 0
M  V30 18095 C 1732.5 -1.02441 1.58591 0
M  V30 18096 O 1731.86 -1.65482 0.769533 0
M  V30 18097 C 1731.91 0.394984 3.59336 0
M  V30 18098 O 1731.63 1.72008 4.0292 0
M  V30 18099 C 1733.13 -0.0377636 4.43284 0
M  V30 18100 H 1730.35 0.148056 0.654462 0
M  V30 18101 H 1732.89 1.05225 1.75351 0
M  V30 18102 H 1731.05 -0.253638 3.86569 0
M  V30 18103 H 1731.46 1.66225 4.97463 0
M  V30 18104 H 1732.94 0.0412956 5.51985 0
M  V30 18105 H 1733.41 -1.08881 4.2549 0
M  V30 18106 H 1734.02 0.582867 4.21287 0
M  V30 18107 N 1732.33 -1.48497 0.527859 0
M  V30 18108 C 1733.28 -2.2959 -0.23607 0
M  V30 18109 C 1734.25 -1.37232 -0.935762 0
M  V30 18110 O 1735.44 -1.66196 -0.937202 0
M  V30 18111 C 1732.58 -3.20551 -1.27832 0
M  V30 18112 C 1731.69 -4.27984 -0.58769 0
M  V30 18113 C 1730.82 -5.06128 -1.61269 0
M  V30 18114 C 1729.86 -6.05367 -0.905404 0
M  V30 18115 N 1729 -6.76577 -1.87585 0
M  V30 18116 H 1733.84 -2.94403 0.461635 0
M  V30 18117 H 1731.38 -1.45137 0.239493 0
M  V30 18118 H 1733.33 -3.71686 -1.89488 0
M  V30 18119 H 1731.96 -2.57665 -1.94444 0
M  V30 18120 H 1731.02 -3.80132 0.142759 0
M  V30 18121 H 1732.33 -4.9879 -0.0322348 0
M  V30 18122 H 1731.48 -5.61266 -2.30359 0
M  V30 18123 H 1730.22 -4.35157 -2.20204 0
M  V30 18124 H 1729.23 -5.49435 -0.200426 0
M  V30 18125 H 1730.45 -6.78335 -0.322197 0
M  V30 18126 H 1728.4 -6.08358 -2.45432 0
M  V30 18127 H 1728.31 -7.4345 -1.37178 0
M  V30 18128 H 1729.58 -7.36305 -2.5588 0
M  V30 18129 N 1733.81 -0.262893 -1.55392 0
M  V30 18130 C 1734.74 0.623732 -2.25015 0
M  V30 18131 C 1735.72 1.16865 -1.23598 0
M  V30 18132 O 1736.91 1.20505 -1.5229 0
M  V30 18133 C 1734.04 1.81353 -2.9619 0
M  V30 18134 C 1732.99 1.40069 -4.04431 0
M  V30 18135 C 1732.32 2.67261 -4.63115 0
M  V30 18136 C 1733.62 0.559905 -5.1929 0
M  V30 18137 H 1735.31 0.0431306 -2.99369 0
M  V30 18138 H 1732.86 0.0193043 -1.43987 0
M  V30 18139 H 1734.81 2.43958 -3.43602 0
M  V30 18140 H 1733.53 2.41977 -2.1935 0
M  V30 18141 H 1732.19 0.797905 -3.57811 0
M  V30 18142 H 1731.84 3.26117 -3.82958 0
M  V30 18143 H 1731.54 2.40354 -5.36194 0
M  V30 18144 H 1733.07 3.30735 -5.1327 0
M  V30 18145 H 1734.48 1.09064 -5.6283 0
M  V30 18146 H 1732.88 0.386234 -5.98856 0
M  V30 18147 H 1733.95 -0.424199 -4.83041 0
M  V30 18148 N 1735.29 1.57597 0.0100073 0
M  V30 18149 C 1736.24 2.07788 1.00463 0
M  V30 18150 C 1737.21 0.971101 1.34755 0
M  V30 18151 O 1738.39 1.2429 1.44764 0
M  V30 18152 C 1735.53 2.57769 2.29454 0
M  V30 18153 C 1734.64 3.8231 2.01153 0
M  V30 18154 C 1733.78 4.2083 3.24154 0
M  V30 18155 C 1732.82 5.38236 2.91494 0
M  V30 18156 N 1731.96 5.72096 4.07001 0
M  V30 18157 H 1736.8 2.92504 0.569675 0
M  V30 18158 H 1734.33 1.44607 0.269645 0
M  V30 18159 H 1736.29 2.84821 3.04849 0
M  V30 18160 H 1734.92 1.75942 2.70637 0
M  V30 18161 H 1733.97 3.62227 1.16171 0
M  V30 18162 H 1735.28 4.67811 1.73074 0
M  V30 18163 H 1734.44 4.49111 4.07902 0
M  V30 18164 H 1733.18 3.34019 3.55363 0
M  V30 18165 H 1732.18 5.09688 2.06151 0
M  V30 18166 H 1733.41 6.26716 2.61543 0
M  V30 18167 H 1731.35 4.88243 4.38126 0
M  V30 18168 H 1731.27 6.52148 3.82411 0
M  V30 18169 H 1732.54 6.04964 4.91567 0
M  V30 18170 N 1736.77 -0.282606 1.55045 0
M  V30 18171 C 1737.7 -1.37115 1.83663 0
M  V30 18172 C 1738.71 -1.45985 0.720563 0
M  V30 18173 O 1739.9 -1.47974 0.998294 0
M  V30 18174 C 1737 -2.7533 1.97603 0
M  V30 18175 C 1736.17 -2.89168 3.28177 0
M  V30 18176 C 1735.23 -4.07997 3.32302 0
M  V30 18177 O 1734.26 -3.9921 4.05734 0
M  V30 18178 N 1735.46 -5.19512 2.59013 0
M  V30 18179 H 1738.23 -1.12914 2.77616 0
M  V30 18180 H 1735.79 -0.472711 1.54845 0
M  V30 18181 H 1737.78 -3.531 1.97743 0
M  V30 18182 H 1736.35 -2.92396 1.1056 0
M  V30 18183 H 1735.57 -1.9836 3.40657 0
M  V30 18184 H 1736.86 -2.95338 4.1431 0
M  V30 18185 H 1736.26 -5.29536 1.99018 0
M  V30 18186 H 1734.81 -5.95549 2.64887 0
M  V30 18187 N 1738.25 -1.47815 -0.546675 0
M  V30 18188 C 1739.18 -1.63976 -1.66235 0
M  V30 18189 C 1740.16 -0.488945 -1.62921 0
M  V30 18190 O 1741.34 -0.719532 -1.80378 0
M  V30 18191 C 1738.47 -1.6637 -3.04858 0
M  V30 18192 C 1737.43 -2.80785 -3.23023 0
M  V30 18193 C 1736.75 -2.68257 -4.62539 0
M  V30 18194 C 1738.05 -4.22267 -3.07388 0
M  V30 18195 H 1739.75 -2.57375 -1.52965 0
M  V30 18196 H 1737.29 -1.23861 -0.734465 0
M  V30 18197 H 1739.24 -1.76266 -3.82764 0
M  V30 18198 H 1737.97 -0.695386 -3.19111 0
M  V30 18199 H 1736.63 -2.70417 -2.47529 0
M  V30 18200 H 1736.28 -1.69431 -4.73606 0
M  V30 18201 H 1735.98 -3.45022 -4.75641 0
M  V30 18202 H 1737.5 -2.80097 -5.42566 0
M  V30 18203 H 1738.91 -4.33557 -3.75102 0
M  V30 18204 H 1737.31 -4.999 -3.31994 0
M  V30 18205 H 1738.38 -4.39897 -2.04006 0
M  V30 18206 N 1739.72 0.794246 -1.36123 0
M  V30 18207 C 1740.63 1.93807 -1.32197 0
M  V30 18208 C 1741.65 1.7254 -0.2249 0
M  V30 18209 O 1742.83 1.9616 -0.456431 0
M  V30 18210 C 1739.89 3.28593 -1.10578 0
M  V30 18211 C 1738.95 3.6267 -2.29715 0
M  V30 18212 C 1738.18 4.91025 -2.09118 0
M  V30 18213 O 1738.41 5.6039 -1.06389 0
M  V30 18214 O 1737.34 5.23647 -2.96779 0
M  V30 18215 H 1741.17 2.00068 -2.28487 0
M  V30 18216 H 1738.75 0.933808 -1.16621 0
M  V30 18217 H 1740.63 4.0926 -1.0042 0
M  V30 18218 H 1739.31 3.23235 -0.17347 0
M  V30 18219 H 1738.22 2.82329 -2.4544 0
M  V30 18220 H 1739.55 3.72747 -3.21435 0
M  V30 18221 N 1741.2 1.20323 1.01785 0
M  V30 18222 C 1742.13 0.894265 2.09948 0
M  V30 18223 C 1743.11 -0.15315 1.61877 0
M  V30 18224 O 1744.3 -0.0270078 1.88481 0
M  V30 18225 C 1741.42 0.3404 3.36985 0
M  V30 18226 C 1740.47 1.36861 4.03945 0
M  V30 18227 S 1741.3 2.9332 4.48022 0
M  V30 18228 C 1742.46 2.39506 5.78263 0
M  V30 18229 H 1742.69 1.81026 2.35833 0
M  V30 18230 H 1740.22 1.03157 1.14883 0
M  V30 18231 H 1742.18 0.0273874 4.10491 0
M  V30 18232 H 1740.84 -0.554073 3.09174 0
M  V30 18233 H 1740.04 0.930418 4.95337 0
M  V30 18234 H 1739.64 1.62903 3.36658 0
M  V30 18235 H 1741.93 1.7919 6.53374 0
M  V30 18236 H 1742.87 3.2929 6.26876 0
M  V30 18237 H 1743.28 1.81678 5.34465 0
M  V30 18238 N 1742.68 -1.21073 1.00892 0
M  V30 18239 C 1743.61 -2.25847 0.592897 0
M  V30 18240 C 1744.59 -1.6561 -0.38824 0
M  V30 18241 O 1745.78 -1.92238 -0.275361 0
M  V30 18242 C 1742.91 -3.47214 -0.0773439 0
M  V30 18243 C 1741.86 -4.19994 0.82398 0
M  V30 18244 C 1741.19 -5.34696 0.0199341 0
M  V30 18245 C 1742.49 -4.76964 2.12844 0
M  V30 18246 H 1744.18 -2.609 1.46873 0
M  V30 18247 H 1741.73 -1.25412 0.707656 0
M  V30 18248 H 1743.68 -4.19684 -0.379889 0
M  V30 18249 H 1742.4 -3.11303 -0.987833 0
M  V30 18250 H 1741.06 -3.49379 1.11041 0
M  V30 18251 H 1740.71 -4.95028 -0.891966 0
M  V30 18252 H 1740.41 -5.84319 0.620102 0
M  V30 18253 H 1741.93 -6.09974 -0.276336 0
M  V30 18254 H 1743.35 -5.41293 1.88878 0
M  V30 18255 H 1741.74 -5.36992 2.67879 0
M  V30 18256 H 1742.81 -3.96129 2.79659 0
M  V30 18257 N 1744.16 -0.784156 -1.36707 0
M  V30 18258 C 1745.07 -0.179959 -2.33909 0
M  V30 18259 C 1746.08 0.665092 -1.60787 0
M  V30 18260 O 1747.26 0.582111 -1.92804 0
M  V30 18261 C 1744.33 0.679323 -3.3998 0
M  V30 18262 C 1743.39 -0.183618 -4.28907 0
M  V30 18263 C 1742.62 0.634747 -5.29912 0
M  V30 18264 O 1742.84 1.87107 -5.38839 0
M  V30 18265 O 1741.78 0.0374113 -6.01888 0
M  V30 18266 H 1745.6 -0.983499 -2.87334 0
M  V30 18267 H 1743.19 -0.545521 -1.39084 0
M  V30 18268 H 1745.07 1.16948 -4.04847 0
M  V30 18269 H 1743.74 1.46084 -2.88862 0
M  V30 18270 H 1742.65 -0.720419 -3.67098 0
M  V30 18271 H 1743.98 -0.928522 -4.83363 0
M  V30 18272 N 1745.64 1.48215 -0.535727 0
M  V30 18273 C 1746.58 2.31387 0.237209 0
M  V30 18274 C 1747.58 1.41589 0.929995 0
M  V30 18275 O 1748.78 1.58466 0.853725 0
M  V30 18276 H 1745.16 0.745928 0.0953663 0
M  V30 18277 H 1747.13 2.94452 -0.483772 0
M  V30 18278 C 1745.88 3.23771 1.26757 0
M  V30 18279 H 1745.2 3.92818 0.743902 0
M  V30 18280 H 1746.64 3.84841 1.7797 0
M  V30 18281 C 1745.1 2.45779 2.30422 0
M  V30 18282 O 1745.63 2.18673 3.36964 0
M  V30 18283 N 1743.84 2.07171 2.03785 0
M  V30 18284 H 1743.38 2.29416 1.17159 0
M  V30 18285 H 1743.34 1.55301 2.73366 0
M  V30 18286 N 1747.11 0.27113 1.5525 0
M  V30 18287 C 1748.05 -0.651235 2.19753 0
M  V30 18288 C 1749.06 -1.12051 1.18104 0
M  V30 18289 O 1750.25 -1.0431 1.44851 0
M  V30 18290 C 1747.35 -1.89985 2.8064 0
M  V30 18291 C 1746.52 -1.57805 4.07942 0
M  V30 18292 C 1745.58 -2.67872 4.52914 0
M  V30 18293 O 1744.61 -2.34228 5.18774 0
M  V30 18294 N 1745.81 -3.97854 4.22721 0
M  V30 18295 H 1748.57 -0.0991913 2.99536 0
M  V30 18296 H 1746.13 0.0920667 1.61638 0
M  V30 18297 H 1748.13 -2.62907 3.07672 0
M  V30 18298 H 1746.7 -2.36105 2.04874 0
M  V30 18299 H 1745.92 -0.682852 3.88241 0
M  V30 18300 H 1747.2 -1.33801 4.90892 0
M  V30 18301 H 1746.6 -4.28011 3.69897 0
M  V30 18302 H 1745.16 -4.67165 4.54533 0
M  V30 18303 N 1748.59 -1.576 -0.00164943 0
M  V30 18304 C 1749.84 -1.89675 -0.686026 0
M  V30 18305 C 1750.15 -0.873179 -1.75028 0
M  V30 18306 O 1751.36 -1.08409 -2.48917 0
M  V30 18307 C 1749.82 -3.36696 -1.27136 0
M  V30 18308 C 1749.42 -4.47346 -0.242011 0
M  V30 18309 C 1751.17 -3.77883 -1.93402 0
M  V30 18310 C 1749.08 -5.85444 -0.837241 0
M  V30 18311 H 1748.01 -0.707756 -0.259994 0
M  V30 18312 H 1750.66 -1.83406 0.0586245 0
M  V30 18313 H 1749.04 -3.37797 -2.06662 0
M  V30 18314 H 1750.21 -4.57759 0.528539 0
M  V30 18315 H 1748.53 -4.15168 0.320118 0
M  V30 18316 H 1751.12 -4.78394 -2.38838 0
M  V30 18317 H 1751.47 -3.11311 -2.76389 0
M  V30 18318 H 1752 -3.79075 -1.20612 0
M  V30 18319 H 1748.74 -6.55484 -0.04619 0
M  V30 18320 H 1748.26 -5.78698 -1.57699 0
M  V30 18321 H 1749.94 -6.33048 -1.33637 0
M  V30 18322 N 1750.07 0.274379 -1.55193 0
M  V30 18323 C 1751.3 1.02871 -1.8009 0
M  V30 18324 C 1751.72 1.79202 -0.571676 0
M  V30 18325 O 1751.08 1.74867 0.478679 0
M  V30 18326 C 1751.13 1.96406 -3.02418 0
M  V30 18327 O 1750.23 3.05154 -2.77408 0
M  V30 18328 H 1749.57 0.294181 -0.595276 0
M  V30 18329 H 1752.1 0.303708 -2.02333 0
M  V30 18330 H 1752.11 2.38385 -3.31114 0
M  V30 18331 H 1750.79 1.40261 -3.91535 0
M  V30 18332 H 1749.36 2.675 -2.59805 0
M  V30 18333 N 1751.55 1.48103 0.538828 0
M  V30 18334 C 1752.78 1.59316 1.32008 0
M  V30 18335 C 1753.19 0.250107 1.87136 0
M  V30 18336 O 1752.55 -0.759358 1.65952 0
M  V30 18337 C 1752.6 2.63287 2.47714 0
M  V30 18338 O 1752.32 3.92379 1.9486 0
M  V30 18339 C 1753.82 2.84856 3.39664 0
M  V30 18340 H 1751.04 0.53743 0.401758 0
M  V30 18341 H 1753.59 1.93864 0.65092 0
M  V30 18342 H 1751.74 2.31621 3.10532 0
M  V30 18343 H 1752.15 4.49346 2.70534 0
M  V30 18344 H 1753.63 3.61426 4.17223 0
M  V30 18345 H 1754.11 1.93352 3.9435 0
M  V30 18346 H 1754.71 3.17791 2.82647 0
M  V30 18347 N 1753.03 -0.787016 1.36542 0
M  V30 18348 C 1754.28 -1.54019 1.30234 0
M  V30 18349 C 1754.59 -1.95259 -0.115496 0
M  V30 18350 O 1755.79 -2.69827 -0.300966 0
M  V30 18351 C 1754.25 -2.78048 2.28512 0
M  V30 18352 C 1753.86 -2.43968 3.75744 0
M  V30 18353 C 1755.6 -3.56025 2.31185 0
M  V30 18354 C 1753.51 -3.64406 4.65792 0
M  V30 18355 H 1752.44 -0.578185 0.483961 0
M  V30 18356 H 1755.09 -0.8634 1.61919 0
M  V30 18357 H 1753.47 -3.47538 1.89824 0
M  V30 18358 H 1754.65 -1.82359 4.23181 0
M  V30 18359 H 1752.96 -1.79197 3.75869 0
M  V30 18360 H 1755.56 -4.45514 2.9567 0
M  V30 18361 H 1755.9 -3.94783 1.32107 0
M  V30 18362 H 1756.43 -2.93516 2.68502 0
M  V30 18363 H 1753.17 -3.30742 5.65942 0
M  V30 18364 H 1752.69 -4.25173 4.2307 0
M  V30 18365 H 1754.37 -4.31406 4.82181 0
M  V30 18366 N 1754.5 -1.20861 -1.01145 0
M  V30 18367 C 1755.45 -0.929642 -2.08187 0
M  V30 18368 C 1756.44 0.112578 -1.60506 0
M  V30 18369 O 1757.63 -0.0954894 -1.76742 0
M  V30 18370 C 1754.76 -0.489163 -3.39797 0
M  V30 18371 C 1753.85 -1.5651 -3.94164 0
M  V30 18372 N 1754.24 -2.7887 -4.21978 0
M  V30 18373 C 1752.53 -1.43246 -4.2237 0
M  V30 18374 C 1753.24 -3.48309 -4.65892 0
M  V30 18375 N 1752.21 -2.75734 -4.68478 0
M  V30 18376 H 1756.01 -1.85937 -2.27606 0
M  V30 18377 H 1753.53 -1.10338 -1.19161 0
M  V30 18378 H 1755.52 -0.27069 -4.1602 0
M  V30 18379 H 1754.18 0.433877 -3.21788 0
M  V30 18380 H 1755.2 -3.15473 -4.10727 0
M  V30 18381 H 1751.87 -0.57422 -4.13532 0
M  V30 18382 H 1753.26 -4.53042 -4.96188 0
M  V30 18383 N 1755.98 1.20536 -1.01532 0
M  V30 18384 C 1756.91 2.22683 -0.542658 0
M  V30 18385 C 1757.93 1.5844 0.374267 0
M  V30 18386 O 1759.12 1.77661 0.172818 0
M  V30 18387 C 1756.22 3.38117 0.230168 0
M  V30 18388 C 1755.39 4.3195 -0.688356 0
M  V30 18389 C 1754.45 5.26187 0.0366686 0
M  V30 18390 O 1753.47 5.66182 -0.585418 0
M  V30 18391 N 1754.68 5.65481 1.31193 0
M  V30 18392 H 1757.44 2.63864 -1.42111 0
M  V30 18393 H 1755 1.35065 -0.892703 0
M  V30 18394 H 1756.99 3.98164 0.724408 0
M  V30 18395 H 1755.56 2.95837 1.00991 0
M  V30 18396 H 1754.78 3.69889 -1.36292 0
M  V30 18397 H 1756.07 4.91564 -1.3131 0
M  V30 18398 H 1755.47 5.34998 1.83829 0
M  V30 18399 H 1754.03 6.27842 1.75092 0
M  V30 18400 N 1757.46 0.791395 1.36289 0
M  V30 18401 C 1758.69 0.375566 2.03971 0
M  V30 18402 C 1759.11 -1.00061 1.59277 0
M  V30 18403 O 1758.47 -1.64501 0.762182 0
M  V30 18404 C 1758.52 0.449891 3.57783 0
M  V30 18405 O 1757.62 -0.54243 4.08817 0
M  V30 18406 H 1756.96 0.159181 0.644637 0
M  V30 18407 H 1759.49 1.07306 1.74203 0
M  V30 18408 H 1759.5 0.314206 4.06788 0
M  V30 18409 H 1758.18 1.45377 3.89665 0
M  V30 18410 H 1756.75 -0.368243 3.71077 0
M  V30 18411 N 1758.94 -1.47929 0.54358 0
M  V30 18412 C 1760.18 -2.04393 0.0166462 0
M  V30 18413 C 1760.54 -1.41025 -1.30291 0
M  V30 18414 O 1761.74 -1.88456 -1.91671 0
M  V30 18415 C 1760.02 -3.5729 -0.0888261 0
M  V30 18416 S 1761.57 -4.35162 -0.563857 0
M  V30 18417 H 1758.39 -0.710757 0.0185863 0
M  V30 18418 H 1760.99 -1.81471 0.727226 0
M  V30 18419 H 1759.7 -4.00938 0.876155 0
M  V30 18420 H 1759.23 -3.84687 -0.823374 0
M  V30 18421 H 1761.24 -4.6138 -1.82601 0
M  V30 18422 N 1760.42 -0.27936 -1.55104 0
M  V30 18423 C 1761.83 0.217569 -1.85428 0
M  V30 18424 C 1762.18 1.55117 -1.20138 0
M  V30 18425 O 1761.3 2.10751 -0.491229 0
M  V30 18426 C 1761.9 0.401547 -3.36412 0
M  V30 18427 C 1760.46 0.842706 -3.66845 0
M  V30 18428 C 1759.61 -0.0615565 -2.77232 0
M  V30 18429 H 1762.56 -0.501025 -1.50584 0
M  V30 18430 H 1762.58 1.23946 -3.59747 0
M  V30 18431 H 1762.09 -0.569224 -3.83903 0
M  V30 18432 H 1760.19 1.8248 -3.24857 0
M  V30 18433 H 1760.3 0.677088 -4.74291 0
M  V30 18434 H 1758.67 0.455486 -2.50594 0
M  V30 18435 H 1759.45 -1.02829 -3.27538 0
M  V30 18436 N 1761.9 1.57599 -0.0067085 0
M  V30 18437 C 1763.12 1.95545 0.69115 0
M  V30 18438 C 1763.55 0.882014 1.66139 0
M  V30 18439 O 1762.9 -0.159242 1.80599 0
M  V30 18440 C 1762.95 3.3259 1.39342 0
M  V30 18441 O 1762.06 3.27368 2.50806 0
M  V30 18442 H 1761.4 0.638188 0.183336 0
M  V30 18443 H 1763.93 2.04506 -0.0618957 0
M  V30 18444 H 1763.94 3.6831 1.75532 0
M  V30 18445 H 1762.61 4.10269 0.682072 0
M  V30 18446 H 1761.19 3.03334 2.16894 0
M  V30 18447 N 1763.37 -0.266145 1.55336 0
M  V30 18448 C 1764.31 -1.35159 1.85107 0
M  V30 18449 C 1765.32 -1.45213 0.736006 0
M  V30 18450 O 1766.51 -1.46907 1.01393 0
M  V30 18451 C 1763.61 -2.73218 2.00512 0
M  V30 18452 C 1762.78 -2.85671 3.31226 0
M  V30 18453 C 1761.84 -4.0445 3.36611 0
M  V30 18454 O 1760.87 -3.94884 4.09945 0
M  V30 18455 N 1762.07 -5.16735 2.64508 0
M  V30 18456 H 1764.83 -1.09963 2.78798 0
M  V30 18457 H 1762.39 -0.456261 1.55338 0
M  V30 18458 H 1764.39 -3.50983 2.01477 0
M  V30 18459 H 1762.96 -2.91206 1.13655 0
M  V30 18460 H 1762.18 -1.94736 3.42741 0
M  V30 18461 H 1763.46 -2.90927 4.17419 0
M  V30 18462 H 1762.86 -5.27395 2.04624 0
M  V30 18463 H 1761.42 -5.92706 2.71189 0
M  V30 18464 N 1764.85 -1.48386 -0.530967 0
M  V30 18465 C 1765.76 -1.65516 -1.66257 0
M  V30 18466 C 1766.78 -0.5377 -1.65483 0
M  V30 18467 O 1767.95 -0.808642 -1.84453 0
M  V30 18468 C 1765.02 -1.68999 -3.02722 0
M  V30 18469 C 1764.08 -2.92365 -3.14358 0
M  V30 18470 C 1763.31 -2.95672 -4.44313 0
M  V30 18471 O 1763.54 -2.07417 -5.31352 0
M  V30 18472 O 1762.47 -3.87831 -4.60294 0
M  V30 18473 H 1766.3 -2.61321 -1.54742 0
M  V30 18474 H 1763.88 -1.31776 -0.703946 0
M  V30 18475 H 1765.76 -1.73816 -3.83883 0
M  V30 18476 H 1764.44 -0.763675 -3.14563 0
M  V30 18477 H 1763.34 -2.93081 -2.32496 0
M  V30 18478 H 1764.68 -3.84378 -3.07433 0
M  V30 18479 N 1766.33 0.779763 -1.36958 0
M  V30 18480 C 1767.28 1.88277 -1.28592 0
M  V30 18481 C 1768.26 1.59941 -0.175389 0
M  V30 18482 O 1769.46 1.72208 -0.409071 0
M  V30 18483 C 1766.58 3.25632 -1.08715 0
M  V30 18484 C 1765.67 3.59945 -2.24277 0
M  V30 18485 N 1766.06 3.65497 -3.49636 0
M  V30 18486 C 1764.36 3.90064 -2.16255 0
M  V30 18487 C 1765.06 3.96328 -4.25792 0
M  V30 18488 N 1764.04 4.11812 -3.5484 0
M  V30 18489 H 1767.84 1.90809 -2.23538 0
M  V30 18490 H 1765.35 0.975794 -1.29815 0
M  V30 18491 H 1767.35 4.04529 -1.00807 0
M  V30 18492 H 1766.01 3.24368 -0.146786 0
M  V30 18493 H 1767.02 3.47902 -3.83647 0
M  V30 18494 H 1763.7 3.96669 -1.3023 0
M  V30 18495 H 1765.09 4.07466 -5.34248 0
M  V30 18496 N 1767.81 1.21396 1.00503 0
M  V30 18497 C 1768.74 0.930982 2.09441 0
M  V30 18498 C 1769.75 -0.0857912 1.62574 0
M  V30 18499 O 1770.94 0.146701 1.77896 0
M  V30 18500 C 1768.04 0.376344 3.36804 0
M  V30 18501 C 1767.21 1.44744 4.12756 0
M  V30 18502 C 1766.27 0.902051 5.18411 0
M  V30 18503 O 1765.3 1.58548 5.46673 0
M  V30 18504 N 1766.5 -0.282718 5.79811 0
M  V30 18505 H 1769.27 1.86879 2.343 0
M  V30 18506 H 1766.83 1.1192 1.16985 0
M  V30 18507 H 1768.82 -0.00292068 4.047 0
M  V30 18508 H 1767.39 -0.466283 3.09103 0
M  V30 18509 H 1766.61 2.00056 3.39664 0
M  V30 18510 H 1767.9 2.16846 4.60277 0
M  V30 18511 H 1767.3 -0.855 5.59201 0
M  V30 18512 H 1765.85 -0.603494 6.49 0
M  V30 18513 N 1769.29 -1.19996 1.0217 0
M  V30 18514 C 1770.2 -2.26634 0.606136 0
M  V30 18515 C 1771.21 -1.70262 -0.358746 0
M  V30 18516 O 1772.39 -2.00212 -0.218422 0
M  V30 18517 C 1769.45 -3.46672 -0.0439096 0
M  V30 18518 C 1768.51 -4.18254 0.967563 0
M  V30 18519 C 1767.75 -5.32561 0.348443 0
M  V30 18520 O 1767.97 -5.64024 -0.850508 0
M  V30 18521 O 1766.9 -5.92354 1.06772 0
M  V30 18522 H 1770.73 -2.64407 1.49407 0
M  V30 18523 H 1768.31 -1.26712 0.791483 0
M  V30 18524 H 1770.2 -4.19433 -0.406714 0
M  V30 18525 H 1768.87 -3.10764 -0.90596 0
M  V30 18526 H 1767.78 -3.47644 1.38183 0
M  V30 18527 H 1769.11 -4.58116 1.79975 0
M  V30 18528 N 1770.76 -0.798611 -1.35867 0
M  V30 18529 C 1772.01 -0.371795 -1.98244 0
M  V30 18530 C 1772.33 1.06474 -1.64081 0
M  V30 18531 O 1773.53 1.59428 -2.19761 0
M  V30 18532 C 1771.99 -0.613821 -3.54627 0
M  V30 18533 C 1771.6 -2.06237 -3.97706 0
M  V30 18534 C 1773.34 -0.251966 -4.23752 0
M  V30 18535 C 1771.25 -2.25057 -5.46903 0
M  V30 18536 H 1770.18 -0.135278 -0.741765 0
M  V30 18537 H 1772.83 -0.981544 -1.55042 0
M  V30 18538 H 1771.21 0.0657688 -3.95945 0
M  V30 18539 H 1772.38 -2.77912 -3.67562 0
M  V30 18540 H 1770.7 -2.38334 -3.41447 0
M  V30 18541 H 1773.3 -0.370736 -5.33413 0
M  V30 18542 H 1773.64 0.800968 -4.08522 0
M  V30 18543 H 1774.17 -0.885155 -3.87827 0
M  V30 18544 H 1770.91 -3.28767 -5.67091 0
M  V30 18545 H 1770.43 -1.57898 -5.78643 0
M  V30 18546 H 1772.11 -2.06219 -6.13256 0
M  V30 18547 N 1772.24 1.47639 -0.551417 0
M  V30 18548 C 1773.17 2.32743 0.187887 0
M  V30 18549 C 1774.15 1.43432 0.914407 0
M  V30 18550 O 1775.34 1.72295 0.896005 0
M  V30 18551 C 1772.47 3.25092 1.22199 0
M  V30 18552 C 1771.42 4.23598 0.612298 0
M  V30 18553 C 1770.75 5.0523 1.75062 0
M  V30 18554 C 1772.05 5.20526 -0.430135 0
M  V30 18555 H 1773.74 2.94804 -0.522598 0
M  V30 18556 H 1771.29 1.41764 -0.252768 0
M  V30 18557 H 1773.24 3.83467 1.74731 0
M  V30 18558 H 1771.96 2.61074 1.96235 0
M  V30 18559 H 1770.62 3.6644 0.108324 0
M  V30 18560 H 1770.27 4.3762 2.47987 0
M  V30 18561 H 1769.97 5.71918 1.34848 0
M  V30 18562 H 1771.5 5.66463 2.27931 0
M  V30 18563 H 1772.91 5.73299 0.00890168 0
M  V30 18564 H 1771.31 5.95384 -0.750836 0
M  V30 18565 H 1772.38 4.66356 -1.32815 0
M  V30 18566 N 1773.72 0.287581 1.54954 0
M  V30 18567 C 1774.97 -0.32561 1.99865 0
M  V30 18568 C 1775.3 -1.54921 1.176 0
M  V30 18569 O 1774.55 -1.94262 0.236802 0
M  V30 18570 C 1774.85 -0.739779 3.4966 0
M  V30 18571 C 1774.52 0.380573 4.49291 0
M  V30 18572 C 1773.18 0.688172 4.76254 0
M  V30 18573 C 1775.53 1.13489 5.08694 0
M  V30 18574 C 1772.86 1.75344 5.59885 0
M  V30 18575 C 1775.21 2.18998 5.93484 0
M  V30 18576 C 1773.87 2.50379 6.18762 0
M  V30 18577 H 1773.14 -0.119149 0.731358 0
M  V30 18578 H 1775.79 0.403889 1.87192 0
M  V30 18579 H 1774.1 -1.54915 3.59873 0
M  V30 18580 H 1775.79 -1.22518 3.81825 0
M  V30 18581 H 1772.38 0.130718 4.28401 0
M  V30 18582 H 1776.57 0.910505 4.87877 0
M  V30 18583 H 1771.82 2.00145 5.77713 0
M  V30 18584 H 1776 2.77913 6.38543 0
M  V30 18585 H 1773.62 3.33057 6.83357 0
M  V30 18586 N 1775.2 -1.57593 0.0150662 0
M  V30 18587 C 1776.15 -2.10501 -0.989557 0
M  V30 18588 C 1777.14 -1.02836 -1.34615 0
M  V30 18589 O 1778.35 -1.21286 -1.33002 0
M  V30 18590 H 1774.72 -0.672343 -0.336838 0
M  V30 18591 H 1776.69 -2.93871 -0.517893 0
M  V30 18592 C 1775.44 -2.63583 -2.26759 0
M  V30 18593 H 1774.76 -3.46069 -2.00191 0
M  V30 18594 H 1776.2 -3.04264 -2.95295 0
M  V30 18595 C 1774.66 -1.5568 -2.98773 0
M  V30 18596 O 1775.19 -0.948437 -3.90343 0
M  V30 18597 N 1773.4 -1.28062 -2.60861 0
M  V30 18598 H 1772.95 -1.77719 -1.86477 0
M  V30 18599 H 1772.9 -0.560878 -3.09357 0
M  V30 18600 N 1776.68 0.257904 -1.55475 0
M  V30 18601 C 1777.62 1.33893 -1.90198 0
M  V30 18602 C 1778.62 1.50381 -0.779868 0
M  V30 18603 O 1779.82 1.51986 -0.964376 0
M  V30 18604 H 1776.2 0.448115 -0.603901 0
M  V30 18605 H 1778.17 1.01868 -2.80474 0
M  V30 18606 C 1776.92 2.68954 -2.20361 0
M  V30 18607 H 1776.24 2.57064 -3.062 0
M  V30 18608 H 1777.68 3.43498 -2.48567 0
M  V30 18609 C 1776.14 3.21208 -1.01623 0
M  V30 18610 O 1776.67 4.00867 -0.258567 0
M  V30 18611 N 1774.88 2.79088 -0.809825 0
M  V30 18612 H 1774.42 2.1442 -1.42764 0
M  V30 18613 H 1774.38 3.14395 -0.0170171 0
M  V30 18614 N 1778.15 1.48666 0.52309 0
M  V30 18615 C 1779.4 1.57267 1.28043 0
M  V30 18616 C 1779.73 0.248801 1.926 0
M  V30 18617 O 1779.01 -0.745814 1.79633 0
M  V30 18618 C 1779.29 2.71595 2.36449 0
M  V30 18619 C 1779.14 4.13708 1.76538 0
M  V30 18620 C 1780.46 2.81654 3.3817 0
M  V30 18621 H 1777.58 0.572455 0.464181 0
M  V30 18622 H 1780.22 1.80866 0.582013 0
M  V30 18623 H 1778.37 2.51604 2.9602 0
M  V30 18624 H 1780.05 4.45158 1.20964 0
M  V30 18625 H 1778.29 4.20386 1.07041 0
M  V30 18626 H 1778.96 4.89538 2.55062 0
M  V30 18627 H 1781.44 2.99784 2.88563 0
M  V30 18628 H 1780.31 3.63366 4.11408 0
M  V30 18629 H 1780.57 1.90093 3.99145 0
M  V30 18630 N 1779.63 -0.772489 1.37369 0
M  V30 18631 C 1781.05 -1.07294 1.18153 0
M  V30 18632 C 1781.25 -2.01493 0.0171782 0
M  V30 18633 O 1780.3 -2.44177 -0.642964 0
M  V30 18634 C 1781.62 -1.67116 2.49986 0
M  V30 18635 C 1783.17 -1.79377 2.56501 0
M  V30 18636 C 1783.64 -2.42612 3.88463 0
M  V30 18637 N 1785.13 -2.50063 3.89901 0
M  V30 18638 C 1785.87 -2.99841 4.88756 0
M  V30 18639 N 1785.36 -3.49798 5.98008 0
M  V30 18640 N 1787.16 -2.98709 4.76161 0
M  V30 18641 H 1779.31 -0.147014 2.11891 0
M  V30 18642 H 1781.57 -0.127846 0.93934 0
M  V30 18643 H 1781.28 -1.05369 3.35545 0
M  V30 18644 H 1781.15 -2.6642 2.67021 0
M  V30 18645 H 1783.54 -2.40257 1.71349 0
M  V30 18646 H 1783.62 -0.788304 2.4335 0
M  V30 18647 H 1783.26 -1.82372 4.74029 0
M  V30 18648 H 1783.19 -3.43763 3.98917 0
M  V30 18649 H 1785.68 -2.14709 3.1098 0
M  V30 18650 H 1786 -3.86181 6.69391 0
M  V30 18651 H 1784.34 -3.47905 6.01654 0
M  V30 18652 H 1787.53 -2.5898 3.89932 0
M  V30 18653 H 1787.7 -3.37193 5.53358 0
M  V30 18654 N 1781.11 -1.21927 -0.998575 0
M  V30 18655 C 1782.36 -1.05199 -1.74082 0
M  V30 18656 C 1782.71 0.409387 -1.87994 0
M  V30 18657 O 1782 1.29958 -1.40788 0
M  V30 18658 C 1782.2 -1.69015 -3.1491 0
M  V30 18659 C 1782.03 -3.21208 -3.14731 0
M  V30 18660 C 1780.8 -3.90284 -3.20946 0
M  V30 18661 C 1783 -4.18214 -2.99335 0
M  V30 18662 N 1780.98 -5.29611 -3.10461 0
M  V30 18663 C 1782.35 -5.44334 -2.96816 0
M  V30 18664 C 1784.4 -4.09179 -2.83684 0
M  V30 18665 C 1783.11 -6.62459 -2.80251 0
M  V30 18666 C 1785.13 -5.26948 -2.68477 0
M  V30 18667 C 1784.49 -6.51983 -2.66641 0
M  V30 18668 H 1780.59 -0.439342 -0.646918 0
M  V30 18669 H 1783.18 -1.54381 -1.18636 0
M  V30 18670 H 1781.35 -1.22392 -3.68612 0
M  V30 18671 H 1783.08 -1.45433 -3.77666 0
M  V30 18672 H 1779.84 -3.41248 -3.284 0
M  V30 18673 H 1780.26 -6.02603 -3.08543 0
M  V30 18674 H 1784.9 -3.13301 -2.83905 0
M  V30 18675 H 1782.62 -7.58492 -2.78776 0
M  V30 18676 H 1786.21 -5.21784 -2.57358 0
M  V30 18677 H 1785.09 -7.41577 -2.55016 0
M  V30 18678 N 1782.59 1.19452 -1.02805 0
M  V30 18679 C 1783.52 2.24875 -0.628752 0
M  V30 18680 C 1784.5 1.66207 0.361844 0
M  V30 18681 O 1785.68 1.92652 0.244743 0
M  V30 18682 C 1782.81 3.47293 0.0220954 0
M  V30 18683 C 1781.77 4.1863 -0.890693 0
M  V30 18684 C 1781.09 5.34597 -0.104997 0
M  V30 18685 C 1782.39 4.73518 -2.20405 0
M  V30 18686 H 1784.09 2.5853 -1.51005 0
M  V30 18687 H 1781.63 1.24271 -0.727518 0
M  V30 18688 H 1783.59 4.20235 0.313073 0
M  V30 18689 H 1782.31 3.12835 0.938182 0
M  V30 18690 H 1780.97 3.47568 -1.16585 0
M  V30 18691 H 1780.62 4.96385 0.813098 0
M  V30 18692 H 1780.32 5.83258 -0.712983 0
M  V30 18693 H 1781.84 6.10337 0.179259 0
M  V30 18694 H 1783.26 5.3822 -1.97465 0
M  V30 18695 H 1781.65 5.32663 -2.76388 0
M  V30 18696 H 1782.72 3.9163 -2.85926 0
M  V30 18697 N 1784.07 0.805805 1.35442 0
M  V30 18698 C 1785.29 0.397179 2.03561 0
M  V30 18699 C 1785.72 -0.983665 1.6033 0
M  V30 18700 O 1785.07 -1.63683 0.779586 0
M  V30 18701 C 1785.12 0.487813 3.57285 0
M  V30 18702 O 1784.23 -0.499039 4.09369 0
M  V30 18703 H 1783.57 0.166009 0.642913 0
M  V30 18704 H 1786.1 1.09147 1.73055 0
M  V30 18705 H 1786.11 0.357334 4.06432 0
M  V30 18706 H 1784.78 1.49501 3.88101 0
M  V30 18707 H 1783.36 -0.328864 3.71447 0
M  V30 18708 N 1785.54 -1.47344 0.559239 0
M  V30 18709 C 1786.79 -2.01672 0.0337843 0
M  V30 18710 C 1787.11 -1.43883 -1.32503 0
M  V30 18711 O 1788.31 -1.89885 -1.94051 0
M  V30 18712 C 1786.77 -3.59899 0.00989925 0
M  V30 18713 C 1786.38 -4.2668 1.3656 0
M  V30 18714 C 1788.12 -4.21969 -0.462842 0
M  V30 18715 C 1786.03 -5.76919 1.30071 0
M  V30 18716 H 1784.96 -0.753948 0.00885972 0
M  V30 18717 H 1787.61 -1.69317 0.707394 0
M  V30 18718 H 1785.99 -3.89225 -0.729399 0
M  V30 18719 H 1787.16 -4.08993 2.12277 0
M  V30 18720 H 1785.48 -3.76605 1.77644 0
M  V30 18721 H 1788.08 -5.32069 -0.529816 0
M  V30 18722 H 1788.42 -3.89283 -1.47528 0
M  V30 18723 H 1788.95 -3.97182 0.221661 0
M  V30 18724 H 1785.69 -6.14227 2.28921 0
M  V30 18725 H 1785.21 -5.96937 0.585375 0
M  V30 18726 H 1786.89 -6.39168 1.00364 0
M  V30 18727 N 1787.02 -0.295795 -1.54799 0
M  V30 18728 C 1787.95 0.616191 -2.20762 0
M  V30 18729 C 1788.97 1.10157 -1.19872 0
M  V30 18730 O 1790.16 1.01992 -1.46492 0
M  V30 18731 C 1787.26 1.85497 -2.83627 0
M  V30 18732 C 1786.43 1.51295 -4.10401 0
M  V30 18733 C 1785.49 2.60633 -4.57118 0
M  V30 18734 O 1784.51 2.25945 -5.22434 0
M  V30 18735 N 1785.72 3.91078 -4.28997 0
M  V30 18736 H 1788.48 0.0515252 -2.99656 0
M  V30 18737 H 1786.04 -0.11777 -1.61471 0
M  V30 18738 H 1788.03 2.57979 -3.11816 0
M  V30 18739 H 1786.6 2.32816 -2.08604 0
M  V30 18740 H 1785.82 0.621 -3.89278 0
M  V30 18741 H 1787.11 1.25974 -4.92958 0
M  V30 18742 H 1786.51 4.22072 -3.76659 0
M  V30 18743 H 1785.07 4.59875 -4.61907 0
M  V30 18744 N 1788.5 1.57583 -0.0234236 0
M  V30 18745 C 1789.73 1.96267 0.670371 0
M  V30 18746 C 1790.15 0.899586 1.65194 0
M  V30 18747 O 1789.51 -0.140079 1.80758 0
M  V30 18748 C 1789.56 3.34049 1.35806 0
M  V30 18749 O 1788.66 3.3001 2.4732 0
M  V30 18750 H 1788 0.640097 0.176557 0
M  V30 18751 H 1790.53 2.04429 -0.0835829 0
M  V30 18752 H 1790.54 3.70151 1.71616 0
M  V30 18753 H 1789.22 4.10969 0.63852 0
M  V30 18754 H 1787.79 3.05618 2.13664 0
M  V30 18755 N 1789.98 -0.249655 1.5561 0
M  V30 18756 C 1790.93 -1.30906 1.90085 0
M  V30 18757 C 1791.9 -1.4796 0.754784 0
M  V30 18758 O 1793.08 -1.61988 1.00819 0
M  V30 18759 C 1790.22 -2.66 2.19859 0
M  V30 18760 C 1789.33 -2.56976 3.47257 0
M  V30 18761 C 1788.47 -3.84404 3.66615 0
M  V30 18762 C 1787.51 -3.69986 4.87623 0
M  V30 18763 N 1786.65 -4.89301 5.03517 0
M  V30 18764 H 1791.49 -1.00805 2.80432 0
M  V30 18765 H 1789.02 -0.486509 1.38822 0
M  V30 18766 H 1790.98 -3.44632 2.35126 0
M  V30 18767 H 1789.61 -2.94254 1.32719 0
M  V30 18768 H 1788.66 -1.69927 3.40337 0
M  V30 18769 H 1789.97 -2.42231 4.36034 0
M  V30 18770 H 1789.13 -4.7148 3.81826 0
M  V30 18771 H 1787.87 -4.02043 2.76066 0
M  V30 18772 H 1786.87 -2.81294 4.72391 0
M  V30 18773 H 1788.1 -3.53845 5.7963 0
M  V30 18774 H 1786.04 -5.07306 4.15905 0
M  V30 18775 H 1785.96 -4.77176 5.86378 0
M  V30 18776 H 1787.23 -5.77883 5.23137 0
M  V30 18777 N 1791.46 -1.48941 -0.515198 0
M  V30 18778 C 1792.87 -1.35389 -0.8451 0
M  V30 18779 C 1793.07 -0.376141 -1.97958 0
M  V30 18780 O 1792.13 0.197324 -2.51728 0
M  V30 18781 C 1793.44 -2.75775 -1.19868 0
M  V30 18782 C 1794.99 -2.84373 -1.30772 0
M  V30 18783 C 1795.47 -4.25494 -1.69466 0
M  V30 18784 N 1796.96 -4.28237 -1.76542 0
M  V30 18785 C 1797.69 -5.34384 -2.07898 0
M  V30 18786 N 1797.19 -6.50792 -2.37575 0
M  V30 18787 N 1798.98 -5.21789 -2.09029 0
M  V30 18788 H 1791.13 -2.11117 0.233118 0
M  V30 18789 H 1793.39 -0.947083 0.0416757 0
M  V30 18790 H 1793.1 -3.48955 -0.438565 0
M  V30 18791 H 1792.97 -3.10243 -2.14545 0
M  V30 18792 H 1795.36 -2.11439 -2.05858 0
M  V30 18793 H 1795.44 -2.53506 -0.341808 0
M  V30 18794 H 1795.09 -4.98949 -0.949358 0
M  V30 18795 H 1795.02 -4.53814 -2.67133 0
M  V30 18796 H 1797.51 -3.44278 -1.55824 0
M  V30 18797 H 1797.82 -7.27518 -2.60649 0
M  V30 18798 H 1796.17 -6.54042 -2.35062 0
M  V30 18799 H 1799.36 -4.29858 -1.85311 0
M  V30 18800 H 1799.53 -6.0461 -2.33133 0
M  V30 18801 N 1792.94 0.765193 -1.37777 0
M  V30 18802 C 1794.18 1.52397 -1.33347 0
M  V30 18803 C 1794.51 1.94335 0.0800559 0
M  V30 18804 O 1793.77 1.64847 1.05469 0
M  V30 18805 C 1794.06 2.79732 -2.22452 0
M  V30 18806 C 1793.73 2.56814 -3.70618 0
M  V30 18807 C 1792.39 2.50272 -4.10996 0
M  V30 18808 C 1794.74 2.36494 -4.64457 0
M  V30 18809 C 1792.07 2.2141 -5.43318 0
M  V30 18810 C 1794.42 2.09155 -5.97024 0
M  V30 18811 C 1793.09 2.01062 -6.36499 0
M  V30 18812 H 1792.36 0.55766 -0.487951 0
M  V30 18813 H 1795.01 0.880853 -1.70039 0
M  V30 18814 H 1793.31 3.48635 -1.78777 0
M  V30 18815 H 1795.01 3.37639 -2.16335 0
M  V30 18816 H 1791.6 2.62771 -3.38599 0
M  V30 18817 H 1795.78 2.40534 -4.34117 0
M  V30 18818 H 1791.04 2.13644 -5.72858 0
M  V30 18819 H 1795.21 1.92433 -6.69285 0
M  V30 18820 H 1792.84 1.78462 -7.38956 0
M  V30 18821 N 1794.41 1.22455 0.992094 0
M  V30 18822 C 1795.38 0.996703 2.06394 0
M  V30 18823 C 1796.38 -0.0371659 1.60757 0
M  V30 18824 O 1797.57 0.20142 1.73032 0
M  V30 18825 C 1794.7 0.505675 3.37129 0
M  V30 18826 H 1795.89 1.94776 2.28041 0
M  V30 18827 H 1793.44 1.04335 1.16378 0
M  V30 18828 H 1794.18 -0.449697 3.21167 0
M  V30 18829 H 1793.96 1.25158 3.71588 0
M  V30 18830 H 1795.45 0.366535 4.15988 0
M  V30 18831 N 1795.89 -1.18905 1.03437 0
M  V30 18832 C 1797.3 -1.70402 0.762893 0
M  V30 18833 C 1797.65 -1.82633 -0.716908 0
M  V30 18834 O 1796.78 -1.50136 -1.55847 0
M  V30 18835 C 1797.37 -3.09501 1.37822 0
M  V30 18836 C 1795.93 -3.58235 1.1552 0
M  V30 18837 C 1795.08 -2.34953 1.47284 0
M  V30 18838 H 1798.03 -1.03669 1.2016 0
M  V30 18839 H 1798.05 -3.7246 0.778079 0
M  V30 18840 H 1797.56 -3.00566 2.45523 0
M  V30 18841 H 1795.66 -3.72475 0.096646 0
M  V30 18842 H 1795.78 -4.42034 1.84778 0
M  V30 18843 H 1794.14 -2.38557 0.892333 0
M  V30 18844 H 1794.92 -2.28643 2.5608 0
M  V30 18845 N 1797.37 -0.812977 -1.35013 0
M  V30 18846 C 1798.3 -0.242397 -2.32238 0
M  V30 18847 C 1799.28 0.635676 -1.57776 0
M  V30 18848 O 1800.47 0.564621 -1.85811 0
M  V30 18849 C 1797.6 0.604686 -3.41995 0
M  V30 18850 C 1796.55 -0.17542 -4.2764 0
M  V30 18851 C 1795.88 0.793772 -5.28775 0
M  V30 18852 C 1797.18 -1.37802 -5.03794 0
M  V30 18853 H 1798.87 -1.0547 -2.80208 0
M  V30 18854 H 1796.42 -0.508619 -1.34718 0
M  V30 18855 H 1798.37 1.01396 -4.09019 0
M  V30 18856 H 1797.09 1.44994 -2.9265 0
M  V30 18857 H 1795.75 -0.565948 -3.62205 0
M  V30 18858 H 1795.4 1.63471 -4.75696 0
M  V30 18859 H 1795.1 0.276085 -5.86951 0
M  V30 18860 H 1796.62 1.20112 -5.9867 0
M  V30 18861 H 1798.04 -1.04328 -5.63727 0
M  V30 18862 H 1796.43 -1.83064 -5.71496 0
M  V30 18863 H 1797.5 -2.16138 -4.34065 0
M  V30 18864 N 1798.85 1.47045 -0.567045 0
M  V30 18865 C 1800.08 2.06535 -0.0517558 0
M  V30 18866 C 1800.49 1.41873 1.25174 0
M  V30 18867 O 1799.83 0.512695 1.764 0
M  V30 18868 C 1799.89 3.58917 0.204611 0
M  V30 18869 C 1799.55 4.45678 -1.01092 0
M  V30 18870 C 1800.55 4.83187 -1.91902 0
M  V30 18871 C 1798.24 4.87049 -1.22837 0
M  V30 18872 C 1800.23 5.60876 -3.02815 0
M  V30 18873 C 1797.92 5.645 -2.34058 0
M  V30 18874 C 1798.92 6.01325 -3.23878 0
M  V30 18875 O 1798.6 6.77214 -4.3317 0
M  V30 18876 H 1798.34 0.674342 -0.0473177 0
M  V30 18877 H 1800.89 1.89894 -0.782909 0
M  V30 18878 H 1799.12 3.73808 0.990192 0
M  V30 18879 H 1800.81 4.00391 0.666485 0
M  V30 18880 H 1801.57 4.51818 -1.76312 0
M  V30 18881 H 1797.45 4.57845 -0.538387 0
M  V30 18882 H 1801 5.89538 -3.72948 0
M  V30 18883 H 1796.89 5.95283 -2.49617 0
M  V30 18884 H 1797.66 6.9562 -4.31341 0
M  V30 18885 N 1800.33 0.304 1.5464 0
M  V30 18886 C 1801.29 -0.557917 2.22306 0
M  V30 18887 C 1802.29 -1.05895 1.21008 0
M  V30 18888 O 1803.48 -0.954497 1.45722 0
M  V30 18889 C 1800.61 -1.77279 2.91178 0
M  V30 18890 H 1801.8 0.0333187 2.99881 0
M  V30 18891 H 1799.36 0.0548659 1.56204 0
M  V30 18892 H 1800.09 -2.40378 2.17689 0
M  V30 18893 H 1799.88 -1.42115 3.65439 0
M  V30 18894 H 1801.37 -2.38507 3.42789 0
M  V30 18895 N 1801.8 -1.57568 0.0317802 0
M  V30 18896 C 1802.73 -2.13412 -0.947499 0
M  V30 18897 C 1803.71 -1.05091 -1.33753 0
M  V30 18898 O 1804.9 -1.32936 -1.41568 0
M  V30 18899 C 1802.03 -2.66337 -2.22895 0
M  V30 18900 C 1800.98 -3.79469 -1.97958 0
M  V30 18901 C 1800.31 -4.18833 -3.3239 0
M  V30 18902 C 1801.61 -5.05432 -1.31664 0
M  V30 18903 H 1803.3 -2.95488 -0.482417 0
M  V30 18904 H 1800.85 -1.42142 -0.230603 0
M  V30 18905 H 1802.8 -3.04039 -2.91784 0
M  V30 18906 H 1801.53 -1.81426 -2.71574 0
M  V30 18907 H 1800.19 -3.42209 -1.31485 0
M  V30 18908 H 1799.83 -3.30899 -3.78833 0
M  V30 18909 H 1799.53 -4.95071 -3.16511 0
M  V30 18910 H 1801.06 -4.5912 -4.02544 0
M  V30 18911 H 1802.47 -5.40704 -1.90558 0
M  V30 18912 H 1800.87 -5.86686 -1.26173 0
M  V30 18913 H 1801.94 -4.84032 -0.28996 0
M  V30 18914 N 1803.28 0.241399 -1.5574 0
M  V30 18915 C 1804.19 1.32034 -1.93918 0
M  V30 18916 C 1805.21 1.52363 -0.840331 0
M  V30 18917 O 1806.38 1.65879 -1.1422 0
M  V30 18918 C 1803.45 2.6539 -2.2309 0
M  V30 18919 C 1802.51 2.53536 -3.46436 0
M  V30 18920 C 1801.74 3.80532 -3.74208 0
M  V30 18921 O 1801.97 4.82662 -3.03964 0
M  V30 18922 O 1800.9 3.78834 -4.67727 0
M  V30 18923 H 1804.73 1.02647 -2.85827 0
M  V30 18924 H 1802.31 0.442616 -1.42693 0
M  V30 18925 H 1804.19 3.44184 -2.43137 0
M  V30 18926 H 1802.87 2.94499 -1.34358 0
M  V30 18927 H 1801.78 1.73009 -3.3169 0
M  V30 18928 H 1803.11 2.29371 -4.35488 0
M  V30 18929 N 1804.76 1.49212 0.507292 0
M  V30 18930 C 1805.72 1.64908 1.59179 0
M  V30 18931 C 1806.72 0.521176 1.5212 0
M  V30 18932 O 1807.91 0.787492 1.55384 0
M  V30 18933 C 1805.05 1.64057 2.98828 0
M  V30 18934 H 1806.24 2.6163 1.46593 0
M  V30 18935 H 1803.79 1.38149 0.731062 0
M  V30 18936 H 1804.53 0.688956 3.16897 0
M  V30 18937 H 1804.31 2.45963 3.0536 0
M  V30 18938 H 1805.8 1.78279 3.77633 0
M  V30 18939 N 1806.24 -0.757876 1.38181 0
M  V30 18940 C 1807.19 -1.87152 1.35065 0
M  V30 18941 C 1808.16 -1.64717 0.213892 0
M  V30 18942 O 1809.34 -1.86442 0.405448 0
M  V30 18943 C 1806.48 -3.24398 1.17728 0
M  V30 18944 C 1805.59 -3.58694 2.40754 0
M  V30 18945 C 1804.73 -4.85221 2.16181 0
M  V30 18946 C 1803.77 -5.1229 3.35001 0
M  V30 18947 N 1802.9 -6.3001 3.0989 0
M  V30 18948 H 1807.74 -1.89151 2.30274 0
M  V30 18949 H 1805.28 -0.924571 1.14412 0
M  V30 18950 H 1807.24 -4.0359 1.05694 0
M  V30 18951 H 1805.87 -3.21738 0.261606 0
M  V30 18952 H 1804.92 -2.74379 2.63477 0
M  V30 18953 H 1806.23 -3.74628 3.29325 0
M  V30 18954 H 1805.39 -5.72346 2.01258 0
M  V30 18955 H 1804.13 -4.71417 1.24969 0
M  V30 18956 H 1803.13 -4.23635 3.50448 0
M  V30 18957 H 1804.36 -5.27993 4.27083 0
M  V30 18958 H 1802.3 -6.17538 2.21321 0
M  V30 18959 H 1802.22 -6.46425 3.92009 0
M  V30 18960 H 1803.49 -7.20035 2.98613 0
M  V30 18961 N 1807.72 -1.22979 -0.985586 0
M  V30 18962 C 1809.13 -0.991329 -1.25079 0
M  V30 18963 C 1809.33 0.310701 -1.9909 0
M  V30 18964 O 1808.39 1.03147 -2.30471 0
M  V30 18965 C 1809.7 -2.19483 -2.05542 0
M  V30 18966 C 1811.25 -2.23918 -2.187 0
M  V30 18967 C 1811.72 -3.43841 -3.02552 0
M  V30 18968 N 1813.22 -3.44048 -3.10137 0
M  V30 18969 C 1813.95 -4.33493 -3.75328 0
M  V30 18970 N 1813.45 -5.33167 -4.42385 0
M  V30 18971 N 1815.24 -4.2125 -3.72163 0
M  V30 18972 H 1807.39 -2.0668 -0.489617 0
M  V30 18973 H 1809.65 -0.906048 -0.278892 0
M  V30 18974 H 1809.36 -3.13945 -1.5853 0
M  V30 18975 H 1809.23 -2.20144 -3.06295 0
M  V30 18976 H 1811.62 -1.3 -2.64923 0
M  V30 18977 H 1811.7 -2.27293 -1.17353 0
M  V30 18978 H 1811.35 -4.38063 -2.57027 0
M  V30 18979 H 1811.28 -3.37707 -4.04056 0
M  V30 18980 H 1813.77 -2.71927 -2.6242 0
M  V30 18981 H 1814.08 -5.97684 -4.89892 0
M  V30 18982 H 1812.42 -5.37073 -4.4111 0
M  V30 18983 H 1815.62 -3.42629 -3.18941 0
M  V30 18984 H 1815.79 -4.91162 -4.22687 0
M  V30 18985 N 1809.19 1.18355 -1.04066 0
M  V30 18986 C 1810.44 1.87665 -0.73923 0
M  V30 18987 C 1810.76 1.81226 0.735963 0
M  V30 18988 O 1811.96 2.45899 1.15091 0
M  V30 18989 C 1810.42 3.36671 -1.27203 0
M  V30 18990 C 1810.03 3.5164 -2.77585 0
M  V30 18991 C 1811.77 4.11383 -1.04712 0
M  V30 18992 C 1809.68 4.94605 -3.24222 0
M  V30 18993 H 1808.61 0.702908 -0.27283 0
M  V30 18994 H 1811.26 1.33733 -1.25649 0
M  V30 18995 H 1809.64 3.90072 -0.682621 0
M  V30 18996 H 1810.81 3.08511 -3.42283 0
M  V30 18997 H 1809.13 2.90334 -2.98488 0
M  V30 18998 H 1811.73 5.16832 -1.37071 0
M  V30 18999 H 1812.07 4.16297 0.0156344 0
M  V30 19000 H 1812.6 3.64154 -1.60114 0
M  V30 19001 H 1809.34 4.94859 -4.29878 0
M  V30 19002 H 1808.86 5.38449 -2.6426 0
M  V30 19003 H 1810.54 5.6332 -3.18245 0
M  V30 19004 N 1810.67 0.820125 1.3458 0
M  V30 19005 C 1811.6 0.197556 2.28347 0
M  V30 19006 C 1812.62 -0.610956 1.50901 0
M  V30 19007 O 1813.81 -0.441096 1.72964 0
M  V30 19008 C 1810.91 -0.741893 3.3068 0
M  V30 19009 C 1810.08 0.0231854 4.37394 0
M  V30 19010 C 1809.14 -0.83677 5.19504 0
M  V30 19011 O 1808.16 -0.282772 5.68497 0
M  V30 19012 N 1809.37 -2.15696 5.38939 0
M  V30 19013 H 1812.13 1.00314 2.82413 0
M  V30 19014 H 1809.69 0.676827 1.47074 0
M  V30 19015 H 1811.68 -1.32173 3.82508 0
M  V30 19016 H 1810.25 -1.44823 2.77029 0
M  V30 19017 H 1809.47 0.784316 3.86319 0
M  V30 19018 H 1810.76 0.549958 5.05819 0
M  V30 19019 H 1810.16 -2.63083 5.00803 0
M  V30 19020 H 1808.72 -2.68572 5.93896 0
M  V30 19021 N 1812.15 -1.46743 0.574835 0
M  V30 19022 C 1813.1 -2.30224 -0.162908 0
M  V30 19023 C 1814.07 -1.4014 -0.891629 0
M  V30 19024 O 1815.25 -1.69094 -0.883854 0
M  V30 19025 C 1812.39 -3.24456 -1.1757 0
M  V30 19026 C 1811.51 -4.29637 -0.451233 0
M  V30 19027 C 1810.64 -5.11003 -1.45085 0
M  V30 19028 C 1809.68 -6.07941 -0.712353 0
M  V30 19029 N 1808.82 -6.82202 -1.65965 0
M  V30 19030 H 1813.66 -2.92785 0.555063 0
M  V30 19031 H 1811.19 -1.44302 0.285546 0
M  V30 19032 H 1813.15 -3.77526 -1.77567 0
M  V30 19033 H 1811.78 -2.63721 -1.86148 0
M  V30 19034 H 1810.83 -3.79485 0.263623 0
M  V30 19035 H 1812.15 -4.9864 0.126468 0
M  V30 19036 H 1811.3 -5.68311 -2.12386 0
M  V30 19037 H 1810.04 -4.41942 -2.06248 0
M  V30 19038 H 1809.04 -5.49794 -0.0255266 0
M  V30 19039 H 1810.27 -6.79017 -0.106227 0
M  V30 19040 H 1808.21 -6.15858 -2.25953 0
M  V30 19041 H 1808.13 -7.47438 -1.13456 0
M  V30 19042 H 1809.4 -7.44073 -2.32325 0
M  V30 19043 N 1813.63 -0.312197 -1.54477 0
M  V30 19044 C 1814.56 0.551829 -2.26886 0
M  V30 19045 C 1815.54 1.12874 -1.27254 0
M  V30 19046 O 1816.72 1.15599 -1.56046 0
M  V30 19047 C 1813.85 1.71839 -3.01809 0
M  V30 19048 C 1812.81 1.27131 -4.08683 0
M  V30 19049 C 1812.13 2.52392 -4.71384 0
M  V30 19050 C 1813.43 0.394413 -5.20809 0
M  V30 19051 H 1815.13 -0.0521331 -2.99355 0
M  V30 19052 H 1812.67 -0.0265138 -1.43976 0
M  V30 19053 H 1814.63 2.32903 -3.5119 0
M  V30 19054 H 1813.35 2.34876 -2.26938 0
M  V30 19055 H 1812.01 0.683666 -3.60169 0
M  V30 19056 H 1811.66 3.13768 -3.93139 0
M  V30 19057 H 1811.36 2.23174 -5.43569 0
M  V30 19058 H 1812.88 3.14239 -5.23533 0
M  V30 19059 H 1814.3 0.911031 -5.66015 0
M  V30 19060 H 1812.69 0.195517 -5.99781 0
M  V30 19061 H 1813.76 -0.577661 -4.81447 0
M  V30 19062 N 1815.11 1.57549 -0.040136 0
M  V30 19063 C 1816.02 2.14351 0.953457 0
M  V30 19064 C 1817.03 1.09851 1.3494 0
M  V30 19065 O 1818.21 1.41965 1.42857 0
M  V30 19066 C 1815.27 2.66832 2.21363 0
M  V30 19067 C 1814.33 3.86088 1.87708 0
M  V30 19068 C 1813.57 4.36057 3.07718 0
M  V30 19069 O 1813.79 3.85147 4.20735 0
M  V30 19070 O 1812.72 5.27775 2.89374 0
M  V30 19071 H 1816.55 2.99549 0.500423 0
M  V30 19072 H 1814.14 1.48298 0.18112 0
M  V30 19073 H 1816.02 3.00605 2.95321 0
M  V30 19074 H 1814.69 1.84711 2.65826 0
M  V30 19075 H 1813.6 3.57222 1.11101 0
M  V30 19076 H 1814.93 4.69405 1.48053 0
M  V30 19077 N 1816.58 -0.233136 1.55866 0
M  V30 19078 C 1817.53 -1.29204 1.87857 0
M  V30 19079 C 1818.52 -1.42842 0.740607 0
M  V30 19080 O 1819.71 -1.45852 1.00281 0
M  V30 19081 C 1816.84 -2.6448 2.18873 0
M  V30 19082 C 1815.93 -2.5479 3.39032 0
M  V30 19083 N 1816.32 -2.14742 4.57952 0
M  V30 19084 C 1814.61 -2.85774 3.42417 0
M  V30 19085 C 1815.32 -2.1602 5.40102 0
M  V30 19086 N 1814.29 -2.5606 4.79515 0
M  V30 19087 H 1818.09 -0.973116 2.77322 0
M  V30 19088 H 1815.61 -0.441733 1.56277 0
M  V30 19089 H 1817.6 -3.40916 2.39962 0
M  V30 19090 H 1816.26 -2.97227 1.30714 0
M  V30 19091 H 1817.28 -1.8606 4.83324 0
M  V30 19092 H 1813.95 -3.2297 2.64568 0
M  V30 19093 H 1815.34 -1.8728 6.45272 0
M  V30 19094 N 1818.06 -1.49479 -0.499372 0
M  V30 19095 C 1819.29 -1.6276 -1.27738 0
M  V30 19096 C 1819.71 -0.299635 -1.86407 0
M  V30 19097 O 1819.06 0.715092 -1.67907 0
M  V30 19098 C 1819.11 -2.69762 -2.40647 0
M  V30 19099 O 1818.84 -3.97407 -1.84388 0
M  V30 19100 C 1820.34 -2.93762 -3.31992 0
M  V30 19101 H 1817.56 -0.547893 -0.387368 0
M  V30 19102 H 1820.1 -1.95522 -0.599292 0
M  V30 19103 H 1818.26 -2.39773 -3.04282 0
M  V30 19104 H 1818.67 -4.56361 -2.58525 0
M  V30 19105 H 1820.14 -3.72361 -4.07494 0
M  V30 19106 H 1820.62 -2.0374 -3.89085 0
M  V30 19107 H 1821.23 -3.25173 -2.74122 0
M  V30 19108 N 1819.54 0.750537 -1.38581 0
M  V30 19109 C 1820.79 1.50512 -1.34272 0
M  V30 19110 C 1821.1 1.95496 0.0636858 0
M  V30 19111 O 1822.31 2.7053 0.22932 0
M  V30 19112 C 1820.77 2.71891 -2.35803 0
M  V30 19113 C 1820.37 2.3392 -3.8208 0
M  V30 19114 C 1822.12 3.4977 -2.40543 0
M  V30 19115 C 1820.02 3.51928 -4.7529 0
M  V30 19116 H 1818.95 0.56515 -0.49912 0
M  V30 19117 H 1821.61 0.820167 -1.64151 0
M  V30 19118 H 1819.99 3.42383 -1.98972 0
M  V30 19119 H 1821.16 1.71075 -4.27867 0
M  V30 19120 H 1819.48 1.69168 -3.80488 0
M  V30 19121 H 1822.07 4.37519 -3.07379 0
M  V30 19122 H 1822.42 3.91141 -1.42527 0
M  V30 19123 H 1822.95 2.86294 -2.76189 0
M  V30 19124 H 1819.69 3.15621 -5.74512 0
M  V30 19125 H 1819.21 4.13807 -4.34194 0
M  V30 19126 H 1820.89 4.1847 -4.93449 0
M  V30 19127 N 1821.02 1.235 0.979051 0
M  V30 19128 C 1821.97 1.01485 2.09293 0
M  V30 19129 C 1822.96 -0.0465937 1.69336 0
M  V30 19130 O 1824.17 0.107021 1.79682 0
M  V30 19131 H 1820.54 0.311087 0.684638 0
M  V30 19132 H 1822.51 1.95972 2.25028 0
M  V30 19133 C 1821.26 0.624167 3.42052 0
M  V30 19134 H 1820.59 1.43265 3.73249 0
M  V30 19135 H 1822.03 0.509648 4.20926 0
M  V30 19136 C 1820.48 -0.667694 3.30217 0
M  V30 19137 O 1821.01 -1.71648 3.6318 0
M  V30 19138 N 1819.22 -0.644122 2.83372 0
M  V30 19139 H 1818.77 0.20969 2.56745 0
M  V30 19140 H 1818.73 -1.50872 2.75835 0
M  V30 19141 N 1822.5 -1.17802 1.04693 0
M  V30 19142 C 1823.45 -2.23698 0.637319 0
M  V30 19143 C 1824.44 -1.65974 -0.338957 0
M  V30 19144 O 1825.65 -1.78822 -0.205565 0
M  V30 19145 H 1822.02 -0.728146 0.187903 0
M  V30 19146 H 1823.99 -2.55549 1.5407 0
M  V30 19147 C 1822.74 -3.47693 0.0227662 0
M  V30 19148 H 1822.06 -3.92412 0.765058 0
M  V30 19149 H 1823.5 -4.23394 -0.22653 0
M  V30 19150 C 1821.96 -3.13679 -1.22912 0
M  V30 19151 O 1822.49 -3.27993 -2.31913 0
M  V30 19152 N 1820.7 -2.67948 -1.12483 0
M  V30 19153 H 1820.25 -2.565 -0.237818 0
M  V30 19154 H 1820.2 -2.45562 -1.96333 0
M  V30 19155 N 1823.98 -0.827251 -1.34143 0
M  V30 19156 C 1825.21 -0.429878 -2.02078 0
M  V30 19157 C 1825.61 0.970141 -1.62434 0
M  V30 19158 O 1824.96 1.63997 -0.827692 0
M  V30 19159 C 1825.02 -0.457493 -3.56577 0
M  V30 19160 C 1824.68 -1.8116 -4.19559 0
M  V30 19161 C 1825.68 -2.7731 -4.39767 0
M  V30 19162 C 1823.36 -2.10126 -4.56237 0
M  V30 19163 C 1825.36 -4.00596 -4.95784 0
M  V30 19164 C 1823.05 -3.33672 -5.11963 0
M  V30 19165 C 1824.04 -4.28724 -5.31681 0
M  V30 19166 O 1823.73 -5.50086 -5.86226 0
M  V30 19167 H 1823.46 -0.170259 -0.654208 0
M  V30 19168 H 1826.02 -1.11808 -1.72303 0
M  V30 19169 H 1824.25 0.287424 -3.8563 0
M  V30 19170 H 1825.94 -0.0795677 -4.05822 0
M  V30 19171 H 1826.7 -2.56228 -4.11791 0
M  V30 19172 H 1822.58 -1.36941 -4.40191 0
M  V30 19173 H 1826.13 -4.74798 -5.11089 0
M  V30 19174 H 1822.02 -3.54615 -5.39369 0
M  V30 19175 H 1822.79 -5.51665 -6.04655 0
M  V30 19176 N 1825.45 1.46436 -0.582609 0
M  V30 19177 C 1826.7 2.01592 -0.0658642 0
M  V30 19178 C 1827.02 1.45972 1.30198 0
M  V30 19179 O 1828.22 1.92948 1.91006 0
M  V30 19180 C 1826.68 3.59837 -0.0671547 0
M  V30 19181 C 1826.29 4.24453 -1.43331 0
M  V30 19182 C 1828.03 4.22652 0.395652 0
M  V30 19183 C 1825.94 5.74777 -1.39233 0
M  V30 19184 H 1824.87 0.753712 -0.0208533 0
M  V30 19185 H 1827.52 1.6817 -0.734241 0
M  V30 19186 H 1825.9 3.90336 0.667385 0
M  V30 19187 H 1827.07 4.05564 -2.18757 0
M  V30 19188 H 1825.39 3.73732 -1.83613 0
M  V30 19189 H 1827.99 5.32844 0.445101 0
M  V30 19190 H 1828.33 3.91581 1.41316 0
M  V30 19191 H 1828.86 3.96779 -0.284821 0
M  V30 19192 H 1825.6 6.10508 -2.38664 0
M  V30 19193 H 1825.12 5.9593 -0.680268 0
M  V30 19194 H 1826.8 6.37491 -1.1052 0
M  V30 19195 N 1826.93 0.320385 1.54309 0
M  V30 19196 C 1827.86 -0.580992 2.21714 0
M  V30 19197 C 1828.88 -1.08236 1.21609 0
M  V30 19198 O 1830.07 -0.996489 1.48096 0
M  V30 19199 C 1827.17 -1.80961 2.86542 0
M  V30 19200 C 1826.34 -1.44746 4.12756 0
M  V30 19201 C 1825.4 -2.53327 4.61207 0
M  V30 19202 O 1824.42 -2.17605 5.25963 0
M  V30 19203 N 1825.63 -3.84204 4.35164 0
M  V30 19204 H 1828.39 -0.00384608 2.997 0
M  V30 19205 H 1825.95 0.143444 1.61263 0
M  V30 19206 H 1827.94 -2.52985 3.1588 0
M  V30 19207 H 1826.51 -2.29468 2.12281 0
M  V30 19208 H 1825.73 -0.55899 3.90217 0
M  V30 19209 H 1827.02 -1.18116 4.949 0
M  V30 19210 H 1826.42 -4.16026 3.83326 0
M  V30 19211 H 1824.98 -4.52468 4.69165 0
M  V30 19212 N 1828.41 -1.57525 0.0484906 0
M  V30 19213 C 1829.66 -1.92585 -0.62589 0
M  V30 19214 C 1829.98 -0.926621 -1.71009 0
M  V30 19215 O 1829.24 0.0614997 -1.95603 0
M  V30 19216 C 1829.54 -3.34335 -1.26313 0
M  V30 19217 C 1829.2 -4.49851 -0.307397 0
M  V30 19218 C 1827.87 -4.8118 -0.0443996 0
M  V30 19219 C 1830.22 -5.20039 0.347762 0
M  V30 19220 C 1827.55 -5.80044 0.881238 0
M  V30 19221 C 1829.9 -6.19893 1.26157 0
M  V30 19222 C 1828.56 -6.49651 1.53327 0
M  V30 19223 H 1827.83 -0.704717 -0.229029 0
M  V30 19224 H 1830.48 -1.91158 0.114397 0
M  V30 19225 H 1828.78 -3.32115 -2.07862 0
M  V30 19226 H 1830.48 -3.58741 -1.79182 0
M  V30 19227 H 1827.07 -4.25402 -0.522561 0
M  V30 19228 H 1831.26 -4.9605 0.157663 0
M  V30 19229 H 1826.51 -6.01437 1.09924 0
M  V30 19230 H 1830.69 -6.73391 1.77532 0
M  V30 19231 H 1828.31 -7.26073 2.25216 0
M  V30 19232 N 1829.89 0.224867 -1.55988 0
M  V30 19233 C 1830.83 1.27865 -1.92144 0
M  V30 19234 C 1831.8 1.46741 -0.778228 0
M  V30 19235 O 1832.99 1.60364 -1.03383 0
M  V30 19236 C 1830.13 2.62468 -2.24063 0
M  V30 19237 C 1829.24 2.51419 -3.51301 0
M  V30 19238 C 1828.38 3.78523 -3.72684 0
M  V30 19239 C 1827.42 3.62182 -4.93448 0
M  V30 19240 N 1826.55 4.81228 -5.11237 0
M  V30 19241 H 1831.39 0.96331 -2.82001 0
M  V30 19242 H 1828.93 0.464362 -1.39578 0
M  V30 19243 H 1830.89 3.40848 -2.4058 0
M  V30 19244 H 1829.52 2.92105 -1.37384 0
M  V30 19245 H 1828.57 1.64491 -3.42997 0
M  V30 19246 H 1829.88 2.35263 -4.39833 0
M  V30 19247 H 1829.04 4.65346 -3.89279 0
M  V30 19248 H 1827.78 3.976 -2.82428 0
M  V30 19249 H 1826.78 2.73743 -4.76807 0
M  V30 19250 H 1828.01 3.44579 -5.85186 0
M  V30 19251 H 1825.95 5.00625 -4.23923 0
M  V30 19252 H 1825.87 4.67787 -5.93895 0
M  V30 19253 H 1827.14 5.69487 -5.32264 0
M  V30 19254 N 1831.37 1.49742 0.491438 0
M  V30 19255 C 1832.59 1.63703 1.27343 0
M  V30 19256 C 1833.02 0.312079 1.85493 0
M  V30 19257 O 1832.37 -0.721545 1.66323 0
M  V30 19258 C 1832.42 2.71549 2.37262 0
M  V30 19259 O 1831.53 2.31387 3.41371 0
M  V30 19260 H 1830.87 0.547605 0.375533 0
M  V30 19261 H 1833.4 1.95991 0.587243 0
M  V30 19262 H 1833.41 2.94009 2.82883 0
M  V30 19263 H 1832.08 3.6772 1.94306 0
M  V30 19264 H 1830.66 2.19295 3.01603 0
M  V30 19265 N 1832.84 -0.743177 1.38977 0
M  V30 19266 C 1833.79 -1.85709 1.37043 0
M  V30 19267 C 1834.76 -1.64481 0.231351 0
M  V30 19268 O 1835.95 -1.86002 0.4252 0
M  V30 19269 C 1833.09 -3.23131 1.21162 0
M  V30 19270 C 1832.2 -3.5612 2.44545 0
M  V30 19271 C 1831.33 -4.82901 2.21315 0
M  V30 19272 C 1830.37 -5.08708 3.40415 0
M  V30 19273 N 1829.51 -6.26688 3.16555 0
M  V30 19274 H 1834.35 -1.86698 2.32267 0
M  V30 19275 H 1831.89 -0.912384 1.15386 0
M  V30 19276 H 1833.85 -4.02446 1.09968 0
M  V30 19277 H 1832.48 -3.21443 0.295716 0
M  V30 19278 H 1831.53 -2.71569 2.66373 0
M  V30 19279 H 1832.84 -3.71114 3.3328 0
M  V30 19280 H 1831.99 -5.70179 2.07317 0
M  V30 19281 H 1830.73 -4.70065 1.29962 0
M  V30 19282 H 1829.74 -4.19894 3.54921 0
M  V30 19283 H 1830.96 -5.23434 4.32659 0
M  V30 19284 H 1828.91 -6.15156 2.27858 0
M  V30 19285 H 1828.83 -6.4223 3.98843 0
M  V30 19286 H 1830.09 -7.16827 3.06233 0
M  V30 19287 N 1834.32 -1.24018 -0.972487 0
M  V30 19288 C 1835.27 -0.995404 -2.05124 0
M  V30 19289 C 1836.26 0.0614575 -1.60783 0
M  V30 19290 O 1837.45 -0.15167 -1.76349 0
M  V30 19291 C 1834.58 -0.597019 -3.38069 0
M  V30 19292 C 1833.66 -1.6897 -3.88986 0
M  V30 19293 N 1834.05 -2.92154 -4.12892 0
M  V30 19294 C 1832.35 -1.56611 -4.17599 0
M  V30 19295 C 1833.05 -3.62955 -4.54575 0
M  V30 19296 N 1832.03 -2.90498 -4.59469 0
M  V30 19297 H 1835.83 -1.93084 -2.21576 0
M  V30 19298 H 1833.35 -1.14073 -1.1559 0
M  V30 19299 H 1835.34 -0.402907 -4.14949 0
M  V30 19300 H 1834 0.331283 -3.23006 0
M  V30 19301 H 1835.01 -3.28381 -4.00483 0
M  V30 19302 H 1831.69 -0.705491 -4.11496 0
M  V30 19303 H 1833.08 -4.68598 -4.81524 0
M  V30 19304 N 1835.8 1.17245 -1.05316 0
M  V30 19305 C 1837.22 1.39535 -0.774741 0
M  V30 19306 C 1837.42 1.91388 0.63031 0
M  V30 19307 O 1836.47 2.10631 1.39251 0
M  V30 19308 C 1837.79 2.38497 -1.83139 0
M  V30 19309 C 1839.33 2.52201 -1.85375 0
M  V30 19310 C 1839.81 3.54437 -2.90066 0
M  V30 19311 N 1841.3 3.61956 -2.89037 0
M  V30 19312 C 1842.03 4.40824 -3.66691 0
M  V30 19313 N 1841.53 5.23196 -4.54134 0
M  V30 19314 N 1843.32 4.35709 -3.55125 0
M  V30 19315 H 1835.47 0.819186 -1.95967 0
M  V30 19316 H 1837.74 0.422515 -0.848637 0
M  V30 19317 H 1837.44 2.07471 -2.83987 0
M  V30 19318 H 1837.32 3.38016 -1.67407 0
M  V30 19319 H 1839.7 2.82536 -0.851904 0
M  V30 19320 H 1839.79 1.52751 -2.05184 0
M  V30 19321 H 1839.43 3.2484 -3.90437 0
M  V30 19322 H 1839.36 4.53593 -2.67508 0
M  V30 19323 H 1841.85 3.03146 -2.25635 0
M  V30 19324 H 1842.16 5.80562 -5.10067 0
M  V30 19325 H 1840.51 5.22573 -4.58194 0
M  V30 19326 H 1843.7 3.70411 -2.86205 0
M  V30 19327 H 1843.87 4.9693 -4.1589 0
M  V30 19328 N 1837.28 0.834353 1.33702 0
M  V30 19329 C 1838.53 0.424225 1.97188 0
M  V30 19330 C 1838.84 -1.02086 1.66846 0
M  V30 19331 O 1840.05 -1.53545 2.23911 0
M  V30 19332 C 1838.5 0.707628 3.52875 0
M  V30 19333 C 1838.11 2.16709 3.92098 0
M  V30 19334 C 1839.85 0.364228 4.22935 0
M  V30 19335 C 1837.76 2.39478 5.40744 0
M  V30 19336 H 1836.69 0.154897 0.737918 0
M  V30 19337 H 1839.34 1.02231 1.52385 0
M  V30 19338 H 1837.72 0.0392323 3.95981 0
M  V30 19339 H 1838.9 2.87559 3.60064 0
M  V30 19340 H 1837.21 2.47303 3.35008 0
M  V30 19341 H 1839.81 0.512031 5.32243 0
M  V30 19342 H 1840.15 -0.692375 4.10502 0
M  V30 19343 H 1840.69 0.98767 3.85344 0
M  V30 19344 H 1837.43 3.43687 5.58175 0
M  V30 19345 H 1836.95 1.73184 5.74254 0
M  V30 19346 H 1838.62 2.22406 6.07573 0
M  V30 19347 N 1838.76 -1.46125 0.590367 0
M  V30 19348 C 1839.67 -2.34177 -0.140761 0
M  V30 19349 C 1840.68 -1.50213 -0.878181 0
M  V30 19350 O 1841.86 -1.83063 -0.839644 0
M  V30 19351 C 1838.92 -3.27537 -1.13669 0
M  V30 19352 C 1837.98 -4.27403 -0.403103 0
M  V30 19353 C 1837.22 -5.16302 -1.35159 0
M  V30 19354 O 1837.44 -5.08283 -2.58853 0
M  V30 19355 O 1836.37 -5.95753 -0.858003 0
M  V30 19356 H 1840.2 -2.98063 0.582401 0
M  V30 19357 H 1837.79 -1.45225 0.35072 0
M  V30 19358 H 1839.67 -3.85112 -1.71074 0
M  V30 19359 H 1838.34 -2.66237 -1.84118 0
M  V30 19360 H 1837.25 -3.73493 0.212986 0
M  V30 19361 H 1838.58 -4.9151 0.260565 0
M  V30 19362 N 1840.23 -0.328564 -1.54137 0
M  V30 19363 C 1841.65 0.158467 -1.86026 0
M  V30 19364 C 1842 1.51216 -1.25012 0
M  V30 19365 O 1841.12 2.09081 -0.558029 0
M  V30 19366 C 1841.72 0.294317 -3.37519 0
M  V30 19367 C 1840.28 0.72557 -3.69341 0
M  V30 19368 C 1839.42 -0.149724 -2.76895 0
M  V30 19369 H 1842.37 -0.548678 -1.48913 0
M  V30 19370 H 1842.39 1.12438 -3.63508 0
M  V30 19371 H 1841.91 -0.691071 -3.81898 0
M  V30 19372 H 1840.01 1.72052 -3.30498 0
M  V30 19373 H 1840.12 0.525853 -4.76205 0
M  V30 19374 H 1838.48 0.375531 -2.51916 0
M  V30 19375 H 1839.27 -1.13197 -3.24101 0
M  V30 19376 N 1841.71 1.57497 -0.0568439 0
M  V30 19377 C 1842.96 1.932 0.61658 0
M  V30 19378 C 1843.29 0.935936 1.70158 0
M  V30 19379 O 1842.57 -0.0372005 1.94464 0
M  V30 19380 C 1842.85 3.39254 1.20742 0
M  V30 19381 C 1842.7 4.49612 0.130081 0
M  V30 19382 C 1844.02 3.85817 2.11738 0
M  V30 19383 H 1841.14 0.702558 0.222668 0
M  V30 19384 H 1843.78 1.89622 -0.119765 0
M  V30 19385 H 1841.93 3.42434 1.83497 0
M  V30 19386 H 1843.6 4.58559 -0.502172 0
M  V30 19387 H 1841.85 4.30411 -0.541167 0
M  V30 19388 H 1842.52 5.48906 0.583606 0
M  V30 19389 H 1844.99 3.8455 1.58936 0
M  V30 19390 H 1843.87 4.88653 2.50019 0
M  V30 19391 H 1844.13 3.22899 3.01974 0
M  V30 19392 N 1843.19 -0.216591 1.56105 0
M  V30 19393 C 1844.43 -0.947261 1.81125 0
M  V30 19394 C 1844.79 -1.81331 0.631108 0
M  V30 19395 O 1846 -2.57811 0.760726 0
M  V30 19396 C 1844.27 -1.75991 3.11066 0
M  V30 19397 S 1845.83 -2.54554 3.57418 0
M  V30 19398 H 1842.64 -0.318109 0.635868 0
M  V30 19399 H 1845.25 -0.212416 1.94343 0
M  V30 19400 H 1843.95 -1.1139 3.94994 0
M  V30 19401 H 1843.48 -2.53696 3.00669 0
M  V30 19402 H 1845.5 -3.78256 3.21149 0
M  V30 19403 N 1844.67 -1.5 -0.48349 0
M  V30 19404 C 1845.6 -1.70879 -1.5913 0
M  V30 19405 C 1846.58 -0.557606 -1.60701 0
M  V30 19406 O 1847.76 -0.79539 -1.77164 0
M  V30 19407 C 1844.89 -1.7915 -2.97527 0
M  V30 19408 C 1843.85 -2.94233 -3.10823 0
M  V30 19409 C 1843.17 -2.87634 -4.50745 0
M  V30 19410 C 1844.47 -4.34925 -2.89202 0
M  V30 19411 H 1846.17 -2.63632 -1.41911 0
M  V30 19412 H 1843.71 -1.26865 -0.68127 0
M  V30 19413 H 1845.67 -1.92342 -3.74943 0
M  V30 19414 H 1844.39 -0.830106 -3.15875 0
M  V30 19415 H 1843.05 -2.80672 -2.35837 0
M  V30 19416 H 1842.7 -1.89365 -4.65993 0
M  V30 19417 H 1842.4 -3.64885 -4.60579 0
M  V30 19418 H 1843.92 -3.02857 -5.30198 0
M  V30 19419 H 1845.34 -4.49076 -3.56376 0
M  V30 19420 H 1843.73 -5.13531 -3.10492 0
M  V30 19421 H 1844.8 -4.48154 -1.85165 0
M  V30 19422 N 1846.15 0.735796 -1.39369 0
M  V30 19423 C 1847.08 1.86303 -1.4076 0
M  V30 19424 C 1848.06 1.67926 -0.27107 0
M  V30 19425 O 1849.24 1.88257 -0.476773 0
M  V30 19426 C 1846.37 3.24043 -1.24955 0
M  V30 19427 C 1845.33 3.57055 -2.35999 0
M  V30 19428 C 1844.65 4.93723 -2.05284 0
M  V30 19429 C 1845.95 3.60109 -3.7831 0
M  V30 19430 H 1847.65 1.85396 -2.35093 0
M  V30 19431 H 1845.19 0.890552 -1.1316 0
M  V30 19432 H 1847.15 4.02574 -1.24549 0
M  V30 19433 H 1845.87 3.25475 -0.270902 0
M  V30 19434 H 1844.53 2.80853 -2.35621 0
M  V30 19435 H 1844.18 4.91734 -1.05859 0
M  V30 19436 H 1843.88 5.16779 -2.79667 0
M  V30 19437 H 1845.4 5.74612 -2.06527 0
M  V30 19438 H 1846.81 4.28718 -3.80622 0
M  V30 19439 H 1845.21 3.94683 -4.52046 0
M  V30 19440 H 1846.28 2.59932 -4.09345 0
M  V30 19441 N 1847.63 1.24532 0.965897 0
M  V30 19442 C 1848.87 1.0877 1.71163 0
M  V30 19443 C 1849.2 -0.372297 1.90598 0
M  V30 19444 O 1848.48 -1.27503 1.46878 0
M  V30 19445 C 1848.76 1.83004 3.10131 0
M  V30 19446 C 1848.62 3.36765 2.98177 0
M  V30 19447 C 1849.93 1.60417 4.09822 0
M  V30 19448 H 1847.05 0.396528 0.621236 0
M  V30 19449 H 1849.7 1.53223 1.12351 0
M  V30 19450 H 1847.85 1.4522 3.60338 0
M  V30 19451 H 1849.52 3.84158 2.55382 0
M  V30 19452 H 1847.76 3.65053 2.34347 0
M  V30 19453 H 1848.43 3.83909 3.96633 0
M  V30 19454 H 1850.91 1.93289 3.68482 0
M  V30 19455 H 1849.78 2.14812 5.05121 0
M  V30 19456 H 1850.04 0.542843 4.38755 0
M  V30 19457 N 1849.1 -1.16685 1.05936 0
M  V30 19458 C 1850.05 -2.18921 0.636999 0
M  V30 19459 C 1851.04 -1.5747 -0.330447 0
M  V30 19460 O 1852.23 -1.76393 -0.146469 0
M  V30 19461 C 1849.36 -3.43293 0.0211274 0
M  V30 19462 C 1848.44 -4.11828 1.01285 0
M  V30 19463 N 1848.84 -4.5607 2.18709 0
M  V30 19464 C 1847.13 -4.37961 0.842986 0
M  V30 19465 C 1847.83 -5.09046 2.81509 0
M  V30 19466 N 1846.81 -5.01709 2.09259 0
M  V30 19467 H 1850.61 -2.5084 1.53155 0
M  V30 19468 H 1848.13 -1.33096 0.930542 0
M  V30 19469 H 1850.12 -4.15824 -0.299267 0
M  V30 19470 H 1848.78 -3.12863 -0.868723 0
M  V30 19471 H 1849.79 -4.49918 2.56504 0
M  V30 19472 H 1846.47 -4.175 0.00481897 0
M  V30 19473 H 1847.86 -5.53344 3.81131 0
M  V30 19474 N 1850.58 -0.841432 -1.33258 0
M  V30 19475 C 1851.83 -0.437512 -1.97307 0
M  V30 19476 C 1852.15 1.00723 -1.66973 0
M  V30 19477 O 1851.42 1.70199 -0.969998 0
M  V30 19478 H 1850 -0.158794 -0.729927 0
M  V30 19479 H 1852.66 -1.07495 -1.62575 0
M  V30 19480 H 1851.76 -0.571675 -3.0682 0
M  V30 19481 N 1852.06 1.4581 -0.598108 0
M  V30 19482 C 1853.28 2.07188 -0.0938515 0
M  V30 19483 C 1853.71 1.44141 1.20851 0
M  V30 19484 O 1853.07 0.530689 1.73359 0
M  V30 19485 C 1853.12 3.60575 0.0423086 0
M  V30 19486 O 1852.22 3.97598 1.09496 0
M  V30 19487 H 1851.56 0.660324 -0.0697682 0
M  V30 19488 H 1854.09 1.87211 -0.825426 0
M  V30 19489 H 1854.1 4.07272 0.243566 0
M  V30 19490 H 1852.78 4.05852 -0.9087 0
M  V30 19491 H 1851.35 3.62587 0.87093 0
M  V30 19492 N 1853.54 0.336733 1.53961 0
M  V30 19493 C 1854.95 -0.148599 1.86108 0
M  V30 19494 C 1855.3 -1.50551 1.25812 0
M  V30 19495 O 1854.42 -2.08782 0.569109 0
M  V30 19496 C 1855.02 -0.276413 3.37671 0
M  V30 19497 C 1853.58 -0.705973 3.6972 0
M  V30 19498 C 1852.73 0.164407 2.76812 0
M  V30 19499 H 1855.68 0.556568 1.4862 0
M  V30 19500 H 1855.7 -1.10509 3.64099 0
M  V30 19501 H 1855.21 0.711315 3.81526 0
M  V30 19502 H 1853.31 -1.70297 3.31406 0
M  V30 19503 H 1853.42 -0.500591 4.76478 0
M  V30 19504 H 1851.79 -0.362166 2.52112 0
M  V30 19505 H 1852.57 1.14914 3.23496 0
M  V30 19506 N 1855.02 -1.57465 0.0651956 0
M  V30 19507 C 1856.26 -1.92856 -0.604233 0
M  V30 19508 C 1856.58 -0.945431 -1.70548 0
M  V30 19509 O 1855.85 0.00749144 -1.95899 0
M  V30 19510 H 1854.43 -0.711933 -0.226185 0
M  V30 19511 H 1857.1 -1.94521 0.121499 0
M  V30 19512 H 1856.19 -2.94481 -1.03381 0
M  V30 19513 N 1856.49 0.20831 -1.56217 0
M  V30 19514 C 1857.72 0.947271 -1.83941 0
M  V30 19515 C 1858.14 1.77403 -0.646029 0
M  V30 19516 O 1857.49 1.78385 0.385378 0
M  V30 19517 C 1857.54 1.85415 -3.10328 0
M  V30 19518 O 1857.27 1.06079 -4.25063 0
M  V30 19519 C 1858.77 2.7059 -3.51135 0
M  V30 19520 H 1855.99 0.277012 -0.611151 0
M  V30 19521 H 1858.53 0.219545 -2.03318 0
M  V30 19522 H 1856.69 2.53566 -2.92888 0
M  V30 19523 H 1857.1 1.67758 -4.96948 0
M  V30 19524 H 1858.57 3.29902 -4.42571 0
M  V30 19525 H 1859.05 3.43645 -2.73505 0
M  V30 19526 H 1859.66 2.07831 -3.71061 0
M  V30 19527 N 1857.97 1.50255 0.475528 0
M  V30 19528 C 1859.22 1.60704 1.22551 0
M  V30 19529 C 1859.54 0.307375 1.92562 0
M  V30 19530 O 1858.81 -0.674885 1.83908 0
M  V30 19531 H 1857.39 0.592176 0.455343 0
M  V30 19532 H 1860.05 1.8701 0.548926 0
M  V30 19533 H 1859.15 2.41596 1.9758 0
M  V30 19534 N 1859.45 -0.728395 1.39758 0
M  V30 19535 C 1860.4 -1.84245 1.39005 0
M  V30 19536 C 1861.37 -1.64226 0.248783 0
M  V30 19537 O 1862.55 -1.8554 0.444904 0
M  V30 19538 C 1859.69 -3.21828 1.24583 0
M  V30 19539 C 1858.8 -3.53507 2.48308 0
M  V30 19540 C 1857.94 -4.80526 2.26425 0
M  V30 19541 C 1856.98 -5.05069 3.45792 0
M  V30 19542 N 1856.12 -6.23295 3.23184 0
M  V30 19543 H 1860.96 -1.84224 2.34234 0
M  V30 19544 H 1858.49 -0.900094 1.16347 0
M  V30 19545 H 1860.45 -4.01257 1.14231 0
M  V30 19546 H 1859.08 -3.21111 0.329793 0
M  V30 19547 H 1858.13 -2.68729 2.69238 0
M  V30 19548 H 1859.44 -3.67558 3.37198 0
M  V30 19549 H 1858.6 -5.67949 2.13353 0
M  V30 19550 H 1857.34 -4.6866 1.3494 0
M  V30 19551 H 1856.34 -4.16106 3.59355 0
M  V30 19552 H 1857.57 -5.18815 4.38186 0
M  V30 19553 H 1855.51 -6.12704 2.3437 0
M  V30 19554 H 1855.43 -6.37964 4.05633 0
M  V30 19555 H 1856.7 -7.13539 3.13819 0
M  V30 19556 N 1860.93 -1.25042 -0.959279 0
M  V30 19557 C 1862.15 -1.12339 -1.74341 0
M  V30 19558 C 1862.58 0.319342 -1.85369 0
M  V30 19559 O 1861.94 1.23129 -1.33075 0
M  V30 19560 C 1861.98 -1.77734 -3.13756 0
M  V30 19561 O 1861.09 -1.05383 -3.98708 0
M  V30 19562 H 1860.43 -0.392479 -0.535589 0
M  V30 19563 H 1862.96 -1.65516 -1.20274 0
M  V30 19564 H 1862.97 -1.83832 -3.64239 0
M  V30 19565 H 1861.64 -2.82702 -3.05045 0
M  V30 19566 H 1860.22 -1.07132 -3.57179 0
M  V30 19567 N 1862.41 1.16121 -1.06553 0
M  V30 19568 C 1863.65 1.86991 -0.784989 0
M  V30 19569 C 1863.99 1.81645 0.686919 0
M  V30 19570 O 1863.26 1.23394 1.50347 0
M  V30 19571 C 1863.54 3.36448 -1.28355 0
M  V30 19572 C 1863.4 3.5047 -2.81941 0
M  V30 19573 C 1864.72 4.30933 -0.893561 0
M  V30 19574 H 1861.83 0.678978 -0.286633 0
M  V30 19575 H 1864.48 1.36475 -1.32192 0
M  V30 19576 H 1862.63 3.796 -0.826796 0
M  V30 19577 H 1864.3 3.16237 -3.35845 0
M  V30 19578 H 1862.54 2.92294 -3.20541 0
M  V30 19579 H 1863.21 4.55443 -3.11891 0
M  V30 19580 H 1865.69 3.95696 -1.287 0
M  V30 19581 H 1864.56 5.3401 -1.26984 0
M  V30 19582 H 1864.83 4.41642 0.201274 0
M  V30 19583 N 1863.88 0.848487 1.3281 0
M  V30 19584 C 1864.85 0.293744 2.2731 0
M  V30 19585 C 1865.85 -0.543043 1.51353 0
M  V30 19586 O 1867.04 -0.355443 1.70535 0
M  V30 19587 C 1864.17 -0.585094 3.35841 0
M  V30 19588 H 1865.36 1.12773 2.77889 0
M  V30 19589 H 1862.92 0.622329 1.43376 0
M  V30 19590 H 1863.65 -1.44114 2.9052 0
M  V30 19591 H 1863.44 0.0137777 3.92098 0
M  V30 19592 H 1864.93 -0.966203 4.06269 0
M  V30 19593 N 1865.36 -1.4549 0.605832 0
M  V30 19594 C 1866.59 -2.06625 0.106651 0
M  V30 19595 C 1867.01 -1.45077 -1.20822 0
M  V30 19596 O 1866.36 -0.564316 -1.73556 0
M  V30 19597 C 1866.41 -3.61476 -0.0413179 0
M  V30 19598 O 1866.13 -4.20726 1.22153 0
M  V30 19599 C 1867.64 -4.39592 -0.572162 0
M  V30 19600 H 1864.86 -0.667542 0.0680365 0
M  V30 19601 H 1867.4 -1.86763 0.833067 0
M  V30 19602 H 1865.55 -3.80687 -0.718053 0
M  V30 19603 H 1865.97 -5.13881 1.05009 0
M  V30 19604 H 1867.44 -5.48453 -0.624791 0
M  V30 19605 H 1867.92 -4.09251 -1.59407 0
M  V30 19606 H 1868.53 -4.25242 0.0704697 0
M  V30 19607 N 1866.84 -0.344893 -1.5378 0
M  V30 19608 C 1867.79 0.526591 -2.26561 0
M  V30 19609 C 1868.78 1.10083 -1.28756 0
M  V30 19610 O 1869.99 1.04641 -1.46459 0
M  V30 19611 H 1866.36 0.188505 -0.72799 0
M  V30 19612 H 1868.33 -0.109269 -2.982 0
M  V30 19613 C 1867.08 1.66505 -3.0524 0
M  V30 19614 H 1866.41 1.23246 -3.80329 0
M  V30 19615 H 1867.85 2.24998 -3.59377 0
M  V30 19616 C 1866.31 2.59527 -2.14819 0
M  V30 19617 O 1866.84 3.6181 -1.74517 0
M  V30 19618 N 1865.04 2.28243 -1.79871 0
M  V30 19619 H 1864.59 1.45106 -2.12843 0
M  V30 19620 H 1864.55 2.90741 -1.19654 0
M  V30 19621 N 1868.32 1.57428 -0.0735454 0
M  V30 19622 C 1869.25 2.15849 0.890584 0
M  V30 19623 C 1870.23 1.086 1.3092 0
M  V30 19624 O 1871.41 1.36643 1.37994 0
M  V30 19625 C 1868.54 2.72153 2.15755 0
M  V30 19626 C 1867.5 3.84584 1.87827 0
M  V30 19627 C 1866.82 4.27498 3.21169 0
M  V30 19628 C 1868.12 5.08746 1.18217 0
M  V30 19629 H 1869.82 2.96663 0.403904 0
M  V30 19630 H 1867.36 1.42703 0.192836 0
M  V30 19631 H 1869.32 3.11668 2.83621 0
M  V30 19632 H 1868.04 1.88562 2.66668 0
M  V30 19633 H 1866.7 3.45575 1.22366 0
M  V30 19634 H 1866.35 3.40827 3.69927 0
M  V30 19635 H 1866.05 5.03288 3.03273 0
M  V30 19636 H 1867.57 4.69631 3.9023 0
M  V30 19637 H 1868.99 5.45566 1.76155 0
M  V30 19638 H 1867.38 5.89825 1.10573 0
M  V30 19639 H 1868.45 4.84631 0.161525 0
M  V30 19640 N 1869.8 -0.200022 1.56326 0
M  V30 19641 C 1871.05 -0.919331 1.7953 0
M  V30 19642 C 1871.36 -1.84628 0.645908 0
M  V30 19643 O 1872.56 -2.60584 0.762132 0
M  V30 19644 C 1871.02 -1.68508 3.18014 0
M  V30 19645 C 1870.63 -0.803202 4.40741 0
M  V30 19646 C 1872.37 -2.39432 3.50532 0
M  V30 19647 C 1870.28 -1.56753 5.70248 0
M  V30 19648 H 1869.21 -0.347018 0.669399 0
M  V30 19649 H 1871.86 -0.172713 1.82685 0
M  V30 19650 H 1870.24 -2.4754 3.09095 0
M  V30 19651 H 1871.42 -0.0518889 4.60771 0
M  V30 19652 H 1869.73 -0.205039 4.15895 0
M  V30 19653 H 1872.33 -2.97158 4.44524 0
M  V30 19654 H 1872.67 -3.13378 2.74043 0
M  V30 19655 H 1873.2 -1.6737 3.60877 0
M  V30 19656 H 1869.94 -0.870942 6.49688 0
M  V30 19657 H 1869.46 -2.29291 5.54243 0
M  V30 19658 H 1871.14 -2.12262 6.11191 0
M  V30 19659 N 1871.27 -1.50505 -0.467553 0
M  V30 19660 C 1872.24 -1.69071 -1.54751 0
M  V30 19661 C 1873.24 -0.561325 -1.50684 0
M  V30 19662 O 1874.43 -0.828412 -1.53242 0
M  V30 19663 C 1871.56 -1.71922 -2.94373 0
M  V30 19664 H 1872.75 -2.65425 -1.39605 0
M  V30 19665 H 1870.31 -1.40039 -0.694177 0
M  V30 19666 H 1871.04 -0.772734 -3.14959 0
M  V30 19667 H 1870.83 -2.53972 -2.98732 0
M  V30 19668 H 1872.32 -1.88228 -3.72773 0
M  V30 19669 N 1872.75 0.720973 -1.40142 0
M  V30 19670 C 1874.17 1.02835 -1.22054 0
M  V30 19671 C 1874.37 2.0129 -0.091949 0
M  V30 19672 O 1873.42 2.46395 0.551897 0
M  V30 19673 C 1874.74 1.57722 -2.56016 0
M  V30 19674 C 1876.29 1.69734 -2.62982 0
M  V30 19675 C 1876.76 2.28027 -3.972 0
M  V30 19676 N 1878.25 2.3542 -3.98913 0
M  V30 19677 C 1878.99 2.81495 -4.99548 0
M  V30 19678 N 1878.48 3.27362 -6.10578 0
M  V30 19679 N 1880.28 2.80831 -4.86919 0
M  V30 19680 H 1872.43 0.068271 -2.1229 0
M  V30 19681 H 1874.69 0.0928952 -0.943438 0
M  V30 19682 H 1874.4 0.928424 -3.39224 0
M  V30 19683 H 1874.27 2.56326 -2.76725 0
M  V30 19684 H 1876.66 2.33732 -1.80148 0
M  V30 19685 H 1876.74 0.697443 -2.46108 0
M  V30 19686 H 1876.38 1.64653 -4.80471 0
M  V30 19687 H 1876.31 3.28721 -4.114 0
M  V30 19688 H 1878.8 2.03019 -3.18735 0
M  V30 19689 H 1879.12 3.61071 -6.83263 0
M  V30 19690 H 1877.46 3.25335 -6.14152 0
M  V30 19691 H 1880.65 2.4433 -3.99275 0
M  V30 19692 H 1880.82 3.16423 -5.65492 0
M  V30 19693 N 1874.23 1.25549 0.952634 0
M  V30 19694 C 1875.19 1.06186 2.03119 0
M  V30 19695 C 1876.19 0.0139966 1.60794 0
M  V30 19696 O 1877.38 0.256367 1.72303 0
M  V30 19697 C 1874.52 0.612674 3.35349 0
M  V30 19698 H 1875.71 2.01932 2.21729 0
M  V30 19699 H 1873.26 1.07984 1.13 0
M  V30 19700 H 1874 -0.347292 3.22435 0
M  V30 19701 H 1873.78 1.36917 3.67418 0
M  V30 19702 H 1875.27 0.498693 4.14612 0
M  V30 19703 N 1875.71 -1.15554 1.07168 0
M  V30 19704 C 1876.96 -1.85639 0.788727 0
M  V30 19705 C 1877.27 -1.83114 -0.687656 0
M  V30 19706 O 1878.48 -2.48864 -1.08531 0
M  V30 19707 C 1876.93 -3.3318 1.36084 0
M  V30 19708 C 1876.54 -3.44157 2.8681 0
M  V30 19709 C 1878.28 -4.08462 1.15582 0
M  V30 19710 C 1876.19 -4.85835 3.37222 0
M  V30 19711 H 1875.12 -0.695427 0.29137 0
M  V30 19712 H 1877.77 -1.30354 1.29151 0
M  V30 19713 H 1876.15 -3.88125 0.785802 0
M  V30 19714 H 1877.33 -2.99328 3.50342 0
M  V30 19715 H 1875.64 -2.82318 3.06081 0
M  V30 19716 H 1878.24 -5.13017 1.50725 0
M  V30 19717 H 1878.58 -4.16192 0.0947449 0
M  V30 19718 H 1879.12 -3.59781 1.69712 0
M  V30 19719 H 1875.86 -4.83287 4.42847 0
M  V30 19720 H 1875.38 -5.31253 2.78443 0
M  V30 19721 H 1877.05 -5.54684 3.33068 0
M  V30 19722 N 1877.19 -0.855519 -1.32358 0
M  V30 19723 C 1878.15 -0.305794 -2.27151 0
M  V30 19724 C 1879.15 0.535008 -1.51639 0
M  V30 19725 O 1880.34 0.346394 -1.70721 0
M  V30 19726 C 1877.47 0.567275 -3.36147 0
M  V30 19727 H 1878.67 -1.14245 -2.77287 0
M  V30 19728 H 1876.22 -0.629924 -1.43044 0
M  V30 19729 H 1876.95 1.42571 -2.9128 0
M  V30 19730 H 1876.74 -0.0345714 -3.92085 0
M  V30 19731 H 1878.23 0.944644 -4.06775 0
M  V30 19732 N 1878.67 1.45167 -0.61354 0
M  V30 19733 C 1879.58 2.34372 0.103487 0
M  V30 19734 C 1880.59 1.51591 0.854172 0
M  V30 19735 O 1881.77 1.84375 0.810414 0
M  V30 19736 C 1878.83 3.29304 1.08443 0
M  V30 19737 C 1877.89 4.2799 0.335056 0
M  V30 19738 C 1877.13 5.18387 1.26928 0
M  V30 19739 O 1877.35 5.12336 2.50734 0
M  V30 19740 O 1876.28 5.97043 0.763115 0
M  V30 19741 H 1880.11 2.97099 -0.629746 0
M  V30 19742 H 1877.69 1.44649 -0.373779 0
M  V30 19743 H 1879.58 3.87785 1.64926 0
M  V30 19744 H 1878.25 2.69133 1.79859 0
M  V30 19745 H 1877.16 3.73107 -0.272378 0
M  V30 19746 H 1878.49 4.91033 -0.338727 0
M  V30 19747 N 1880.14 0.353044 1.53595 0
M  V30 19748 C 1881.09 -0.499326 2.25334 0
M  V30 19749 C 1882.06 -1.08781 1.25522 0
M  V30 19750 O 1883.25 -1.12265 1.54276 0
M  V30 19751 C 1880.39 -1.63955 3.03666 0
M  V30 19752 C 1879.5 -1.07745 4.18348 0
M  V30 19753 C 1878.63 -2.18575 4.84147 0
M  V30 19754 C 1877.67 -1.59765 5.90882 0
M  V30 19755 N 1876.81 -2.64376 6.50423 0
M  V30 19756 H 1881.65 0.118959 2.97762 0
M  V30 19757 H 1879.19 0.0704777 1.46931 0
M  V30 19758 H 1881.14 -2.31097 3.47347 0
M  V30 19759 H 1879.77 -2.22868 2.33516 0
M  V30 19760 H 1878.83 -0.296678 3.79241 0
M  V30 19761 H 1880.14 -0.607375 4.95088 0
M  V30 19762 H 1879.29 -2.93563 5.30948 0
M  V30 19763 H 1878.03 -2.68929 4.06852 0
M  V30 19764 H 1877.04 -0.832863 5.43455 0
M  V30 19765 H 1878.26 -1.10251 6.70091 0
M  V30 19766 H 1876.21 -3.13968 5.75986 0
M  V30 19767 H 1876.12 -2.22019 7.22664 0
M  V30 19768 H 1877.39 -3.39105 7.01875 0
M  V30 19769 N 1881.62 -1.57387 0.0818932 0
M  V30 19770 C 1882.53 -2.16804 -0.89629 0
M  V30 19771 C 1883.55 -1.1339 -1.3198 0
M  V30 19772 O 1884.72 -1.45702 -1.39042 0
M  V30 19773 C 1881.79 -2.72607 -2.14211 0
M  V30 19774 C 1880.85 -3.90929 -1.77406 0
M  V30 19775 C 1880.08 -4.44062 -2.96049 0
M  V30 19776 O 1880.31 -3.96166 -4.10376 0
M  V30 19777 O 1879.24 -5.35261 -2.75279 0
M  V30 19778 H 1883.07 -3.0077 -0.420827 0
M  V30 19779 H 1880.65 -1.48726 -0.141737 0
M  V30 19780 H 1882.53 -3.0833 -2.87247 0
M  V30 19781 H 1881.21 -1.91694 -2.60835 0
M  V30 19782 H 1880.11 -3.60042 -1.01591 0
M  V30 19783 H 1881.45 -4.73165 -1.35556 0
M  V30 19784 N 1883.1 0.191729 -1.56429 0
M  V30 19785 C 1884.05 1.25706 -1.95706 0
M  V30 19786 C 1885.04 1.46938 -0.842948 0
M  V30 19787 O 1886.25 1.47759 -1.02797 0
M  V30 19788 H 1882.62 0.422099 -0.622364 0
M  V30 19789 H 1884.59 0.8988 -2.84542 0
M  V30 19790 C 1883.34 2.59366 -2.3157 0
M  V30 19791 H 1882.67 2.43845 -3.16827 0
M  V30 19792 H 1884.11 3.32646 -2.62912 0
M  V30 19793 C 1882.56 3.16609 -1.15155 0
M  V30 19794 O 1883.09 3.9941 -0.428355 0
M  V30 19795 N 1881.3 2.75402 -0.927467 0
M  V30 19796 H 1880.85 2.08172 -1.5173 0
M  V30 19797 H 1880.81 3.1404 -0.150348 0
M  V30 19798 N 1884.58 1.50751 0.459565 0
M  V30 19799 C 1885.81 1.66089 1.23377 0
M  V30 19800 C 1886.22 0.348952 1.85547 0
M  V30 19801 O 1885.58 -0.670323 1.69744 0
M  V30 19802 C 1885.63 2.76047 2.3341 0
M  V30 19803 O 1885.35 4.02156 1.73787 0
M  V30 19804 C 1886.85 3.02461 3.24087 0
M  V30 19805 H 1884.07 0.557971 0.372705 0
M  V30 19806 H 1886.61 1.97042 0.547242 0
M  V30 19807 H 1884.77 2.47756 2.97818 0
M  V30 19808 H 1885.18 4.63055 2.46335 0
M  V30 19809 H 1886.66 3.83034 3.97478 0
M  V30 19810 H 1887.13 2.13984 3.83546 0
M  V30 19811 H 1887.74 3.32326 2.65404 0
M  V30 19812 N 1886.06 -0.713531 1.40522 0
M  V30 19813 C 1887.28 -1.50766 1.42423 0
M  V30 19814 C 1887.71 -1.88082 0.0262417 0
M  V30 19815 O 1887.06 -1.5341 -0.966185 0
M  V30 19816 C 1887.11 -2.75813 2.32291 0
M  V30 19817 O 1886.22 -3.726 1.76758 0
M  V30 19818 H 1885.56 -0.454473 0.484098 0
M  V30 19819 H 1888.09 -0.878583 1.84776 0
M  V30 19820 H 1888.1 -3.2432 2.47549 0
M  V30 19821 H 1886.77 -2.47988 3.33878 0
M  V30 19822 H 1885.35 -3.31455 1.70857 0
M  V30 19823 N 1887.53 -1.26053 -0.945962 0
M  V30 19824 C 1888.76 -1.14079 -1.72608 0
M  V30 19825 C 1889.18 0.304506 -1.86328 0
M  V30 19826 O 1888.53 1.20885 -1.36723 0
M  V30 19827 C 1888.58 -1.79938 -3.13535 0
M  V30 19828 O 1888.31 -3.18819 -3.00476 0
M  V30 19829 C 1889.81 -1.73856 -4.07785 0
M  V30 19830 H 1887.03 -0.397486 -0.540598 0
M  V30 19831 H 1889.57 -1.66582 -1.1862 0
M  V30 19832 H 1887.73 -1.31385 -3.6444 0
M  V30 19833 H 1888.14 -3.51337 -3.89439 0
M  V30 19834 H 1889.61 -2.24584 -5.04248 0
M  V30 19835 H 1890.09 -0.704095 -4.33519 0
M  V30 19836 H 1890.7 -2.21939 -3.62799 0
M  V30 19837 N 1889.01 1.14984 -1.07779 0
M  V30 19838 C 1890.24 1.89472 -0.823648 0
M  V30 19839 C 1890.65 1.78499 0.627275 0
M  V30 19840 O 1889.99 1.13767 1.44232 0
M  V30 19841 C 1890.05 3.40327 -1.15835 0
M  V30 19842 C 1889.72 3.75085 -2.61075 0
M  V30 19843 C 1890.72 3.75743 -3.59323 0
M  V30 19844 C 1888.4 4.05261 -2.96765 0
M  V30 19845 C 1890.39 4.06089 -4.91295 0
M  V30 19846 C 1888.08 4.3527 -4.28932 0
M  V30 19847 C 1889.08 4.35667 -5.26007 0
M  V30 19848 O 1888.77 4.64954 -6.558 0
M  V30 19849 H 1888.5 0.607205 -0.297115 0
M  V30 19850 H 1891.05 1.46589 -1.43878 0
M  V30 19851 H 1889.28 3.83631 -0.486199 0
M  V30 19852 H 1890.97 3.96111 -0.886048 0
M  V30 19853 H 1891.74 3.52525 -3.33093 0
M  V30 19854 H 1887.62 4.04109 -2.2185 0
M  V30 19855 H 1891.16 4.06313 -5.67059 0
M  V30 19856 H 1887.06 4.57957 -4.54913 0
M  V30 19857 H 1887.83 4.82699 -6.61017 0
M  V30 19858 N 1890.49 0.862526 1.31902 0
M  V30 19859 C 1891.71 0.483159 2.01694 0
M  V30 19860 C 1892.14 -0.914778 1.64358 0
M  V30 19861 O 1891.5 -1.60229 0.848308 0
M  V30 19862 C 1891.55 0.638911 3.54895 0
M  V30 19863 O 1890.65 -0.324962 4.11118 0
M  V30 19864 H 1889.99 0.193128 0.635293 0
M  V30 19865 H 1892.52 1.16389 1.6827 0
M  V30 19866 H 1892.53 0.529394 4.04551 0
M  V30 19867 H 1891.21 1.65828 3.81411 0
M  V30 19868 H 1889.78 -0.171025 3.72508 0
M  V30 19869 N 1891.97 -1.4484 0.62123 0
M  V30 19870 C 1892.9 -2.33374 -0.0766286 0
M  V30 19871 C 1893.88 -1.47631 -0.844932 0
M  V30 19872 O 1895.06 -1.76373 -0.81278 0
M  V30 19873 C 1892.19 -3.30552 -1.0655 0
M  V30 19874 C 1891.15 -4.26037 -0.409496 0
M  V30 19875 C 1890.47 -5.13007 -1.50757 0
M  V30 19876 C 1891.77 -5.17881 0.677994 0
M  V30 19877 H 1893.47 -2.91975 0.662658 0
M  V30 19878 H 1891.01 -1.40397 0.320117 0
M  V30 19879 H 1892.97 -3.91367 -1.56237 0
M  V30 19880 H 1891.69 -2.70139 -1.83555 0
M  V30 19881 H 1890.35 -3.66539 0.0666321 0
M  V30 19882 H 1890 -4.48954 -2.26825 0
M  V30 19883 H 1889.7 -5.777 -1.07407 0
M  V30 19884 H 1891.22 -5.76692 -2.00645 0
M  V30 19885 H 1892.64 -5.72689 0.264637 0
M  V30 19886 H 1891.03 -5.91124 1.03405 0
M  V30 19887 H 1892.1 -4.59488 1.54914 0
M  V30 19888 N 1893.45 -0.361184 -1.53405 0
M  V30 19889 C 1894.86 0.118972 -1.86321 0
M  V30 19890 C 1895.21 1.48531 -1.28191 0
M  V30 19891 O 1894.33 2.07851 -0.602253 0
M  V30 19892 C 1894.93 0.222658 -3.38068 0
M  V30 19893 C 1893.49 0.647065 -3.70796 0
M  V30 19894 C 1892.63 -0.208424 -2.76516 0
M  V30 19895 H 1895.59 -0.580142 -1.47716 0
M  V30 19896 H 1895.61 1.04702 -3.65811 0
M  V30 19897 H 1895.12 -0.771922 -3.80346 0
M  V30 19898 H 1893.22 1.65003 -3.34073 0
M  V30 19899 H 1893.33 0.424724 -4.77214 0
M  V30 19900 H 1891.7 0.322011 -2.52656 0
M  V30 19901 H 1892.48 -1.20046 -3.21627 0
M  V30 19902 N 1894.92 1.57341 -0.0902386 0
M  V30 19903 C 1896.34 1.8145 0.439638 0
M  V30 19904 C 1896.69 1.00551 1.68475 0
M  V30 19905 O 1895.81 0.233442 2.15137 0
M  V30 19906 C 1896.41 3.29113 0.804384 0
M  V30 19907 C 1894.97 3.54003 1.27903 0
M  V30 19908 C 1894.11 2.7595 0.27328 0
M  V30 19909 H 1897.06 1.55527 -0.315738 0
M  V30 19910 H 1897.08 3.4217 1.66432 0
M  V30 19911 H 1896.6 3.87966 -0.102017 0
M  V30 19912 H 1894.7 3.00475 2.20331 0
M  V30 19913 H 1894.81 4.62662 1.24422 0
M  V30 19914 H 1893.17 2.43271 0.754419 0
M  V30 19915 H 1893.96 3.3755 -0.625715 0
M  V30 19916 N 1896.4 -0.183431 1.56529 0
M  V30 19917 C 1897.68 -0.928567 1.72154 0
M  V30 19918 C 1898.06 -2.00899 0.648284 0
M  V30 19919 O 1897.41 -2.25973 -0.338886 0
M  V30 19920 C 1897.62 -1.50436 3.14913 0
M  V30 19921 C 1898.97 -1.98198 3.75503 0
M  V30 19922 O 1899.99 -1.60255 3.18115 0
M  V30 19923 O 1898.85 -2.68054 4.76245 0
M  V30 19924 H 1895.94 -0.436242 0.702582 0
M  V30 19925 H 1898.49 -0.17221 1.68824 0
M  V30 19926 H 1897.26 -0.726145 3.84503 0
M  V30 19927 H 1896.88 -2.32523 3.22519 0
M  V30 19928 N 1897.88 -1.50992 -0.451564 0
M  V30 19929 C 1899.29 -1.55592 -1.03189 0
M  V30 19930 C 1899.64 -0.370923 -1.92662 0
M  V30 19931 O 1898.77 0.513972 -2.10208 0
M  V30 19932 C 1899.36 -2.81975 -1.87818 0
M  V30 19933 C 1897.92 -2.89192 -2.40925 0
M  V30 19934 C 1897.07 -2.50103 -1.19766 0
M  V30 19935 H 1900.02 -1.56974 -0.233388 0
M  V30 19936 H 1900.04 -2.64934 -2.73112 0
M  V30 19937 H 1899.55 -3.68203 -1.22672 0
M  V30 19938 H 1897.65 -2.07362 -3.09567 0
M  V30 19939 H 1897.77 -3.92529 -2.74696 0
M  V30 19940 H 1896.13 -2.02978 -1.53857 0
M  V30 19941 H 1896.91 -3.3866 -0.562517 0
M  V30 19942 N 1899.36 0.706069 -1.40899 0
M  V30 19943 C 1900.58 1.50008 -1.43221 0
M  V30 19944 C 1901.01 1.88065 -0.0362158 0
M  V30 19945 O 1900.37 1.5392 0.958036 0
M  V30 19946 C 1900.41 2.74578 -2.33751 0
M  V30 19947 O 1899.52 3.71657 -1.78731 0
M  V30 19948 H 1898.86 0.451899 -0.486501 0
M  V30 19949 H 1901.39 0.868772 -1.85239 0
M  V30 19950 H 1901.4 3.23002 -2.49266 0
M  V30 19951 H 1900.07 2.46214 -3.35189 0
M  V30 19952 H 1898.65 3.30544 -1.72612 0
M  V30 19953 N 1900.84 1.26553 0.939264 0
M  V30 19954 C 1901.79 1.04944 2.02412 0
M  V30 19955 C 1902.77 -0.0188072 1.60889 0
M  V30 19956 O 1903.96 0.198373 1.75885 0
M  V30 19957 C 1901.09 0.686442 3.36367 0
M  V30 19958 C 1900.18 1.79224 3.84369 0
M  V30 19959 N 1900.57 3.02998 4.05001 0
M  V30 19960 C 1898.87 1.67628 4.133 0
M  V30 19961 C 1899.57 3.7488 4.44792 0
M  V30 19962 N 1898.54 3.02578 4.51605 0
M  V30 19963 H 1902.35 1.98891 2.16379 0
M  V30 19964 H 1899.86 1.17098 1.12525 0
M  V30 19965 H 1901.86 0.512782 4.13734 0
M  V30 19966 H 1900.52 -0.245528 3.2377 0
M  V30 19967 H 1901.53 3.38883 3.91636 0
M  V30 19968 H 1898.2 0.814344 4.09481 0
M  V30 19969 H 1899.59 4.812 4.68931 0
M  V30 19970 N 1902.31 -1.14411 1.08387 0
M  V30 19971 C 1903.56 -1.85444 0.813433 0
M  V30 19972 C 1903.89 -1.82932 -0.66078 0
M  V30 19973 O 1903.14 -1.25498 -1.50162 0
M  V30 19974 C 1903.44 -3.33681 1.2803 0
M  V30 19975 C 1903.11 -3.56382 2.76229 0
M  V30 19976 C 1901.77 -3.62286 3.16705 0
M  V30 19977 C 1904.12 -3.65224 3.71835 0
M  V30 19978 C 1901.45 -3.74554 4.51582 0
M  V30 19979 C 1903.8 -3.79017 5.06487 0
M  V30 19980 C 1902.47 -3.8317 5.46568 0
M  V30 19981 H 1901.74 -0.678588 0.297656 0
M  V30 19982 H 1904.38 -1.35144 1.35677 0
M  V30 19983 H 1902.69 -3.8626 0.656551 0
M  V30 19984 H 1904.39 -3.87068 1.04781 0
M  V30 19985 H 1900.98 -3.52435 2.43901 0
M  V30 19986 H 1905.16 -3.59952 3.41684 0
M  V30 19987 H 1900.42 -3.76032 4.82089 0
M  V30 19988 H 1904.59 -3.84801 5.80432 0
M  V30 19989 H 1902.22 -3.92429 6.51079 0
M  V30 19990 N 1903.79 -0.869509 -1.31443 0
M  V30 19991 C 1905.07 -0.400903 -1.91447 0
M  V30 19992 C 1905.45 1.117 -1.79127 0
M  V30 19993 O 1904.8 1.94536 -1.19866 0
M  V30 19994 C 1905.01 -0.881767 -3.37677 0
M  V30 19995 C 1906.36 -0.90763 -4.14786 0
M  V30 19996 O 1907.38 -0.82739 -3.46457 0
M  V30 19997 O 1906.24 -1.02365 -5.36827 0
M  V30 19998 H 1903.33 -0.119842 -0.818271 0
M  V30 19999 H 1905.88 -0.957391 -1.40115 0
M  V30 20000 H 1904.65 -1.92533 -3.40657 0
M  V30 20001 H 1904.27 -0.303565 -3.96439 0
M  V30 20002 N 1905.27 1.44508 -0.628902 0
M  V30 20003 C 1906.52 2.01667 -0.13224 0
M  V30 20004 C 1906.84 1.49706 1.24953 0
M  V30 20005 O 1906.11 0.699769 1.82976 0
M  V30 20006 H 1904.69 0.745589 -0.0458966 0
M  V30 20007 H 1907.35 1.77037 -0.815102 0
M  V30 20008 H 1906.45 3.11945 -0.0982328 0
M  V30 20009 N 1906.75 0.369315 1.53212 0
M  V30 20010 C 1907.98 -0.219539 2.0543 0
M  V30 20011 C 1908.39 -1.42698 1.24233 0
M  V30 20012 O 1907.73 -1.81601 0.276938 0
M  V30 20013 C 1907.79 -0.673523 3.53134 0
M  V30 20014 C 1907.46 0.417737 4.55087 0
M  V30 20015 C 1908.45 1.2688 5.0418 0
M  V30 20016 C 1906.14 0.579049 4.98951 0
M  V30 20017 C 1908.13 2.26648 5.95743 0
M  V30 20018 C 1905.82 1.58009 5.90319 0
M  V30 20019 C 1906.82 2.42224 6.38605 0
M  V30 20020 O 1906.51 3.4062 7.28171 0
M  V30 20021 H 1906.24 -0.0415233 0.674724 0
M  V30 20022 H 1908.79 0.527123 1.98521 0
M  V30 20023 H 1907.02 -1.47185 3.57594 0
M  V30 20024 H 1908.71 -1.1858 3.88193 0
M  V30 20025 H 1909.48 1.15538 4.71037 0
M  V30 20026 H 1905.36 -0.0666753 4.60952 0
M  V30 20027 H 1908.9 2.92416 6.33355 0
M  V30 20028 H 1904.8 1.69397 6.22876 0
M  V30 20029 H 1905.56 3.36393 7.46178 0
M  V30 20030 N 1908.23 -1.57291 0.0985816 0
M  V30 20031 C 1909.17 -2.14215 -0.8591 0
M  V30 20032 C 1910.14 -1.06162 -1.27745 0
M  V30 20033 O 1911.33 -1.33967 -1.35858 0
M  V30 20034 C 1908.47 -2.72963 -2.11152 0
M  V30 20035 C 1907.58 -3.95259 -1.74339 0
M  V30 20036 C 1906.72 -4.4216 -2.94394 0
M  V30 20037 C 1905.76 -5.57038 -2.53723 0
M  V30 20038 N 1904.89 -5.98775 -3.66624 0
M  V30 20039 H 1909.73 -2.95734 -0.366821 0
M  V30 20040 H 1907.27 -1.46121 -0.169388 0
M  V30 20041 H 1909.23 -3.05145 -2.84504 0
M  V30 20042 H 1907.86 -1.94167 -2.57874 0
M  V30 20043 H 1906.91 -3.69369 -0.90942 0
M  V30 20044 H 1908.22 -4.78622 -1.40436 0
M  V30 20045 H 1907.38 -4.76144 -3.75994 0
M  V30 20046 H 1906.12 -3.57705 -3.31509 0
M  V30 20047 H 1905.12 -5.22678 -1.7055 0
M  V30 20048 H 1906.35 -6.43244 -2.17748 0
M  V30 20049 H 1904.29 -5.17265 -4.03451 0
M  V30 20050 H 1904.21 -6.76943 -3.36578 0
M  V30 20051 H 1905.48 -6.3739 -4.48725 0
M  V30 20052 N 1909.71 0.175127 -1.56624 0
M  V30 20053 C 1910.64 1.24137 -1.92672 0
M  V30 20054 C 1911.65 1.40675 -0.819417 0
M  V30 20055 O 1912.84 1.40746 -1.09786 0
M  V30 20056 C 1909.94 2.61063 -2.161 0
M  V30 20057 C 1909.11 2.65874 -3.47318 0
M  V30 20058 C 1908.17 3.84136 -3.59619 0
M  V30 20059 O 1907.2 3.70311 -4.32271 0
M  V30 20060 N 1908.4 5.00435 -2.94186 0
M  V30 20061 H 1911.16 0.935217 -2.84735 0
M  V30 20062 H 1908.73 0.364919 -1.57734 0
M  V30 20063 H 1910.72 3.38639 -2.21597 0
M  V30 20064 H 1909.29 2.84085 -1.3044 0
M  V30 20065 H 1908.51 1.74422 -3.53512 0
M  V30 20066 H 1909.8 2.66096 -4.33671 0
M  V30 20067 H 1909.19 5.14568 -2.35024 0
M  V30 20068 H 1907.75 5.75886 -3.05284 0
M  V30 20069 N 1911.18 1.5123 0.44355 0
M  V30 20070 C 1912.12 1.68281 1.55609 0
M  V30 20071 C 1913.13 0.563589 1.52733 0
M  V30 20072 O 1914.32 0.837706 1.57622 0
M  V30 20073 C 1911.42 1.67657 2.94524 0
M  V30 20074 C 1910.59 2.96063 3.21971 0
M  V30 20075 C 1909.65 2.8771 4.40578 0
M  V30 20076 O 1908.68 3.61659 4.39536 0
M  V30 20077 N 1909.88 2.03137 5.43797 0
M  V30 20078 H 1912.64 2.64252 1.41389 0
M  V30 20079 H 1910.2 1.49038 0.632398 0
M  V30 20080 H 1912.2 1.59646 3.71881 0
M  V30 20081 H 1910.77 0.79306 3.02373 0
M  V30 20082 H 1909.99 3.17991 2.32971 0
M  V30 20083 H 1911.27 3.81074 3.37135 0
M  V30 20084 H 1910.67 1.42422 5.47478 0
M  V30 20085 H 1909.23 2.0101 6.20031 0
M  V30 20086 N 1912.66 -0.698586 1.41271 0
M  V30 20087 C 1913.91 -1.45573 1.40189 0
M  V30 20088 C 1914.23 -1.94997 0.0108379 0
M  V30 20089 O 1913.5 -1.715 -0.946822 0
M  V30 20090 H 1912.08 -0.540134 0.516008 0
M  V30 20091 H 1914.74 -0.827048 1.76482 0
M  V30 20092 H 1913.84 -2.32036 2.08724 0
M  V30 20093 N 1914.14 -1.27049 -0.93254 0
M  V30 20094 C 1915.39 -1.1327 -1.68219 0
M  V30 20095 C 1915.72 0.321632 -1.91518 0
M  V30 20096 O 1914.99 1.23564 -1.50207 0
M  V30 20097 C 1915.28 -1.91162 -3.0517 0
M  V30 20098 C 1915.13 -3.44552 -2.89143 0
M  V30 20099 C 1916.45 -1.71227 -4.05425 0
M  V30 20100 H 1913.57 -0.412859 -0.610505 0
M  V30 20101 H 1916.21 -1.56148 -1.08249 0
M  V30 20102 H 1914.36 -1.54722 -3.56361 0
M  V30 20103 H 1916.03 -3.90794 -2.45107 0
M  V30 20104 H 1914.27 -3.71138 -2.24586 0
M  V30 20105 H 1914.95 -3.9429 -3.86315 0
M  V30 20106 H 1917.42 -2.0299 -3.63227 0
M  V30 20107 H 1916.3 -2.28129 -4.99248 0
M  V30 20108 H 1916.56 -0.65898 -4.37161 0
M  V30 20109 N 1915.62 1.13835 -1.08993 0
M  V30 20110 C 1916.86 1.85284 -0.824476 0
M  V30 20111 C 1917.2 1.83062 0.648235 0
M  V30 20112 O 1916.47 1.26555 1.47696 0
M  V30 20113 C 1916.75 3.33649 -1.35463 0
M  V30 20114 C 1916.61 3.44411 -2.89312 0
M  V30 20115 C 1917.93 4.28941 -0.984768 0
M  V30 20116 H 1915.05 0.672745 -0.300971 0
M  V30 20117 H 1917.69 1.3364 -1.35057 0
M  V30 20118 H 1915.84 3.77761 -0.907128 0
M  V30 20119 H 1917.51 3.09043 -3.42477 0
M  V30 20120 H 1915.75 2.85429 -3.26669 0
M  V30 20121 H 1916.42 4.48724 -3.21481 0
M  V30 20122 H 1918.9 3.92877 -1.37064 0
M  V30 20123 H 1917.78 5.31196 -1.38283 0
M  V30 20124 H 1918.04 4.41969 0.10755 0
M  V30 20125 N 1917.1 0.876467 1.3098 0
M  V30 20126 C 1918.34 0.486745 1.95739 0
M  V30 20127 C 1918.66 -0.967265 1.7001 0
M  V30 20128 O 1919.86 -1.46344 2.28683 0
M  V30 20129 C 1918.32 0.819534 3.50445 0
M  V30 20130 C 1917.93 2.29074 3.85005 0
M  V30 20131 C 1919.67 0.498597 4.21562 0
M  V30 20132 C 1917.58 2.5656 5.32851 0
M  V30 20133 H 1916.51 0.178295 0.732616 0
M  V30 20134 H 1919.16 1.07027 1.49055 0
M  V30 20135 H 1917.54 0.165191 3.95655 0
M  V30 20136 H 1918.72 2.98869 3.50733 0
M  V30 20137 H 1917.03 2.57836 3.2697 0
M  V30 20138 H 1919.63 0.6811 5.30344 0
M  V30 20139 H 1919.97 -0.561426 4.12497 0
M  V30 20140 H 1920.5 1.10976 3.82007 0
M  V30 20141 H 1917.24 3.61271 5.46959 0
M  V30 20142 H 1916.76 1.91366 5.68453 0
M  V30 20143 H 1918.44 2.41623 6.00189 0
M  V30 20144 N 1918.57 -1.44173 0.636557 0
M  V30 20145 C 1919.51 -2.27912 -0.114546 0
M  V30 20146 C 1920.48 -1.38856 -0.846028 0
M  V30 20147 O 1921.67 -1.68298 -0.84901 0
M  V30 20148 C 1918.8 -3.17907 -1.16844 0
M  V30 20149 C 1917.84 -4.23107 -0.536886 0
M  V30 20150 S 1918.67 -5.31202 0.677107 0
M  V30 20151 C 1919.83 -6.24766 -0.376669 0
M  V30 20152 H 1920.06 -2.91268 0.595839 0
M  V30 20153 H 1917.6 -1.48439 0.424887 0
M  V30 20154 H 1919.55 -3.70306 -1.77154 0
M  V30 20155 H 1918.22 -2.53761 -1.85105 0
M  V30 20156 H 1917.41 -4.86113 -1.3308 0
M  V30 20157 H 1917.01 -3.73999 -0.00829068 0
M  V30 20158 H 1919.3 -6.65912 -1.24768 0
M  V30 20159 H 1920.25 -7.07765 0.217942 0
M  V30 20160 H 1920.65 -5.6008 -0.705003 0
M  V30 20161 N 1920.05 -0.377435 -1.53014 0
M  V30 20162 C 1921.33 0.265508 -1.9379 0
M  V30 20163 C 1921.71 1.65381 -1.31195 0
M  V30 20164 O 1921.06 2.23497 -0.475517 0
M  V30 20165 C 1921.27 0.303805 -3.47675 0
M  V30 20166 C 1922.61 0.538469 -4.21172 0
M  V30 20167 O 1923.64 0.384517 -3.54118 0
M  V30 20168 O 1922.5 0.839154 -5.40019 0
M  V30 20169 H 1919.59 0.161997 -0.810978 0
M  V30 20170 H 1922.14 -0.431081 -1.64133 0
M  V30 20171 H 1920.91 -0.669104 -3.85537 0
M  V30 20172 H 1920.53 1.0458 -3.836 0
M  V30 20173 N 1921.53 1.57237 -0.106922 0
M  V30 20174 C 1922.81 1.8627 0.596889 0
M  V30 20175 C 1923.19 1.00593 1.85591 0
M  V30 20176 O 1922.54 0.0815394 2.28354 0
M  V30 20177 C 1922.75 3.37171 0.900934 0
M  V30 20178 C 1924.09 4.05497 1.25926 0
M  V30 20179 O 1925.12 3.4212 0.99158 0
M  V30 20180 O 1923.98 5.17347 1.76109 0
M  V30 20181 H 1921.07 0.770704 0.299907 0
M  V30 20182 H 1923.62 1.69117 -0.140513 0
M  V30 20183 H 1922.39 3.91299 0.00823337 0
M  V30 20184 H 1922.01 3.59712 1.69391 0
M  V30 20185 N 1923.01 -0.166818 1.56715 0
M  V30 20186 C 1923.94 -1.2086 1.99787 0
M  V30 20187 C 1924.92 -1.45918 0.874178 0
M  V30 20188 O 1926.1 -1.57176 1.14058 0
M  V30 20189 C 1923.23 -2.54648 2.3616 0
M  V30 20190 C 1922.19 -2.44151 3.51532 0
M  V30 20191 C 1921.51 -3.82469 3.7366 0
M  V30 20192 C 1922.81 -1.9424 4.84838 0
M  V30 20193 H 1924.51 -0.850538 2.87065 0
M  V30 20194 H 1922.05 -0.407696 1.38108 0
M  V30 20195 H 1924.01 -3.27736 2.64891 0
M  V30 20196 H 1922.73 -2.92251 1.45797 0
M  V30 20197 H 1921.39 -1.73516 3.22936 0
M  V30 20198 H 1921.04 -4.17473 2.8058 0
M  V30 20199 H 1920.74 -3.76312 4.5129 0
M  V30 20200 H 1922.26 -4.57136 4.04796 0
M  V30 20201 H 1923.68 -2.57105 5.12416 0
M  V30 20202 H 1922.07 -1.99021 5.66137 0
M  V30 20203 H 1923.14 -0.89695 4.76532 0
M  V30 20204 N 1924.49 -1.51463 -0.435524 0
M  V30 20205 C 1925.43 -1.73484 -1.54939 0
M  V30 20206 C 1926.43 -0.601197 -1.58373 0
M  V30 20207 O 1927.63 -0.782622 -1.62096 0
M  V30 20208 H 1924.01 -0.54818 -0.514784 0
M  V30 20209 H 1925.98 -2.66851 -1.3354 0
M  V30 20210 C 1924.73 -1.87866 -2.92578 0
M  V30 20211 H 1924.05 -2.74503 -2.90668 0
M  V30 20212 H 1925.49 -2.07285 -3.69877 0
M  V30 20213 C 1923.95 -0.638928 -3.30786 0
M  V30 20214 O 1924.48 0.205561 -4.01174 0
M  V30 20215 N 1922.69 -0.48249 -2.86567 0
M  V30 20216 H 1922.23 -1.17078 -2.29457 0
M  V30 20217 H 1922.19 0.345753 -3.12493 0
M  V30 20218 N 1925.96 0.691085 -1.4164 0
M  V30 20219 C 1926.9 1.81646 -1.39776 0
M  V30 20220 C 1927.91 1.60026 -0.299243 0
M  V30 20221 O 1929.1 1.69446 -0.561266 0
M  V30 20222 C 1926.2 3.18486 -1.15845 0
M  V30 20223 C 1925.37 3.67096 -2.37822 0
M  V30 20224 C 1924.43 4.82618 -2.09681 0
M  V30 20225 O 1923.46 4.94002 -2.82756 0
M  V30 20226 N 1924.66 5.70178 -1.08983 0
M  V30 20227 H 1927.42 1.83736 -2.36773 0
M  V30 20228 H 1924.98 0.873576 -1.36309 0
M  V30 20229 H 1926.98 3.934 -0.949639 0
M  V30 20230 H 1925.55 3.11394 -0.274301 0
M  V30 20231 H 1924.77 2.83038 -2.74377 0
M  V30 20232 H 1926.05 3.96312 -3.19083 0
M  V30 20233 H 1925.45 5.63616 -0.48512 0
M  V30 20234 H 1924.01 6.44973 -0.940906 0
M  V30 20235 N 1927.44 1.27542 0.925789 0
M  V30 20236 C 1928.39 1.10271 2.048 0
M  V30 20237 C 1929.38 0.0252694 1.69381 0
M  V30 20238 O 1930.59 0.183134 1.79066 0
M  V30 20239 H 1926.97 0.339845 0.670828 0
M  V30 20240 H 1928.94 2.0534 2.16513 0
M  V30 20241 C 1927.69 0.768681 3.39097 0
M  V30 20242 H 1927.01 1.58967 3.66837 0
M  V30 20243 H 1928.45 0.687719 4.18386 0
M  V30 20244 C 1926.91 -0.527037 3.32752 0
M  V30 20245 O 1927.44 -1.5609 3.70134 0
M  V30 20246 N 1925.64 -0.523354 2.85848 0
M  V30 20247 H 1925.19 0.318395 2.55625 0
M  V30 20248 H 1925.15 -1.39037 2.81986 0
M  V30 20249 N 1928.92 -1.13255 1.09595 0
M  V30 20250 C 1930.33 -1.66118 0.852147 0
M  V30 20251 C 1930.68 -1.86177 -0.61909 0
M  V30 20252 O 1929.81 -1.58186 -1.47669 0
M  V30 20253 C 1930.4 -3.0176 1.54034 0
M  V30 20254 C 1928.96 -3.51608 1.34347 0
M  V30 20255 C 1928.11 -2.26815 1.59531 0
M  V30 20256 H 1931.06 -0.971539 1.25486 0
M  V30 20257 H 1931.08 -3.67812 0.974418 0
M  V30 20258 H 1930.59 -2.87129 2.6111 0
M  V30 20259 H 1928.69 -3.71439 0.293951 0
M  V30 20260 H 1928.81 -4.31618 2.07949 0
M  V30 20261 H 1927.17 -2.33492 1.01753 0
M  V30 20262 H 1927.95 -2.14748 2.6784 0
M  V30 20263 N 1930.4 -0.883401 -1.30514 0
M  V30 20264 C 1931.68 -0.421186 -1.91011 0
M  V30 20265 C 1932.06 1.09793 -1.80301 0
M  V30 20266 O 1931.4 1.93254 -1.21923 0
M  V30 20267 C 1931.61 -0.917533 -3.36723 0
M  V30 20268 C 1932.96 -0.951573 -4.138 0
M  V30 20269 O 1933.99 -0.86409 -3.4556 0
M  V30 20270 O 1932.84 -1.08053 -5.35711 0
M  V30 20271 H 1929.94 -0.128514 -0.816954 0
M  V30 20272 H 1932.48 -0.972198 -1.39091 0
M  V30 20273 H 1931.26 -1.96135 -3.38595 0
M  V30 20274 H 1930.88 -0.345595 -3.96095 0
M  V30 20275 N 1931.88 1.43833 -0.644194 0
M  V30 20276 C 1933.12 2.01515 -0.153623 0
M  V30 20277 C 1933.45 1.51022 1.23358 0
M  V30 20278 O 1932.72 0.719137 1.82223 0
M  V30 20279 H 1931.3 0.74506 -0.053802 0
M  V30 20280 H 1933.96 1.76163 -0.833833 0
M  V30 20281 H 1933.05 3.11824 -0.131313 0
M  V30 20282 N 1933.35 0.385544 1.52811 0
M  V30 20283 C 1934.32 -0.439294 2.24951 0
M  V30 20284 C 1935.32 -0.993315 1.26451 0
M  V30 20285 O 1936.51 -0.875911 1.50577 0
M  V30 20286 C 1933.64 -1.61595 3.00166 0
M  V30 20287 H 1934.83 0.192232 2.99283 0
M  V30 20288 H 1932.39 0.137589 1.55693 0
M  V30 20289 H 1933.12 -2.28501 2.30125 0
M  V30 20290 H 1932.91 -1.22544 3.72459 0
M  V30 20291 H 1934.4 -2.20001 3.5495 0
M  V30 20292 N 1934.83 -1.57178 0.115259 0
M  V30 20293 C 1936.11 -1.86584 -0.587002 0
M  V30 20294 C 1936.49 -1.01576 -1.85055 0
M  V30 20295 O 1935.84 -0.0936485 -2.28308 0
M  V30 20296 C 1936.05 -3.37644 -0.883041 0
M  V30 20297 C 1937.4 -4.06159 -1.23773 0
M  V30 20298 O 1938.42 -3.42641 -0.973422 0
M  V30 20299 O 1937.28 -5.18274 -1.73363 0
M  V30 20300 H 1934.37 -0.772284 -0.295816 0
M  V30 20301 H 1936.92 -1.6904 0.14948 0
M  V30 20302 H 1935.69 -3.91298 0.0125183 0
M  V30 20303 H 1935.31 -3.60605 -1.67481 0
M  V30 20304 N 1936.31 0.158505 -1.56801 0
M  V30 20305 C 1937.24 1.22518 -1.92522 0
M  V30 20306 C 1938.22 1.42142 -0.789589 0
M  V30 20307 O 1939.41 1.56941 -1.04412 0
M  V30 20308 C 1936.53 2.58604 -2.18728 0
M  V30 20309 C 1935.58 2.55642 -3.41394 0
M  V30 20310 S 1936.41 2.03464 -4.95341 0
M  V30 20311 C 1937.57 3.41302 -5.24656 0
M  V30 20312 H 1937.8 0.920362 -2.82695 0
M  V30 20313 H 1935.33 0.363629 -1.50057 0
M  V30 20314 H 1937.29 3.36923 -2.34506 0
M  V30 20315 H 1935.95 2.8628 -1.29239 0
M  V30 20316 H 1935.15 3.55792 -3.56971 0
M  V30 20317 H 1934.75 1.85426 -3.24797 0
M  V30 20318 H 1937.04 4.37361 -5.17418 0
M  V30 20319 H 1937.98 3.30588 -6.26192 0
M  V30 20320 H 1938.39 3.37906 -4.52194 0
M  V30 20321 N 1937.79 1.51692 0.427485 0
M  V30 20322 C 1938.74 1.73716 1.51958 0
M  V30 20323 C 1939.71 0.579073 1.55679 0
M  V30 20324 O 1940.89 0.814605 1.72536 0
M  V30 20325 C 1938.03 1.87709 2.89585 0
M  V30 20326 C 1937.14 3.15297 2.95317 0
M  V30 20327 C 1936.28 3.19827 4.24128 0
M  V30 20328 C 1935.32 4.4169 4.23764 0
M  V30 20329 N 1934.46 4.43715 5.44116 0
M  V30 20330 H 1939.3 2.66933 1.3248 0
M  V30 20331 H 1936.83 1.32283 0.643393 0
M  V30 20332 H 1938.79 1.93804 3.69454 0
M  V30 20333 H 1937.42 0.978912 3.07599 0
M  V30 20334 H 1936.47 3.18464 2.08051 0
M  V30 20335 H 1937.78 4.05182 2.90911 0
M  V30 20336 H 1936.94 3.24892 5.12377 0
M  V30 20337 H 1935.68 2.27848 4.31204 0
M  V30 20338 H 1934.68 4.36791 3.33907 0
M  V30 20339 H 1935.91 5.34944 4.18343 0
M  V30 20340 H 1933.85 3.5461 5.51894 0
M  V30 20341 H 1933.77 5.27421 5.4163 0
M  V30 20342 H 1935.04 4.52986 6.34369 0
M  V30 20343 N 1939.27 -0.683564 1.42004 0
M  V30 20344 C 1940.2 -1.8095 1.47578 0
M  V30 20345 C 1941.18 -1.66804 0.333208 0
M  V30 20346 O 1942.36 -1.86357 0.546314 0
M  V30 20347 C 1939.49 -3.19182 1.36895 0
M  V30 20348 C 1938.45 -3.4805 2.49089 0
M  V30 20349 C 1937.77 -4.85764 2.23467 0
M  V30 20350 C 1939.07 -3.4582 3.91415 0
M  V30 20351 H 1940.77 -1.76543 2.41812 0
M  V30 20352 H 1938.31 -0.84794 1.16387 0
M  V30 20353 H 1940.27 -3.97674 1.39404 0
M  V30 20354 H 1938.99 -3.24245 0.391513 0
M  V30 20355 H 1937.65 -2.71915 2.45882 0
M  V30 20356 H 1937.3 -4.87467 1.24037 0
M  V30 20357 H 1937 -5.06043 2.98654 0
M  V30 20358 H 1938.52 -5.66551 2.27711 0
M  V30 20359 H 1939.94 -4.14297 3.96272 0
M  V30 20360 H 1938.33 -3.77633 4.66383 0
M  V30 20361 H 1939.4 -2.4456 4.1871 0
M  V30 20362 N 1940.75 -1.28031 -0.919012 0
M  V30 20363 C 1941.99 -1.14878 -1.66761 0
M  V30 20364 C 1942.32 0.303688 -1.92115 0
M  V30 20365 O 1941.58 1.23781 -1.51581 0
M  V30 20366 C 1941.87 -1.887 -3.03524 0
M  V30 20367 C 1941.54 -3.3852 -2.9785 0
M  V30 20368 C 1940.2 -3.79383 -2.9601 0
M  V30 20369 C 1942.55 -4.34077 -2.88491 0
M  V30 20370 C 1939.88 -5.14152 -2.82604 0
M  V30 20371 C 1942.23 -5.68912 -2.76625 0
M  V30 20372 C 1940.9 -6.09057 -2.7314 0
M  V30 20373 H 1940.17 -0.420368 -0.610223 0
M  V30 20374 H 1942.82 -1.58743 -1.07111 0
M  V30 20375 H 1941.12 -1.37368 -3.66929 0
M  V30 20376 H 1942.82 -1.75944 -3.6034 0
M  V30 20377 H 1939.41 -3.06028 -3.00074 0
M  V30 20378 H 1943.59 -4.03473 -2.89004 0
M  V30 20379 H 1938.85 -5.4439 -2.78298 0
M  V30 20380 H 1943.02 -6.4262 -2.6835 0
M  V30 20381 H 1940.65 -7.13437 -2.62509 0
M  V30 20382 N 1942.22 1.12672 -1.10194 0
M  V30 20383 C 1943.46 1.85769 -0.852599 0
M  V30 20384 C 1943.83 1.82027 0.610749 0
M  V30 20385 O 1945.03 2.50442 0.976339 0
M  V30 20386 C 1943.3 3.29565 -1.38281 0
M  V30 20387 S 1944.86 4.20064 -1.26853 0
M  V30 20388 H 1941.68 0.64075 -0.308157 0
M  V30 20389 H 1944.28 1.35746 -1.40689 0
M  V30 20390 H 1942.98 3.29846 -2.44192 0
M  V30 20391 H 1942.51 3.84652 -0.824994 0
M  V30 20392 H 1944.53 4.95691 -0.224588 0
M  V30 20393 N 1943.7 0.89031 1.30043 0
M  V30 20394 C 1944.63 0.31832 2.26979 0
M  V30 20395 C 1945.65 -0.530108 1.53928 0
M  V30 20396 O 1946.84 -0.348791 1.75059 0
M  V30 20397 C 1943.94 -0.565563 3.34148 0
M  V30 20398 C 1943.11 0.255006 4.36656 0
M  V30 20399 C 1942.17 -0.560216 5.23209 0
M  V30 20400 O 1941.19 0.0189739 5.69197 0
M  V30 20401 N 1942.4 -1.86825 5.49615 0
M  V30 20402 H 1945.16 1.15143 2.76699 0
M  V30 20403 H 1942.72 0.753836 1.43279 0
M  V30 20404 H 1944.71 -1.11711 3.88976 0
M  V30 20405 H 1943.28 -1.29935 2.84316 0
M  V30 20406 H 1942.5 0.987993 3.81618 0
M  V30 20407 H 1943.79 0.817308 5.02193 0
M  V30 20408 H 1943.19 -2.36167 5.14045 0
M  V30 20409 H 1941.75 -2.36713 6.07297 0
M  V30 20410 N 1945.18 -1.43489 0.651812 0
M  V30 20411 C 1946.11 -2.28021 -0.0903669 0
M  V30 20412 C 1947.09 -1.39746 -0.831253 0
M  V30 20413 O 1948.27 -1.69189 -0.831112 0
M  V30 20414 C 1945.4 -3.19129 -1.13466 0
M  V30 20415 C 1944.45 -4.23653 -0.49198 0
M  V30 20416 S 1945.28 -5.30454 0.73341 0
M  V30 20417 C 1946.44 -6.2513 -0.310383 0
M  V30 20418 H 1946.67 -2.9062 0.626698 0
M  V30 20419 H 1944.2 -1.4798 0.440607 0
M  V30 20420 H 1946.16 -3.72165 -1.73216 0
M  V30 20421 H 1944.82 -2.5571 -1.82403 0
M  V30 20422 H 1944.01 -4.87497 -1.27917 0
M  V30 20423 H 1943.62 -3.73987 0.0313774 0
M  V30 20424 H 1945.91 -6.67198 -1.17698 0
M  V30 20425 H 1946.85 -7.07494 0.292997 0
M  V30 20426 H 1947.26 -5.60797 -0.645559 0
M  V30 20427 N 1946.66 -0.393643 -1.52605 0
M  V30 20428 C 1947.9 0.187431 -2.01932 0
M  V30 20429 C 1948.24 1.46098 -1.27942 0
M  V30 20430 O 1947.51 1.90729 -0.381154 0
M  V30 20431 C 1947.79 0.450933 -3.57265 0
M  V30 20432 C 1947.65 -0.838204 -4.41921 0
M  V30 20433 C 1948.97 1.23971 -4.22278 0
M  V30 20434 H 1946.09 0.0666471 -0.73398 0
M  V30 20435 H 1948.73 -0.524064 -1.8263 0
M  V30 20436 H 1946.88 1.05703 -3.73844 0
M  V30 20437 H 1948.55 -1.47492 -4.37086 0
M  V30 20438 H 1946.79 -1.45258 -4.08757 0
M  V30 20439 H 1947.46 -0.608424 -5.48637 0
M  V30 20440 H 1949.94 0.726733 -4.09705 0
M  V30 20441 H 1948.82 1.39283 -5.30935 0
M  V30 20442 H 1949.08 2.25611 -3.802 0
M  V30 20443 N 1948.14 1.57115 -0.123593 0
M  V30 20444 C 1949.36 2.00133 0.544196 0
M  V30 20445 C 1949.79 1.00282 1.59139 0
M  V30 20446 O 1949.14 -0.0248396 1.81283 0
M  V30 20447 C 1949.19 3.4201 1.14287 0
M  V30 20448 O 1948.3 3.45071 2.25832 0
M  V30 20449 H 1947.64 0.650029 0.135492 0
M  V30 20450 H 1950.17 2.03484 -0.213423 0
M  V30 20451 H 1950.18 3.80316 1.47728 0
M  V30 20452 H 1948.85 4.14198 0.375866 0
M  V30 20453 H 1947.43 3.18587 1.93795 0
M  V30 20454 N 1949.61 -0.150187 1.56883 0
M  V30 20455 C 1950.84 -0.87835 1.8733 0
M  V30 20456 C 1951.26 -1.74883 0.711426 0
M  V30 20457 O 1950.61 -1.79692 -0.318906 0
M  V30 20458 C 1950.66 -1.73769 3.16996 0
M  V30 20459 O 1950.39 -0.902296 4.28708 0
M  V30 20460 C 1951.89 -2.57371 3.60936 0
M  V30 20461 H 1949.11 -0.254139 0.621011 0
M  V30 20462 H 1951.65 -0.143933 2.03993 0
M  V30 20463 H 1949.81 -2.42521 3.02097 0
M  V30 20464 H 1950.22 -1.49198 5.02832 0
M  V30 20465 H 1951.69 -3.13249 4.5451 0
M  V30 20466 H 1952.17 -3.33257 2.86071 0
M  V30 20467 H 1952.78 -1.93916 3.78519 0
M  V30 20468 N 1951.09 -1.51916 -0.419434 0
M  V30 20469 C 1952.34 -1.65714 -1.16905 0
M  V30 20470 C 1952.67 -0.380888 -1.90428 0
M  V30 20471 O 1951.95 0.620297 -1.84344 0
M  V30 20472 C 1952.23 -2.87239 -2.17177 0
M  V30 20473 C 1952.08 -4.24887 -1.47619 0
M  V30 20474 C 1953.4 -3.04281 -3.17964 0
M  V30 20475 H 1950.52 -0.603072 -0.423643 0
M  V30 20476 H 1953.16 -1.84446 -0.456035 0
M  V30 20477 H 1951.31 -2.71398 -2.77984 0
M  V30 20478 H 1952.98 -4.52433 -0.900112 0
M  V30 20479 H 1951.23 -4.26761 -0.778273 0
M  V30 20480 H 1951.9 -5.05945 -2.20733 0
M  V30 20481 H 1954.37 -3.18951 -2.67226 0
M  V30 20482 H 1953.25 -3.90843 -3.85399 0
M  V30 20483 H 1953.51 -2.17138 -3.85102 0
M  V30 20484 N 1952.57 0.676023 -1.42365 0
M  V30 20485 C 1953.48 1.81906 -1.48147 0
M  V30 20486 C 1954.5 1.70014 -0.37032 0
M  V30 20487 O 1955.67 1.91586 -0.621036 0
M  V30 20488 C 1952.74 3.18039 -1.38029 0
M  V30 20489 C 1951.8 3.41897 -2.59625 0
M  V30 20490 C 1951.03 4.71536 -2.4998 0
M  V30 20491 O 1951.25 5.49358 -1.535 0
M  V30 20492 O 1950.19 4.9661 -3.40091 0
M  V30 20493 H 1954.01 1.79984 -2.44621 0
M  V30 20494 H 1951.6 0.831611 -1.24115 0
M  V30 20495 H 1953.48 3.99277 -1.34743 0
M  V30 20496 H 1952.16 3.20602 -0.446789 0
M  V30 20497 H 1951.06 2.60512 -2.68485 0
M  V30 20498 H 1952.4 3.44164 -3.51869 0
M  V30 20499 N 1954.05 1.28517 0.912209 0
M  V30 20500 C 1955.3 1.15761 1.6615 0
M  V30 20501 C 1955.62 -0.293495 1.92273 0
M  V30 20502 O 1954.88 -1.22975 1.52235 0
M  V30 20503 C 1955.18 1.90307 3.02519 0
M  V30 20504 C 1954.84 3.40095 2.96051 0
M  V30 20505 C 1953.51 3.80948 2.93994 0
M  V30 20506 C 1955.86 4.35601 2.86185 0
M  V30 20507 C 1953.19 5.15643 2.79873 0
M  V30 20508 C 1955.54 5.70371 2.73604 0
M  V30 20509 C 1954.2 6.10497 2.69906 0
M  V30 20510 H 1953.47 0.423598 0.607985 0
M  V30 20511 H 1956.12 1.59309 1.06268 0
M  V30 20512 H 1954.42 1.39312 3.66196 0
M  V30 20513 H 1956.12 1.77852 3.59402 0
M  V30 20514 H 1952.71 3.07615 2.98447 0
M  V30 20515 H 1956.89 4.05 2.8686 0
M  V30 20516 H 1952.15 5.45858 2.75407 0
M  V30 20517 H 1956.32 6.44035 2.64939 0
M  V30 20518 H 1953.95 7.1482 2.58722 0
M  V30 20519 N 1955.53 -1.12086 1.1079 0
M  V30 20520 C 1956.78 -1.83036 0.847387 0
M  V30 20521 C 1957.09 -1.85209 -0.629051 0
M  V30 20522 O 1958.29 -2.52191 -1.00559 0
M  V30 20523 C 1956.75 -3.28682 1.46615 0
M  V30 20524 C 1956.36 -3.34858 2.97614 0
M  V30 20525 C 1958.1 -4.04578 1.28519 0
M  V30 20526 C 1956.01 -4.7486 3.52508 0
M  V30 20527 H 1954.94 -0.685806 0.313347 0
M  V30 20528 H 1957.59 -1.2618 1.33233 0
M  V30 20529 H 1955.97 -3.85429 0.908883 0
M  V30 20530 H 1957.15 -2.8803 3.59688 0
M  V30 20531 H 1955.46 -2.72438 3.14907 0
M  V30 20532 H 1958.06 -5.07962 1.6697 0
M  V30 20533 H 1958.4 -4.1568 0.227105 0
M  V30 20534 H 1958.93 -3.542 1.81073 0
M  V30 20535 H 1955.67 -4.68954 4.57999 0
M  V30 20536 H 1955.19 -5.22125 2.95203 0
M  V30 20537 H 1956.87 -5.43807 3.50546 0
M  V30 20538 N 1957 -0.897194 -1.29569 0
M  V30 20539 C 1958.42 -0.570676 -1.77764 0
M  V30 20540 C 1958.77 0.913595 -1.73631 0
M  V30 20541 O 1957.89 1.71426 -1.32068 0
M  V30 20542 C 1958.49 -1.02914 -3.22791 0
M  V30 20543 C 1957.05 -0.753828 -3.68774 0
M  V30 20544 C 1956.19 -1.20525 -2.49738 0
M  V30 20545 H 1959.14 -1.08018 -1.16266 0
M  V30 20546 H 1959.16 -0.363343 -3.78761 0
M  V30 20547 H 1958.68 -2.10944 -3.25767 0
M  V30 20548 H 1956.78 0.313965 -3.71275 0
M  V30 20549 H 1956.89 -1.34995 -4.59688 0
M  V30 20550 H 1955.25 -0.624304 -2.4693 0
M  V30 20551 H 1956.04 -2.29355 -2.55443 0
M  V30 20552 N 1958.48 1.43142 -0.659413 0
M  V30 20553 C 1959.89 1.84958 -0.254412 0
M  V30 20554 C 1960.24 1.552 1.20031 0
M  V30 20555 O 1959.37 1.00407 1.91696 0
M  V30 20556 C 1959.96 3.35731 -0.454961 0
M  V30 20557 C 1958.52 3.76256 -0.104223 0
M  V30 20558 C 1957.67 2.66828 -0.754849 0
M  V30 20559 H 1960.62 1.33206 -0.862657 0
M  V30 20560 H 1960.64 3.79334 0.297654 0
M  V30 20561 H 1960.15 3.57359 -1.51381 0
M  V30 20562 H 1958.26 3.60239 0.951785 0
M  V30 20563 H 1958.37 4.76115 -0.534009 0
M  V30 20564 H 1956.73 2.54009 -0.187526 0
M  V30 20565 H 1957.52 2.91283 -1.81685 0
M  V30 20566 N 1959.96 0.40173 1.52394 0
M  V30 20567 C 1960.89 -0.4718 2.2327 0
M  V30 20568 C 1961.87 -1.05401 1.23812 0
M  V30 20569 O 1963.06 -1.10329 1.52839 0
M  V30 20570 C 1960.18 -1.6542 2.95557 0
M  V30 20571 C 1959.23 -1.19607 4.09385 0
M  V30 20572 S 1960.06 -0.16732 5.35239 0
M  V30 20573 C 1961.22 -1.35521 6.11052 0
M  V30 20574 H 1961.45 0.130025 2.97016 0
M  V30 20575 H 1958.98 0.185984 1.53276 0
M  V30 20576 H 1960.94 -2.33224 3.37812 0
M  V30 20577 H 1959.6 -2.22735 2.21468 0
M  V30 20578 H 1958.8 -2.07925 4.59111 0
M  V30 20579 H 1958.4 -0.596775 3.69208 0
M  V30 20580 H 1960.69 -2.28013 6.37978 0
M  V30 20581 H 1961.63 -0.898632 7.02375 0
M  V30 20582 H 1962.04 -1.57765 5.42006 0
M  V30 20583 N 1961.44 -1.57047 0.131923 0
M  V30 20584 C 1962.4 -2.14813 -0.799243 0
M  V30 20585 C 1963.4 -1.08616 -1.18572 0
M  V30 20586 O 1964.59 -1.3433 -1.10911 0
M  V30 20587 C 1961.72 -2.69894 -2.08255 0
M  V30 20588 H 1962.92 -2.98426 -0.296996 0
M  V30 20589 H 1960.47 -1.55858 -0.117418 0
M  V30 20590 H 1961.2 -1.89905 -2.62881 0
M  V30 20591 H 1960.99 -3.47574 -1.81479 0
M  V30 20592 H 1962.48 -3.14451 -2.74792 0
M  V30 20593 N 1962.92 0.141865 -1.5696 0
M  V30 20594 C 1964.14 0.872384 -1.8816 0
M  V30 20595 C 1964.57 1.73713 -0.721494 0
M  V30 20596 O 1963.92 1.78294 0.328757 0
M  V30 20597 C 1963.97 1.7007 -3.17976 0
M  V30 20598 O 1963.08 2.80545 -3.02271 0
M  V30 20599 H 1962.42 0.242672 -0.618066 0
M  V30 20600 H 1964.95 0.131136 -2.04179 0
M  V30 20601 H 1964.96 2.09466 -3.50126 0
M  V30 20602 H 1963.63 1.06573 -4.02014 0
M  V30 20603 H 1962.21 2.44519 -2.81541 0
M  V30 20604 N 1964.39 1.52136 0.411372 0
M  V30 20605 C 1965.32 1.78277 1.50796 0
M  V30 20606 C 1966.31 0.633643 1.57857 0
M  V30 20607 O 1967.49 0.879011 1.73168 0
M  V30 20608 C 1964.62 1.93142 2.88641 0
M  V30 20609 C 1963.57 3.08727 2.96431 0
M  V30 20610 C 1962.9 3.08812 4.36508 0
M  V30 20611 C 1964.2 4.48228 2.68122 0
M  V30 20612 H 1965.89 2.70102 1.29171 0
M  V30 20613 H 1963.44 1.29971 0.619965 0
M  V30 20614 H 1965.39 2.10012 3.65339 0
M  V30 20615 H 1964.12 0.979869 3.11554 0
M  V30 20616 H 1962.78 2.91604 2.22177 0
M  V30 20617 H 1962.42 2.11383 4.56428 0
M  V30 20618 H 1962.12 3.86444 4.42645 0
M  V30 20619 H 1963.65 3.27809 5.15144 0
M  V30 20620 H 1965.06 4.65568 3.34544 0
M  V30 20621 H 1963.46 5.27761 2.85638 0
M  V30 20622 H 1964.53 4.56478 1.63572 0
M  V30 20623 N 1965.87 -0.668464 1.42721 0
M  V30 20624 C 1966.78 -1.81118 1.49109 0
M  V30 20625 C 1967.8 -1.69815 0.379331 0
M  V30 20626 O 1968.98 -1.91254 0.631187 0
M  V30 20627 C 1966.04 -3.17303 1.39713 0
M  V30 20628 C 1965.1 -3.40515 2.61434 0
M  V30 20629 C 1964.33 -4.70203 2.52477 0
M  V30 20630 O 1964.56 -5.48536 1.56411 0
M  V30 20631 O 1963.49 -4.948 3.42719 0
M  V30 20632 H 1967.32 -1.78684 2.45572 0
M  V30 20633 H 1964.9 -0.825017 1.24554 0
M  V30 20634 H 1966.78 -3.98557 1.36859 0
M  V30 20635 H 1965.46 -3.2036 0.463785 0
M  V30 20636 H 1964.37 -2.59085 2.69863 0
M  V30 20637 H 1965.7 -3.42293 3.53689 0
M  V30 20638 N 1967.35 -1.28999 -0.905381 0
M  V30 20639 C 1968.26 -1.15513 -2.04191 0
M  V30 20640 C 1969.28 -0.0797116 -1.73817 0
M  V30 20641 O 1970.45 -0.290664 -1.99292 0
M  V30 20642 C 1967.52 -0.826901 -3.36695 0
M  V30 20643 C 1966.58 -1.98557 -3.80623 0
M  V30 20644 C 1965.81 -1.6729 -5.06803 0
M  V30 20645 O 1966.04 -0.591168 -5.67328 0
M  V30 20646 O 1964.97 -2.51914 -5.46647 0
M  V30 20647 H 1968.8 -2.10942 -2.18488 0
M  V30 20648 H 1966.38 -1.08397 -1.02813 0
M  V30 20649 H 1968.26 -0.658165 -4.16228 0
M  V30 20650 H 1966.94 0.0976541 -3.23553 0
M  V30 20651 H 1965.84 -2.20951 -3.0188 0
M  V30 20652 H 1967.18 -2.89112 -3.9834 0
M  V30 20653 N 1968.83 1.11497 -1.11383 0
M  V30 20654 C 1969.78 2.1752 -0.771611 0
M  V30 20655 C 1970.75 1.64106 0.256616 0
M  V30 20656 O 1971.93 1.90331 0.133672 0
M  V30 20657 C 1969.07 3.44396 -0.220313 0
M  V30 20658 C 1968.18 4.11817 -1.30503 0
M  V30 20659 C 1967.32 5.26375 -0.714331 0
M  V30 20660 C 1966.36 5.85679 -1.77894 0
M  V30 20661 N 1965.5 6.91634 -1.20778 0
M  V30 20662 H 1970.34 2.46138 -1.67989 0
M  V30 20663 H 1967.87 1.20832 -0.838927 0
M  V30 20664 H 1969.83 4.17035 0.117286 0
M  V30 20665 H 1968.46 3.16164 0.651161 0
M  V30 20666 H 1967.51 3.37258 -1.75959 0
M  V30 20667 H 1968.82 4.5195 -2.11051 0
M  V30 20668 H 1967.98 6.05819 -0.326754 0
M  V30 20669 H 1966.72 4.87546 0.12248 0
M  V30 20670 H 1965.72 5.04914 -2.17583 0
M  V30 20671 H 1966.95 6.26576 -2.61877 0
M  V30 20672 H 1964.89 6.54824 -0.392602 0
M  V30 20673 H 1964.81 7.30419 -1.94998 0
M  V30 20674 H 1966.08 7.74884 -0.847072 0
M  V30 20675 N 1970.31 0.904053 1.29092 0
M  V30 20676 C 1971.56 0.531152 1.94995 0
M  V30 20677 C 1971.88 -0.926415 1.71588 0
M  V30 20678 O 1971.15 -1.65378 1.0501 0
M  V30 20679 H 1969.73 0.193439 0.721519 0
M  V30 20680 H 1972.39 1.1513 1.57262 0
M  V30 20681 H 1971.48 0.717412 3.03743 0
M  V30 20682 N 1971.79 -1.4279 0.666995 0
M  V30 20683 C 1973.03 -2.00866 0.183286 0
M  V30 20684 C 1973.35 -1.53315 -1.21465 0
M  V30 20685 O 1974.55 -2.03756 -1.79432 0
M  V30 20686 C 1973.01 -3.58834 0.276836 0
M  V30 20687 C 1972.62 -4.15374 1.67834 0
M  V30 20688 C 1974.36 -4.2424 -0.14856 0
M  V30 20689 C 1972.27 -5.65681 1.72507 0
M  V30 20690 H 1971.2 -0.751214 0.0647613 0
M  V30 20691 H 1973.85 -1.63603 0.83104 0
M  V30 20692 H 1972.23 -3.93563 -0.438672 0
M  V30 20693 H 1973.41 -3.9212 2.4203 0
M  V30 20694 H 1971.72 -3.62391 2.0509 0
M  V30 20695 H 1974.32 -5.34533 -0.133681 0
M  V30 20696 H 1974.66 -3.99154 -1.18245 0
M  V30 20697 H 1975.19 -3.94444 0.51567 0
M  V30 20698 H 1971.93 -5.95555 2.73852 0
M  V30 20699 H 1971.45 -5.9095 1.02655 0
M  V30 20700 H 1973.13 -6.29963 1.47499 0
M  V30 20701 N 1973.26 -0.409806 -1.52179 0
M  V30 20702 C 1974.19 0.406421 -2.29936 0
M  V30 20703 C 1975.17 1.04553 -1.34174 0
M  V30 20704 O 1976.36 1.05441 -1.63082 0
M  V30 20705 C 1973.49 1.52297 -3.12127 0
M  V30 20706 C 1972.44 1.00883 -4.15941 0
M  V30 20707 C 1971.77 2.21903 -4.8648 0
M  V30 20708 C 1973.07 0.0623996 -5.22263 0
M  V30 20709 H 1974.76 -0.242406 -2.98417 0
M  V30 20710 H 1972.31 -0.118023 -1.43516 0
M  V30 20711 H 1974.26 2.10097 -3.65291 0
M  V30 20712 H 1972.99 2.19968 -2.41416 0
M  V30 20713 H 1971.65 0.453228 -3.63788 0
M  V30 20714 H 1971.29 2.88131 -4.12298 0
M  V30 20715 H 1970.99 1.88153 -5.56662 0
M  V30 20716 H 1972.52 2.80308 -5.42457 0
M  V30 20717 H 1973.93 0.549223 -5.70663 0
M  V30 20718 H 1972.33 -0.186317 -5.99811 0
M  V30 20719 H 1973.4 -0.882673 -4.76799 0
M  V30 20720 N 1974.74 1.56975 -0.14025 0
M  V30 20721 C 1975.99 1.95906 0.512543 0
M  V30 20722 C 1976.32 1.02475 1.65315 0
M  V30 20723 O 1975.57 0.0526473 1.95629 0
M  V30 20724 C 1975.87 3.4113 1.06606 0
M  V30 20725 C 1975.54 4.50878 0.044598 0
M  V30 20726 C 1974.2 4.8062 -0.236217 0
M  V30 20727 C 1976.55 5.17126 -0.650368 0
M  V30 20728 C 1973.88 5.73919 -1.21792 0
M  V30 20729 C 1976.23 6.11483 -1.62084 0
M  V30 20730 C 1974.89 6.39607 -1.90943 0
M  V30 20731 H 1974.16 0.716872 0.187553 0
M  V30 20732 H 1976.81 1.90166 -0.225653 0
M  V30 20733 H 1975.12 3.43669 1.88145 0
M  V30 20734 H 1976.81 3.68577 1.57961 0
M  V30 20735 H 1973.4 4.27726 0.273651 0
M  V30 20736 H 1977.59 4.94286 -0.446606 0
M  V30 20737 H 1972.84 5.94005 -1.44802 0
M  V30 20738 H 1977.02 6.61895 -2.1649 0
M  V30 20739 H 1974.64 7.11707 -2.67165 0
M  V30 20740 N 1976.22 -0.133539 1.57033 0
M  V30 20741 C 1977.45 -0.858432 1.88251 0
M  V30 20742 C 1977.86 -1.74119 0.729935 0
M  V30 20743 O 1977.22 -1.8002 -0.29983 0
M  V30 20744 C 1977.27 -1.70397 3.18821 0
M  V30 20745 O 1976.99 -0.856775 4.29641 0
M  V30 20746 C 1978.49 -2.53529 3.63646 0
M  V30 20747 H 1975.71 -0.247538 0.623671 0
M  V30 20748 H 1978.26 -0.122289 2.04134 0
M  V30 20749 H 1976.41 -2.39303 3.04652 0
M  V30 20750 H 1976.83 -1.43857 5.04386 0
M  V30 20751 H 1978.3 -3.0841 4.57807 0
M  V30 20752 H 1978.78 -3.30204 2.89589 0
M  V30 20753 H 1979.38 -1.89891 3.80554 0
M  V30 20754 N 1977.7 -1.52352 -0.403298 0
M  V30 20755 C 1978.92 -1.70849 -1.17582 0
M  V30 20756 C 1979.35 -0.419696 -1.83358 0
M  V30 20757 O 1978.71 0.623346 -1.70247 0
M  V30 20758 C 1978.75 -2.8492 -2.21027 0
M  V30 20759 O 1977.86 -2.50896 -3.273 0
M  V30 20760 H 1977.2 -0.568568 -0.342967 0
M  V30 20761 H 1979.73 -1.99082 -0.471975 0
M  V30 20762 H 1979.74 -3.10002 -2.6526 0
M  V30 20763 H 1978.41 -3.78423 -1.72536 0
M  V30 20764 H 1976.99 -2.36506 -2.88304 0
M  V30 20765 N 1979.18 0.660885 -1.43074 0
M  V30 20766 C 1980.12 1.79529 -1.47892 0
M  V30 20767 C 1981.12 1.65676 -0.353254 0
M  V30 20768 O 1982.32 1.72115 -0.526903 0
M  V30 20769 H 1978.7 0.592191 -0.46348 0
M  V30 20770 H 1980.67 1.72584 -2.43428 0
M  V30 20771 C 1979.42 3.17753 -1.41167 0
M  V30 20772 H 1978.74 3.29047 -2.27087 0
M  V30 20773 H 1980.18 3.97107 -1.486 0
M  V30 20774 C 1978.64 3.36656 -0.128241 0
M  V30 20775 O 1979.17 3.93376 0.813504 0
M  V30 20776 N 1977.38 2.90571 -0.0408985 0
M  V30 20777 H 1976.92 2.44598 -0.808059 0
M  V30 20778 H 1976.88 3.03595 0.817147 0
M  V30 20779 N 1980.65 1.29477 0.898527 0
M  V30 20780 C 1981.88 1.20232 1.68011 0
M  V30 20781 C 1982.29 -0.239393 1.87679 0
M  V30 20782 O 1981.64 -1.17197 1.41459 0
M  V30 20783 C 1981.7 1.84564 3.08507 0
M  V30 20784 C 1981.36 3.33862 3.12065 0
M  V30 20785 C 1982.36 4.30068 2.92125 0
M  V30 20786 C 1980.04 3.75082 3.34094 0
M  V30 20787 C 1982.04 5.65469 2.94149 0
M  V30 20788 C 1979.72 5.10604 3.35748 0
M  V30 20789 C 1980.72 6.05607 3.15798 0
M  V30 20790 O 1980.41 7.38655 3.17243 0
M  V30 20791 H 1980.14 0.417733 0.531484 0
M  V30 20792 H 1982.7 1.71396 1.13193 0
M  V30 20793 H 1980.93 1.27913 3.64932 0
M  V30 20794 H 1982.62 1.69625 3.68758 0
M  V30 20795 H 1983.38 3.99556 2.74918 0
M  V30 20796 H 1979.26 3.01588 3.48662 0
M  V30 20797 H 1982.8 6.39598 2.78496 0
M  V30 20798 H 1978.7 5.40761 3.52488 0
M  V30 20799 H 1979.47 7.47475 3.33502 0
M  V30 20800 N 1982.13 -1.10905 1.11972 0
M  V30 20801 C 1983.38 -1.83033 0.873311 0
M  V30 20802 C 1983.71 -1.84716 -0.599472 0
M  V30 20803 O 1982.99 -1.30427 -1.44288 0
M  V30 20804 C 1983.27 -3.29941 1.44261 0
M  V30 20805 C 1983.12 -3.36619 2.98341 0
M  V30 20806 C 1984.44 -4.26179 1.09815 0
M  V30 20807 H 1981.56 -0.664529 0.318701 0
M  V30 20808 H 1984.2 -1.30012 1.38553 0
M  V30 20809 H 1982.35 -3.75223 1.00697 0
M  V30 20810 H 1984.02 -2.99854 3.5055 0
M  V30 20811 H 1982.27 -2.76668 3.34122 0
M  V30 20812 H 1982.94 -4.40043 3.33266 0
M  V30 20813 H 1985.41 -3.89105 1.47433 0
M  V30 20814 H 1984.29 -5.27343 1.52318 0
M  V30 20815 H 1984.55 -4.42099 0.00966838 0
M  V30 20816 N 1983.61 -0.910886 -1.2861 0
M  V30 20817 C 1984.54 -0.413998 -2.29801 0
M  V30 20818 C 1985.52 0.51689 -1.62056 0
M  V30 20819 O 1986.71 0.425236 -1.89487 0
M  V30 20820 C 1983.84 0.349336 -3.45539 0
M  V30 20821 C 1982.79 -0.49215 -4.25161 0
M  V30 20822 C 1982.12 0.399352 -5.33207 0
M  V30 20823 C 1983.42 -1.74792 -4.92184 0
M  V30 20824 H 1985.11 -1.25965 -2.71612 0
M  V30 20825 H 1982.66 -0.607149 -1.30575 0
M  V30 20826 H 1984.61 0.70777 -4.15414 0
M  V30 20827 H 1983.33 1.22887 -3.02599 0
M  V30 20828 H 1981.99 -0.833064 -3.57009 0
M  V30 20829 H 1981.64 1.27734 -4.86511 0
M  V30 20830 H 1981.34 -0.160062 -5.87382 0
M  V30 20831 H 1982.86 0.753731 -6.0593 0
M  V30 20832 H 1984.28 -1.45856 -5.54436 0
M  V30 20833 H 1982.68 -2.24952 -5.56342 0
M  V30 20834 H 1983.75 -2.4774 -4.16837 0
M  V30 20835 N 1985.09 1.42434 -0.674558 0
M  V30 20836 C 1986.05 2.29199 -0.00527063 0
M  V30 20837 C 1987.05 1.43313 0.729245 0
M  V30 20838 O 1988.24 1.64704 0.567284 0
M  V30 20839 C 1985.37 3.25805 1.0032 0
M  V30 20840 H 1986.57 2.89874 -0.768954 0
M  V30 20841 H 1984.12 1.5007 -0.436898 0
M  V30 20842 H 1984.85 2.70068 1.79538 0
M  V30 20843 H 1984.64 3.89152 0.479902 0
M  V30 20844 H 1986.13 3.90875 1.46993 0
M  V30 20845 N 1986.57 0.417871 1.51959 0
M  V30 20846 C 1987.79 -0.156736 2.06807 0
M  V30 20847 C 1988.22 -1.37354 1.28512 0
M  V30 20848 O 1987.57 -1.78494 0.317715 0
M  V30 20849 C 1987.62 -0.476913 3.57432 0
M  V30 20850 O 1986.73 -1.56654 3.81488 0
M  V30 20851 H 1986.07 -0.0103873 0.663919 0
M  V30 20852 H 1988.6 0.593593 1.958 0
M  V30 20853 H 1988.61 -0.733026 4.01361 0
M  V30 20854 H 1987.28 0.412542 4.13849 0
M  V30 20855 H 1985.86 -1.30191 3.49435 0
M  V30 20856 N 1988.04 -1.56898 0.148573 0
M  V30 20857 C 1989.27 -2.0054 -0.509047 0
M  V30 20858 C 1989.69 -1.02867 -1.58315 0
M  V30 20859 O 1989.04 -0.0259297 -1.82482 0
M  V30 20860 C 1989.1 -3.44093 -1.10825 0
M  V30 20861 O 1988.82 -4.38032 -0.077048 0
M  V30 20862 C 1990.32 -4.03021 -1.84633 0
M  V30 20863 H 1987.54 -0.657812 -0.132378 0
M  V30 20864 H 1990.08 -2.03044 0.243618 0
M  V30 20865 H 1988.24 -3.42436 -1.81153 0
M  V30 20866 H 1988.65 -5.21953 -0.516256 0
M  V30 20867 H 1990.12 -5.05458 -2.21847 0
M  V30 20868 H 1990.6 -3.43821 -2.73283 0
M  V30 20869 H 1991.21 -4.08313 -1.19 0
M  V30 20870 N 1989.52 0.125209 -1.57102 0
M  V30 20871 C 1990.47 1.17292 -2.00861 0
M  V30 20872 C 1991.46 1.4323 -0.904511 0
M  V30 20873 O 1992.67 1.43266 -1.08972 0
M  V30 20874 H 1989.05 0.395322 -0.639706 0
M  V30 20875 H 1991.02 0.777307 -2.88098 0
M  V30 20876 C 1989.77 2.49311 -2.42362 0
M  V30 20877 H 1989.09 2.30188 -3.26884 0
M  V30 20878 H 1990.53 3.21196 -2.76784 0
M  V30 20879 C 1988.99 3.1144 -1.2848 0
M  V30 20880 O 1989.52 3.97233 -0.597373 0
M  V30 20881 N 1987.72 2.71221 -1.04344 0
M  V30 20882 H 1987.27 2.0155 -1.60423 0
M  V30 20883 H 1987.23 3.1312 -0.283408 0
M  V30 20884 N 1991 1.52564 0.395213 0
M  V30 20885 C 1992.23 1.7147 1.16674 0
M  V30 20886 C 1992.65 0.429414 1.83133 0
M  V30 20887 O 1992.01 -0.614309 1.70575 0
M  V30 20888 C 1992.06 2.86088 2.19513 0
M  V30 20889 O 1991.16 2.52628 3.25964 0
M  V30 20890 H 1990.5 0.570379 0.339947 0
M  V30 20891 H 1993.03 1.99329 0.461411 0
M  V30 20892 H 1993.04 3.11404 2.63612 0
M  V30 20893 H 1991.72 3.79333 1.70527 0
M  V30 20894 H 1990.29 2.38032 2.87046 0
M  V30 20895 N 1992.48 -0.653289 1.43422 0
M  V30 20896 C 1993.7 -1.4459 1.4869 0
M  V30 20897 C 1994.13 -1.87801 0.10599 0
M  V30 20898 O 1993.49 -1.5737 -0.90025 0
M  V30 20899 C 1993.53 -2.65713 2.43781 0
M  V30 20900 O 1992.64 -3.64767 1.92402 0
M  V30 20901 H 1991.98 -0.433532 0.502938 0
M  V30 20902 H 1994.51 -0.799423 1.88336 0
M  V30 20903 H 1994.52 -3.13528 2.61082 0
M  V30 20904 H 1993.19 -2.33604 3.44096 0
M  V30 20905 H 1991.77 -3.2391 1.84761 0
M  V30 20906 N 1993.96 -1.29952 -0.891648 0
M  V30 20907 C 1995.37 -1.08138 -1.17381 0
M  V30 20908 C 1995.57 0.162165 -2.00846 0
M  V30 20909 O 1994.63 0.857667 -2.37488 0
M  V30 20910 C 1995.94 -2.34125 -1.88695 0
M  V30 20911 C 1997.49 -2.39524 -2.01487 0
M  V30 20912 C 1997.96 -3.65336 -2.76213 0
M  V30 20913 N 1999.46 -3.66105 -2.83762 0
M  V30 20914 C 2000.19 -4.6014 -3.42139 0
M  V30 20915 N 1999.69 -5.64513 -4.01617 0
M  V30 20916 N 2001.48 -4.47695 -3.3989 0
M  V30 20917 H 1993.63 -2.09742 -0.334958 0
M  V30 20918 H 1995.89 -0.924239 -0.210916 0
M  V30 20919 H 1995.6 -3.24839 -1.34805 0
M  V30 20920 H 1995.47 -2.42258 -2.89121 0
M  V30 20921 H 1997.86 -1.49293 -2.5455 0
M  V30 20922 H 1997.94 -2.35371 -1.0017 0
M  V30 20923 H 1997.59 -4.55922 -2.23824 0
M  V30 20924 H 1997.52 -3.66749 -3.77893 0
M  V30 20925 H 2000.01 -2.90643 -2.41526 0
M  V30 20926 H 2000.32 -6.32376 -4.44207 0
M  V30 20927 H 1998.66 -5.68313 -4.00056 0
M  V30 20928 H 2001.86 -3.65343 -2.92647 0
M  V30 20929 H 2002.03 -5.21162 -3.85089 0
M  V30 20930 N 1995.44 1.1031 -1.12559 0
M  V30 20931 C 1996.68 1.81665 -0.876399 0
M  V30 20932 C 1997 1.86186 0.599506 0
M  V30 20933 O 1998.2 2.53759 0.965337 0
M  V30 20934 C 1996.66 3.26308 -1.51826 0
M  V30 20935 C 1996.27 3.30081 -3.02904 0
M  V30 20936 C 1998.01 4.02482 -1.34939 0
M  V30 20937 C 1995.92 4.69192 -3.60018 0
M  V30 20938 H 1994.85 0.680734 -0.324218 0
M  V30 20939 H 1997.5 1.24044 -1.35223 0
M  V30 20940 H 1995.88 3.83934 -0.970087 0
M  V30 20941 H 1997.06 2.82272 -3.64224 0
M  V30 20942 H 1995.37 2.67393 -3.19202 0
M  V30 20943 H 1997.97 5.05241 -1.7503 0
M  V30 20944 H 1998.31 4.15266 -0.293208 0
M  V30 20945 H 1998.84 3.51274 -1.86685 0
M  V30 20946 H 1995.58 4.61608 -4.65401 0
M  V30 20947 H 1995.1 5.17363 -3.03473 0
M  V30 20948 H 1996.78 5.38161 -3.59153 0
M  V30 20949 N 1996.91 0.917694 1.28125 0
M  V30 20950 C 1998.14 0.568889 1.98925 0
M  V30 20951 C 1998.56 -0.85076 1.68545 0
M  V30 20952 O 1997.91 -1.56406 0.940399 0
M  V30 20953 C 1997.96 0.773181 3.53135 0
M  V30 20954 O 1997.69 2.13697 3.82446 0
M  V30 20955 C 1999.19 0.431738 4.41193 0
M  V30 20956 H 1996.41 0.21651 0.63511 0
M  V30 20957 H 1998.95 1.23198 1.63226 0
M  V30 20958 H 1997.11 0.157034 3.87082 0
M  V30 20959 H 1997.52 2.17956 4.7707 0
M  V30 20960 H 1998.99 0.625431 5.48445 0
M  V30 20961 H 1999.47 -0.632236 4.34626 0
M  V30 20962 H 2000.08 1.02559 4.12749 0
M  V30 20963 N 1998.39 -1.42074 0.682102 0
M  V30 20964 C 1999.8 -1.8453 0.283805 0
M  V30 20965 C 2000.15 -1.5709 -1.17547 0
M  V30 20966 O 1999.28 -1.03444 -1.90075 0
M  V30 20967 C 1999.87 -3.34965 0.508316 0
M  V30 20968 C 1998.43 -3.76042 0.164069 0
M  V30 20969 C 1997.58 -2.65594 0.797204 0
M  V30 20970 H 2000.53 -1.31817 0.88374 0
M  V30 20971 H 2000.55 -3.7976 -0.237267 0
M  V30 20972 H 2000.06 -3.54905 1.57047 0
M  V30 20973 H 1998.16 -3.61707 -0.894353 0
M  V30 20974 H 1998.28 -4.75205 0.609688 0
M  V30 20975 H 1996.64 -2.53678 0.227913 0
M  V30 20976 H 1997.42 -2.88355 1.86296 0
M  V30 20977 N 1999.87 -0.425924 -1.51735 0
M  V30 20978 C 2001.28 0.0398403 -1.86657 0
M  V30 20979 C 2001.63 1.4296 -1.34376 0
M  V30 20980 O 2000.76 2.05109 -0.689867 0
M  V30 20981 C 2001.35 0.0790715 -3.38708 0
M  V30 20982 C 1999.91 0.489215 -3.73207 0
M  V30 20983 C 1999.06 -0.325517 -2.75383 0
M  V30 20984 H 2002.01 -0.642271 -1.45123 0
M  V30 20985 H 2002.03 0.890928 -3.69923 0
M  V30 20986 H 2001.54 -0.932545 -3.7673 0
M  V30 20987 H 1999.64 1.50686 -3.40771 0
M  V30 20988 H 1999.76 0.221939 -4.78586 0
M  V30 20989 H 1998.12 0.214561 -2.53795 0
M  V30 20990 H 1998.9 -1.3358 -3.16246 0
M  V30 20991 N 2001.35 1.56817 -0.156891 0
M  V30 20992 C 2002.58 2.00807 0.498405 0
M  V30 20993 C 2002.99 1.03706 1.57768 0
M  V30 20994 O 2002.35 0.0356068 1.82465 0
M  V30 20995 C 2002.4 3.44676 1.08999 0
M  V30 20996 O 2002.12 4.38067 0.053817 0
M  V30 20997 C 2003.62 4.03994 1.82493 0
M  V30 20998 H 2000.84 0.658505 0.128888 0
M  V30 20999 H 2003.38 2.02912 -0.254383 0
M  V30 21000 H 2001.54 3.43392 1.79334 0
M  V30 21001 H 2001.95 5.2222 0.488568 0
M  V30 21002 H 2003.43 5.06627 2.19164 0
M  V30 21003 H 2003.9 3.45265 2.71456 0
M  V30 21004 H 2004.51 4.08938 1.16833 0
M  V30 21005 N 2002.83 -0.116876 1.57166 0
M  V30 21006 C 2004.07 -0.825509 1.85238 0
M  V30 21007 C 2004.4 -1.79427 0.742936 0
M  V30 21008 O 2003.68 -1.92873 -0.251043 0
M  V30 21009 C 2003.96 -1.57353 3.23901 0
M  V30 21010 C 2003.82 -0.624227 4.45447 0
M  V30 21011 C 2005.13 -2.52922 3.60164 0
M  V30 21012 H 2002.25 -0.298653 0.673777 0
M  V30 21013 H 2004.9 -0.0897002 1.89788 0
M  V30 21014 H 2003.05 -2.20078 3.20153 0
M  V30 21015 H 2004.72 -0.00566556 4.613 0
M  V30 21016 H 2002.96 0.0640779 4.33753 0
M  V30 21017 H 2003.63 -1.1843 5.39146 0
M  V30 21018 H 2006.11 -2.00302 3.64717 0
M  V30 21019 H 2004.98 -3.02291 4.58161 0
M  V30 21020 H 2005.24 -3.35684 2.87695 0
M  V30 21021 N 2004.3 -1.52772 -0.387116 0
M  V30 21022 C 2005.27 -1.77036 -1.45571 0
M  V30 21023 C 2006.27 -0.64041 -1.47497 0
M  V30 21024 O 2007.46 -0.908478 -1.48635 0
M  V30 21025 C 2004.59 -1.87284 -2.84846 0
M  V30 21026 H 2005.78 -2.72452 -1.25339 0
M  V30 21027 H 2003.33 -1.43522 -0.61897 0
M  V30 21028 H 2004.07 -0.9386 -3.1042 0
M  V30 21029 H 2003.85 -2.6945 -2.84849 0
M  V30 21030 H 2005.34 -2.07723 -3.62272 0
M  V30 21031 N 2005.78 0.645673 -1.43767 0
M  V30 21032 C 2006.73 1.75163 -1.45952 0
M  V30 21033 C 2007.72 1.57541 -0.327037 0
M  V30 21034 O 2008.91 1.67525 -0.571347 0
M  V30 21035 C 2006.04 3.13787 -1.39257 0
M  V30 21036 C 2005.12 3.3693 -2.57564 0
M  V30 21037 N 2005.51 3.30508 -3.82881 0
M  V30 21038 C 2003.81 3.67676 -2.52449 0
M  V30 21039 C 2004.51 3.5394 -4.61629 0
M  V30 21040 N 2003.49 3.76116 -3.92476 0
M  V30 21041 H 2007.29 1.68634 -2.40707 0
M  V30 21042 H 2004.8 0.847619 -1.38525 0
M  V30 21043 H 2006.8 3.93079 -1.38905 0
M  V30 21044 H 2005.46 3.21492 -0.455285 0
M  V30 21045 H 2006.47 3.09751 -4.1506 0
M  V30 21046 H 2003.15 3.8245 -1.67445 0
M  V30 21047 H 2004.54 3.5469 -5.70653 0
M  V30 21048 N 2007.26 1.30423 0.884744 0
M  V30 21049 C 2008.48 1.22312 1.67495 0
M  V30 21050 C 2008.91 -0.210723 1.86916 0
M  V30 21051 O 2008.27 -1.15161 1.40027 0
M  V30 21052 C 2008.32 1.95725 3.0286 0
M  V30 21053 O 2007.42 1.28449 3.91886 0
M  V30 21054 H 2006.76 0.423038 0.511796 0
M  V30 21055 H 2009.29 1.72246 1.10419 0
M  V30 21056 H 2009.3 2.04755 3.52901 0
M  V30 21057 H 2007.98 3.00006 2.88044 0
M  V30 21058 H 2006.55 1.27775 3.50326 0
M  V30 21059 N 2008.74 -1.09711 1.13142 0
M  V30 21060 C 2010.01 -1.78377 0.802565 0
M  V30 21061 C 2010.39 -1.9893 -0.706392 0
M  V30 21062 O 2009.74 -1.58835 -1.64267 0
M  V30 21063 C 2009.95 -3.10873 1.58615 0
M  V30 21064 C 2011.3 -3.85629 1.77695 0
M  V30 21065 O 2012.32 -3.20616 1.55189 0
M  V30 21066 O 2011.18 -5.02334 2.15228 0
M  V30 21067 H 2008.28 -0.773463 0.292718 0
M  V30 21068 H 2010.82 -1.16294 1.23587 0
M  V30 21069 H 2009.6 -2.9138 2.61177 0
M  V30 21070 H 2009.22 -3.80679 1.14758 0
M  V30 21071 N 2010.22 -0.924476 -1.27637 0
M  V30 21072 C 2011.18 -0.425772 -2.25211 0
M  V30 21073 C 2012.18 0.453876 -1.54261 0
M  V30 21074 O 2013.37 0.255412 -1.72317 0
M  V30 21075 C 2010.5 0.388294 -3.38681 0
M  V30 21076 H 2011.69 -1.28783 -2.70841 0
M  V30 21077 H 2009.25 -0.704863 -1.39504 0
M  V30 21078 H 2009.98 1.2693 -2.98428 0
M  V30 21079 H 2009.77 -0.242358 -3.9135 0
M  V30 21080 H 2011.26 0.727693 -4.11211 0
M  V30 21081 N 2011.69 1.41711 -0.689627 0
M  V30 21082 C 2012.62 2.33474 -0.0348045 0
M  V30 21083 C 2013.61 1.51494 0.773533 0
M  V30 21084 O 2014.79 1.8005 0.727705 0
M  V30 21085 C 2011.92 3.35259 0.906573 0
M  V30 21086 C 2010.87 4.27505 0.205762 0
M  V30 21087 C 2010.2 5.19616 1.26109 0
M  V30 21088 C 2011.5 5.14056 -0.92431 0
M  V30 21089 H 2013.19 2.88481 -0.801208 0
M  V30 21090 H 2010.74 1.3871 -0.386738 0
M  V30 21091 H 2012.69 3.98375 1.37386 0
M  V30 21092 H 2011.42 2.78589 1.70457 0
M  V30 21093 H 2010.08 3.65804 -0.241437 0
M  V30 21094 H 2009.72 4.59264 2.05147 0
M  V30 21095 H 2009.42 5.82167 0.797221 0
M  V30 21096 H 2010.95 5.85609 1.72901 0
M  V30 21097 H 2012.36 5.70774 -0.537573 0
M  V30 21098 H 2010.76 5.85517 -1.3149 0
M  V30 21099 H 2011.83 4.51574 -1.7666 0
M  V30 21100 N 2013.17 0.433965 1.51507 0
M  V30 21101 C 2014.14 -0.367505 2.26234 0
M  V30 21102 C 2015.14 -0.952583 1.29547 0
M  V30 21103 O 2016.33 -0.827563 1.53287 0
M  V30 21104 C 2013.46 -1.51964 3.05155 0
M  V30 21105 H 2014.65 0.28735 2.9852 0
M  V30 21106 H 2012.2 0.187052 1.55177 0
M  V30 21107 H 2012.94 -2.21064 2.37278 0
M  V30 21108 H 2012.72 -1.10632 3.76169 0
M  V30 21109 H 2014.21 -2.08597 3.61769 0
M  V30 21110 N 2014.65 -1.56732 0.165206 0
M  V30 21111 C 2016.07 -1.58453 -0.191031 0
M  V30 21112 C 2016.27 -1.1803 -1.63313 0
M  V30 21113 O 2015.32 -0.889055 -2.3633 0
M  V30 21114 C 2016.64 -3.00582 0.0842414 0
M  V30 21115 C 2018.18 -3.12992 0.0219686 0
M  V30 21116 C 2018.66 -4.57203 0.270149 0
M  V30 21117 N 2020.15 -4.62688 0.217711 0
M  V30 21118 C 2020.88 -5.72113 0.383998 0
M  V30 21119 N 2020.38 -6.90118 0.609007 0
M  V30 21120 N 2022.17 -5.61187 0.320329 0
M  V30 21121 H 2014.32 -1.81296 1.1066 0
M  V30 21122 H 2016.59 -0.839986 0.439463 0
M  V30 21123 H 2016.29 -3.3461 1.083 0
M  V30 21124 H 2016.17 -3.71954 -0.62693 0
M  V30 21125 H 2018.55 -2.78794 -0.967358 0
M  V30 21126 H 2018.64 -2.44069 0.765755 0
M  V30 21127 H 2018.28 -4.92108 1.25666 0
M  V30 21128 H 2018.21 -5.24276 -0.494177 0
M  V30 21129 H 2020.7 -3.77868 0.0491965 0
M  V30 21130 H 2021.01 -7.69387 0.725507 0
M  V30 21131 H 2019.36 -6.91995 0.645549 0
M  V30 21132 H 2022.55 -4.67875 0.145176 0
M  V30 21133 H 2022.72 -6.46412 0.453351 0
M  V30 21134 N 2016.13 0.10854 -1.57226 0
M  V30 21135 C 2017.54 0.462379 -1.52755 0
M  V30 21136 C 2017.74 1.81276 -0.87985 0
M  V30 21137 O 2016.8 2.48151 -0.466628 0
M  V30 21138 C 2018.11 0.437241 -2.97504 0
M  V30 21139 C 2019.66 0.520052 -3.08649 0
M  V30 21140 C 2020.14 0.525198 -4.54979 0
M  V30 21141 N 2021.63 0.586339 -4.59474 0
M  V30 21142 C 2022.36 0.61194 -5.70125 0
M  V30 21143 N 2021.86 0.594556 -6.90244 0
M  V30 21144 N 2023.65 0.655738 -5.58262 0
M  V30 21145 H 2015.8 -0.776135 -1.97712 0
M  V30 21146 H 2018.07 -0.287457 -0.903367 0
M  V30 21147 H 2017.77 -0.487552 -3.48304 0
M  V30 21148 H 2017.65 1.2612 -3.55491 0
M  V30 21149 H 2020.03 1.43526 -2.57845 0
M  V30 21150 H 2020.11 -0.331795 -2.53639 0
M  V30 21151 H 2019.76 -0.386013 -5.06431 0
M  V30 21152 H 2019.69 1.39407 -5.07812 0
M  V30 21153 H 2022.18 0.605514 -3.73017 0
M  V30 21154 H 2022.49 0.617002 -7.70333 0
M  V30 21155 H 2020.84 0.561814 -6.92726 0
M  V30 21156 H 2024.03 0.666756 -4.63327 0
M  V30 21157 H 2024.2 0.672222 -6.44504 0
M  V30 21158 N 2017.61 1.52975 0.379009 0
M  V30 21159 C 2018.85 1.68505 1.12304 0
M  V30 21160 C 2019.18 0.430012 1.89687 0
M  V30 21161 O 2018.44 -0.587809 1.86664 0
M  V30 21162 C 2018.74 2.8776 2.11964 0
M  V30 21163 C 2018.4 4.24806 1.51163 0
M  V30 21164 C 2017.06 4.62077 1.34308 0
M  V30 21165 C 2019.42 5.10087 1.07053 0
M  V30 21166 C 2016.74 5.82277 0.719058 0
M  V30 21167 C 2019.1 6.30921 0.460559 0
M  V30 21168 C 2017.76 6.66915 0.279391 0
M  V30 21169 H 2017.03 0.616604 0.41095 0
M  V30 21170 H 2019.68 1.87137 0.406443 0
M  V30 21171 H 2017.98 2.63586 2.89879 0
M  V30 21172 H 2019.68 2.96971 2.69461 0
M  V30 21173 H 2016.27 3.95453 1.65272 0
M  V30 21174 H 2020.45 4.81854 1.18872 0
M  V30 21175 H 2015.71 6.08765 0.566983 0
M  V30 21176 H 2019.88 6.96312 0.110504 0
M  V30 21177 H 2017.51 7.5992 -0.206228 0
M  V30 21178 N 2019.08 -0.63804 1.44107 0
M  V30 21179 C 2020.05 -1.7322 1.50092 0
M  V30 21180 C 2021.05 -1.56153 0.383763 0
M  V30 21181 O 2022.24 -1.61774 0.646118 0
M  V30 21182 C 2019.37 -3.1224 1.36818 0
M  V30 21183 H 2020.56 -1.6929 2.4755 0
M  V30 21184 H 2018.12 -0.851079 1.31097 0
M  V30 21185 H 2018.85 -3.2177 0.404269 0
M  V30 21186 H 2018.64 -3.26033 2.17818 0
M  V30 21187 H 2020.13 -3.91997 1.43972 0
M  V30 21188 N 2020.56 -1.3089 -0.877815 0
M  V30 21189 C 2021.81 -1.20125 -1.63022 0
M  V30 21190 C 2022.14 0.242414 -1.92983 0
M  V30 21191 O 2021.39 1.18896 -1.55442 0
M  V30 21192 C 2021.69 -1.98261 -2.97367 0
M  V30 21193 C 2021.36 -3.47825 -2.8693 0
M  V30 21194 C 2020.02 -3.88608 -2.8379 0
M  V30 21195 C 2022.37 -4.43035 -2.74535 0
M  V30 21196 C 2019.7 -5.22882 -2.66104 0
M  V30 21197 C 2022.05 -5.77425 -2.58386 0
M  V30 21198 C 2020.72 -6.17439 -2.53625 0
M  V30 21199 H 2019.99 -0.439569 -0.59654 0
M  V30 21200 H 2022.63 -1.6207 -1.02007 0
M  V30 21201 H 2020.94 -1.48972 -3.62373 0
M  V30 21202 H 2022.63 -1.87319 -3.5456 0
M  V30 21203 H 2019.22 -3.1542 -2.90187 0
M  V30 21204 H 2023.41 -4.12463 -2.76021 0
M  V30 21205 H 2018.66 -5.52968 -2.60837 0
M  V30 21206 H 2022.84 -6.50833 -2.4777 0
M  V30 21207 H 2020.47 -7.21428 -2.39679 0
M  V30 21208 N 2022.04 1.0911 -1.13723 0
M  V30 21209 C 2023.32 1.77949 -0.812014 0
M  V30 21210 C 2023.7 1.99302 0.695832 0
M  V30 21211 O 2023.05 1.59704 1.63422 0
M  V30 21212 C 2023.26 3.10028 -1.60262 0
M  V30 21213 C 2024.6 3.84681 -1.79738 0
M  V30 21214 O 2025.63 3.19789 -1.56887 0
M  V30 21215 O 2024.49 5.01185 -2.17888 0
M  V30 21216 H 2021.58 0.7719 -0.296816 0
M  V30 21217 H 2024.13 1.15637 -1.24202 0
M  V30 21218 H 2022.9 2.8999 -2.62719 0
M  V30 21219 H 2022.52 3.80065 -1.16776 0
M  V30 21220 N 2023.52 0.931232 1.27145 0
M  V30 21221 C 2024.45 0.377419 2.25057 0
M  V30 21222 C 2025.43 -0.528197 1.53782 0
M  V30 21223 O 2026.61 -0.467903 1.826 0
M  V30 21224 C 2023.74 -0.4587 3.3558 0
M  V30 21225 C 2022.79 0.383982 4.24768 0
M  V30 21226 S 2023.62 1.80173 5.0428 0
M  V30 21227 C 2024.78 0.973395 6.18285 0
M  V30 21228 H 2025.01 1.20726 2.71685 0
M  V30 21229 H 2022.54 0.733657 1.35856 0
M  V30 21230 H 2024.5 -0.935236 3.99704 0
M  V30 21231 H 2023.16 -1.2631 2.87584 0
M  V30 21232 H 2022.35 -0.256158 5.03349 0
M  V30 21233 H 2021.96 0.794824 3.65457 0
M  V30 21234 H 2024.25 0.211028 6.77171 0
M  V30 21235 H 2025.19 1.73233 6.86583 0
M  V30 21236 H 2025.6 0.513847 5.62156 0
M  V30 21237 N 2025 -1.41343 0.697132 0
M  V30 21238 C 2026.27 -1.94971 0.156721 0
M  V30 21239 C 2026.65 -1.63641 -1.33359 0
M  V30 21240 O 2026 -0.944246 -2.08077 0
M  V30 21241 C 2026.21 -3.46091 0.449687 0
M  V30 21242 C 2027.56 -4.22912 0.378281 0
M  V30 21243 O 2028.58 -3.54117 0.38469 0
M  V30 21244 O 2027.44 -5.45443 0.339755 0
M  V30 21245 H 2024.54 -0.826847 0.0158852 0
M  V30 21246 H 2027.08 -1.51052 0.7734 0
M  V30 21247 H 2025.86 -3.62183 1.48119 0
M  V30 21248 H 2025.48 -3.97107 -0.197886 0
M  V30 21249 N 2026.48 -0.441993 -1.51275 0
M  V30 21250 C 2027.72 0.124439 -2.01316 0
M  V30 21251 C 2028.04 1.43376 -1.33051 0
M  V30 21252 O 2029.24 2.08342 -1.74086 0
M  V30 21253 C 2027.7 0.272307 -3.58868 0
M  V30 21254 C 2027.31 -1.02686 -4.36073 0
M  V30 21255 C 2029.05 0.792259 -4.17041 0
M  V30 21256 C 2026.96 -0.844378 -5.85341 0
M  V30 21257 H 2025.89 0.0502803 -0.752322 0
M  V30 21258 H 2028.54 -0.572465 -1.74342 0
M  V30 21259 H 2026.92 1.03232 -3.82308 0
M  V30 21260 H 2028.1 -1.79557 -4.24377 0
M  V30 21261 H 2026.41 -1.4757 -3.89374 0
M  V30 21262 H 2029.01 0.94535 -5.26277 0
M  V30 21263 H 2029.35 1.77595 -3.76518 0
M  V30 21264 H 2029.88 0.0904292 -3.97697 0
M  V30 21265 H 2026.62 -1.80058 -6.30285 0
M  V30 21266 H 2026.14 -0.115549 -5.99689 0
M  V30 21267 H 2027.82 -0.499412 -6.4507 0
M  V30 21268 N 2027.95 1.56642 -0.173515 0
M  V30 21269 C 2028.89 2.15251 0.787381 0
M  V30 21270 C 2029.9 1.10866 1.19217 0
M  V30 21271 O 2031.09 1.38044 1.13164 0
M  V30 21272 C 2028.19 2.6821 2.07163 0
M  V30 21273 C 2027.36 3.97275 1.83006 0
M  V30 21274 C 2026.42 4.35276 2.95671 0
M  V30 21275 O 2025.45 5.03111 2.6621 0
M  V30 21276 N 2026.65 3.97014 4.23509 0
M  V30 21277 H 2029.41 2.98329 0.28631 0
M  V30 21278 H 2026.97 1.61897 0.00919258 0
M  V30 21279 H 2028.97 2.90629 2.81632 0
M  V30 21280 H 2027.54 1.89708 2.48454 0
M  V30 21281 H 2026.76 3.83211 0.924298 0
M  V30 21282 H 2028.04 4.81564 1.64237 0
M  V30 21283 H 2027.44 3.42407 4.50304 0
M  V30 21284 H 2026 4.24429 4.94675 0
M  V30 21285 N 2029.43 -0.1002 1.57281 0
M  V30 21286 C 2030.68 -0.805815 1.86103 0
M  V30 21287 C 2031.01 -1.78629 0.761925 0
M  V30 21288 O 2030.29 -1.93128 -0.230572 0
M  V30 21289 C 2030.57 -1.53909 3.25552 0
M  V30 21290 C 2030.42 -0.576946 4.46084 0
M  V30 21291 C 2031.74 -2.49088 3.62827 0
M  V30 21292 H 2028.86 -0.29149 0.676907 0
M  V30 21293 H 2031.5 -0.0695656 1.89873 0
M  V30 21294 H 2029.65 -2.16669 3.2247 0
M  V30 21295 H 2031.32 0.0432618 4.6128 0
M  V30 21296 H 2029.57 0.11008 4.3366 0
M  V30 21297 H 2030.24 -1.12705 5.40372 0
M  V30 21298 H 2032.71 -1.96423 3.66821 0
M  V30 21299 H 2031.59 -2.97415 4.61341 0
M  V30 21300 H 2031.85 -3.32614 2.9124 0
M  V30 21301 N 2030.91 -1.53174 -0.370891 0
M  V30 21302 C 2031.84 -1.74012 -1.47632 0
M  V30 21303 C 2032.82 -0.588337 -1.51583 0
M  V30 21304 O 2034 -0.820302 -1.69715 0
M  V30 21305 C 2031.13 -1.81411 -2.8602 0
M  V30 21306 C 2030.18 -3.03335 -2.99817 0
M  V30 21307 S 2031.01 -4.6296 -2.69125 0
M  V30 21308 C 2032.17 -4.73201 -4.09672 0
M  V30 21309 H 2032.4 -2.675 -1.29734 0
M  V30 21310 H 2029.93 -1.43695 -0.5649 0
M  V30 21311 H 2031.89 -1.8636 -3.6576 0
M  V30 21312 H 2030.55 -0.889838 -3.01232 0
M  V30 21313 H 2029.74 -3.05107 -4.01156 0
M  V30 21314 H 2029.35 -2.96471 -2.27993 0
M  V30 21315 H 2031.64 -4.52929 -5.03846 0
M  V30 21316 H 2032.58 -5.7525 -4.12908 0
M  V30 21317 H 2032.99 -4.0188 -3.96425 0
M  V30 21318 N 2032.39 0.630389 -1.44443 0
M  V30 21319 C 2033.64 1.38719 -1.46975 0
M  V30 21320 C 2033.96 1.94723 -0.103861 0
M  V30 21321 O 2033.23 1.75822 0.863919 0
M  V30 21322 H 2031.81 0.5149 -0.54119 0
M  V30 21323 H 2034.47 0.741905 -1.80227 0
M  V30 21324 H 2033.56 2.21813 -2.19557 0
M  V30 21325 N 2033.87 1.31354 0.870861 0
M  V30 21326 C 2034.78 1.20887 2.01056 0
M  V30 21327 C 2035.79 0.125768 1.73545 0
M  V30 21328 O 2036.97 0.3434 1.98451 0
M  V30 21329 C 2034.03 0.915879 3.34384 0
M  V30 21330 C 2033.09 2.08579 3.75225 0
M  V30 21331 C 2032.33 1.80668 5.0219 0
M  V30 21332 O 2032.55 0.741377 5.65561 0
M  V30 21333 O 2031.48 2.66319 5.39776 0
M  V30 21334 H 2035.31 2.16661 2.12819 0
M  V30 21335 H 2032.89 1.11084 0.999031 0
M  V30 21336 H 2034.78 0.768289 4.14337 0
M  V30 21337 H 2033.45 -0.0118355 3.23698 0
M  V30 21338 H 2032.36 2.28877 2.95916 0
M  V30 21339 H 2033.69 2.99572 3.90535 0
M  V30 21340 N 2035.34 -1.08505 1.143 0
M  V30 21341 C 2036.57 -1.84347 0.932715 0
M  V30 21342 C 2036.98 -1.81853 -0.522138 0
M  V30 21343 O 2036.32 -1.21982 -1.37354 0
M  V30 21344 C 2036.39 -3.32995 1.3548 0
M  V30 21345 C 2036.05 -3.59226 2.82499 0
M  V30 21346 C 2037.05 -3.54154 3.80619 0
M  V30 21347 C 2034.73 -3.87269 3.19888 0
M  V30 21348 C 2036.73 -3.76754 5.14135 0
M  V30 21349 C 2034.41 -4.09522 4.5358 0
M  V30 21350 C 2035.41 -4.04258 5.50513 0
M  V30 21351 O 2035.1 -4.25928 6.81792 0
M  V30 21352 H 2034.83 -0.58885 0.332012 0
M  V30 21353 H 2037.39 -1.37951 1.5218 0
M  V30 21354 H 2035.62 -3.80144 0.70904 0
M  V30 21355 H 2037.3 -3.90271 1.11548 0
M  V30 21356 H 2038.07 -3.32505 3.5308 0
M  V30 21357 H 2033.95 -3.90487 2.45033 0
M  V30 21358 H 2037.49 -3.72561 5.89783 0
M  V30 21359 H 2033.39 -4.30655 4.80839 0
M  V30 21360 H 2034.16 -4.43339 6.88036 0
M  V30 21361 N 2036.82 -0.937962 -1.26649 0
M  V30 21362 C 2038.05 -0.59993 -1.98534 0
M  V30 21363 C 2038.47 0.817397 -1.69411 0
M  V30 21364 O 2037.83 1.55011 -0.940284 0
M  V30 21365 C 2037.88 -0.844738 -3.50566 0
M  V30 21366 O 2036.98 0.0847162 -4.12313 0
M  V30 21367 H 2036.32 -0.229839 -0.622953 0
M  V30 21368 H 2038.85 -1.26002 -1.61198 0
M  V30 21369 H 2038.86 -0.764359 -4.00776 0
M  V30 21370 H 2037.54 -1.87783 -3.71094 0
M  V30 21371 H 2036.11 -0.0464484 -3.72871 0
M  V30 21372 N 2038.3 1.40971 -0.704618 0
M  V30 21373 C 2039.72 1.55082 -0.377067 0
M  V30 21374 C 2039.92 1.67827 1.11518 0
M  V30 21375 O 2038.97 1.66173 1.90112 0
M  V30 21376 C 2040.28 2.78517 -1.13352 0
M  V30 21377 C 2041.83 2.92323 -1.11875 0
M  V30 21378 C 2042.31 4.18658 -1.85714 0
M  V30 21379 N 2043.8 4.25635 -1.82728 0
M  V30 21380 C 2044.53 5.22268 -2.36693 0
M  V30 21381 N 2044.03 6.24877 -2.99167 0
M  V30 21382 N 2045.82 5.14271 -2.26897 0
M  V30 21383 H 2037.97 1.30944 -1.67235 0
M  V30 21384 H 2040.24 0.632393 -0.706246 0
M  V30 21385 H 2039.94 2.75339 -2.18818 0
M  V30 21386 H 2039.82 3.70304 -0.717978 0
M  V30 21387 H 2042.2 2.95011 -0.0723296 0
M  V30 21388 H 2042.28 2.01685 -1.57343 0
M  V30 21389 H 2041.93 4.16732 -2.9034 0
M  V30 21390 H 2041.86 5.08285 -1.37674 0
M  V30 21391 H 2044.35 3.52119 -1.37187 0
M  V30 21392 H 2044.66 6.95019 -3.37889 0
M  V30 21393 H 2043.01 6.25353 -3.03247 0
M  V30 21394 H 2046.2 4.33037 -1.77755 0
M  V30 21395 H 2046.37 5.89411 -2.69256 0
M  V30 21396 N 2039.78 0.45001 1.51039 0
M  V30 21397 C 2041.06 -0.172746 1.94836 0
M  V30 21398 C 2041.44 -1.58934 1.38936 0
M  V30 21399 O 2040.78 -2.20974 0.581609 0
M  V30 21400 C 2040.99 -0.137579 3.48729 0
M  V30 21401 C 2042.34 -0.33691 4.23261 0
M  V30 21402 O 2043.37 -0.215124 3.5555 0
M  V30 21403 O 2042.22 -0.580548 5.43408 0
M  V30 21404 H 2039.32 -0.12312 0.817784 0
M  V30 21405 H 2041.86 0.5089 1.6189 0
M  V30 21406 H 2040.64 0.852286 3.81905 0
M  V30 21407 H 2040.26 -0.861592 3.88152 0
M  V30 21408 N 2041.26 -1.56548 0.18182 0
M  V30 21409 C 2042.5 -1.96807 -0.459512 0
M  V30 21410 C 2042.83 -1.06933 -1.63065 0
M  V30 21411 O 2042.1 -0.137842 -1.95414 0
M  V30 21412 H 2040.68 -0.72675 -0.172753 0
M  V30 21413 H 2043.34 -1.93084 0.265455 0
M  V30 21414 H 2042.43 -3.01338 -0.812522 0
M  V30 21415 N 2042.73 0.0918577 -1.57332 0
M  V30 21416 C 2043.68 1.11121 -2.02289 0
M  V30 21417 C 2044.65 1.39617 -0.899791 0
M  V30 21418 O 2045.84 1.51025 -1.16602 0
M  V30 21419 C 2042.98 2.42534 -2.45502 0
M  V30 21420 C 2042.09 2.20741 -3.71345 0
M  V30 21421 C 2041.22 3.45576 -4.03424 0
M  V30 21422 C 2040.26 3.19059 -5.22368 0
M  V30 21423 N 2039.4 4.36169 -5.50182 0
M  V30 21424 H 2044.24 0.720847 -2.8915 0
M  V30 21425 H 2041.78 0.344398 -1.43012 0
M  V30 21426 H 2043.74 3.19232 -2.68601 0
M  V30 21427 H 2042.37 2.79411 -1.61646 0
M  V30 21428 H 2041.42 1.3483 -3.55704 0
M  V30 21429 H 2042.73 1.97141 -4.58189 0
M  V30 21430 H 2041.88 4.3068 -4.27317 0
M  V30 21431 H 2040.62 3.72234 -3.15108 0
M  V30 21432 H 2039.63 2.32349 -4.98291 0
M  V30 21433 H 2040.85 2.93744 -6.12284 0
M  V30 21434 H 2038.8 4.62896 -4.64826 0
M  V30 21435 H 2038.72 4.15771 -6.31404 0
M  V30 21436 H 2039.98 5.22328 -5.78613 0
M  V30 21437 N 2044.21 1.53368 0.362763 0
M  V30 21438 C 2045.14 1.82984 1.45048 0
M  V30 21439 C 2046.12 0.683544 1.55762 0
M  V30 21440 O 2047.31 0.933658 1.70283 0
M  V30 21441 C 2044.44 2.02227 2.8235 0
M  V30 21442 C 2043.39 3.18002 2.86459 0
M  V30 21443 C 2042.72 3.22543 4.26463 0
M  V30 21444 C 2044.02 4.56531 2.53726 0
M  V30 21445 H 2045.71 2.74075 1.20513 0
M  V30 21446 H 2043.26 1.31877 0.578302 0
M  V30 21447 H 2045.21 2.21529 3.58473 0
M  V30 21448 H 2043.94 1.07849 3.08279 0
M  V30 21449 H 2042.59 2.98525 2.12787 0
M  V30 21450 H 2042.24 2.25797 4.49472 0
M  V30 21451 H 2041.94 4.00331 4.30127 0
M  V30 21452 H 2043.47 3.44032 5.04455 0
M  V30 21453 H 2044.88 4.75975 3.19563 0
M  V30 21454 H 2043.28 5.36581 2.68703 0
M  V30 21455 H 2044.35 4.61451 1.48967 0
M  V30 21456 N 2045.69 -0.62272 1.44776 0
M  V30 21457 C 2046.64 -1.75545 1.526 0
M  V30 21458 C 2047.63 -1.64681 0.397056 0
M  V30 21459 O 2048.84 -1.70658 0.572351 0
M  V30 21460 H 2045.21 -0.579694 0.479018 0
M  V30 21461 H 2047.18 -1.66069 2.47919 0
M  V30 21462 C 2045.93 -3.13899 1.49542 0
M  V30 21463 H 2045.26 -3.2291 2.35731 0
M  V30 21464 H 2046.7 -3.93028 1.59076 0
M  V30 21465 C 2045.16 -3.36197 0.217454 0
M  V30 21466 O 2045.69 -3.95395 -0.708921 0
M  V30 21467 N 2043.89 -2.90361 0.117924 0
M  V30 21468 H 2043.44 -2.4237 0.872626 0
M  V30 21469 H 2043.4 -3.05655 -0.736367 0
M  V30 21470 N 2047.17 -1.31814 -0.863883 0
M  V30 21471 C 2048.1 -1.14307 -1.97507 0
M  V30 21472 C 2049.08 -0.0449482 -1.62538 0
M  V30 21473 O 2050.26 -0.202523 -1.87409 0
M  V30 21474 C 2047.39 -0.74789 -3.3034 0
M  V30 21475 C 2046.44 -1.84993 -3.84291 0
M  V30 21476 S 2047.27 -3.45653 -4.09004 0
M  V30 21477 C 2048.43 -3.08085 -5.44825 0
M  V30 21478 H 2048.66 -2.08375 -2.12054 0
M  V30 21479 H 2046.19 -1.16369 -1.01478 0
M  V30 21480 H 2048.15 -0.52664 -4.07108 0
M  V30 21481 H 2046.81 0.173775 -3.13619 0
M  V30 21482 H 2046 -1.5262 -4.80337 0
M  V30 21483 H 2045.61 -2.02655 -3.14336 0
M  V30 21484 H 2047.9 -2.57356 -6.26717 0
M  V30 21485 H 2048.84 -4.03117 -5.82153 0
M  V30 21486 H 2049.25 -2.45359 -5.08389 0
M  V30 21487 N 2048.65 1.07897 -1.14873 0
M  V30 21488 C 2049.61 2.13129 -0.843128 0
M  V30 21489 C 2050.61 1.60055 0.154606 0
M  V30 21490 O 2051.8 1.74041 -0.0743665 0
M  V30 21491 C 2048.93 3.39924 -0.257826 0
M  V30 21492 H 2050.12 2.41671 -1.77581 0
M  V30 21493 H 2047.68 1.23696 -0.955463 0
M  V30 21494 H 2048.41 3.17019 0.683318 0
M  V30 21495 H 2048.2 3.79745 -0.97654 0
M  V30 21496 H 2049.69 4.17555 -0.0613986 0
M  V30 21497 N 2050.12 0.944665 1.2615 0
M  V30 21498 C 2051.06 0.401268 2.24644 0
M  V30 21499 C 2052.04 -0.511856 1.54333 0
M  V30 21500 O 2053.22 -0.44851 1.83086 0
M  V30 21501 C 2050.35 -0.423081 3.36047 0
M  V30 21502 C 2049.39 0.429013 4.24337 0
M  V30 21503 S 2050.23 1.85512 5.0234 0
M  V30 21504 C 2051.38 1.03892 6.17217 0
M  V30 21505 H 2051.61 1.236 2.70389 0
M  V30 21506 H 2049.15 0.748025 1.3507 0
M  V30 21507 H 2051.11 -0.892789 4.00674 0
M  V30 21508 H 2049.77 -1.23253 2.88907 0
M  V30 21509 H 2048.96 -0.202757 5.03592 0
M  V30 21510 H 2048.56 0.833541 3.64593 0
M  V30 21511 H 2050.85 0.282839 6.76909 0
M  V30 21512 H 2051.8 1.80505 6.84707 0
M  V30 21513 H 2052.2 0.573442 5.6158 0
M  V30 21514 N 2051.6 -1.40596 0.712085 0
M  V30 21515 C 2052.57 -2.29105 0.0660369 0
M  V30 21516 C 2053.57 -1.45196 -0.690992 0
M  V30 21517 O 2054.76 -1.66151 -0.523417 0
M  V30 21518 C 2051.89 -3.2835 -0.916461 0
M  V30 21519 H 2053.08 -2.87734 0.845539 0
M  V30 21520 H 2050.63 -1.48859 0.476533 0
M  V30 21521 H 2051.37 -2.74733 -1.72314 0
M  V30 21522 H 2051.15 -3.90288 -0.376557 0
M  V30 21523 H 2052.64 -3.94634 -1.36578 0
M  V30 21524 N 2053.08 -0.458013 -1.50798 0
M  V30 21525 C 2054.31 0.0995379 -2.0666 0
M  V30 21526 C 2054.72 1.34662 -1.32331 0
M  V30 21527 O 2054.08 1.78311 -0.388768 0
M  V30 21528 C 2054.13 0.400901 -3.5927 0
M  V30 21529 O 2053.85 -0.796705 -4.30795 0
M  V30 21530 C 2055.35 1.00686 -4.31714 0
M  V30 21531 H 2052.57 -0.00125628 -0.670999 0
M  V30 21532 H 2055.12 -0.643041 -1.94127 0
M  V30 21533 H 2053.27 1.0934 -3.7165 0
M  V30 21534 H 2053.69 -0.533396 -5.21781 0
M  V30 21535 H 2055.16 1.16758 -5.39511 0
M  V30 21536 H 2055.64 1.99349 -3.91352 0
M  V30 21537 H 2056.24 0.353135 -4.23831 0
M  V30 21538 N 2054.56 1.56449 -0.190119 0
M  V30 21539 C 2055.47 2.22463 0.744809 0
M  V30 21540 C 2056.49 1.22213 1.23855 0
M  V30 21541 O 2057.66 1.54934 1.28675 0
M  V30 21542 C 2054.73 2.86716 1.94923 0
M  V30 21543 C 2053.79 4.02222 1.50054 0
M  V30 21544 C 2053.02 4.63401 2.64755 0
M  V30 21545 O 2053.24 4.23495 3.8211 0
M  V30 21546 O 2052.18 5.52953 2.37752 0
M  V30 21547 H 2056 3.02955 0.212633 0
M  V30 21548 H 2053.59 1.49349 0.0389463 0
M  V30 21549 H 2055.47 3.27385 2.65324 0
M  V30 21550 H 2054.15 2.09207 2.4701 0
M  V30 21551 H 2053.05 3.66185 0.765469 0
M  V30 21552 H 2054.39 4.81379 1.02638 0
M  V30 21553 N 2056.04 -0.0835127 1.57379 0
M  V30 21554 C 2057.27 -0.798106 1.90887 0
M  V30 21555 C 2057.68 -1.71709 0.78496 0
M  V30 21556 O 2057.04 -1.80883 -0.242406 0
M  V30 21557 C 2057.09 -1.60168 3.24081 0
M  V30 21558 O 2056.81 -0.719655 4.32149 0
M  V30 21559 C 2058.31 -2.41831 3.71527 0
M  V30 21560 H 2055.53 -0.227571 0.631231 0
M  V30 21561 H 2058.07 -0.0572834 2.0442 0
M  V30 21562 H 2056.23 -2.2949 3.12111 0
M  V30 21563 H 2056.64 -1.27737 5.08708 0
M  V30 21564 H 2058.12 -2.93689 4.67387 0
M  V30 21565 H 2058.59 -3.20824 2.99948 0
M  V30 21566 H 2059.2 -1.77687 3.86403 0
M  V30 21567 N 2057.52 -1.53558 -0.354624 0
M  V30 21568 C 2058.76 -1.71979 -1.10466 0
M  V30 21569 C 2059.12 -0.467268 -1.86227 0
M  V30 21570 O 2060.32 -0.528325 -2.63557 0
M  V30 21571 C 2058.59 -2.94174 -2.02969 0
M  V30 21572 S 2060.15 -3.33352 -2.85345 0
M  V30 21573 H 2056.97 -0.605043 -0.373422 0
M  V30 21574 H 2059.57 -1.91682 -0.384487 0
M  V30 21575 H 2058.27 -3.83517 -1.46093 0
M  V30 21576 H 2057.81 -2.76904 -2.79442 0
M  V30 21577 H 2059.82 -2.86221 -4.05329 0
M  V30 21578 N 2058.99 0.615033 -1.45104 0
M  V30 21579 C 2059.94 1.72617 -1.53206 0
M  V30 21580 C 2060.91 1.6173 -0.378499 0
M  V30 21581 O 2062.1 1.81418 -0.590937 0
M  V30 21582 C 2059.24 3.1091 -1.49763 0
M  V30 21583 C 2058.35 3.32657 -2.75615 0
M  V30 21584 C 2057.48 4.61014 -2.63894 0
M  V30 21585 C 2056.52 4.75993 -3.84834 0
M  V30 21586 N 2055.66 5.95642 -3.71692 0
M  V30 21587 H 2060.5 1.65028 -2.48133 0
M  V30 21588 H 2058.04 0.804792 -1.23132 0
M  V30 21589 H 2059.99 3.90911 -1.45755 0
M  V30 21590 H 2058.62 3.17475 -0.583921 0
M  V30 21591 H 2057.68 2.46484 -2.89741 0
M  V30 21592 H 2058.99 3.39601 -3.65339 0
M  V30 21593 H 2058.14 5.49198 -2.5781 0
M  V30 21594 H 2056.88 4.56455 -1.71756 0
M  V30 21595 H 2055.89 3.86234 -3.91284 0
M  V30 21596 H 2057.11 4.82354 -4.78028 0
M  V30 21597 H 2055.06 5.92143 -2.82318 0
M  V30 21598 H 2054.97 6.03713 -4.55046 0
M  V30 21599 H 2056.24 6.86345 -3.69528 0
M  V30 21600 N 2060.47 1.3227 0.85688 0
M  V30 21601 C 2061.75 1.13324 1.59427 0
M  V30 21602 C 2062.13 -0.307216 2.08853 0
M  V30 21603 O 2061.48 -1.30347 1.87675 0
M  V30 21604 C 2061.69 2.15889 2.74213 0
M  V30 21605 C 2063.03 2.49103 3.4385 0
M  V30 21606 O 2064.06 2.14417 2.84436 0
M  V30 21607 O 2062.92 3.08555 4.51061 0
M  V30 21608 H 2060.01 0.437152 0.702016 0
M  V30 21609 H 2062.56 1.43793 0.901202 0
M  V30 21610 H 2061.33 3.12724 2.35201 0
M  V30 21611 H 2060.95 1.86401 3.51198 0
M  V30 21612 N 2061.95 -1.07287 1.15444 0
M  V30 21613 C 2063.19 -1.8149 0.940261 0
M  V30 21614 C 2063.55 -1.84734 -0.523206 0
M  V30 21615 O 2064.75 -2.54815 -0.855738 0
M  V30 21616 C 2063.03 -3.22592 1.53848 0
M  V30 21617 S 2064.58 -4.13533 1.4675 0
M  V30 21618 H 2061.4 -0.625317 0.338377 0
M  V30 21619 H 2064 -1.28879 1.47005 0
M  V30 21620 H 2062.71 -3.1782 2.59651 0
M  V30 21621 H 2062.24 -3.80278 1.00758 0
M  V30 21622 H 2064.25 -4.94055 0.460833 0
M  V30 21623 N 2063.43 -0.951342 -1.25647 0
M  V30 21624 C 2064.38 -0.439691 -2.2372 0
M  V30 21625 C 2065.36 0.469243 -1.53906 0
M  V30 21626 O 2066.55 0.302832 -1.7439 0
M  V30 21627 C 2063.68 0.284397 -3.4212 0
M  V30 21628 C 2062.77 -0.642416 -4.19206 0
M  V30 21629 N 2063.16 -1.77263 -4.73721 0
M  V30 21630 C 2061.46 -0.449973 -4.43724 0
M  V30 21631 C 2062.16 -2.35101 -5.32074 0
M  V30 21632 N 2061.13 -1.6379 -5.18337 0
M  V30 21633 H 2064.94 -1.30229 -2.63472 0
M  V30 21634 H 2062.45 -0.808431 -1.40848 0
M  V30 21635 H 2064.45 0.668054 -4.11513 0
M  V30 21636 H 2063.11 1.14364 -3.03893 0
M  V30 21637 H 2064.12 -2.15456 -4.70955 0
M  V30 21638 H 2060.8 0.366665 -4.15887 0
M  V30 21639 H 2062.19 -3.30386 -5.8506 0
M  V30 21640 N 2064.91 1.40216 -0.719531 0
M  V30 21641 C 2065.84 2.2918 -0.0300683 0
M  V30 21642 C 2066.85 1.4603 0.719654 0
M  V30 21643 O 2068.04 1.69276 0.56638 0
M  V30 21644 C 2065.14 3.2437 0.981688 0
M  V30 21645 C 2064.31 4.36393 0.296683 0
M  V30 21646 C 2063.37 5.11996 1.21437 0
M  V30 21647 O 2062.4 5.64908 0.697679 0
M  V30 21648 N 2063.6 5.21726 2.54524 0
M  V30 21649 H 2066.36 2.88992 -0.79396 0
M  V30 21650 H 2063.93 1.51629 -0.567481 0
M  V30 21651 H 2065.92 3.7182 1.59787 0
M  V30 21652 H 2064.49 2.65699 1.64691 0
M  V30 21653 H 2063.71 3.91019 -0.499755 0
M  V30 21654 H 2065 5.08486 -0.17865 0
M  V30 21655 H 2064.39 4.80227 2.98996 0
M  V30 21656 H 2062.95 5.72669 3.11277 0
M  V30 21657 N 2066.38 0.466004 1.50553 0
M  V30 21658 C 2067.79 0.00966264 1.86697 0
M  V30 21659 C 2068.15 -1.39347 1.38119 0
M  V30 21660 O 2067.27 -2.03208 0.744006 0
M  V30 21661 C 2067.87 0.0107586 3.38798 0
M  V30 21662 C 2066.42 -0.390094 3.74373 0
M  V30 21663 C 2065.57 0.398415 2.74423 0
M  V30 21664 H 2068.52 0.680522 1.43369 0
M  V30 21665 H 2068.54 -0.792537 3.72155 0
M  V30 21666 H 2068.06 1.0321 3.74125 0
M  V30 21667 H 2066.16 -1.41598 3.44646 0
M  V30 21668 H 2066.27 -0.0949729 4.79006 0
M  V30 21669 H 2064.63 -0.147197 2.54274 0
M  V30 21670 H 2065.42 1.41917 3.12593 0
M  V30 21671 N 2067.86 -1.56346 0.198413 0
M  V30 21672 C 2068.82 -2.1801 -0.707414 0
M  V30 21673 C 2069.82 -1.13547 -1.13858 0
M  V30 21674 O 2071.01 -1.38913 -1.05114 0
M  V30 21675 C 2068.15 -2.78484 -1.96621 0
M  V30 21676 H 2069.34 -2.99417 -0.170156 0
M  V30 21677 H 2066.89 -1.56216 -0.0512075 0
M  V30 21678 H 2067.63 -2.00884 -2.5459 0
M  V30 21679 H 2067.41 -3.54959 -1.66574 0
M  V30 21680 H 2068.9 -3.25823 -2.61207 0
M  V30 21681 N 2069.34 0.0751653 -1.57421 0
M  V30 21682 C 2070.29 1.10843 -2.04491 0
M  V30 21683 C 2071.28 1.4028 -0.94962 0
M  V30 21684 O 2072.49 1.39727 -1.13474 0
M  V30 21685 H 2068.86 0.37477 -0.651959 0
M  V30 21686 H 2070.83 0.685258 -2.90425 0
M  V30 21687 C 2069.58 2.41474 -2.50171 0
M  V30 21688 H 2068.91 2.19672 -3.34042 0
M  V30 21689 H 2070.35 3.12227 -2.86863 0
M  V30 21690 C 2068.81 3.07194 -1.38323 0
M  V30 21691 O 2069.34 3.95132 -0.723447 0
M  V30 21692 N 2067.54 2.67764 -1.1292 0
M  V30 21693 H 2067.09 1.96344 -1.66754 0
M  V30 21694 H 2067.05 3.1206 -0.382881 0
M  V30 21695 N 2070.82 1.53744 0.346476 0
M  V30 21696 C 2072.07 1.70849 1.08705 0
M  V30 21697 C 2072.39 0.470151 1.88732 0
M  V30 21698 O 2071.65 -0.548082 1.87868 0
M  V30 21699 C 2071.95 2.92192 2.05812 0
M  V30 21700 C 2071.61 4.27917 1.42119 0
M  V30 21701 C 2070.28 4.64821 1.24477 0
M  V30 21702 C 2072.63 5.12243 0.962087 0
M  V30 21703 C 2069.96 5.83671 0.595386 0
M  V30 21704 C 2072.31 6.31756 0.326627 0
M  V30 21705 C 2070.97 6.67358 0.137866 0
M  V30 21706 H 2070.24 0.625182 0.397779 0
M  V30 21707 H 2072.89 1.87957 0.366657 0
M  V30 21708 H 2071.19 2.69675 2.84223 0
M  V30 21709 H 2072.89 3.0262 2.63101 0
M  V30 21710 H 2069.48 3.9887 1.56847 0
M  V30 21711 H 2073.66 4.84267 1.08625 0
M  V30 21712 H 2068.92 6.09831 0.437727 0
M  V30 21713 H 2073.09 6.9639 -0.0372189 0
M  V30 21714 H 2070.72 7.59312 -0.367372 0
M  V30 21715 N 2072.3 -0.607329 1.45428 0
M  V30 21716 C 2073.24 -1.71802 1.54119 0
M  V30 21717 C 2074.21 -1.61527 0.387071 0
M  V30 21718 O 2075.4 -1.81102 0.60055 0
M  V30 21719 C 2072.54 -3.10112 1.5141 0
M  V30 21720 C 2071.65 -3.31191 2.77375 0
M  V30 21721 C 2070.79 -4.59608 2.66335 0
M  V30 21722 C 2069.83 -4.73946 3.87353 0
M  V30 21723 N 2068.96 -5.93662 3.74846 0
M  V30 21724 H 2073.8 -1.6371 2.49004 0
M  V30 21725 H 2071.34 -0.798251 1.23557 0
M  V30 21726 H 2073.3 -3.90132 1.47826 0
M  V30 21727 H 2071.93 -3.17161 0.600749 0
M  V30 21728 H 2070.98 -2.44944 2.91044 0
M  V30 21729 H 2072.29 -3.37658 3.67135 0
M  V30 21730 H 2071.45 -5.47823 2.60719 0
M  V30 21731 H 2070.18 -4.55538 1.74174 0
M  V30 21732 H 2069.19 -3.84153 3.93327 0
M  V30 21733 H 2070.41 -4.79812 4.8058 0
M  V30 21734 H 2068.36 -5.90637 2.85454 0
M  V30 21735 H 2068.28 -6.01291 4.58241 0
M  V30 21736 H 2069.55 -6.84375 3.73163 0
M  V30 21737 N 2073.77 -1.32722 -0.849853 0
M  V30 21738 C 2075.19 -1.11818 -1.13882 0
M  V30 21739 C 2075.39 0.0981854 -2.01261 0
M  V30 21740 O 2074.45 0.781678 -2.40096 0
M  V30 21741 C 2075.76 -2.4001 -1.81151 0
M  V30 21742 C 2077.31 -2.45813 -1.93765 0
M  V30 21743 C 2077.78 -3.73939 -2.6445 0
M  V30 21744 N 2079.27 -3.74948 -2.71971 0
M  V30 21745 C 2080.01 -4.70792 -3.27326 0
M  V30 21746 N 2079.5 -5.77005 -3.83454 0
M  V30 21747 N 2081.3 -4.58282 -3.25475 0
M  V30 21748 H 2073.45 -2.10702 -0.26806 0
M  V30 21749 H 2075.71 -0.930482 -0.181405 0
M  V30 21750 H 2075.42 -3.28963 -1.24403 0
M  V30 21751 H 2075.29 -2.51333 -2.81267 0
M  V30 21752 H 2077.68 -1.57316 -2.49671 0
M  V30 21753 H 2077.76 -2.38439 -0.926307 0
M  V30 21754 H 2077.4 -4.62812 -2.09206 0
M  V30 21755 H 2077.33 -3.78586 -3.66034 0
M  V30 21756 H 2079.82 -2.9818 -2.32157 0
M  V30 21757 H 2080.14 -6.46188 -4.23864 0
M  V30 21758 H 2078.48 -5.80753 -3.81773 0
M  V30 21759 H 2081.67 -3.74468 -2.80876 0
M  V30 21760 H 2081.85 -5.3315 -3.68314 0
M  V30 21761 N 2075.25 1.06673 -1.16011 0
M  V30 21762 C 2076.49 1.80988 -0.949872 0
M  V30 21763 C 2076.86 1.85009 0.513401 0
M  V30 21764 O 2078.06 2.55265 0.842212 0
M  V30 21765 C 2076.33 3.21772 -1.55556 0
M  V30 21766 S 2077.89 4.12749 -1.48941 0
M  V30 21767 H 2074.71 0.623514 -0.341689 0
M  V30 21768 H 2077.31 1.28097 -1.47687 0
M  V30 21769 H 2076.01 3.16438 -2.61333 0
M  V30 21770 H 2075.54 3.79738 -1.02773 0
M  V30 21771 H 2077.56 4.93804 -0.487028 0
M  V30 21772 N 2076.73 0.957992 1.25141 0
M  V30 21773 C 2077.97 0.622306 1.94696 0
M  V30 21774 C 2078.33 -0.825845 1.73331 0
M  V30 21775 O 2079.54 -1.27128 2.36837 0
M  V30 21776 C 2077.81 0.975207 3.43838 0
M  V30 21777 S 2079.37 0.752603 4.32298 0
M  V30 21778 H 2076.18 0.228622 0.673241 0
M  V30 21779 H 2078.79 1.23288 1.51724 0
M  V30 21780 H 2077.49 2.02624 3.56892 0
M  V30 21781 H 2077.02 0.355017 3.91795 0
M  V30 21782 H 2079.04 -0.374938 4.94781 0
M  V30 21783 N 2078.21 -1.39832 0.726957 0
M  V30 21784 C 2079.62 -1.83534 0.342368 0
M  V30 21785 C 2079.97 -1.6075 -1.12489 0
M  V30 21786 O 2079.1 -1.09438 -1.86688 0
M  V30 21787 C 2079.69 -3.33178 0.614625 0
M  V30 21788 C 2078.25 -3.7533 0.283621 0
M  V30 21789 C 2077.4 -2.62923 0.881297 0
M  V30 21790 H 2080.35 -1.28939 0.925229 0
M  V30 21791 H 2080.37 -3.80322 -0.116329 0
M  V30 21792 H 2079.88 -3.49729 1.68259 0
M  V30 21793 H 2077.98 -3.64369 -0.778826 0
M  V30 21794 H 2078.09 -4.73025 0.760562 0
M  V30 21795 H 2076.46 -2.52825 0.308504 0
M  V30 21796 H 2077.24 -2.82282 1.95375 0
M  V30 21797 N 2079.69 -0.473982 -1.50304 0
M  V30 21798 C 2080.62 0.308532 -2.31453 0
M  V30 21799 C 2081.6 0.987678 -1.38488 0
M  V30 21800 O 2082.78 0.984294 -1.67408 0
M  V30 21801 C 2079.91 1.38921 -3.18305 0
M  V30 21802 C 2078.87 0.831509 -4.19845 0
M  V30 21803 C 2078.19 2.0107 -4.95454 0
M  V30 21804 C 2079.49 -0.159166 -5.22057 0
M  V30 21805 H 2081.19 -0.368757 -2.9712 0
M  V30 21806 H 2078.73 -0.178787 -1.42886 0
M  V30 21807 H 2080.69 1.94415 -3.73873 0
M  V30 21808 H 2079.41 2.09531 -2.50528 0
M  V30 21809 H 2078.07 0.298526 -3.65383 0
M  V30 21810 H 2077.72 2.70384 -4.24148 0
M  V30 21811 H 2077.42 1.64374 -5.64141 0
M  V30 21812 H 2078.94 2.57048 -5.53858 0
M  V30 21813 H 2080.35 0.306691 -5.72479 0
M  V30 21814 H 2078.75 -0.440549 -5.98481 0
M  V30 21815 H 2079.82 -1.08411 -4.72626 0
M  V30 21816 N 2081.16 1.56239 -0.206702 0
M  V30 21817 C 2082.41 1.98197 0.429627 0
M  V30 21818 C 2082.74 1.09386 1.60463 0
M  V30 21819 O 2082.02 0.148321 1.93934 0
M  V30 21820 C 2082.3 3.49218 0.878562 0
M  V30 21821 C 2082.15 4.48805 -0.299054 0
M  V30 21822 C 2083.47 4.04243 1.74 0
M  V30 21823 H 2080.59 0.720583 0.154691 0
M  V30 21824 H 2083.23 1.87617 -0.299957 0
M  V30 21825 H 2081.38 3.58365 1.50023 0
M  V30 21826 H 2083.06 4.51684 -0.936956 0
M  V30 21827 H 2081.3 4.23294 -0.948945 0
M  V30 21828 H 2081.97 5.5197 0.0577652 0
M  V30 21829 H 2084.45 3.97948 1.2156 0
M  V30 21830 H 2083.32 5.10259 2.02305 0
M  V30 21831 H 2083.58 3.50212 2.69823 0
M  V30 21832 N 2082.64 -0.0668159 1.57458 0
M  V30 21833 C 2083.88 -0.77031 1.89329 0
M  V30 21834 C 2084.25 -1.7449 0.801069 0
M  V30 21835 O 2085.45 -2.49386 1.00299 0
M  V30 21836 C 2083.72 -1.45541 3.26424 0
M  V30 21837 S 2085.28 -2.19328 3.80054 0
M  V30 21838 H 2082.1 -0.256053 0.663293 0
M  V30 21839 H 2084.7 -0.026213 1.95482 0
M  V30 21840 H 2083.4 -0.732349 4.03813 0
M  V30 21841 H 2082.93 -2.23883 3.23481 0
M  V30 21842 H 2084.95 -3.45924 3.5574 0
M  V30 21843 N 2084.12 -1.53926 -0.338317 0
M  V30 21844 C 2085.37 -1.71085 -1.07584 0
M  V30 21845 C 2085.69 -0.479497 -1.89013 0
M  V30 21846 O 2084.96 0.506566 -1.89237 0
M  V30 21847 H 2083.54 -0.630767 -0.400178 0
M  V30 21848 H 2086.2 -1.91193 -0.378324 0
M  V30 21849 H 2085.3 -2.58404 -1.75026 0
M  V30 21850 N 2085.6 0.599608 -1.45748 0
M  V30 21851 C 2086.55 1.70982 -1.55028 0
M  V30 21852 C 2087.52 1.61319 -0.395631 0
M  V30 21853 O 2088.7 1.80781 -0.610146 0
M  V30 21854 C 2085.84 3.09304 -1.53052 0
M  V30 21855 C 2084.95 3.29715 -2.79127 0
M  V30 21856 C 2084.09 4.58189 -2.68769 0
M  V30 21857 C 2083.13 4.71885 -3.89861 0
M  V30 21858 N 2082.27 5.91666 -3.77989 0
M  V30 21859 H 2087.11 1.62387 -2.49869 0
M  V30 21860 H 2084.64 0.791687 -1.23979 0
M  V30 21861 H 2086.6 3.89343 -1.49893 0
M  V30 21862 H 2085.23 3.16838 -0.617561 0
M  V30 21863 H 2084.28 2.43397 -2.92339 0
M  V30 21864 H 2085.59 3.35707 -3.68921 0
M  V30 21865 H 2084.75 5.46433 -2.63621 0
M  V30 21866 H 2083.49 4.54608 -1.76587 0
M  V30 21867 H 2082.49 3.82062 -3.95359 0
M  V30 21868 H 2083.72 4.77257 -4.83118 0
M  V30 21869 H 2081.66 5.89115 -2.88582 0
M  V30 21870 H 2081.58 5.98853 -4.61423 0
M  V30 21871 H 2082.85 6.82387 -3.76787 0
M  V30 21872 N 2087.08 1.33171 0.842803 0
M  V30 21873 C 2088.04 1.23019 1.93388 0
M  V30 21874 C 2089.04 0.15022 1.60097 0
M  V30 21875 O 2090.23 0.401472 1.69511 0
M  V30 21876 C 2087.36 0.89468 3.2895 0
M  V30 21877 H 2088.56 2.19997 2.03817 0
M  V30 21878 H 2086.11 1.17173 1.03442 0
M  V30 21879 H 2086.84 -0.0727774 3.24218 0
M  V30 21880 H 2086.63 1.67563 3.54493 0
M  V30 21881 H 2088.12 0.848284 4.08894 0
M  V30 21882 N 2088.56 -1.06056 1.16576 0
M  V30 21883 C 2089.8 -1.78287 0.943219 0
M  V30 21884 C 2090.12 -1.88283 -0.529992 0
M  V30 21885 O 2091.32 -2.57167 -0.870491 0
M  V30 21886 C 2089.78 -3.20448 1.63832 0
M  V30 21887 C 2089.39 -3.18611 3.14946 0
M  V30 21888 C 2091.13 -3.97196 1.49784 0
M  V30 21889 C 2089.04 -4.55507 3.77183 0
M  V30 21890 H 2087.97 -0.668232 0.34926 0
M  V30 21891 H 2090.62 -1.1894 1.39734 0
M  V30 21892 H 2089 -3.80069 1.11191 0
M  V30 21893 H 2090.18 -2.68559 3.7445 0
M  V30 21894 H 2088.49 -2.55362 3.28906 0
M  V30 21895 H 2091.09 -4.98397 1.93661 0
M  V30 21896 H 2091.43 -4.13892 0.447129 0
M  V30 21897 H 2091.96 -3.44104 1.99594 0
M  V30 21898 H 2088.7 -4.44017 4.82213 0
M  V30 21899 H 2088.22 -5.05743 3.22465 0
M  V30 21900 H 2089.9 -5.24461 3.7888 0
M  V30 21901 N 2090.03 -0.964615 -1.24631 0
M  V30 21902 C 2090.97 -0.450114 -2.24737 0
M  V30 21903 C 2091.98 0.439462 -1.56756 0
M  V30 21904 O 2093.17 0.246133 -1.76795 0
M  V30 21905 C 2090.27 0.369784 -3.36877 0
M  V30 21906 C 2089.44 -0.509155 -4.34426 0
M  V30 21907 C 2088.5 0.254217 -5.25586 0
M  V30 21908 O 2087.53 -0.3508 -5.68118 0
M  V30 21909 N 2088.73 1.54463 -5.59573 0
M  V30 21910 H 2091.49 -1.31079 -2.69515 0
M  V30 21911 H 2089.05 -0.83609 -1.3864 0
M  V30 21912 H 2091.05 0.88843 -3.94828 0
M  V30 21913 H 2089.62 1.13137 -2.91408 0
M  V30 21914 H 2088.84 -1.20881 -3.75209 0
M  V30 21915 H 2090.12 -1.10871 -4.96573 0
M  V30 21916 H 2089.52 2.05794 -5.26939 0
M  V30 21917 H 2088.08 2.00904 -6.20065 0
M  V30 21918 N 2091.51 1.39445 -0.734362 0
M  V30 21919 C 2092.44 2.33245 -0.109065 0
M  V30 21920 C 2093.42 1.53878 0.724945 0
M  V30 21921 O 2094.61 1.82274 0.670055 0
M  V30 21922 C 2091.74 3.37973 0.799454 0
M  V30 21923 C 2090.69 4.27943 0.0696508 0
M  V30 21924 C 2090.02 5.23365 1.09514 0
M  V30 21925 C 2091.32 5.10855 -1.08738 0
M  V30 21926 H 2093.01 2.85786 -0.892581 0
M  V30 21927 H 2090.56 1.37409 -0.430672 0
M  V30 21928 H 2092.51 4.02545 1.24643 0
M  V30 21929 H 2091.23 2.83871 1.61508 0
M  V30 21930 H 2089.89 3.64851 -0.357693 0
M  V30 21931 H 2089.54 4.65559 1.90432 0
M  V30 21932 H 2089.24 5.84408 0.611606 0
M  V30 21933 H 2090.77 5.90813 1.54183 0
M  V30 21934 H 2092.18 5.68775 -0.718888 0
M  V30 21935 H 2090.58 5.81038 -1.50051 0
M  V30 21936 H 2091.65 4.45725 -1.90937 0
M  V30 21937 N 2092.99 0.481946 1.5005 0
M  V30 21938 C 2093.92 -0.352787 2.25457 0
M  V30 21939 C 2094.9 -0.986902 1.29225 0
M  V30 21940 O 2096.08 -1.02072 1.58472 0
M  V30 21941 C 2093.21 -1.4952 3.0391 0
M  V30 21942 C 2092.26 -0.977381 4.1515 0
M  V30 21943 S 2093.09 0.116634 5.35373 0
M  V30 21944 C 2094.25 -1.0294 6.17377 0
M  V30 21945 H 2094.48 0.287284 2.95909 0
M  V30 21946 H 2092.01 0.266971 1.52074 0
M  V30 21947 H 2093.97 -2.14989 3.497 0
M  V30 21948 H 2092.63 -2.10682 2.32963 0
M  V30 21949 H 2091.82 -1.83296 4.69488 0
M  V30 21950 H 2091.43 -0.400227 3.71852 0
M  V30 21951 H 2093.72 -1.93874 6.49168 0
M  V30 21952 H 2094.66 -0.525055 7.06151 0
M  V30 21953 H 2095.07 -1.28813 5.49607 0
M  V30 21954 N 2094.47 -1.56127 0.214985 0
M  V30 21955 C 2095.74 -1.8994 -0.467153 0
M  V30 21956 C 2096.12 -1.13139 -1.78221 0
M  V30 21957 O 2095.47 -0.238654 -2.2725 0
M  V30 21958 C 2095.68 -3.42576 -0.666524 0
M  V30 21959 C 2097.03 -4.13209 -0.976927 0
M  V30 21960 O 2098.05 -3.48138 -0.753545 0
M  V30 21961 O 2096.91 -5.2825 -1.40052 0
M  V30 21962 H 2094.01 -0.789533 -0.246102 0
M  V30 21963 H 2096.55 -1.67748 0.256681 0
M  V30 21964 H 2095.33 -3.90426 0.261344 0
M  V30 21965 H 2094.95 -3.70526 -1.44209 0
M  V30 21966 N 2095.95 0.0584645 -1.57492 0
M  V30 21967 C 2096.89 1.06805 -2.04601 0
M  V30 21968 C 2097.86 1.37677 -0.929204 0
M  V30 21969 O 2099.05 1.48518 -1.19779 0
M  V30 21970 C 2096.19 2.37272 -2.50591 0
M  V30 21971 C 2095.3 2.12815 -3.75944 0
M  V30 21972 C 2094.44 3.36941 -4.10663 0
M  V30 21973 C 2093.47 3.07907 -5.29018 0
M  V30 21974 N 2092.61 4.24401 -5.5931 0
M  V30 21975 H 2097.45 0.659352 -2.90614 0
M  V30 21976 H 2094.99 0.313985 -1.4371 0
M  V30 21977 H 2096.95 3.13463 -2.75312 0
M  V30 21978 H 2095.58 2.75919 -1.67536 0
M  V30 21979 H 2094.63 1.27255 -3.58483 0
M  V30 21980 H 2095.94 1.87378 -4.62267 0
M  V30 21981 H 2095.09 4.21519 -4.36356 0
M  V30 21982 H 2093.83 3.65466 -3.22933 0
M  V30 21983 H 2092.84 2.21727 -5.03108 0
M  V30 21984 H 2094.06 2.80691 -6.18377 0
M  V30 21985 H 2092.01 4.52933 -4.7454 0
M  V30 21986 H 2091.93 4.02284 -6.40081 0
M  V30 21987 H 2093.19 5.09938 -5.89562 0
M  V30 21988 N 2097.42 1.54103 0.330149 0
M  V30 21989 C 2098.65 1.76264 1.09297 0
M  V30 21990 C 2099.07 0.5067 1.81147 0
M  V30 21991 O 2098.43 -0.541409 1.73027 0
M  V30 21992 C 2098.48 2.95141 2.07181 0
M  V30 21993 O 2097.58 2.66226 3.14956 0
M  V30 21994 H 2096.92 0.584284 0.31545 0
M  V30 21995 H 2099.45 2.01107 0.376453 0
M  V30 21996 H 2099.46 3.22305 2.50167 0
M  V30 21997 H 2098.14 3.86224 1.54285 0
M  V30 21998 H 2096.72 2.49992 2.76692 0
M  V30 21999 N 2098.9 -0.59187 1.46064 0
M  V30 22000 C 2100.13 -1.38153 1.54688 0
M  V30 22001 C 2100.55 -1.87183 0.185547 0
M  V30 22002 O 2099.91 -1.61046 -0.832694 0
M  V30 22003 C 2099.96 -2.55134 2.54831 0
M  V30 22004 O 2099.06 -3.56279 2.077 0
M  V30 22005 H 2098.4 -0.41181 0.520873 0
M  V30 22006 H 2100.93 -0.718824 1.91557 0
M  V30 22007 H 2100.94 -3.02173 2.74145 0
M  V30 22008 H 2099.62 -2.188 3.53694 0
M  V30 22009 H 2098.2 -3.15782 1.98333 0
M  V30 22010 N 2100.38 -1.33616 -0.835729 0
M  V30 22011 C 2101.8 -1.13019 -1.12689 0
M  V30 22012 C 2102 0.0768335 -2.01353 0
M  V30 22013 O 2101.05 0.756169 -2.40911 0
M  V30 22014 C 2102.37 -2.41918 -1.78595 0
M  V30 22015 C 2103.91 -2.47854 -1.91147 0
M  V30 22016 C 2104.39 -3.76723 -2.60469 0
M  V30 22017 N 2105.88 -3.77811 -2.67979 0
M  V30 22018 C 2106.61 -4.74237 -3.22315 0
M  V30 22019 N 2106.11 -5.81039 -3.77313 0
M  V30 22020 N 2107.9 -4.61709 -3.20596 0
M  V30 22021 H 2100.05 -2.10974 -0.245697 0
M  V30 22022 H 2102.32 -0.932353 -0.171526 0
M  V30 22023 H 2102.02 -3.30264 -1.20906 0
M  V30 22024 H 2101.9 -2.54302 -2.78586 0
M  V30 22025 H 2104.28 -1.59955 -2.47989 0
M  V30 22026 H 2104.37 -2.39408 -0.900965 0
M  V30 22027 H 2104.01 -4.65005 -2.04286 0
M  V30 22028 H 2103.94 -3.82447 -3.61998 0
M  V30 22029 H 2106.43 -3.00626 -2.28982 0
M  V30 22030 H 2106.74 -6.50648 -4.16986 0
M  V30 22031 H 2105.09 -5.8477 -3.75592 0
M  V30 22032 H 2108.28 -3.77426 -2.76888 0
M  V30 22033 H 2108.45 -5.37026 -3.62639 0
M  V30 22034 N 2101.86 1.05436 -1.17136 0
M  V30 22035 C 2103.1 1.78658 -0.959644 0
M  V30 22036 C 2103.44 1.87366 0.510659 0
M  V30 22037 O 2102.71 1.37162 1.37901 0
M  V30 22038 C 2103 3.22682 -1.59839 0
M  V30 22039 C 2102.85 3.22002 -3.14062 0
M  V30 22040 C 2104.17 4.20454 -1.30023 0
M  V30 22041 H 2101.29 0.648566 -0.350044 0
M  V30 22042 H 2103.93 1.23254 -1.44598 0
M  V30 22043 H 2102.08 3.69992 -1.18484 0
M  V30 22044 H 2103.75 2.82787 -3.64457 0
M  V30 22045 H 2101.99 2.60411 -3.46941 0
M  V30 22046 H 2102.66 4.23642 -3.53881 0
M  V30 22047 H 2105.14 3.81628 -1.65829 0
M  V30 22048 H 2104.02 5.19475 -1.77304 0
M  V30 22049 H 2104.28 4.41549 -0.220588 0
M  V30 22050 N 2103.34 0.971211 1.24118 0
M  V30 22051 C 2104.75 0.678316 1.44468 0
M  V30 22052 C 2104.95 -0.75867 1.86672 0
M  V30 22053 O 2104.01 -1.53217 2.00701 0
M  V30 22054 C 2105.32 1.66541 2.50369 0
M  V30 22055 C 2106.87 1.67842 2.64193 0
M  V30 22056 C 2107.34 2.65358 3.73295 0
M  V30 22057 N 2108.84 2.63821 3.80727 0
M  V30 22058 C 2109.57 3.35947 4.6468 0
M  V30 22059 N 2109.07 4.17602 5.52794 0
M  V30 22060 N 2110.86 3.24755 4.58793 0
M  V30 22061 H 2103.01 1.8996 0.950216 0
M  V30 22062 H 2105.27 0.818026 0.479101 0
M  V30 22063 H 2104.98 2.69261 2.26255 0
M  V30 22064 H 2104.85 1.44095 3.48592 0
M  V30 22065 H 2107.24 0.658308 2.87664 0
M  V30 22066 H 2107.32 1.94351 1.66316 0
M  V30 22067 H 2106.97 3.67505 3.50574 0
M  V30 22068 H 2106.9 2.36127 4.70693 0
M  V30 22069 H 2109.39 2.04554 3.17751 0
M  V30 22070 H 2109.7 4.69515 6.13821 0
M  V30 22071 H 2108.04 4.21695 5.52447 0
M  V30 22072 H 2111.24 2.60422 3.8897 0
M  V30 22073 H 2111.41 3.81228 5.23994 0
M  V30 22074 N 2104.81 -1.39054 0.741747 0
M  V30 22075 C 2106.04 -2.04371 0.302669 0
M  V30 22076 C 2106.45 -1.5605 -1.06982 0
M  V30 22077 O 2105.8 -0.723518 -1.68852 0
M  V30 22078 C 2105.86 -3.5874 0.233614 0
M  V30 22079 C 2105.52 -4.30067 1.54568 0
M  V30 22080 C 2106.52 -4.56248 2.49267 0
M  V30 22081 C 2104.2 -4.68484 1.81185 0
M  V30 22082 C 2106.2 -5.19864 3.68809 0
M  V30 22083 C 2103.88 -5.31827 3.01003 0
M  V30 22084 C 2104.88 -5.5745 3.94636 0
M  V30 22085 O 2104.57 -6.19478 5.1235 0
M  V30 22086 H 2104.3 -0.663574 0.129015 0
M  V30 22087 H 2106.86 -1.78957 1.00814 0
M  V30 22088 H 2105.09 -3.83078 -0.528012 0
M  V30 22089 H 2106.78 -4.05525 -0.174366 0
M  V30 22090 H 2107.54 -4.27008 2.29976 0
M  V30 22091 H 2103.42 -4.47893 1.09146 0
M  V30 22092 H 2106.96 -5.3978 4.41908 0
M  V30 22093 H 2102.86 -5.60488 3.20192 0
M  V30 22094 H 2103.63 -6.3797 5.12774 0
M  V30 22095 N 2106.29 -0.489897 -1.49792 0
M  V30 22096 C 2107.52 0.0578875 -2.07319 0
M  V30 22097 C 2107.94 1.31067 -1.34919 0
M  V30 22098 O 2107.3 1.76775 -0.402515 0
M  V30 22099 C 2107.35 0.305835 -3.59301 0
M  V30 22100 O 2106.45 1.38274 -3.88528 0
M  V30 22101 H 2105.79 -0.021301 -0.663658 0
M  V30 22102 H 2108.32 -0.686335 -1.92745 0
M  V30 22103 H 2108.33 0.540697 -4.04401 0
M  V30 22104 H 2107.01 -0.609525 -4.11409 0
M  V30 22105 H 2105.59 1.13371 -3.55248 0
M  V30 22106 N 2107.77 1.56011 -0.223262 0
M  V30 22107 C 2109.02 1.98642 0.408581 0
M  V30 22108 C 2109.35 1.11082 1.59294 0
M  V30 22109 O 2108.62 0.168881 1.93765 0
M  V30 22110 C 2108.91 3.5013 0.841473 0
M  V30 22111 C 2108.76 4.48462 -0.346639 0
M  V30 22112 C 2110.08 4.06065 1.69703 0
M  V30 22113 H 2107.2 0.722183 0.147039 0
M  V30 22114 H 2109.84 1.87289 -0.319839 0
M  V30 22115 H 2107.99 3.59936 1.46214 0
M  V30 22116 H 2109.66 4.50665 -0.98481 0
M  V30 22117 H 2107.91 4.22263 -0.993788 0
M  V30 22118 H 2108.58 5.52 -0.00078187 0
M  V30 22119 H 2111.05 3.99215 1.17332 0
M  V30 22120 H 2109.93 5.12376 1.96882 0
M  V30 22121 H 2110.19 3.53054 2.66093 0
M  V30 22122 N 2109.25 -0.0501116 1.5752 0
M  V30 22123 C 2110.53 -0.779325 1.79404 0
M  V30 22124 C 2110.91 -1.94682 0.816214 0
M  V30 22125 O 2110.25 -2.28032 -0.146153 0
M  V30 22126 C 2110.46 -1.23206 3.26529 0
M  V30 22127 C 2111.81 -1.65661 3.9095 0
M  V30 22128 O 2112.84 -1.32718 3.30552 0
M  V30 22129 O 2111.69 -2.26728 4.97249 0
M  V30 22130 H 2108.79 -0.375128 0.737026 0
M  V30 22131 H 2111.33 -0.0285117 1.69676 0
M  V30 22132 H 2110.11 -0.397664 3.89274 0
M  V30 22133 H 2109.73 -2.04353 3.41065 0
M  V30 22134 N 2110.73 -1.54276 -0.321972 0
M  V30 22135 C 2111.66 -1.80114 -1.41745 0
M  V30 22136 C 2112.67 -0.683177 -1.47772 0
M  V30 22137 O 2113.86 -0.960312 -1.50467 0
M  V30 22138 C 2110.96 -1.90532 -2.80269 0
M  V30 22139 C 2110.13 -3.20712 -2.97427 0
M  V30 22140 C 2109.19 -3.21811 -4.16322 0
M  V30 22141 O 2108.22 -3.95443 -4.09406 0
M  V30 22142 N 2109.42 -2.45708 -5.25935 0
M  V30 22143 H 2112.19 -2.74652 -1.19943 0
M  V30 22144 H 2109.75 -1.53592 -0.511965 0
M  V30 22145 H 2111.74 -1.88693 -3.58018 0
M  V30 22146 H 2110.31 -1.03083 -2.95115 0
M  V30 22147 H 2109.53 -3.35498 -2.06965 0
M  V30 22148 H 2110.82 -4.0666 -3.05786 0
M  V30 22149 H 2110.21 -1.85477 -5.34429 0
M  V30 22150 H 2108.77 -2.49645 -6.02097 0
M  V30 22151 N 2112.2 0.584116 -1.46376 0
M  V30 22152 C 2113.45 1.33858 -1.5088 0
M  V30 22153 C 2113.77 1.94909 -0.164319 0
M  V30 22154 O 2114.97 2.7136 -0.0871554 0
M  V30 22155 C 2113.43 2.42594 -2.6585 0
M  V30 22156 C 2113.04 1.87853 -4.06713 0
M  V30 22157 C 2114.78 3.19391 -2.79624 0
M  V30 22158 C 2112.69 2.94209 -5.13026 0
M  V30 22159 H 2111.62 0.503207 -0.561515 0
M  V30 22160 H 2114.27 0.623507 -1.72582 0
M  V30 22161 H 2112.65 3.16894 -2.37475 0
M  V30 22162 H 2113.82 1.20105 -4.44872 0
M  V30 22163 H 2112.14 1.23726 -3.97594 0
M  V30 22164 H 2114.74 3.98763 -3.56219 0
M  V30 22165 H 2115.08 3.71891 -1.8709 0
M  V30 22166 H 2115.61 2.52197 -3.07638 0
M  V30 22167 H 2112.35 2.46598 -6.07347 0
M  V30 22168 H 2111.87 3.6045 -4.79412 0
M  V30 22169 H 2113.55 3.58184 -5.38807 0
M  V30 22170 N 2113.68 1.34058 0.828631 0
M  V30 22171 C 2114.91 1.29156 1.61636 0
M  V30 22172 C 2115.33 -0.135511 1.88313 0
M  V30 22173 O 2114.68 -1.08084 1.47051 0
M  V30 22174 C 2114.73 2.07436 2.96062 0
M  V30 22175 O 2114.46 3.44577 2.70552 0
M  V30 22176 C 2115.96 2.09865 3.90476 0
M  V30 22177 H 2113.18 0.444543 0.502615 0
M  V30 22178 H 2115.72 1.76585 1.0314 0
M  V30 22179 H 2113.88 1.63663 3.51131 0
M  V30 22180 H 2114.29 3.84972 3.56225 0
M  V30 22181 H 2115.76 2.69071 4.8198 0
M  V30 22182 H 2116.24 1.09155 4.2542 0
M  V30 22183 H 2116.85 2.53702 3.41344 0
M  V30 22184 N 2115.16 -1.04814 1.17694 0
M  V30 22185 C 2116.39 -1.8155 0.99233 0
M  V30 22186 C 2116.8 -1.83126 -0.459376 0
M  V30 22187 O 2116.16 -1.26127 -1.31903 0
M  V30 22188 C 2116.21 -3.27495 1.53067 0
M  V30 22189 O 2115.93 -3.26104 2.92554 0
M  V30 22190 C 2117.43 -4.20905 1.39119 0
M  V30 22191 H 2114.65 -0.571967 0.350849 0
M  V30 22192 H 2117.2 -1.32145 1.5607 0
M  V30 22193 H 2115.35 -3.74157 1.00424 0
M  V30 22194 H 2115.77 -4.17476 3.17512 0
M  V30 22195 H 2117.24 -5.21275 1.81595 0
M  V30 22196 H 2117.72 -4.37891 0.338812 0
M  V30 22197 H 2118.32 -3.801 1.90798 0
M  V30 22198 N 2116.64 -0.977779 -1.23601 0
M  V30 22199 C 2117.57 -0.460688 -2.23501 0
M  V30 22200 C 2118.55 0.470758 -1.55636 0
M  V30 22201 O 2119.73 0.39981 -1.84211 0
M  V30 22202 C 2116.86 0.333836 -3.37051 0
M  V30 22203 C 2115.91 -0.541367 -4.2305 0
M  V30 22204 S 2116.74 -1.98765 -4.97245 0
M  V30 22205 C 2117.9 -1.2022 -6.14246 0
M  V30 22206 H 2118.13 -1.30726 -2.67017 0
M  V30 22207 H 2115.66 -0.783573 -1.33039 0
M  V30 22208 H 2117.62 0.786244 -4.029 0
M  V30 22209 H 2116.28 1.1555 -2.92074 0
M  V30 22210 H 2115.47 0.0691671 -5.03953 0
M  V30 22211 H 2115.08 -0.929914 -3.62255 0
M  V30 22212 H 2117.37 -0.46221 -6.75921 0
M  V30 22213 H 2118.31 -1.98596 -6.7968 0
M  V30 22214 H 2118.72 -0.722133 -5.59862 0
M  V30 22215 N 2118.12 1.38658 -0.749111 0
M  V30 22216 C 2119.37 1.99455 -0.300085 0
M  V30 22217 C 2119.68 1.60136 1.1232 0
M  V30 22218 O 2120.89 2.13871 1.67247 0
M  V30 22219 C 2119.34 3.56609 -0.485575 0
M  V30 22220 C 2118.95 4.04883 -1.91766 0
M  V30 22221 C 2120.69 4.24384 -0.0990364 0
M  V30 22222 C 2118.6 5.54661 -2.05195 0
M  V30 22223 H 2117.53 0.74616 -0.108449 0
M  V30 22224 H 2120.18 1.5848 -0.925012 0
M  V30 22225 H 2118.56 3.95451 0.208468 0
M  V30 22226 H 2119.74 3.77342 -2.6448 0
M  V30 22227 H 2118.05 3.49817 -2.2587 0
M  V30 22228 H 2120.65 5.34403 -0.178195 0
M  V30 22229 H 2120.99 4.05369 0.947724 0
M  V30 22230 H 2121.53 3.90766 -0.744765 0
M  V30 22231 H 2118.26 5.78575 -3.08109 0
M  V30 22232 H 2117.78 5.8396 -1.36935 0
M  V30 22233 H 2119.46 6.20291 -1.83977 0
M  V30 22234 N 2119.6 0.497834 1.49531 0
M  V30 22235 C 2120.84 -0.0496362 2.01639 0
M  V30 22236 C 2121.16 -1.3834 1.38281 0
M  V30 22237 O 2122.36 -2.01737 1.81699 0
M  V30 22238 C 2120.82 -0.138928 3.59632 0
M  V30 22239 C 2120.43 1.188 4.31961 0
M  V30 22240 C 2122.17 -0.636931 4.19694 0
M  V30 22241 C 2120.08 1.06104 5.81804 0
M  V30 22242 H 2119.01 -0.0223237 0.753669 0
M  V30 22243 H 2121.66 0.636776 1.72097 0
M  V30 22244 H 2120.04 -0.88972 3.85876 0
M  V30 22245 H 2121.22 1.95184 4.17421 0
M  V30 22246 H 2119.53 1.61919 3.83629 0
M  V30 22247 H 2122.13 -0.749374 5.29423 0
M  V30 22248 H 2122.47 -1.63499 3.8285 0
M  V30 22249 H 2123 0.0572358 3.97759 0
M  V30 22250 H 2119.74 2.03327 6.23168 0
M  V30 22251 H 2119.26 0.33804 5.98847 0
M  V30 22252 H 2120.94 0.738481 6.42772 0
M  V30 22253 N 2121.07 -1.5589 0.231532 0
M  V30 22254 C 2122.02 -2.22104 -0.690835 0
M  V30 22255 C 2123.02 -1.20363 -1.19202 0
M  V30 22256 O 2124.22 -1.38416 -1.1507 0
M  V30 22257 H 2120.6 -0.712259 -0.241228 0
M  V30 22258 H 2122.57 -2.98201 -0.109056 0
M  V30 22259 C 2121.32 -2.92249 -1.88377 0
M  V30 22260 H 2120.64 -3.703 -1.50725 0
M  V30 22261 H 2122.08 -3.41964 -2.50672 0
M  V30 22262 C 2120.54 -1.95268 -2.7454 0
M  V30 22263 O 2121.07 -1.47596 -3.73602 0
M  V30 22264 N 2119.27 -1.62701 -2.40783 0
M  V30 22265 H 2118.82 -2.01663 -1.6028 0
M  V30 22266 H 2118.78 -0.98076 -2.98711 0
M  V30 22267 N 2122.55 0.0417572 -1.57545 0
M  V30 22268 C 2123.46 1.06351 -2.09109 0
M  V30 22269 C 2124.48 1.40464 -1.02694 0
M  V30 22270 O 2125.65 1.50038 -1.34352 0
M  V30 22271 C 2122.72 2.34925 -2.54973 0
M  V30 22272 C 2121.78 2.0751 -3.75816 0
M  V30 22273 C 2121.01 3.29954 -4.19483 0
M  V30 22274 O 2121.24 4.40174 -3.62772 0
M  V30 22275 O 2120.17 3.16399 -5.12031 0
M  V30 22276 H 2124 0.655348 -2.96545 0
M  V30 22277 H 2121.58 0.257909 -1.47157 0
M  V30 22278 H 2123.46 3.10537 -2.84859 0
M  V30 22279 H 2122.14 2.75062 -1.70653 0
M  V30 22280 H 2121.04 1.29507 -3.50968 0
M  V30 22281 H 2122.38 1.72237 -4.61081 0
M  V30 22282 N 2124.03 1.54445 0.313786 0
M  V30 22283 C 2125.45 1.45373 0.658707 0
M  V30 22284 C 2125.65 0.634528 1.91248 0
M  V30 22285 O 2124.7 0.137176 2.52127 0
M  V30 22286 C 2126.01 2.89201 0.823608 0
M  V30 22287 C 2127.56 2.99164 0.92032 0
M  V30 22288 C 2128.04 4.44162 1.11732 0
M  V30 22289 N 2129.53 4.47817 1.18382 0
M  V30 22290 C 2130.26 5.57177 1.35431 0
M  V30 22291 N 2129.76 6.76486 1.4946 0
M  V30 22292 N 2131.55 5.44842 1.38217 0
M  V30 22293 H 2123.7 2.06182 -0.510155 0
M  V30 22294 H 2125.97 0.933263 -0.166508 0
M  V30 22295 H 2125.67 3.5169 -0.0265797 0
M  V30 22296 H 2125.55 3.35881 1.7165 0
M  V30 22297 H 2127.93 2.36797 1.761 0
M  V30 22298 H 2128.01 2.558 0.00368975 0
M  V30 22299 H 2127.66 5.0712 0.281448 0
M  V30 22300 H 2127.59 4.85145 2.04797 0
M  V30 22301 H 2130.08 3.61855 1.08945 0
M  V30 22302 H 2130.39 7.55589 1.62188 0
M  V30 22303 H 2128.74 6.79376 1.46539 0
M  V30 22304 H 2131.93 4.50582 1.2686 0
M  V30 22305 H 2132.1 6.30122 1.51161 0
M  V30 22306 N 2125.51 -0.576345 1.46683 0
M  V30 22307 C 2126.46 -1.70601 1.58108 0
M  V30 22308 C 2127.45 -1.63334 0.449247 0
M  V30 22309 O 2128.66 -1.68751 0.626355 0
M  V30 22310 H 2125.03 -0.564161 0.497218 0
M  V30 22311 H 2127 -1.58098 2.53076 0
M  V30 22312 C 2125.75 -3.08983 1.59452 0
M  V30 22313 H 2125.07 -3.15247 2.45885 0
M  V30 22314 H 2126.51 -3.87768 1.715 0
M  V30 22315 C 2124.97 -3.35335 0.324303 0
M  V30 22316 O 2125.5 -3.9745 -0.58277 0
M  V30 22317 N 2123.71 -2.89838 0.21024 0
M  V30 22318 H 2123.26 -2.39471 0.949293 0
M  V30 22319 H 2123.21 -3.07843 -0.638752 0
M  V30 22320 N 2126.99 -1.34495 -0.82151 0
M  V30 22321 C 2128.4 -1.14208 -1.11484 0
M  V30 22322 C 2128.6 0.0554729 -2.01424 0
M  V30 22323 O 2127.66 0.730574 -2.417 0
M  V30 22324 C 2128.97 -2.43799 -1.76019 0
M  V30 22325 C 2130.52 -2.49868 -1.88508 0
M  V30 22326 C 2130.99 -3.79464 -2.56459 0
M  V30 22327 N 2132.48 -3.80632 -2.63957 0
M  V30 22328 C 2133.22 -4.77629 -3.17267 0
M  V30 22329 N 2132.72 -5.85009 -3.71129 0
M  V30 22330 N 2134.51 -4.65083 -3.15681 0
M  V30 22331 H 2126.66 -2.11223 -0.223307 0
M  V30 22332 H 2128.92 -0.93412 -0.161627 0
M  V30 22333 H 2128.63 -3.31528 -1.17397 0
M  V30 22334 H 2128.5 -2.57243 -2.75873 0
M  V30 22335 H 2130.89 -1.62577 -2.46278 0
M  V30 22336 H 2130.97 -2.4035 -0.875522 0
M  V30 22337 H 2130.61 -4.67146 -1.99342 0
M  V30 22338 H 2130.54 -3.86264 -3.57921 0
M  V30 22339 H 2133.04 -3.03038 -2.2578 0
M  V30 22340 H 2133.35 -6.55034 -4.10062 0
M  V30 22341 H 2131.69 -5.88721 -3.69369 0
M  V30 22342 H 2134.88 -3.80342 -2.72869 0
M  V30 22343 H 2135.06 -5.40842 -3.56922 0
M  V30 22344 N 2128.46 1.04188 -1.18248 0
M  V30 22345 C 2129.88 1.29568 -0.931902 0
M  V30 22346 C 2130.08 1.97424 0.403235 0
M  V30 22347 O 2129.14 2.25409 1.13785 0
M  V30 22348 C 2130.45 2.15557 -2.09656 0
M  V30 22349 C 2132 2.28907 -2.13473 0
M  V30 22350 C 2132.47 3.18262 -3.29353 0
M  V30 22351 N 2133.96 3.25849 -3.29206 0
M  V30 22352 C 2134.7 3.95141 -4.15513 0
M  V30 22353 N 2134.19 4.66775 -5.1195 0
M  V30 22354 N 2135.99 3.91408 -4.03431 0
M  V30 22355 H 2128.14 0.585496 -2.04171 0
M  V30 22356 H 2130.4 0.320854 -0.892052 0
M  V30 22357 H 2130.11 1.73002 -3.06208 0
M  V30 22358 H 2129.98 3.16231 -2.05616 0
M  V30 22359 H 2132.37 2.70698 -1.175 0
M  V30 22360 H 2132.45 1.27828 -2.21571 0
M  V30 22361 H 2132.09 2.77182 -4.25597 0
M  V30 22362 H 2132.02 4.1937 -3.18491 0
M  V30 22363 H 2134.51 2.74819 -2.59389 0
M  V30 22364 H 2134.83 5.17239 -5.74181 0
M  V30 22365 H 2133.17 4.65683 -5.15911 0
M  V30 22366 H 2136.36 3.34577 -3.27377 0
M  V30 22367 H 2136.54 4.45139 -4.70909 0
M  V30 22368 N 2129.94 0.98432 1.23081 0
M  V30 22369 C 2131.17 0.673202 1.9617 0
M  V30 22370 C 2131.59 -0.753958 1.72328 0
M  V30 22371 O 2130.95 -1.51414 0.997167 0
M  V30 22372 C 2131 0.974266 3.47189 0
M  V30 22373 O 2130.1 0.0683695 4.12343 0
M  V30 22374 H 2129.44 0.252801 0.613993 0
M  V30 22375 H 2131.97 1.31898 1.5641 0
M  V30 22376 H 2131.98 0.912577 3.97663 0
M  V30 22377 H 2130.66 2.01426 3.63868 0
M  V30 22378 H 2129.24 0.184805 3.72442 0
M  V30 22379 N 2131.42 -1.38259 0.756453 0
M  V30 22380 C 2132.37 -2.3229 0.120051 0
M  V30 22381 C 2133.36 -1.54164 -0.702119 0
M  V30 22382 O 2134.57 -1.69674 -0.600895 0
M  V30 22383 H 2130.94 -0.751733 0.0200275 0
M  V30 22384 H 2132.91 -2.83566 0.929131 0
M  V30 22385 C 2131.66 -3.39368 -0.756628 0
M  V30 22386 H 2130.99 -3.99577 -0.133366 0
M  V30 22387 H 2132.43 -4.07562 -1.16916 0
M  V30 22388 C 2130.89 -2.78176 -1.90051 0
M  V30 22389 O 2131.42 -2.67711 -2.99489 0
M  V30 22390 N 2129.62 -2.35944 -1.69644 0
M  V30 22391 H 2129.17 -2.44655 -0.806323 0
M  V30 22392 H 2129.13 -1.95344 -2.46349 0
M  V30 22393 N 2132.9 -0.505757 -1.49264 0
M  V30 22394 C 2134.15 0.0389421 -2.01662 0
M  V30 22395 C 2134.46 1.37604 -1.39012 0
M  V30 22396 O 2135.67 2.00771 -1.82766 0
M  V30 22397 C 2134.12 0.119854 -3.597 0
M  V30 22398 C 2133.73 -1.21089 -4.31325 0
M  V30 22399 C 2135.47 0.614665 -4.20026 0
M  V30 22400 C 2133.38 -1.09188 -5.81233 0
M  V30 22401 H 2132.31 0.0183265 -0.753777 0
M  V30 22402 H 2134.96 -0.645894 -1.71757 0
M  V30 22403 H 2133.34 0.869244 -3.86342 0
M  V30 22404 H 2134.52 -1.97394 -4.1638 0
M  V30 22405 H 2132.83 -1.63951 -3.82765 0
M  V30 22406 H 2135.43 0.721287 -5.29813 0
M  V30 22407 H 2135.77 1.61466 -3.83711 0
M  V30 22408 H 2136.31 -0.0783291 -3.97723 0
M  V30 22409 H 2133.05 -2.06629 -6.22081 0
M  V30 22410 H 2132.57 -0.369793 -5.98659 0
M  V30 22411 H 2134.24 -0.772559 -6.42371 0
M  V30 22412 N 2134.38 1.55765 -0.239796 0
M  V30 22413 C 2135.62 1.98377 0.386152 0
M  V30 22414 C 2135.95 1.12912 1.58984 0
M  V30 22415 O 2135.22 0.210274 1.94768 0
M  V30 22416 H 2133.8 0.732661 0.145661 0
M  V30 22417 H 2136.46 1.91966 -0.336934 0
M  V30 22418 H 2135.55 3.04146 0.700123 0
M  V30 22419 N 2135.85 -0.0334016 1.57565 0
M  V30 22420 C 2136.8 -1.05382 2.07358 0
M  V30 22421 C 2137.8 -1.37713 0.986479 0
M  V30 22422 O 2139 -1.36669 1.17139 0
M  V30 22423 H 2135.38 -0.357353 0.661667 0
M  V30 22424 H 2137.35 -0.608016 2.9214 0
M  V30 22425 C 2136.1 -2.34757 2.56485 0
M  V30 22426 H 2135.42 -2.10738 3.39749 0
M  V30 22427 H 2136.86 -3.04512 2.9504 0
M  V30 22428 C 2135.32 -3.03419 1.46419 0
M  V30 22429 O 2135.85 -3.93075 0.827955 0
M  V30 22430 N 2134.06 -2.64676 1.19979 0
M  V30 22431 H 2133.6 -1.91854 1.71901 0
M  V30 22432 H 2133.56 -3.10935 0.465483 0
M  V30 22433 N 2137.33 -1.54609 -0.305591 0
M  V30 22434 C 2138.57 -1.75406 -1.04938 0
M  V30 22435 C 2138.94 -0.526278 -1.84646 0
M  V30 22436 O 2140.14 -0.611906 -2.61743 0
M  V30 22437 C 2138.41 -3.00482 -1.93508 0
M  V30 22438 S 2139.97 -3.42262 -2.74595 0
M  V30 22439 H 2136.79 -0.616617 -0.353984 0
M  V30 22440 H 2139.39 -1.92808 -0.32331 0
M  V30 22441 H 2138.09 -3.8797 -1.33817 0
M  V30 22442 H 2137.62 -2.85654 -2.70491 0
M  V30 22443 H 2139.64 -2.98971 -3.96018 0
M  V30 22444 N 2138.81 0.568558 -1.46987 0
M  V30 22445 C 2139.74 1.69177 -1.53149 0
M  V30 22446 C 2140.72 1.57989 -0.384472 0
M  V30 22447 O 2141.91 1.79007 -0.590656 0
M  V30 22448 C 2139.03 3.0734 -1.42336 0
M  V30 22449 C 2138.08 3.37007 -2.61398 0
M  V30 22450 S 2138.91 3.27512 -4.2367 0
M  V30 22451 C 2140.07 4.6819 -4.15391 0
M  V30 22452 H 2140.3 1.63693 -2.48177 0
M  V30 22453 H 2137.83 0.748461 -1.35046 0
M  V30 22454 H 2139.79 3.8704 -1.36786 0
M  V30 22455 H 2138.45 3.103 -0.487122 0
M  V30 22456 H 2137.65 4.37703 -2.49865 0
M  V30 22457 H 2137.25 2.64903 -2.64012 0
M  V30 22458 H 2139.54 5.58892 -3.82944 0
M  V30 22459 H 2140.48 4.8478 -5.16134 0
M  V30 22460 H 2140.89 4.45704 -3.46423 0
M  V30 22461 N 2140.29 1.34929 0.814366 0
M  V30 22462 C 2141.2 1.29305 1.95748 0
M  V30 22463 C 2142.21 0.199261 1.72855 0
M  V30 22464 O 2143.39 0.427261 1.96816 0
M  V30 22465 C 2140.46 1.05688 3.30198 0
M  V30 22466 C 2139.52 2.24305 3.6604 0
M  V30 22467 C 2138.75 2.01805 4.94075 0
M  V30 22468 O 2138.97 0.980584 5.61908 0
M  V30 22469 O 2137.91 2.88973 5.27995 0
M  V30 22470 H 2141.73 2.25492 2.03438 0
M  V30 22471 H 2139.32 1.15222 0.951017 0
M  V30 22472 H 2141.2 0.943332 4.10706 0
M  V30 22473 H 2139.87 0.125466 3.23457 0
M  V30 22474 H 2138.78 2.41222 2.85942 0
M  V30 22475 H 2140.11 3.15866 3.77478 0
M  V30 22476 N 2141.77 -1.0356 1.18799 0
M  V30 22477 C 2142.73 -2.09853 0.921649 0
M  V30 22478 C 2143.73 -1.60519 -0.095096 0
M  V30 22479 O 2144.92 -1.73645 0.138909 0
M  V30 22480 C 2142.05 -3.38733 0.383809 0
M  V30 22481 H 2143.24 -2.34914 1.86428 0
M  V30 22482 H 2140.8 -1.20064 1.00071 0
M  V30 22483 H 2141.53 -3.19337 -0.565188 0
M  V30 22484 H 2141.32 -3.75859 1.11681 0
M  V30 22485 H 2142.81 -4.17039 0.216329 0
M  V30 22486 N 2143.25 -0.990834 -1.22557 0
M  V30 22487 C 2144.18 -0.559304 -2.26703 0
M  V30 22488 C 2145.16 0.412782 -1.65016 0
M  V30 22489 O 2146.34 0.303868 -1.91808 0
M  V30 22490 C 2143.47 0.12888 -3.47061 0
M  V30 22491 C 2142.43 -0.76154 -4.2117 0
M  V30 22492 C 2141.75 0.0594442 -5.34667 0
M  V30 22493 C 2143.05 -2.0574 -4.80071 0
M  V30 22494 H 2144.75 -1.42983 -2.63052 0
M  V30 22495 H 2142.29 -0.68896 -1.26449 0
M  V30 22496 H 2144.24 0.44215 -4.19074 0
M  V30 22497 H 2142.97 1.03394 -3.09802 0
M  V30 22498 H 2141.63 -1.05842 -3.50989 0
M  V30 22499 H 2141.28 0.965355 -4.9365 0
M  V30 22500 H 2140.98 -0.533291 -5.85175 0
M  V30 22501 H 2142.5 0.366857 -6.09497 0
M  V30 22502 H 2143.91 -1.80821 -5.44037 0
M  V30 22503 H 2142.31 -2.59878 -5.4091 0
M  V30 22504 H 2143.38 -2.73748 -4.00237 0
M  V30 22505 N 2144.72 1.37856 -0.763775 0
M  V30 22506 C 2145.97 1.99883 -0.324496 0
M  V30 22507 C 2146.3 1.60631 1.09672 0
M  V30 22508 O 2145.55 0.840171 1.76747 0
M  V30 22509 C 2145.85 3.55083 -0.406337 0
M  V30 22510 C 2145.52 4.14078 -1.78466 0
M  V30 22511 C 2144.18 4.29904 -2.16185 0
M  V30 22512 C 2146.53 4.46517 -2.68834 0
M  V30 22513 C 2143.86 4.7547 -3.43723 0
M  V30 22514 C 2146.21 4.93504 -3.95774 0
M  V30 22515 C 2144.88 5.07536 -4.33547 0
M  V30 22516 H 2144.15 0.731424 -0.118741 0
M  V30 22517 H 2146.79 1.64747 -0.976245 0
M  V30 22518 H 2145.1 3.90417 0.328964 0
M  V30 22519 H 2146.8 4.00971 -0.0478734 0
M  V30 22520 H 2143.39 4.02182 -1.48149 0
M  V30 22521 H 2147.57 4.33883 -2.40955 0
M  V30 22522 H 2142.83 4.8452 -3.72895 0
M  V30 22523 H 2147 5.17572 -4.65931 0
M  V30 22524 H 2144.63 5.42603 -5.32434 0
M  V30 22525 N 2146.2 0.513665 1.48994 0
M  V30 22526 C 2147.13 -0.29486 2.27295 0
M  V30 22527 C 2148.15 -0.919245 1.34364 0
M  V30 22528 O 2149.34 -0.800442 1.59547 0
M  V30 22529 C 2146.44 -1.43125 3.07195 0
M  V30 22530 C 2145.61 -0.911824 4.2779 0
M  V30 22531 C 2144.67 -1.92735 4.89632 0
M  V30 22532 O 2143.69 -1.49081 5.4933 0
M  V30 22533 N 2144.9 -3.25858 4.80413 0
M  V30 22534 H 2147.66 0.376609 2.97324 0
M  V30 22535 H 2145.22 0.346983 1.58138 0
M  V30 22536 H 2147.21 -2.10843 3.45438 0
M  V30 22537 H 2145.78 -2.00665 2.39692 0
M  V30 22538 H 2145 -0.059147 3.94156 0
M  V30 22539 H 2146.29 -0.543402 5.0589 0
M  V30 22540 H 2145.69 -3.64003 4.33034 0
M  V30 22541 H 2144.25 -3.89255 5.22804 0
M  V30 22542 N 2147.68 -1.55636 0.248053 0
M  V30 22543 C 2148.93 -1.98579 -0.375626 0
M  V30 22544 C 2149.25 -1.13753 -1.58383 0
M  V30 22545 O 2148.52 -0.2206 -1.94654 0
M  V30 22546 H 2147.1 -0.733423 -0.141773 0
M  V30 22547 H 2149.76 -1.91784 0.34711 0
M  V30 22548 H 2148.86 -3.04513 -0.683983 0
M  V30 22549 N 2149.16 0.0250451 -1.5758 0
M  V30 22550 C 2150.57 0.571131 -1.7775 0
M  V30 22551 C 2150.92 1.75376 -0.879637 0
M  V30 22552 O 2150.04 2.16268 -0.0755171 0
M  V30 22553 C 2150.64 1.04287 -3.2235 0
M  V30 22554 C 2149.2 1.53444 -3.43703 0
M  V30 22555 C 2148.35 0.474313 -2.73213 0
M  V30 22556 H 2151.3 -0.201177 -1.5742 0
M  V30 22557 H 2151.32 1.91005 -3.29085 0
M  V30 22558 H 2150.83 0.181922 -3.87673 0
M  V30 22559 H 2148.93 2.41711 -2.83561 0
M  V30 22560 H 2149.04 1.57917 -4.52326 0
M  V30 22561 H 2147.41 0.93027 -2.37103 0
M  V30 22562 H 2148.19 -0.377237 -3.41221 0
M  V30 22563 N 2150.64 1.54769 0.297388 0
M  V30 22564 C 2151.57 1.88972 1.37157 0
M  V30 22565 C 2152.55 0.748993 1.52722 0
M  V30 22566 O 2153.73 1.00504 1.6617 0
M  V30 22567 C 2150.86 2.1402 2.73519 0
M  V30 22568 C 2149.82 3.29865 2.72714 0
M  V30 22569 C 2149.14 3.4034 4.12399 0
M  V30 22570 C 2150.44 4.66881 2.34135 0
M  V30 22571 H 2152.14 2.7894 1.0878 0
M  V30 22572 H 2149.68 1.34212 0.521848 0
M  V30 22573 H 2151.63 2.36533 3.48755 0
M  V30 22574 H 2150.36 1.20827 3.03428 0
M  V30 22575 H 2149.02 3.07281 1.99934 0
M  V30 22576 H 2148.67 2.44657 4.3949 0
M  V30 22577 H 2148.37 4.18214 4.1276 0
M  V30 22578 H 2149.89 3.65118 4.89409 0
M  V30 22579 H 2151.3 4.89101 2.99087 0
M  V30 22580 H 2149.7 5.47495 2.45703 0
M  V30 22581 H 2150.77 4.67354 1.29261 0
M  V30 22582 N 2152.11 -0.560755 1.47286 0
M  V30 22583 C 2153.05 -1.68324 1.55562 0
M  V30 22584 C 2154.06 -1.56682 0.442105 0
M  V30 22585 O 2155.25 -1.63705 0.711545 0
M  V30 22586 C 2152.35 -3.06762 1.44049 0
M  V30 22587 C 2151.52 -3.44193 2.69907 0
M  V30 22588 C 2150.58 -4.6178 2.52281 0
M  V30 22589 O 2149.61 -4.66538 3.26084 0
M  V30 22590 N 2150.81 -5.5805 1.59876 0
M  V30 22591 H 2153.57 -1.61672 2.52353 0
M  V30 22592 H 2151.13 -0.747304 1.43621 0
M  V30 22593 H 2153.13 -3.83253 1.29997 0
M  V30 22594 H 2151.7 -3.0766 0.553546 0
M  V30 22595 H 2150.92 -2.57186 2.98746 0
M  V30 22596 H 2152.2 -3.65975 3.53468 0
M  V30 22597 H 2151.6 -5.56959 0.990593 0
M  V30 22598 H 2150.16 -6.33882 1.51778 0
M  V30 22599 N 2153.59 -1.35359 -0.807199 0
M  V30 22600 C 2154.82 -1.3152 -1.5933 0
M  V30 22601 C 2155.23 0.109536 -1.88883 0
M  V30 22602 O 2154.57 1.07173 -1.49196 0
M  V30 22603 C 2154.63 -2.05378 -2.9506 0
M  V30 22604 C 2154.3 -3.54567 -2.88325 0
M  V30 22605 C 2155.3 -4.49171 -2.61805 0
M  V30 22606 C 2152.98 -3.97206 -3.07462 0
M  V30 22607 C 2154.97 -5.84389 -2.54496 0
M  V30 22608 C 2152.66 -5.3252 -2.99776 0
M  V30 22609 C 2153.66 -6.25923 -2.73329 0
M  V30 22610 O 2153.35 -7.58755 -2.65605 0
M  V30 22611 H 2153.08 -0.453354 -0.501444 0
M  V30 22612 H 2155.63 -1.78786 -1.01117 0
M  V30 22613 H 2153.86 -1.52748 -3.55253 0
M  V30 22614 H 2155.55 -1.94625 -3.56197 0
M  V30 22615 H 2156.32 -4.17546 -2.4674 0
M  V30 22616 H 2152.2 -3.24891 -3.27058 0
M  V30 22617 H 2155.74 -6.57264 -2.33774 0
M  V30 22618 H 2151.64 -5.63758 -3.14399 0
M  V30 22619 H 2152.41 -7.68673 -2.81218 0
M  V30 22620 N 2155.07 1.02928 -1.19346 0
M  V30 22621 C 2156.02 2.11197 -0.930836 0
M  V30 22622 C 2156.99 1.65557 0.13418 0
M  V30 22623 O 2158.17 1.90798 -0.00787889 0
M  V30 22624 C 2155.31 3.41813 -0.47517 0
M  V30 22625 C 2154.42 4.01002 -1.60691 0
M  V30 22626 C 2153.56 5.19626 -1.10282 0
M  V30 22627 C 2152.6 5.7087 -2.20848 0
M  V30 22628 N 2151.74 6.80769 -1.71749 0
M  V30 22629 H 2156.58 2.32999 -1.85784 0
M  V30 22630 H 2154.11 1.14276 -0.926246 0
M  V30 22631 H 2156.07 4.16756 -0.192384 0
M  V30 22632 H 2154.7 3.20123 0.414844 0
M  V30 22633 H 2153.75 3.23276 -2.00491 0
M  V30 22634 H 2155.06 4.3505 -2.43994 0
M  V30 22635 H 2154.22 6.01727 -0.775236 0
M  V30 22636 H 2152.96 4.87112 -0.239508 0
M  V30 22637 H 2151.96 4.87383 -2.54437 0
M  V30 22638 H 2153.19 6.05424 -3.07633 0
M  V30 22639 H 2151.13 6.50108 -0.877253 0
M  V30 22640 H 2151.05 7.13942 -2.48642 0
M  V30 22641 H 2152.32 7.66466 -1.41953 0
M  V30 22642 N 2156.55 0.997319 1.2203 0
M  V30 22643 C 2157.82 0.59145 1.86444 0
M  V30 22644 C 2158.2 -0.931144 1.89454 0
M  V30 22645 O 2157.55 -1.81492 1.38827 0
M  V30 22646 C 2157.76 1.21697 3.27095 0
M  V30 22647 C 2159.11 1.32027 4.03552 0
M  V30 22648 O 2160.13 1.1717 3.36377 0
M  V30 22649 O 2158.99 1.55846 5.23807 0
M  V30 22650 H 2156.09 0.201545 0.802065 0
M  V30 22651 H 2158.63 1.09348 1.29773 0
M  V30 22652 H 2157.41 2.25823 3.19562 0
M  V30 22653 H 2157.03 0.70081 3.91375 0
M  V30 22654 N 2158.03 -1.37449 0.771075 0
M  V30 22655 C 2158.96 -2.32874 0.170867 0
M  V30 22656 C 2159.94 -1.55746 -0.683892 0
M  V30 22657 O 2161.12 -1.83987 -0.621492 0
M  V30 22658 C 2158.25 -3.39974 -0.709566 0
M  V30 22659 C 2157.21 -4.27978 0.0438353 0
M  V30 22660 C 2156.53 -5.26084 -0.955998 0
M  V30 22661 C 2157.83 -5.07793 1.22245 0
M  V30 22662 H 2159.53 -2.83319 0.968038 0
M  V30 22663 H 2157.07 -1.36219 0.466952 0
M  V30 22664 H 2159.03 -4.05708 -1.13926 0
M  V30 22665 H 2157.75 -2.88053 -1.53925 0
M  V30 22666 H 2156.41 -3.63774 0.454301 0
M  V30 22667 H 2156.06 -4.70444 -1.78021 0
M  V30 22668 H 2155.76 -5.85824 -0.456445 0
M  V30 22669 H 2157.28 -5.94693 -1.38465 0
M  V30 22670 H 2158.69 -5.66669 0.869436 0
M  V30 22671 H 2157.09 -5.76855 1.65404 0
M  V30 22672 H 2158.16 -4.40506 2.02688 0
M  V30 22673 N 2159.5 -0.52156 -1.4872 0
M  V30 22674 C 2160.45 0.2458 -2.29487 0
M  V30 22675 C 2161.42 0.941571 -1.36834 0
M  V30 22676 O 2162.61 0.944239 -1.65797 0
M  V30 22677 C 2159.75 1.2919 -3.20006 0
M  V30 22678 C 2158.86 0.605827 -4.27731 0
M  V30 22679 C 2157.99 1.63413 -5.0544 0
M  V30 22680 C 2157.03 0.931058 -6.04977 0
M  V30 22681 N 2156.17 1.90451 -6.75776 0
M  V30 22682 H 2161.01 -0.449151 -2.94596 0
M  V30 22683 H 2158.55 -0.233338 -1.45238 0
M  V30 22684 H 2160.51 1.91062 -3.70879 0
M  V30 22685 H 2159.14 1.95534 -2.56839 0
M  V30 22686 H 2158.19 -0.126644 -3.80189 0
M  V30 22687 H 2159.5 0.0533786 -4.98771 0
M  V30 22688 H 2158.65 2.32736 -5.60285 0
M  V30 22689 H 2157.39 2.22047 -4.3422 0
M  V30 22690 H 2156.4 0.223716 -5.49345 0
M  V30 22691 H 2157.62 0.350949 -6.78193 0
M  V30 22692 H 2155.57 2.48008 -6.07312 0
M  V30 22693 H 2155.49 1.40328 -7.42862 0
M  V30 22694 H 2156.75 2.58999 -7.35214 0
M  V30 22695 N 2160.98 1.55502 -0.256304 0
M  V30 22696 C 2162.23 1.98345 0.366351 0
M  V30 22697 C 2162.54 1.14786 1.58378 0
M  V30 22698 O 2163.75 1.47686 2.27818 0
M  V30 22699 C 2162.21 3.52964 0.703174 0
M  V30 22700 C 2161.81 4.45275 -0.493386 0
M  V30 22701 C 2163.56 4.04441 1.2895 0
M  V30 22702 C 2161.47 5.91252 -0.132195 0
M  V30 22703 H 2160.4 0.740764 0.140656 0
M  V30 22704 H 2163.05 1.79974 -0.358 0
M  V30 22705 H 2161.43 3.67065 1.48591 0
M  V30 22706 H 2162.6 4.42936 -1.27059 0
M  V30 22707 H 2160.92 4.04331 -0.995272 0
M  V30 22708 H 2163.51 5.11032 1.57322 0
M  V30 22709 H 2163.86 3.52348 2.21713 0
M  V30 22710 H 2164.39 3.93703 0.569458 0
M  V30 22711 H 2161.13 6.47401 -1.02721 0
M  V30 22712 H 2160.65 5.96704 0.608619 0
M  V30 22713 H 2162.33 6.46384 0.282295 0
M  V30 22714 N 2162.46 -0.0166879 1.57591 0
M  V30 22715 C 2163.74 -0.741095 1.81017 0
M  V30 22716 C 2164.12 -1.92907 0.857326 0
M  V30 22717 O 2163.47 -2.28291 -0.0977513 0
M  V30 22718 C 2163.68 -1.16252 3.29069 0
M  V30 22719 C 2165.02 -1.57331 3.94376 0
M  V30 22720 O 2166.05 -1.25676 3.33292 0
M  V30 22721 O 2164.91 -2.16129 5.01947 0
M  V30 22722 H 2162 -0.35941 0.744818 0
M  V30 22723 H 2164.55 0.00748551 1.69698 0
M  V30 22724 H 2163.32 -0.315003 3.9003 0
M  V30 22725 H 2162.94 -1.97072 3.45323 0
M  V30 22726 N 2163.94 -1.54924 -0.289176 0
M  V30 22727 C 2165.19 -1.73974 -1.02059 0
M  V30 22728 C 2165.5 -0.539167 -1.88022 0
M  V30 22729 O 2166.71 -0.611723 -2.64519 0
M  V30 22730 C 2165.16 -3.07847 -1.86435 0
M  V30 22731 C 2164.77 -4.35421 -1.05417 0
M  V30 22732 C 2166.51 -3.36252 -2.59104 0
M  V30 22733 C 2164.42 -5.6034 -1.89138 0
M  V30 22734 H 2163.35 -0.648438 -0.384766 0
M  V30 22735 H 2166 -1.81397 -0.276999 0
M  V30 22736 H 2164.38 -2.94419 -2.64827 0
M  V30 22737 H 2165.56 -4.59718 -0.315551 0
M  V30 22738 H 2163.87 -4.14039 -0.442763 0
M  V30 22739 H 2166.47 -4.26785 -3.22115 0
M  V30 22740 H 2166.81 -2.55656 -3.28551 0
M  V30 22741 H 2167.35 -3.50705 -1.87753 0
M  V30 22742 H 2164.09 -6.43638 -1.2414 0
M  V30 22743 H 2163.61 -5.4021 -2.6064 0
M  V30 22744 H 2165.28 -5.98038 -2.46899 0
M  V30 22745 N 2165.42 0.552936 -1.47582 0
M  V30 22746 C 2166.36 1.65963 -1.60389 0
M  V30 22747 C 2167.33 1.59979 -0.446754 0
M  V30 22748 O 2168.52 1.78749 -0.667351 0
M  V30 22749 C 2165.66 3.04278 -1.62815 0
M  V30 22750 C 2164.77 3.20668 -2.89476 0
M  V30 22751 C 2163.91 4.49406 -2.8321 0
M  V30 22752 C 2162.95 4.59243 -4.04676 0
M  V30 22753 N 2162.08 5.79341 -3.96621 0
M  V30 22754 H 2166.92 1.54355 -2.54909 0
M  V30 22755 H 2164.46 0.751844 -1.26435 0
M  V30 22756 H 2166.42 3.84377 -1.62204 0
M  V30 22757 H 2165.05 3.14712 -0.718048 0
M  V30 22758 H 2164.1 2.33973 -2.99935 0
M  V30 22759 H 2165.41 3.238 -3.79414 0
M  V30 22760 H 2164.57 5.3777 -2.80872 0
M  V30 22761 H 2163.3 4.4876 -1.90961 0
M  V30 22762 H 2162.31 3.69291 -4.07314 0
M  V30 22763 H 2163.53 4.61645 -4.98057 0
M  V30 22764 H 2161.48 5.79636 -3.07178 0
M  V30 22765 H 2161.4 5.8387 -4.80242 0
M  V30 22766 H 2162.67 6.70054 -3.98306 0
M  V30 22767 N 2166.89 1.35785 0.800009 0
M  V30 22768 C 2168.12 1.32556 1.5886 0
M  V30 22769 C 2168.54 -0.0955366 1.88558 0
M  V30 22770 O 2167.89 -1.0494 1.49311 0
M  V30 22771 C 2167.95 2.13669 2.91595 0
M  V30 22772 O 2167.67 3.50238 2.63182 0
M  V30 22773 C 2169.17 2.181 3.85937 0
M  V30 22774 H 2166.39 0.455105 0.493073 0
M  V30 22775 H 2168.93 1.78733 0.993714 0
M  V30 22776 H 2167.09 1.71074 3.47581 0
M  V30 22777 H 2167.5 3.92442 3.47979 0
M  V30 22778 H 2168.97 2.79234 4.76164 0
M  V30 22779 H 2169.45 1.18154 4.23009 0
M  V30 22780 H 2170.06 2.60885 3.35886 0
M  V30 22781 N 2168.37 -1.02294 1.19891 0
M  V30 22782 C 2169.79 -1.28069 0.952398 0
M  V30 22783 C 2169.99 -1.98041 -0.371776 0
M  V30 22784 O 2169.04 -2.2719 -1.10185 0
M  V30 22785 C 2170.36 -2.12194 2.13059 0
M  V30 22786 C 2171.91 -2.25482 2.17087 0
M  V30 22787 C 2172.38 -3.12982 3.34375 0
M  V30 22788 N 2173.87 -3.2057 3.34348 0
M  V30 22789 C 2174.61 -3.88481 4.21747 0
M  V30 22790 N 2174.1 -4.58571 5.19311 0
M  V30 22791 N 2175.9 -3.8494 4.09606 0
M  V30 22792 H 2168.05 -0.55294 2.05076 0
M  V30 22793 H 2170.31 -0.306622 0.897043 0
M  V30 22794 H 2170.02 -1.68109 3.08921 0
M  V30 22795 H 2169.89 -3.12919 2.10621 0
M  V30 22796 H 2172.28 -2.68795 1.21792 0
M  V30 22797 H 2172.36 -1.24287 2.23576 0
M  V30 22798 H 2172 -2.70376 4.29953 0
M  V30 22799 H 2171.93 -4.1425 3.25123 0
M  V30 22800 H 2174.42 -2.70658 2.63729 0
M  V30 22801 H 2174.74 -5.08039 5.82337 0
M  V30 22802 H 2173.08 -4.57417 5.23254 0
M  V30 22803 H 2176.27 -3.29326 3.32659 0
M  V30 22804 H 2176.44 -4.37591 4.77931 0
M  V30 22805 N 2169.85 -1.00378 -1.21499 0
M  V30 22806 C 2171.26 -0.719279 -1.72288 0
M  V30 22807 C 2171.61 0.763155 -1.8075 0
M  V30 22808 O 2170.74 1.59617 -1.46121 0
M  V30 22809 C 2171.33 -1.299 -3.12908 0
M  V30 22810 C 2169.89 -1.06365 -3.61059 0
M  V30 22811 C 2169.04 -1.41257 -2.38625 0
M  V30 22812 H 2171.99 -1.17483 -1.06694 0
M  V30 22813 H 2172.01 -0.683038 -3.74319 0
M  V30 22814 H 2171.52 -2.37794 -3.06718 0
M  V30 22815 H 2169.62 -0.00182202 -3.726 0
M  V30 22816 H 2169.74 -1.73468 -4.46593 0
M  V30 22817 H 2168.1 -0.831332 -2.40751 0
M  V30 22818 H 2168.88 -2.50179 -2.35086 0
M  V30 22819 N 2171.33 1.37038 -0.778354 0
M  V30 22820 C 2172.74 1.82137 -0.41025 0
M  V30 22821 C 2173.09 1.64814 1.06446 0
M  V30 22822 O 2172.22 1.16292 1.82497 0
M  V30 22823 C 2172.81 3.30668 -0.737859 0
M  V30 22824 C 2171.37 3.74019 -0.422727 0
M  V30 22825 C 2170.52 2.59471 -0.978272 0
M  V30 22826 H 2173.47 1.25416 -0.972446 0
M  V30 22827 H 2173.49 3.80492 -0.0249048 0
M  V30 22828 H 2173 3.43244 -1.81123 0
M  V30 22829 H 2171.1 3.67009 0.643056 0
M  V30 22830 H 2171.21 4.69876 -0.935598 0
M  V30 22831 H 2169.58 2.51506 -0.402125 0
M  V30 22832 H 2170.36 2.74837 -2.05717 0
M  V30 22833 N 2172.81 0.529439 1.48441 0
M  V30 22834 C 2174.22 0.0888387 1.86489 0
M  V30 22835 C 2174.57 -1.33364 1.43905 0
M  V30 22836 O 2173.69 -1.9987 0.829524 0
M  V30 22837 C 2174.29 0.154445 3.38448 0
M  V30 22838 C 2172.85 -0.230958 3.75691 0
M  V30 22839 C 2172 0.514449 2.72486 0
M  V30 22840 H 2174.95 0.740717 1.40353 0
M  V30 22841 H 2174.97 -0.63398 3.75181 0
M  V30 22842 H 2174.48 1.18985 3.69411 0
M  V30 22843 H 2172.58 -1.26853 3.50341 0
M  V30 22844 H 2172.69 0.108275 4.78978 0
M  V30 22845 H 2171.06 -0.039218 2.5467 0
M  V30 22846 H 2171.84 1.55048 3.06293 0
M  V30 22847 N 2174.29 -1.55364 0.264547 0
M  V30 22848 C 2175.2 -2.25763 -0.637821 0
M  V30 22849 C 2176.21 -1.27983 -1.17883 0
M  V30 22850 O 2177.39 -1.60897 -1.21136 0
M  V30 22851 C 2174.45 -2.95689 -1.81021 0
M  V30 22852 C 2173.51 -4.08923 -1.30693 0
M  V30 22853 C 2172.75 -4.75505 -2.42344 0
M  V30 22854 O 2172.97 -4.41244 -3.61469 0
M  V30 22855 O 2171.9 -5.63667 -2.111 0
M  V30 22856 H 2175.73 -3.03624 -0.0678471 0
M  V30 22857 H 2173.31 -1.49365 0.0323545 0
M  V30 22858 H 2175.2 -3.39671 -2.49402 0
M  V30 22859 H 2173.87 -2.20754 -2.36747 0
M  V30 22860 H 2172.78 -3.6942 -0.589885 0
M  V30 22861 H 2174.11 -4.85728 -0.795542 0
M  V30 22862 N 2175.76 0.00833021 -1.57598 0
M  V30 22863 C 2177 0.699511 -1.92058 0
M  V30 22864 C 2177.37 1.71397 -0.865278 0
M  V30 22865 O 2178.57 2.45492 -1.09486 0
M  V30 22866 C 2176.84 1.33325 -3.31601 0
M  V30 22867 S 2178.4 2.05071 -3.87932 0
M  V30 22868 H 2175.22 0.231259 -0.672339 0
M  V30 22869 H 2177.82 -0.0463571 -1.95445 0
M  V30 22870 H 2176.52 0.581972 -4.06253 0
M  V30 22871 H 2176.05 2.11723 -3.31567 0
M  V30 22872 H 2178.07 3.32482 -3.68334 0
M  V30 22873 N 2177.24 1.55075 0.280956 0
M  V30 22874 C 2178.49 1.74513 1.01135 0
M  V30 22875 C 2178.8 0.549131 1.87734 0
M  V30 22876 O 2180.01 0.625743 2.64191 0
M  V30 22877 C 2178.47 3.08832 1.848 0
M  V30 22878 C 2178.07 4.35974 1.03106 0
M  V30 22879 C 2179.82 3.37621 2.57317 0
M  V30 22880 C 2177.72 5.61335 1.86163 0
M  V30 22881 H 2176.65 0.650469 0.381321 0
M  V30 22882 H 2179.31 1.81542 0.267376 0
M  V30 22883 H 2177.69 2.9582 2.63262 0
M  V30 22884 H 2178.86 4.59879 0.291167 0
M  V30 22885 H 2177.18 4.14268 0.4208 0
M  V30 22886 H 2179.77 4.28488 3.19847 0
M  V30 22887 H 2180.12 2.57395 3.27191 0
M  V30 22888 H 2180.65 3.51695 1.8589 0
M  V30 22889 H 2177.39 6.44287 1.20725 0
M  V30 22890 H 2176.91 5.41585 2.57771 0
M  V30 22891 H 2178.59 5.99339 2.43724 0
M  V30 22892 N 2178.72 -0.545102 1.47873 0
M  V30 22893 C 2179.67 -1.67209 1.61691 0
M  V30 22894 C 2180.66 -1.62345 0.483792 0
M  V30 22895 O 2181.87 -1.67384 0.662009 0
M  V30 22896 H 2178.24 -0.553487 0.509073 0
M  V30 22897 H 2180.21 -1.52694 2.56373 0
M  V30 22898 C 2178.96 -3.05531 1.65971 0
M  V30 22899 H 2178.29 -3.09961 2.52516 0
M  V30 22900 H 2179.73 -3.84043 1.79686 0
M  V30 22901 C 2178.18 -3.34572 0.39536 0
M  V30 22902 O 2178.71 -3.98597 -0.498334 0
M  V30 22903 N 2176.92 -2.89327 0.271672 0
M  V30 22904 H 2176.47 -2.37403 0.999874 0
M  V30 22905 H 2176.43 -3.09129 -0.573311 0
M  V30 22906 N 2180.2 -1.36208 -0.792797 0
M  V30 22907 C 2181.47 -1.20801 -1.53839 0
M  V30 22908 C 2181.85 0.20722 -2.1008 0
M  V30 22909 O 2181.2 1.21244 -1.9368 0
M  V30 22910 C 2181.41 -2.28726 -2.63601 0
M  V30 22911 C 2182.76 -2.65225 -3.31573 0
M  V30 22912 O 2183.78 -2.27744 -2.73882 0
M  V30 22913 O 2182.64 -3.29724 -4.35826 0
M  V30 22914 H 2179.74 -0.470148 -0.68036 0
M  V30 22915 H 2182.28 -1.47929 -0.83157 0
M  V30 22916 H 2181.06 -3.2359 -2.20013 0
M  V30 22917 H 2180.68 -2.02945 -3.41905 0
M  V30 22918 N 2181.68 1.01656 -1.20431 0
M  V30 22919 C 2182.61 2.12074 -0.977076 0
M  V30 22920 C 2183.59 1.6984 0.0939563 0
M  V30 22921 O 2184.77 1.94096 -0.0635618 0
M  V30 22922 C 2181.9 3.43257 -0.528392 0
M  V30 22923 C 2180.86 3.99231 -1.54267 0
M  V30 22924 C 2180.18 5.26182 -0.950621 0
M  V30 22925 C 2181.48 4.32619 -2.92639 0
M  V30 22926 H 2183.18 2.31342 -1.90056 0
M  V30 22927 H 2180.72 1.11175 -0.915209 0
M  V30 22928 H 2182.67 4.19888 -0.35665 0
M  V30 22929 H 2181.4 3.23747 0.430716 0
M  V30 22930 H 2180.06 3.24708 -1.70177 0
M  V30 22931 H 2179.71 5.02997 0.0164182 0
M  V30 22932 H 2179.41 5.64597 -1.62802 0
M  V30 22933 H 2180.93 6.05469 -0.789947 0
M  V30 22934 H 2182.34 5.00138 -2.8024 0
M  V30 22935 H 2180.74 4.82148 -3.57286 0
M  V30 22936 H 2181.81 3.41386 -3.4436 0
M  V30 22937 N 2183.15 1.01021 1.20965 0
M  V30 22938 C 2184.08 0.5953 2.25784 0
M  V30 22939 C 2185.06 -0.386477 1.65651 0
M  V30 22940 O 2186.25 -0.273315 1.92267 0
M  V30 22941 C 2183.38 -0.0736489 3.47222 0
M  V30 22942 C 2182.33 0.828449 4.19906 0
M  V30 22943 C 2181.66 0.0256242 5.34694 0
M  V30 22944 C 2182.96 2.13351 4.76737 0
M  V30 22945 H 2184.65 1.4715 2.60744 0
M  V30 22946 H 2182.2 0.70899 1.25337 0
M  V30 22947 H 2184.15 -0.375423 4.19724 0
M  V30 22948 H 2182.88 -0.984519 3.11408 0
M  V30 22949 H 2181.54 1.11413 3.4926 0
M  V30 22950 H 2181.18 -0.886697 4.95123 0
M  V30 22951 H 2180.88 0.626319 5.84253 0
M  V30 22952 H 2182.41 -0.269844 6.10003 0
M  V30 22953 H 2183.82 1.89453 5.41092 0
M  V30 22954 H 2182.22 2.68451 5.36707 0
M  V30 22955 H 2183.29 2.80081 3.95832 0
M  V30 22956 N 2184.63 -1.36623 0.78561 0
M  V30 22957 C 2185.56 -2.28776 0.139379 0
M  V30 22958 C 2186.58 -1.49297 -0.649162 0
M  V30 22959 O 2187.77 -1.71786 -0.484971 0
M  V30 22960 C 2184.87 -3.28685 -0.825808 0
M  V30 22961 C 2184.04 -4.37311 -0.0881363 0
M  V30 22962 C 2183.1 -5.17206 -0.96871 0
M  V30 22963 O 2182.12 -5.67593 -0.427359 0
M  V30 22964 N 2183.33 -5.33275 -2.29342 0
M  V30 22965 H 2186.09 -2.84875 0.930938 0
M  V30 22966 H 2183.65 -1.48748 0.639179 0
M  V30 22967 H 2185.64 -3.7902 -1.41865 0
M  V30 22968 H 2184.21 -2.73254 -1.51826 0
M  V30 22969 H 2183.43 -3.8819 0.685747 0
M  V30 22970 H 2184.72 -5.07055 0.421052 0
M  V30 22971 H 2184.12 -4.93946 -2.75743 0
M  V30 22972 H 2182.68 -5.86868 -2.83599 0
M  V30 22973 N 2186.11 -0.537304 -1.48158 0
M  V30 22974 C 2187.07 0.210784 -2.28229 0
M  V30 22975 C 2188.07 0.861078 -1.35802 0
M  V30 22976 O 2189.26 0.72 -1.58624 0
M  V30 22977 C 2186.39 1.30581 -3.14899 0
M  V30 22978 H 2187.59 -0.492311 -2.95832 0
M  V30 22979 H 2185.14 -0.293505 -1.53519 0
M  V30 22980 H 2185.88 2.04194 -2.51943 0
M  V30 22981 H 2185.66 0.844559 -3.82896 0
M  V30 22982 H 2187.15 1.8318 -3.7528 0
M  V30 22983 N 2187.59 1.55221 -0.272782 0
M  V30 22984 C 2188.83 1.99841 0.345178 0
M  V30 22985 C 2189.17 1.16093 1.55679 0
M  V30 22986 O 2188.44 0.230441 1.9313 0
M  V30 22987 C 2188.73 3.5263 0.729656 0
M  V30 22988 C 2188.58 4.47133 -0.489138 0
M  V30 22989 C 2189.9 4.11259 1.56698 0
M  V30 22990 H 2187.02 0.726495 0.123989 0
M  V30 22991 H 2189.66 1.86176 -0.379262 0
M  V30 22992 H 2187.81 3.64405 1.34689 0
M  V30 22993 H 2189.48 4.47304 -1.12769 0
M  V30 22994 H 2187.72 4.18888 -1.12762 0
M  V30 22995 H 2188.39 5.51718 -0.176396 0
M  V30 22996 H 2190.87 4.02745 1.04572 0
M  V30 22997 H 2189.75 5.1838 1.80481 0
M  V30 22998 H 2190.01 3.61341 2.54726 0
M  V30 22999 N 2189.07 2.77022e-05 1.576 0
M  V30 23000 C 2190.34 -0.721854 1.81793 0
M  V30 23001 C 2190.72 -1.91987 0.877738 0
M  V30 23002 O 2190.07 -2.28382 -0.0735325 0
M  V30 23003 C 2190.28 -1.12755 3.30284 0
M  V30 23004 C 2191.63 -1.53139 3.96022 0
M  V30 23005 O 2192.65 -1.22134 3.34607 0
M  V30 23006 O 2191.51 -2.10793 5.04211 0
M  V30 23007 H 2188.61 -0.35149 0.748588 0
M  V30 23008 H 2191.15 0.0254839 1.69681 0
M  V30 23009 H 2189.92 -0.273618 3.90342 0
M  V30 23010 H 2189.55 -1.93399 3.47394 0
M  V30 23011 N 2190.54 -1.55222 -0.272728 0
M  V30 23012 C 2191.77 -1.80199 -1.02679 0
M  V30 23013 C 2192.19 -0.573583 -1.79141 0
M  V30 23014 O 2191.55 0.476818 -1.74918 0
M  V30 23015 C 2191.6 -3.02627 -1.96084 0
M  V30 23016 O 2190.7 -2.77732 -3.04858 0
M  V30 23017 H 2190.05 -0.595589 -0.293547 0
M  V30 23018 H 2192.58 -2.02366 -0.301554 0
M  V30 23019 H 2192.59 -3.31367 -2.38033 0
M  V30 23020 H 2191.26 -3.91684 -1.39844 0
M  V30 23021 H 2189.84 -2.60089 -2.67223 0
M  V30 23022 N 2192.02 0.537252 -1.4816 0
M  V30 23023 C 2192.95 1.65828 -1.58221 0
M  V30 23024 C 2193.97 1.55959 -0.466975 0
M  V30 23025 O 2195.16 1.62552 -0.737499 0
M  V30 23026 C 2192.26 3.04432 -1.48911 0
M  V30 23027 C 2191.43 3.39855 -2.75349 0
M  V30 23028 C 2190.49 4.57708 -2.59596 0
M  V30 23029 O 2189.51 4.61291 -3.33465 0
M  V30 23030 N 2190.72 5.55436 -1.68734 0
M  V30 23031 H 2193.48 1.57637 -2.54893 0
M  V30 23032 H 2191.04 0.72436 -1.44792 0
M  V30 23033 H 2193.03 3.81136 -1.36078 0
M  V30 23034 H 2191.6 3.0674 -0.602422 0
M  V30 23035 H 2190.82 2.52401 -3.028 0
M  V30 23036 H 2192.11 3.60305 -3.59246 0
M  V30 23037 H 2191.51 5.55313 -1.07908 0
M  V30 23038 H 2190.07 6.31387 -1.61843 0
M  V30 23039 N 2193.5 1.36626 0.785562 0
M  V30 23040 C 2194.41 1.33428 1.92961 0
M  V30 23041 C 2195.43 0.235882 1.72394 0
M  V30 23042 O 2196.6 0.468912 1.95865 0
M  V30 23043 C 2193.67 1.12668 3.27882 0
M  V30 23044 C 2192.73 2.32019 3.612 0
M  V30 23045 C 2191.96 2.1224 4.89684 0
M  V30 23046 O 2192.18 1.09955 5.59702 0
M  V30 23047 O 2191.12 3.00107 5.21746 0
M  V30 23048 H 2194.94 2.29757 1.98609 0
M  V30 23049 H 2192.53 1.17213 0.926363 0
M  V30 23050 H 2194.41 1.03024 4.08612 0
M  V30 23051 H 2193.09 0.194048 3.23118 0
M  V30 23052 H 2191.99 2.47233 2.80761 0
M  V30 23053 H 2193.33 3.23802 3.70693 0
M  V30 23054 N 2194.98 -1.01016 1.20969 0
M  V30 23055 C 2196.22 -1.74973 1.02529 0
M  V30 23056 C 2196.56 -1.89132 -0.440767 0
M  V30 23057 O 2195.83 -1.42186 -1.32715 0
M  V30 23058 C 2196.12 -3.16527 1.71705 0
M  V30 23059 C 2195.97 -3.10124 3.25797 0
M  V30 23060 C 2197.29 -4.15339 1.45539 0
M  V30 23061 H 2194.41 -0.635128 0.373874 0
M  V30 23062 H 2197.05 -1.17802 1.49073 0
M  V30 23063 H 2195.2 -3.65339 1.32135 0
M  V30 23064 H 2196.87 -2.69066 3.74702 0
M  V30 23065 H 2195.11 -2.47356 3.56367 0
M  V30 23066 H 2195.78 -4.10216 3.6936 0
M  V30 23067 H 2198.26 -3.7521 1.79879 0
M  V30 23068 H 2197.14 -5.12537 1.96462 0
M  V30 23069 H 2197.4 -4.40426 0.384315 0
M  V30 23070 N 2196.46 -1.01661 -1.20428 0
M  V30 23071 C 2197.87 -0.731467 -1.41851 0
M  V30 23072 C 2198.07 0.688865 -1.89359 0
M  V30 23073 O 2197.13 1.45662 -2.06249 0
M  V30 23074 C 2198.44 -1.75718 -2.44016 0
M  V30 23075 C 2199.99 -1.77532 -2.57782 0
M  V30 23076 C 2200.46 -2.7903 -3.63189 0
M  V30 23077 N 2201.96 -2.7777 -3.70673 0
M  V30 23078 C 2202.69 -3.52962 -4.51891 0
M  V30 23079 N 2202.19 -4.3783 -5.36914 0
M  V30 23080 N 2203.98 -3.41559 -4.46424 0
M  V30 23081 H 2196.13 -1.93355 -0.879059 0
M  V30 23082 H 2198.39 -0.835244 -0.448411 0
M  V30 23083 H 2198.1 -2.77473 -2.16105 0
M  V30 23084 H 2197.97 -1.56933 -3.43004 0
M  V30 23085 H 2200.36 -0.764619 -2.85022 0
M  V30 23086 H 2200.44 -2.0039 -1.58989 0
M  V30 23087 H 2200.09 -3.80264 -3.36693 0
M  V30 23088 H 2200.02 -2.53433 -4.61605 0
M  V30 23089 H 2202.51 -2.16206 -3.09941 0
M  V30 23090 H 2202.82 -4.91973 -5.95972 0
M  V30 23091 H 2201.16 -4.41908 -5.36416 0
M  V30 23092 H 2204.36 -2.74679 -3.79037 0
M  V30 23093 H 2204.53 -4.00413 -5.09484 0
M  V30 23094 N 2197.93 1.36205 -0.792844 0
M  V30 23095 C 2199.21 1.93428 -0.290661 0
M  V30 23096 C 2199.59 1.72439 1.2177 0
M  V30 23097 O 2198.94 1.08534 2.01078 0
M  V30 23098 C 2199.15 3.42171 -0.687033 0
M  V30 23099 C 2200.5 4.19301 -0.668717 0
M  V30 23100 O 2201.52 3.50625 -0.62772 0
M  V30 23101 O 2200.38 5.41807 -0.714692 0
M  V30 23102 H 2197.47 0.823789 -0.0728072 0
M  V30 23103 H 2200.02 1.45365 -0.875619 0
M  V30 23104 H 2198.79 3.51119 -1.72718 0
M  V30 23105 H 2198.42 3.97527 -0.0761432 0
M  V30 23106 N 2199.41 0.545154 1.47871 0
M  V30 23107 C 2200.64 0.0210898 2.06589 0
M  V30 23108 C 2201.05 -1.27266 1.4 0
M  V30 23109 O 2200.39 -1.77142 0.486452 0
M  V30 23110 C 2200.46 -0.25787 3.58574 0
M  V30 23111 C 2200.12 0.944652 4.4713 0
M  V30 23112 C 2201.12 1.84707 4.85983 0
M  V30 23113 C 2198.8 1.15593 4.88819 0
M  V30 23114 C 2200.8 2.94456 5.65309 0
M  V30 23115 C 2198.48 2.25652 5.67912 0
M  V30 23116 C 2199.48 3.14915 6.06067 0
M  V30 23117 O 2199.17 4.23069 6.8357 0
M  V30 23118 H 2198.9 0.0373018 0.67497 0
M  V30 23119 H 2201.45 0.754632 1.91035 0
M  V30 23120 H 2199.68 -1.04557 3.72296 0
M  V30 23121 H 2201.37 -0.72585 3.99357 0
M  V30 23122 H 2202.14 1.69585 4.54385 0
M  V30 23123 H 2198.02 0.47036 4.58594 0
M  V30 23124 H 2201.56 3.64156 5.9501 0
M  V30 23125 H 2197.46 2.40752 5.98923 0
M  V30 23126 H 2198.23 4.20966 7.01947 0
M  V30 23127 N 2200.89 -1.55074 0.28101 0
M  V30 23128 C 2202.13 -2.01633 -0.335198 0
M  V30 23129 C 2202.49 -1.16511 -1.52608 0
M  V30 23130 O 2203.7 -1.52676 -2.21232 0
M  V30 23131 C 2201.97 -3.50436 -0.70211 0
M  V30 23132 S 2203.53 -4.18976 -1.30402 0
M  V30 23133 H 2200.34 -0.703359 -0.103955 0
M  V30 23134 H 2202.95 -1.91275 0.40422 0
M  V30 23135 H 2201.65 -4.10034 0.173402 0
M  V30 23136 H 2201.18 -3.64789 -1.47284 0
M  V30 23137 H 2203.2 -4.23091 -2.59245 0
M  V30 23138 N 2202.37 -0.00838561 -1.57598 0
M  V30 23139 C 2203.28 0.99645 -2.12387 0
M  V30 23140 C 2204.3 1.37125 -1.0711 0
M  V30 23141 O 2205.47 1.45688 -1.39058 0
M  V30 23142 C 2202.54 2.26694 -2.62318 0
M  V30 23143 C 2201.6 1.95449 -3.82228 0
M  V30 23144 C 2200.83 3.16441 -4.29768 0
M  V30 23145 O 2201.05 4.2841 -3.76592 0
M  V30 23146 O 2199.99 2.99949 -5.21837 0
M  V30 23147 H 2203.81 0.560673 -2.9848 0
M  V30 23148 H 2201.4 0.210961 -1.47903 0
M  V30 23149 H 2203.28 3.01317 -2.94594 0
M  V30 23150 H 2201.96 2.69494 -1.79318 0
M  V30 23151 H 2200.86 1.18275 -3.54911 0
M  V30 23152 H 2202.2 1.57481 -4.66327 0
M  V30 23153 N 2203.85 1.55365 0.264492 0
M  V30 23154 C 2204.79 1.88827 1.32714 0
M  V30 23155 C 2205.76 0.740631 1.48674 0
M  V30 23156 O 2206.95 0.992686 1.62943 0
M  V30 23157 C 2204.09 2.17311 2.68086 0
M  V30 23158 C 2203.2 3.44789 2.60278 0
M  V30 23159 C 2202.34 3.6293 3.87885 0
M  V30 23160 C 2201.38 4.84071 3.74623 0
M  V30 23161 N 2200.51 4.98825 4.94083 0
M  V30 23162 H 2205.35 2.79458 1.03477 0
M  V30 23163 H 2202.89 1.38351 0.499733 0
M  V30 23164 H 2204.85 2.31827 3.4686 0
M  V30 23165 H 2203.48 1.29906 2.95507 0
M  V30 23166 H 2202.53 3.387 1.73167 0
M  V30 23167 H 2203.84 4.33703 2.46381 0
M  V30 23168 H 2203 3.7731 4.75102 0
M  V30 23169 H 2201.74 2.72217 4.04659 0
M  V30 23170 H 2200.74 4.69686 2.85789 0
M  V30 23171 H 2201.97 5.76227 3.5936 0
M  V30 23172 H 2199.91 4.11045 5.11252 0
M  V30 23173 H 2199.83 5.81798 4.8275 0
M  V30 23174 H 2201.1 5.17598 5.82848 0
M  V30 23175 N 2205.33 -0.529387 1.48443 0
M  V30 23176 C 2206.27 -1.63391 1.63009 0
M  V30 23177 C 2207.24 -1.59248 0.472148 0
M  V30 23178 O 2208.43 -1.77664 0.695704 0
M  V30 23179 C 2205.57 -3.0165 1.67635 0
M  V30 23180 C 2204.68 -3.16022 2.94541 0
M  V30 23181 C 2203.82 -4.44844 2.90323 0
M  V30 23182 C 2202.85 -4.52747 4.11931 0
M  V30 23183 N 2201.99 -5.72958 4.05788 0
M  V30 23184 H 2206.83 -1.5028 2.57332 0
M  V30 23185 H 2204.37 -0.731634 1.27615 0
M  V30 23186 H 2206.33 -3.81748 1.68299 0
M  V30 23187 H 2204.96 -3.1353 0.768025 0
M  V30 23188 H 2204.01 -2.29172 3.03619 0
M  V30 23189 H 2205.32 -3.17723 3.84518 0
M  V30 23190 H 2204.47 -5.33233 2.89391 0
M  V30 23191 H 2203.21 -4.45665 1.98076 0
M  V30 23192 H 2202.22 -3.62764 4.13137 0
M  V30 23193 H 2203.44 -4.53663 5.05338 0
M  V30 23194 H 2201.39 -5.74675 3.16361 0
M  V30 23195 H 2201.31 -5.76155 4.8947 0
M  V30 23196 H 2202.57 -6.63633 4.08915 0
M  V30 23197 N 2206.8 -1.37041 -0.778305 0
M  V30 23198 C 2208.05 -1.31626 -1.53359 0
M  V30 23199 C 2208.37 0.100797 -1.94739 0
M  V30 23200 O 2207.64 1.04344 -1.65799 0
M  V30 23201 H 2206.22 -0.484244 -0.568785 0
M  V30 23202 H 2208.88 -1.71459 -0.926712 0
M  V30 23203 H 2207.98 -1.951 -2.43603 0
M  V30 23204 N 2208.28 1.00373 -1.21503 0
M  V30 23205 C 2209.53 1.74527 -1.04461 0
M  V30 23206 C 2209.88 1.87819 0.417353 0
M  V30 23207 O 2209.18 1.40236 1.30554 0
M  V30 23208 C 2209.37 3.15624 -1.67679 0
M  V30 23209 C 2209.2 3.1609 -3.1987 0
M  V30 23210 C 2207.97 3.22598 -3.8892 0
M  V30 23211 C 2210.17 3.01105 -4.16942 0
M  V30 23212 N 2208.15 3.12703 -5.2829 0
M  V30 23213 C 2209.52 2.99121 -5.43071 0
M  V30 23214 C 2211.57 2.85416 -4.07973 0
M  V30 23215 C 2210.28 2.83057 -6.61265 0
M  V30 23216 C 2212.3 2.70709 -5.25805 0
M  V30 23217 C 2211.67 2.69403 -6.50847 0
M  V30 23218 H 2207.76 0.648775 -0.436595 0
M  V30 23219 H 2210.35 1.1929 -1.53877 0
M  V30 23220 H 2208.52 3.69127 -1.20828 0
M  V30 23221 H 2210.25 3.78279 -1.43831 0
M  V30 23222 H 2207.01 3.29844 -3.39853 0
M  V30 23223 H 2207.43 3.11095 -6.0129 0
M  V30 23224 H 2212.07 2.85231 -3.12095 0
M  V30 23225 H 2209.79 2.81989 -7.57303 0
M  V30 23226 H 2213.38 2.59567 -5.20688 0
M  V30 23227 H 2212.26 2.58157 -7.40489 0
M  V30 23228 N 2209.76 1.02298 1.19887 0
M  V30 23229 C 2211.01 0.71129 1.88742 0
M  V30 23230 C 2211.32 -0.762785 1.80114 0
M  V30 23231 O 2212.53 -1.18729 2.44163 0
M  V30 23232 C 2210.98 1.22191 3.38522 0
M  V30 23233 C 2210.59 2.72334 3.55722 0
M  V30 23234 C 2212.34 0.985936 4.12892 0
M  V30 23235 C 2210.24 3.16844 4.99363 0
M  V30 23236 H 2209.17 0.262365 0.706881 0
M  V30 23237 H 2211.82 1.2365 1.35583 0
M  V30 23238 H 2210.21 0.62464 3.91043 0
M  V30 23239 H 2211.38 3.37665 3.13558 0
M  V30 23240 H 2209.69 2.94145 2.94733 0
M  V30 23241 H 2212.29 1.29383 5.1881 0
M  V30 23242 H 2212.63 -0.0774323 4.16228 0
M  V30 23243 H 2213.17 1.5469 3.66491 0
M  V30 23244 H 2209.91 4.22485 5.01186 0
M  V30 23245 H 2209.43 2.56237 5.42312 0
M  V30 23246 H 2211.11 3.09847 5.67982 0
M  V30 23247 N 2211.24 -1.35782 0.800057 0
M  V30 23248 C 2212.48 -1.99247 0.377936 0
M  V30 23249 C 2212.82 -1.63335 -1.05049 0
M  V30 23250 O 2212.09 -0.893415 -1.72767 0
M  V30 23251 C 2212.37 -3.55813 0.553984 0
M  V30 23252 C 2212.23 -4.01545 2.02687 0
M  V30 23253 C 2213.55 -4.40093 -0.0244028 0
M  V30 23254 H 2210.67 -0.723813 0.138795 0
M  V30 23255 H 2213.31 -1.61033 1.00838 0
M  V30 23256 H 2211.46 -3.88496 0.0173081 0
M  V30 23257 H 2213.13 -3.79301 2.62543 0
M  V30 23258 H 2211.37 -3.52693 2.52567 0
M  V30 23259 H 2212.04 -5.10454 2.10096 0
M  V30 23260 H 2214.52 -4.13832 0.433848 0
M  V30 23261 H 2213.4 -5.48749 0.128733 0
M  V30 23262 H 2213.66 -4.27743 -1.11751 0
M  V30 23263 N 2212.72 -0.552988 -1.4758 0
M  V30 23264 C 2213.66 0.210189 -2.31648 0
M  V30 23265 C 2214.66 0.913407 -1.42665 0
M  V30 23266 O 2215.86 0.835173 -1.59452 0
M  V30 23267 H 2212.24 0.0866545 -0.746991 0
M  V30 23268 H 2214.21 -0.518103 -2.93868 0
M  V30 23269 C 2212.96 1.2297 -3.25229 0
M  V30 23270 H 2212.28 0.698008 -3.9366 0
M  V30 23271 H 2213.72 1.73467 -3.86892 0
M  V30 23272 C 2212.18 2.27538 -2.48452 0
M  V30 23273 O 2212.71 3.34389 -2.22591 0
M  V30 23274 N 2210.92 2.01354 -2.09535 0
M  V30 23275 H 2210.46 1.14474 -2.30767 0
M  V30 23276 H 2210.42 2.71535 -1.5848 0
M  V30 23277 N 2214.19 1.54923 -0.28923 0
M  V30 23278 C 2215.44 1.99078 0.324196 0
M  V30 23279 C 2215.76 1.1812 1.55907 0
M  V30 23280 O 2216.96 1.52485 2.24635 0
M  V30 23281 C 2215.42 3.54376 0.628147 0
M  V30 23282 C 2215.03 4.44128 -0.587725 0
M  V30 23283 C 2216.77 4.07085 1.20342 0
M  V30 23284 C 2214.68 5.90839 -0.257578 0
M  V30 23285 H 2213.61 0.743581 0.124911 0
M  V30 23286 H 2216.26 1.79174 -0.396095 0
M  V30 23287 H 2214.64 3.70134 1.40772 0
M  V30 23288 H 2215.81 4.40142 -1.36426 0
M  V30 23289 H 2214.13 4.02129 -1.08081 0
M  V30 23290 H 2216.73 5.14254 1.46447 0
M  V30 23291 H 2217.07 3.56972 2.14189 0
M  V30 23292 H 2217.6 3.94822 0.48582 0
M  V30 23293 H 2214.34 6.45077 -1.1643 0
M  V30 23294 H 2213.86 5.97861 0.481912 0
M  V30 23295 H 2215.54 6.46837 0.145124 0
M  V30 23296 N 2215.67 0.0167433 1.57591 0
M  V30 23297 C 2216.9 -0.675094 1.95576 0
M  V30 23298 C 2217.31 -1.66369 0.892571 0
M  V30 23299 O 2216.67 -1.82058 -0.12688 0
M  V30 23300 C 2216.72 -1.39234 3.33611 0
M  V30 23301 O 2216.44 -0.443367 4.35851 0
M  V30 23302 C 2217.94 -2.17714 3.86155 0
M  V30 23303 H 2215.16 -0.186966 0.644426 0
M  V30 23304 H 2217.71 0.0728359 2.0437 0
M  V30 23305 H 2215.86 -2.09176 3.26074 0
M  V30 23306 H 2216.28 -0.951268 5.15801 0
M  V30 23307 H 2217.75 -2.63371 4.85118 0
M  V30 23308 H 2218.23 -3.01099 3.19744 0
M  V30 23309 H 2218.83 -1.52754 3.96921 0
M  V30 23310 N 2217.15 -1.55503 -0.256249 0
M  V30 23311 C 2218.38 -1.81278 -1.00762 0
M  V30 23312 C 2218.8 -0.592551 -1.78523 0
M  V30 23313 O 2218.16 0.458239 -1.75413 0
M  V30 23314 C 2218.21 -3.0469 -1.92864 0
M  V30 23315 O 2217.31 -2.8095 -3.01896 0
M  V30 23316 H 2216.65 -0.598669 -0.287213 0
M  V30 23317 H 2219.18 -2.02674 -0.280074 0
M  V30 23318 H 2219.19 -3.33873 -2.34505 0
M  V30 23319 H 2217.87 -3.93145 -1.35682 0
M  V30 23320 H 2216.44 -2.62909 -2.64449 0
M  V30 23321 N 2218.63 0.521507 -1.48721 0
M  V30 23322 C 2219.56 1.6414 -1.5997 0
M  V30 23323 C 2220.57 1.55455 -0.483491 0
M  V30 23324 O 2221.76 1.61761 -0.754698 0
M  V30 23325 C 2218.86 3.02835 -1.52132 0
M  V30 23326 C 2218.04 3.36916 -2.78938 0
M  V30 23327 C 2217.09 4.54929 -2.64436 0
M  V30 23328 O 2216.12 4.57729 -3.38339 0
M  V30 23329 N 2217.32 5.53615 -1.74615 0
M  V30 23330 H 2220.09 1.54925 -2.56551 0
M  V30 23331 H 2217.65 0.708963 -1.45552 0
M  V30 23332 H 2219.64 3.79671 -1.40113 0
M  V30 23333 H 2218.21 3.06084 -0.634922 0
M  V30 23334 H 2217.43 2.49175 -3.0546 0
M  V30 23335 H 2218.72 3.56474 -3.63047 0
M  V30 23336 H 2218.12 5.54137 -1.13791 0
M  V30 23337 H 2216.67 6.29635 -1.68531 0
M  V30 23338 N 2220.11 1.37452 0.771027 0
M  V30 23339 C 2221.35 1.32896 1.53187 0
M  V30 23340 C 2221.69 -0.086217 1.94009 0
M  V30 23341 O 2220.96 -1.0437 1.64125 0
M  V30 23342 C 2221.24 2.26873 2.79644 0
M  V30 23343 C 2221.1 3.77173 2.45072 0
M  V30 23344 C 2222.42 2.19284 3.81579 0
M  V30 23345 H 2219.53 0.484074 0.555735 0
M  V30 23346 H 2222.18 1.68158 0.884463 0
M  V30 23347 H 2220.33 1.96932 3.34888 0
M  V30 23348 H 2222 4.17714 1.95737 0
M  V30 23349 H 2220.24 3.95707 1.7776 0
M  V30 23350 H 2220.91 4.38365 3.3547 0
M  V30 23351 H 2223.39 2.45677 3.3583 0
M  V30 23352 H 2222.26 2.87179 4.67782 0
M  V30 23353 H 2222.53 1.18599 4.25895 0
M  V30 23354 N 2221.58 -0.997276 1.22033 0
M  V30 23355 C 2222.52 -2.08844 0.944299 0
M  V30 23356 C 2223.53 -1.62625 -0.0754377 0
M  V30 23357 O 2224.72 -1.77799 0.158026 0
M  V30 23358 C 2221.82 -3.36557 0.397782 0
M  V30 23359 C 2220.99 -4.11826 1.4737 0
M  V30 23360 C 2220.05 -5.17826 0.935042 0
M  V30 23361 O 2219.08 -5.45652 1.62025 0
M  V30 23362 N 2220.28 -5.79979 -0.245793 0
M  V30 23363 H 2223.04 -2.33105 1.88367 0
M  V30 23364 H 2220.6 -1.1627 1.12663 0
M  V30 23365 H 2222.6 -4.04694 0.0228482 0
M  V30 23366 H 2221.17 -3.09393 -0.446592 0
M  V30 23367 H 2220.39 -3.38383 2.02214 0
M  V30 23368 H 2221.67 -4.58887 2.19772 0
M  V30 23369 H 2221.07 -5.59734 -0.819377 0
M  V30 23370 H 2219.63 -6.49371 -0.562158 0
M  V30 23371 N 2223.06 -1.02932 -1.19343 0
M  V30 23372 C 2224.29 -0.745678 -1.92995 0
M  V30 23373 C 2224.71 0.695558 -1.7552 0
M  V30 23374 O 2224.06 1.47304 -1.0774 0
M  V30 23375 C 2224.11 -1.08798 -3.44739 0
M  V30 23376 O 2223.83 -2.47262 -3.61653 0
M  V30 23377 C 2225.34 -0.827206 -4.35514 0
M  V30 23378 H 2222.56 -0.272812 -0.613037 0
M  V30 23379 H 2225.1 -1.37393 -1.51471 0
M  V30 23380 H 2223.25 -0.504899 -3.84096 0
M  V30 23381 H 2223.67 -2.60023 -4.55509 0
M  V30 23382 H 2225.14 -1.11668 -5.40587 0
M  V30 23383 H 2225.62 0.238359 -4.38553 0
M  V30 23384 H 2226.23 -1.39304 -4.01839 0
M  V30 23385 N 2224.54 1.35356 -0.807246 0
M  V30 23386 C 2225.45 2.3357 -0.219635 0
M  V30 23387 C 2226.47 1.61893 0.637705 0
M  V30 23388 O 2227.64 1.93764 0.549302 0
M  V30 23389 C 2224.71 3.41084 0.62152 0
M  V30 23390 C 2223.77 4.28534 -0.25639 0
M  V30 23391 C 2223 5.30913 0.544713 0
M  V30 23392 O 2223.22 5.41937 1.77935 0
M  V30 23393 O 2222.16 6.01865 -0.0647536 0
M  V30 23394 H 2225.98 2.85624 -1.03213 0
M  V30 23395 H 2223.57 1.38138 -0.569049 0
M  V30 23396 H 2225.45 4.06774 1.1006 0
M  V30 23397 H 2224.13 2.913 1.4116 0
M  V30 23398 H 2223.03 3.65822 -0.782623 0
M  V30 23399 H 2224.37 4.81717 -1.01043 0
M  V30 23400 N 2226.02 0.560807 1.47284 0
M  V30 23401 C 2227.43 0.220837 1.58065 0
M  V30 23402 C 2227.63 -1.27668 1.55894 0
M  V30 23403 O 2226.69 -2.05708 1.46426 0
M  V30 23404 C 2228 0.850676 2.88416 0
M  V30 23405 C 2229.55 0.822237 3.02007 0
M  V30 23406 C 2230.03 1.43121 4.35064 0
M  V30 23407 N 2231.52 1.39456 4.41708 0
M  V30 23408 C 2232.25 1.83534 5.43234 0
M  V30 23409 N 2231.75 2.35485 6.51551 0
M  V30 23410 N 2233.54 1.74583 5.34301 0
M  V30 23411 H 2225.69 1.53371 1.46939 0
M  V30 23412 H 2227.96 0.639795 0.699547 0
M  V30 23413 H 2227.66 1.90326 2.95752 0
M  V30 23414 H 2227.54 0.345839 3.75611 0
M  V30 23415 H 2229.92 -0.221663 2.94266 0
M  V30 23416 H 2230 1.36487 2.16345 0
M  V30 23417 H 2229.65 2.4742 4.43561 0
M  V30 23418 H 2229.58 0.86399 5.19464 0
M  V30 23419 H 2232.07 1.01459 3.64026 0
M  V30 23420 H 2232.38 2.67034 7.25198 0
M  V30 23421 H 2230.73 2.39498 6.5243 0
M  V30 23422 H 2233.92 1.33771 4.48579 0
M  V30 23423 H 2234.09 2.09253 6.13284 0
M  V30 23424 N 2227.5 -1.54768 0.297442 0
M  V30 23425 C 2228.44 -2.24834 -0.596011 0
M  V30 23426 C 2229.44 -1.2531 -1.1399 0
M  V30 23427 O 2230.64 -1.43172 -1.09095 0
M  V30 23428 H 2227.02 -0.721849 -0.210802 0
M  V30 23429 H 2228.99 -2.98395 0.0175191 0
M  V30 23430 C 2227.74 -2.99975 -1.75813 0
M  V30 23431 H 2227.06 -3.7636 -1.34883 0
M  V30 23432 H 2228.5 -3.52288 -2.35943 0
M  V30 23433 C 2226.96 -2.06737 -2.6601 0
M  V30 23434 O 2227.49 -1.63308 -3.67006 0
M  V30 23435 N 2225.7 -1.72767 -2.33666 0
M  V30 23436 H 2225.24 -2.0828 -1.51582 0
M  V30 23437 H 2225.2 -1.10657 -2.94283 0
M  V30 23438 N 2228.97 -0.0251005 -1.5758 0
M  V30 23439 C 2230.22 0.653733 -1.90812 0
M  V30 23440 C 2230.54 1.73521 -0.902761 0
M  V30 23441 O 2231.74 2.47041 -1.12618 0
M  V30 23442 C 2230.2 1.21403 -3.38806 0
M  V30 23443 C 2229.81 0.166047 -4.47692 0
M  V30 23444 C 2231.55 1.86961 -3.81111 0
M  V30 23445 C 2229.46 0.737752 -5.8678 0
M  V30 23446 H 2228.39 0.247944 -0.712067 0
M  V30 23447 H 2231.04 -0.0897459 -1.8328 0
M  V30 23448 H 2229.42 2.00899 -3.41256 0
M  V30 23449 H 2230.59 -0.606159 -4.56796 0
M  V30 23450 H 2228.91 -0.390539 -4.14565 0
M  V30 23451 H 2231.51 2.30683 -4.82379 0
M  V30 23452 H 2231.85 2.71066 -3.15958 0
M  V30 23453 H 2232.38 1.14161 -3.81067 0
M  V30 23454 H 2229.12 -0.0650729 -6.55468 0
M  V30 23455 H 2228.64 1.47854 -5.81291 0
M  V30 23456 H 2230.32 1.22873 -6.35225 0
M  V30 23457 N 2230.45 1.55637 0.247999 0
M  V30 23458 C 2231.4 1.91047 1.3268 0
M  V30 23459 C 2232.39 0.789427 1.49881 0
M  V30 23460 O 2233.6 0.974034 1.51369 0
M  V30 23461 H 2229.98 0.606742 0.444261 0
M  V30 23462 H 2231.95 2.81117 1.0008 0
M  V30 23463 C 2230.7 2.22069 2.67546 0
M  V30 23464 H 2230.02 3.0783 2.55109 0
M  V30 23465 H 2231.46 2.50749 3.41908 0
M  V30 23466 C 2229.92 1.03666 3.20554 0
M  V30 23467 O 2230.45 0.284086 4.00694 0
M  V30 23468 N 2228.65 0.827579 2.78567 0
M  V30 23469 H 2228.2 1.44127 2.13507 0
M  V30 23470 H 2228.16 0.0370356 3.14378 0
M  V30 23471 N 2231.93 -0.513613 1.48996 0
M  V30 23472 C 2233.35 -0.843658 1.35479 0
M  V30 23473 C 2233.55 -1.97918 0.378248 0
M  V30 23474 O 2232.6 -2.51749 -0.194645 0
M  V30 23475 C 2233.92 -1.19575 2.75903 0
M  V30 23476 C 2235.46 -1.30469 2.84512 0
M  V30 23477 C 2235.94 -1.69014 4.25674 0
M  V30 23478 N 2237.43 -1.76086 4.28425 0
M  V30 23479 C 2238.17 -2.07329 5.34605 0
M  V30 23480 N 2237.66 -2.36883 6.51044 0
M  V30 23481 N 2239.45 -2.08473 5.22011 0
M  V30 23482 H 2231.61 0.235365 2.11092 0
M  V30 23483 H 2233.87 0.0426835 0.947039 0
M  V30 23484 H 2233.57 -0.434852 3.49001 0
M  V30 23485 H 2233.45 -2.14214 3.10471 0
M  V30 23486 H 2235.84 -2.05633 2.11658 0
M  V30 23487 H 2235.92 -0.33911 2.53542 0
M  V30 23488 H 2235.56 -0.944047 4.99049 0
M  V30 23489 H 2235.49 -2.6665 4.54098 0
M  V30 23490 H 2237.98 -1.55458 3.44443 0
M  V30 23491 H 2238.29 -2.59874 7.27795 0
M  V30 23492 H 2236.64 -2.34366 6.54292 0
M  V30 23493 H 2239.83 -1.84853 4.30055 0
M  V30 23494 H 2240 -2.32489 6.04858 0
M  V30 23495 N 2233.41 -1.37859 -0.763727 0
M  V30 23496 C 2234.37 -1.34084 -1.85887 0
M  V30 23497 C 2235.37 -0.243305 -1.58949 0
M  V30 23498 O 2236.56 -0.499619 -1.66882 0
M  V30 23499 C 2233.69 -1.08495 -3.23174 0
M  V30 23500 H 2234.89 -2.31506 -1.90644 0
M  V30 23501 H 2232.44 -1.23004 -0.964345 0
M  V30 23502 H 2233.18 -0.116375 -3.24091 0
M  V30 23503 H 2232.96 -1.87946 -3.4412 0
M  V30 23504 H 2234.45 -1.08524 -4.03252 0
M  V30 23505 N 2234.89 0.990791 -1.22561 0
M  V30 23506 C 2235.82 2.07904 -0.94081 0
M  V30 23507 C 2236.8 1.62178 0.117054 0
M  V30 23508 O 2237.98 1.88494 -0.0149837 0
M  V30 23509 C 2235.11 3.36143 -0.41538 0
M  V30 23510 C 2234.16 4.00796 -1.45825 0
M  V30 23511 S 2234.99 4.41377 -3.03227 0
M  V30 23512 C 2236.14 5.72784 -2.52327 0
M  V30 23513 H 2236.38 2.31742 -1.86234 0
M  V30 23514 H 2233.91 1.12556 -1.0569 0
M  V30 23515 H 2235.87 4.10328 -0.118819 0
M  V30 23516 H 2234.53 3.10332 0.485066 0
M  V30 23517 H 2233.72 4.93142 -1.04053 0
M  V30 23518 H 2233.32 3.32946 -1.70362 0
M  V30 23519 H 2235.62 6.4922 -1.937 0
M  V30 23520 H 2236.56 6.19386 -3.43172 0
M  V30 23521 H 2236.97 5.30286 -1.93539 0
M  V30 23522 N 2236.37 1.03564 1.18795 0
M  V30 23523 C 2237.59 0.755903 1.92597 0
M  V30 23524 C 2238.01 -0.68624 1.75887 0
M  V30 23525 O 2237.37 -1.4673 1.08519 0
M  V30 23526 C 2237.42 1.10625 3.44158 0
M  V30 23527 O 2237.14 2.49177 3.60337 0
M  V30 23528 C 2238.64 0.850291 4.35069 0
M  V30 23529 H 2235.86 0.276059 0.611582 0
M  V30 23530 H 2238.4 1.38194 1.5074 0
M  V30 23531 H 2236.56 0.525262 3.83823 0
M  V30 23532 H 2236.97 2.62435 4.54124 0
M  V30 23533 H 2238.45 1.14533 5.39987 0
M  V30 23534 H 2238.92 -0.215098 4.38673 0
M  V30 23535 H 2239.53 1.41433 4.01094 0
M  V30 23536 N 2237.84 -1.34926 0.814413 0
M  V30 23537 C 2239.09 -1.97796 0.394906 0
M  V30 23538 C 2239.41 -1.65313 -1.04552 0
M  V30 23539 O 2240.61 -2.21607 -1.56852 0
M  V30 23540 C 2239.07 -3.53886 0.655165 0
M  V30 23541 C 2238.68 -3.95272 2.10865 0
M  V30 23542 C 2240.42 -4.23429 0.301403 0
M  V30 23543 C 2238.33 -5.4424 2.31425 0
M  V30 23544 H 2237.26 -0.740136 0.143926 0
M  V30 23545 H 2239.91 -1.53886 0.999571 0
M  V30 23546 H 2238.29 -3.95995 -0.0195557 0
M  V30 23547 H 2239.46 -3.64293 2.82183 0
M  V30 23548 H 2237.78 -3.38642 2.42303 0
M  V30 23549 H 2240.38 -5.32944 0.432962 0
M  V30 23550 H 2240.72 -4.09429 -0.753238 0
M  V30 23551 H 2241.25 -3.86768 0.930356 0
M  V30 23552 H 2237.99 -5.63216 3.35363 0
M  V30 23553 H 2237.51 -5.76761 1.6464 0
M  V30 23554 H 2239.19 -6.10807 2.13362 0
M  V30 23555 N 2239.32 -0.56861 -1.46985 0
M  V30 23556 C 2240.25 0.160712 -2.32946 0
M  V30 23557 C 2241.23 0.897605 -1.44489 0
M  V30 23558 O 2242.42 0.875836 -1.73328 0
M  V30 23559 C 2239.55 1.18397 -3.26496 0
M  V30 23560 C 2238.5 0.56282 -4.24283 0
M  V30 23561 C 2237.83 1.69154 -5.07239 0
M  V30 23562 C 2239.13 -0.490853 -5.19988 0
M  V30 23563 H 2240.82 -0.556968 -2.94174 0
M  V30 23564 H 2238.37 -0.269295 -1.4146 0
M  V30 23565 H 2240.32 1.70244 -3.8548 0
M  V30 23566 H 2239.04 1.93174 -2.63346 0
M  V30 23567 H 2237.7 0.0655519 -3.66541 0
M  V30 23568 H 2237.35 2.42863 -4.40485 0
M  V30 23569 H 2237.05 1.28164 -5.73452 0
M  V30 23570 H 2238.58 2.21304 -5.69084 0
M  V30 23571 H 2239.99 -0.0580055 -5.73271 0
M  V30 23572 H 2238.39 -0.820269 -5.94467 0
M  V30 23573 H 2239.46 -1.38248 -4.64775 0
M  V30 23574 N 2240.8 1.54608 -0.305646 0
M  V30 23575 C 2241.73 2.2115 0.602122 0
M  V30 23576 C 2242.74 1.20571 1.09392 0
M  V30 23577 O 2243.93 1.47138 1.01057 0
M  V30 23578 C 2241.03 2.84802 1.83687 0
M  V30 23579 C 2240.21 4.11356 1.48678 0
M  V30 23580 C 2239.27 4.58768 2.57717 0
M  V30 23581 O 2238.29 5.23862 2.22614 0
M  V30 23582 N 2239.49 4.31478 3.88339 0
M  V30 23583 H 2242.26 2.99682 0.0324439 0
M  V30 23584 H 2239.82 1.61393 -0.128049 0
M  V30 23585 H 2241.81 3.13452 2.55988 0
M  V30 23586 H 2240.38 2.10082 2.31483 0
M  V30 23587 H 2239.6 3.89665 0.5962 0
M  V30 23588 H 2240.89 4.9375 1.22833 0
M  V30 23589 H 2240.29 3.79339 4.19665 0
M  V30 23590 H 2238.84 4.64826 4.56924 0
M  V30 23591 N 2242.28 0.033457 1.57564 0
M  V30 23592 C 2243.24 -0.932011 2.09395 0
M  V30 23593 C 2244.24 -1.25132 1.00988 0
M  V30 23594 O 2245.43 -1.19094 1.27131 0
M  V30 23595 C 2242.56 -2.24725 2.56342 0
M  V30 23596 H 2243.76 -0.483033 2.95984 0
M  V30 23597 H 2241.31 -0.214653 1.54819 0
M  V30 23598 H 2242.04 -2.74242 1.73095 0
M  V30 23599 H 2241.83 -2.02859 3.35545 0
M  V30 23600 H 2243.32 -2.93918 2.96651 0
M  V30 23601 N 2243.76 -1.55766 -0.239741 0
M  V30 23602 C 2245 -1.78196 -0.968202 0
M  V30 23603 C 2245.33 -0.599971 -1.847 0
M  V30 23604 O 2244.61 0.401491 -1.90311 0
M  V30 23605 C 2244.89 -3.10567 -1.82264 0
M  V30 23606 C 2244.75 -4.39182 -0.971555 0
M  V30 23607 C 2246.06 -3.39226 -2.80382 0
M  V30 23608 H 2243.18 -0.648287 -0.350561 0
M  V30 23609 H 2245.83 -1.88501 -0.238226 0
M  V30 23610 H 2243.98 -3.01913 -2.44501 0
M  V30 23611 H 2245.65 -4.59835 -0.367327 0
M  V30 23612 H 2243.89 -4.3292 -0.2762 0
M  V30 23613 H 2244.56 -5.28201 -1.60337 0
M  V30 23614 H 2247.04 -3.47889 -2.28281 0
M  V30 23615 H 2245.91 -4.3305 -3.37282 0
M  V30 23616 H 2246.17 -2.60491 -3.57207 0
M  V30 23617 N 2245.23 0.505704 -1.49266 0
M  V30 23618 C 2246.46 1.28426 -1.62217 0
M  V30 23619 C 2246.88 1.86533 -0.29173 0
M  V30 23620 O 2246.23 1.67602 0.722204 0
M  V30 23621 C 2246.28 2.41788 -2.68739 0
M  V30 23622 O 2246.01 1.86071 -3.96622 0
M  V30 23623 C 2247.51 3.33235 -2.92352 0
M  V30 23624 H 2244.73 0.389687 -0.546246 0
M  V30 23625 H 2247.27 0.607575 -1.95266 0
M  V30 23626 H 2245.43 3.05296 -2.38481 0
M  V30 23627 H 2245.84 2.60457 -4.55261 0
M  V30 23628 H 2247.31 4.09068 -3.70631 0
M  V30 23629 H 2247.79 3.89945 -2.02088 0
M  V30 23630 H 2248.4 2.75498 -3.24008 0
M  V30 23631 N 2246.71 1.38262 0.756405 0
M  V30 23632 C 2247.94 1.37542 1.54563 0
M  V30 23633 C 2248.36 -0.0354999 1.88767 0
M  V30 23634 O 2247.71 -1.00137 1.52574 0
M  V30 23635 C 2247.76 2.22838 2.8465 0
M  V30 23636 O 2247.48 3.58434 2.51906 0
M  V30 23637 C 2248.99 2.30268 3.78803 0
M  V30 23638 H 2246.21 0.470561 0.478344 0
M  V30 23639 H 2248.75 1.81804 0.936349 0
M  V30 23640 H 2246.9 1.82046 3.41962 0
M  V30 23641 H 2247.32 4.03314 3.35318 0
M  V30 23642 H 2248.79 2.94241 4.6704 0
M  V30 23643 H 2249.27 1.31552 4.19035 0
M  V30 23644 H 2249.88 2.71439 3.27416 0
M  V30 23645 N 2248.19 -0.984277 1.23084 0
M  V30 23646 C 2249.44 -1.72504 1.0606 0
M  V30 23647 C 2249.77 -1.90278 -0.403072 0
M  V30 23648 O 2249.02 -1.44947 -1.31487 0
M  V30 23649 C 2249.32 -3.12917 1.72679 0
M  V30 23650 C 2248.99 -3.15033 3.22591 0
M  V30 23651 C 2247.65 -3.15317 3.63495 0
M  V30 23652 C 2250 -3.10649 4.18505 0
M  V30 23653 C 2247.33 -3.0893 4.98777 0
M  V30 23654 C 2249.68 -3.05804 5.53775 0
M  V30 23655 C 2248.34 -3.04409 5.94047 0
M  V30 23656 H 2247.61 -0.631235 0.388102 0
M  V30 23657 H 2250.26 -1.15213 1.52965 0
M  V30 23658 H 2248.57 -3.7357 1.18123 0
M  V30 23659 H 2250.26 -3.68993 1.56988 0
M  V30 23660 H 2246.85 -3.15566 2.90028 0
M  V30 23661 H 2251.04 -3.09572 3.87916 0
M  V30 23662 H 2246.29 -3.062 5.29199 0
M  V30 23663 H 2250.47 -3.01369 6.27813 0
M  V30 23664 H 2248.09 -2.99214 6.98838 0
M  V30 23665 N 2249.67 -1.04192 -1.18244 0
M  V30 23666 C 2250.63 -0.638491 -2.20127 0
M  V30 23667 C 2251.63 0.304777 -1.57885 0
M  V30 23668 O 2252.82 0.0900063 -1.73967 0
M  V30 23669 C 2249.95 0.0637152 -3.4084 0
M  V30 23670 H 2251.15 -1.54012 -2.57333 0
M  V30 23671 H 2248.7 -0.834621 -1.32151 0
M  V30 23672 H 2249.43 0.979081 -3.09167 0
M  V30 23673 H 2249.22 -0.614266 -3.87259 0
M  V30 23674 H 2250.71 0.332439 -4.16275 0
M  V30 23675 N 2251.15 1.34492 -0.821557 0
M  V30 23676 C 2252.11 2.27856 -0.247887 0
M  V30 23677 C 2253.11 1.50228 0.573426 0
M  V30 23678 O 2254.3 1.69784 0.38973 0
M  V30 23679 C 2251.43 3.34594 0.652639 0
M  V30 23680 H 2252.62 2.80105 -1.07151 0
M  V30 23681 H 2250.18 1.44601 -0.593316 0
M  V30 23682 H 2250.91 2.87557 1.49938 0
M  V30 23683 H 2250.7 3.92046 0.0652231 0
M  V30 23684 H 2252.19 4.0424 1.04786 0
M  V30 23685 N 2252.62 0.576397 1.46681 0
M  V30 23686 C 2253.87 0.0596577 2.02712 0
M  V30 23687 C 2254.2 -1.29445 1.44767 0
M  V30 23688 O 2253.48 -1.84674 0.610387 0
M  V30 23689 C 2253.76 -0.012887 3.60098 0
M  V30 23690 C 2253.61 1.36967 4.28439 0
M  V30 23691 C 2254.93 -0.716704 4.34225 0
M  V30 23692 H 2252.05 0.0231537 0.736636 0
M  V30 23693 H 2254.69 0.742381 1.74896 0
M  V30 23694 H 2252.84 -0.594311 3.83927 0
M  V30 23695 H 2254.52 1.99578 4.15892 0
M  V30 23696 H 2252.76 1.93913 3.88046 0
M  V30 23697 H 2253.43 1.27145 5.37158 0
M  V30 23698 H 2255.91 -0.222834 4.15503 0
M  V30 23699 H 2254.78 -0.736475 5.43937 0
M  V30 23700 H 2255.04 -1.77675 4.04826 0
M  V30 23701 N 2254.1 -1.54444 0.313841 0
M  V30 23702 C 2255.07 -2.22657 -0.543751 0
M  V30 23703 C 2256.07 -1.2168 -1.05122 0
M  V30 23704 O 2257.26 -1.46327 -0.945199 0
M  V30 23705 C 2254.39 -2.92301 -1.75422 0
M  V30 23706 H 2255.58 -2.99854 0.0524126 0
M  V30 23707 H 2253.13 -1.56166 0.0648109 0
M  V30 23708 H 2253.87 -2.19216 -2.38987 0
M  V30 23709 H 2253.65 -3.66337 -1.39785 0
M  V30 23710 H 2255.14 -3.44301 -2.36319 0
M  V30 23711 N 2255.58 -0.0418125 -1.57545 0
M  V30 23712 C 2256.83 0.632796 -1.91938 0
M  V30 23713 C 2257.15 1.71933 -0.920008 0
M  V30 23714 O 2256.42 1.95866 0.0365719 0
M  V30 23715 H 2255 0.236729 -0.708497 0
M  V30 23716 H 2257.66 -0.0926087 -1.9468 0
M  V30 23717 H 2256.76 1.07741 -2.92913 0
M  V30 23718 N 2257.06 1.55891 0.231477 0
M  V30 23719 C 2258.3 1.78707 0.958738 0
M  V30 23720 C 2258.64 0.609757 1.84379 0
M  V30 23721 O 2257.91 -0.391392 1.90521 0
M  V30 23722 C 2258.2 3.11529 1.80614 0
M  V30 23723 C 2258.05 4.39691 0.948251 0
M  V30 23724 C 2259.37 3.40708 2.78579 0
M  V30 23725 H 2256.49 0.650137 0.347118 0
M  V30 23726 H 2259.13 1.88624 0.228226 0
M  V30 23727 H 2257.28 3.03205 2.42897 0
M  V30 23728 H 2258.95 4.60024 0.342936 0
M  V30 23729 H 2257.19 4.3306 0.253237 0
M  V30 23730 H 2257.86 5.29044 1.57533 0
M  V30 23731 H 2260.34 3.49095 2.26433 0
M  V30 23732 H 2259.22 4.34832 3.34981 0
M  V30 23733 H 2259.48 2.62381 3.55821 0
M  V30 23734 N 2258.54 -0.497781 1.49532 0
M  V30 23735 C 2259.78 -1.25355 1.59417 0
M  V30 23736 C 2260.12 -1.9215 0.281455 0
M  V30 23737 O 2259.39 -1.80873 -0.715217 0
M  V30 23738 C 2259.67 -2.31805 2.7557 0
M  V30 23739 C 2259.53 -1.69491 4.16645 0
M  V30 23740 C 2260.85 -3.33341 2.87353 0
M  V30 23741 H 2257.96 -0.454398 0.580252 0
M  V30 23742 H 2260.61 -0.55123 1.81828 0
M  V30 23743 H 2258.76 -2.91707 2.56592 0
M  V30 23744 H 2260.43 -1.13391 4.47147 0
M  V30 23745 H 2258.67 -0.998904 4.22143 0
M  V30 23746 H 2259.34 -2.46717 4.93796 0
M  V30 23747 H 2261.82 -2.83433 3.04639 0
M  V30 23748 H 2260.69 -4.05181 3.70296 0
M  V30 23749 H 2260.96 -3.95861 1.96841 0
M  V30 23750 N 2260.01 -1.38661 -0.749062 0
M  V30 23751 C 2261.24 -1.3816 -1.53608 0
M  V30 23752 C 2261.65 0.0293263 -1.89177 0
M  V30 23753 O 2261 1.00749 -1.53608 0
M  V30 23754 C 2261.06 -2.17707 -2.86083 0
M  V30 23755 C 2260.72 -3.66477 -2.73027 0
M  V30 23756 C 2261.72 -4.5987 -2.42518 0
M  V30 23757 C 2259.4 -4.09889 -2.90338 0
M  V30 23758 C 2261.4 -5.94657 -2.29481 0
M  V30 23759 C 2259.08 -5.44755 -2.76921 0
M  V30 23760 C 2260.08 -6.36953 -2.46536 0
M  V30 23761 O 2259.77 -7.69337 -2.33185 0
M  V30 23762 H 2259.5 -0.474214 -0.481765 0
M  V30 23763 H 2262.06 -1.82914 -0.934433 0
M  V30 23764 H 2260.29 -1.67678 -3.48455 0
M  V30 23765 H 2261.98 -2.09557 -3.47621 0
M  V30 23766 H 2262.74 -4.27635 -2.28808 0
M  V30 23767 H 2258.62 -3.3847 -3.12984 0
M  V30 23768 H 2262.16 -6.66587 -2.05686 0
M  V30 23769 H 2258.06 -5.76586 -2.90205 0
M  V30 23770 H 2258.83 -7.79909 -2.48363 0
M  V30 23771 N 2261.49 0.977736 -1.23605 0
M  V30 23772 C 2262.74 1.72193 -1.07132 0
M  V30 23773 C 2263.07 1.90234 0.390467 0
M  V30 23774 O 2262.35 1.45655 1.28899 0
M  V30 23775 C 2262.63 3.11864 -1.80037 0
M  V30 23776 C 2262.48 3.01377 -3.33904 0
M  V30 23777 C 2263.8 4.11334 -1.56499 0
M  V30 23778 H 2260.92 0.624992 -0.390582 0
M  V30 23779 H 2263.56 1.13808 -1.52144 0
M  V30 23780 H 2261.71 3.61707 -1.41775 0
M  V30 23781 H 2263.39 2.59036 -3.81704 0
M  V30 23782 H 2261.63 2.3782 -3.628 0
M  V30 23783 H 2262.3 4.00278 -3.80107 0
M  V30 23784 H 2264.78 3.70309 -1.89764 0
M  V30 23785 H 2263.65 5.07148 -2.09982 0
M  V30 23786 H 2263.91 4.39253 -0.500951 0
M  V30 23787 N 2262.97 1.04818 1.1769 0
M  V30 23788 C 2263.9 0.590212 2.20435 0
M  V30 23789 C 2264.88 -0.379216 1.58116 0
M  V30 23790 O 2266.07 -0.291729 1.86229 0
M  V30 23791 C 2263.19 -0.136757 3.38424 0
M  V30 23792 C 2262.24 0.787097 4.19174 0
M  V30 23793 S 2263.07 2.27418 4.84811 0
M  V30 23794 C 2264.23 1.55827 6.06192 0
M  V30 23795 H 2264.46 1.46071 2.58941 0
M  V30 23796 H 2261.99 0.859806 1.28245 0
M  V30 23797 H 2263.95 -0.550004 4.06799 0
M  V30 23798 H 2262.61 -0.983246 2.98314 0
M  V30 23799 H 2261.81 0.224769 5.03499 0
M  V30 23800 H 2261.41 1.13954 3.56217 0
M  V30 23801 H 2263.7 0.855505 6.72077 0
M  V30 23802 H 2264.64 2.37885 6.66946 0
M  V30 23803 H 2265.05 1.04732 5.54699 0
M  V30 23804 N 2264.45 -1.34055 0.828678 0
M  V30 23805 C 2265.68 -2.02032 0.432028 0
M  V30 23806 C 2266.09 -1.62537 -0.968412 0
M  V30 23807 O 2265.43 -0.829436 -1.63909 0
M  V30 23808 C 2265.49 -3.56528 0.461287 0
M  V30 23809 C 2265.16 -4.19366 1.81606 0
M  V30 23810 C 2266.15 -4.39472 2.77778 0
M  V30 23811 C 2263.84 -4.56013 2.10612 0
M  V30 23812 C 2265.83 -4.95357 4.01124 0
M  V30 23813 C 2263.52 -5.11608 3.34216 0
M  V30 23814 C 2264.52 -5.31225 4.29289 0
M  V30 23815 O 2264.21 -5.8564 5.50709 0
M  V30 23816 H 2263.94 -0.654026 0.170955 0
M  V30 23817 H 2266.49 -1.72184 1.11991 0
M  V30 23818 H 2264.72 -3.85661 -0.28332 0
M  V30 23819 H 2266.41 -4.05813 0.0838863 0
M  V30 23820 H 2267.18 -4.11518 2.56666 0
M  V30 23821 H 2263.06 -4.40045 1.37409 0
M  V30 23822 H 2266.6 -5.10584 4.75342 0
M  V30 23823 H 2262.5 -5.38991 3.55189 0
M  V30 23824 H 2263.26 -6.04068 5.52308 0
M  V30 23825 N 2265.93 -0.584167 -1.46374 0
M  V30 23826 C 2266.87 0.148246 -2.30323 0
M  V30 23827 C 2267.84 0.882688 -1.40705 0
M  V30 23828 O 2269.03 0.873069 -1.69653 0
M  V30 23829 C 2266.17 1.15501 -3.25198 0
M  V30 23830 C 2265.28 0.423867 -4.29916 0
M  V30 23831 C 2264.42 1.41829 -5.11916 0
M  V30 23832 C 2263.46 0.673629 -6.08382 0
M  V30 23833 N 2262.59 1.61618 -6.83245 0
M  V30 23834 H 2267.43 -0.573695 -2.92426 0
M  V30 23835 H 2264.97 -0.294728 -1.44117 0
M  V30 23836 H 2266.93 1.7516 -3.78649 0
M  V30 23837 H 2265.56 1.84465 -2.64901 0
M  V30 23838 H 2264.61 -0.287781 -3.7931 0
M  V30 23839 H 2265.92 -0.158215 -4.98549 0
M  V30 23840 H 2265.08 2.08763 -5.69652 0
M  V30 23841 H 2263.82 2.0343 -4.43247 0
M  V30 23842 H 2262.82 -0.00948147 -5.49799 0
M  V30 23843 H 2264.05 0.0629888 -6.79071 0
M  V30 23844 H 2261.99 2.22027 -6.17284 0
M  V30 23845 H 2261.91 1.08694 -7.48145 0
M  V30 23846 H 2263.18 2.27583 -7.45538 0
M  V30 23847 N 2267.41 1.54275 -0.322027 0
M  V30 23848 C 2268.34 2.27232 0.537371 0
M  V30 23849 C 2269.32 1.2797 1.12061 0
M  V30 23850 O 2270.5 1.56779 1.14603 0
M  V30 23851 C 2267.63 3.02897 1.69913 0
M  V30 23852 C 2266.59 4.09484 1.24526 0
M  V30 23853 C 2265.91 4.72981 2.49385 0
M  V30 23854 C 2267.21 5.21049 0.361243 0
M  V30 23855 H 2268.91 2.99315 -0.0711932 0
M  V30 23856 H 2266.45 1.43956 -0.0356808 0
M  V30 23857 H 2268.4 3.52666 2.30662 0
M  V30 23858 H 2267.13 2.28429 2.33427 0
M  V30 23859 H 2265.79 3.60597 0.660719 0
M  V30 23860 H 2265.44 3.95129 3.11258 0
M  V30 23861 H 2265.14 5.44979 2.19708 0
M  V30 23862 H 2266.66 5.25523 3.10899 0
M  V30 23863 H 2268.07 5.66584 0.874972 0
M  V30 23864 H 2266.47 5.99894 0.157323 0
M  V30 23865 H 2267.54 4.81069 -0.608304 0
M  V30 23866 N 2268.88 0.0501669 1.5752 0
M  V30 23867 C 2270.13 -0.62384 1.92651 0
M  V30 23868 C 2270.46 -1.7091 0.928441 0
M  V30 23869 O 2269.71 -1.9561 -0.0594181 0
M  V30 23870 C 2270.01 -1.25957 3.34469 0
M  V30 23871 C 2269.68 -0.30261 4.49883 0
M  V30 23872 C 2268.34 -0.039279 4.81184 0
M  V30 23873 C 2270.69 0.353296 5.20001 0
M  V30 23874 C 2268.02 0.88741 5.7995 0
M  V30 23875 C 2270.37 1.26817 6.19758 0
M  V30 23876 C 2269.04 1.54018 6.49488 0
M  V30 23877 H 2268.31 -0.228279 0.704961 0
M  V30 23878 H 2270.95 0.116431 1.91146 0
M  V30 23879 H 2269.26 -2.07509 3.32336 0
M  V30 23880 H 2270.96 -1.788 3.58931 0
M  V30 23881 H 2267.55 -0.518034 4.25458 0
M  V30 23882 H 2271.73 0.162942 4.96032 0
M  V30 23883 H 2266.99 1.10564 6.0132 0
M  V30 23884 H 2271.16 1.78248 6.73202 0
M  V30 23885 H 2268.79 2.25988 7.25833 0
M  V30 23886 N 2270.36 -1.56011 -0.223207 0
M  V30 23887 C 2271.32 -1.91452 -1.26011 0
M  V30 23888 C 2272.32 -0.792961 -1.39888 0
M  V30 23889 O 2273.51 -1.06073 -1.38182 0
M  V30 23890 C 2270.65 -2.16388 -2.63418 0
M  V30 23891 H 2271.84 -2.8419 -0.95791 0
M  V30 23892 H 2269.39 -1.49268 -0.46355 0
M  V30 23893 H 2270.13 -1.26196 -2.98739 0
M  V30 23894 H 2269.91 -2.98092 -2.54723 0
M  V30 23895 H 2271.4 -2.44909 -3.38245 0
M  V30 23896 N 2271.84 0.489844 -1.49794 0
M  V30 23897 C 2273.09 1.24079 -1.59527 0
M  V30 23898 C 2273.41 1.92847 -0.288987 0
M  V30 23899 O 2272.68 1.83256 0.692403 0
M  V30 23900 H 2271.26 0.460973 -0.587804 0
M  V30 23901 H 2273.92 0.566746 -1.86478 0
M  V30 23902 H 2273.02 1.99876 -2.397 0
M  V30 23903 N 2273.32 1.39056 0.741698 0
M  V30 23904 C 2274.27 1.33735 1.84659 0
M  V30 23905 C 2275.25 0.219429 1.59397 0
M  V30 23906 O 2276.44 0.456405 1.71014 0
M  V30 23907 C 2273.57 1.17653 3.2251 0
M  V30 23908 C 2272.66 2.34118 3.53624 0
M  V30 23909 N 2273.05 3.59582 3.55717 0
M  V30 23910 C 2271.35 2.26929 3.83952 0
M  V30 23911 C 2272.05 4.3656 3.84435 0
M  V30 23912 N 2271.02 3.66062 4.0187 0
M  V30 23913 H 2274.83 2.28714 1.84572 0
M  V30 23914 H 2272.34 1.32457 0.939623 0
M  V30 23915 H 2274.34 1.11924 4.01595 0
M  V30 23916 H 2273 0.236181 3.2384 0
M  V30 23917 H 2274.01 3.93095 3.37189 0
M  V30 23918 H 2270.69 1.4112 3.92927 0
M  V30 23919 H 2272.08 5.45281 3.92578 0
M  V30 23920 N 2274.8 -0.971167 1.24121 0
M  V30 23921 C 2275.73 -2.06794 0.988386 0
M  V30 23922 C 2276.74 -1.62749 -0.0409255 0
M  V30 23923 O 2277.93 -1.77424 0.195704 0
M  V30 23924 C 2275.03 -3.35638 0.469082 0
M  V30 23925 C 2274.2 -4.08608 1.56072 0
M  V30 23926 C 2273.26 -5.15726 1.04467 0
M  V30 23927 O 2272.29 -5.42093 1.73563 0
M  V30 23928 N 2273.49 -5.8037 -0.122715 0
M  V30 23929 H 2276.25 -2.29057 1.93269 0
M  V30 23930 H 2273.82 -1.13854 1.15104 0
M  V30 23931 H 2275.81 -4.04554 0.108685 0
M  V30 23932 H 2274.38 -3.10271 -0.380865 0
M  V30 23933 H 2273.6 -3.34018 2.09346 0
M  V30 23934 H 2274.89 -4.54122 2.29457 0
M  V30 23935 H 2274.28 -5.61347 -0.700464 0
M  V30 23936 H 2272.84 -6.50418 -0.42429 0
M  V30 23937 N 2276.27 -1.05441 -1.17133 0
M  V30 23938 C 2277.52 -0.764462 -1.87084 0
M  V30 23939 C 2277.84 0.710755 -1.81585 0
M  V30 23940 O 2277.11 1.51372 -1.24352 0
M  V30 23941 H 2275.69 -0.279791 -0.692622 0
M  V30 23942 H 2278.36 -1.33409 -1.42085 0
M  V30 23943 H 2277.45 -1.08165 -2.92757 0
M  V30 23944 N 2277.75 1.33613 -0.835776 0
M  V30 23945 C 2278.72 2.2758 -0.27204 0
M  V30 23946 C 2279.72 1.50828 0.55746 0
M  V30 23947 O 2280.91 1.70188 0.3717 0
M  V30 23948 C 2278.04 3.35268 0.617114 0
M  V30 23949 H 2279.23 2.78952 -1.10116 0
M  V30 23950 H 2276.78 1.43964 -0.60862 0
M  V30 23951 H 2277.52 2.89131 1.46879 0
M  V30 23952 H 2277.3 3.92093 0.0236377 0
M  V30 23953 H 2278.79 4.05328 1.00493 0
M  V30 23954 N 2279.23 0.591922 1.46062 0
M  V30 23955 C 2280.46 0.0868039 2.06418 0
M  V30 23956 C 2280.87 -1.22748 1.43978 0
M  V30 23957 O 2280.21 -1.75505 0.542562 0
M  V30 23958 C 2280.27 -0.143662 3.59213 0
M  V30 23959 C 2279.94 1.08642 4.43898 0
M  V30 23960 C 2280.93 2.00075 4.7986 0
M  V30 23961 C 2278.62 1.31086 4.84894 0
M  V30 23962 C 2280.61 3.12292 5.55655 0
M  V30 23963 C 2278.3 2.43606 5.60446 0
M  V30 23964 C 2279.3 3.34038 5.95741 0
M  V30 23965 O 2278.99 4.44602 6.69765 0
M  V30 23966 H 2278.72 0.0587566 0.673442 0
M  V30 23967 H 2281.27 0.815027 1.88538 0
M  V30 23968 H 2279.5 -0.926602 3.75434 0
M  V30 23969 H 2281.19 -0.59843 4.01464 0
M  V30 23970 H 2281.96 1.83955 4.4876 0
M  V30 23971 H 2277.84 0.61602 4.56866 0
M  V30 23972 H 2281.38 3.82901 5.83123 0
M  V30 23973 H 2277.28 2.59685 5.9096 0
M  V30 23974 H 2278.05 4.43085 6.88199 0
M  V30 23975 N 2280.71 -1.54102 0.330204 0
M  V30 23976 C 2281.94 -2.05102 -0.272143 0
M  V30 23977 C 2282.35 -1.20597 -1.45264 0
M  V30 23978 O 2281.71 -0.238175 -1.80939 0
M  V30 23979 C 2281.76 -3.54655 -0.700168 0
M  V30 23980 O 2281.48 -4.35951 0.433378 0
M  V30 23981 C 2282.98 -4.21773 -1.36463 0
M  V30 23982 H 2280.2 -0.66875 -0.0549041 0
M  V30 23983 H 2282.75 -1.98827 0.47832 0
M  V30 23984 H 2280.9 -3.61195 -1.40059 0
M  V30 23985 H 2281.31 -5.24414 0.0948461 0
M  V30 23986 H 2282.79 -5.27846 -1.615 0
M  V30 23987 H 2283.27 -3.73296 -2.31402 0
M  V30 23988 H 2283.87 -4.19389 -0.706601 0
M  V30 23989 N 2282.19 -0.0585199 -1.57491 0
M  V30 23990 C 2283.43 0.612402 -1.92598 0
M  V30 23991 C 2283.76 1.70947 -0.938192 0
M  V30 23992 O 2283.03 1.95894 0.0157957 0
M  V30 23993 H 2281.61 0.229201 -0.710968 0
M  V30 23994 H 2284.27 -0.113252 -1.94571 0
M  V30 23995 H 2283.36 1.04628 -2.9404 0
M  V30 23996 N 2283.66 1.56128 0.21493 0
M  V30 23997 C 2284.59 1.95976 1.26947 0
M  V30 23998 C 2285.58 0.828894 1.48537 0
M  V30 23999 O 2286.76 1.09171 1.60609 0
M  V30 24000 C 2283.89 2.28218 2.6179 0
M  V30 24001 C 2282.84 3.43858 2.54845 0
M  V30 24002 C 2282.17 3.61722 3.93778 0
M  V30 24003 C 2283.47 4.78636 2.09057 0
M  V30 24004 H 2285.16 2.84314 0.93841 0
M  V30 24005 H 2282.71 1.36789 0.449972 0
M  V30 24006 H 2284.66 2.54688 3.35726 0
M  V30 24007 H 2283.39 1.36741 2.96596 0
M  V30 24008 H 2282.05 3.17447 1.83365 0
M  V30 24009 H 2281.69 2.6761 4.25904 0
M  V30 24010 H 2281.39 4.39505 3.90012 0
M  V30 24011 H 2282.92 3.90547 4.69367 0
M  V30 24012 H 2284.33 5.04267 2.72741 0
M  V30 24013 H 2282.73 5.59749 2.16336 0
M  V30 24014 H 2283.8 4.73549 1.04306 0
M  V30 24015 N 2285.14 -0.481893 1.50052 0
M  V30 24016 C 2286.55 -1.06303 1.53482 0
M  V30 24017 C 2286.9 -1.9337 0.332031 0
M  V30 24018 O 2286.03 -2.0913 -0.556219 0
M  V30 24019 C 2286.62 -1.93461 2.78133 0
M  V30 24020 C 2285.18 -2.46702 2.8428 0
M  V30 24021 C 2284.33 -1.2478 2.47639 0
M  V30 24022 H 2287.28 -0.264968 1.56472 0
M  V30 24023 H 2287.3 -2.78395 2.59377 0
M  V30 24024 H 2286.81 -1.30065 3.65656 0
M  V30 24025 H 2284.92 -3.13682 2.01082 0
M  V30 24026 H 2285.03 -2.82548 3.86915 0
M  V30 24027 H 2283.39 -1.57915 1.99837 0
M  V30 24028 H 2284.18 -0.630634 3.37458 0
M  V30 24029 N 2286.62 -1.39448 -0.734313 0
M  V30 24030 C 2287.57 -1.38367 -1.86969 0
M  V30 24031 C 2288.56 -0.266717 -1.67287 0
M  V30 24032 O 2289.77 -0.436786 -1.7462 0
M  V30 24033 H 2286.14 -0.432093 -0.615467 0
M  V30 24034 H 2288.11 -2.34135 -1.84996 0
M  V30 24035 C 2286.86 -1.2447 -3.24657 0
M  V30 24036 H 2286.19 -2.09688 -3.40399 0
M  V30 24037 H 2287.63 -1.27771 -4.0429 0
M  V30 24038 C 2286.09 0.0468082 -3.36867 0
M  V30 24039 O 2286.62 1.01675 -3.8862 0
M  V30 24040 N 2284.82 0.110094 -2.90391 0
M  V30 24041 H 2284.37 -0.679912 -2.48465 0
M  V30 24042 H 2284.33 0.973747 -2.98941 0
M  V30 24043 N 2288.1 0.964571 -1.24635 0
M  V30 24044 C 2289.05 2.05966 -1.04148 0
M  V30 24045 C 2290.02 1.66036 0.0462328 0
M  V30 24046 O 2291.2 1.90488 -0.109006 0
M  V30 24047 C 2288.34 3.38814 -0.65569 0
M  V30 24048 C 2287.45 3.9192 -1.81721 0
M  V30 24049 C 2286.59 5.1305 -1.37671 0
M  V30 24050 C 2285.63 5.58361 -2.50798 0
M  V30 24051 N 2284.76 6.70708 -2.07593 0
M  V30 24052 H 2289.6 2.22823 -1.97873 0
M  V30 24053 H 2287.14 1.09206 -0.985519 0
M  V30 24054 H 2289.1 4.1515 -0.413027 0
M  V30 24055 H 2287.73 3.21872 0.24457 0
M  V30 24056 H 2286.78 3.12194 -2.17345 0
M  V30 24057 H 2288.09 4.21504 -2.66712 0
M  V30 24058 H 2287.25 5.96771 -1.09311 0
M  V30 24059 H 2285.99 4.85157 -0.497378 0
M  V30 24060 H 2284.99 4.7321 -2.79914 0
M  V30 24061 H 2286.22 5.88266 -3.39293 0
M  V30 24062 H 2284.16 6.44544 -1.22063 0
M  V30 24063 H 2284.08 6.99758 -2.86137 0
M  V30 24064 H 2285.35 7.57863 -1.82382 0
M  V30 24065 N 2289.58 1.0606 1.16572 0
M  V30 24066 C 2290.99 0.78361 1.39039 0
M  V30 24067 C 2291.19 -0.618111 1.91785 0
M  V30 24068 O 2290.25 -1.37907 2.11513 0
M  V30 24069 C 2291.56 1.84654 2.37326 0
M  V30 24070 C 2293.11 1.86977 2.51015 0
M  V30 24071 C 2293.58 2.92317 3.52583 0
M  V30 24072 N 2295.08 2.91336 3.60108 0
M  V30 24073 C 2295.81 3.6949 4.3848 0
M  V30 24074 N 2295.31 4.57456 5.20294 0
M  V30 24075 N 2297.1 3.57892 4.33439 0
M  V30 24076 H 2289.25 1.96485 0.806691 0
M  V30 24077 H 2291.51 0.851311 0.417102 0
M  V30 24078 H 2291.22 2.85303 2.05658 0
M  V30 24079 H 2291.09 1.69556 3.36943 0
M  V30 24080 H 2293.48 0.869876 2.81988 0
M  V30 24081 H 2293.56 2.06153 1.51442 0
M  V30 24082 H 2293.21 3.92498 3.22348 0
M  V30 24083 H 2293.14 2.70391 4.51881 0
M  V30 24084 H 2295.63 2.27561 3.01703 0
M  V30 24085 H 2295.94 5.13753 5.77302 0
M  V30 24086 H 2294.28 4.61513 5.19645 0
M  V30 24087 H 2297.48 2.88557 3.68581 0
M  V30 24088 H 2297.65 4.19046 4.94272 0
M  V30 24089 N 2291.06 -1.33168 0.84285 0
M  V30 24090 C 2292.47 -1.79972 0.496682 0
M  V30 24091 C 2292.82 -1.69705 -0.984611 0
M  V30 24092 O 2291.94 -1.24866 -1.76741 0
M  V30 24093 C 2292.54 -3.26771 0.894784 0
M  V30 24094 C 2291.1 -3.71576 0.600695 0
M  V30 24095 C 2290.24 -2.54508 1.10095 0
M  V30 24096 H 2293.19 -1.20633 1.03118 0
M  V30 24097 H 2293.22 -3.7994 0.206414 0
M  V30 24098 H 2292.73 -3.34211 1.97293 0
M  V30 24099 H 2290.83 -3.69659 -0.467219 0
M  V30 24100 H 2290.94 -4.64877 1.15872 0
M  V30 24101 H 2289.31 -2.49301 0.521664 0
M  V30 24102 H 2290.09 -2.64709 2.18596 0
M  V30 24103 N 2292.53 -0.599659 -1.45746 0
M  V30 24104 C 2293.48 0.136386 -2.322 0
M  V30 24105 C 2294.48 0.867557 -1.45498 0
M  V30 24106 O 2295.68 0.784022 -1.62028 0
M  V30 24107 H 2292.06 0.0628457 -0.749369 0
M  V30 24108 H 2294.03 -0.611333 -2.92071 0
M  V30 24109 C 2292.78 1.12561 -3.28976 0
M  V30 24110 H 2292.1 0.572414 -3.95681 0
M  V30 24111 H 2293.54 1.6107 -3.92215 0
M  V30 24112 C 2292 2.19518 -2.55565 0
M  V30 24113 O 2292.53 3.27139 -2.33116 0
M  V30 24114 N 2290.73 1.94586 -2.15835 0
M  V30 24115 H 2290.28 1.07074 -2.34292 0
M  V30 24116 H 2290.24 2.66356 -1.67039 0
M  V30 24117 N 2294.01 1.53925 -0.338371 0
M  V30 24118 C 2295.26 2.01125 0.260108 0
M  V30 24119 C 2295.59 1.22592 1.50615 0
M  V30 24120 O 2294.87 0.312147 1.91979 0
M  V30 24121 C 2295.15 3.55408 0.579437 0
M  V30 24122 C 2295 4.44656 -0.678342 0
M  V30 24123 C 2296.32 4.17535 1.39114 0
M  V30 24124 H 2293.44 0.731101 0.0930644 0
M  V30 24125 H 2296.08 1.844 -0.457884 0
M  V30 24126 H 2294.23 3.6979 1.19112 0
M  V30 24127 H 2295.9 4.42119 -1.31639 0
M  V30 24128 H 2294.15 4.13728 -1.30427 0
M  V30 24129 H 2294.82 5.50473 -0.41024 0
M  V30 24130 H 2297.29 4.06818 0.873963 0
M  V30 24131 H 2296.17 5.25568 1.58333 0
M  V30 24132 H 2296.43 3.71819 2.39171 0
M  V30 24133 N 2295.49 0.0668712 1.57458 0
M  V30 24134 C 2296.9 -0.466526 1.80777 0
M  V30 24135 C 2297.25 -1.69949 0.98039 0
M  V30 24136 O 2296.38 -2.1546 0.201479 0
M  V30 24137 C 2296.97 -0.853153 3.27882 0
M  V30 24138 C 2295.53 -1.33144 3.52065 0
M  V30 24139 C 2294.68 -0.314215 2.75514 0
M  V30 24140 H 2297.63 0.292615 1.55979 0
M  V30 24141 H 2297.65 -1.71494 3.39662 0
M  V30 24142 H 2297.16 0.0444121 3.88075 0
M  V30 24143 H 2295.26 -2.24767 2.97171 0
M  V30 24144 H 2295.38 -1.31276 4.60764 0
M  V30 24145 H 2293.74 -0.79045 2.42124 0
M  V30 24146 H 2294.52 0.575537 3.38441 0
M  V30 24147 N 2296.97 -1.56239 -0.206647 0
M  V30 24148 C 2298.2 -1.84042 -0.945313 0
M  V30 24149 C 2298.61 -0.647917 -1.77334 0
M  V30 24150 O 2297.97 0.38348 -1.78426 0
M  V30 24151 C 2298.02 -3.10525 -1.85084 0
M  V30 24152 O 2297.74 -4.25176 -1.05626 0
M  V30 24153 C 2299.24 -3.51423 -2.70216 0
M  V30 24154 H 2296.46 -0.611445 -0.276362 0
M  V30 24155 H 2299 -2.03341 -0.217381 0
M  V30 24156 H 2297.16 -2.93157 -2.53254 0
M  V30 24157 H 2297.57 -4.97126 -1.67229 0
M  V30 24158 H 2299.05 -4.42922 -3.2943 0
M  V30 24159 H 2299.52 -2.7387 -3.43354 0
M  V30 24160 H 2300.13 -3.71282 -2.07436 0
M  V30 24161 N 2298.45 0.473929 -1.50305 0
M  V30 24162 C 2299.69 1.22298 -1.60394 0
M  V30 24163 C 2300.01 1.93153 -0.308445 0
M  V30 24164 O 2301.21 2.69966 -0.288204 0
M  V30 24165 C 2299.67 2.22205 -2.83113 0
M  V30 24166 C 2299.28 1.57166 -4.19527 0
M  V30 24167 C 2301.02 2.9777 -3.02545 0
M  V30 24168 C 2298.93 2.55343 -5.33436 0
M  V30 24169 H 2297.86 0.460169 -0.597294 0
M  V30 24170 H 2300.51 0.493772 -1.76732 0
M  V30 24171 H 2298.89 2.98405 -2.60327 0
M  V30 24172 H 2300.07 0.867744 -4.52556 0
M  V30 24173 H 2298.38 0.938931 -4.05676 0
M  V30 24174 H 2300.98 3.71241 -3.84817 0
M  V30 24175 H 2301.32 3.56989 -2.14161 0
M  V30 24176 H 2301.85 2.28683 -3.25498 0
M  V30 24177 H 2298.59 2.00867 -6.23965 0
M  V30 24178 H 2298.11 3.23895 -5.04829 0
M  V30 24179 H 2299.79 3.1723 -5.63892 0
M  V30 24180 N 2299.92 1.39835 0.726907 0
M  V30 24181 C 2301.34 1.21617 1.03352 0
M  V30 24182 C 2301.54 0.0834153 2.01327 0
M  V30 24183 O 2300.6 -0.562337 2.46159 0
M  V30 24184 C 2301.91 2.55345 1.58806 0
M  V30 24185 C 2303.46 2.6226 1.70847 0
M  V30 24186 C 2303.93 3.96229 2.29709 0
M  V30 24187 N 2305.42 3.97912 2.37109 0
M  V30 24188 C 2306.16 4.9835 2.8361 0
M  V30 24189 N 2305.65 6.09185 3.29947 0
M  V30 24190 N 2307.45 4.85725 2.82892 0
M  V30 24191 H 2299.6 2.12259 0.0772696 0
M  V30 24192 H 2301.86 0.943035 0.0968937 0
M  V30 24193 H 2301.57 3.38828 0.942796 0
M  V30 24194 H 2301.44 2.75636 2.57497 0
M  V30 24195 H 2303.83 1.79156 2.34493 0
M  V30 24196 H 2303.91 2.45811 0.70787 0
M  V30 24197 H 2303.55 4.79768 1.66688 0
M  V30 24198 H 2303.48 4.10003 3.30462 0
M  V30 24199 H 2305.97 3.17871 2.04368 0
M  V30 24200 H 2306.29 6.81726 3.63964 0
M  V30 24201 H 2304.63 6.12767 3.27935 0
M  V30 24202 H 2307.82 3.98236 2.4602 0
M  V30 24203 H 2308 5.64145 3.18817 0
M  V30 24204 N 2301.4 -0.957948 1.25144 0
M  V30 24205 C 2302.36 -2.03567 1.05324 0
M  V30 24206 C 2303.36 -1.60798 0.00718027 0
M  V30 24207 O 2304.55 -1.7241 0.24906 0
M  V30 24208 C 2301.69 -3.35606 0.598453 0
M  V30 24209 H 2302.88 -2.22583 2.0099 0
M  V30 24210 H 2300.43 -1.13457 1.07504 0
M  V30 24211 H 2301.17 -3.22285 -0.360957 0
M  V30 24212 H 2300.95 -3.67995 1.35358 0
M  V30 24213 H 2302.44 -4.14819 0.481113 0
M  V30 24214 N 2302.88 -1.06677 -1.16008 0
M  V30 24215 C 2303.84 -0.685039 -2.18723 0
M  V30 24216 C 2304.84 0.271218 -1.58496 0
M  V30 24217 O 2306.03 0.053085 -1.74119 0
M  V30 24218 C 2303.16 -0.0085964 -3.40899 0
M  V30 24219 H 2304.36 -1.59435 -2.54009 0
M  V30 24220 H 2301.91 -0.862464 -1.3035 0
M  V30 24221 H 2302.65 0.913282 -3.11175 0
M  V30 24222 H 2302.43 -0.696271 -3.85868 0
M  V30 24223 H 2303.92 0.244066 -4.16886 0
M  V30 24224 N 2304.36 1.32719 -0.8499 0
M  V30 24225 C 2305.3 2.28983 -0.289073 0
M  V30 24226 C 2306.27 1.54834 0.601297 0
M  V30 24227 O 2307.46 1.83081 0.537221 0
M  V30 24228 C 2304.6 3.41151 0.520563 0
M  V30 24229 C 2303.71 4.3019 -0.395064 0
M  V30 24230 C 2302.85 5.29483 0.426741 0
M  V30 24231 C 2301.89 6.10163 -0.486583 0
M  V30 24232 N 2301.02 7.01468 0.297755 0
M  V30 24233 H 2305.86 2.76345 -1.11524 0
M  V30 24234 H 2303.4 1.35966 -0.561403 0
M  V30 24235 H 2305.36 4.049 1.00556 0
M  V30 24236 H 2303.99 2.94952 1.3116 0
M  V30 24237 H 2303.04 3.67064 -0.998425 0
M  V30 24238 H 2304.35 4.86605 -1.09621 0
M  V30 24239 H 2303.51 5.98813 0.9751 0
M  V30 24240 H 2302.25 4.73673 1.16127 0
M  V30 24241 H 2301.25 5.39741 -1.04686 0
M  V30 24242 H 2302.48 6.68058 -1.21965 0
M  V30 24243 H 2300.42 6.48093 1.01547 0
M  V30 24244 H 2300.34 7.55215 -0.34445 0
M  V30 24245 H 2301.61 7.7509 0.827994 0
M  V30 24246 N 2305.84 0.60738 1.45426 0
M  V30 24247 C 2307.08 0.102643 2.0254 0
M  V30 24248 C 2307.42 -1.26345 1.47481 0
M  V30 24249 O 2306.69 -1.83338 0.649422 0
M  V30 24250 C 2306.97 0.063498 3.60044 0
M  V30 24251 C 2306.83 1.46024 4.25437 0
M  V30 24252 C 2308.15 -0.624437 4.35648 0
M  V30 24253 H 2305.26 0.0387736 0.735979 0
M  V30 24254 H 2307.91 0.779312 1.73282 0
M  V30 24255 H 2306.06 -0.51274 3.85102 0
M  V30 24256 H 2307.73 2.08355 4.11565 0
M  V30 24257 H 2305.97 2.02101 3.83846 0
M  V30 24258 H 2306.64 1.3851 5.3434 0
M  V30 24259 H 2309.12 -0.13465 4.15882 0
M  V30 24260 H 2307.99 -0.620932 5.45377 0
M  V30 24261 H 2308.26 -1.69048 4.08504 0
M  V30 24262 N 2307.31 -1.53743 0.34653 0
M  V30 24263 C 2308.25 -2.22668 -0.543277 0
M  V30 24264 C 2309.26 -1.23428 -1.06157 0
M  V30 24265 O 2310.45 -1.49766 -0.971208 0
M  V30 24266 C 2307.55 -2.89572 -1.76071 0
M  V30 24267 C 2306.72 -4.15153 -1.3772 0
M  V30 24268 C 2305.78 -4.6544 -2.45463 0
M  V30 24269 O 2304.81 -5.2958 -2.08646 0
M  V30 24270 N 2306.01 -4.41623 -3.76762 0
M  V30 24271 H 2308.77 -2.99663 0.047023 0
M  V30 24272 H 2306.33 -1.60997 0.170795 0
M  V30 24273 H 2308.33 -3.20129 -2.47588 0
M  V30 24274 H 2306.9 -2.16146 -2.25831 0
M  V30 24275 H 2306.12 -3.91109 -0.492678 0
M  V30 24276 H 2307.4 -4.96834 -1.09699 0
M  V30 24277 H 2306.8 -3.90332 -4.0946 0
M  V30 24278 H 2305.36 -4.76777 -4.4444 0
M  V30 24279 N 2308.79 -0.0752207 -1.5742 0
M  V30 24280 C 2310.04 0.59194 -1.93237 0
M  V30 24281 C 2310.36 1.69943 -0.956271 0
M  V30 24282 O 2309.63 1.95899 -0.00498235 0
M  V30 24283 H 2308.21 0.221648 -0.713359 0
M  V30 24284 H 2310.87 -0.133882 -1.9444 0
M  V30 24285 H 2309.97 1.01504 -2.95133 0
M  V30 24286 N 2310.27 1.56347 0.198358 0
M  V30 24287 C 2311.68 1.70382 0.763328 0
M  V30 24288 C 2312.03 0.681236 1.83994 0
M  V30 24289 O 2311.16 -0.163012 2.15785 0
M  V30 24290 C 2311.75 3.08911 1.39137 0
M  V30 24291 C 2310.31 3.24723 1.90347 0
M  V30 24292 C 2309.46 2.66332 0.772187 0
M  V30 24293 H 2312.41 1.58678 -0.0266656 0
M  V30 24294 H 2312.43 3.06059 2.2607 0
M  V30 24295 H 2311.94 3.83315 0.607571 0
M  V30 24296 H 2310.04 2.5523 2.71456 0
M  V30 24297 H 2310.16 4.32194 2.0675 0
M  V30 24298 H 2308.52 2.25422 1.18562 0
M  V30 24299 H 2309.3 3.433 0.000675217 0
M  V30 24300 N 2311.75 -0.465951 1.50554 0
M  V30 24301 C 2313 -1.21525 1.61481 0
M  V30 24302 C 2313.32 -1.92363 0.31963 0
M  V30 24303 O 2312.59 -1.84334 -0.663161 0
M  V30 24304 H 2311.17 -0.451563 0.595063 0
M  V30 24305 H 2313.83 -0.537007 1.87356 0
M  V30 24306 H 2312.93 -1.96038 2.42849 0
M  V30 24307 N 2313.23 -1.40218 -0.719481 0
M  V30 24308 C 2314.47 -1.38285 -1.4793 0
M  V30 24309 C 2314.8 0.0161194 -1.94493 0
M  V30 24310 O 2314.06 0.999926 -1.68226 0
M  V30 24311 C 2314.36 -2.31529 -2.72267 0
M  V30 24312 C 2314.02 -3.78861 -2.4449 0
M  V30 24313 C 2312.68 -4.19002 -2.36624 0
M  V30 24314 C 2315.04 -4.71981 -2.21096 0
M  V30 24315 C 2312.36 -5.50304 -2.03427 0
M  V30 24316 C 2314.72 -6.03577 -1.89413 0
M  V30 24317 C 2313.38 -6.42765 -1.80026 0
M  V30 24318 H 2312.65 -0.506022 -0.541316 0
M  V30 24319 H 2315.3 -1.72843 -0.824472 0
M  V30 24320 H 2313.6 -1.90143 -3.42568 0
M  V30 24321 H 2315.3 -2.27318 -3.30344 0
M  V30 24322 H 2311.89 -3.47055 -2.51497 0
M  V30 24323 H 2316.07 -4.4179 -2.26131 0
M  V30 24324 H 2311.33 -5.79572 -1.94695 0
M  V30 24325 H 2315.5 -6.7525 -1.70324 0
M  V30 24326 H 2313.13 -7.44424 -1.5407 0
M  V30 24327 N 2314.7 0.951297 -1.25651 0
M  V30 24328 C 2315.98 1.67286 -1.01364 0
M  V30 24329 C 2316.36 2.06047 0.459099 0
M  V30 24330 O 2315.71 1.77642 1.4372 0
M  V30 24331 C 2315.92 2.89264 -1.95262 0
M  V30 24332 C 2317.27 3.61143 -2.23296 0
M  V30 24333 O 2318.29 2.99352 -1.93046 0
M  V30 24334 O 2317.15 4.72414 -2.74749 0
M  V30 24335 H 2314.24 0.7321 -0.384653 0
M  V30 24336 H 2316.79 1.00393 -1.36819 0
M  V30 24337 H 2315.56 2.57437 -2.9469 0
M  V30 24338 H 2315.19 3.63887 -1.60224 0
M  V30 24339 N 2316.18 1.07291 1.1544 0
M  V30 24340 C 2317.41 0.815609 1.89819 0
M  V30 24341 C 2317.82 -0.634836 1.78232 0
M  V30 24342 O 2317.16 -1.44713 1.13154 0
M  V30 24343 C 2317.23 1.14391 3.40815 0
M  V30 24344 C 2316.89 2.59482 3.76189 0
M  V30 24345 C 2317.89 3.57727 3.77263 0
M  V30 24346 C 2315.57 2.95044 4.06515 0
M  V30 24347 C 2317.57 4.89569 4.08168 0
M  V30 24348 C 2315.25 4.27083 4.37085 0
M  V30 24349 C 2316.25 5.24156 4.37893 0
M  V30 24350 O 2315.94 6.53823 4.67729 0
M  V30 24351 H 2315.67 0.294539 0.608459 0
M  V30 24352 H 2318.22 1.43255 1.47198 0
M  V30 24353 H 2316.45 0.469933 3.83834 0
M  V30 24354 H 2318.14 0.869248 3.96483 0
M  V30 24355 H 2318.91 3.31596 3.53934 0
M  V30 24356 H 2314.79 2.20135 4.05045 0
M  V30 24357 H 2318.33 5.65331 4.08713 0
M  V30 24358 H 2314.23 4.52968 4.59881 0
M  V30 24359 H 2315 6.58965 4.85497 0
M  V30 24360 N 2317.66 -1.32267 0.856927 0
M  V30 24361 C 2318.62 -2.27118 0.308211 0
M  V30 24362 C 2319.62 -1.51696 -0.533394 0
M  V30 24363 O 2320.81 -1.70758 -0.344577 0
M  V30 24364 C 2317.95 -3.36207 -0.563698 0
M  V30 24365 H 2319.14 -2.77165 1.1454 0
M  V30 24366 H 2316.69 -1.42977 0.631446 0
M  V30 24367 H 2317.43 -2.91432 -1.42261 0
M  V30 24368 H 2317.21 -3.92081 0.0387439 0
M  V30 24369 H 2318.7 -4.06876 -0.940315 0
M  V30 24370 N 2319.14 -0.615084 -1.45102 0
M  V30 24371 C 2320.38 -0.113382 -2.02483 0
M  V30 24372 C 2320.72 1.25561 -1.48149 0
M  V30 24373 O 2319.99 1.82991 -0.659136 0
M  V30 24374 C 2320.28 -0.0825911 -3.60005 0
M  V30 24375 C 2320.13 -1.48279 -4.24657 0
M  V30 24376 C 2321.45 0.601325 -4.35973 0
M  V30 24377 H 2318.57 -0.0426761 -0.735763 0
M  V30 24378 H 2321.21 -0.788491 -1.72866 0
M  V30 24379 H 2319.36 0.49231 -3.85368 0
M  V30 24380 H 2321.03 -2.10534 -4.10455 0
M  V30 24381 H 2319.27 -2.04134 -3.82769 0
M  V30 24382 H 2319.94 -1.41342 -5.33598 0
M  V30 24383 H 2322.42 0.112593 -4.15948 0
M  V30 24384 H 2321.3 0.592001 -5.45698 0
M  V30 24385 H 2321.56 1.66879 -4.09394 0
M  V30 24386 N 2320.62 1.53557 -0.354678 0
M  V30 24387 C 2321.58 2.2402 0.484526 0
M  V30 24388 C 2322.58 1.24424 1.01859 0
M  V30 24389 O 2323.77 1.48782 0.906071 0
M  V30 24390 C 2320.9 2.9685 1.6761 0
M  V30 24391 H 2322.1 2.9961 -0.131895 0
M  V30 24392 H 2319.65 1.55939 -0.106193 0
M  V30 24393 H 2320.38 2.25475 2.33091 0
M  V30 24394 H 2320.17 3.69914 1.30023 0
M  V30 24395 H 2321.66 3.50445 2.27108 0
M  V30 24396 N 2322.1 0.083568 1.57378 0
M  V30 24397 C 2323.03 -0.915796 2.09018 0
M  V30 24398 C 2324.01 -1.28368 0.998015 0
M  V30 24399 O 2325.19 -1.39094 1.27221 0
M  V30 24400 C 2322.32 -2.22045 2.55761 0
M  V30 24401 C 2321.36 -2.00327 3.76526 0
M  V30 24402 S 2322.2 -1.25182 5.20663 0
M  V30 24403 C 2323.35 -2.56902 5.70747 0
M  V30 24404 H 2323.59 -0.47644 2.93458 0
M  V30 24405 H 2321.12 -0.129466 1.53856 0
M  V30 24406 H 2323.08 -2.97022 2.83351 0
M  V30 24407 H 2321.74 -2.63103 1.71568 0
M  V30 24408 H 2320.93 -2.96908 4.07261 0
M  V30 24409 H 2320.53 -1.33481 3.49369 0
M  V30 24410 H 2322.82 -3.52936 5.7831 0
M  V30 24411 H 2323.77 -2.30761 6.69444 0
M  V30 24412 H 2324.18 -2.64647 4.98621 0
M  V30 24413 N 2323.57 -1.5645 -0.190064 0
M  V30 24414 C 2324.54 -1.94082 -1.21921 0
M  V30 24415 C 2325.54 -0.822455 -1.38175 0
M  V30 24416 O 2326.73 -1.0898 -1.35901 0
M  V30 24417 C 2323.86 -2.21926 -2.58769 0
M  V30 24418 H 2325.05 -2.86158 -0.897413 0
M  V30 24419 H 2322.6 -1.50218 -0.431784 0
M  V30 24420 H 2323.34 -1.32504 -2.95995 0
M  V30 24421 H 2323.12 -3.03428 -2.48342 0
M  V30 24422 H 2324.61 -2.52028 -3.32974 0
M  V30 24423 N 2325.05 0.45796 -1.50799 0
M  V30 24424 C 2326 1.55427 -1.70619 0
M  V30 24425 C 2326.97 1.56814 -0.54759 0
M  V30 24426 O 2328.15 1.74143 -0.779678 0
M  V30 24427 C 2325.29 2.93308 -1.81836 0
M  V30 24428 C 2324.41 3.01609 -3.09283 0
M  V30 24429 C 2323.54 4.30485 -3.11217 0
M  V30 24430 C 2322.58 4.32577 -4.33063 0
M  V30 24431 N 2321.72 5.52945 -4.32662 0
M  V30 24432 H 2326.56 1.37831 -2.64209 0
M  V30 24433 H 2324.09 0.669914 -1.3096 0
M  V30 24434 H 2326.05 3.73283 -1.86321 0
M  V30 24435 H 2324.68 3.09509 -0.916739 0
M  V30 24436 H 2323.73 2.14425 -3.14207 0
M  V30 24437 H 2325.05 2.99015 -3.99239 0
M  V30 24438 H 2324.2 5.18819 -3.14503 0
M  V30 24439 H 2322.94 4.35707 -2.19114 0
M  V30 24440 H 2321.94 3.42639 -4.29975 0
M  V30 24441 H 2323.17 4.29036 -5.26407 0
M  V30 24442 H 2321.12 5.58927 -3.43419 0
M  V30 24443 H 2321.03 5.52146 -5.16402 0
M  V30 24444 H 2322.3 6.43367 -4.40113 0
M  V30 24445 N 2326.53 1.40598 0.712035 0
M  V30 24446 C 2327.95 1.22706 1.02056 0
M  V30 24447 C 2328.15 0.104764 2.01227 0
M  V30 24448 O 2327.2 -0.536197 2.46741 0
M  V30 24449 C 2328.51 2.57015 1.56089 0
M  V30 24450 C 2330.06 2.64057 1.68056 0
M  V30 24451 C 2330.54 3.98644 2.25494 0
M  V30 24452 N 2332.03 4.00404 2.32875 0
M  V30 24453 C 2332.76 5.0133 2.78308 0
M  V30 24454 N 2332.26 6.1265 3.23468 0
M  V30 24455 N 2334.05 4.88698 2.77725 0
M  V30 24456 H 2326.2 2.12329 0.0547523 0
M  V30 24457 H 2328.47 0.94401 0.0868861 0
M  V30 24458 H 2328.17 3.39809 0.906806 0
M  V30 24459 H 2328.05 2.78352 2.54559 0
M  V30 24460 H 2330.43 1.81633 2.3258 0
M  V30 24461 H 2330.51 2.46548 0.681759 0
M  V30 24462 H 2330.16 4.81509 1.6159 0
M  V30 24463 H 2330.09 4.13485 3.26094 0
M  V30 24464 H 2332.58 3.20021 2.00985 0
M  V30 24465 H 2332.89 6.85548 3.56713 0
M  V30 24466 H 2331.24 6.16211 3.21418 0
M  V30 24467 H 2334.43 4.00823 2.41783 0
M  V30 24468 H 2334.6 5.67495 3.12816 0
M  V30 24469 N 2328.01 -0.94462 1.26153 0
M  V30 24470 C 2328.96 -2.06415 1.07218 0
M  V30 24471 C 2329.95 -1.694 0.000121783 0
M  V30 24472 O 2331.16 -1.79318 0.156531 0
M  V30 24473 H 2327.53 -0.675799 0.329849 0
M  V30 24474 H 2329.5 -2.19538 2.02103 0
M  V30 24475 C 2328.25 -3.402 0.718257 0
M  V30 24476 H 2327.57 -3.69157 1.53504 0
M  V30 24477 H 2329.01 -4.1936 0.625533 0
M  V30 24478 C 2327.47 -3.31933 -0.576376 0
M  V30 24479 O 2328 -3.67776 -1.61567 0
M  V30 24480 N 2326.21 -2.8504 -0.565731 0
M  V30 24481 H 2325.76 -2.56069 0.280412 0
M  V30 24482 H 2325.71 -2.79891 -1.43208 0
M  V30 24483 N 2329.49 -1.07901 -1.1487 0
M  V30 24484 C 2330.73 -0.800531 -1.85133 0
M  V30 24485 C 2331.05 0.675982 -1.83548 0
M  V30 24486 O 2332.25 1.06944 -2.4955 0
M  V30 24487 C 2330.71 -1.38203 -3.32307 0
M  V30 24488 C 2330.32 -2.88996 -3.42323 0
M  V30 24489 C 2332.06 -1.18181 -4.07717 0
M  V30 24490 C 2329.97 -3.40309 -4.83678 0
M  V30 24491 H 2328.9 -0.295792 -0.693558 0
M  V30 24492 H 2331.55 -1.29978 -1.29529 0
M  V30 24493 H 2329.93 -0.8105 -3.87617 0
M  V30 24494 H 2331.11 -3.52241 -2.97091 0
M  V30 24495 H 2329.42 -3.07872 -2.80364 0
M  V30 24496 H 2332.02 -1.53989 -5.12046 0
M  V30 24497 H 2332.36 -0.121244 -4.16123 0
M  V30 24498 H 2332.89 -1.72 -3.58693 0
M  V30 24499 H 2329.63 -4.45916 -4.80458 0
M  V30 24500 H 2329.15 -2.8182 -5.29469 0
M  V30 24501 H 2330.83 -3.36593 -5.52552 0
M  V30 24502 N 2330.96 1.31811 -0.863929 0
M  V30 24503 C 2332.21 1.97217 -0.47257 0
M  V30 24504 C 2332.54 1.68161 0.971364 0
M  V30 24505 O 2331.82 0.974827 1.68307 0
M  V30 24506 C 2332.1 3.52765 -0.723116 0
M  V30 24507 C 2331.95 3.91417 -2.21614 0
M  V30 24508 C 2333.27 4.39708 -0.185599 0
M  V30 24509 H 2330.39 0.716366 -0.173171 0
M  V30 24510 H 2333.03 1.56039 -1.08406 0
M  V30 24511 H 2331.18 3.87971 -0.202645 0
M  V30 24512 H 2332.86 3.66343 -2.80341 0
M  V30 24513 H 2331.1 3.40241 -2.69106 0
M  V30 24514 H 2331.77 4.99849 -2.34212 0
M  V30 24515 H 2334.25 4.11291 -0.630798 0
M  V30 24516 H 2333.12 5.4751 -0.390402 0
M  V30 24517 H 2333.38 4.32588 0.912153 0
M  V30 24518 N 2332.44 0.62277 1.44773 0
M  V30 24519 C 2333.67 0.130758 2.06486 0
M  V30 24520 C 2334.08 -1.19121 1.46478 0
M  V30 24521 O 2333.44 -1.72886 0.584532 0
M  V30 24522 C 2333.49 0.00087075 3.615 0
M  V30 24523 O 2333.21 1.27055 4.19272 0
M  V30 24524 C 2334.71 -0.520821 4.4023 0
M  V30 24525 H 2331.93 0.0758223 0.666702 0
M  V30 24526 H 2334.48 0.854807 1.85778 0
M  V30 24527 H 2332.63 -0.673576 3.81499 0
M  V30 24528 H 2333.05 1.10999 5.1262 0
M  V30 24529 H 2334.52 -0.560741 5.49145 0
M  V30 24530 H 2335 -1.5462 4.11083 0
M  V30 24531 H 2335.6 0.120092 4.2513 0
M  V30 24532 N 2333.92 -1.53367 0.362817 0
M  V30 24533 C 2334.88 -2.24274 -0.472639 0
M  V30 24534 C 2335.88 -1.24963 -1.01198 0
M  V30 24535 O 2337.07 -1.4926 -0.898168 0
M  V30 24536 C 2334.2 -2.97734 -1.66034 0
M  V30 24537 H 2335.4 -2.99536 0.147782 0
M  V30 24538 H 2332.95 -1.5588 0.114461 0
M  V30 24539 H 2333.69 -2.26708 -2.31892 0
M  V30 24540 H 2333.47 -3.70598 -1.28059 0
M  V30 24541 H 2334.96 -3.51645 -2.25246 0
M  V30 24542 N 2335.4 -0.091913 -1.57332 0
M  V30 24543 C 2336.63 0.581013 -1.98575 0
M  V30 24544 C 2337.04 1.61921 -0.970931 0
M  V30 24545 O 2336.4 1.82456 0.0398733 0
M  V30 24546 C 2336.45 1.23158 -3.39874 0
M  V30 24547 O 2336.17 0.234912 -4.3747 0
M  V30 24548 C 2337.67 1.99042 -3.96103 0
M  V30 24549 H 2334.89 0.156007 -0.652612 0
M  V30 24550 H 2337.44 -0.170261 -2.0379 0
M  V30 24551 H 2335.59 1.9338 -3.35683 0
M  V30 24552 H 2336 0.704089 -5.19753 0
M  V30 24553 H 2337.48 2.39925 -4.97132 0
M  V30 24554 H 2337.96 2.85501 -3.33745 0
M  V30 24555 H 2338.56 1.33642 -4.03757 0
M  V30 24556 N 2336.88 1.56548 0.181765 0
M  V30 24557 C 2338.1 1.85523 0.915914 0
M  V30 24558 C 2338.52 0.676047 1.76281 0
M  V30 24559 O 2337.88 -0.355045 1.79013 0
M  V30 24560 C 2337.93 3.13431 1.80121 0
M  V30 24561 O 2337.65 4.26803 0.988487 0
M  V30 24562 C 2339.15 3.55678 2.64591 0
M  V30 24563 H 2336.37 0.615765 0.266599 0
M  V30 24564 H 2338.91 2.03661 0.185004 0
M  V30 24565 H 2337.07 2.97149 2.48558 0
M  V30 24566 H 2337.48 4.99724 1.59299 0
M  V30 24567 H 2338.96 4.48107 3.22342 0
M  V30 24568 H 2339.43 2.79298 3.38953 0
M  V30 24569 H 2340.04 3.74535 2.01503 0
M  V30 24570 N 2338.35 -0.449957 1.5104 0
M  V30 24571 C 2339.58 -1.2278 1.67152 0
M  V30 24572 C 2340 -1.84562 0.363114 0
M  V30 24573 O 2339.36 -1.6825 -0.675403 0
M  V30 24574 C 2339.41 -2.29684 2.77989 0
M  V30 24575 O 2338.51 -3.3486 2.40713 0
M  V30 24576 H 2337.86 -0.360289 0.557753 0
M  V30 24577 H 2340.39 -0.532971 1.97536 0
M  V30 24578 H 2340.4 -2.74667 3.01698 0
M  V30 24579 H 2339.07 -1.84091 3.72939 0
M  V30 24580 H 2337.65 -2.95441 2.27529 0
M  V30 24581 N 2339.83 -1.40974 -0.704569 0
M  V30 24582 C 2340.78 -1.42112 -1.8186 0
M  V30 24583 C 2341.75 -0.276622 -1.6378 0
M  V30 24584 O 2342.93 -0.476332 -1.84759 0
M  V30 24585 C 2340.07 -1.30027 -3.19667 0
M  V30 24586 C 2339.19 -2.54273 -3.49241 0
M  V30 24587 C 2338.32 -2.34548 -4.76614 0
M  V30 24588 C 2337.36 -3.54315 -4.99127 0
M  V30 24589 N 2336.5 -3.33717 -6.1772 0
M  V30 24590 H 2341.34 -2.37327 -1.80222 0
M  V30 24591 H 2338.88 -1.17858 -0.880217 0
M  V30 24592 H 2340.83 -1.21025 -3.9926 0
M  V30 24593 H 2339.46 -0.384248 -3.20505 0
M  V30 24594 H 2338.52 -2.7376 -2.6412 0
M  V30 24595 H 2339.83 -3.43388 -3.61782 0
M  V30 24596 H 2338.98 -2.22962 -5.64245 0
M  V30 24597 H 2337.72 -1.42875 -4.66302 0
M  V30 24598 H 2336.73 -3.66366 -4.09947 0
M  V30 24599 H 2337.95 -4.46929 -5.11303 0
M  V30 24600 H 2335.9 -2.44736 -6.08638 0
M  V30 24601 H 2335.81 -4.16403 -6.30987 0
M  V30 24602 H 2337.08 -3.25885 -7.0811 0
M  V30 24603 N 2341.31 0.937917 -1.26653 0
M  V30 24604 C 2342.56 1.68116 -1.12168 0
M  V30 24605 C 2342.88 1.92102 0.334949 0
M  V30 24606 O 2342.15 1.52003 1.2358 0
M  V30 24607 H 2340.73 0.623041 -0.412104 0
M  V30 24608 H 2343.39 1.12675 -1.59029 0
M  V30 24609 H 2342.49 2.65357 -1.64293 0
M  V30 24610 N 2342.79 1.08509 1.14296 0
M  V30 24611 C 2343.7 0.727792 2.23025 0
M  V30 24612 C 2344.71 -0.26616 1.71952 0
M  V30 24613 O 2345.89 -0.109846 2.011 0
M  V30 24614 C 2342.96 0.143602 3.46402 0
M  V30 24615 C 2342.02 1.1923 4.12411 0
M  V30 24616 C 2341.25 0.635892 5.29898 0
M  V30 24617 O 2341.47 -0.544293 5.67797 0
M  V30 24618 O 2340.41 1.38644 5.85714 0
M  V30 24619 H 2344.23 1.63485 2.55942 0
M  V30 24620 H 2341.82 0.858839 1.22247 0
M  V30 24621 H 2343.7 -0.17933 4.21018 0
M  V30 24622 H 2342.37 -0.736603 3.15208 0
M  V30 24623 H 2341.28 1.56778 3.39664 0
M  V30 24624 H 2342.61 2.04482 4.47714 0
M  V30 24625 N 2344.27 -1.31351 0.870907 0
M  V30 24626 C 2345.51 -1.96672 0.482307 0
M  V30 24627 C 2345.84 -1.68838 -0.965608 0
M  V30 24628 O 2345.1 -0.977967 -1.69512 0
M  V30 24629 C 2345.4 -3.50731 0.687219 0
M  V30 24630 C 2345.06 -3.98587 2.10807 0
M  V30 24631 C 2343.72 -4.11366 2.49663 0
M  V30 24632 C 2346.08 -4.23742 3.03466 0
M  V30 24633 C 2343.4 -4.46652 3.80419 0
M  V30 24634 C 2345.76 -4.60493 4.33738 0
M  V30 24635 C 2344.42 -4.71479 4.72508 0
M  V30 24636 H 2343.69 -0.719675 0.176489 0
M  V30 24637 H 2346.34 -1.56469 1.10407 0
M  V30 24638 H 2344.64 -3.91796 -0.0176787 0
M  V30 24639 H 2346.34 -3.99323 0.366355 0
M  V30 24640 H 2342.93 -3.89137 1.79639 0
M  V30 24641 H 2347.11 -4.13363 2.74672 0
M  V30 24642 H 2342.37 -4.53355 4.10218 0
M  V30 24643 H 2346.54 -4.7891 5.05587 0
M  V30 24644 H 2344.17 -4.98577 5.73868 0
M  V30 24645 N 2345.74 -0.630439 -1.44441 0
M  V30 24646 C 2346.97 -0.141707 -2.06414 0
M  V30 24647 C 2347.39 1.18342 -1.47107 0
M  V30 24648 O 2346.74 1.72573 -0.593692 0
M  V30 24649 C 2346.8 -0.020042 -3.61494 0
M  V30 24650 O 2346.52 -1.29277 -4.18592 0
M  V30 24651 C 2348.02 0.497467 -4.405 0
M  V30 24652 H 2345.24 -0.0793569 -0.666291 0
M  V30 24653 H 2347.78 -0.864647 -1.85322 0
M  V30 24654 H 2345.94 0.653335 -3.81851 0
M  V30 24655 H 2346.35 -1.13716 -5.12024 0
M  V30 24656 H 2347.82 0.531611 -5.49434 0
M  V30 24657 H 2348.3 1.52438 -4.11897 0
M  V30 24658 H 2348.91 -0.142636 -4.25061 0
M  V30 24659 N 2347.22 1.53172 -0.370945 0
M  V30 24660 C 2348.16 2.22274 0.516688 0
M  V30 24661 C 2349.13 1.21663 1.07874 0
M  V30 24662 O 2350.32 1.50585 1.13386 0
M  V30 24663 C 2347.44 2.92164 1.71341 0
M  V30 24664 C 2346.49 4.06893 1.27831 0
M  V30 24665 S 2347.32 5.34793 0.275123 0
M  V30 24666 C 2348.48 6.08198 1.47805 0
M  V30 24667 H 2348.71 2.97217 -0.0701577 0
M  V30 24668 H 2346.25 1.53619 -0.155065 0
M  V30 24669 H 2348.2 3.33045 2.39982 0
M  V30 24670 H 2346.86 2.16935 2.27152 0
M  V30 24671 H 2346.06 4.54829 2.17133 0
M  V30 24672 H 2345.66 3.67931 0.671041 0
M  V30 24673 H 2347.95 6.33255 2.4082 0
M  V30 24674 H 2348.89 7.00422 1.03996 0
M  V30 24675 H 2349.3 5.38717 1.68654 0
M  V30 24676 N 2348.7 0.100255 1.57281 0
M  V30 24677 C 2349.63 -0.853819 2.1733 0
M  V30 24678 C 2350.61 -1.29058 1.10806 0
M  V30 24679 O 2351.8 -1.35655 1.38966 0
M  V30 24680 C 2348.93 -2.11104 2.75776 0
M  V30 24681 C 2347.88 -1.81273 3.87717 0
M  V30 24682 C 2347.21 -3.13867 4.32888 0
M  V30 24683 C 2348.51 -1.09565 5.10679 0
M  V30 24684 H 2350.2 -0.353493 2.97306 0
M  V30 24685 H 2347.75 -0.168587 1.4301 0
M  V30 24686 H 2349.7 -2.7829 3.16437 0
M  V30 24687 H 2348.42 -2.63429 1.93061 0
M  V30 24688 H 2347.08 -1.16483 3.47602 0
M  V30 24689 H 2346.73 -3.64089 3.47057 0
M  V30 24690 H 2346.43 -2.94687 5.08363 0
M  V30 24691 H 2347.95 -3.82202 4.76187 0
M  V30 24692 H 2349.37 -1.66869 5.48477 0
M  V30 24693 H 2347.77 -1.00546 5.91617 0
M  V30 24694 H 2348.84 -0.0792447 4.84835 0
M  V30 24695 N 2350.18 -1.56643 -0.17346 0
M  V30 24696 C 2351.43 -1.81513 -0.888674 0
M  V30 24697 C 2351.75 -0.676904 -1.82874 0
M  V30 24698 O 2351.02 0.30338 -1.93537 0
M  V30 24699 H 2349.6 -0.669588 -0.331152 0
M  V30 24700 H 2352.26 -1.94124 -0.173789 0
M  V30 24701 H 2351.36 -2.75481 -1.46686 0
M  V30 24702 N 2351.66 0.44194 -1.51277 0
M  V30 24703 C 2352.9 1.19352 -1.6396 0
M  V30 24704 C 2353.24 1.90973 -0.352577 0
M  V30 24705 O 2352.51 1.83402 0.647595 0
M  V30 24706 C 2352.79 2.21417 -2.83983 0
M  V30 24707 C 2352.65 1.5391 -4.22648 0
M  V30 24708 C 2353.97 3.22446 -2.99527 0
M  V30 24709 H 2351.09 0.432549 -0.596716 0
M  V30 24710 H 2353.73 0.483366 -1.83749 0
M  V30 24711 H 2351.88 2.81982 -2.67242 0
M  V30 24712 H 2353.55 0.967177 -4.51047 0
M  V30 24713 H 2351.79 0.84154 -4.25559 0
M  V30 24714 H 2352.46 2.2822 -5.02613 0
M  V30 24715 H 2354.94 2.71931 -3.14949 0
M  V30 24716 H 2353.82 3.91159 -3.85079 0
M  V30 24717 H 2354.08 3.88283 -2.11397 0
M  V30 24718 N 2353.14 1.41345 0.697083 0
M  V30 24719 C 2354.09 1.39542 1.80311 0
M  V30 24720 C 2355.07 0.270029 1.58618 0
M  V30 24721 O 2356.26 0.510581 1.69476 0
M  V30 24722 C 2353.39 1.27854 3.18604 0
M  V30 24723 C 2352.48 2.4525 3.45996 0
M  V30 24724 N 2352.87 3.70717 3.44097 0
M  V30 24725 C 2351.17 2.3903 3.76538 0
M  V30 24726 C 2351.87 4.48569 3.70352 0
M  V30 24727 N 2350.84 3.78662 3.90021 0
M  V30 24728 H 2354.64 2.34471 1.77202 0
M  V30 24729 H 2352.16 1.35379 0.897008 0
M  V30 24730 H 2354.16 1.24644 3.97831 0
M  V30 24731 H 2352.82 0.339089 3.22925 0
M  V30 24732 H 2353.83 4.03624 3.24513 0
M  V30 24733 H 2350.5 1.53549 3.88238 0
M  V30 24734 H 2351.89 5.57495 3.75032 0
M  V30 24735 N 2354.61 -0.931187 1.27148 0
M  V30 24736 C 2355.89 -1.65653 1.04012 0
M  V30 24737 C 2356.27 -2.06752 -0.426261 0
M  V30 24738 O 2355.62 -1.79906 -1.40876 0
M  V30 24739 C 2355.83 -2.86121 1.99839 0
M  V30 24740 C 2357.18 -3.57545 2.29013 0
M  V30 24741 O 2358.2 -2.96243 1.97784 0
M  V30 24742 O 2357.06 -4.67984 2.8223 0
M  V30 24743 H 2354.15 -0.725888 0.396252 0
M  V30 24744 H 2356.7 -0.982032 1.38399 0
M  V30 24745 H 2355.47 -2.52716 2.98748 0
M  V30 24746 H 2355.09 -3.61292 1.65993 0
M  V30 24747 N 2356.09 -1.09114 -1.13719 0
M  V30 24748 C 2357.04 -0.722258 -2.21102 0
M  V30 24749 C 2358.03 0.275344 -1.67147 0
M  V30 24750 O 2359.24 0.137144 -1.79477 0
M  V30 24751 H 2355.61 -0.215565 -0.720441 0
M  V30 24752 H 2357.59 -1.63714 -2.4948 0
M  V30 24753 C 2356.33 -0.155491 -3.47352 0
M  V30 24754 H 2355.66 -0.914314 -3.89205 0
M  V30 24755 H 2357.1 0.0647221 -4.23951 0
M  V30 24756 C 2355.56 1.10847 -3.18142 0
M  V30 24757 O 2356.09 2.19221 -3.36608 0
M  V30 24758 N 2354.29 1.02171 -2.72047 0
M  V30 24759 H 2353.84 0.139719 -2.57221 0
M  V30 24760 H 2353.8 1.86815 -2.52878 0
M  V30 24761 N 2357.57 1.30887 -0.877861 0
M  V30 24762 C 2358.82 1.96705 -0.49346 0
M  V30 24763 C 2359.15 1.69182 0.953474 0
M  V30 24764 O 2358.42 0.992624 1.67264 0
M  V30 24765 C 2358.71 3.51978 -0.760491 0
M  V30 24766 C 2358.56 3.89044 -2.25753 0
M  V30 24767 C 2359.88 4.39487 -0.232226 0
M  V30 24768 H 2357 0.714489 -0.180759 0
M  V30 24769 H 2359.64 1.5488 -1.10055 0
M  V30 24770 H 2357.79 3.87734 -0.243783 0
M  V30 24771 H 2359.46 3.63349 -2.8421 0
M  V30 24772 H 2357.7 3.37368 -2.727 0
M  V30 24773 H 2358.38 4.97337 -2.395 0
M  V30 24774 H 2360.85 4.10599 -0.674386 0
M  V30 24775 H 2359.73 5.47065 -0.448451 0
M  V30 24776 H 2359.99 4.33531 0.86622 0
M  V30 24777 N 2359.05 0.638091 1.44105 0
M  V30 24778 C 2360.01 -0.053061 2.29139 0
M  V30 24779 C 2361.01 -0.765481 1.41411 0
M  V30 24780 O 2362.2 -0.609017 1.63207 0
M  V30 24781 C 2359.33 -1.08579 3.23146 0
M  V30 24782 H 2360.53 0.694934 2.91737 0
M  V30 24783 H 2358.08 0.398565 1.51133 0
M  V30 24784 H 2358.81 -1.86353 2.65411 0
M  V30 24785 H 2358.6 -0.578784 3.87805 0
M  V30 24786 H 2360.09 -1.56893 3.87007 0
M  V30 24787 N 2360.53 -1.52973 0.379063 0
M  V30 24788 C 2361.77 -2.00629 -0.207577 0
M  V30 24789 C 2362.09 -1.27008 -1.48756 0
M  V30 24790 O 2363.29 -1.65322 -2.15362 0
M  V30 24791 C 2361.75 -3.57435 -0.420467 0
M  V30 24792 C 2361.36 -4.39946 0.845664 0
M  V30 24793 C 2363.1 -4.13409 -0.964029 0
M  V30 24794 C 2361.01 -5.88332 0.601616 0
M  V30 24795 H 2359.94 -0.749599 -0.0813459 0
M  V30 24796 H 2362.59 -1.7656 0.499884 0
M  V30 24797 H 2360.97 -3.77712 -1.18952 0
M  V30 24798 H 2362.15 -4.31439 1.61855 0
M  V30 24799 H 2360.46 -3.95143 1.31343 0
M  V30 24800 H 2363.06 -5.21918 -1.16216 0
M  V30 24801 H 2363.4 -3.68852 -1.93012 0
M  V30 24802 H 2363.93 -3.96983 -0.2548 0
M  V30 24803 H 2360.67 -6.37191 1.53842 0
M  V30 24804 H 2360.19 -5.99654 -0.132523 0
M  V30 24805 H 2361.87 -6.46583 0.232247 0
M  V30 24806 N 2362 -0.108595 -1.57225 0
M  V30 24807 C 2362.93 0.842282 -2.17779 0
M  V30 24808 C 2363.91 1.28469 -1.11489 0
M  V30 24809 O 2365.1 1.34916 -1.39683 0
M  V30 24810 C 2362.23 2.09639 -2.76891 0
M  V30 24811 C 2361.18 1.79214 -3.88673 0
M  V30 24812 C 2360.51 3.11567 -4.34546 0
M  V30 24813 C 2361.81 1.06855 -5.11253 0
M  V30 24814 H 2363.5 0.337721 -2.97489 0
M  V30 24815 H 2361.05 0.161 -1.43097 0
M  V30 24816 H 2363 2.76608 -3.17909 0
M  V30 24817 H 2361.73 2.62401 -1.94456 0
M  V30 24818 H 2360.39 1.14638 -3.48215 0
M  V30 24819 H 2360.03 3.62243 -3.48983 0
M  V30 24820 H 2359.73 2.91987 -5.09919 0
M  V30 24821 H 2361.26 3.79672 -4.78207 0
M  V30 24822 H 2362.67 1.63958 -5.49355 0
M  V30 24823 H 2361.07 0.974074 -5.92142 0
M  V30 24824 H 2362.14 0.0535316 -4.8487 0
M  V30 24825 N 2363.48 1.56732 0.16515 0
M  V30 24826 C 2364.89 1.71963 0.727016 0
M  V30 24827 C 2365.24 0.72011 1.82507 0
M  V30 24828 O 2364.37 -0.117204 2.16082 0
M  V30 24829 C 2364.96 3.11793 1.32554 0
M  V30 24830 C 2363.52 3.28688 1.83416 0
M  V30 24831 C 2362.67 2.6791 0.71552 0
M  V30 24832 H 2365.62 1.58585 -0.0603175 0
M  V30 24833 H 2365.64 3.10786 2.19528 0
M  V30 24834 H 2365.15 3.84517 0.526127 0
M  V30 24835 H 2363.25 2.6093 2.65981 0
M  V30 24836 H 2363.37 4.36482 1.97536 0
M  V30 24837 H 2361.73 2.27886 1.13754 0
M  V30 24838 H 2362.51 3.43224 -0.0721439 0
M  V30 24839 N 2364.96 -0.433911 1.51509 0
M  V30 24840 C 2366.19 -1.2054 1.68159 0
M  V30 24841 C 2366.6 -1.84928 0.380395 0
M  V30 24842 O 2365.96 -1.70857 -0.641416 0
M  V30 24843 C 2366.01 -2.28691 2.79969 0
M  V30 24844 O 2365.73 -1.66936 4.05048 0
M  V30 24845 C 2367.23 -3.18907 3.07918 0
M  V30 24846 H 2364.45 -0.363181 0.564217 0
M  V30 24847 H 2367 -0.513719 1.97942 0
M  V30 24848 H 2365.15 -2.9357 2.52776 0
M  V30 24849 H 2365.57 -2.3844 4.67169 0
M  V30 24850 H 2367.04 -3.90919 3.89726 0
M  V30 24851 H 2367.52 -3.79859 2.20463 0
M  V30 24852 H 2368.12 -2.59725 3.36783 0
M  V30 24853 N 2366.44 -1.41713 -0.689577 0
M  V30 24854 C 2367.39 -1.40497 -1.79568 0
M  V30 24855 C 2368.37 -0.278437 -1.58473 0
M  V30 24856 O 2369.56 -0.519562 -1.69203 0
M  V30 24857 C 2366.69 -1.29542 -3.17921 0
M  V30 24858 C 2365.78 -2.47081 -3.44691 0
M  V30 24859 N 2366.17 -3.72537 -3.42126 0
M  V30 24860 C 2364.47 -2.41023 -3.75265 0
M  V30 24861 C 2365.17 -4.50527 -3.67968 0
M  V30 24862 N 2364.15 -3.80725 -3.88007 0
M  V30 24863 H 2367.95 -2.35407 -1.75956 0
M  V30 24864 H 2365.46 -1.35853 -0.889816 0
M  V30 24865 H 2367.46 -1.26752 -3.97164 0
M  V30 24866 H 2366.12 -0.356209 -3.2274 0
M  V30 24867 H 2367.13 -4.05339 -3.22368 0
M  V30 24868 H 2363.81 -1.55606 -3.87419 0
M  V30 24869 H 2365.2 -5.59476 -3.7207 0
M  V30 24870 N 2367.92 0.924431 -1.2764 0
M  V30 24871 C 2368.88 2.00703 -1.10684 0
M  V30 24872 C 2369.88 1.60723 -0.0498106 0
M  V30 24873 O 2371.07 1.71689 -0.294684 0
M  V30 24874 C 2368.2 3.33901 -0.687223 0
M  V30 24875 H 2369.39 2.17175 -2.06821 0
M  V30 24876 H 2366.95 1.10567 -1.10475 0
M  V30 24877 H 2367.68 3.23129 0.275382 0
M  V30 24878 H 2367.47 3.64277 -1.45067 0
M  V30 24879 H 2368.96 4.13398 -0.590925 0
M  V30 24880 N 2369.39 1.09715 1.13139 0
M  V30 24881 C 2370.62 0.857114 1.88861 0
M  V30 24882 C 2371.04 -0.586273 1.7873 0
M  V30 24883 O 2370.4 -1.4122 1.13695 0
M  V30 24884 C 2370.45 1.30075 3.36323 0
M  V30 24885 O 2369.55 0.461079 4.09814 0
M  V30 24886 H 2368.9 0.310172 0.587103 0
M  V30 24887 H 2371.43 1.46205 1.43127 0
M  V30 24888 H 2371.44 1.28745 3.87155 0
M  V30 24889 H 2370.11 2.35191 3.43013 0
M  V30 24890 H 2368.69 0.538953 3.68985 0
M  V30 24891 N 2370.87 -1.30419 0.88479 0
M  V30 24892 C 2372.28 -1.78301 0.553688 0
M  V30 24893 C 2372.63 -1.72752 -0.930122 0
M  V30 24894 O 2371.76 -1.30426 -1.72679 0
M  V30 24895 C 2372.35 -3.23759 0.998291 0
M  V30 24896 C 2370.91 -3.69477 0.718605 0
M  V30 24897 C 2370.06 -2.50876 1.18137 0
M  V30 24898 H 2373.01 -1.17292 1.06903 0
M  V30 24899 H 2373.03 -3.79091 0.327184 0
M  V30 24900 H 2372.54 -3.27765 2.07826 0
M  V30 24901 H 2370.65 -3.70958 -0.349378 0
M  V30 24902 H 2370.76 -4.60955 1.30603 0
M  V30 24903 H 2369.12 -2.47515 0.600713 0
M  V30 24904 H 2369.91 -2.5762 2.26907 0
M  V30 24905 N 2372.35 -0.645724 -1.43764 0
M  V30 24906 C 2373.6 -0.155767 -2.01499 0
M  V30 24907 C 2373.92 1.23197 -1.51154 0
M  V30 24908 O 2373.19 1.82146 -0.721076 0
M  V30 24909 H 2371.77 -0.0545948 -0.745002 0
M  V30 24910 H 2374.43 -0.835708 -1.76074 0
M  V30 24911 H 2373.53 -0.134631 -3.11809 0
M  V30 24912 N 2373.83 1.5277 -0.38717 0
M  V30 24913 C 2374.74 2.30118 0.456401 0
M  V30 24914 C 2375.75 1.36946 1.0734 0
M  V30 24915 O 2376.93 1.70015 1.07968 0
M  V30 24916 C 2374 3.09139 1.56952 0
M  V30 24917 C 2373.06 4.18015 0.977842 0
M  V30 24918 C 2372.29 4.93259 2.03791 0
M  V30 24919 O 2372.51 4.68573 3.25263 0
M  V30 24920 O 2371.45 5.7866 1.6564 0
M  V30 24921 H 2375.27 3.03203 -0.173643 0
M  V30 24922 H 2372.86 1.48636 -0.150945 0
M  V30 24923 H 2374.74 3.58416 2.21621 0
M  V30 24924 H 2373.41 2.38869 2.18456 0
M  V30 24925 H 2372.32 3.72939 0.29446 0
M  V30 24926 H 2373.65 4.90514 0.407042 0
M  V30 24927 N 2375.31 0.116931 1.57166 0
M  V30 24928 C 2376.53 -0.552675 1.99901 0
M  V30 24929 C 2376.96 -1.59562 0.996067 0
M  V30 24930 O 2376.31 -1.81271 -0.0325241 0
M  V30 24931 C 2376.36 -1.15736 3.41522 0
M  V30 24932 O 2375.47 -2.27292 3.4411 0
M  V30 24933 H 2374.81 -0.138246 0.649449 0
M  V30 24934 H 2377.34 0.204795 2.03572 0
M  V30 24935 H 2377.35 -1.49339 3.79686 0
M  V30 24936 H 2376.02 -0.393421 4.14035 0
M  V30 24937 H 2374.6 -1.95144 3.17763 0
M  V30 24938 N 2376.78 -1.56818 -0.156836 0
M  V30 24939 C 2378.03 -1.81997 -0.869472 0
M  V30 24940 C 2378.35 -0.696577 -1.82776 0
M  V30 24941 O 2379.55 -0.833703 -2.58383 0
M  V30 24942 C 2378.01 -3.2254 -1.59674 0
M  V30 24943 C 2377.62 -4.42788 -0.681354 0
M  V30 24944 C 2379.36 -3.57002 -2.29674 0
M  V30 24945 C 2377.27 -5.74354 -1.40968 0
M  V30 24946 H 2376.2 -0.678714 -0.328426 0
M  V30 24947 H 2378.85 -1.83092 -0.122268 0
M  V30 24948 H 2377.23 -3.15804 -2.38922 0
M  V30 24949 H 2378.4 -4.60739 0.0751976 0
M  V30 24950 H 2376.72 -4.16302 -0.0902699 0
M  V30 24951 H 2379.32 -4.52549 -2.84786 0
M  V30 24952 H 2379.66 -2.82581 -3.05702 0
M  V30 24953 H 2380.19 -3.65355 -1.57355 0
M  V30 24954 H 2376.93 -6.51843 -0.691446 0
M  V30 24955 H 2376.45 -5.60356 -2.13919 0
M  V30 24956 H 2378.13 -6.16812 -1.95326 0
M  V30 24957 N 2378.26 0.425871 -1.51737 0
M  V30 24958 C 2379.51 1.17607 -1.65217 0
M  V30 24959 C 2379.84 1.90588 -0.372812 0
M  V30 24960 O 2379.12 1.84079 0.628106 0
M  V30 24961 C 2379.4 2.18393 -2.86315 0
M  V30 24962 C 2379.25 1.49419 -4.24257 0
M  V30 24963 C 2380.57 3.19251 -3.0293 0
M  V30 24964 H 2377.69 0.426195 -0.601271 0
M  V30 24965 H 2380.33 0.46385 -1.84251 0
M  V30 24966 H 2378.48 2.79132 -2.70218 0
M  V30 24967 H 2380.15 0.919283 -4.52047 0
M  V30 24968 H 2378.4 0.796357 -4.26428 0
M  V30 24969 H 2379.07 2.22876 -5.05005 0
M  V30 24970 H 2381.54 2.68575 -3.17815 0
M  V30 24971 H 2380.42 3.87053 -3.89206 0
M  V30 24972 H 2380.68 3.86019 -2.15504 0
M  V30 24973 N 2379.74 1.42077 0.682052 0
M  V30 24974 C 2380.99 1.41454 1.43784 0
M  V30 24975 C 2381.3 0.0317418 1.95574 0
M  V30 24976 O 2382.51 -0.0970985 2.71326 0
M  V30 24977 C 2380.96 2.48784 2.60067 0
M  V30 24978 C 2380.57 3.93035 2.15006 0
M  V30 24979 C 2382.32 2.57317 3.37622 0
M  V30 24980 C 2380.22 4.91889 3.28328 0
M  V30 24981 H 2379.15 0.526091 0.540134 0
M  V30 24982 H 2381.8 1.67956 0.739128 0
M  V30 24983 H 2380.19 2.15435 3.32271 0
M  V30 24984 H 2381.36 4.35702 1.50002 0
M  V30 24985 H 2379.68 3.88286 1.50409 0
M  V30 24986 H 2382.27 3.28352 4.22006 0
M  V30 24987 H 2382.62 1.61435 3.83724 0
M  V30 24988 H 2383.15 2.89824 2.72483 0
M  V30 24989 H 2379.89 5.89222 2.87224 0
M  V30 24990 H 2379.41 4.5386 3.92137 0
M  V30 24991 H 2381.09 5.13272 3.93904 0
M  V30 24992 N 2381.22 -0.917649 1.28129 0
M  V30 24993 C 2382.5 -1.6454 1.05764 0
M  V30 24994 C 2382.88 -2.07192 -0.404308 0
M  V30 24995 O 2382.22 -1.8139 -1.3896 0
M  V30 24996 C 2382.43 -2.83986 2.02862 0
M  V30 24997 C 2383.78 -3.55096 2.32792 0
M  V30 24998 O 2384.81 -2.94128 2.00915 0
M  V30 24999 O 2383.67 -4.64964 2.87178 0
M  V30 25000 H 2380.76 -0.721645 0.403928 0
M  V30 25001 H 2383.31 -0.967298 1.39433 0
M  V30 25002 H 2382.08 -2.49533 3.01412 0
M  V30 25003 H 2381.7 -3.59511 1.69816 0
M  V30 25004 N 2382.7 -1.10314 -1.12555 0
M  V30 25005 C 2383.95 -0.843123 -1.83673 0
M  V30 25006 C 2384.27 0.633099 -1.84437 0
M  V30 25007 O 2383.54 1.45962 -1.3066 0
M  V30 25008 H 2382.12 -0.308916 -0.680132 0
M  V30 25009 H 2384.78 -1.39315 -1.36299 0
M  V30 25010 H 2383.87 -1.20485 -2.87906 0
M  V30 25011 N 2384.18 1.29948 -0.891694 0
M  V30 25012 C 2385.12 2.27947 -0.361776 0
M  V30 25013 C 2386.09 1.56669 0.551733 0
M  V30 25014 O 2387.28 1.84697 0.478703 0
M  V30 25015 C 2384.42 3.42635 0.411764 0
M  V30 25016 C 2383.53 4.28715 -0.531726 0
M  V30 25017 C 2382.67 5.30573 0.258074 0
M  V30 25018 C 2381.7 6.08306 -0.680455 0
M  V30 25019 N 2380.84 7.02061 0.0744379 0
M  V30 25020 H 2385.68 2.72657 -1.20259 0
M  V30 25021 H 2383.22 1.34111 -0.604376 0
M  V30 25022 H 2385.18 4.07895 0.876232 0
M  V30 25023 H 2383.81 2.98976 1.2171 0
M  V30 25024 H 2382.86 3.63701 -1.1147 0
M  V30 25025 H 2384.17 4.82871 -1.25046 0
M  V30 25026 H 2383.32 6.01612 0.784098 0
M  V30 25027 H 2382.06 4.77127 1.00999 0
M  V30 25028 H 2381.07 5.36138 -1.21805 0
M  V30 25029 H 2382.29 6.63839 -1.43157 0
M  V30 25030 H 2380.24 6.50995 0.808769 0
M  V30 25031 H 2380.16 7.53737 -0.584542 0
M  V30 25032 H 2381.42 7.77332 0.580986 0
M  V30 25033 N 2385.65 0.653339 1.4342 0
M  V30 25034 C 2386.56 -0.0388153 2.34568 0
M  V30 25035 C 2387.58 -0.812043 1.53889 0
M  V30 25036 O 2388.76 -0.759261 1.8654 0
M  V30 25037 C 2385.82 -0.99321 3.32169 0
M  V30 25038 C 2384.88 -0.216902 4.28752 0
M  V30 25039 C 2384.11 -1.12584 5.2169 0
M  V30 25040 O 2384.34 -2.3651 5.19056 0
M  V30 25041 O 2383.27 -0.598179 5.9892 0
M  V30 25042 H 2387.1 0.711438 2.95249 0
M  V30 25043 H 2384.68 0.413527 1.43563 0
M  V30 25044 H 2386.56 -1.54169 3.92186 0
M  V30 25045 H 2385.24 -1.72369 2.7399 0
M  V30 25046 H 2384.15 0.375166 3.72214 0
M  V30 25047 H 2385.48 0.474011 4.89912 0
M  V30 25048 N 2387.13 -1.52563 0.395266 0
M  V30 25049 C 2388.38 -2.01952 -0.185282 0
M  V30 25050 C 2388.71 -1.28097 -1.45961 0
M  V30 25051 O 2387.99 -0.383183 -1.90688 0
M  V30 25052 C 2388.27 -3.57313 -0.447131 0
M  V30 25053 C 2388.12 -4.41832 0.842906 0
M  V30 25054 C 2389.44 -4.2241 -1.23522 0
M  V30 25055 H 2386.56 -0.734051 -0.0658659 0
M  V30 25056 H 2389.2 -1.82574 0.526007 0
M  V30 25057 H 2387.35 -3.73956 -1.05305 0
M  V30 25058 H 2389.02 -4.36928 1.47957 0
M  V30 25059 H 2387.27 -4.08603 1.45693 0
M  V30 25060 H 2387.94 -5.48572 0.614262 0
M  V30 25061 H 2390.41 -4.09782 -0.722373 0
M  V30 25062 H 2389.29 -5.31083 -1.38718 0
M  V30 25063 H 2389.55 -3.8044 -2.25207 0
M  V30 25064 N 2388.61 -0.125265 -1.57101 0
M  V30 25065 C 2389.52 0.836161 -2.19193 0
M  V30 25066 C 2390.54 1.28802 -1.16987 0
M  V30 25067 O 2391.71 1.34972 -1.49481 0
M  V30 25068 C 2388.78 2.06612 -2.78411 0
M  V30 25069 C 2387.84 1.66558 -3.95673 0
M  V30 25070 C 2387.07 2.8369 -4.52057 0
M  V30 25071 O 2387.29 3.99295 -4.07333 0
M  V30 25072 O 2386.23 2.60414 -5.42649 0
M  V30 25073 H 2390.05 0.337723 -3.01816 0
M  V30 25074 H 2387.64 0.100669 -1.4906 0
M  V30 25075 H 2389.52 2.78635 -3.16134 0
M  V30 25076 H 2388.2 2.5545 -1.98814 0
M  V30 25077 H 2387.1 0.916232 -3.62706 0
M  V30 25078 H 2388.44 1.22456 -4.76724 0
M  V30 25079 N 2390.09 1.56899 0.148518 0
M  V30 25080 C 2391.34 1.82456 0.859808 0
M  V30 25081 C 2391.65 0.706261 1.82404 0
M  V30 25082 O 2392.86 0.847394 2.57937 0
M  V30 25083 C 2391.31 3.23383 1.57961 0
M  V30 25084 C 2390.92 4.43144 0.657862 0
M  V30 25085 C 2392.66 3.58215 2.27778 0
M  V30 25086 C 2390.57 5.75093 1.3792 0
M  V30 25087 H 2389.5 0.680446 0.324822 0
M  V30 25088 H 2392.15 1.83154 0.112556 0
M  V30 25089 H 2390.53 3.17067 2.37244 0
M  V30 25090 H 2391.71 4.60692 -0.0996307 0
M  V30 25091 H 2390.02 4.16344 0.0681911 0
M  V30 25092 H 2392.62 4.54053 2.82382 0
M  V30 25093 H 2392.96 2.84198 3.04199 0
M  V30 25094 H 2393.5 3.66184 1.55415 0
M  V30 25095 H 2390.23 6.52201 0.656867 0
M  V30 25096 H 2389.75 5.61482 2.10944 0
M  V30 25097 H 2391.43 6.17839 1.92053 0
M  V30 25098 N 2391.57 -0.417818 1.51961 0
M  V30 25099 C 2392.5 -1.51551 1.77636 0
M  V30 25100 C 2393.48 -1.58125 0.626946 0
M  V30 25101 O 2394.66 -1.73539 0.871662 0
M  V30 25102 C 2391.79 -2.89457 1.91917 0
M  V30 25103 C 2390.75 -2.97737 3.07468 0
M  V30 25104 C 2390.07 -4.37813 3.06959 0
M  V30 25105 C 2391.37 -2.70019 4.47087 0
M  V30 25106 H 2393.07 -1.30315 2.69552 0
M  V30 25107 H 2390.61 -0.625469 1.29707 0
M  V30 25108 H 2392.56 -3.66226 2.08461 0
M  V30 25109 H 2391.29 -3.11967 0.966653 0
M  V30 25110 H 2389.95 -2.23411 2.9066 0
M  V30 25111 H 2389.6 -4.5732 2.09446 0
M  V30 25112 H 2389.3 -4.4428 3.84564 0
M  V30 25113 H 2390.82 -5.16529 3.25622 0
M  V30 25114 H 2392.23 -3.36514 4.64145 0
M  V30 25115 H 2390.63 -2.87872 5.26545 0
M  V30 25116 H 2391.7 -1.65506 4.5578 0
M  V30 25117 N 2393.04 -1.42436 -0.674508 0
M  V30 25118 C 2394.32 -1.33405 -1.43047 0
M  V30 25119 C 2394.7 0.0284303 -2.11081 0
M  V30 25120 O 2394.05 1.04394 -2.03259 0
M  V30 25121 C 2394.26 -2.50243 -2.43268 0
M  V30 25122 C 2395.61 -2.92372 -3.07902 0
M  V30 25123 O 2396.63 -2.50136 -2.53595 0
M  V30 25124 O 2395.49 -3.65474 -4.06314 0
M  V30 25125 H 2392.58 -0.526118 -0.638067 0
M  V30 25126 H 2395.13 -1.54444 -0.703207 0
M  V30 25127 H 2393.9 -3.41071 -1.91797 0
M  V30 25128 H 2393.52 -2.31192 -3.23475 0
M  V30 25129 N 2394.52 0.910841 -1.28614 0
M  V30 25130 C 2395.48 1.99518 -1.12807 0
M  V30 25131 C 2396.48 1.60661 -0.0668546 0
M  V30 25132 O 2397.67 1.71367 -0.312878 0
M  V30 25133 C 2394.81 3.33154 -0.722599 0
M  V30 25134 H 2396 2.1497 -2.09113 0
M  V30 25135 H 2393.55 1.09389 -1.11641 0
M  V30 25136 H 2394.29 3.23403 0.241095 0
M  V30 25137 H 2394.07 3.62718 -1.48923 0
M  V30 25138 H 2395.56 4.12748 -0.634739 0
M  V30 25139 N 2396 1.10909 1.11969 0
M  V30 25140 C 2396.95 0.762383 2.17845 0
M  V30 25141 C 2397.92 -0.263571 1.63995 0
M  V30 25142 O 2399.1 -0.141739 1.90273 0
M  V30 25143 C 2396.24 0.205711 3.44486 0
M  V30 25144 C 2395.36 1.28756 4.12366 0
M  V30 25145 C 2394.49 0.692011 5.26673 0
M  V30 25146 C 2393.53 1.75409 5.86428 0
M  V30 25147 N 2392.67 1.17845 6.92139 0
M  V30 25148 H 2397.51 1.66944 2.46848 0
M  V30 25149 H 2395.04 0.833797 1.21187 0
M  V30 25150 H 2397 -0.134963 4.16982 0
M  V30 25151 H 2395.63 -0.664557 3.15885 0
M  V30 25152 H 2394.68 1.74528 3.38 0
M  V30 25153 H 2396 2.09133 4.52841 0
M  V30 25154 H 2395.15 0.30107 6.05953 0
M  V30 25155 H 2393.89 -0.143146 4.8749 0
M  V30 25156 H 2392.89 2.15441 5.05831 0
M  V30 25157 H 2394.12 2.59219 6.2768 0
M  V30 25158 H 2392.06 0.36484 6.54985 0
M  V30 25159 H 2391.98 1.919 7.31239 0
M  V30 25160 H 2393.25 0.814216 7.75236 0
M  V30 25161 N 2397.48 -1.29474 0.898573 0
M  V30 25162 C 2398.44 -2.26023 0.380311 0
M  V30 25163 C 2399.44 -1.53316 -0.484864 0
M  V30 25164 O 2400.63 -1.71768 -0.290077 0
M  V30 25165 C 2397.76 -3.3783 -0.456451 0
M  V30 25166 H 2398.96 -2.73381 1.233 0
M  V30 25167 H 2396.51 -1.40896 0.676614 0
M  V30 25168 H 2397.24 -2.9581 -1.32917 0
M  V30 25169 H 2397.03 -3.91759 0.163462 0
M  V30 25170 H 2398.52 -4.09661 -0.810394 0
M  V30 25171 N 2398.96 -0.660936 -1.43071 0
M  V30 25172 C 2399.89 0.0122419 -2.33497 0
M  V30 25173 C 2400.87 0.803899 -1.49905 0
M  V30 25174 O 2402.05 0.763833 -1.78548 0
M  V30 25175 C 2399.18 0.973936 -3.33364 0
M  V30 25176 C 2398.14 0.291852 -4.27004 0
M  V30 25177 C 2397.46 1.36553 -5.16969 0
M  V30 25178 C 2398.76 -0.820552 -5.15814 0
M  V30 25179 H 2400.46 -0.742924 -2.90036 0
M  V30 25180 H 2398 -0.358713 -1.39461 0
M  V30 25181 H 2399.96 1.45385 -3.95527 0
M  V30 25182 H 2398.68 1.76036 -2.75098 0
M  V30 25183 H 2397.34 -0.167687 -3.66216 0
M  V30 25184 H 2396.99 2.14358 -4.55038 0
M  V30 25185 H 2396.69 0.914352 -5.80442 0
M  V30 25186 H 2398.21 1.84665 -5.82006 0
M  V30 25187 H 2399.62 -0.422467 -5.71741 0
M  V30 25188 H 2398.02 -1.19667 -5.88048 0
M  V30 25189 H 2399.09 -1.67526 -4.55042 0
M  V30 25190 N 2400.43 1.52351 -0.403352 0
M  V30 25191 C 2401.34 2.30589 0.431969 0
M  V30 25192 C 2402.36 1.38077 1.05881 0
M  V30 25193 O 2403.54 1.7115 1.06158 0
M  V30 25194 C 2400.6 3.10787 1.53664 0
M  V30 25195 C 2399.66 4.19029 0.933451 0
M  V30 25196 C 2398.9 4.95393 1.98548 0
M  V30 25197 O 2399.12 4.71996 3.20274 0
M  V30 25198 O 2398.05 5.80384 1.59493 0
M  V30 25199 H 2401.88 3.03002 -0.205792 0
M  V30 25200 H 2399.46 1.48467 -0.166702 0
M  V30 25201 H 2401.35 3.60746 2.17808 0
M  V30 25202 H 2400.02 2.41173 2.15911 0
M  V30 25203 H 2398.93 3.73231 0.254888 0
M  V30 25204 H 2400.26 4.90918 0.354993 0
M  V30 25205 N 2401.91 0.133594 1.57033 0
M  V30 25206 C 2403.19 -0.565187 1.87257 0
M  V30 25207 C 2403.57 -1.83857 1.03729 0
M  V30 25208 O 2402.92 -2.28183 0.120287 0
M  V30 25209 C 2403.13 -0.843576 3.38651 0
M  V30 25210 C 2404.48 -1.19025 4.07576 0
M  V30 25211 O 2405.5 -0.933368 3.43754 0
M  V30 25212 O 2404.36 -1.67303 5.20262 0
M  V30 25213 H 2401.45 -0.286783 0.775683 0
M  V30 25214 H 2404 0.169198 1.68854 0
M  V30 25215 H 2402.77 0.0581836 3.91257 0
M  V30 25216 H 2402.39 -1.63261 3.62535 0
M  V30 25217 N 2403.39 -1.56975 -0.140195 0
M  V30 25218 C 2404.32 -1.9539 -1.19814 0
M  V30 25219 C 2405.34 -0.85055 -1.38815 0
M  V30 25220 O 2406.52 -1.12894 -1.38265 0
M  V30 25221 C 2403.62 -2.21862 -2.56185 0
M  V30 25222 C 2402.8 -3.53154 -2.58071 0
M  V30 25223 C 2401.86 -3.68086 -3.7603 0
M  V30 25224 O 2400.88 -4.40412 -3.60591 0
M  V30 25225 N 2402.08 -3.0526 -4.93758 0
M  V30 25226 H 2404.85 -2.86747 -0.871559 0
M  V30 25227 H 2402.41 -1.58508 -0.329692 0
M  V30 25228 H 2404.4 -2.29086 -3.33619 0
M  V30 25229 H 2402.97 -1.36736 -2.81109 0
M  V30 25230 H 2402.19 -3.5731 -1.66504 0
M  V30 25231 H 2403.48 -4.39491 -2.56369 0
M  V30 25232 H 2402.88 -2.46428 -5.09205 0
M  V30 25233 H 2401.44 -3.18036 -5.68943 0
M  V30 25234 N 2404.87 0.409753 -1.5218 0
M  V30 25235 C 2405.83 1.48183 -1.74855 0
M  V30 25236 C 2406.83 1.48432 -0.618443 0
M  V30 25237 O 2408.02 1.49967 -0.886312 0
M  V30 25238 C 2405.15 2.87595 -1.83035 0
M  V30 25239 H 2406.35 1.2937 -2.70561 0
M  V30 25240 H 2403.9 0.640208 -1.42587 0
M  V30 25241 H 2404.63 3.11779 -0.892415 0
M  V30 25242 H 2404.42 2.88818 -2.65192 0
M  V30 25243 H 2405.91 3.65315 -2.02323 0
M  V30 25244 N 2406.35 1.42792 0.666944 0
M  V30 25245 C 2407.59 1.43397 1.42414 0
M  V30 25246 C 2407.92 0.0542716 1.94924 0
M  V30 25247 O 2407.19 -0.908385 1.73566 0
M  V30 25248 H 2405.77 0.527911 0.528506 0
M  V30 25249 H 2408.43 1.78281 0.787531 0
M  V30 25250 H 2407.52 2.13841 2.27329 0
M  V30 25251 N 2407.82 -0.904008 1.29095 0
M  V30 25252 C 2409.05 -1.68764 1.19692 0
M  V30 25253 C 2409.47 -1.87229 -0.24308 0
M  V30 25254 O 2408.82 -1.40624 -1.16324 0
M  V30 25255 C 2408.88 -3.0745 1.90149 0
M  V30 25256 O 2408.6 -2.89832 3.28526 0
M  V30 25257 C 2410.1 -4.01849 1.8717 0
M  V30 25258 H 2407.32 -0.527237 0.415045 0
M  V30 25259 H 2409.86 -1.13079 1.70392 0
M  V30 25260 H 2408.02 -3.59924 1.43296 0
M  V30 25261 H 2408.43 -3.77677 3.63951 0
M  V30 25262 H 2409.9 -4.96592 2.41041 0
M  V30 25263 H 2410.38 -4.3097 0.846246 0
M  V30 25264 H 2410.99 -3.55306 2.33747 0
M  V30 25265 N 2409.3 -1.11501 -1.11379 0
M  V30 25266 C 2410.25 -0.768994 -2.1952 0
M  V30 25267 C 2411.24 0.239828 -1.67694 0
M  V30 25268 O 2412.45 0.0990439 -1.79727 0
M  V30 25269 H 2408.83 -0.230799 -0.715707 0
M  V30 25270 H 2410.8 -1.68969 -2.45951 0
M  V30 25271 C 2409.55 -0.229134 -3.46944 0
M  V30 25272 H 2408.87 -0.996664 -3.87178 0
M  V30 25273 H 2410.31 -0.0252186 -4.23993 0
M  V30 25274 C 2408.77 1.04074 -3.20422 0
M  V30 25275 O 2409.3 2.12032 -3.41182 0
M  V30 25276 N 2407.5 0.963775 -2.74153 0
M  V30 25277 H 2407.05 0.0851269 -2.57459 0
M  V30 25278 H 2407.01 1.81409 -2.56784 0
M  V30 25279 N 2410.78 1.28995 -0.905426 0
M  V30 25280 C 2411.71 2.29974 -0.404253 0
M  V30 25281 C 2412.69 1.61836 0.523755 0
M  V30 25282 O 2413.88 1.89305 0.433265 0
M  V30 25283 C 2411.01 3.45387 0.363981 0
M  V30 25284 C 2409.96 4.25366 -0.474123 0
M  V30 25285 C 2409.29 5.33033 0.421952 0
M  V30 25286 C 2410.59 4.9292 -1.72704 0
M  V30 25287 H 2412.28 2.72144 -1.24812 0
M  V30 25288 H 2409.83 1.30831 -0.601608 0
M  V30 25289 H 2411.78 4.1511 0.725374 0
M  V30 25290 H 2410.5 3.02076 1.24168 0
M  V30 25291 H 2409.16 3.57359 -0.817923 0
M  V30 25292 H 2408.81 4.85965 1.29796 0
M  V30 25293 H 2408.51 5.87445 -0.13516 0
M  V30 25294 H 2410.04 6.05605 0.77941 0
M  V30 25295 H 2411.45 5.55049 -1.43505 0
M  V30 25296 H 2409.85 5.57291 -2.22592 0
M  V30 25297 H 2410.92 4.17883 -2.45971 0
M  V30 25298 N 2412.26 0.668514 1.42719 0
M  V30 25299 C 2413.17 -0.013934 2.34596 0
M  V30 25300 C 2414.19 -0.795675 1.54742 0
M  V30 25301 O 2415.36 -0.739433 1.87335 0
M  V30 25302 C 2412.43 -0.957924 3.33204 0
M  V30 25303 C 2411.49 -0.171415 4.28958 0
M  V30 25304 C 2410.72 -1.07044 5.22855 0
M  V30 25305 O 2410.94 -2.30991 5.21535 0
M  V30 25306 O 2409.88 -0.534621 5.99521 0
M  V30 25307 H 2413.7 0.742713 2.94478 0
M  V30 25308 H 2411.29 0.428731 1.43116 0
M  V30 25309 H 2413.17 -1.50001 3.93799 0
M  V30 25310 H 2411.85 -1.69453 2.75803 0
M  V30 25311 H 2410.75 0.414624 3.71795 0
M  V30 25312 H 2412.09 0.525946 4.89382 0
M  V30 25313 N 2413.74 -1.52135 0.411426 0
M  V30 25314 C 2414.99 -2.01024 -0.164974 0
M  V30 25315 C 2415.3 -1.30135 -1.46028 0
M  V30 25316 O 2416.51 -1.69853 -2.11807 0
M  V30 25317 C 2414.96 -3.58247 -0.344555 0
M  V30 25318 C 2414.57 -4.38053 0.938793 0
M  V30 25319 C 2416.31 -4.15361 -0.876122 0
M  V30 25320 C 2414.22 -5.86924 0.726275 0
M  V30 25321 H 2413.15 -0.751156 -0.0654275 0
M  V30 25322 H 2415.8 -1.7546 0.537223 0
M  V30 25323 H 2414.18 -3.8015 -1.10914 0
M  V30 25324 H 2415.36 -4.27909 1.7097 0
M  V30 25325 H 2413.67 -3.92268 1.39695 0
M  V30 25326 H 2416.27 -5.24265 -1.05119 0
M  V30 25327 H 2416.61 -3.72863 -1.85145 0
M  V30 25328 H 2417.15 -3.97434 -0.170537 0
M  V30 25329 H 2413.88 -6.33785 1.67323 0
M  V30 25330 H 2413.4 -5.998 -0.0052974 0
M  V30 25331 H 2415.08 -6.45945 0.369345 0
M  V30 25332 N 2415.22 -0.14192 -1.5696 0
M  V30 25333 C 2416.44 0.517544 -2.00322 0
M  V30 25334 C 2416.86 1.5875 -1.02195 0
M  V30 25335 O 2416.22 1.82491 -0.018194 0
M  V30 25336 C 2416.27 1.12283 -3.4362 0
M  V30 25337 O 2415.99 0.0956159 -4.37996 0
M  V30 25338 C 2417.49 1.86339 -4.02234 0
M  V30 25339 H 2414.71 0.135166 -0.657245 0
M  V30 25340 H 2417.25 -0.235009 -2.03145 0
M  V30 25341 H 2415.41 1.82603 -3.41665 0
M  V30 25342 H 2415.82 0.538377 -5.2173 0
M  V30 25343 H 2417.3 2.23988 -5.04513 0
M  V30 25344 H 2417.77 2.74738 -3.42659 0
M  V30 25345 H 2418.38 1.2073 -4.07804 0
M  V30 25346 N 2416.69 1.57047 0.131868 0
M  V30 25347 C 2417.94 1.83358 0.840408 0
M  V30 25348 C 2418.26 0.725567 1.81645 0
M  V30 25349 O 2419.46 0.874704 2.57024 0
M  V30 25350 C 2417.92 3.2504 1.54522 0
M  V30 25351 C 2417.53 4.43816 0.610823 0
M  V30 25352 C 2419.27 3.6061 2.23965 0
M  V30 25353 C 2417.18 5.76523 1.31813 0
M  V30 25354 H 2416.11 0.683853 0.317587 0
M  V30 25355 H 2418.76 1.83264 0.0931239 0
M  V30 25356 H 2417.14 3.19565 2.33867 0
M  V30 25357 H 2418.31 4.60561 -0.148488 0
M  V30 25358 H 2416.63 4.16393 0.0240284 0
M  V30 25359 H 2419.23 4.57023 2.7755 0
M  V30 25360 H 2419.57 2.87409 3.01168 0
M  V30 25361 H 2420.1 3.67812 1.51522 0
M  V30 25362 H 2416.84 6.52861 0.587656 0
M  V30 25363 H 2416.36 5.63688 2.04977 0
M  V30 25364 H 2418.04 6.19841 1.85489 0
M  V30 25365 N 2418.17 -0.401677 1.52395 0
M  V30 25366 C 2419.42 -1.14506 1.66046 0
M  V30 25367 C 2419.73 -1.91461 0.400249 0
M  V30 25368 O 2420.94 -2.68283 0.41668 0
M  V30 25369 C 2419.4 -2.08444 2.93392 0
M  V30 25370 C 2419 -1.36971 4.26548 0
M  V30 25371 C 2420.75 -2.82996 3.16407 0
M  V30 25372 C 2418.65 -2.29601 5.45011 0
M  V30 25373 H 2417.58 -0.431147 0.618569 0
M  V30 25374 H 2420.24 -0.408889 1.78886 0
M  V30 25375 H 2418.62 -2.85645 2.74268 0
M  V30 25376 H 2419.79 -0.650836 4.56181 0
M  V30 25377 H 2418.11 -0.744308 4.09694 0
M  V30 25378 H 2420.7 -3.52458 4.02091 0
M  V30 25379 H 2421.05 -3.46364 2.30949 0
M  V30 25380 H 2421.58 -2.12892 3.36038 0
M  V30 25381 H 2418.32 -1.70868 6.32838 0
M  V30 25382 H 2417.84 -2.9944 5.19707 0
M  V30 25383 H 2419.52 -2.89964 5.78385 0
M  V30 25384 N 2419.65 -1.43144 -0.659362 0
M  V30 25385 C 2420.88 -1.47863 -1.44721 0
M  V30 25386 C 2421.29 -0.0946217 -1.88563 0
M  V30 25387 O 2420.65 0.893887 -1.5911 0
M  V30 25388 C 2420.7 -2.41918 -2.68623 0
M  V30 25389 O 2420.42 -3.74936 -2.26616 0
M  V30 25390 C 2421.92 -2.55816 -3.6204 0
M  V30 25391 H 2419.14 -0.502395 -0.444792 0
M  V30 25392 H 2421.69 -1.87823 -0.808883 0
M  V30 25393 H 2419.84 -2.0517 -3.28609 0
M  V30 25394 H 2420.26 -4.25455 -3.06738 0
M  V30 25395 H 2421.73 -3.25715 -4.45661 0
M  V30 25396 H 2422.21 -1.60106 -4.08978 0
M  V30 25397 H 2422.81 -2.93349 -3.07939 0
M  V30 25398 N 2421.13 0.897149 -1.29572 0
M  V30 25399 C 2422.06 2.01796 -1.17476 0
M  V30 25400 C 2423.04 1.69963 -0.0683529 0
M  V30 25401 O 2424.22 1.92606 -0.248273 0
M  V30 25402 C 2421.35 3.36658 -0.853158 0
M  V30 25403 C 2420.31 3.8271 -1.91617 0
M  V30 25404 C 2419.63 5.14726 -1.44782 0
M  V30 25405 C 2420.93 4.02757 -3.32542 0
M  V30 25406 H 2422.63 2.12174 -2.11241 0
M  V30 25407 H 2420.17 1.01946 -1.01701 0
M  V30 25408 H 2422.13 4.14577 -0.755238 0
M  V30 25409 H 2420.85 3.26379 0.120179 0
M  V30 25410 H 2419.51 3.07009 -2.00352 0
M  V30 25411 H 2419.16 5.00864 -0.463083 0
M  V30 25412 H 2418.86 5.46509 -2.15875 0
M  V30 25413 H 2420.38 5.95183 -1.36345 0
M  V30 25414 H 2421.8 4.71151 -3.26634 0
M  V30 25415 H 2420.19 4.45898 -4.01615 0
M  V30 25416 H 2421.26 3.07009 -3.75331 0
M  V30 25417 N 2422.61 1.1209 1.10786 0
M  V30 25418 C 2423.55 0.785445 2.17024 0
M  V30 25419 C 2424.52 -0.246162 1.64266 0
M  V30 25420 O 2425.71 -0.121551 1.90412 0
M  V30 25421 C 2422.85 0.242237 3.44249 0
M  V30 25422 C 2421.96 1.33122 4.10977 0
M  V30 25423 C 2421.1 0.747833 5.2591 0
M  V30 25424 C 2420.13 1.81619 5.84535 0
M  V30 25425 N 2419.27 1.25179 6.90851 0
M  V30 25426 H 2424.11 1.69553 2.45063 0
M  V30 25427 H 2421.65 0.846603 1.20296 0
M  V30 25428 H 2423.61 -0.0907293 4.17101 0
M  V30 25429 H 2422.24 -0.631016 3.16572 0
M  V30 25430 H 2421.29 1.78103 3.3613 0
M  V30 25431 H 2422.6 2.13925 4.50597 0
M  V30 25432 H 2421.75 0.365322 6.05599 0
M  V30 25433 H 2420.49 -0.0914331 4.87614 0
M  V30 25434 H 2419.5 2.20794 5.03518 0
M  V30 25435 H 2420.72 2.65861 6.24896 0
M  V30 25436 H 2418.67 0.434289 6.54561 0
M  V30 25437 H 2418.59 1.99645 7.29162 0
M  V30 25438 H 2419.85 0.896395 7.74329 0
M  V30 25439 N 2424.08 -1.28513 0.912254 0
M  V30 25440 C 2425.5 -1.47475 0.610185 0
M  V30 25441 C 2425.7 -1.8293 -0.844923 0
M  V30 25442 O 2424.76 -1.93335 -1.62412 0
M  V30 25443 C 2426.07 -2.57865 1.5468 0
M  V30 25444 C 2427.62 -2.71735 1.55335 0
M  V30 25445 C 2428.09 -3.85267 2.47655 0
M  V30 25446 N 2429.58 -3.92619 2.45774 0
M  V30 25447 C 2430.32 -4.79845 3.13905 0
M  V30 25448 N 2429.81 -5.71672 3.9136 0
M  V30 25449 N 2431.61 -4.73443 3.02999 0
M  V30 25450 H 2423.76 -1.03779 1.8532 0
M  V30 25451 H 2426.02 -0.516739 0.794786 0
M  V30 25452 H 2425.73 -2.38569 2.58414 0
M  V30 25453 H 2425.6 -3.54934 1.27677 0
M  V30 25454 H 2427.99 -2.90421 0.523401 0
M  V30 25455 H 2428.07 -1.75202 1.86381 0
M  V30 25456 H 2427.71 -3.67336 3.50752 0
M  V30 25457 H 2427.64 -4.81195 2.13912 0
M  V30 25458 H 2430.13 -3.26948 1.89509 0
M  V30 25459 H 2430.45 -6.35054 4.4037 0
M  V30 25460 H 2428.79 -5.71517 3.95465 0
M  V30 25461 H 2431.98 -4.00695 2.41994 0
M  V30 25462 H 2432.16 -5.41207 3.56369 0
M  V30 25463 N 2425.56 -0.676073 -1.42362 0
M  V30 25464 C 2426.51 0.0131099 -2.32596 0
M  V30 25465 C 2427.5 0.789212 -1.49893 0
M  V30 25466 O 2428.71 0.697032 -1.65956 0
M  V30 25467 H 2425.09 0.0230349 -0.751647 0
M  V30 25468 H 2427.06 -0.765293 -2.8842 0
M  V30 25469 C 2425.81 0.949643 -3.3448 0
M  V30 25470 H 2425.13 0.361868 -3.98159 0
M  V30 25471 H 2426.57 1.40053 -4.00201 0
M  V30 25472 C 2425.03 2.05663 -2.66842 0
M  V30 25473 O 2425.56 3.14322 -2.5013 0
M  V30 25474 N 2423.76 1.82871 -2.25846 0
M  V30 25475 H 2423.31 0.945043 -2.39639 0
M  V30 25476 H 2423.27 2.57127 -1.80923 0
M  V30 25477 N 2427.04 1.51915 -0.419488 0
M  V30 25478 C 2427.95 2.31034 0.407487 0
M  V30 25479 C 2428.97 1.39192 1.04411 0
M  V30 25480 O 2430.14 1.72266 1.04337 0
M  V30 25481 C 2427.21 3.12399 1.50359 0
M  V30 25482 C 2426.27 4.19995 0.888955 0
M  V30 25483 C 2425.5 4.97471 1.93283 0
M  V30 25484 O 2425.72 4.75367 3.1525 0
M  V30 25485 O 2424.66 5.82043 1.53329 0
M  V30 25486 H 2428.48 3.02767 -0.237918 0
M  V30 25487 H 2426.07 1.48282 -0.182439 0
M  V30 25488 H 2427.95 3.63036 2.13969 0
M  V30 25489 H 2426.63 2.43449 2.13341 0
M  V30 25490 H 2425.53 3.7348 0.215287 0
M  V30 25491 H 2426.87 4.91267 0.302905 0
M  V30 25492 N 2428.52 0.150242 1.56882 0
M  V30 25493 C 2429.47 -0.788206 2.16924 0
M  V30 25494 C 2430.44 -1.24185 1.10305 0
M  V30 25495 O 2431.62 -1.3138 1.38361 0
M  V30 25496 C 2428.76 -2.02064 2.79758 0
M  V30 25497 C 2427.87 -1.6125 4.00777 0
M  V30 25498 C 2427.01 -2.79697 4.516 0
M  V30 25499 C 2426.05 -2.35272 5.65078 0
M  V30 25500 N 2425.18 -3.46739 6.10505 0
M  V30 25501 H 2430.02 -0.269392 2.9678 0
M  V30 25502 H 2427.56 -0.121254 1.46599 0
M  V30 25503 H 2429.52 -2.74318 3.14334 0
M  V30 25504 H 2428.15 -2.51351 2.02541 0
M  V30 25505 H 2427.2 -0.787488 3.7216 0
M  V30 25506 H 2428.51 -1.24624 4.82981 0
M  V30 25507 H 2427.67 -3.60136 4.88248 0
M  V30 25508 H 2426.41 -3.19569 3.68411 0
M  V30 25509 H 2425.41 -1.53273 5.28003 0
M  V30 25510 H 2426.64 -1.96482 6.50055 0
M  V30 25511 H 2424.58 -3.86226 5.3025 0
M  V30 25512 H 2424.5 -3.14139 6.87643 0
M  V30 25513 H 2425.77 -4.27526 6.51799 0
M  V30 25514 N 2430 -1.57115 -0.123538 0
M  V30 25515 C 2431.24 -1.84613 -0.832121 0
M  V30 25516 C 2431.57 -0.734659 -1.80092 0
M  V30 25517 O 2430.83 0.274386 -1.93767 0
M  V30 25518 C 2431.13 -3.18571 -1.6201 0
M  V30 25519 C 2430.79 -4.43818 -0.796006 0
M  V30 25520 C 2429.45 -4.77827 -0.568732 0
M  V30 25521 C 2431.81 -5.2073 -0.221273 0
M  V30 25522 C 2429.13 -5.86194 0.243602 0
M  V30 25523 C 2431.49 -6.29952 0.578228 0
M  V30 25524 C 2430.15 -6.62495 0.815861 0
M  V30 25525 H 2429.42 -0.675547 -0.304495 0
M  V30 25526 H 2432.07 -1.91266 -0.0946912 0
M  V30 25527 H 2430.37 -3.07474 -2.42831 0
M  V30 25528 H 2432.07 -3.37067 -2.17225 0
M  V30 25529 H 2428.66 -4.1717 -0.983234 0
M  V30 25530 H 2432.84 -4.94812 -0.384086 0
M  V30 25531 H 2428.1 -6.09836 0.436978 0
M  V30 25532 H 2432.27 -6.88732 1.03058 0
M  V30 25533 H 2429.9 -7.46299 1.44715 0
M  V30 25534 N 2431.47 0.393589 -1.52606 0
M  V30 25535 C 2432.89 0.733332 -1.41755 0
M  V30 25536 C 2433.09 1.94286 -0.534328 0
M  V30 25537 O 2432.15 2.52499 -0.00602308 0
M  V30 25538 C 2433.46 0.972722 -2.84532 0
M  V30 25539 C 2435.01 1.07448 -2.9398 0
M  V30 25540 C 2435.48 1.34653 -4.37759 0
M  V30 25541 N 2436.97 1.41484 -4.41063 0
M  V30 25542 C 2437.71 1.64191 -5.4939 0
M  V30 25543 N 2437.2 1.84398 -6.67809 0
M  V30 25544 N 2439 1.66333 -5.36926 0
M  V30 25545 H 2431.15 -0.402365 -2.08554 0
M  V30 25546 H 2433.41 -0.117805 -0.940652 0
M  V30 25547 H 2433.12 0.156142 -3.51353 0
M  V30 25548 H 2432.99 1.88865 -3.26511 0
M  V30 25549 H 2435.38 1.88163 -2.27329 0
M  V30 25550 H 2435.46 0.13656 -2.55435 0
M  V30 25551 H 2435.1 0.544492 -5.04973 0
M  V30 25552 H 2435.03 2.29722 -4.73852 0
M  V30 25553 H 2437.52 1.27595 -3.55708 0
M  V30 25554 H 2437.84 2.01218 -7.46144 0
M  V30 25555 H 2436.18 1.81632 -6.70846 0
M  V30 25556 H 2439.37 1.50094 -4.43384 0
M  V30 25557 H 2439.55 1.83689 -6.2142 0
M  V30 25558 N 2432.95 1.43492 0.651762 0
M  V30 25559 C 2434.23 1.35664 1.40907 0
M  V30 25560 C 2434.61 0.00515444 2.11099 0
M  V30 25561 O 2433.96 -1.01147 2.04894 0
M  V30 25562 C 2434.17 2.54082 2.39256 0
M  V30 25563 C 2435.52 2.97233 3.03212 0
M  V30 25564 O 2436.54 2.54139 2.49583 0
M  V30 25565 O 2435.4 3.71892 4.00448 0
M  V30 25566 H 2432.49 0.536202 0.629616 0
M  V30 25567 H 2435.04 1.55544 0.678548 0
M  V30 25568 H 2433.81 3.4408 1.86346 0
M  V30 25569 H 2433.43 2.36309 3.19756 0
M  V30 25570 N 2434.43 -0.890264 1.30046 0
M  V30 25571 C 2435.68 -1.6363 1.17932 0
M  V30 25572 C 2435.99 -1.93781 -0.266169 0
M  V30 25573 O 2437.2 -2.66691 -0.508757 0
M  V30 25574 C 2435.65 -2.94889 2.06322 0
M  V30 25575 C 2435.26 -2.72298 3.55749 0
M  V30 25576 C 2437.01 -3.72839 2.02956 0
M  V30 25577 C 2434.91 -3.99341 4.36212 0
M  V30 25578 H 2433.84 -0.613884 0.437792 0
M  V30 25579 H 2436.49 -0.986047 1.54756 0
M  V30 25580 H 2434.88 -3.61179 1.62376 0
M  V30 25581 H 2436.05 -2.14543 4.07809 0
M  V30 25582 H 2434.37 -2.07731 3.60883 0
M  V30 25583 H 2436.96 -4.67048 2.60327 0
M  V30 25584 H 2437.31 -4.03818 1.01177 0
M  V30 25585 H 2437.84 -3.13404 2.44996 0
M  V30 25586 H 2434.58 -3.73523 5.38666 0
M  V30 25587 H 2434.1 -4.56621 3.88918 0
M  V30 25588 H 2435.78 -4.67407 4.4737 0
M  V30 25589 N 2435.91 -1.12676 -1.1019 0
M  V30 25590 C 2437.32 -0.86334 -1.34233 0
M  V30 25591 C 2437.52 0.505243 -1.95063 0
M  V30 25592 O 2436.58 1.25341 -2.19194 0
M  V30 25593 C 2437.89 -1.98176 -2.26156 0
M  V30 25594 C 2439.44 -2.01294 -2.39687 0
M  V30 25595 C 2439.92 -3.12376 -3.3494 0
M  V30 25596 N 2441.41 -3.11835 -3.4251 0
M  V30 25597 C 2442.14 -3.94426 -4.16192 0
M  V30 25598 N 2441.64 -4.87012 -4.92738 0
M  V30 25599 N 2443.43 -3.82554 -4.11836 0
M  V30 25600 H 2435.58 -2.00854 -0.690762 0
M  V30 25601 H 2437.85 -0.874181 -0.366759 0
M  V30 25602 H 2437.55 -2.96808 -1.88675 0
M  V30 25603 H 2437.43 -1.88912 -3.26484 0
M  V30 25604 H 2439.81 -1.0328 -2.76437 0
M  V30 25605 H 2439.89 -2.14632 -1.39165 0
M  V30 25606 H 2439.54 -4.10624 -2.98915 0
M  V30 25607 H 2439.47 -2.96277 -4.35348 0
M  V30 25608 H 2441.96 -2.44764 -2.87922 0
M  V30 25609 H 2442.27 -5.46537 -5.46367 0
M  V30 25610 H 2440.62 -4.91024 -4.91854 0
M  V30 25611 H 2443.81 -3.09556 -3.51131 0
M  V30 25612 H 2443.98 -4.47151 -4.68999 0
M  V30 25613 N 2437.39 1.28028 -0.919057 0
M  V30 25614 C 2438.32 2.26213 -0.368801 0
M  V30 25615 C 2439.33 1.5507 0.495689 0
M  V30 25616 O 2440.52 1.75793 0.30971 0
M  V30 25617 C 2437.62 3.35324 0.49099 0
M  V30 25618 C 2436.79 4.3598 -0.352209 0
M  V30 25619 C 2435.85 5.24327 0.44353 0
M  V30 25620 O 2434.88 5.69013 -0.14576 0
M  V30 25621 N 2436.08 5.5364 1.74536 0
M  V30 25622 H 2438.85 2.74065 -1.21278 0
M  V30 25623 H 2436.41 1.41564 -0.785565 0
M  V30 25624 H 2438.4 3.91368 1.03019 0
M  V30 25625 H 2436.97 2.8714 1.23569 0
M  V30 25626 H 2436.19 3.79323 -1.07275 0
M  V30 25627 H 2437.48 5.00248 -0.928971 0
M  V30 25628 H 2436.87 5.19178 2.24657 0
M  V30 25629 H 2435.43 6.1242 2.23127 0
M  V30 25630 N 2438.86 0.683613 1.42002 0
M  V30 25631 C 2439.81 -0.0121591 2.27997 0
M  V30 25632 C 2440.8 -0.764797 1.41562 0
M  V30 25633 O 2441.99 -0.642258 1.64936 0
M  V30 25634 C 2439.12 -0.956424 3.29708 0
M  V30 25635 C 2438.21 -0.200664 4.23625 0
M  V30 25636 N 2438.6 0.799175 4.99447 0
M  V30 25637 C 2436.89 -0.437859 4.43845 0
M  V30 25638 C 2437.6 1.25051 5.68099 0
M  V30 25639 N 2436.57 0.578743 5.4051 0
M  V30 25640 H 2440.37 0.754614 2.84047 0
M  V30 25641 H 2437.89 0.513425 1.5407 0
M  V30 25642 H 2439.88 -1.46993 3.90126 0
M  V30 25643 H 2438.54 -1.72293 2.75219 0
M  V30 25644 H 2439.56 1.17902 5.04301 0
M  V30 25645 H 2436.23 -1.18318 4.00384 0
M  V30 25646 H 2437.62 2.07953 6.38909 0
M  V30 25647 N 2440.34 -1.5169 0.427538 0
M  V30 25648 C 2441.59 -2.01188 -0.143643 0
M  V30 25649 C 2441.91 -1.31677 -1.4464 0
M  V30 25650 O 2443.11 -1.7209 -2.09993 0
M  V30 25651 C 2441.57 -3.58592 -0.306539 0
M  V30 25652 C 2441.18 -4.37033 0.985202 0
M  V30 25653 C 2442.92 -4.16266 -0.832018 0
M  V30 25654 C 2440.83 -5.8612 0.788485 0
M  V30 25655 H 2439.76 -0.751808 -0.0574568 0
M  V30 25656 H 2442.41 -1.7488 0.555803 0
M  V30 25657 H 2440.79 -3.81305 -1.06876 0
M  V30 25658 H 2441.96 -4.26071 1.75499 0
M  V30 25659 H 2440.28 -3.90765 1.43847 0
M  V30 25660 H 2442.88 -5.25351 -0.995525 0
M  V30 25661 H 2443.22 -3.74806 -1.8118 0
M  V30 25662 H 2443.75 -3.97593 -0.128374 0
M  V30 25663 H 2440.49 -6.31975 1.74036 0
M  V30 25664 H 2440.01 -5.99772 0.0583197 0
M  V30 25665 H 2441.69 -6.45517 0.437835 0
M  V30 25666 N 2441.82 -0.15856 -1.568 0
M  V30 25667 C 2443.23 0.360334 -1.8319 0
M  V30 25668 C 2443.58 1.63944 -1.07781 0
M  V30 25669 O 2442.71 2.13919 -0.326756 0
M  V30 25670 C 2443.3 0.660537 -3.32299 0
M  V30 25671 C 2441.86 1.12391 -3.59229 0
M  V30 25672 C 2441.01 0.153048 -2.76877 0
M  V30 25673 H 2443.96 -0.383058 -1.54008 0
M  V30 25674 H 2443.98 1.51399 -3.49083 0
M  V30 25675 H 2443.49 -0.270595 -3.87156 0
M  V30 25676 H 2441.59 2.07059 -3.0977 0
M  V30 25677 H 2441.71 1.04189 -4.67634 0
M  V30 25678 H 2440.07 0.64794 -2.46321 0
M  V30 25679 H 2440.85 -0.771879 -3.3451 0
M  V30 25680 N 2443.3 1.57178 0.115204 0
M  V30 25681 C 2444.53 1.8924 0.836403 0
M  V30 25682 C 2444.94 0.750206 1.73255 0
M  V30 25683 O 2444.3 -0.2788 1.80358 0
M  V30 25684 C 2444.35 3.20788 1.66665 0
M  V30 25685 O 2444.07 4.30611 0.806576 0
M  V30 25686 C 2445.57 3.6658 2.49267 0
M  V30 25687 H 2442.79 0.626518 0.240242 0
M  V30 25688 H 2445.34 2.04263 0.0984573 0
M  V30 25689 H 2443.49 3.07424 2.35731 0
M  V30 25690 H 2443.91 5.06031 1.37961 0
M  V30 25691 H 2445.38 4.61375 3.03046 0
M  V30 25692 H 2445.86 2.93423 3.26802 0
M  V30 25693 H 2446.46 3.82745 1.85436 0
M  V30 25694 N 2444.78 -0.38549 1.52813 0
M  V30 25695 C 2445.71 -1.49071 1.74099 0
M  V30 25696 C 2446.72 -1.5047 0.621489 0
M  V30 25697 O 2447.91 -1.54309 0.897272 0
M  V30 25698 C 2445.01 -2.87908 1.78779 0
M  V30 25699 C 2444.18 -3.10434 3.08139 0
M  V30 25700 C 2443.24 -4.29273 3.04321 0
M  V30 25701 O 2442.27 -4.25408 3.78176 0
M  V30 25702 N 2443.47 -5.35646 2.2375 0
M  V30 25703 H 2446.24 -1.31197 2.69458 0
M  V30 25704 H 2443.8 -0.575038 1.51344 0
M  V30 25705 H 2445.79 -3.65515 1.73727 0
M  V30 25706 H 2444.36 -2.99125 0.907921 0
M  V30 25707 H 2443.58 -2.20661 3.26653 0
M  V30 25708 H 2444.87 -3.2234 3.93668 0
M  V30 25709 H 2444.27 -5.41642 1.6322 0
M  V30 25710 H 2442.82 -6.11905 2.24534 0
M  V30 25711 N 2446.26 -1.43835 -0.644143 0
M  V30 25712 C 2447.5 -1.45216 -1.39983 0
M  V30 25713 C 2447.82 -0.0835837 -1.95421 0
M  V30 25714 O 2449.02 0.025127 -2.71488 0
M  V30 25715 C 2447.48 -2.55592 -2.53379 0
M  V30 25716 C 2447.09 -3.98597 -2.0451 0
M  V30 25717 C 2448.83 -2.66178 -3.30681 0
M  V30 25718 C 2446.74 -5.00421 -3.15171 0
M  V30 25719 H 2445.67 -0.540227 -0.525995 0
M  V30 25720 H 2448.32 -1.69856 -0.694337 0
M  V30 25721 H 2446.7 -2.24168 -3.26442 0
M  V30 25722 H 2447.88 -4.39526 -1.38398 0
M  V30 25723 H 2446.19 -3.92137 -1.40061 0
M  V30 25724 H 2448.79 -3.39426 -4.13152 0
M  V30 25725 H 2449.13 -1.71552 -3.79309 0
M  V30 25726 H 2449.66 -2.96947 -2.64703 0
M  V30 25727 H 2446.4 -5.9663 -2.71501 0
M  V30 25728 H 2445.92 -4.64097 -3.79965 0
M  V30 25729 H 2447.6 -5.23536 -3.80157 0
M  V30 25730 N 2447.73 0.883355 -1.30517 0
M  V30 25731 C 2448.96 1.66839 -1.22362 0
M  V30 25732 C 2449.38 1.87592 0.213263 0
M  V30 25733 O 2448.73 1.42456 1.14072 0
M  V30 25734 C 2448.78 3.04386 -1.95017 0
M  V30 25735 O 2448.51 2.84569 -3.33095 0
M  V30 25736 C 2450.01 3.9882 -1.93539 0
M  V30 25737 H 2447.23 0.520567 -0.42338 0
M  V30 25738 H 2449.77 1.10354 -1.72169 0
M  V30 25739 H 2447.93 3.57598 -1.49004 0
M  V30 25740 H 2448.34 3.71839 -3.69913 0
M  V30 25741 H 2449.81 4.92694 -2.48911 0
M  V30 25742 H 2450.29 4.29569 -0.914702 0
M  V30 25743 H 2450.9 3.51542 -2.3937 0
M  V30 25744 N 2449.21 1.13259 1.09591 0
M  V30 25745 C 2450.12 0.82173 2.19738 0
M  V30 25746 C 2451.14 -0.19299 1.72926 0
M  V30 25747 O 2452.31 -0.0244541 2.01385 0
M  V30 25748 C 2449.38 0.290394 3.45482 0
M  V30 25749 C 2448.44 1.36614 4.06983 0
M  V30 25750 C 2447.67 0.860067 5.26724 0
M  V30 25751 O 2447.9 -0.302981 5.69595 0
M  V30 25752 O 2446.83 1.63362 5.79307 0
M  V30 25753 H 2450.66 1.74193 2.48778 0
M  V30 25754 H 2448.24 0.909915 1.18494 0
M  V30 25755 H 2450.12 -0.00059995 4.214 0
M  V30 25756 H 2448.8 -0.60225 3.18048 0
M  V30 25757 H 2447.7 1.71043 3.32709 0
M  V30 25758 H 2449.04 2.23287 4.38639 0
M  V30 25759 N 2450.69 -1.27539 0.925834 0
M  V30 25760 C 2451.92 -1.98559 0.581544 0
M  V30 25761 C 2452.33 -1.69084 -0.840011 0
M  V30 25762 O 2451.69 -0.950339 -1.55804 0
M  V30 25763 C 2451.74 -3.52635 0.795651 0
M  V30 25764 O 2451.46 -3.81078 2.16128 0
M  V30 25765 C 2452.96 -4.40909 0.459822 0
M  V30 25766 H 2450.18 -0.633718 0.22055 0
M  V30 25767 H 2452.73 -1.62438 1.24234 0
M  V30 25768 H 2450.88 -3.86974 0.181678 0
M  V30 25769 H 2451.3 -4.75672 2.20989 0
M  V30 25770 H 2452.77 -5.48036 0.66034 0
M  V30 25771 H 2453.25 -4.35019 -0.604548 0
M  V30 25772 H 2453.85 -4.12088 1.05185 0
M  V30 25773 N 2452.17 -0.691135 -1.41637 0
M  V30 25774 C 2453.12 -0.0115608 -2.32597 0
M  V30 25775 C 2454.11 0.773269 -1.50721 0
M  V30 25776 O 2455.32 0.679391 -1.66686 0
M  V30 25777 H 2451.69 0.0150613 -0.751849 0
M  V30 25778 H 2453.66 -0.795841 -2.87592 0
M  V30 25779 C 2452.41 0.914113 -3.35469 0
M  V30 25780 H 2451.73 0.319617 -3.9852 0
M  V30 25781 H 2453.17 1.35801 -4.01664 0
M  V30 25782 C 2451.63 2.02821 -2.69008 0
M  V30 25783 O 2452.16 3.11651 -2.53449 0
M  V30 25784 N 2450.37 1.80465 -2.27773 0
M  V30 25785 H 2449.92 0.919573 -2.40628 0
M  V30 25786 H 2449.87 2.55193 -1.8364 0
M  V30 25787 N 2453.65 1.51461 -0.435577 0
M  V30 25788 C 2454.92 1.94662 0.19133 0
M  V30 25789 C 2455.3 1.37414 1.60252 0
M  V30 25790 O 2454.65 0.560497 2.21519 0
M  V30 25791 C 2454.86 3.48582 0.170849 0
M  V30 25792 C 2456.21 4.2292 0.377283 0
M  V30 25793 O 2457.23 3.55328 0.249042 0
M  V30 25794 O 2456.09 5.42829 0.632375 0
M  V30 25795 H 2453.19 0.816572 0.130918 0
M  V30 25796 H 2455.73 1.62368 -0.493429 0
M  V30 25797 H 2454.5 3.82701 -0.815805 0
M  V30 25798 H 2454.13 3.87313 0.898591 0
M  V30 25799 N 2455.12 0.166873 1.56714 0
M  V30 25800 C 2456.37 -0.478271 1.96359 0
M  V30 25801 C 2456.69 -1.64078 1.05373 0
M  V30 25802 O 2455.96 -1.95537 0.119189 0
M  V30 25803 H 2454.54 -0.17968 0.725068 0
M  V30 25804 H 2457.21 0.247018 1.93328 0
M  V30 25805 H 2456.3 -0.84124 3.00549 0
M  V30 25806 N 2456.6 -1.57237 -0.106866 0
M  V30 25807 C 2457.85 -1.8576 -0.813697 0
M  V30 25808 C 2458.18 -0.754346 -1.7895 0
M  V30 25809 O 2457.46 0.238757 -1.93029 0
M  V30 25810 C 2457.74 -3.24897 -1.55288 0
M  V30 25811 C 2457.59 -4.45836 -0.595851 0
M  V30 25812 C 2458.91 -3.61768 -2.50624 0
M  V30 25813 H 2456.03 -0.675665 -0.294357 0
M  V30 25814 H 2458.67 -1.89841 -0.0776138 0
M  V30 25815 H 2456.82 -3.21548 -2.18035 0
M  V30 25816 H 2458.49 -4.61294 0.0237073 0
M  V30 25817 H 2456.74 -4.33703 0.0916953 0
M  V30 25818 H 2457.41 -5.39889 -1.14995 0
M  V30 25819 H 2459.88 -3.65985 -1.97976 0
M  V30 25820 H 2458.76 -4.60076 -2.99368 0
M  V30 25821 H 2459.02 -2.89827 -3.33845 0
M  V30 25822 N 2458.08 0.377381 -1.53015 0
M  V30 25823 C 2459.01 1.46788 -1.81592 0
M  V30 25824 C 2459.99 1.56407 -0.66865 0
M  V30 25825 O 2461.18 1.71167 -0.917367 0
M  V30 25826 C 2458.31 2.84267 -1.99524 0
M  V30 25827 C 2457.26 2.8948 -3.15254 0
M  V30 25828 C 2456.59 4.29521 -3.18459 0
M  V30 25829 C 2457.89 2.58071 -4.54089 0
M  V30 25830 H 2459.58 1.23123 -2.72912 0
M  V30 25831 H 2457.13 0.59086 -1.3132 0
M  V30 25832 H 2459.08 3.60571 -2.18098 0
M  V30 25833 H 2457.8 3.09294 -1.04903 0
M  V30 25834 H 2456.46 2.15626 -2.96481 0
M  V30 25835 H 2456.11 4.51606 -2.21498 0
M  V30 25836 H 2455.81 4.33927 -3.96208 0
M  V30 25837 H 2457.33 5.07715 -3.39202 0
M  V30 25838 H 2458.75 3.2409 -4.72904 0
M  V30 25839 H 2457.15 2.73811 -5.33992 0
M  V30 25840 H 2458.22 1.53364 -4.60008 0
M  V30 25841 N 2459.56 1.44175 0.636506 0
M  V30 25842 C 2460.81 1.45956 1.39211 0
M  V30 25843 C 2461.12 0.0939462 1.95374 0
M  V30 25844 O 2462.33 -0.010729 2.71498 0
M  V30 25845 C 2460.78 2.56932 2.5202 0
M  V30 25846 C 2460.39 3.99676 2.02393 0
M  V30 25847 C 2462.13 2.67928 3.29264 0
M  V30 25848 C 2460.04 5.02086 3.12512 0
M  V30 25849 H 2458.97 0.543009 0.523123 0
M  V30 25850 H 2461.62 1.70222 0.685319 0
M  V30 25851 H 2460 2.25896 3.25249 0
M  V30 25852 H 2461.18 4.40253 1.36065 0
M  V30 25853 H 2459.49 3.92875 1.3798 0
M  V30 25854 H 2462.09 3.41612 4.11346 0
M  V30 25855 H 2462.43 1.73562 3.78394 0
M  V30 25856 H 2462.97 2.98346 2.63124 0
M  V30 25857 H 2459.71 5.98062 2.68333 0
M  V30 25858 H 2459.23 4.66106 3.77499 0
M  V30 25859 H 2460.9 5.25544 3.77375 0
M  V30 25860 N 2461.04 -0.876421 1.30983 0
M  V30 25861 C 2462.28 -1.63136 1.20477 0
M  V30 25862 C 2462.62 -1.92735 -0.238063 0
M  V30 25863 O 2461.89 -1.55437 -1.16917 0
M  V30 25864 C 2462.17 -2.96571 2.04249 0
M  V30 25865 C 2462.03 -2.7389 3.56797 0
M  V30 25866 C 2463.35 -3.97597 1.88691 0
M  V30 25867 H 2460.46 -0.591978 0.439012 0
M  V30 25868 H 2463.11 -1.01358 1.60706 0
M  V30 25869 H 2461.26 -3.49297 1.70069 0
M  V30 25870 H 2462.93 -2.27885 4.01081 0
M  V30 25871 H 2461.17 -2.08238 3.80551 0
M  V30 25872 H 2461.84 -3.68807 4.10713 0
M  V30 25873 H 2464.32 -3.54059 2.1859 0
M  V30 25874 H 2463.19 -4.88858 2.49619 0
M  V30 25875 H 2463.46 -4.33883 0.848419 0
M  V30 25876 N 2462.51 -1.13839 -1.08989 0
M  V30 25877 C 2463.46 -0.815385 -2.1784 0
M  V30 25878 C 2464.46 0.204204 -1.68165 0
M  V30 25879 O 2465.66 0.0608988 -1.79897 0
M  V30 25880 H 2462.04 -0.245928 -0.71065 0
M  V30 25881 H 2464.01 -1.74148 -2.42312 0
M  V30 25882 C 2462.76 -0.302675 -3.4638 0
M  V30 25883 H 2462.08 -1.07857 -3.84977 0
M  V30 25884 H 2463.52 -0.115148 -4.23844 0
M  V30 25885 C 2461.98 0.972535 -3.22558 0
M  V30 25886 O 2462.51 2.04748 -3.45603 0
M  V30 25887 N 2460.72 0.905407 -2.76135 0
M  V30 25888 H 2460.26 0.0304968 -2.57582 0
M  V30 25889 H 2460.22 1.75922 -2.60574 0
M  V30 25890 N 2463.99 1.27046 -0.932584 0
M  V30 25891 C 2465.22 1.98248 -0.592066 0
M  V30 25892 C 2465.64 1.69527 0.831032 0
M  V30 25893 O 2464.99 0.958589 1.55298 0
M  V30 25894 C 2465.04 3.52208 -0.814341 0
M  V30 25895 O 2464.76 3.79926 -2.18146 0
M  V30 25896 C 2466.27 4.40659 -0.483198 0
M  V30 25897 H 2463.49 0.63254 -0.223907 0
M  V30 25898 H 2466.03 1.61777 -1.25094 0
M  V30 25899 H 2464.18 3.86872 -0.202198 0
M  V30 25900 H 2464.6 4.74494 -2.23508 0
M  V30 25901 H 2466.07 5.47678 -0.689394 0
M  V30 25902 H 2466.55 4.35334 0.58147 0
M  V30 25903 H 2467.16 4.11524 -1.07369 0
M  V30 25904 N 2465.47 0.698636 1.41269 0
M  V30 25905 C 2466.7 0.238548 2.06024 0
M  V30 25906 C 2467.12 -1.10472 1.52242 0
M  V30 25907 O 2466.48 -1.69222 0.650653 0
M  V30 25908 C 2466.53 0.210016 3.59988 0
M  V30 25909 O 2465.63 -0.814164 4.04283 0
M  V30 25910 H 2464.97 0.115787 0.653827 0
M  V30 25911 H 2467.5 0.954357 1.80978 0
M  V30 25912 H 2467.51 0.0419154 4.07978 0
M  V30 25913 H 2466.19 1.19037 3.98501 0
M  V30 25914 H 2464.76 -0.615169 3.67791 0
M  V30 25915 N 2466.95 -1.51228 0.443603 0
M  V30 25916 C 2467.9 -2.27901 -0.364676 0
M  V30 25917 C 2468.87 -1.31759 -1.01138 0
M  V30 25918 O 2470.05 -1.60669 -1.02909 0
M  V30 25919 C 2467.19 -3.12863 -1.45638 0
M  V30 25920 C 2466.3 -4.24006 -0.827195 0
M  V30 25921 C 2465.44 -4.96269 -1.89448 0
M  V30 25922 C 2464.48 -5.99324 -1.24406 0
M  V30 25923 N 2463.61 -6.6497 -2.25298 0
M  V30 25924 H 2468.45 -2.96531 0.295517 0
M  V30 25925 H 2465.99 -1.46254 0.157579 0
M  V30 25926 H 2467.95 -3.60454 -2.10069 0
M  V30 25927 H 2466.58 -2.46335 -2.08612 0
M  V30 25928 H 2465.63 -3.80334 -0.071017 0
M  V30 25929 H 2466.94 -4.97821 -0.312394 0
M  V30 25930 H 2466.1 -5.47439 -2.61526 0
M  V30 25931 H 2464.84 -4.22099 -2.44302 0
M  V30 25932 H 2463.84 -5.47441 -0.508771 0
M  V30 25933 H 2465.07 -6.75454 -0.702763 0
M  V30 25934 H 2463.01 -5.93609 -2.7922 0
M  V30 25935 H 2462.93 -7.3457 -1.78726 0
M  V30 25936 H 2464.2 -7.20768 -2.9684 0
M  V30 25937 N 2468.43 -0.175182 -1.56623 0
M  V30 25938 C 2469.66 0.474247 -2.01083 0
M  V30 25939 C 2470.06 1.57089 -1.05449 0
M  V30 25940 O 2469.41 1.83637 -0.0480918 0
M  V30 25941 C 2469.47 1.10905 -3.41965 0
M  V30 25942 C 2469.13 0.153586 -4.56742 0
M  V30 25943 C 2470.13 -0.629538 -5.16074 0
M  V30 25944 C 2467.82 0.0482894 -5.02277 0
M  V30 25945 C 2469.81 -1.50512 -6.19375 0
M  V30 25946 C 2467.5 -0.830875 -6.05425 0
M  V30 25947 C 2468.49 -1.60616 -6.63846 0
M  V30 25948 O 2468.18 -2.47063 -7.64994 0
M  V30 25949 H 2467.91 0.12542 -0.664263 0
M  V30 25950 H 2470.47 -0.275199 -2.03548 0
M  V30 25951 H 2468.7 1.9067 -3.36425 0
M  V30 25952 H 2470.39 1.66108 -3.70355 0
M  V30 25953 H 2471.15 -0.558382 -4.81775 0
M  V30 25954 H 2467.03 0.641531 -4.56514 0
M  V30 25955 H 2470.58 -2.11072 -6.64902 0
M  V30 25956 H 2466.47 -0.903219 -6.3915 0
M  V30 25957 H 2467.24 -2.40621 -7.82332 0
M  V30 25958 N 2469.91 1.57292 0.0985263 0
M  V30 25959 C 2471.32 1.74892 0.653426 0
M  V30 25960 C 2471.67 0.79687 1.79289 0
M  V30 25961 O 2470.79 -0.0254505 2.16385 0
M  V30 25962 C 2471.39 3.17135 1.1921 0
M  V30 25963 C 2469.95 3.36171 1.6931 0
M  V30 25964 C 2469.09 2.70703 0.601246 0
M  V30 25965 H 2472.04 1.58187 -0.127525 0
M  V30 25966 H 2472.07 3.19817 2.06149 0
M  V30 25967 H 2471.58 3.86403 0.362567 0
M  V30 25968 H 2469.68 2.71977 2.54675 0
M  V30 25969 H 2469.79 4.44467 1.78845 0
M  V30 25970 H 2468.16 2.32506 1.03986 0
M  V30 25971 H 2468.94 3.42609 -0.217652 0
M  V30 25972 N 2471.38 -0.369261 1.53213 0
M  V30 25973 C 2472.33 -1.4725 1.80056 0
M  V30 25974 C 2473.33 -1.55609 0.669484 0
M  V30 25975 O 2474.53 -1.5854 0.852355 0
M  V30 25976 H 2470.91 -0.490465 0.570042 0
M  V30 25977 H 2472.88 -1.21812 2.72405 0
M  V30 25978 C 2471.63 -2.84133 2.00408 0
M  V30 25979 H 2470.95 -2.78459 2.86881 0
M  V30 25980 H 2472.39 -3.60515 2.2317 0
M  V30 25981 C 2470.85 -3.27695 0.782139 0
M  V30 25982 O 2471.38 -4.01688 -0.0309499 0
M  V30 25983 N 2469.58 -2.84198 0.606623 0
M  V30 25984 H 2469.13 -2.2415 1.26943 0
M  V30 25985 H 2469.09 -3.13701 -0.209564 0
M  V30 25986 N 2472.86 -1.4451 -0.628851 0
M  V30 25987 C 2473.79 -1.46022 -1.75365 0
M  V30 25988 C 2474.77 -0.318815 -1.59444 0
M  V30 25989 O 2475.96 -0.516131 -1.81296 0
M  V30 25990 C 2473.08 -1.29506 -3.12963 0
M  V30 25991 C 2472.13 -2.47239 -3.47527 0
M  V30 25992 S 2472.96 -4.09764 -3.44751 0
M  V30 25993 C 2474.12 -3.95676 -4.84966 0
M  V30 25994 H 2474.35 -2.41196 -1.73816 0
M  V30 25995 H 2471.88 -1.31836 -0.803663 0
M  V30 25996 H 2473.84 -1.20664 -3.92365 0
M  V30 25997 H 2472.5 -0.358396 -3.12049 0
M  V30 25998 H 2471.7 -2.31552 -4.4766 0
M  V30 25999 H 2471.3 -2.52832 -2.75593 0
M  V30 26000 H 2473.59 -3.59506 -5.74249 0
M  V30 26001 H 2474.53 -4.95647 -5.05707 0
M  V30 26002 H 2474.94 -3.27696 -4.59647 0
M  V30 26003 N 2474.34 0.869463 -1.31446 0
M  V30 26004 C 2475.57 1.65292 -1.23945 0
M  V30 26005 C 2475.98 1.88166 0.197528 0
M  V30 26006 O 2475.32 1.44035 1.14016 0
M  V30 26007 C 2475.38 3.04319 -1.9139 0
M  V30 26008 C 2475.05 3.04551 -3.40731 0
M  V30 26009 C 2476.04 2.82473 -4.36469 0
M  V30 26010 C 2473.73 3.25656 -3.82431 0
M  V30 26011 C 2475.72 2.8148 -5.71881 0
M  V30 26012 C 2473.41 3.24291 -5.17956 0
M  V30 26013 C 2474.41 3.0223 -6.12492 0
M  V30 26014 O 2474.1 3.00711 -7.45539 0
M  V30 26015 H 2473.83 0.522047 -0.429468 0
M  V30 26016 H 2476.38 1.09347 -1.73875 0
M  V30 26017 H 2474.61 3.61992 -1.3601 0
M  V30 26018 H 2476.3 3.64888 -1.77797 0
M  V30 26019 H 2477.07 2.65949 -4.05581 0
M  V30 26020 H 2472.95 3.41858 -3.0928 0
M  V30 26021 H 2476.49 2.64179 -6.45643 0
M  V30 26022 H 2472.39 3.40355 -5.48479 0
M  V30 26023 H 2473.15 3.16769 -7.54718 0
M  V30 26024 N 2475.82 1.14415 1.08383 0
M  V30 26025 C 2477.06 0.913865 1.81042 0
M  V30 26026 C 2477.4 -0.558177 1.86005 0
M  V30 26027 O 2476.67 -1.41347 1.33609 0
M  V30 26028 C 2476.95 1.51575 3.26645 0
M  V30 26029 C 2476.81 3.05766 3.2989 0
M  V30 26030 C 2478.13 1.19281 4.23627 0
M  V30 26031 H 2475.25 0.333425 0.657265 0
M  V30 26032 H 2477.89 1.41414 1.26894 0
M  V30 26033 H 2476.04 1.0903 3.72887 0
M  V30 26034 H 2477.71 3.57143 2.91971 0
M  V30 26035 H 2475.95 3.40202 2.69157 0
M  V30 26036 H 2476.62 3.42985 4.3251 0
M  V30 26037 H 2479.1 1.56063 3.85725 0
M  V30 26038 H 2477.98 1.64027 5.23819 0
M  V30 26039 H 2478.24 0.108145 4.41968 0
M  V30 26040 N 2477.3 -1.26549 0.939309 0
M  V30 26041 C 2478.71 -1.75792 0.628813 0
M  V30 26042 C 2479.06 -1.76541 -0.856015 0
M  V30 26043 O 2478.18 -1.37633 -1.66992 0
M  V30 26044 C 2478.78 -3.19233 1.13471 0
M  V30 26045 C 2477.34 -3.66096 0.874666 0
M  V30 26046 C 2476.48 -2.4564 1.28671 0
M  V30 26047 H 2479.43 -1.12652 1.11782 0
M  V30 26048 H 2479.46 -3.77362 0.487675 0
M  V30 26049 H 2478.97 -3.18656 2.2154 0
M  V30 26050 H 2477.07 -3.72106 -0.191728 0
M  V30 26051 H 2477.18 -4.55001 1.50036 0
M  V30 26052 H 2475.55 -2.44744 0.705152 0
M  V30 26053 H 2476.33 -2.47765 2.37629 0
M  V30 26054 N 2478.77 -0.706118 -1.40896 0
M  V30 26055 C 2480.02 -0.241924 -2.01352 0
M  V30 26056 C 2480.35 1.15885 -1.55834 0
M  V30 26057 O 2479.63 1.78429 -0.774177 0
M  V30 26058 C 2479.91 -0.311374 -3.58751 0
M  V30 26059 C 2479.76 -1.74985 -4.14367 0
M  V30 26060 C 2481.08 0.322845 -4.38914 0
M  V30 26061 H 2478.2 -0.0893815 -0.73156 0
M  V30 26062 H 2480.84 -0.896832 -1.67502 0
M  V30 26063 H 2478.99 0.246234 -3.87719 0
M  V30 26064 H 2480.67 -2.36211 -3.96235 0
M  V30 26065 H 2478.91 -2.28063 -3.69012 0
M  V30 26066 H 2479.58 -1.7499 -5.23529 0
M  V30 26067 H 2482.06 -0.152162 -4.15822 0
M  V30 26068 H 2480.93 0.243759 -5.48358 0
M  V30 26069 H 2481.19 1.40506 -4.19178 0
M  V30 26070 N 2480.25 1.50991 -0.451617 0
M  V30 26071 C 2481.5 2.01801 0.109821 0
M  V30 26072 C 2481.82 1.33692 1.41956 0
M  V30 26073 O 2481.09 0.475984 1.90029 0
M  V30 26074 H 2479.67 0.745728 0.0435753 0
M  V30 26075 H 2482.33 1.85512 -0.59759 0
M  V30 26076 H 2481.43 3.10882 0.275434 0
M  V30 26077 N 2481.73 0.183486 1.56528 0
M  V30 26078 C 2482.69 -0.728185 2.17325 0
M  V30 26079 C 2483.69 -1.14937 1.12455 0
M  V30 26080 O 2484.88 -1.06434 1.37903 0
M  V30 26081 C 2482.01 -1.99269 2.76595 0
M  V30 26082 H 2483.21 -0.19872 2.99241 0
M  V30 26083 H 2480.76 -0.0661116 1.5616 0
M  V30 26084 H 2481.5 -2.56495 1.98446 0
M  V30 26085 H 2481.28 -1.69953 3.53353 0
M  V30 26086 H 2482.77 -2.64305 3.23315 0
M  V30 26087 N 2483.21 -1.57342 -0.0901833 0
M  V30 26088 C 2484.45 -1.86613 -0.793949 0
M  V30 26089 C 2484.79 -0.773284 -1.7814 0
M  V30 26090 O 2484.06 0.21827 -1.93271 0
M  V30 26091 C 2484.34 -3.26525 -1.51833 0
M  V30 26092 C 2484.2 -4.46443 -0.548531 0
M  V30 26093 C 2485.52 -3.64405 -2.46773 0
M  V30 26094 H 2482.64 -0.678749 -0.287174 0
M  V30 26095 H 2485.28 -1.89913 -0.0574742 0
M  V30 26096 H 2483.43 -3.23843 -2.14612 0
M  V30 26097 H 2485.1 -4.61243 0.0726324 0
M  V30 26098 H 2483.34 -4.33581 0.13769 0
M  V30 26099 H 2484.01 -5.41078 -1.09262 0
M  V30 26100 H 2486.49 -3.68064 -1.94083 0
M  V30 26101 H 2485.37 -4.63226 -2.94471 0
M  V30 26102 H 2485.63 -2.93352 -3.30753 0
M  V30 26103 N 2484.69 0.36113 -1.53407 0
M  V30 26104 C 2485.91 1.1238 -1.73719 0
M  V30 26105 C 2486.33 1.82903 -0.468193 0
M  V30 26106 O 2485.69 1.73723 0.559167 0
M  V30 26107 C 2485.74 2.15073 -2.90561 0
M  V30 26108 O 2485.46 1.47421 -4.12551 0
M  V30 26109 C 2486.96 3.03852 -3.22783 0
M  V30 26110 H 2484.18 0.335848 -0.580902 0
M  V30 26111 H 2486.72 0.418693 -2.00168 0
M  V30 26112 H 2484.88 2.81175 -2.66494 0
M  V30 26113 H 2485.29 2.15879 -4.78013 0
M  V30 26114 H 2486.77 3.7188 -4.07933 0
M  V30 26115 H 2487.24 3.68908 -2.38335 0
M  V30 26116 H 2487.85 2.43361 -3.48792 0
M  V30 26117 N 2486.16 1.44842 0.621179 0
M  V30 26118 C 2487.07 1.54983 1.76117 0
M  V30 26119 C 2488.09 0.434957 1.68476 0
M  V30 26120 O 2489.27 0.693726 1.89075 0
M  V30 26121 C 2486.33 1.5007 3.12538 0
M  V30 26122 C 2485.39 2.72488 3.31736 0
M  V30 26123 C 2484.63 2.678 4.61648 0
M  V30 26124 O 2484.85 1.74361 5.43097 0
M  V30 26125 O 2483.78 3.58802 4.83265 0
M  V30 26126 H 2487.61 2.51314 1.70514 0
M  V30 26127 H 2485.19 1.272 0.783621 0
M  V30 26128 H 2487.08 1.49889 3.93842 0
M  V30 26129 H 2485.75 0.568862 3.18662 0
M  V30 26130 H 2484.66 2.78235 2.50072 0
M  V30 26131 H 2485.99 3.64752 3.3048 0
M  V30 26132 N 2487.64 -0.862479 1.31905 0
M  V30 26133 C 2488.57 -1.97673 1.16009 0
M  V30 26134 C 2489.59 -1.6251 0.0971519 0
M  V30 26135 O 2490.78 -1.75127 0.345367 0
M  V30 26136 C 2487.88 -3.30455 0.751849 0
M  V30 26137 C 2487.05 -3.93911 1.9014 0
M  V30 26138 C 2486.11 -5.05017 1.47799 0
M  V30 26139 O 2485.13 -5.25433 2.18881 0
M  V30 26140 N 2486.34 -5.79322 0.369593 0
M  V30 26141 H 2489.1 -2.11854 2.11986 0
M  V30 26142 H 2486.66 -1.03689 1.24339 0
M  V30 26143 H 2488.65 -4.02177 0.451155 0
M  V30 26144 H 2487.22 -3.12383 -0.116538 0
M  V30 26145 H 2486.44 -3.15074 2.36901 0
M  V30 26146 H 2487.73 -4.33042 2.67118 0
M  V30 26147 H 2487.13 -5.65263 -0.2222 0
M  V30 26148 H 2485.69 -6.51673 0.128469 0
M  V30 26149 N 2489.12 -1.14988 -1.07775 0
M  V30 26150 C 2490.37 -0.920266 -1.79932 0
M  V30 26151 C 2490.69 0.554303 -1.86956 0
M  V30 26152 O 2489.96 1.40289 -1.36733 0
M  V30 26153 H 2488.54 -0.337485 -0.666418 0
M  V30 26154 H 2491.2 -1.4497 -1.30267 0
M  V30 26155 H 2490.3 -1.32588 -2.82537 0
M  V30 26156 N 2490.6 1.26049 -0.946007 0
M  V30 26157 C 2491.83 1.97322 -0.61217 0
M  V30 26158 C 2492.24 1.70596 0.818141 0
M  V30 26159 O 2491.58 0.97364 1.55775 0
M  V30 26160 C 2491.64 3.50927 -0.780408 0
M  V30 26161 C 2491.31 4.01313 -2.18626 0
M  V30 26162 C 2492.3 4.12678 -3.16217 0
M  V30 26163 C 2489.99 4.35199 -2.50813 0
M  V30 26164 C 2491.98 4.57231 -4.44093 0
M  V30 26165 C 2489.67 4.79439 -3.78921 0
M  V30 26166 C 2490.67 4.90417 -4.75374 0
M  V30 26167 O 2490.35 5.3368 -6.012 0
M  V30 26168 H 2490.09 0.635978 -0.229145 0
M  V30 26169 H 2492.64 1.61401 -1.27039 0
M  V30 26170 H 2490.87 3.86645 -0.0650544 0
M  V30 26171 H 2492.56 4.0341 -0.448913 0
M  V30 26172 H 2493.33 3.86738 -2.92674 0
M  V30 26173 H 2489.2 4.25886 -1.7647 0
M  V30 26174 H 2492.75 4.65714 -5.19381 0
M  V30 26175 H 2488.65 5.04823 -4.02274 0
M  V30 26176 H 2489.41 5.51888 -6.04452 0
M  V30 26177 N 2492.08 0.71358 1.4052 0
M  V30 26178 C 2493.01 0.0744274 2.33381 0
M  V30 26179 C 2493.99 -0.747709 1.52785 0
M  V30 26180 O 2495.17 -0.69704 1.81259 0
M  V30 26181 C 2492.3 -0.849539 3.36749 0
M  V30 26182 C 2491.26 -0.133172 4.27793 0
M  V30 26183 C 2490.58 -1.17272 5.21681 0
M  V30 26184 C 2491.88 1.01143 5.12413 0
M  V30 26185 H 2493.58 0.850057 2.87079 0
M  V30 26186 H 2491.12 0.410226 1.38033 0
M  V30 26187 H 2493.08 -1.30605 4.0065 0
M  V30 26188 H 2491.8 -1.65704 2.81442 0
M  V30 26189 H 2490.46 0.303491 3.65342 0
M  V30 26190 H 2490.11 -1.97322 4.6268 0
M  V30 26191 H 2489.81 -0.698294 5.83436 0
M  V30 26192 H 2491.33 -1.62937 5.88459 0
M  V30 26193 H 2492.74 0.634374 5.69779 0
M  V30 26194 H 2491.14 1.41409 5.83201 0
M  V30 26195 H 2492.21 1.843 4.48511 0
M  V30 26196 N 2493.55 -1.50749 0.459618 0
M  V30 26197 C 2494.5 -2.29881 -0.354637 0
M  V30 26198 C 2495.5 -1.36674 -1.00083 0
M  V30 26199 O 2496.7 -1.53917 -0.93325 0
M  V30 26200 H 2493.08 -0.74011 -0.133197 0
M  V30 26201 H 2495.05 -2.96533 0.333321 0
M  V30 26202 C 2493.8 -3.16902 -1.43067 0
M  V30 26203 H 2493.12 -3.88524 -0.942813 0
M  V30 26204 H 2494.56 -3.75287 -1.97321 0
M  V30 26205 C 2493.02 -2.33736 -2.42629 0
M  V30 26206 O 2493.55 -2.01244 -3.47654 0
M  V30 26207 N 2491.76 -1.96534 -2.14063 0
M  V30 26208 H 2491.3 -2.23157 -1.28681 0
M  V30 26209 H 2491.26 -1.4119 -2.80914 0
M  V30 26210 N 2495.03 -0.191784 -1.56429 0
M  V30 26211 C 2495.96 0.725657 -2.21938 0
M  V30 26212 C 2496.94 1.22378 -1.18142 0
M  V30 26213 O 2498.13 1.27322 -1.46638 0
M  V30 26214 C 2495.26 1.94667 -2.87615 0
M  V30 26215 C 2494.21 1.58359 -3.97626 0
M  V30 26216 C 2493.54 2.88094 -4.50451 0
M  V30 26217 C 2494.84 0.796042 -5.16198 0
M  V30 26218 H 2496.53 0.179554 -2.98861 0
M  V30 26219 H 2494.08 0.0849212 -1.43749 0
M  V30 26220 H 2496.03 2.59367 -3.32124 0
M  V30 26221 H 2494.76 2.51725 -2.08092 0
M  V30 26222 H 2493.41 0.960185 -3.53802 0
M  V30 26223 H 2493.06 3.43235 -3.67694 0
M  V30 26224 H 2492.76 2.64547 -5.2468 0
M  V30 26225 H 2494.29 3.53789 -4.9766 0
M  V30 26226 H 2495.7 1.34608 -5.57273 0
M  V30 26227 H 2494.1 0.658823 -5.96473 0
M  V30 26228 H 2495.17 -0.203563 -4.84473 0
M  V30 26229 N 2496.51 1.57387 0.0818378 0
M  V30 26230 C 2497.76 1.86386 0.781335 0
M  V30 26231 C 2498.08 0.782374 1.78617 0
M  V30 26232 O 2497.35 -0.190027 1.94976 0
M  V30 26233 H 2495.93 0.687756 0.29155 0
M  V30 26234 H 2498.59 1.94807 0.0603137 0
M  V30 26235 H 2497.69 2.83564 1.30375 0
M  V30 26236 N 2497.99 -0.35299 1.53596 0
M  V30 26237 C 2499.24 -1.09212 1.70051 0
M  V30 26238 C 2499.56 -1.89462 0.46144 0
M  V30 26239 O 2498.83 -1.88745 -0.5246 0
M  V30 26240 H 2497.41 -0.406179 0.626919 0
M  V30 26241 H 2500.07 -0.396551 1.90823 0
M  V30 26242 H 2499.17 -1.77484 2.56722 0
M  V30 26243 N 2499.47 -1.45169 -0.613489 0
M  V30 26244 C 2500.88 -1.29445 -0.933606 0
M  V30 26245 C 2501.08 -0.243137 -2.00028 0
M  V30 26246 O 2500.14 0.364948 -2.49849 0
M  V30 26247 C 2501.45 -2.67157 -1.38013 0
M  V30 26248 C 2503 -2.75007 -1.49466 0
M  V30 26249 C 2503.48 -4.1323 -1.97496 0
M  V30 26250 N 2504.97 -4.15495 -2.04739 0
M  V30 26251 C 2505.7 -5.19311 -2.43112 0
M  V30 26252 N 2505.2 -6.33478 -2.80495 0
M  V30 26253 N 2506.99 -5.06669 -2.43399 0
M  V30 26254 H 2499.14 -2.12202 0.091647 0
M  V30 26255 H 2501.4 -0.947753 -0.0216488 0
M  V30 26256 H 2501.11 -3.45248 -0.670564 0
M  V30 26257 H 2500.98 -2.95226 -2.34779 0
M  V30 26258 H 2503.37 -1.97223 -2.19515 0
M  V30 26259 H 2503.45 -2.50658 -0.510298 0
M  V30 26260 H 2503.1 -4.91497 -1.28036 0
M  V30 26261 H 2503.03 -4.34967 -2.96836 0
M  V30 26262 H 2505.52 -3.33106 -1.78462 0
M  V30 26263 H 2505.83 -7.08492 -3.08639 0
M  V30 26264 H 2504.18 -6.36889 -2.78205 0
M  V30 26265 H 2507.37 -4.16526 -2.13596 0
M  V30 26266 H 2507.54 -5.87696 -2.72979 0
M  V30 26267 N 2500.95 0.855472 -1.32361 0
M  V30 26268 C 2501.88 1.97055 -1.17056 0
M  V30 26269 C 2502.89 1.62456 -0.105769 0
M  V30 26270 O 2504.08 1.74941 -0.35465 0
M  V30 26271 C 2501.18 3.30052 -0.769363 0
M  V30 26272 C 2500.35 3.92897 -1.92226 0
M  V30 26273 C 2499.41 5.04226 -1.50475 0
M  V30 26274 O 2498.44 5.24265 -2.21664 0
M  V30 26275 N 2499.64 5.79118 -0.40031 0
M  V30 26276 H 2502.4 2.10726 -2.13107 0
M  V30 26277 H 2499.97 1.03028 -1.24887 0
M  V30 26278 H 2501.96 4.01933 -0.472477 0
M  V30 26279 H 2500.53 3.1244 0.09997 0
M  V30 26280 H 2499.75 3.13813 -2.38569 0
M  V30 26281 H 2501.04 4.31619 -2.69411 0
M  V30 26282 H 2500.43 5.65373 0.19222 0
M  V30 26283 H 2498.99 6.51596 -0.163027 0
M  V30 26284 N 2502.42 1.15558 1.07164 0
M  V30 26285 C 2503.65 0.955551 1.83512 0
M  V30 26286 C 2504.07 -0.496178 1.82163 0
M  V30 26287 O 2503.42 -1.34417 1.23443 0
M  V30 26288 C 2503.47 1.46438 3.30512 0
M  V30 26289 O 2503.2 2.85924 3.31932 0
M  V30 26290 C 2504.7 1.3061 4.23622 0
M  V30 26291 H 2501.92 0.339254 0.57892 0
M  V30 26292 H 2504.46 1.53376 1.35263 0
M  V30 26293 H 2502.62 0.92865 3.76105 0
M  V30 26294 H 2503.03 3.09036 4.23789 0
M  V30 26295 H 2504.5 1.71056 5.24828 0
M  V30 26296 H 2504.98 0.250518 4.38485 0
M  V30 26297 H 2505.59 1.83101 3.83867 0
M  V30 26298 N 2503.9 -1.25546 0.952678 0
M  V30 26299 C 2504.86 -2.24206 0.475833 0
M  V30 26300 C 2505.86 -1.55234 -0.419401 0
M  V30 26301 O 2507.05 -1.72844 -0.216964 0
M  V30 26302 C 2504.19 -3.39462 -0.312755 0
M  V30 26303 H 2505.38 -2.67905 1.34784 0
M  V30 26304 H 2502.93 -1.37899 0.735763 0
M  V30 26305 H 2503.67 -3.01181 -1.20251 0
M  V30 26306 H 2503.45 -3.90713 0.329473 0
M  V30 26307 H 2504.94 -4.1273 -0.635914 0
M  V30 26308 N 2505.38 -0.721022 -1.40139 0
M  V30 26309 C 2506.8 -0.39514 -1.54631 0
M  V30 26310 C 2507 1.09552 -1.69117 0
M  V30 26311 O 2506.05 1.8816 -1.68381 0
M  V30 26312 C 2507.36 -1.16595 -2.77175 0
M  V30 26313 C 2508.91 -1.15279 -2.90998 0
M  V30 26314 C 2509.39 -1.90587 -4.16462 0
M  V30 26315 N 2510.88 -1.87683 -4.23473 0
M  V30 26316 C 2511.61 -2.42771 -5.1947 0
M  V30 26317 N 2511.11 -3.06439 -6.21343 0
M  V30 26318 N 2512.9 -2.32883 -5.11588 0
M  V30 26319 H 2505.05 -1.68752 -1.28983 0
M  V30 26320 H 2507.32 -0.713578 -0.624108 0
M  V30 26321 H 2507.02 -2.22016 -2.72767 0
M  V30 26322 H 2506.9 -0.761145 -3.69441 0
M  V30 26323 H 2509.28 -0.106754 -2.94907 0
M  V30 26324 H 2509.36 -1.59686 -1.99835 0
M  V30 26325 H 2509.01 -2.95184 -4.13315 0
M  V30 26326 H 2508.94 -1.43596 -5.06644 0
M  V30 26327 H 2511.43 -1.41287 -3.50494 0
M  V30 26328 H 2511.74 -3.45977 -6.91028 0
M  V30 26329 H 2510.09 -3.10525 -6.21771 0
M  V30 26330 H 2513.28 -1.82797 -4.30933 0
M  V30 26331 H 2513.45 -2.76116 -5.86228 0
M  V30 26332 N 2506.86 1.50503 -0.467606 0
M  V30 26333 C 2508.11 2.01498 0.0902514 0
M  V30 26334 C 2508.42 1.35465 1.41098 0
M  V30 26335 O 2509.63 1.77597 2.05357 0
M  V30 26336 C 2508.08 3.59279 0.211357 0
M  V30 26337 C 2507.69 4.34267 -1.10073 0
M  V30 26338 C 2509.43 4.18326 0.72136 0
M  V30 26339 C 2507.34 5.83824 -0.943607 0
M  V30 26340 H 2506.27 0.753067 0.0375038 0
M  V30 26341 H 2508.92 1.73345 -0.601974 0
M  V30 26342 H 2507.3 3.84005 0.967284 0
M  V30 26343 H 2508.48 4.21268 -1.86734 0
M  V30 26344 H 2506.79 3.86813 -1.54157 0
M  V30 26345 H 2509.39 5.27806 0.855888 0
M  V30 26346 H 2509.73 3.79478 1.71179 0
M  V30 26347 H 2510.27 3.97793 0.0229144 0
M  V30 26348 H 2507 6.27138 -1.9073 0
M  V30 26349 H 2506.52 5.99406 -0.217318 0
M  V30 26350 H 2508.2 6.44129 -0.608829 0
M  V30 26351 N 2508.34 0.200077 1.56325 0
M  V30 26352 C 2509.27 -0.713877 2.2232 0
M  V30 26353 C 2510.25 -1.2175 1.1879 0
M  V30 26354 O 2511.43 -1.26543 1.47311 0
M  V30 26355 C 2508.56 -1.93139 2.88643 0
M  V30 26356 C 2507.52 -1.56248 3.9846 0
M  V30 26357 C 2506.84 -2.85701 4.51972 0
M  V30 26358 C 2508.14 -0.768656 5.16613 0
M  V30 26359 H 2509.84 -0.163702 2.98952 0
M  V30 26360 H 2507.38 -0.0772966 1.43792 0
M  V30 26361 H 2509.33 -2.57602 3.33495 0
M  V30 26362 H 2508.06 -2.50618 2.09424 0
M  V30 26363 H 2506.72 -0.941409 3.54306 0
M  V30 26364 H 2506.37 -3.4128 3.69509 0
M  V30 26365 H 2506.07 -2.61761 5.26075 0
M  V30 26366 H 2507.59 -3.51145 4.99529 0
M  V30 26367 H 2509 -1.3165 5.57979 0
M  V30 26368 H 2507.4 -0.627181 5.96814 0
M  V30 26369 H 2508.47 0.229253 4.84358 0
M  V30 26370 N 2509.81 -1.57429 -0.0734901 0
M  V30 26371 C 2510.75 -1.98865 -1.11929 0
M  V30 26372 C 2511.72 -0.865291 -1.37664 0
M  V30 26373 O 2512.91 -1.12745 -1.51066 0
M  V30 26374 C 2510.04 -2.3239 -2.46399 0
M  V30 26375 C 2509.08 -3.54717 -2.36808 0
M  V30 26376 S 2509.91 -5.05618 -1.76383 0
M  V30 26377 C 2511.07 -5.42343 -3.12434 0
M  V30 26378 H 2511.3 -2.87258 -0.766161 0
M  V30 26379 H 2508.84 -1.51804 -0.281961 0
M  V30 26380 H 2510.79 -2.52381 -3.2375 0
M  V30 26381 H 2509.46 -1.44529 -2.78873 0
M  V30 26382 H 2508.65 -3.75686 -3.3597 0
M  V30 26383 H 2508.25 -3.34348 -1.67592 0
M  V30 26384 H 2510.54 -5.4031 -4.08744 0
M  V30 26385 H 2511.49 -6.43151 -2.96246 0
M  V30 26386 H 2511.89 -4.69804 -3.12962 0
M  V30 26387 N 2511.29 0.344839 -1.53781 0
M  V30 26388 C 2512.52 1.10371 -1.74648 0
M  V30 26389 C 2512.93 1.8288 -0.484943 0
M  V30 26390 O 2512.27 1.75178 0.553031 0
M  V30 26391 C 2512.33 2.16301 -2.87149 0
M  V30 26392 C 2512 1.63378 -4.26798 0
M  V30 26393 C 2513 1.08679 -5.08414 0
M  V30 26394 C 2510.68 1.68264 -4.73279 0
M  V30 26395 C 2512.67 0.595681 -6.3461 0
M  V30 26396 C 2510.36 1.18765 -5.99448 0
M  V30 26397 C 2511.36 0.645096 -6.79947 0
M  V30 26398 O 2511.05 0.157485 -8.03746 0
M  V30 26399 H 2510.78 0.335064 -0.587118 0
M  V30 26400 H 2513.33 0.403217 -2.01403 0
M  V30 26401 H 2511.56 2.89905 -2.55915 0
M  V30 26402 H 2513.25 2.77742 -2.95997 0
M  V30 26403 H 2514.02 1.04227 -4.73668 0
M  V30 26404 H 2509.9 2.09434 -4.1068 0
M  V30 26405 H 2513.44 0.171532 -6.97389 0
M  V30 26406 H 2509.34 1.22917 -6.33689 0
M  V30 26407 H 2510.11 0.274893 -8.18038 0
M  V30 26408 N 2512.77 1.45492 0.605781 0
M  V30 26409 C 2513.72 1.54639 1.73752 0
M  V30 26410 C 2514.71 0.416248 1.64206 0
M  V30 26411 O 2515.92 0.592229 1.69978 0
M  V30 26412 H 2512.29 0.485751 0.574064 0
M  V30 26413 H 2514.26 2.4984 1.63165 0
M  V30 26414 C 2513.01 1.53195 3.12132 0
M  V30 26415 H 2512.34 2.39483 3.20137 0
M  V30 26416 H 2513.78 1.63652 3.91144 0
M  V30 26417 C 2512.23 0.256675 3.35921 0
M  V30 26418 O 2512.76 -0.662728 3.96195 0
M  V30 26419 N 2510.97 0.151802 2.90203 0
M  V30 26420 H 2510.52 0.900852 2.41335 0
M  V30 26421 H 2510.48 -0.700646 3.06494 0
M  V30 26422 N 2514.25 -0.848441 1.32813 0
M  V30 26423 C 2515.5 -1.60306 1.23727 0
M  V30 26424 C 2515.82 -1.93476 -0.199366 0
M  V30 26425 O 2515.08 -1.58052 -1.15404 0
M  V30 26426 C 2515.38 -2.92877 2.04836 0
M  V30 26427 C 2515.04 -2.79111 3.5413 0
M  V30 26428 C 2513.71 -2.75063 3.94834 0
M  V30 26429 C 2516.06 -2.64598 4.49041 0
M  V30 26430 C 2513.39 -2.5439 5.2868 0
M  V30 26431 C 2515.74 -2.45459 5.83037 0
M  V30 26432 C 2514.4 -2.39808 6.22935 0
M  V30 26433 H 2513.67 -0.586601 0.452748 0
M  V30 26434 H 2516.32 -0.983714 1.64303 0
M  V30 26435 H 2514.62 -3.58965 1.57008 0
M  V30 26436 H 2516.32 -3.50299 1.9517 0
M  V30 26437 H 2512.91 -2.83088 3.21806 0
M  V30 26438 H 2517.09 -2.66765 4.18509 0
M  V30 26439 H 2512.35 -2.48455 5.58641 0
M  V30 26440 H 2516.52 -2.33211 6.5619 0
M  V30 26441 H 2514.15 -2.23549 7.26588 0
M  V30 26442 N 2515.73 -1.16125 -1.06549 0
M  V30 26443 C 2517.14 -0.94926 -1.60767 0
M  V30 26444 C 2517.49 0.507474 -1.89523 0
M  V30 26445 O 2516.61 1.38018 -1.66673 0
M  V30 26446 C 2517.21 -1.71676 -2.92083 0
M  V30 26447 C 2515.77 -1.54983 -3.43012 0
M  V30 26448 C 2514.91 -1.72715 -2.16944 0
M  V30 26449 H 2517.87 -1.31033 -0.895331 0
M  V30 26450 H 2517.89 -1.19105 -3.61378 0
M  V30 26451 H 2517.4 -2.77695 -2.71122 0
M  V30 26452 H 2515.5 -0.513938 -3.69039 0
M  V30 26453 H 2515.61 -2.33206 -4.18512 0
M  V30 26454 H 2513.98 -1.15435 -2.27039 0
M  V30 26455 H 2514.76 -2.80116 -1.98468 0
M  V30 26456 N 2517.2 1.25039 -0.959323 0
M  V30 26457 C 2518.43 1.96947 -0.633984 0
M  V30 26458 C 2518.85 1.71251 0.794886 0
M  V30 26459 O 2518.2 0.991314 1.53229 0
M  V30 26460 C 2518.26 3.50402 -0.888866 0
M  V30 26461 O 2517.98 3.75214 -2.26156 0
M  V30 26462 C 2519.48 4.39535 -0.57656 0
M  V30 26463 H 2516.7 0.627648 -0.237274 0
M  V30 26464 H 2519.24 1.59087 -1.28498 0
M  V30 26465 H 2517.4 3.86356 -0.284213 0
M  V30 26466 H 2517.81 4.69646 -2.33523 0
M  V30 26467 H 2519.28 5.46093 -0.80541 0
M  V30 26468 H 2519.76 4.36469 0.488998 0
M  V30 26469 H 2520.37 4.09154 -1.16074 0
M  V30 26470 N 2518.68 0.728444 1.39755 0
M  V30 26471 C 2520.1 0.403335 1.54419 0
M  V30 26472 C 2520.3 -1.08653 1.69696 0
M  V30 26473 O 2519.35 -1.87264 1.69376 0
M  V30 26474 C 2520.67 1.18063 2.76553 0
M  V30 26475 C 2522.22 1.16821 2.90382 0
M  V30 26476 C 2522.69 1.92793 4.15446 0
M  V30 26477 N 2524.18 1.89926 4.22472 0
M  V30 26478 C 2524.92 2.45523 5.18176 0
M  V30 26479 N 2524.41 3.0973 6.19709 0
M  V30 26480 N 2526.21 2.35593 5.10345 0
M  V30 26481 H 2518.36 1.69433 1.28086 0
M  V30 26482 H 2520.62 0.716878 0.620314 0
M  V30 26483 H 2520.33 2.23459 2.71586 0
M  V30 26484 H 2520.2 0.780727 3.69032 0
M  V30 26485 H 2522.59 0.122392 2.94846 0
M  V30 26486 H 2522.67 1.60743 1.98986 0
M  V30 26487 H 2522.31 2.97371 4.11744 0
M  V30 26488 H 2522.24 1.46281 5.05875 0
M  V30 26489 H 2524.73 1.43144 3.4974 0
M  V30 26490 H 2525.05 3.49637 6.89184 0
M  V30 26491 H 2523.39 3.13818 6.20116 0
M  V30 26492 H 2526.58 1.8508 4.29957 0
M  V30 26493 H 2526.75 2.79221 5.84756 0
M  V30 26494 N 2520.16 -1.50253 0.475581 0
M  V30 26495 C 2521.12 -2.27162 -0.304976 0
M  V30 26496 C 2522.12 -1.32125 -0.916496 0
M  V30 26497 O 2523.31 -1.55511 -0.784976 0
M  V30 26498 C 2520.45 -3.0923 -1.43491 0
M  V30 26499 H 2521.64 -2.97614 0.369564 0
M  V30 26500 H 2519.19 -1.54602 0.229774 0
M  V30 26501 H 2519.93 -2.43284 -2.14437 0
M  V30 26502 H 2519.71 -3.79077 -1.00217 0
M  V30 26503 H 2521.2 -3.67384 -1.98541 0
M  V30 26504 N 2521.64 -0.208365 -1.56217 0
M  V30 26505 C 2522.89 0.426042 -1.97558 0
M  V30 26506 C 2523.21 1.61227 -1.09686 0
M  V30 26507 O 2522.48 1.95152 -0.17099 0
M  V30 26508 H 2521.06 0.160393 -0.729577 0
M  V30 26509 H 2523.72 -0.298189 -1.92605 0
M  V30 26510 H 2522.82 0.761259 -3.02674 0
M  V30 26511 N 2523.12 1.57465 0.0651402 0
M  V30 26512 C 2524.05 2.00884 1.10356 0
M  V30 26513 C 2525.06 0.915811 1.34598 0
M  V30 26514 O 2526.25 1.19362 1.32721 0
M  V30 26515 C 2523.35 2.33832 2.45308 0
M  V30 26516 C 2522.52 3.65065 2.40928 0
M  V30 26517 C 2521.58 3.85608 3.5804 0
M  V30 26518 O 2520.61 4.57115 3.39167 0
M  V30 26519 N 2521.81 3.2847 4.78631 0
M  V30 26520 H 2524.58 2.90579 0.733756 0
M  V30 26521 H 2522.14 1.599 0.253691 0
M  V30 26522 H 2524.13 2.44742 3.22309 0
M  V30 26523 H 2522.7 1.49992 2.74265 0
M  V30 26524 H 2521.92 3.64847 1.49266 0
M  V30 26525 H 2523.21 4.51222 2.35109 0
M  V30 26526 H 2522.6 2.70442 4.96868 0
M  V30 26527 H 2521.16 3.44819 5.53121 0
M  V30 26528 N 2524.59 -0.336679 1.53962 0
M  V30 26529 C 2525.83 -1.08451 1.73256 0
M  V30 26530 C 2526.2 -1.85669 0.48897 0
M  V30 26531 O 2527.4 -2.62922 0.559047 0
M  V30 26532 C 2525.67 -1.99522 2.96522 0
M  V30 26533 S 2527.23 -2.81435 3.3666 0
M  V30 26534 H 2524.05 -0.366336 0.60936 0
M  V30 26535 H 2526.65 -0.36209 1.92118 0
M  V30 26536 H 2525.35 -1.41607 3.85196 0
M  V30 26537 H 2524.88 -2.76191 2.80147 0
M  V30 26538 H 2526.9 -4.01962 2.90932 0
M  V30 26539 N 2526.07 -1.45812 -0.598057 0
M  V30 26540 C 2527.32 -1.50028 -1.3541 0
M  V30 26541 C 2527.64 -0.147211 -1.94444 0
M  V30 26542 O 2526.91 0.82454 -1.77702 0
M  V30 26543 H 2525.49 -0.552526 -0.502717 0
M  V30 26544 H 2528.15 -1.81835 -0.701574 0
M  V30 26545 H 2527.25 -2.24444 -2.16867 0
M  V30 26546 N 2527.55 0.841385 -1.33261 0
M  V30 26547 C 2528.8 1.59332 -1.24329 0
M  V30 26548 C 2529.12 1.94057 0.19153 0
M  V30 26549 O 2528.39 1.60751 1.11964 0
M  V30 26550 H 2526.97 0.590755 -0.457184 0
M  V30 26551 H 2529.63 1.00569 -1.66949 0
M  V30 26552 H 2528.73 2.52439 -1.83524 0
M  V30 26553 N 2529.03 1.16688 1.05932 0
M  V30 26554 C 2530.28 0.952062 1.79063 0
M  V30 26555 C 2530.61 -0.518597 1.87148 0
M  V30 26556 O 2529.88 -1.38481 1.36577 0
M  V30 26557 C 2530.17 1.58469 3.23357 0
M  V30 26558 C 2530.02 3.12694 3.2333 0
M  V30 26559 C 2531.34 1.2824 4.21002 0
M  V30 26560 H 2528.46 0.347292 0.650044 0
M  V30 26561 H 2531.1 1.44074 1.23866 0
M  V30 26562 H 2529.25 1.16915 3.7049 0
M  V30 26563 H 2530.92 3.63255 2.84329 0
M  V30 26564 H 2529.16 3.45834 2.6188 0
M  V30 26565 H 2529.84 3.52082 4.25138 0
M  V30 26566 H 2532.31 1.6421 3.82327 0
M  V30 26567 H 2531.19 1.75101 5.20222 0
M  V30 26568 H 2531.45 0.201869 4.41639 0
M  V30 26569 N 2530.51 -1.24529 0.96594 0
M  V30 26570 C 2531.76 -1.91855 0.622471 0
M  V30 26571 C 2532.07 -1.76359 -0.845975 0
M  V30 26572 O 2533.28 -2.38359 -1.29989 0
M  V30 26573 C 2531.73 -3.43854 1.06266 0
M  V30 26574 C 2531.34 -3.68039 2.55444 0
M  V30 26575 C 2533.08 -4.17041 0.792256 0
M  V30 26576 C 2530.99 -5.136 2.93205 0
M  V30 26577 H 2529.92 -0.71835 0.229105 0
M  V30 26578 H 2532.57 -1.41204 1.17191 0
M  V30 26579 H 2530.95 -3.93531 0.441545 0
M  V30 26580 H 2532.13 -3.28969 3.22671 0
M  V30 26581 H 2530.44 -3.08134 2.80076 0
M  V30 26582 H 2533.04 -5.24281 1.05041 0
M  V30 26583 H 2533.38 -4.15414 -0.271511 0
M  V30 26584 H 2533.92 -3.73308 1.37426 0
M  V30 26585 H 2530.65 -5.20348 3.98645 0
M  V30 26586 H 2530.17 -5.53675 2.3066 0
M  V30 26587 H 2531.85 -5.81818 2.83014 0
M  V30 26588 N 2531.99 -0.735845 -1.39367 0
M  V30 26589 C 2533.21 -0.294429 -2.04794 0
M  V30 26590 C 2533.63 1.07104 -1.5548 0
M  V30 26591 O 2532.99 1.67694 -0.720067 0
M  V30 26592 C 2533.04 -0.288134 -3.6035 0
M  V30 26593 O 2532.76 -1.59971 -4.07849 0
M  V30 26594 C 2534.26 0.169344 -4.42976 0
M  V30 26595 H 2531.48 -0.128562 -0.658569 0
M  V30 26596 H 2534.02 -0.999732 -1.78397 0
M  V30 26597 H 2532.18 0.368287 -3.85645 0
M  V30 26598 H 2532.59 -1.51384 -5.02179 0
M  V30 26599 H 2534.07 0.12259 -5.51864 0
M  V30 26600 H 2534.54 1.21464 -4.2207 0
M  V30 26601 H 2535.15 -0.457543 -4.22832 0
M  V30 26602 N 2533.46 1.49999 -0.483543 0
M  V30 26603 C 2534.7 2.04294 0.065711 0
M  V30 26604 C 2535.07 1.35662 1.35867 0
M  V30 26605 O 2536.27 1.80581 1.99108 0
M  V30 26606 C 2534.54 3.56642 0.232695 0
M  V30 26607 S 2536.1 4.32537 0.738712 0
M  V30 26608 H 2532.92 0.710929 0.010063 0
M  V30 26609 H 2535.52 1.84253 -0.653527 0
M  V30 26610 H 2534.22 4.04143 -0.713918 0
M  V30 26611 H 2533.75 3.81058 0.977684 0
M  V30 26612 H 2535.77 4.53649 2.0104 0
M  V30 26613 N 2534.94 0.216646 1.56104 0
M  V30 26614 C 2536.17 -0.421378 2.02564 0
M  V30 26615 C 2536.58 -1.53693 1.09653 0
M  V30 26616 O 2535.94 -1.82196 0.105242 0
M  V30 26617 C 2535.99 -0.957604 3.48586 0
M  V30 26618 O 2535.71 0.113466 4.37953 0
M  V30 26619 C 2537.21 -1.66936 4.10667 0
M  V30 26620 H 2534.43 -0.103654 0.662946 0
M  V30 26621 H 2536.98 0.331664 2.01793 0
M  V30 26622 H 2535.13 -1.66094 3.49988 0
M  V30 26623 H 2535.55 -0.28884 5.23704 0
M  V30 26624 H 2537.02 -1.99662 5.14625 0
M  V30 26625 H 2537.5 -2.58077 3.55377 0
M  V30 26626 H 2538.1 -1.01135 4.131 0
M  V30 26627 N 2536.42 -1.57498 -0.0567885 0
M  V30 26628 C 2537.67 -1.87605 -0.751584 0
M  V30 26629 C 2537.99 -0.810691 -1.77349 0
M  V30 26630 O 2537.26 0.158984 -1.95254 0
M  V30 26631 H 2535.84 -0.692307 -0.280571 0
M  V30 26632 H 2538.5 -1.94878 -0.0293141 0
M  V30 26633 H 2537.6 -2.85603 -1.25847 0
M  V30 26634 N 2537.9 0.328509 -1.54138 0
M  V30 26635 C 2538.84 1.40408 -1.83178 0
M  V30 26636 C 2539.81 1.51609 -0.678521 0
M  V30 26637 O 2541 1.66908 -0.924459 0
M  V30 26638 C 2538.14 2.76842 -2.0604 0
M  V30 26639 C 2537.25 2.74312 -3.33732 0
M  V30 26640 C 2536.39 4.02561 -3.46581 0
M  V30 26641 C 2535.43 3.94319 -4.68166 0
M  V30 26642 N 2534.56 5.14287 -4.77968 0
M  V30 26643 H 2539.4 1.14944 -2.7494 0
M  V30 26644 H 2536.94 0.556514 -1.36167 0
M  V30 26645 H 2538.9 3.5615 -2.17286 0
M  V30 26646 H 2537.53 3.00626 -1.17575 0
M  V30 26647 H 2536.58 1.87024 -3.31249 0
M  V30 26648 H 2537.89 2.64103 -4.23144 0
M  V30 26649 H 2537.05 4.90298 -3.57342 0
M  V30 26650 H 2535.79 4.15569 -2.55252 0
M  V30 26651 H 2534.79 3.04966 -4.57467 0
M  V30 26652 H 2536.02 3.8288 -5.60874 0
M  V30 26653 H 2533.96 5.27811 -3.89553 0
M  V30 26654 H 2533.88 5.06394 -5.61338 0
M  V30 26655 H 2535.15 6.03753 -4.93055 0
M  V30 26656 N 2539.38 1.46127 0.590316 0
M  V30 26657 C 2540.62 1.51266 1.35079 0
M  V30 26658 C 2540.95 0.160745 1.93534 0
M  V30 26659 O 2540.23 -0.826925 1.76046 0
M  V30 26660 C 2540.51 2.60535 2.48584 0
M  V30 26661 C 2540.37 4.05231 1.95213 0
M  V30 26662 C 2541.68 2.65946 3.50658 0
M  V30 26663 H 2538.8 0.550701 0.489794 0
M  V30 26664 H 2541.45 1.78025 0.663856 0
M  V30 26665 H 2539.6 2.37848 3.07181 0
M  V30 26666 H 2541.27 4.39181 1.41131 0
M  V30 26667 H 2539.51 4.1507 1.26093 0
M  V30 26668 H 2540.18 4.77402 2.77113 0
M  V30 26669 H 2542.66 2.86319 3.01929 0
M  V30 26670 H 2541.53 3.44234 4.27545 0
M  V30 26671 H 2541.79 1.71701 4.07396 0
M  V30 26672 N 2540.85 -0.834306 1.33705 0
M  V30 26673 C 2542.1 -1.58481 1.24766 0
M  V30 26674 C 2542.42 -1.94735 -0.183741 0
M  V30 26675 O 2543.62 -2.68608 -0.395187 0
M  V30 26676 C 2542.08 -2.85872 2.18643 0
M  V30 26677 C 2541.69 -2.56965 3.66978 0
M  V30 26678 C 2543.43 -3.63895 2.18587 0
M  V30 26679 C 2541.34 -3.8048 4.52757 0
M  V30 26680 H 2540.27 -0.594764 0.463435 0
M  V30 26681 H 2542.92 -0.919523 1.58799 0
M  V30 26682 H 2541.3 -3.53967 1.77549 0
M  V30 26683 H 2542.47 -1.97053 4.16541 0
M  V30 26684 H 2540.79 -1.92238 3.69369 0
M  V30 26685 H 2543.39 -4.55586 2.79902 0
M  V30 26686 H 2543.73 -3.99163 1.18214 0
M  V30 26687 H 2544.26 -3.02731 2.58068 0
M  V30 26688 H 2541 -3.5034 5.54023 0
M  V30 26689 H 2540.52 -4.39715 4.07935 0
M  V30 26690 H 2542.2 -4.48012 4.66792 0
M  V30 26691 N 2542.33 -1.17248 -1.05312 0
M  V30 26692 C 2543.58 -0.958225 -1.77939 0
M  V30 26693 C 2543.9 0.514523 -1.8809 0
M  V30 26694 O 2543.17 1.37357 -1.39678 0
M  V30 26695 H 2541.75 -0.351545 -0.659109 0
M  V30 26696 H 2544.41 -1.47701 -1.27163 0
M  V30 26697 H 2543.51 -1.38551 -2.79661 0
M  V30 26698 N 2543.81 1.24015 -0.972531 0
M  V30 26699 C 2544.74 2.23695 -0.451209 0
M  V30 26700 C 2545.72 1.55435 0.477351 0
M  V30 26701 O 2546.91 1.8404 0.407615 0
M  V30 26702 C 2544.03 3.36906 0.34812 0
M  V30 26703 C 2543.08 4.23276 -0.523429 0
M  V30 26704 S 2543.91 4.98083 -1.96655 0
M  V30 26705 C 2545.07 6.1475 -1.17615 0
M  V30 26706 H 2545.3 2.67569 -1.29593 0
M  V30 26707 H 2542.83 1.3337 -0.777927 0
M  V30 26708 H 2544.79 4.02563 0.803316 0
M  V30 26709 H 2543.45 2.91581 1.16787 0
M  V30 26710 H 2542.65 5.03919 0.0905295 0
M  V30 26711 H 2542.25 3.62646 -0.914549 0
M  V30 26712 H 2544.54 6.76111 -0.433553 0
M  V30 26713 H 2545.48 6.80516 -1.95712 0
M  V30 26714 H 2545.89 5.60163 -0.698394 0
M  V30 26715 N 2545.29 0.743226 1.38974 0
M  V30 26716 C 2546.24 0.084553 2.27843 0
M  V30 26717 C 2547.22 -0.704068 1.44678 0
M  V30 26718 O 2548.41 -0.571725 1.67512 0
M  V30 26719 C 2545.54 -0.815722 3.33468 0
M  V30 26720 C 2544.63 -0.0208098 4.24095 0
M  V30 26721 N 2545.02 1.01029 4.95608 0
M  V30 26722 C 2543.32 -0.249215 4.45303 0
M  V30 26723 C 2544.02 1.49034 5.62284 0
M  V30 26724 N 2543 0.807471 5.37569 0
M  V30 26725 H 2546.8 0.874409 2.80591 0
M  V30 26726 H 2544.31 0.57831 1.51754 0
M  V30 26727 H 2546.31 -1.30314 3.9601 0
M  V30 26728 H 2544.97 -1.60465 2.82279 0
M  V30 26729 H 2545.98 1.39185 4.98847 0
M  V30 26730 H 2542.66 -1.0123 4.05042 0
M  V30 26731 H 2544.05 2.34864 6.29514 0
M  V30 26732 N 2546.77 -1.4974 0.491491 0
M  V30 26733 C 2548.01 -2.02721 -0.0564735 0
M  V30 26734 C 2548.35 -1.37121 -1.37519 0
M  V30 26735 O 2547.62 -0.503678 -1.87865 0
M  V30 26736 C 2547.9 -3.59434 -0.218988 0
M  V30 26737 C 2547.76 -4.35577 1.12219 0
M  V30 26738 C 2549.08 -4.29411 -0.964081 0
M  V30 26739 H 2546.19 -0.736754 -0.0190497 0
M  V30 26740 H 2548.84 -1.78859 0.641053 0
M  V30 26741 H 2546.99 -3.79896 -0.813098 0
M  V30 26742 H 2548.66 -4.26634 1.75445 0
M  V30 26743 H 2546.9 -3.9851 1.71384 0
M  V30 26744 H 2547.57 -5.43555 0.961889 0
M  V30 26745 H 2550.05 -4.13546 -0.460305 0
M  V30 26746 H 2548.92 -5.38829 -1.04662 0
M  V30 26747 H 2549.19 -3.93992 -2.00556 0
M  V30 26748 N 2548.24 -0.224922 -1.55987 0
M  V30 26749 C 2549.49 0.405064 -1.97999 0
M  V30 26750 C 2549.81 1.60054 -1.1139 0
M  V30 26751 O 2549.08 1.9496 -0.191679 0
M  V30 26752 H 2547.66 0.152645 -0.731238 0
M  V30 26753 H 2550.33 -0.318601 -1.92278 0
M  V30 26754 H 2549.42 0.729113 -3.03464 0
M  V30 26755 N 2549.72 1.57526 0.0484352 0
M  V30 26756 C 2550.97 1.88001 0.741624 0
M  V30 26757 C 2551.29 0.820085 1.76917 0
M  V30 26758 O 2550.56 -0.148627 1.95335 0
M  V30 26759 H 2549.14 0.693785 0.276896 0
M  V30 26760 H 2551.8 1.94891 0.0189788 0
M  V30 26761 H 2550.9 2.86266 1.24331 0
M  V30 26762 N 2551.2 -0.32033 1.5431 0
M  V30 26763 C 2552.15 -1.41447 1.8465 0
M  V30 26764 C 2553.14 -1.53401 0.718651 0
M  V30 26765 O 2554.35 -1.55748 0.902362 0
M  V30 26766 H 2550.72 -0.472081 0.585358 0
M  V30 26767 H 2552.69 -1.13084 2.76142 0
M  V30 26768 C 2551.44 -2.77614 2.09346 0
M  V30 26769 H 2550.77 -2.69191 2.95595 0
M  V30 26770 H 2552.21 -3.53233 2.34526 0
M  V30 26771 C 2550.67 -3.25041 0.885996 0
M  V30 26772 O 2551.2 -4.01583 0.0968597 0
M  V30 26773 N 2549.4 -2.82124 0.696732 0
M  V30 26774 H 2548.95 -2.19998 1.3401 0
M  V30 26775 H 2548.91 -3.14209 -0.109657 0
M  V30 26776 N 2552.68 -1.46438 -0.582558 0
M  V30 26777 C 2553.93 -1.51456 -1.33812 0
M  V30 26778 C 2554.25 -0.167826 -1.94276 0
M  V30 26779 O 2553.52 0.805646 -1.78567 0
M  V30 26780 H 2552.1 -0.557827 -0.496828 0
M  V30 26781 H 2554.76 -1.82569 -0.682249 0
M  V30 26782 H 2553.86 -2.26731 -2.14475 0
M  V30 26783 N 2554.16 0.827204 -1.34146 0
M  V30 26784 C 2555.38 1.62019 -1.29479 0
M  V30 26785 C 2555.81 1.87655 0.129259 0
M  V30 26786 O 2555.16 1.44902 1.08964 0
M  V30 26787 C 2555.21 2.94064 -2.08707 0
M  V30 26788 O 2554.32 3.85931 -1.45366 0
M  V30 26789 H 2553.66 0.492919 -0.444889 0
M  V30 26790 H 2556.19 1.02826 -1.76884 0
M  V30 26791 H 2556.2 3.43666 -2.19904 0
M  V30 26792 H 2554.87 2.74728 -3.12245 0
M  V30 26793 H 2553.45 3.44439 -1.42885 0
M  V30 26794 N 2555.63 1.17805 1.04688 0
M  V30 26795 C 2556.58 0.867428 2.10855 0
M  V30 26796 C 2557.57 -0.160178 1.60101 0
M  V30 26797 O 2558.76 0.0429781 1.76948 0
M  V30 26798 C 2555.89 0.388072 3.411 0
M  V30 26799 C 2554.98 1.44739 3.98637 0
M  V30 26800 N 2555.37 2.6622 4.3007 0
M  V30 26801 C 2553.66 1.30644 4.26437 0
M  V30 26802 C 2554.37 3.34325 4.76027 0
M  V30 26803 N 2553.34 2.61705 4.76457 0
M  V30 26804 H 2557.14 1.79098 2.33026 0
M  V30 26805 H 2554.66 1.06752 1.22384 0
M  V30 26806 H 2556.65 0.147068 4.16641 0
M  V30 26807 H 2555.31 -0.529215 3.20358 0
M  V30 26808 H 2556.33 3.03141 4.19912 0
M  V30 26809 H 2553 0.451202 4.15055 0
M  V30 26810 H 2554.39 4.38112 5.09419 0
M  V30 26811 N 2557.11 -1.23497 0.979094 0
M  V30 26812 C 2558.36 -1.91498 0.645974 0
M  V30 26813 C 2558.68 -1.76785 -0.822917 0
M  V30 26814 O 2557.95 -1.14642 -1.58852 0
M  V30 26815 H 2556.53 -0.708763 0.235931 0
M  V30 26816 H 2559.19 -1.50149 1.24262 0
M  V30 26817 H 2558.29 -2.98948 0.896464 0
M  V30 26818 N 2558.59 -0.750586 -1.38578 0
M  V30 26819 C 2559.84 -0.305408 -2.00184 0
M  V30 26820 C 2560.17 1.112 -1.59577 0
M  V30 26821 O 2559.42 1.77541 -0.823267 0
M  V30 26822 C 2559.72 -0.372435 -3.55454 0
M  V30 26823 C 2559.39 -1.74507 -4.15762 0
M  V30 26824 C 2558.05 -2.12073 -4.31947 0
M  V30 26825 C 2560.4 -2.64561 -4.49062 0
M  V30 26826 C 2557.73 -3.3917 -4.78728 0
M  V30 26827 C 2560.08 -3.91046 -4.97258 0
M  V30 26828 C 2558.74 -4.28685 -5.1165 0
M  V30 26829 H 2558.01 -0.111757 -0.732524 0
M  V30 26830 H 2560.66 -0.96048 -1.65671 0
M  V30 26831 H 2558.97 0.366203 -3.90085 0
M  V30 26832 H 2560.66 -0.00960966 -4.00999 0
M  V30 26833 H 2557.25 -1.44304 -4.03577 0
M  V30 26834 H 2561.44 -2.36804 -4.36162 0
M  V30 26835 H 2556.69 -3.68255 -4.88056 0
M  V30 26836 H 2560.87 -4.60971 -5.21995 0
M  V30 26837 H 2558.49 -5.27232 -5.47659 0
M  V30 26838 N 2560.07 1.49477 -0.499425 0
M  V30 26839 C 2561.03 2.27618 0.268798 0
M  V30 26840 C 2562.03 1.33566 0.89536 0
M  V30 26841 O 2563.22 1.5674 0.760136 0
M  V30 26842 C 2560.35 3.11474 1.38553 0
M  V30 26843 H 2561.55 2.96989 -0.416865 0
M  V30 26844 H 2559.1 1.54217 -0.254341 0
M  V30 26845 H 2559.84 2.46665 2.10539 0
M  V30 26846 H 2559.62 3.80623 0.94173 0
M  V30 26847 H 2561.11 3.70496 1.92671 0
M  V30 26848 N 2561.55 0.233191 1.55865 0
M  V30 26849 C 2562.51 -0.658676 2.19532 0
M  V30 26850 C 2563.51 -1.11301 1.16055 0
M  V30 26851 O 2564.7 -1.01993 1.4122 0
M  V30 26852 C 2561.83 -1.90368 2.82794 0
M  V30 26853 H 2563.03 -0.103418 2.99722 0
M  V30 26854 H 2560.58 -0.016397 1.56291 0
M  V30 26855 H 2561.31 -2.50052 2.06505 0
M  V30 26856 H 2561.1 -1.58626 3.58581 0
M  V30 26857 H 2562.59 -2.53885 3.3156 0
M  V30 26858 N 2563.03 -1.57549 -0.0400806 0
M  V30 26859 C 2563.99 -2.04819 -1.02868 0
M  V30 26860 C 2564.99 -0.950411 -1.29707 0
M  V30 26861 O 2566.18 -1.21437 -1.24895 0
M  V30 26862 C 2563.31 -2.4558 -2.36438 0
M  V30 26863 H 2564.5 -2.93409 -0.620579 0
M  V30 26864 H 2562.06 -1.53649 -0.28664 0
M  V30 26865 H 2562.79 -1.60113 -2.82018 0
M  V30 26866 H 2562.58 -3.25717 -2.18291 0
M  V30 26867 H 2564.07 -2.82618 -3.07436 0
M  V30 26868 N 2564.5 0.312142 -1.54478 0
M  V30 26869 C 2565.43 1.38954 -1.87654 0
M  V30 26870 C 2566.41 1.5343 -0.734385 0
M  V30 26871 O 2567.6 1.67122 -0.989139 0
M  V30 26872 C 2564.73 2.75549 -2.11401 0
M  V30 26873 C 2563.68 2.75849 -3.27248 0
M  V30 26874 C 2563.01 4.15628 -3.36389 0
M  V30 26875 C 2564.31 2.38579 -4.64626 0
M  V30 26876 H 2566 1.11437 -2.77889 0
M  V30 26877 H 2563.55 0.534631 -1.33707 0
M  V30 26878 H 2565.5 3.50996 -2.33195 0
M  V30 26879 H 2564.23 3.04567 -1.17926 0
M  V30 26880 H 2562.89 2.02857 -3.0536 0
M  V30 26881 H 2562.53 4.41805 -2.40452 0
M  V30 26882 H 2562.23 4.16732 -4.14256 0
M  V30 26883 H 2563.76 4.92871 -3.60431 0
M  V30 26884 H 2565.17 3.03741 -4.86225 0
M  V30 26885 H 2563.57 2.50916 -5.45125 0
M  V30 26886 H 2564.64 1.33715 -4.66099 0
M  V30 26887 N 2565.98 1.46745 0.574784 0
M  V30 26888 C 2566.93 1.57908 1.68326 0
M  V30 26889 C 2567.9 0.422955 1.60625 0
M  V30 26890 O 2569.08 0.640742 1.7972 0
M  V30 26891 C 2566.22 1.5828 3.06662 0
M  V30 26892 C 2565.34 2.84683 3.2493 0
M  V30 26893 C 2564.47 2.76507 4.53561 0
M  V30 26894 C 2563.51 3.97814 4.652 0
M  V30 26895 N 2562.65 3.87977 5.85165 0
M  V30 26896 H 2567.49 2.52589 1.58122 0
M  V30 26897 H 2565.02 1.25305 0.77053 0
M  V30 26898 H 2566.98 1.5648 3.86743 0
M  V30 26899 H 2565.61 0.671249 3.15744 0
M  V30 26900 H 2564.66 2.96428 2.384 0
M  V30 26901 H 2565.98 3.74566 3.29397 0
M  V30 26902 H 2565.13 2.72857 5.4188 0
M  V30 26903 H 2563.87 1.84278 4.51545 0
M  V30 26904 H 2562.87 4.01787 3.75296 0
M  V30 26905 H 2564.1 4.91148 4.68988 0
M  V30 26906 H 2562.05 2.9854 5.84132 0
M  V30 26907 H 2561.96 4.71521 5.90935 0
M  V30 26908 H 2563.23 3.88315 6.75893 0
M  V30 26909 N 2567.46 -0.820078 1.34583 0
M  V30 26910 C 2568.88 -1.11362 1.14327 0
M  V30 26911 C 2569.08 -2.01429 -0.0533294 0
M  V30 26912 O 2568.13 -2.41778 -0.728002 0
M  V30 26913 C 2569.44 -1.7576 2.43986 0
M  V30 26914 C 2570.99 -1.88242 2.50068 0
M  V30 26915 C 2571.47 -2.56055 3.79737 0
M  V30 26916 N 2572.96 -2.63552 3.80913 0
M  V30 26917 C 2573.69 -3.16758 4.77966 0
M  V30 26918 N 2573.19 -3.70506 5.85403 0
M  V30 26919 N 2574.98 -3.15186 4.65419 0
M  V30 26920 H 2567.13 -0.221059 2.11247 0
M  V30 26921 H 2569.4 -0.160633 0.934292 0
M  V30 26922 H 2569.1 -1.17044 3.31653 0
M  V30 26923 H 2568.98 -2.75599 2.57536 0
M  V30 26924 H 2571.36 -2.46105 1.62839 0
M  V30 26925 H 2571.44 -0.872964 2.40443 0
M  V30 26926 H 2571.09 -1.98845 4.67358 0
M  V30 26927 H 2571.02 -3.5751 3.86645 0
M  V30 26928 H 2573.51 -2.25457 3.03278 0
M  V30 26929 H 2573.82 -4.09364 6.5547 0
M  V30 26930 H 2572.17 -3.68742 5.89113 0
M  V30 26931 H 2575.36 -2.72465 3.80632 0
M  V30 26932 H 2575.53 -3.56347 5.41222 0
M  V30 26933 N 2568.94 -1.18359 -1.04062 0
M  V30 26934 C 2570.16 -1.00448 -1.81452 0
M  V30 26935 C 2570.59 0.44239 -1.82824 0
M  V30 26936 O 2569.95 1.31739 -1.24557 0
M  V30 26937 C 2569.99 -1.5639 -3.24923 0
M  V30 26938 O 2569.1 -0.78528 -4.04854 0
M  V30 26939 H 2568.44 -0.355845 -0.560598 0
M  V30 26940 H 2570.97 -1.57116 -1.31056 0
M  V30 26941 H 2570.98 -1.59103 -3.757 0
M  V30 26942 H 2569.65 -2.61705 -3.23239 0
M  V30 26943 H 2568.23 -0.830462 -3.63535 0
M  V30 26944 N 2570.42 1.22976 -0.98563 0
M  V30 26945 C 2571.65 1.95275 -0.674637 0
M  V30 26946 C 2572.05 1.73113 0.763453 0
M  V30 26947 O 2571.4 1.02271 1.52599 0
M  V30 26948 C 2571.46 3.48267 -0.891658 0
M  V30 26949 C 2571.12 3.94154 -2.31282 0
M  V30 26950 C 2572.12 4.02409 -3.29186 0
M  V30 26951 C 2569.8 4.26999 -2.64531 0
M  V30 26952 C 2571.8 4.42871 -4.58415 0
M  V30 26953 C 2569.49 4.67142 -3.93982 0
M  V30 26954 C 2570.48 4.75045 -4.90736 0
M  V30 26955 O 2570.17 5.14283 -6.17874 0
M  V30 26956 H 2569.9 0.628366 -0.249262 0
M  V30 26957 H 2572.46 1.57278 -1.32109 0
M  V30 26958 H 2570.69 3.86243 -0.18803 0
M  V30 26959 H 2572.38 4.01778 -0.577028 0
M  V30 26960 H 2573.14 3.77232 -3.0483 0
M  V30 26961 H 2569.02 4.20057 -1.8993 0
M  V30 26962 H 2572.57 4.48954 -5.33934 0
M  V30 26963 H 2568.46 4.91769 -4.1813 0
M  V30 26964 H 2569.23 5.32379 -6.21704 0
M  V30 26965 N 2571.89 0.757924 1.38178 0
M  V30 26966 C 2573.14 0.31602 2.00019 0
M  V30 26967 C 2573.47 -1.10352 1.60164 0
M  V30 26968 O 2572.72 -1.77102 0.832671 0
M  V30 26969 C 2573.02 0.391281 3.55252 0
M  V30 26970 C 2572.69 1.76709 4.14831 0
M  V30 26971 C 2571.35 2.1436 4.30817 0
M  V30 26972 C 2573.7 2.66939 4.47653 0
M  V30 26973 C 2571.03 3.41704 4.76922 0
M  V30 26974 C 2573.38 3.93678 4.95177 0
M  V30 26975 C 2572.05 4.31392 5.09369 0
M  V30 26976 H 2571.32 0.11564 0.731921 0
M  V30 26977 H 2573.96 0.969252 1.6516 0
M  V30 26978 H 2572.27 -0.345511 3.90274 0
M  V30 26979 H 2573.97 0.0308755 4.00988 0
M  V30 26980 H 2570.56 1.46442 4.02806 0
M  V30 26981 H 2574.74 2.39114 4.349 0
M  V30 26982 H 2570 3.70838 4.86096 0
M  V30 26983 H 2574.17 4.63733 5.19543 0
M  V30 26984 H 2571.8 5.30129 5.44855 0
M  V30 26985 N 2573.37 -1.4921 0.507345 0
M  V30 26986 C 2574.6 -2.06876 -0.0315386 0
M  V30 26987 C 2575.02 -1.36687 -1.30239 0
M  V30 26988 O 2574.37 -0.447183 -1.76937 0
M  V30 26989 C 2574.42 -3.60394 -0.282563 0
M  V30 26990 O 2574.14 -4.27943 0.937911 0
M  V30 26991 C 2575.65 -4.34791 -0.864376 0
M  V30 26992 H 2572.87 -0.670595 0.0233166 0
M  V30 26993 H 2575.41 -1.91908 0.706518 0
M  V30 26994 H 2573.56 -3.75044 -0.970614 0
M  V30 26995 H 2573.98 -5.19745 0.704658 0
M  V30 26996 H 2575.45 -5.43058 -0.989568 0
M  V30 26997 H 2575.93 -3.97695 -1.86375 0
M  V30 26998 H 2576.54 -4.24763 -0.213598 0
M  V30 26999 N 2574.85 -0.241454 -1.55739 0
M  V30 27000 C 2575.78 0.693053 -2.18471 0
M  V30 27001 C 2576.8 1.14284 -1.15944 0
M  V30 27002 O 2577.98 1.07055 -1.42834 0
M  V30 27003 C 2575.08 1.95306 -2.76963 0
M  V30 27004 C 2574.26 1.65561 -4.04856 0
M  V30 27005 C 2573.32 2.76467 -4.47719 0
M  V30 27006 O 2572.34 2.44085 -5.14209 0
M  V30 27007 N 2573.54 4.05848 -4.15051 0
M  V30 27008 H 2576.31 0.156335 -2.99292 0
M  V30 27009 H 2573.87 -0.0612036 -1.61784 0
M  V30 27010 H 2575.86 2.6873 -3.02599 0
M  V30 27011 H 2574.43 2.39972 -2.00331 0
M  V30 27012 H 2573.65 0.756818 -3.86867 0
M  V30 27013 H 2574.94 1.43145 -4.88249 0
M  V30 27014 H 2574.34 4.34992 -3.61661 0
M  V30 27015 H 2572.9 4.75754 -4.45535 0
M  V30 27016 N 2576.33 1.57568 0.0317248 0
M  V30 27017 C 2577.55 1.93802 0.73863 0
M  V30 27018 C 2577.98 0.841238 1.6824 0
M  V30 27019 O 2577.34 -0.203235 1.80157 0
M  V30 27020 C 2577.38 3.29093 1.47411 0
M  V30 27021 O 2576.49 3.21155 2.58715 0
M  V30 27022 H 2575.83 0.633527 0.198844 0
M  V30 27023 H 2578.36 2.04596 -0.0120072 0
M  V30 27024 H 2578.37 3.6392 1.84462 0
M  V30 27025 H 2577.04 4.08484 0.781916 0
M  V30 27026 H 2575.62 2.97955 2.24226 0
M  V30 27027 N 2577.81 -0.303946 1.54641 0
M  V30 27028 C 2578.74 -1.39633 1.81756 0
M  V30 27029 C 2579.75 -1.46965 0.700376 0
M  V30 27030 O 2580.94 -1.49336 0.977807 0
M  V30 27031 C 2578.04 -2.78027 1.93789 0
M  V30 27032 C 2577.21 -2.93663 3.24161 0
M  V30 27033 C 2576.27 -4.12538 3.26648 0
M  V30 27034 O 2575.3 -4.04764 4.00194 0
M  V30 27035 N 2576.5 -5.23032 2.51829 0
M  V30 27036 H 2579.27 -1.16729 2.76033 0
M  V30 27037 H 2576.83 -0.494006 1.54179 0
M  V30 27038 H 2578.82 -3.55792 1.92858 0
M  V30 27039 H 2577.39 -2.93891 1.0652 0
M  V30 27040 H 2576.61 -2.03036 3.37891 0
M  V30 27041 H 2577.9 -3.0102 4.10201 0
M  V30 27042 H 2577.29 -5.32228 1.91702 0
M  V30 27043 H 2575.85 -5.99142 2.56654 0
M  V30 27044 N 2579.28 -1.47047 -0.566994 0
M  V30 27045 C 2580.53 -1.52867 -1.32198 0
M  V30 27046 C 2580.85 -0.188422 -1.94088 0
M  V30 27047 O 2580.12 0.786661 -1.79411 0
M  V30 27048 H 2578.7 -0.563065 -0.490884 0
M  V30 27049 H 2581.37 -1.83282 -0.662847 0
M  V30 27050 H 2580.46 -2.28993 -2.12058 0
M  V30 27051 N 2580.76 0.812929 -1.35016 0
M  V30 27052 C 2581.67 1.9561 -1.29514 0
M  V30 27053 C 2582.69 1.72834 -0.201101 0
M  V30 27054 O 2583.86 1.9677 -0.429355 0
M  V30 27055 C 2580.93 3.30086 -1.06039 0
M  V30 27056 C 2579.99 3.65802 -2.24695 0
M  V30 27057 C 2579.22 4.9386 -2.02331 0
M  V30 27058 O 2579.45 5.61803 -0.986563 0
M  V30 27059 O 2578.38 5.27687 -2.89534 0
M  V30 27060 H 2582.21 2.03198 -2.25709 0
M  V30 27061 H 2579.79 0.94979 -1.15323 0
M  V30 27062 H 2581.67 4.10605 -0.947702 0
M  V30 27063 H 2580.35 3.23443 -0.128909 0
M  V30 27064 H 2579.26 2.85685 -2.41526 0
M  V30 27065 H 2580.59 3.77141 -3.16268 0
M  V30 27066 N 2582.24 1.18909 1.03433 0
M  V30 27067 C 2583.49 0.982699 1.76142 0
M  V30 27068 C 2583.8 -0.487919 1.89417 0
M  V30 27069 O 2585.01 -0.81299 2.59042 0
M  V30 27070 C 2583.46 1.70929 3.16719 0
M  V30 27071 C 2583.07 3.21965 3.11517 0
M  V30 27072 C 2584.82 1.58594 3.93761 0
M  V30 27073 C 2582.72 3.87236 4.46992 0
M  V30 27074 H 2581.65 0.364058 0.660286 0
M  V30 27075 H 2584.3 1.42349 1.15798 0
M  V30 27076 H 2582.69 1.1963 3.77498 0
M  V30 27077 H 2583.86 3.80339 2.60152 0
M  V30 27078 H 2582.18 3.34513 2.47972 0
M  V30 27079 H 2584.77 2.04715 4.93959 0
M  V30 27080 H 2585.12 0.539214 4.12793 0
M  V30 27081 H 2585.65 2.07209 3.39572 0
M  V30 27082 H 2582.39 4.91984 4.33165 0
M  V30 27083 H 2581.91 3.33651 4.98435 0
M  V30 27084 H 2583.59 3.90468 5.15891 0
M  V30 27085 N 2583.72 -1.22452 0.992137 0
M  V30 27086 C 2584.65 -2.23678 0.500063 0
M  V30 27087 C 2585.66 -1.57696 -0.404435 0
M  V30 27088 O 2586.85 -1.77299 -0.206691 0
M  V30 27089 C 2583.95 -3.37617 -0.294651 0
M  V30 27090 C 2583.13 -4.33185 0.605799 0
M  V30 27091 C 2582.18 -5.26021 -0.137077 0
M  V30 27092 O 2581.21 -5.67196 0.477263 0
M  V30 27093 N 2582.41 -5.62874 -1.4196 0
M  V30 27094 H 2585.18 -2.66528 1.3705 0
M  V30 27095 H 2582.74 -1.36744 0.866765 0
M  V30 27096 H 2584.73 -3.96709 -0.80026 0
M  V30 27097 H 2583.3 -2.93856 -1.06618 0
M  V30 27098 H 2582.52 -3.72423 1.29209 0
M  V30 27099 H 2583.81 -4.9398 1.21905 0
M  V30 27100 H 2583.21 -5.31393 -1.94006 0
M  V30 27101 H 2581.76 -6.24387 -1.87041 0
M  V30 27102 N 2585.2 -0.765242 -1.37774 0
M  V30 27103 C 2586.44 -0.336101 -2.00604 0
M  V30 27104 C 2586.8 1.07363 -1.59659 0
M  V30 27105 O 2586.09 1.72709 -0.829595 0
M  V30 27106 C 2586.28 -0.410115 -3.55039 0
M  V30 27107 C 2586.11 -1.82549 -4.10981 0
M  V30 27108 C 2584.88 -2.44469 -4.42225 0
M  V30 27109 C 2587.08 -2.78399 -4.32433 0
M  V30 27110 N 2585.06 -3.77847 -4.83844 0
M  V30 27111 C 2586.43 -3.96564 -4.76589 0
M  V30 27112 C 2588.49 -2.75771 -4.14554 0
M  V30 27113 C 2587.19 -5.12475 -5.04739 0
M  V30 27114 C 2589.22 -3.9085 -4.43836 0
M  V30 27115 C 2588.58 -5.07755 -4.88226 0
M  V30 27116 H 2584.68 -0.169895 -0.763322 0
M  V30 27117 H 2587.26 -0.997686 -1.67195 0
M  V30 27118 H 2585.43 0.221257 -3.87769 0
M  V30 27119 H 2587.17 0.0404573 -4.0468 0
M  V30 27120 H 2583.92 -1.96139 -4.31076 0
M  V30 27121 H 2584.35 -4.46405 -5.08971 0
M  V30 27122 H 2588.99 -1.86565 -3.79412 0
M  V30 27123 H 2586.71 -6.02287 -5.38773 0
M  V30 27124 H 2590.29 -3.90149 -4.31596 0
M  V30 27125 H 2589.17 -5.95324 -5.1045 0
M  V30 27126 N 2586.67 1.48939 -0.515251 0
M  V30 27127 C 2587.61 2.26186 0.302478 0
M  V30 27128 C 2588.59 1.31391 0.957871 0
M  V30 27129 O 2589.77 1.60707 0.98517 0
M  V30 27130 C 2586.9 3.07165 1.42713 0
M  V30 27131 C 2585.94 4.17224 0.884662 0
M  V30 27132 S 2586.78 5.3498 -0.235861 0
M  V30 27133 C 2587.93 6.19517 0.891622 0
M  V30 27134 H 2588.16 2.95195 -0.353128 0
M  V30 27135 H 2585.7 1.51442 -0.30078 0
M  V30 27136 H 2587.66 3.54402 2.07146 0
M  V30 27137 H 2586.32 2.37598 2.05441 0
M  V30 27138 H 2585.51 4.73454 1.72792 0
M  V30 27139 H 2585.11 3.72652 0.317296 0
M  V30 27140 H 2587.4 6.53326 1.79366 0
M  V30 27141 H 2588.35 7.07145 0.367627 0
M  V30 27142 H 2588.75 5.5234 1.16538 0
M  V30 27143 N 2588.15 0.249709 1.55609 0
M  V30 27144 C 2589.57 -0.105075 1.59254 0
M  V30 27145 C 2589.77 -1.56692 1.26688 0
M  V30 27146 O 2588.83 -2.31178 1.01554 0
M  V30 27147 C 2590.14 0.246644 2.99687 0
M  V30 27148 C 2591.69 0.191173 3.12416 0
M  V30 27149 C 2592.16 0.516965 4.55073 0
M  V30 27150 N 2593.65 0.46757 4.60834 0
M  V30 27151 C 2594.39 0.69278 5.692 0
M  V30 27152 N 2593.88 0.981266 6.85816 0
M  V30 27153 N 2595.68 0.623296 5.58634 0
M  V30 27154 H 2587.83 1.20301 1.75047 0
M  V30 27155 H 2590.09 0.484239 0.814995 0
M  V30 27156 H 2589.8 1.26234 3.28265 0
M  V30 27157 H 2589.67 -0.424896 3.74799 0
M  V30 27158 H 2592.06 -0.815198 2.83617 0
M  V30 27159 H 2592.14 0.896605 2.39572 0
M  V30 27160 H 2591.78 1.5209 4.84594 0
M  V30 27161 H 2591.71 -0.209975 5.26181 0
M  V30 27162 H 2594.2 0.25344 3.77049 0
M  V30 27163 H 2594.52 1.14046 7.64339 0
M  V30 27164 H 2592.86 1.01877 6.87493 0
M  V30 27165 H 2596.05 0.397945 4.66405 0
M  V30 27166 H 2596.23 0.802206 6.43015 0
M  V30 27167 N 2589.63 -1.57583 -0.0233682 0
M  V30 27168 C 2591.04 -1.7781 -0.569239 0
M  V30 27169 C 2591.39 -0.881503 -1.75283 0
M  V30 27170 O 2590.52 -0.0778186 -2.1626 0
M  V30 27171 C 2591.11 -3.22461 -1.03944 0
M  V30 27172 C 2589.67 -3.43866 -1.53078 0
M  V30 27173 C 2588.82 -2.73264 -0.471406 0
M  V30 27174 H 2591.77 -1.57398 0.202852 0
M  V30 27175 H 2591.79 -3.29289 -1.90655 0
M  V30 27176 H 2591.3 -3.87693 -0.177796 0
M  V30 27177 H 2589.4 -2.83818 -2.41409 0
M  V30 27178 H 2589.52 -4.52494 -1.57436 0
M  V30 27179 H 2587.88 -2.37202 -0.927746 0
M  V30 27180 H 2588.66 -3.41181 0.380868 0
M  V30 27181 N 2591.11 0.29574 -1.548 0
M  V30 27182 C 2592.33 1.05343 -1.78655 0
M  V30 27183 C 2592.76 1.79973 -0.546926 0
M  V30 27184 O 2592.12 1.7419 0.502732 0
M  V30 27185 C 2592.17 2.00555 -2.99683 0
M  V30 27186 O 2591.27 3.08948 -2.73176 0
M  V30 27187 H 2590.61 0.302356 -0.591166 0
M  V30 27188 H 2593.14 0.331562 -2.01896 0
M  V30 27189 H 2593.15 2.42926 -3.27797 0
M  V30 27190 H 2591.83 1.45643 -3.89565 0
M  V30 27191 H 2590.4 2.71055 -2.56093 0
M  V30 27192 N 2592.59 1.47346 0.559187 0
M  V30 27193 C 2593.53 1.59684 1.66642 0
M  V30 27194 C 2594.5 0.439968 1.60167 0
M  V30 27195 O 2595.69 0.659768 1.7903 0
M  V30 27196 C 2592.83 1.61523 3.04966 0
M  V30 27197 C 2591.94 2.88114 3.21892 0
M  V30 27198 C 2591.08 2.81302 4.50603 0
M  V30 27199 C 2590.12 4.02725 4.60954 0
M  V30 27200 N 2589.25 3.94161 5.81017 0
M  V30 27201 H 2594.09 2.54252 1.55434 0
M  V30 27202 H 2591.63 1.26115 0.757196 0
M  V30 27203 H 2593.59 1.60573 3.85061 0
M  V30 27204 H 2592.22 0.7047 3.15014 0
M  V30 27205 H 2591.27 2.9894 2.35242 0
M  V30 27206 H 2592.58 3.78038 3.25405 0
M  V30 27207 H 2591.74 2.78589 5.38955 0
M  V30 27208 H 2590.48 1.89057 4.49565 0
M  V30 27209 H 2589.48 4.05745 3.71014 0
M  V30 27210 H 2590.71 4.96095 4.63753 0
M  V30 27211 H 2588.65 3.04718 5.80933 0
M  V30 27212 H 2588.57 4.77763 5.859 0
M  V30 27213 H 2589.84 3.95462 6.71737 0
M  V30 27214 N 2594.07 -0.805758 1.35445 0
M  V30 27215 C 2594.98 -1.94921 1.30549 0
M  V30 27216 C 2595.99 -1.72725 0.210264 0
M  V30 27217 O 2597.17 -1.9654 0.439784 0
M  V30 27218 C 2594.23 -3.29519 1.07788 0
M  V30 27219 C 2593.29 -3.64605 2.26632 0
M  V30 27220 C 2592.53 -4.9278 2.04947 0
M  V30 27221 O 2592.75 -5.61272 1.01634 0
M  V30 27222 O 2591.68 -5.26144 2.92329 0
M  V30 27223 H 2595.51 -2.01998 2.26783 0
M  V30 27224 H 2593.09 -0.943661 1.15825 0
M  V30 27225 H 2594.98 -4.10097 0.969464 0
M  V30 27226 H 2593.65 -3.2337 0.14606 0
M  V30 27227 H 2592.56 -2.844 2.43038 0
M  V30 27228 H 2593.89 -3.75459 3.18263 0
M  V30 27229 N 2595.54 -1.19456 -1.02801 0
M  V30 27230 C 2596.51 -0.934992 -2.09262 0
M  V30 27231 C 2597.51 0.0848733 -1.60576 0
M  V30 27232 O 2598.7 -0.149963 -1.73553 0
M  V30 27233 C 2595.83 -0.405369 -3.38481 0
M  V30 27234 H 2597.02 -1.8792 -2.33722 0
M  V30 27235 H 2594.57 -1.00834 -1.19425 0
M  V30 27236 H 2595.31 0.544843 -3.1969 0
M  V30 27237 H 2595.09 -1.14072 -3.7514 0
M  V30 27238 H 2596.58 -0.242879 -4.16893 0
M  V30 27239 N 2597.02 1.21924 -0.998617 0
M  V30 27240 C 2598.27 1.90446 -0.676358 0
M  V30 27241 C 2598.59 1.78072 0.794688 0
M  V30 27242 O 2597.86 1.17155 1.57008 0
M  V30 27243 H 2596.44 0.70492 -0.247177 0
M  V30 27244 H 2599.1 1.48154 -1.26635 0
M  V30 27245 H 2598.2 2.97484 -0.94391 0
M  V30 27246 N 2598.5 0.772537 1.37367 0
M  V30 27247 C 2599.73 0.348118 2.03646 0
M  V30 27248 C 2600.14 -1.03479 1.58394 0
M  V30 27249 O 2599.48 -1.67198 0.76095 0
M  V30 27250 C 2599.54 0.313467 3.58131 0
M  V30 27251 C 2599.21 1.6411 4.26517 0
M  V30 27252 C 2600.2 2.59368 4.50582 0
M  V30 27253 C 2597.89 1.91575 4.64332 0
M  V30 27254 C 2599.88 3.80298 5.1152 0
M  V30 27255 C 2597.57 3.12775 5.2499 0
M  V30 27256 C 2598.57 4.06956 5.48521 0
M  V30 27257 O 2598.26 5.26022 6.07911 0
M  V30 27258 H 2597.99 0.143765 0.660536 0
M  V30 27259 H 2600.54 1.04775 1.76667 0
M  V30 27260 H 2598.77 -0.442549 3.84159 0
M  V30 27261 H 2600.46 -0.08399 4.05813 0
M  V30 27262 H 2601.23 2.39431 4.2178 0
M  V30 27263 H 2597.11 1.19096 4.45351 0
M  V30 27264 H 2600.65 4.53823 5.29803 0
M  V30 27265 H 2596.55 3.32598 5.53217 0
M  V30 27266 H 2597.31 5.26858 6.26389 0
M  V30 27267 N 2599.98 -1.48664 0.523142 0
M  V30 27268 C 2601.39 -1.86525 0.0809325 0
M  V30 27269 C 2601.74 -1.43338 -1.33972 0
M  V30 27270 O 2600.86 -0.821044 -2.00219 0
M  V30 27271 C 2601.46 -3.3851 0.140096 0
M  V30 27272 C 2600.02 -3.75589 -0.246882 0
M  V30 27273 C 2599.17 -2.72702 0.502893 0
M  V30 27274 H 2602.12 -1.40666 0.734761 0
M  V30 27275 H 2602.14 -3.74909 -0.649879 0
M  V30 27276 H 2601.65 -3.69912 1.17418 0
M  V30 27277 H 2599.75 -3.49801 -1.28337 0
M  V30 27278 H 2599.86 -4.79019 0.0879701 0
M  V30 27279 H 2598.23 -2.54651 -0.0500134 0
M  V30 27280 H 2599.01 -3.06947 1.53748 0
M  V30 27281 N 2601.46 -0.257958 -1.55475 0
M  V30 27282 C 2602.7 0.36424 -1.98384 0
M  V30 27283 C 2603.02 1.58256 -1.14954 0
M  V30 27284 O 2604.22 2.27661 -1.47928 0
M  V30 27285 C 2602.68 0.699417 -3.53038 0
M  V30 27286 C 2602.29 -0.498124 -4.45222 0
M  V30 27287 C 2604.03 1.28519 -4.04578 0
M  V30 27288 C 2601.94 -0.138487 -5.91238 0
M  V30 27289 H 2600.87 0.139867 -0.740914 0
M  V30 27290 H 2603.52 -0.359915 -1.79936 0
M  V30 27291 H 2601.9 1.48201 -3.67223 0
M  V30 27292 H 2603.08 -1.2753 -4.42801 0
M  V30 27293 H 2601.39 -0.999574 -4.04225 0
M  V30 27294 H 2603.99 1.56779 -5.11199 0
M  V30 27295 H 2604.33 2.21338 -3.52584 0
M  V30 27296 H 2604.86 0.565268 -3.93763 0
M  V30 27297 H 2601.6 -1.0341 -6.47292 0
M  V30 27298 H 2601.12 0.602269 -5.96769 0
M  V30 27299 H 2602.8 0.275417 -6.46414 0
M  V30 27300 N 2602.93 1.57593 0.0150108 0
M  V30 27301 C 2604.18 1.89086 0.702082 0
M  V30 27302 C 2604.5 0.858308 1.75762 0
M  V30 27303 O 2605.7 1.06295 2.49827 0
M  V30 27304 C 2604.16 3.35606 1.29986 0
M  V30 27305 C 2603.77 4.47125 0.279929 0
M  V30 27306 C 2605.51 3.7623 1.96599 0
M  V30 27307 C 2603.42 5.84713 0.886846 0
M  V30 27308 H 2602.35 0.705527 0.265985 0
M  V30 27309 H 2605 1.83449 -0.0430731 0
M  V30 27310 H 2603.38 3.36033 2.09519 0
M  V30 27311 H 2604.55 4.5819 -0.489711 0
M  V30 27312 H 2602.87 4.15424 -0.284908 0
M  V30 27313 H 2605.47 4.76352 2.42885 0
M  V30 27314 H 2605.81 3.08957 2.79019 0
M  V30 27315 H 2606.34 3.78038 1.23822 0
M  V30 27316 H 2603.08 6.55421 0.101761 0
M  V30 27317 H 2602.6 5.7734 1.626 0
M  V30 27318 H 2604.28 6.31893 1.38999 0
M  V30 27319 N 2604.41 -0.287527 1.54955 0
M  V30 27320 C 2605.36 -1.37499 1.87608 0
M  V30 27321 C 2606.35 -1.51842 0.751028 0
M  V30 27322 O 2607.56 -1.53799 0.935196 0
M  V30 27323 H 2603.94 -0.459558 0.595239 0
M  V30 27324 H 2605.91 -1.07201 2.78479 0
M  V30 27325 C 2604.66 -2.73111 2.15188 0
M  V30 27326 H 2603.98 -2.6286 3.01238 0
M  V30 27327 H 2605.42 -3.48179 2.41966 0
M  V30 27328 C 2603.88 -3.23089 0.954743 0
M  V30 27329 O 2604.41 -4.01287 0.18202 0
M  V30 27330 N 2602.61 -2.80583 0.756418 0
M  V30 27331 H 2602.16 -2.17106 1.38646 0
M  V30 27332 H 2602.12 -3.14371 -0.0429839 0
M  V30 27333 N 2605.89 -1.47641 -0.551365 0
M  V30 27334 C 2606.85 -1.6011 -1.64004 0
M  V30 27335 C 2607.85 -0.475787 -1.536 0
M  V30 27336 O 2609.04 -0.741016 -1.57653 0
M  V30 27337 C 2606.18 -1.55113 -3.03567 0
M  V30 27338 H 2607.37 -2.57163 -1.54295 0
M  V30 27339 H 2604.92 -1.35918 -0.771752 0
M  V30 27340 H 2605.66 -0.594576 -3.18803 0
M  V30 27341 H 2605.44 -2.36789 -3.12527 0
M  V30 27342 H 2606.93 -1.66989 -3.82759 0
M  V30 27343 N 2607.37 0.798563 -1.3587 0
M  V30 27344 C 2608.78 1.37312 -1.26501 0
M  V30 27345 C 2609.13 1.95949 0.0991554 0
M  V30 27346 O 2608.26 1.9189 1.00036 0
M  V30 27347 C 2608.85 2.49635 -2.29059 0
M  V30 27348 C 2607.41 3.02931 -2.23405 0
M  V30 27349 C 2606.56 1.75946 -2.14333 0
M  V30 27350 H 2609.51 0.600945 -1.46882 0
M  V30 27351 H 2609.53 3.28406 -1.92172 0
M  V30 27352 H 2609.04 2.06927 -3.28333 0
M  V30 27353 H 2607.14 3.50082 -1.27568 0
M  V30 27354 H 2607.25 3.60367 -3.1571 0
M  V30 27355 H 2605.62 1.97817 -1.60439 0
M  V30 27356 H 2606.4 1.35379 -3.1548 0
M  V30 27357 N 2608.85 1.19999 1.02166 0
M  V30 27358 C 2610.07 1.03252 1.79295 0
M  V30 27359 C 2610.49 -0.41847 1.84104 0
M  V30 27360 O 2609.85 -1.29061 1.29033 0
M  V30 27361 C 2609.9 1.60324 3.24004 0
M  V30 27362 O 2609.62 2.99745 3.19507 0
M  V30 27363 C 2611.12 1.4846 4.17701 0
M  V30 27364 H 2608.34 0.363502 0.56401 0
M  V30 27365 H 2610.88 1.58975 1.28636 0
M  V30 27366 H 2609.04 1.08733 3.71828 0
M  V30 27367 H 2609.45 3.26733 4.103 0
M  V30 27368 H 2610.93 1.93162 5.171 0
M  V30 27369 H 2611.4 0.436269 4.37028 0
M  V30 27370 H 2612.01 1.99217 3.75756 0
M  V30 27371 N 2610.32 -1.21392 1.00507 0
M  V30 27372 C 2611.27 -2.23764 0.565535 0
M  V30 27373 C 2612.24 -1.61 -0.408438 0
M  V30 27374 O 2613.43 -1.88257 -0.31047 0
M  V30 27375 C 2610.57 -3.4495 -0.101606 0
M  V30 27376 C 2609.68 -4.22187 0.915554 0
M  V30 27377 C 2608.81 -5.30741 0.220667 0
M  V30 27378 C 2607.85 -5.99709 1.22537 0
M  V30 27379 N 2606.99 -6.99879 0.557954 0
M  V30 27380 H 2611.83 -2.60722 1.44319 0
M  V30 27381 H 2609.37 -1.28125 0.722666 0
M  V30 27382 H 2611.33 -4.14127 -0.505432 0
M  V30 27383 H 2609.96 -3.0872 -0.942976 0
M  V30 27384 H 2609.01 -3.52188 1.43762 0
M  V30 27385 H 2610.32 -4.69652 1.68013 0
M  V30 27386 H 2609.47 -6.06228 -0.239262 0
M  V30 27387 H 2608.21 -4.84283 -0.576315 0
M  V30 27388 H 2607.22 -5.22994 1.69581 0
M  V30 27389 H 2608.44 -6.48255 2.02344 0
M  V30 27390 H 2606.39 -6.55633 -0.21937 0
M  V30 27391 H 2606.31 -7.45413 1.26078 0
M  V30 27392 H 2607.57 -7.79406 0.121232 0
M  V30 27393 N 2611.8 -0.779811 -1.36955 0
M  V30 27394 C 2613.03 -0.359434 -2.03754 0
M  V30 27395 C 2613.45 1.02103 -1.58809 0
M  V30 27396 O 2612.8 1.65318 -0.773053 0
M  V30 27397 C 2612.85 -0.402631 -3.59251 0
M  V30 27398 O 2612.57 -1.72865 -4.02553 0
M  V30 27399 C 2614.08 0.0283289 -4.43291 0
M  V30 27400 H 2611.3 -0.149449 -0.654145 0
M  V30 27401 H 2613.84 -1.05598 -1.75126 0
M  V30 27402 H 2611.99 0.24541 -3.86622 0
M  V30 27403 H 2612.41 -1.67283 -4.97108 0
M  V30 27404 H 2613.88 -0.0530436 -5.51975 0
M  V30 27405 H 2614.36 1.07975 -4.25721 0
M  V30 27406 H 2614.97 -0.591832 -4.21162 0
M  V30 27407 N 2613.28 1.48384 -0.531019 0
M  V30 27408 C 2614.23 2.29639 0.231183 0
M  V30 27409 C 2615.2 1.37431 0.932839 0
M  V30 27410 O 2616.38 1.66395 0.933663 0
M  V30 27411 C 2613.52 3.20822 1.2715 0
M  V30 27412 C 2612.64 4.28108 0.57858 0
M  V30 27413 C 2611.77 5.0647 1.60192 0
M  V30 27414 C 2610.81 6.05558 0.892518 0
M  V30 27415 N 2609.95 6.76975 1.86145 0
M  V30 27416 H 2614.79 2.94304 -0.4679 0
M  V30 27417 H 2612.32 1.45086 -0.242581 0
M  V30 27418 H 2614.28 3.72088 1.88696 0
M  V30 27419 H 2612.91 2.58079 1.93895 0
M  V30 27420 H 2611.96 3.80101 -0.150849 0
M  V30 27421 H 2613.28 4.98795 0.0216188 0
M  V30 27422 H 2612.43 5.61755 2.29164 0
M  V30 27423 H 2611.17 4.35625 2.19277 0
M  V30 27424 H 2610.17 5.49476 0.188732 0
M  V30 27425 H 2611.4 6.78402 0.307759 0
M  V30 27426 H 2609.34 6.08879 2.44136 0
M  V30 27427 H 2609.26 7.43741 1.35595 0
M  V30 27428 H 2610.53 7.36848 2.54312 0
M  V30 27429 N 2614.76 0.2662 1.55336 0
M  V30 27430 C 2615.69 -0.618941 2.25147 0
M  V30 27431 C 2616.67 -1.16602 1.23847 0
M  V30 27432 O 2617.85 -1.20181 1.52546 0
M  V30 27433 C 2614.98 -1.80723 2.96575 0
M  V30 27434 C 2613.94 -1.39208 4.04729 0
M  V30 27435 C 2613.26 -2.66275 4.63683 0
M  V30 27436 C 2614.56 -0.548851 5.19408 0
M  V30 27437 H 2616.26 -0.036759 2.99377 0
M  V30 27438 H 2613.8 -0.0162398 1.43991 0
M  V30 27439 H 2615.76 -2.43226 3.44121 0
M  V30 27440 H 2614.48 -2.4151 2.19865 0
M  V30 27441 H 2613.14 -0.790288 3.5798 0
M  V30 27442 H 2612.79 -3.25301 3.83651 0
M  V30 27443 H 2612.49 -2.39213 5.36704 0
M  V30 27444 H 2614.01 -3.29642 5.13973 0
M  V30 27445 H 2615.43 -1.07866 5.63061 0
M  V30 27446 H 2613.82 -0.373488 5.98937 0
M  V30 27447 H 2614.89 0.434479 4.8295 0
M  V30 27448 N 2616.24 -1.57599 -0.0066531 0
M  V30 27449 C 2617.15 -2.11426 -1.01667 0
M  V30 27450 C 2618.16 -1.05797 -1.38141 0
M  V30 27451 O 2619.34 -1.37661 -1.47008 0
M  V30 27452 C 2616.4 -2.60143 -2.29187 0
M  V30 27453 C 2615.46 -3.80346 -1.99087 0
M  V30 27454 C 2614.7 -4.26729 -3.20528 0
M  V30 27455 O 2614.92 -3.72487 -4.31984 0
M  V30 27456 O 2613.85 -5.18952 -3.04915 0
M  V30 27457 H 2617.68 -2.97931 -0.589129 0
M  V30 27458 H 2615.27 -1.47695 -0.225065 0
M  V30 27459 H 2617.15 -2.91706 -3.04115 0
M  V30 27460 H 2615.82 -1.76738 -2.71192 0
M  V30 27461 H 2614.73 -3.53766 -1.21657 0
M  V30 27462 H 2616.06 -4.64803 -1.61923 0
M  V30 27463 N 2617.72 0.279305 -1.55105 0
M  V30 27464 C 2619.13 0.850803 -1.66187 0
M  V30 27465 C 2619.48 1.87284 -0.58474 0
M  V30 27466 O 2618.6 2.14647 0.274882 0
M  V30 27467 C 2619.2 1.54996 -3.01267 0
M  V30 27468 C 2617.76 2.06957 -3.14397 0
M  V30 27469 C 2616.9 0.90949 -2.61961 0
M  V30 27470 H 2619.85 0.0557957 -1.58602 0
M  V30 27471 H 2619.88 2.41664 -2.93903 0
M  V30 27472 H 2619.39 0.805864 -3.79641 0
M  V30 27473 H 2617.49 2.84348 -2.40784 0
M  V30 27474 H 2617.6 2.28921 -4.20871 0
M  V30 27475 H 2615.97 1.30112 -2.18959 0
M  V30 27476 H 2616.75 0.179002 -3.42833 0
M  V30 27477 N 2619.19 1.47931 0.543528 0
M  V30 27478 C 2620.42 1.59147 1.32992 0
M  V30 27479 C 2620.84 0.246989 1.86471 0
M  V30 27480 O 2620.2 -0.779295 1.63697 0
M  V30 27481 C 2620.25 2.63082 2.46618 0
M  V30 27482 O 2619.35 2.19301 3.49257 0
M  V30 27483 H 2618.69 0.534131 0.394462 0
M  V30 27484 H 2621.22 1.93817 0.655455 0
M  V30 27485 H 2621.23 2.83932 2.92996 0
M  V30 27486 H 2619.91 3.60697 2.07053 0
M  V30 27487 H 2618.49 2.08608 3.09091 0
M  V30 27488 N 2620.67 -0.791347 1.36292 0
M  V30 27489 C 2621.63 -1.88551 1.30312 0
M  V30 27490 C 2622.63 -1.59407 0.211232 0
M  V30 27491 O 2623.82 -1.67854 0.465895 0
M  V30 27492 C 2620.96 -3.25295 1.01961 0
M  V30 27493 H 2622.15 -1.95269 2.27618 0
M  V30 27494 H 2619.7 -0.988932 1.21037 0
M  V30 27495 H 2620.44 -3.2426 0.051055 0
M  V30 27496 H 2620.22 -3.47837 1.80974 0
M  V30 27497 H 2621.71 -4.05357 1.00377 0
M  V30 27498 N 2622.15 -1.2054 -1.01528 0
M  V30 27499 C 2623.4 -1.01636 -1.75147 0
M  V30 27500 C 2623.72 0.451366 -1.8919 0
M  V30 27501 O 2622.98 1.35134 -1.41553 0
M  V30 27502 C 2623.28 -1.64659 -3.1721 0
M  V30 27503 C 2622.94 -3.1447 -3.2314 0
M  V30 27504 C 2621.61 -3.55352 -3.24466 0
M  V30 27505 C 2623.96 -4.10464 -3.21199 0
M  V30 27506 C 2621.29 -4.90754 -3.21524 0
M  V30 27507 C 2623.64 -5.45813 -3.19798 0
M  V30 27508 C 2622.3 -5.86107 -3.19428 0
M  V30 27509 H 2621.57 -0.371912 -0.640908 0
M  V30 27510 H 2624.22 -1.49983 -1.19068 0
M  V30 27511 H 2622.52 -1.08577 -3.76455 0
M  V30 27512 H 2624.22 -1.47547 -3.72869 0
M  V30 27513 H 2620.81 -2.81903 -3.22845 0
M  V30 27514 H 2625 -3.79912 -3.19344 0
M  V30 27515 H 2620.25 -5.21235 -3.19569 0
M  V30 27516 H 2624.43 -6.1994 -3.17249 0
M  V30 27517 H 2622.05 -6.90997 -3.16903 0
M  V30 27518 N 2623.63 1.20858 -1.01149 0
M  V30 27519 C 2624.58 2.21309 -0.548286 0
M  V30 27520 C 2625.56 1.56011 0.393618 0
M  V30 27521 O 2626.75 1.7566 0.217414 0
M  V30 27522 C 2623.88 3.431 0.117192 0
M  V30 27523 C 2622.97 4.15574 -0.846116 0
M  V30 27524 N 2623.36 4.64511 -2.00157 0
M  V30 27525 C 2621.66 4.41001 -0.665861 0
M  V30 27526 C 2622.36 5.19973 -2.60773 0
M  V30 27527 N 2621.33 5.09732 -1.88877 0
M  V30 27528 H 2625.14 2.56807 -1.42925 0
M  V30 27529 H 2622.65 1.36737 -0.876166 0
M  V30 27530 H 2624.65 4.14281 0.466547 0
M  V30 27531 H 2623.31 3.09109 0.994061 0
M  V30 27532 H 2624.32 4.59886 -2.3817 0
M  V30 27533 H 2621 4.1718 0.163383 0
M  V30 27534 H 2622.39 5.68249 -3.58529 0
M  V30 27535 N 2625.11 0.787064 1.3654 0
M  V30 27536 C 2626.34 0.369698 2.03265 0
M  V30 27537 C 2626.74 -1.01794 1.59483 0
M  V30 27538 O 2626.09 -1.66382 0.778641 0
M  V30 27539 C 2626.15 0.351434 3.57778 0
M  V30 27540 C 2625.81 1.68624 4.24753 0
M  V30 27541 C 2626.81 2.64132 4.47806 0
M  V30 27542 C 2624.49 1.96489 4.62274 0
M  V30 27543 C 2626.49 3.85702 5.07457 0
M  V30 27544 C 2624.18 3.18326 5.21643 0
M  V30 27545 C 2625.17 4.12751 5.44174 0
M  V30 27546 O 2624.86 5.3244 6.02298 0
M  V30 27547 H 2624.59 0.150762 0.658974 0
M  V30 27548 H 2627.15 1.06643 1.75546 0
M  V30 27549 H 2625.38 -0.401779 3.84607 0
M  V30 27550 H 2627.07 -0.0409434 4.05879 0
M  V30 27551 H 2627.83 2.43891 4.19216 0
M  V30 27552 H 2623.71 1.23813 4.44062 0
M  V30 27553 H 2627.26 4.59416 5.24959 0
M  V30 27554 H 2623.15 3.38447 5.49658 0
M  V30 27555 H 2623.92 5.33472 6.20766 0
M  V30 27556 N 2626.58 -1.48101 0.53888 0
M  V30 27557 C 2627.83 -2.02798 0.0080493 0
M  V30 27558 C 2628.16 -1.41426 -1.33087 0
M  V30 27559 O 2627.44 -0.563191 -1.86168 0
M  V30 27560 C 2627.72 -3.59948 -0.104526 0
M  V30 27561 C 2627.57 -4.31786 1.2602 0
M  V30 27562 C 2628.89 -4.3226 -0.826979 0
M  V30 27563 H 2626.01 -0.736987 0.0043992 0
M  V30 27564 H 2628.65 -1.76729 0.697631 0
M  V30 27565 H 2626.8 -3.8229 -0.691825 0
M  V30 27566 H 2628.48 -4.20837 1.88929 0
M  V30 27567 H 2626.72 -3.92856 1.83975 0
M  V30 27568 H 2627.39 -5.40219 1.13433 0
M  V30 27569 H 2629.87 -4.14801 -0.328505 0
M  V30 27570 H 2628.74 -5.41886 -0.874665 0
M  V30 27571 H 2629 -4.00173 -1.8792 0
M  V30 27572 N 2628.06 -0.274434 -1.55192 0
M  V30 27573 C 2629.31 0.342544 -1.99582 0
M  V30 27574 C 2629.64 1.55912 -1.16283 0
M  V30 27575 O 2628.89 1.94456 -0.220324 0
M  V30 27576 C 2629.19 0.769397 -3.4902 0
M  V30 27577 C 2628.86 -0.342468 -4.49598 0
M  V30 27578 C 2627.52 -0.64777 -4.7682 0
M  V30 27579 C 2629.87 -1.09172 -5.09638 0
M  V30 27580 C 2627.2 -1.70591 -5.61351 0
M  V30 27581 C 2629.55 -2.13958 -5.95319 0
M  V30 27582 C 2628.21 -2.45124 -6.20863 0
M  V30 27583 H 2627.48 0.125346 -0.730321 0
M  V30 27584 H 2630.13 -0.388004 -1.87528 0
M  V30 27585 H 2628.44 1.57961 -3.58547 0
M  V30 27586 H 2630.13 1.25751 -3.80773 0
M  V30 27587 H 2626.72 -0.0943933 -4.28496 0
M  V30 27588 H 2630.91 -0.86911 -4.88631 0
M  V30 27589 H 2626.16 -1.9524 -5.79389 0
M  V30 27590 H 2630.34 -2.7249 -6.40876 0
M  V30 27591 H 2627.96 -3.27252 -6.86156 0
M  V30 27592 N 2629.54 1.576 -0.00170483 0
M  V30 27593 C 2630.45 2.11962 1.00544 0
M  V30 27594 C 2631.47 1.06528 1.37578 0
M  V30 27595 O 2632.64 1.38439 1.46276 0
M  V30 27596 C 2629.71 2.61354 2.27804 0
M  V30 27597 C 2628.77 3.81396 1.97067 0
M  V30 27598 C 2628 4.28423 3.1826 0
M  V30 27599 O 2628.22 3.74772 4.30002 0
M  V30 27600 O 2627.16 5.20561 3.02158 0
M  V30 27601 H 2630.98 2.98239 0.573321 0
M  V30 27602 H 2628.57 1.47812 0.217229 0
M  V30 27603 H 2630.45 2.93315 3.02563 0
M  V30 27604 H 2629.13 1.78174 2.70251 0
M  V30 27605 H 2628.03 3.54406 1.19779 0
M  V30 27606 H 2629.37 4.65655 1.59456 0
M  V30 27607 N 2631.02 -0.271076 1.55251 0
M  V30 27608 C 2632.27 -1.00044 1.75601 0
M  V30 27609 C 2632.59 -1.86749 0.56122 0
M  V30 27610 O 2631.86 -1.91261 -0.423813 0
M  V30 27611 H 2630.44 -0.372376 0.647569 0
M  V30 27612 H 2633.1 -0.294843 1.92657 0
M  V30 27613 H 2632.19 -1.63626 2.65769 0
M  V30 27614 N 2632.5 -1.48217 -0.535675 0
M  V30 27615 C 2633.74 -1.56175 -1.29372 0
M  V30 27616 C 2634.08 -0.232463 -1.92804 0
M  V30 27617 O 2633.35 0.761017 -1.78994 0
M  V30 27618 C 2633.63 -2.69581 -2.38743 0
M  V30 27619 C 2633.49 -4.12197 -1.80039 0
M  V30 27620 C 2634.81 -2.78777 -3.40546 0
M  V30 27621 H 2631.92 -0.5685 -0.469017 0
M  V30 27622 H 2634.57 -1.80366 -0.597326 0
M  V30 27623 H 2632.72 -2.49085 -2.98142 0
M  V30 27624 H 2634.39 -4.44116 -1.24734 0
M  V30 27625 H 2632.63 -4.19464 -1.10601 0
M  V30 27626 H 2633.3 -4.87358 -2.59204 0
M  V30 27627 H 2635.78 -2.97327 -2.91094 0
M  V30 27628 H 2634.65 -3.59865 -4.14474 0
M  V30 27629 H 2634.92 -1.86703 -4.00742 0
M  V30 27630 N 2633.97 0.784108 -1.3671 0
M  V30 27631 C 2634.92 1.89696 -1.31469 0
M  V30 27632 C 2635.89 1.65095 -0.182419 0
M  V30 27633 O 2637.08 1.87182 -0.369795 0
M  V30 27634 C 2634.22 3.26586 -1.11516 0
M  V30 27635 C 2633.33 3.63223 -2.33865 0
M  V30 27636 C 2632.46 4.89258 -2.06882 0
M  V30 27637 C 2631.5 5.1859 -3.25163 0
M  V30 27638 N 2630.64 6.35809 -2.97811 0
M  V30 27639 H 2635.48 1.93511 -2.26622 0
M  V30 27640 H 2633.02 0.946236 -1.12627 0
M  V30 27641 H 2634.98 4.05533 -0.979724 0
M  V30 27642 H 2633.61 3.22179 -0.200159 0
M  V30 27643 H 2632.66 2.79357 -2.58193 0
M  V30 27644 H 2633.97 3.80845 -3.22116 0
M  V30 27645 H 2633.12 5.76083 -1.90299 0
M  V30 27646 H 2631.86 4.73716 -1.1595 0
M  V30 27647 H 2630.87 4.30245 -3.423 0
M  V30 27648 H 2632.09 5.36047 -4.16929 0
M  V30 27649 H 2630.04 6.21649 -2.09496 0
M  V30 27650 H 2629.96 6.53788 -3.79602 0
M  V30 27651 H 2631.22 7.25602 -2.84818 0
M  V30 27652 N 2635.45 1.21076 1.00888 0
M  V30 27653 C 2636.36 0.982462 2.13037 0
M  V30 27654 C 2637.38 -0.0641856 1.73882 0
M  V30 27655 O 2638.55 0.124996 2.01012 0
M  V30 27656 C 2635.62 0.545864 3.42376 0
M  V30 27657 C 2634.68 1.66427 3.95728 0
M  V30 27658 C 2633.91 1.24841 5.18893 0
M  V30 27659 O 2634.14 0.120365 5.70273 0
M  V30 27660 O 2633.07 2.05883 5.65593 0
M  V30 27661 H 2636.9 1.92167 2.35171 0
M  V30 27662 H 2634.48 0.995305 1.11418 0
M  V30 27663 H 2636.36 0.311986 4.20244 0
M  V30 27664 H 2635.04 -0.364671 3.21639 0
M  V30 27665 H 2633.95 1.95251 3.19105 0
M  V30 27666 H 2635.28 2.55209 4.20867 0
M  V30 27667 N 2636.93 -1.2032 1.01789 0
M  V30 27668 C 2638.34 -1.71437 0.739337 0
M  V30 27669 C 2638.69 -1.81628 -0.742009 0
M  V30 27670 O 2637.82 -1.47974 -1.57901 0
M  V30 27671 C 2638.41 -3.11371 1.33543 0
M  V30 27672 C 2636.97 -3.59793 1.10572 0
M  V30 27673 C 2636.12 -2.3696 1.44032 0
M  V30 27674 H 2639.07 -1.05315 1.1872 0
M  V30 27675 H 2639.09 -3.73497 0.726676 0
M  V30 27676 H 2638.6 -3.03921 2.41357 0
M  V30 27677 H 2636.7 -3.72572 0.045306 0
M  V30 27678 H 2636.82 -4.44538 1.78668 0
M  V30 27679 H 2635.18 -2.39764 0.859373 0
M  V30 27680 H 2635.96 -2.32151 2.52905 0
M  V30 27681 N 2638.41 -0.794293 -1.3612 0
M  V30 27682 C 2639.37 -0.201929 -2.28309 0
M  V30 27683 C 2640.37 0.603577 -1.49042 0
M  V30 27684 O 2641.56 0.423858 -1.68965 0
M  V30 27685 C 2638.69 0.719919 -3.33212 0
M  V30 27686 H 2639.89 -1.01486 -2.82207 0
M  V30 27687 H 2637.44 -0.564062 -1.45767 0
M  V30 27688 H 2638.17 1.55701 -2.84478 0
M  V30 27689 H 2637.96 0.144197 -3.91835 0
M  V30 27690 H 2639.45 1.12909 -4.02046 0
M  V30 27691 N 2639.89 1.47813 -0.546727 0
M  V30 27692 C 2641.13 2.02791 -0.0188041 0
M  V30 27693 C 2641.47 1.4213 1.32336 0
M  V30 27694 O 2640.74 0.573056 1.85866 0
M  V30 27695 C 2641.02 3.59999 0.0854352 0
M  V30 27696 C 2640.88 4.31112 -1.28308 0
M  V30 27697 C 2642.2 4.32693 0.804044 0
M  V30 27698 H 2639.31 0.736953 -0.00830755 0
M  V30 27699 H 2641.96 1.76356 -0.706993 0
M  V30 27700 H 2640.11 3.82652 0.671542 0
M  V30 27701 H 2641.78 4.19829 -1.91158 0
M  V30 27702 H 2640.02 3.91875 -1.86056 0
M  V30 27703 H 2640.69 5.3961 -1.16296 0
M  V30 27704 H 2643.17 4.1497 0.306503 0
M  V30 27705 H 2642.04 5.42343 0.845915 0
M  V30 27706 H 2642.31 4.01164 1.85795 0
M  V30 27707 N 2641.36 0.28266 1.55044 0
M  V30 27708 C 2642.29 -0.595027 2.25791 0
M  V30 27709 C 2643.28 -1.15282 1.25076 0
M  V30 27710 O 2644.46 -1.18556 1.53812 0
M  V30 27711 C 2641.59 -1.77567 2.98475 0
M  V30 27712 C 2640.54 -1.34907 4.06182 0
M  V30 27713 C 2639.87 -2.61342 4.66481 0
M  V30 27714 C 2641.17 -0.49373 5.19961 0
M  V30 27715 H 2642.86 -0.00500391 2.994 0
M  V30 27716 H 2640.41 -0.00096669 1.44 0
M  V30 27717 H 2642.36 -2.39562 3.46681 0
M  V30 27718 H 2641.09 -2.39164 2.22414 0
M  V30 27719 H 2639.75 -0.752275 3.58799 0
M  V30 27720 H 2639.39 -3.21213 3.8708 0
M  V30 27721 H 2639.09 -2.33507 5.39211 0
M  V30 27722 H 2640.62 -3.24172 5.17441 0
M  V30 27723 H 2642.03 -1.01888 5.64173 0
M  V30 27724 H 2640.43 -0.309942 5.99299 0
M  V30 27725 H 2641.5 0.485678 4.82462 0
M  V30 27726 N 2642.84 -1.57597 0.0100627 0
M  V30 27727 C 2644.07 -1.95288 -0.683378 0
M  V30 27728 C 2644.49 -0.885511 -1.66746 0
M  V30 27729 O 2643.84 0.134597 -1.82003 0
M  V30 27730 C 2643.89 -3.33018 -1.40647 0
M  V30 27731 O 2643.61 -4.35659 -0.46184 0
M  V30 27732 C 2645.12 -3.85228 -2.19349 0
M  V30 27733 H 2642.34 -0.643627 -0.189696 0
M  V30 27734 H 2644.88 -2.04399 0.0641718 0
M  V30 27735 H 2643.03 -3.25184 -2.10556 0
M  V30 27736 H 2643.45 -5.15394 -0.973124 0
M  V30 27737 H 2644.92 -4.83998 -2.65425 0
M  V30 27738 H 2645.4 -3.18464 -3.02452 0
M  V30 27739 H 2646.01 -3.9627 -1.54435 0
M  V30 27740 N 2644.32 0.262839 -1.55393 0
M  V30 27741 C 2645.27 1.32513 -1.88968 0
M  V30 27742 C 2646.24 1.48595 -0.742213 0
M  V30 27743 O 2647.42 1.62837 -0.994419 0
M  V30 27744 C 2644.56 2.67854 -2.17596 0
M  V30 27745 C 2643.68 2.59911 -3.45066 0
M  V30 27746 C 2642.81 3.87499 -3.63343 0
M  V30 27747 C 2641.85 3.74107 -4.84469 0
M  V30 27748 N 2640.99 4.93552 -4.9935 0
M  V30 27749 H 2645.83 1.03179 -2.79568 0
M  V30 27750 H 2643.36 0.498261 -1.38404 0
M  V30 27751 H 2645.32 3.46613 -2.32196 0
M  V30 27752 H 2643.95 2.95369 -1.3022 0
M  V30 27753 H 2643 1.72806 -3.38884 0
M  V30 27754 H 2644.32 2.45919 -4.33965 0
M  V30 27755 H 2643.47 4.747 -3.77815 0
M  V30 27756 H 2642.21 4.04369 -2.72648 0
M  V30 27757 H 2641.21 2.85289 -4.6999 0
M  V30 27758 H 2642.44 3.58746 -5.76609 0
M  V30 27759 H 2640.38 5.10814 -4.11589 0
M  V30 27760 H 2640.3 4.8213 -5.82311 0
M  V30 27761 H 2641.57 5.82297 -5.18218 0
M  V30 27762 N 2645.8 1.48499 0.527807 0
M  V30 27763 C 2646.75 1.63631 1.6531 0
M  V30 27764 C 2647.74 0.502705 1.61769 0
M  V30 27765 O 2648.95 0.681498 1.666 0
M  V30 27766 H 2645.32 0.515498 0.547509 0
M  V30 27767 H 2647.29 2.58138 1.49692 0
M  V30 27768 C 2646.04 1.69525 3.03573 0
M  V30 27769 H 2645.36 2.56116 3.06993 0
M  V30 27770 H 2646.8 1.84156 3.8192 0
M  V30 27771 C 2645.26 0.434379 3.34088 0
M  V30 27772 O 2645.79 -0.451782 3.99151 0
M  V30 27773 N 2644 0.305419 2.88991 0
M  V30 27774 H 2643.55 1.02751 2.3622 0
M  V30 27775 H 2643.5 -0.537195 3.09777 0
M  V30 27776 N 2647.28 -0.776847 1.37123 0
M  V30 27777 C 2648.55 -1.52419 1.22588 0
M  V30 27778 C 2648.93 -2.10308 -0.182689 0
M  V30 27779 O 2648.28 -1.95082 -1.18976 0
M  V30 27780 C 2648.49 -2.60914 2.31787 0
M  V30 27781 C 2649.84 -3.28455 2.69077 0
M  V30 27782 O 2650.86 -2.71205 2.30925 0
M  V30 27783 O 2649.72 -4.31948 3.34788 0
M  V30 27784 H 2646.82 -0.674827 0.478056 0
M  V30 27785 H 2649.36 -0.814249 1.48889 0
M  V30 27786 H 2648.14 -2.16221 3.26135 0
M  V30 27787 H 2647.76 -3.39513 2.06922 0
M  V30 27788 N 2648.76 -1.2161 -1.00244 0
M  V30 27789 C 2650.17 -1.03314 -1.55509 0
M  V30 27790 C 2650.52 0.406299 -1.91947 0
M  V30 27791 O 2649.64 1.28989 -1.73755 0
M  V30 27792 C 2650.24 -1.86918 -2.82573 0
M  V30 27793 C 2648.8 -1.72947 -3.34315 0
M  V30 27794 C 2647.94 -1.83972 -2.07484 0
M  V30 27795 H 2650.89 -1.35594 -0.824615 0
M  V30 27796 H 2650.92 -1.38094 -3.54557 0
M  V30 27797 H 2650.43 -2.91676 -2.56021 0
M  V30 27798 H 2648.53 -0.708834 -3.65795 0
M  V30 27799 H 2648.64 -2.55062 -4.05562 0
M  V30 27800 H 2647.01 -1.27308 -2.20601 0
M  V30 27801 H 2647.79 -2.90243 -1.83341 0
M  V30 27802 N 2650.23 1.19778 -1.02425 0
M  V30 27803 C 2651.65 1.41382 -0.740484 0
M  V30 27804 C 2651.85 1.89794 0.676794 0
M  V30 27805 O 2650.91 2.07173 1.44346 0
M  V30 27806 C 2652.22 2.42892 -1.77268 0
M  V30 27807 C 2653.77 2.56646 -1.7917 0
M  V30 27808 C 2654.24 3.61405 -2.81337 0
M  V30 27809 N 2655.73 3.68897 -2.80124 0
M  V30 27810 C 2656.47 4.49634 -3.55832 0
M  V30 27811 N 2655.96 5.34115 -4.4124 0
M  V30 27812 N 2657.76 4.4424 -3.44394 0
M  V30 27813 H 2649.91 0.86673 -1.93911 0
M  V30 27814 H 2652.17 0.443083 -0.838082 0
M  V30 27815 H 2651.88 2.14334 -2.78844 0
M  V30 27816 H 2651.75 3.41998 -1.59114 0
M  V30 27817 H 2654.14 2.84529 -0.782752 0
M  V30 27818 H 2654.22 1.57709 -2.01398 0
M  V30 27819 H 2653.86 3.34265 -3.824 0
M  V30 27820 H 2653.79 4.59982 -2.56367 0
M  V30 27821 H 2656.28 3.08558 -2.18176 0
M  V30 27822 H 2656.6 5.92827 -4.95758 0
M  V30 27823 H 2654.94 5.33591 -4.45315 0
M  V30 27824 H 2658.13 3.7728 -2.77087 0
M  V30 27825 H 2658.31 5.06924 -4.03649 0
M  V30 27826 N 2651.71 0.801501 1.35697 0
M  V30 27827 C 2652.64 0.222699 2.32436 0
M  V30 27828 C 2653.62 -0.649029 1.57231 0
M  V30 27829 O 2654.81 -0.580354 1.85325 0
M  V30 27830 C 2651.94 -0.633659 3.4147 0
M  V30 27831 C 2650.89 0.139158 4.27774 0
M  V30 27832 C 2650.22 -0.838573 5.28083 0
M  V30 27833 C 2651.52 1.33526 5.04944 0
M  V30 27834 H 2653.21 1.03091 2.81092 0
M  V30 27835 H 2650.76 0.497179 1.35145 0
M  V30 27836 H 2652.71 -1.0486 4.08145 0
M  V30 27837 H 2651.43 -1.4747 2.91411 0
M  V30 27838 H 2650.09 0.53522 3.62672 0
M  V30 27839 H 2649.74 -1.67498 4.74293 0
M  V30 27840 H 2649.44 -0.325837 5.86696 0
M  V30 27841 H 2650.97 -1.25183 5.9763 0
M  V30 27842 H 2652.38 0.995448 5.64592 0
M  V30 27843 H 2650.78 1.78212 5.73027 0
M  V30 27844 H 2651.85 2.1245 4.35882 0
M  V30 27845 N 2653.19 -1.47521 0.554558 0
M  V30 27846 C 2654.14 -2.29978 -0.19462 0
M  V30 27847 C 2655.11 -1.38898 -0.910857 0
M  V30 27848 O 2656.29 -1.6786 -0.907073 0
M  V30 27849 C 2653.43 -3.22805 -1.2203 0
M  V30 27850 C 2652.54 -4.28974 -0.510398 0
M  V30 27851 C 2651.68 -5.08955 -1.52114 0
M  V30 27852 C 2650.72 -6.06901 -0.796066 0
M  V30 27853 N 2649.86 -6.7985 -1.75351 0
M  V30 27854 H 2654.7 -2.93522 0.514662 0
M  V30 27855 H 2652.23 -1.44682 0.265632 0
M  V30 27856 H 2654.19 -3.75043 -1.82753 0
M  V30 27857 H 2652.82 -2.61131 -1.89765 0
M  V30 27858 H 2651.87 -3.79813 0.211301 0
M  V30 27859 H 2653.18 -4.98767 0.0577379 0
M  V30 27860 H 2652.34 -5.6533 -2.20198 0
M  V30 27861 H 2651.08 -4.39058 -2.12319 0
M  V30 27862 H 2650.08 -5.49707 -0.101291 0
M  V30 27863 H 2651.31 -6.78806 -0.199792 0
M  V30 27864 H 2649.25 -6.12686 -2.34419 0
M  V30 27865 H 2649.17 -7.45804 -1.23745 0
M  V30 27866 H 2650.44 -7.40801 -2.42557 0
M  V30 27867 N 2654.67 -0.290879 -1.54892 0
M  V30 27868 C 2655.9 0.324252 -2.04343 0
M  V30 27869 C 2656.31 1.48287 -1.16861 0
M  V30 27870 O 2655.67 1.81487 -0.19205 0
M  V30 27871 C 2655.72 0.790198 -3.52758 0
M  V30 27872 O 2655.44 -0.32229 -4.36913 0
M  V30 27873 C 2656.94 1.47153 -4.18164 0
M  V30 27874 H 2654.16 0.0719056 -0.667136 0
M  V30 27875 H 2656.7 -0.427564 -1.9998 0
M  V30 27876 H 2654.86 1.49206 -3.57514 0
M  V30 27877 H 2655.27 0.038645 -5.24486 0
M  V30 27878 H 2656.75 1.74881 -5.23565 0
M  V30 27879 H 2657.22 2.40827 -3.67286 0
M  V30 27880 H 2657.83 0.813105 -4.17455 0
M  V30 27881 N 2656.15 1.57589 -0.0184203 0
M  V30 27882 C 2657.42 1.82623 0.700589 0
M  V30 27883 C 2657.8 0.900084 1.90949 0
M  V30 27884 O 2657.15 -0.0468744 2.28452 0
M  V30 27885 C 2657.36 3.31577 1.08893 0
M  V30 27886 C 2658.71 3.97782 1.48507 0
M  V30 27887 O 2659.73 3.36009 1.18221 0
M  V30 27888 O 2658.59 5.06636 2.04894 0
M  V30 27889 H 2655.69 0.752639 0.34273 0
M  V30 27890 H 2658.23 1.6964 -0.0452846 0
M  V30 27891 H 2657 3.90635 0.228044 0
M  V30 27892 H 2656.63 3.49628 1.89331 0
M  V30 27893 N 2657.62 -0.254594 1.5553 0
M  V30 27894 C 2658.87 -0.983705 1.77001 0
M  V30 27895 C 2659.2 -1.85608 0.581363 0
M  V30 27896 O 2658.45 -1.90791 -0.435587 0
M  V30 27897 C 2658.75 -1.88103 3.03895 0
M  V30 27898 C 2658.42 -1.16465 4.35599 0
M  V30 27899 C 2657.08 -0.966631 4.71391 0
M  V30 27900 C 2659.43 -0.656296 5.17051 0
M  V30 27901 C 2656.76 -0.247839 5.86176 0
M  V30 27902 C 2659.11 0.0489919 6.32581 0
M  V30 27903 C 2657.78 0.258556 6.66999 0
M  V30 27904 H 2657.05 -0.359963 0.647694 0
M  V30 27905 H 2659.69 -0.25443 1.89802 0
M  V30 27906 H 2658 -2.67712 2.86073 0
M  V30 27907 H 2659.7 -2.44672 3.17705 0
M  V30 27908 H 2656.29 -1.32891 4.07477 0
M  V30 27909 H 2660.47 -0.796847 4.89861 0
M  V30 27910 H 2655.73 -0.0749276 6.11354 0
M  V30 27911 H 2659.9 0.450567 6.94941 0
M  V30 27912 H 2657.53 0.817491 7.55792 0
M  V30 27913 N 2659.1 -1.48777 -0.519925 0
M  V30 27914 C 2660.01 -1.66747 -1.65023 0
M  V30 27915 C 2661.03 -0.549983 -1.65079 0
M  V30 27916 O 2662.2 -0.822328 -1.83847 0
M  V30 27917 C 2659.27 -1.71244 -3.01457 0
M  V30 27918 C 2658.33 -2.94693 -3.12177 0
M  V30 27919 C 2657.56 -2.98965 -4.42103 0
M  V30 27920 O 2657.79 -2.1136 -5.29795 0
M  V30 27921 O 2656.72 -3.91241 -4.57399 0
M  V30 27922 H 2660.55 -2.62464 -1.52796 0
M  V30 27923 H 2658.13 -1.32296 -0.694134 0
M  V30 27924 H 2660.01 -1.76664 -3.82581 0
M  V30 27925 H 2658.69 -0.78703 -3.13987 0
M  V30 27926 H 2657.59 -2.94801 -2.30311 0
M  V30 27927 H 2658.93 -3.86652 -3.04568 0
M  V30 27928 N 2660.58 0.769564 -1.37534 0
M  V30 27929 C 2661.49 1.91391 -1.35671 0
M  V30 27930 C 2662.51 1.72107 -0.255985 0
M  V30 27931 O 2663.68 1.95305 -0.491739 0
M  V30 27932 C 2660.75 3.26545 -1.16487 0
M  V30 27933 C 2659.81 3.58468 -2.36219 0
M  V30 27934 C 2659.04 4.87173 -2.1794 0
M  V30 27935 O 2659.26 5.5838 -1.1648 0
M  V30 27936 O 2658.2 5.18208 -3.06176 0
M  V30 27937 H 2662.02 1.95914 -2.32059 0
M  V30 27938 H 2659.61 0.912621 -1.18286 0
M  V30 27939 H 2661.49 4.07382 -1.07785 0
M  V30 27940 H 2660.17 3.22869 -0.231744 0
M  V30 27941 H 2659.07 2.77856 -2.50493 0
M  V30 27942 H 2660.41 3.66889 -3.28106 0
M  V30 27943 N 2662.06 1.22139 0.995977 0
M  V30 27944 C 2663.02 0.990145 2.06709 0
M  V30 27945 C 2664.02 -0.0422696 1.60744 0
M  V30 27946 O 2665.21 0.195925 1.73095 0
M  V30 27947 C 2662.34 0.494969 3.37288 0
M  V30 27948 H 2663.54 1.94051 2.28658 0
M  V30 27949 H 2661.09 1.03965 1.16709 0
M  V30 27950 H 2661.82 -0.459891 3.21023 0
M  V30 27951 H 2661.61 1.23978 3.71984 0
M  V30 27952 H 2663.1 0.353326 4.16103 0
M  V30 27953 N 2663.54 -1.19233 1.03059 0
M  V30 27954 C 2664.79 -1.88285 0.723293 0
M  V30 27955 C 2665.1 -1.80596 -0.751301 0
M  V30 27956 O 2666.3 -2.44914 -1.17172 0
M  V30 27957 C 2664.76 -3.37738 1.24344 0
M  V30 27958 C 2664.37 -3.53981 2.74594 0
M  V30 27959 C 2666.11 -4.12256 1.01221 0
M  V30 27960 C 2664.02 -4.97336 3.20017 0
M  V30 27961 H 2662.95 -0.705196 0.266861 0
M  V30 27962 H 2665.6 -1.34793 1.24511 0
M  V30 27963 H 2663.98 -3.90637 0.649526 0
M  V30 27964 H 2665.16 -3.11402 3.39655 0
M  V30 27965 H 2663.47 -2.92854 2.96016 0
M  V30 27966 H 2666.07 -5.17976 1.32684 0
M  V30 27967 H 2666.41 -4.16269 -0.0509279 0
M  V30 27968 H 2666.94 -3.65499 1.57021 0
M  V30 27969 H 2663.68 -4.98485 4.25667 0
M  V30 27970 H 2663.2 -5.4067 2.59685 0
M  V30 27971 H 2664.88 -5.65998 3.13457 0
M  V30 27972 N 2665.01 -0.808686 -1.3527 0
M  V30 27973 C 2666.26 -0.390038 -1.98708 0
M  V30 27974 C 2666.59 1.04332 -1.6415 0
M  V30 27975 O 2665.84 1.73889 -0.897828 0
M  V30 27976 C 2666.14 -0.522861 -3.53555 0
M  V30 27977 C 2665.81 -1.91984 -4.07987 0
M  V30 27978 C 2664.47 -2.30202 -4.22564 0
M  V30 27979 C 2666.82 -2.83369 -4.37437 0
M  V30 27980 C 2664.15 -3.5917 -4.63912 0
M  V30 27981 C 2666.5 -4.11785 -4.80225 0
M  V30 27982 C 2665.17 -4.5 -4.93008 0
M  V30 27983 H 2664.44 -0.142725 -0.727125 0
M  V30 27984 H 2667.08 -1.02988 -1.61449 0
M  V30 27985 H 2665.39 0.200426 -3.91287 0
M  V30 27986 H 2667.09 -0.179678 -4.00597 0
M  V30 27987 H 2663.68 -1.61291 -3.97093 0
M  V30 27988 H 2667.86 -2.5509 -4.25726 0
M  V30 27989 H 2663.12 -3.88623 -4.71998 0
M  V30 27990 H 2667.29 -4.82696 -5.01974 0
M  V30 27991 H 2664.92 -5.49986 -5.24805 0
M  V30 27992 N 2666.49 1.47225 -0.562374 0
M  V30 27993 C 2667.72 2.07355 -0.0432997 0
M  V30 27994 C 2668.14 1.41151 1.2433 0
M  V30 27995 O 2667.5 0.488257 1.74602 0
M  V30 27996 C 2667.55 3.60365 0.130224 0
M  V30 27997 O 2666.65 3.9481 1.1916 0
M  V30 27998 H 2665.99 0.661829 -0.0536451 0
M  V30 27999 H 2668.52 1.89168 -0.779528 0
M  V30 28000 H 2668.53 4.06557 0.342809 0
M  V30 28001 H 2667.21 4.07947 -0.809461 0
M  V30 28002 H 2665.79 3.60355 0.95909 0
M  V30 28003 N 2667.97 0.299089 1.54736 0
M  V30 28004 C 2668.92 -0.577859 2.23449 0
M  V30 28005 C 2669.89 -1.13106 1.21639 0
M  V30 28006 O 2671.07 -1.17594 1.50254 0
M  V30 28007 C 2668.21 -1.74479 2.97743 0
M  V30 28008 C 2667.33 -1.22316 4.14322 0
M  V30 28009 C 2666.46 -2.3538 4.76203 0
M  V30 28010 C 2665.5 -1.80341 5.8493 0
M  V30 28011 N 2664.64 -2.86971 6.40775 0
M  V30 28012 H 2669.48 0.0147069 2.97996 0
M  V30 28013 H 2667.01 0.0190272 1.47088 0
M  V30 28014 H 2668.97 -2.43108 3.39049 0
M  V30 28015 H 2667.6 -2.30901 2.25576 0
M  V30 28016 H 2666.65 -0.429183 3.77971 0
M  V30 28017 H 2667.97 -0.780222 4.9266 0
M  V30 28018 H 2667.12 -3.1196 5.20352 0
M  V30 28019 H 2665.86 -2.83 3.97193 0
M  V30 28020 H 2664.86 -1.02249 5.40208 0
M  V30 28021 H 2666.09 -1.33628 6.65823 0
M  V30 28022 H 2664.03 -3.33928 5.64649 0
M  V30 28023 H 2663.95 -2.47167 7.14454 0
M  V30 28024 H 2665.22 -3.63454 6.89581 0
M  V30 28025 N 2669.45 -1.57577 0.0267774 0
M  V30 28026 C 2670.68 -1.95718 -0.661666 0
M  V30 28027 C 2671.09 -0.901735 -1.66329 0
M  V30 28028 O 2670.43 0.125209 -1.83273 0
M  V30 28029 C 2670.49 -3.2999 -1.42643 0
M  V30 28030 C 2670.16 -4.53261 -0.583402 0
M  V30 28031 C 2671.15 -5.19711 0.140312 0
M  V30 28032 C 2668.84 -4.99586 -0.521493 0
M  V30 28033 C 2670.83 -6.30804 0.914634 0
M  V30 28034 C 2668.52 -6.10561 0.256535 0
M  V30 28035 C 2669.52 -6.76029 0.973308 0
M  V30 28036 O 2669.2 -7.84875 1.73859 0
M  V30 28037 H 2668.94 -0.649485 -0.187471 0
M  V30 28038 H 2671.49 -2.05236 0.0821208 0
M  V30 28039 H 2669.72 -3.16956 -2.21531 0
M  V30 28040 H 2671.41 -3.5305 -2.00276 0
M  V30 28041 H 2672.18 -4.84893 0.101802 0
M  V30 28042 H 2668.05 -4.48435 -1.06896 0
M  V30 28043 H 2671.6 -6.81836 1.47462 0
M  V30 28044 H 2667.5 -6.44817 0.296771 0
M  V30 28045 H 2668.26 -8.01529 1.65812 0
M  V30 28046 N 2670.93 0.246342 -1.55663 0
M  V30 28047 C 2672.17 0.975747 -1.77784 0
M  V30 28048 C 2672.51 1.84952 -0.592136 0
M  V30 28049 O 2671.78 1.90139 0.409554 0
M  V30 28050 C 2672.06 1.83579 -3.09792 0
M  V30 28051 C 2671.92 0.990164 -4.38766 0
M  V30 28052 C 2673.24 2.81817 -3.38034 0
M  V30 28053 H 2670.35 0.353306 -0.646795 0
M  V30 28054 H 2673 0.246215 -1.88398 0
M  V30 28055 H 2671.15 2.45779 -3.00874 0
M  V30 28056 H 2672.82 0.386816 -4.59675 0
M  V30 28057 H 2671.06 0.29455 -4.32799 0
M  V30 28058 H 2671.73 1.62574 -5.27516 0
M  V30 28059 H 2674.21 2.29754 -3.46919 0
M  V30 28060 H 2673.08 3.39115 -4.31616 0
M  V30 28061 H 2673.35 3.58308 -2.58974 0
M  V30 28062 N 2672.4 1.4905 0.512027 0
M  V30 28063 C 2673.65 1.57668 1.26433 0
M  V30 28064 C 2673.97 0.260326 1.93254 0
M  V30 28065 O 2673.24 -0.719532 1.82207 0
M  V30 28066 H 2671.82 0.580896 0.469648 0
M  V30 28067 H 2674.49 1.85616 0.594366 0
M  V30 28068 H 2673.58 2.36706 2.03413 0
M  V30 28069 N 2673.88 -0.762259 1.3794 0
M  V30 28070 C 2674.83 -1.89719 1.34572 0
M  V30 28071 C 2675.82 -1.67791 0.232958 0
M  V30 28072 O 2677.03 -1.75465 0.401516 0
M  V30 28073 H 2673.41 -0.624047 0.419605 0
M  V30 28074 H 2675.38 -1.89675 2.3036 0
M  V30 28075 C 2674.13 -3.27099 1.17904 0
M  V30 28076 H 2673.45 -3.44554 2.02787 0
M  V30 28077 H 2674.89 -4.06782 1.196 0
M  V30 28078 C 2673.35 -3.36705 -0.114669 0
M  V30 28079 O 2673.88 -3.86492 -1.09484 0
M  V30 28080 N 2672.08 -2.90111 -0.168579 0
M  V30 28081 H 2671.63 -2.49785 0.629714 0
M  V30 28082 H 2671.59 -2.96918 -1.03378 0
M  V30 28083 N 2675.36 -1.22666 -0.989486 0
M  V30 28084 C 2676.31 -0.999769 -2.08022 0
M  V30 28085 C 2677.28 0.0796755 -1.65909 0
M  V30 28086 O 2678.46 -0.070605 -1.90669 0
M  V30 28087 C 2675.6 -0.587294 -3.40066 0
M  V30 28088 C 2674.72 -1.73788 -3.95502 0
M  V30 28089 C 2673.85 -1.27306 -5.15719 0
M  V30 28090 C 2672.89 -2.39497 -5.633 0
M  V30 28091 N 2672.03 -1.94038 -6.74754 0
M  V30 28092 H 2676.87 -1.93344 -2.26764 0
M  V30 28093 H 2674.4 -0.963317 -1.11169 0
M  V30 28094 H 2676.36 -0.3293 -4.15898 0
M  V30 28095 H 2674.99 0.30937 -3.21314 0
M  V30 28096 H 2674.04 -2.11011 -3.1651 0
M  V30 28097 H 2675.36 -2.58166 -4.26792 0
M  V30 28098 H 2674.51 -0.972652 -5.98853 0
M  V30 28099 H 2673.25 -0.39953 -4.86061 0
M  V30 28100 H 2672.25 -2.70323 -4.78754 0
M  V30 28101 H 2673.48 -3.27372 -5.94983 0
M  V30 28102 H 2671.42 -1.09052 -6.46872 0
M  V30 28103 H 2671.34 -2.7198 -7.05381 0
M  V30 28104 H 2672.61 -1.67076 -7.61384 0
M  V30 28105 N 2676.84 1.18685 -1.0369 0
M  V30 28106 C 2678.09 1.87899 -0.733268 0
M  V30 28107 C 2678.4 1.80992 0.741713 0
M  V30 28108 O 2679.61 2.45532 1.15871 0
M  V30 28109 C 2678.06 3.37073 -1.26133 0
M  V30 28110 C 2677.67 3.5252 -2.76467 0
M  V30 28111 C 2679.42 4.11713 -1.03406 0
M  V30 28112 C 2677.32 4.95632 -3.2265 0
M  V30 28113 H 2676.25 0.703771 -0.270597 0
M  V30 28114 H 2678.9 1.34131 -1.25224 0
M  V30 28115 H 2677.29 3.90287 -0.670233 0
M  V30 28116 H 2678.46 3.09596 -3.41302 0
M  V30 28117 H 2676.77 2.9128 -2.97565 0
M  V30 28118 H 2679.37 5.17265 -1.35429 0
M  V30 28119 H 2679.71 4.1629 0.0288514 0
M  V30 28120 H 2680.25 3.64661 -1.58957 0
M  V30 28121 H 2676.99 4.96221 -4.28305 0
M  V30 28122 H 2676.51 5.39285 -2.62549 0
M  V30 28123 H 2678.19 5.64328 -3.16454 0
M  V30 28124 N 2678.32 0.815849 1.34839 0
M  V30 28125 C 2679.55 0.41333 2.02729 0
M  V30 28126 C 2679.96 -0.97857 1.6146 0
M  V30 28127 O 2679.32 -1.63211 0.816613 0
M  V30 28128 C 2679.37 0.497739 3.58057 0
M  V30 28129 O 2679.09 1.83477 3.97829 0
M  V30 28130 C 2680.59 0.0892118 4.4321 0
M  V30 28131 H 2677.81 0.16674 0.649953 0
M  V30 28132 H 2680.35 1.10204 1.72265 0
M  V30 28133 H 2678.51 -0.142818 3.87137 0
M  V30 28134 H 2678.92 1.80404 4.92498 0
M  V30 28135 H 2680.4 0.199371 5.5164 0
M  V30 28136 H 2680.87 -0.966496 4.28434 0
M  V30 28137 H 2681.48 0.703288 4.19445 0
M  V30 28138 N 2679.8 -1.46924 0.570174 0
M  V30 28139 C 2680.71 -2.33961 -0.173019 0
M  V30 28140 C 2681.72 -1.48989 -0.898798 0
M  V30 28141 O 2682.9 -1.81888 -0.864793 0
M  V30 28142 C 2679.96 -3.25939 -1.18172 0
M  V30 28143 C 2679.02 -4.26807 -0.461966 0
M  V30 28144 C 2678.26 -5.1439 -1.42261 0
M  V30 28145 O 2678.48 -5.04667 -2.65833 0
M  V30 28146 O 2677.41 -5.94514 -0.940023 0
M  V30 28147 H 2681.24 -2.98838 0.541269 0
M  V30 28148 H 2678.82 -1.45695 0.330673 0
M  V30 28149 H 2680.71 -3.82718 -1.76365 0
M  V30 28150 H 2679.38 -2.63675 -1.8777 0
M  V30 28151 H 2678.29 -3.73751 0.161494 0
M  V30 28152 H 2679.62 -4.91822 0.192805 0
M  V30 28153 N 2681.27 -0.307291 -1.54575 0
M  V30 28154 C 2682.52 0.300577 -2.0056 0
M  V30 28155 C 2682.85 1.53054 -1.19532 0
M  V30 28156 O 2682.13 1.92569 -0.273404 0
M  V30 28157 C 2682.41 0.650925 -3.54168 0
M  V30 28158 C 2682.26 -0.588618 -4.45932 0
M  V30 28159 C 2683.58 1.47498 -4.14647 0
M  V30 28160 H 2680.7 0.107775 -0.729077 0
M  V30 28161 H 2683.34 -0.420639 -1.85285 0
M  V30 28162 H 2681.49 1.26538 -3.67315 0
M  V30 28163 H 2683.17 -1.22705 -4.44681 0
M  V30 28164 H 2681.41 -1.22065 -4.16272 0
M  V30 28165 H 2682.08 -0.29925 -5.51188 0
M  V30 28166 H 2684.56 0.95575 -4.04975 0
M  V30 28167 H 2683.43 1.6889 -5.22271 0
M  V30 28168 H 2683.69 2.46614 -3.66925 0
M  V30 28169 N 2682.75 1.57561 -0.0351337 0
M  V30 28170 C 2684.03 1.83356 0.68118 0
M  V30 28171 C 2684.41 0.920286 1.89984 0
M  V30 28172 O 2683.76 -0.0226414 2.28489 0
M  V30 28173 C 2683.97 3.32713 1.0537 0
M  V30 28174 C 2685.31 3.99335 1.44279 0
M  V30 28175 O 2686.34 3.37244 1.14651 0
M  V30 28176 O 2685.2 5.08781 1.99509 0
M  V30 28177 H 2682.29 0.756232 0.334728 0
M  V30 28178 H 2684.84 1.69582 -0.0632746 0
M  V30 28179 H 2683.61 3.90855 0.1866 0
M  V30 28180 H 2683.23 3.51616 1.85612 0
M  V30 28181 N 2684.23 -0.238084 1.55791 0
M  V30 28182 C 2685.14 -1.31621 1.94198 0
M  V30 28183 C 2686.16 -1.52184 0.843572 0
M  V30 28184 O 2687.33 -1.65635 1.14573 0
M  V30 28185 C 2684.4 -2.64914 2.23654 0
M  V30 28186 C 2683.46 -2.52798 3.46975 0
M  V30 28187 C 2682.69 -3.79734 3.75017 0
M  V30 28188 O 2682.91 -4.82014 3.0499 0
M  V30 28189 O 2681.85 -3.77838 4.68532 0
M  V30 28190 H 2685.67 -1.02038 2.86045 0
M  V30 28191 H 2683.26 -0.439578 1.42787 0
M  V30 28192 H 2685.14 -3.43665 2.43869 0
M  V30 28193 H 2683.82 -2.94212 1.34984 0
M  V30 28194 H 2682.72 -1.72303 3.32058 0
M  V30 28195 H 2684.06 -2.28443 4.35975 0
M  V30 28196 N 2685.71 -1.4932 -0.504115 0
M  V30 28197 C 2686.94 -1.62118 -1.28068 0
M  V30 28198 C 2687.35 -0.290599 -1.86955 0
M  V30 28199 O 2686.69 0.733587 -1.68417 0
M  V30 28200 C 2686.75 -2.62897 -2.45205 0
M  V30 28201 C 2686.41 -4.07324 -2.0721 0
M  V30 28202 C 2687.41 -4.94224 -1.61366 0
M  V30 28203 C 2685.1 -4.53036 -2.16941 0
M  V30 28204 C 2687.09 -6.24872 -1.25752 0
M  V30 28205 C 2684.78 -5.83699 -1.80938 0
M  V30 28206 C 2685.78 -6.69441 -1.35418 0
M  V30 28207 O 2685.46 -7.97668 -0.99901 0
M  V30 28208 H 2685.2 -0.548767 -0.394754 0
M  V30 28209 H 2687.75 -1.96068 -0.612084 0
M  V30 28210 H 2685.98 -2.24121 -3.1513 0
M  V30 28211 H 2687.67 -2.65257 -3.07235 0
M  V30 28212 H 2688.43 -4.60136 -1.53298 0
M  V30 28213 H 2684.31 -3.86468 -2.51324 0
M  V30 28214 H 2687.86 -6.9175 -0.901509 0
M  V30 28215 H 2683.75 -6.17316 -1.88656 0
M  V30 28216 H 2684.52 -8.10652 -1.13075 0
M  V30 28217 N 2687.19 0.754933 -1.38342 0
M  V30 28218 C 2688.12 1.87661 -1.2984 0
M  V30 28219 C 2689.1 1.61648 -0.175687 0
M  V30 28220 O 2690.28 1.85169 -0.352778 0
M  V30 28221 C 2687.41 3.23244 -1.01147 0
M  V30 28222 C 2686.45 3.68147 -2.15338 0
M  V30 28223 S 2687.29 3.79842 -3.77466 0
M  V30 28224 C 2688.44 5.18247 -3.50957 0
M  V30 28225 H 2688.68 1.94586 -2.24774 0
M  V30 28226 H 2686.21 0.917775 -1.24162 0
M  V30 28227 H 2688.17 4.01545 -0.852757 0
M  V30 28228 H 2686.83 3.14 -0.0793336 0
M  V30 28229 H 2686.02 4.66487 -1.90804 0
M  V30 28230 H 2685.62 2.96996 -2.27309 0
M  V30 28231 H 2687.91 6.03958 -3.06988 0
M  V30 28232 H 2688.86 5.47801 -4.48686 0
M  V30 28233 H 2689.27 4.8698 -2.855 0
M  V30 28234 N 2688.66 1.23189 0.982967 0
M  V30 28235 C 2689.61 1.01079 2.07489 0
M  V30 28236 C 2690.58 -0.0708758 1.65949 0
M  V30 28237 O 2691.77 0.0807157 1.90629 0
M  V30 28238 C 2688.91 0.60532 3.3975 0
M  V30 28239 C 2688.02 1.75883 3.94575 0
M  V30 28240 C 2687.15 1.30039 5.15037 0
M  V30 28241 C 2686.19 2.42481 5.62022 0
M  V30 28242 N 2685.33 1.97614 6.73716 0
M  V30 28243 H 2690.17 1.94544 2.25736 0
M  V30 28244 H 2687.71 0.969199 1.10657 0
M  V30 28245 H 2689.66 0.351352 4.15718 0
M  V30 28246 H 2688.29 -0.292325 3.21474 0
M  V30 28247 H 2687.35 2.12687 3.15386 0
M  V30 28248 H 2688.66 2.60426 4.25417 0
M  V30 28249 H 2687.81 1.0044 5.98328 0
M  V30 28250 H 2686.55 0.425301 4.85842 0
M  V30 28251 H 2685.56 2.72858 4.77314 0
M  V30 28252 H 2686.78 3.30523 5.93238 0
M  V30 28253 H 2684.73 1.12481 6.46285 0
M  V30 28254 H 2684.64 2.75717 7.03929 0
M  V30 28255 H 2685.91 1.71111 7.60487 0
M  V30 28256 N 2690.14 -1.18133 1.04318 0
M  V30 28257 C 2691.05 -2.25504 0.646916 0
M  V30 28258 C 2692.07 -1.70881 -0.327977 0
M  V30 28259 O 2693.24 -2.00573 -0.182273 0
M  V30 28260 C 2690.31 -3.46695 0.0186273 0
M  V30 28261 C 2689.37 -4.16441 1.04285 0
M  V30 28262 C 2688.6 -5.31846 0.444445 0
M  V30 28263 O 2688.83 -5.65466 -0.748636 0
M  V30 28264 O 2687.76 -5.90332 1.17439 0
M  V30 28265 H 2691.59 -2.61669 1.54152 0
M  V30 28266 H 2689.17 -1.25264 0.81421 0
M  V30 28267 H 2691.05 -4.20098 -0.330994 0
M  V30 28268 H 2689.73 -3.12347 -0.84976 0
M  V30 28269 H 2688.63 -3.45095 1.44431 0
M  V30 28270 H 2689.97 -4.54795 1.88208 0
M  V30 28271 N 2691.62 -0.822988 -1.34405 0
M  V30 28272 C 2692.58 -0.250311 -2.27829 0
M  V30 28273 C 2693.58 0.571827 -1.50289 0
M  V30 28274 O 2694.77 0.387923 -1.69826 0
M  V30 28275 C 2691.91 0.649078 -3.34664 0
M  V30 28276 H 2693.1 -1.07449 -2.7999 0
M  V30 28277 H 2690.65 -0.594855 -1.44538 0
M  V30 28278 H 2691.39 1.49632 -2.87717 0
M  V30 28279 H 2691.17 0.061051 -3.92052 0
M  V30 28280 H 2692.66 1.04356 -4.04351 0
M  V30 28281 N 2693.1 1.4662 -0.577957 0
M  V30 28282 C 2694.34 2.02706 -0.0618149 0
M  V30 28283 C 2694.68 1.44905 1.29291 0
M  V30 28284 O 2693.95 0.612352 1.84609 0
M  V30 28285 C 2694.24 3.60099 0.00905495 0
M  V30 28286 C 2694.09 4.28293 -1.37423 0
M  V30 28287 C 2695.41 4.34301 0.712082 0
M  V30 28288 H 2692.53 0.736611 -0.0239376 0
M  V30 28289 H 2695.17 1.74817 -0.744242 0
M  V30 28290 H 2693.32 3.8399 0.590225 0
M  V30 28291 H 2694.99 4.1568 -2.0002 0
M  V30 28292 H 2693.23 3.8784 -1.94326 0
M  V30 28293 H 2693.9 5.37022 -1.27716 0
M  V30 28294 H 2696.38 4.15526 0.218413 0
M  V30 28295 H 2695.26 5.44015 0.730686 0
M  V30 28296 H 2695.52 4.05015 1.77244 0
M  V30 28297 N 2694.58 0.315484 1.5441 0
M  V30 28298 C 2695.85 -0.343364 1.92563 0
M  V30 28299 C 2696.23 -1.70533 1.24426 0
M  V30 28300 O 2695.58 -2.25232 0.385091 0
M  V30 28301 C 2695.79 -0.443626 3.46169 0
M  V30 28302 C 2697.14 -0.707709 4.18661 0
M  V30 28303 O 2698.16 -0.526868 3.52282 0
M  V30 28304 O 2697.02 -1.05603 5.362 0
M  V30 28305 H 2694.12 -0.194538 0.803794 0
M  V30 28306 H 2696.66 0.364606 1.65737 0
M  V30 28307 H 2695.43 0.51324 3.8792 0
M  V30 28308 H 2695.06 -1.19949 3.79075 0
M  V30 28309 N 2696.05 -1.5754 0.0434891 0
M  V30 28310 C 2697 -2.07585 -0.943002 0
M  V30 28311 C 2697.99 -0.979364 -1.27661 0
M  V30 28312 O 2699.18 -1.24278 -1.26031 0
M  V30 28313 C 2696.31 -2.61816 -2.22052 0
M  V30 28314 C 2695.4 -3.78421 -1.91465 0
M  V30 28315 N 2695.79 -4.88486 -1.31205 0
M  V30 28316 C 2694.08 -3.8718 -2.21377 0
M  V30 28317 C 2694.79 -5.6959 -1.18074 0
M  V30 28318 N 2693.76 -5.16954 -1.68107 0
M  V30 28319 H 2697.56 -2.9008 -0.472303 0
M  V30 28320 H 2695.08 -1.61598 -0.161163 0
M  V30 28321 H 2697.07 -2.95969 -2.93612 0
M  V30 28322 H 2695.73 -1.80757 -2.69735 0
M  V30 28323 H 2696.75 -5.08442 -0.985229 0
M  V30 28324 H 2693.42 -3.17051 -2.71634 0
M  V30 28325 H 2694.81 -6.681 -0.713566 0
M  V30 28326 N 2697.53 0.229818 -1.55915 0
M  V30 28327 C 2698.76 0.97112 -1.82354 0
M  V30 28328 C 2699.17 1.78779 -0.619262 0
M  V30 28329 O 2698.51 1.78797 0.421565 0
M  V30 28330 C 2698.58 1.94405 -3.02402 0
M  V30 28331 C 2698.24 1.31269 -4.37741 0
M  V30 28332 C 2699.24 0.706666 -5.15075 0
M  V30 28333 C 2696.92 1.32694 -4.84456 0
M  V30 28334 C 2698.92 0.123301 -6.37281 0
M  V30 28335 C 2696.6 0.739724 -6.06606 0
M  V30 28336 C 2697.6 0.138951 -6.82859 0
M  V30 28337 O 2697.29 -0.439148 -8.027 0
M  V30 28338 H 2697.02 0.29059 -0.610355 0
M  V30 28339 H 2699.57 0.25271 -2.03839 0
M  V30 28340 H 2697.8 2.70123 -2.76714 0
M  V30 28341 H 2699.49 2.5502 -3.15784 0
M  V30 28342 H 2700.26 0.688047 -4.80095 0
M  V30 28343 H 2696.14 1.78394 -4.25084 0
M  V30 28344 H 2699.68 -0.346247 -6.9674 0
M  V30 28345 H 2695.58 0.755729 -6.41061 0
M  V30 28346 H 2696.35 -0.332665 -8.17824 0
M  V30 28347 N 2699.01 1.49585 0.49619 0
M  V30 28348 C 2699.97 1.66087 1.57949 0
M  V30 28349 C 2700.97 0.532466 1.51728 0
M  V30 28350 O 2702.16 0.799017 1.54795 0
M  V30 28351 C 2699.3 1.66273 2.97601 0
M  V30 28352 H 2700.49 2.62713 1.44645 0
M  V30 28353 H 2698.04 1.38689 0.720775 0
M  V30 28354 H 2698.78 0.712487 3.16377 0
M  V30 28355 H 2698.56 2.48225 3.03524 0
M  V30 28356 H 2700.05 1.8108 3.76297 0
M  V30 28357 N 2700.49 -0.747586 1.3874 0
M  V30 28358 C 2701.74 -1.50389 1.3501 0
M  V30 28359 C 2702.06 -1.94916 -0.0573931 0
M  V30 28360 O 2701.33 -1.68082 -1.00625 0
M  V30 28361 H 2699.91 -0.557857 0.496794 0
M  V30 28362 H 2702.57 -0.888289 1.7348 0
M  V30 28363 H 2701.67 -2.39196 2.00478 0
M  V30 28364 N 2701.97 -1.23709 -0.97642 0
M  V30 28365 C 2702.9 -0.979611 -2.07211 0
M  V30 28366 C 2703.91 0.0478242 -1.6273 0
M  V30 28367 O 2705.1 -0.188181 -1.77505 0
M  V30 28368 C 2702.2 -0.454849 -3.35834 0
M  V30 28369 C 2701.37 -1.54338 -4.09266 0
M  V30 28370 C 2700.43 -1.0228 -5.16164 0
M  V30 28371 O 2699.46 -1.71263 -5.42824 0
M  V30 28372 N 2700.66 0.147317 -5.80313 0
M  V30 28373 H 2703.43 -1.92296 -2.29875 0
M  V30 28374 H 2700.99 -1.1462 -1.14341 0
M  V30 28375 H 2702.98 -0.0915342 -4.04596 0
M  V30 28376 H 2701.55 0.394014 -3.10107 0
M  V30 28377 H 2700.77 -2.07929 -3.34902 0
M  V30 28378 H 2702.06 -2.2753 -4.55091 0
M  V30 28379 H 2701.45 0.724254 -5.61045 0
M  V30 28380 H 2700.01 0.451858 -6.50232 0
M  V30 28381 N 2703.44 1.17579 -1.04943 0
M  V30 28382 C 2704.37 2.23705 -0.669211 0
M  V30 28383 C 2705.36 1.66832 0.331806 0
M  V30 28384 O 2706.54 1.93062 0.209954 0
M  V30 28385 C 2703.67 3.47276 -0.04055 0
M  V30 28386 C 2702.62 4.16955 -0.966057 0
M  V30 28387 C 2701.95 5.34321 -0.201406 0
M  V30 28388 C 2703.25 4.69465 -2.2891 0
M  V30 28389 H 2704.94 2.55765 -1.55643 0
M  V30 28390 H 2702.49 1.22938 -0.749815 0
M  V30 28391 H 2704.44 4.20732 0.237224 0
M  V30 28392 H 2703.17 3.14476 0.881603 0
M  V30 28393 H 2701.83 3.45408 -1.22835 0
M  V30 28394 H 2701.47 4.9777 0.723432 0
M  V30 28395 H 2701.17 5.81877 -0.81807 0
M  V30 28396 H 2702.7 6.10561 0.0691426 0
M  V30 28397 H 2704.11 5.3457 -2.07141 0
M  V30 28398 H 2702.51 5.27591 -2.85951 0
M  V30 28399 H 2703.58 3.86409 -2.92944 0
M  V30 28400 N 2704.92 0.830104 1.33967 0
M  V30 28401 C 2705.86 0.202222 2.27302 0
M  V30 28402 C 2706.83 -0.645554 1.49236 0
M  V30 28403 O 2708.02 -0.607731 1.78435 0
M  V30 28404 C 2705.14 -0.716874 3.31027 0
M  V30 28405 C 2704.19 0.0543021 4.26465 0
M  V30 28406 S 2705.02 1.40631 5.16704 0
M  V30 28407 C 2706.18 0.492277 6.23961 0
M  V30 28408 H 2706.41 0.99351 2.80208 0
M  V30 28409 H 2703.95 0.626384 1.41123 0
M  V30 28410 H 2705.9 -1.24158 3.91274 0
M  V30 28411 H 2704.56 -1.48175 2.76953 0
M  V30 28412 H 2703.76 -0.644698 4.9986 0
M  V30 28413 H 2703.36 0.509787 3.70509 0
M  V30 28414 H 2705.65 -0.313351 6.76775 0
M  V30 28415 H 2706.59 1.19611 6.97925 0
M  V30 28416 H 2707 0.0775168 5.64447 0
M  V30 28417 N 2706.4 -1.46311 0.585725 0
M  V30 28418 C 2707.63 -2.0726 0.0762826 0
M  V30 28419 C 2708.05 -1.43111 -1.22069 0
M  V30 28420 O 2707.41 -0.515973 -1.73803 0
M  V30 28421 C 2707.46 -3.60526 -0.072877 0
M  V30 28422 O 2706.56 -3.96656 -1.12863 0
M  V30 28423 H 2705.9 -0.660892 0.0641674 0
M  V30 28424 H 2708.43 -1.87904 0.809525 0
M  V30 28425 H 2708.44 -4.07051 -0.278086 0
M  V30 28426 H 2707.12 -4.06607 0.874259 0
M  V30 28427 H 2705.69 -3.61835 -0.901639 0
M  V30 28428 N 2707.88 -0.323668 -1.54241 0
M  V30 28429 C 2708.81 0.534953 -2.27289 0
M  V30 28430 C 2709.79 1.11925 -1.28089 0
M  V30 28431 O 2710.98 1.14436 -1.56901 0
M  V30 28432 C 2708.11 1.69591 -3.03078 0
M  V30 28433 C 2707.06 1.24091 -4.09616 0
M  V30 28434 C 2706.39 2.48882 -4.73246 0
M  V30 28435 C 2707.69 0.355698 -5.21087 0
M  V30 28436 H 2709.38 -0.0743784 -2.99308 0
M  V30 28437 H 2706.93 -0.0372127 -1.43952 0
M  V30 28438 H 2708.88 2.30287 -3.52911 0
M  V30 28439 H 2707.6 2.33183 -2.28677 0
M  V30 28440 H 2706.26 0.656881 -3.60667 0
M  V30 28441 H 2705.91 3.10838 -3.9546 0
M  V30 28442 H 2705.61 2.19128 -5.45212 0
M  V30 28443 H 2707.13 3.10339 -5.25854 0
M  V30 28444 H 2708.55 0.868943 -5.66677 0
M  V30 28445 H 2706.94 0.150939 -5.9991 0
M  V30 28446 H 2708.01 -0.613423 -4.81004 0
M  V30 28447 N 2709.36 1.57515 -0.0518432 0
M  V30 28448 C 2710.63 1.84068 0.661694 0
M  V30 28449 C 2711.01 0.940384 1.88997 0
M  V30 28450 O 2710.36 0.0015942 2.285 0
M  V30 28451 C 2710.57 3.33812 1.01835 0
M  V30 28452 C 2711.92 4.00843 1.40036 0
M  V30 28453 O 2712.94 3.38441 1.11067 0
M  V30 28454 O 2711.8 5.10869 1.94102 0
M  V30 28455 H 2708.9 0.759739 0.326688 0
M  V30 28456 H 2711.44 1.69505 -0.0812575 0
M  V30 28457 H 2710.22 3.91031 0.145134 0
M  V30 28458 H 2709.84 3.53565 1.81873 0
M  V30 28459 N 2710.84 -0.221546 1.56035 0
M  V30 28460 C 2712.08 -0.943985 1.78247 0
M  V30 28461 C 2712.4 -1.855 0.620403 0
M  V30 28462 O 2713.6 -2.61609 0.726149 0
M  V30 28463 C 2712.06 -1.72874 3.15662 0
M  V30 28464 C 2711.67 -0.863865 4.39592 0
M  V30 28465 C 2713.41 -2.4424 3.47199 0
M  V30 28466 C 2711.32 -1.64597 5.68033 0
M  V30 28467 H 2710.25 -0.35621 0.664553 0
M  V30 28468 H 2712.9 -0.197872 1.8243 0
M  V30 28469 H 2711.28 -2.51776 3.05655 0
M  V30 28470 H 2712.46 -0.115383 4.60656 0
M  V30 28471 H 2710.77 -0.262334 4.15573 0
M  V30 28472 H 2713.37 -3.03256 4.40386 0
M  V30 28473 H 2713.71 -3.17125 2.69698 0
M  V30 28474 H 2714.24 -1.72328 3.58536 0
M  V30 28475 H 2710.98 -0.960393 6.48426 0
M  V30 28476 H 2710.5 -2.36907 5.51031 0
M  V30 28477 H 2712.18 -2.20665 6.08207 0
M  V30 28478 N 2712.31 -1.49846 -0.48825 0
M  V30 28479 C 2713.54 -1.63973 -1.26994 0
M  V30 28480 C 2713.96 -0.316026 -1.85426 0
M  V30 28481 O 2713.32 0.718003 -1.66476 0
M  V30 28482 C 2713.37 -2.72053 -2.36684 0
M  V30 28483 O 2712.47 -2.32113 -3.40877 0
M  V30 28484 H 2711.81 -0.548403 -0.374367 0
M  V30 28485 H 2714.34 -1.96116 -0.58307 0
M  V30 28486 H 2714.35 -2.9461 -2.82257 0
M  V30 28487 H 2713.03 -3.68133 -1.93523 0
M  V30 28488 H 2711.61 -2.19936 -3.01135 0
M  V30 28489 N 2713.79 0.740218 -1.39135 0
M  V30 28490 C 2715.02 1.52947 -1.39337 0
M  V30 28491 C 2715.43 1.88795 0.0134676 0
M  V30 28492 O 2714.79 1.53732 0.983497 0
M  V30 28493 C 2714.84 2.8203 -2.26145 0
M  V30 28494 O 2714.56 2.47706 -3.61349 0
M  V30 28495 C 2716.06 3.7609 -2.34673 0
M  V30 28496 H 2713.28 0.47282 -0.476111 0
M  V30 28497 H 2715.83 0.915068 -1.82885 0
M  V30 28498 H 2713.98 3.39814 -1.86024 0
M  V30 28499 H 2714.4 3.30588 -4.072 0
M  V30 28500 H 2715.87 4.63574 -2.99672 0
M  V30 28501 H 2716.35 4.17472 -1.36433 0
M  V30 28502 H 2716.95 3.24226 -2.75242 0
M  V30 28503 N 2715.27 1.24225 0.969846 0
M  V30 28504 C 2716.18 1.04974 2.09804 0
M  V30 28505 C 2717.2 -0.00883396 1.73998 0
M  V30 28506 O 2718.37 0.188883 2.00512 0
M  V30 28507 C 2715.44 0.654512 3.40466 0
M  V30 28508 C 2714.5 1.78933 3.90233 0
M  V30 28509 C 2713.73 1.41286 5.14659 0
M  V30 28510 O 2713.95 0.301732 5.69601 0
M  V30 28511 O 2712.89 2.23773 5.58757 0
M  V30 28512 H 2716.71 1.99552 2.28939 0
M  V30 28513 H 2714.3 1.03025 1.08195 0
M  V30 28514 H 2716.18 0.445525 4.19038 0
M  V30 28515 H 2714.86 -0.262159 3.22637 0
M  V30 28516 H 2713.76 2.05304 3.12731 0
M  V30 28517 H 2715.1 2.68469 4.12535 0
M  V30 28518 N 2716.75 -1.1702 1.05565 0
M  V30 28519 C 2717.68 -2.20713 0.617927 0
M  V30 28520 C 2718.69 -1.59619 -0.320275 0
M  V30 28521 O 2719.88 -1.78146 -0.112417 0
M  V30 28522 C 2716.98 -3.38704 -0.115274 0
M  V30 28523 C 2716.15 -4.29364 0.834569 0
M  V30 28524 C 2715.21 -5.26009 0.141948 0
M  V30 28525 O 2714.24 -5.63868 0.77725 0
M  V30 28526 N 2715.44 -5.69608 -1.11924 0
M  V30 28527 H 2718.21 -2.58889 1.50986 0
M  V30 28528 H 2715.77 -1.31957 0.938031 0
M  V30 28529 H 2717.76 -4.00393 -0.588848 0
M  V30 28530 H 2716.33 -2.99094 -0.908915 0
M  V30 28531 H 2715.55 -3.6505 1.48768 0
M  V30 28532 H 2716.84 -4.86824 1.47918 0
M  V30 28533 H 2716.24 -5.4093 -1.65565 0
M  V30 28534 H 2714.79 -6.33424 -1.53681 0
M  V30 28535 N 2718.23 -0.837197 -1.33524 0
M  V30 28536 C 2719.16 -0.214273 -2.27192 0
M  V30 28537 C 2720.14 0.637631 -1.49576 0
M  V30 28538 O 2721.32 0.59826 -1.78754 0
M  V30 28539 C 2718.45 0.699309 -3.31402 0
M  V30 28540 C 2717.49 -0.0769178 -4.26431 0
M  V30 28541 S 2718.33 -1.43369 -5.15951 0
M  V30 28542 C 2719.48 -0.52536 -6.23691 0
M  V30 28543 H 2719.72 -1.00836 -2.79677 0
M  V30 28544 H 2717.25 -0.633859 -1.40789 0
M  V30 28545 H 2719.21 1.22081 -3.91927 0
M  V30 28546 H 2717.87 1.46704 -2.77735 0
M  V30 28547 H 2717.06 0.61818 -5.00194 0
M  V30 28548 H 2716.66 -0.529429 -3.70234 0
M  V30 28549 H 2718.95 0.277456 -6.76932 0
M  V30 28550 H 2719.9 -1.23311 -6.9728 0
M  V30 28551 H 2720.31 -0.10745 -5.64398 0
M  V30 28552 N 2719.7 1.45999 -0.593476 0
M  V30 28553 C 2720.94 2.04219 -0.0860106 0
M  V30 28554 C 2721.31 1.45366 1.2543 0
M  V30 28555 O 2722.51 1.94853 1.85164 0
M  V30 28556 C 2720.78 3.57385 -0.0324942 0
M  V30 28557 S 2722.34 4.36825 0.415832 0
M  V30 28558 H 2719.16 0.709717 -0.0426997 0
M  V30 28559 H 2721.76 1.78898 -0.788401 0
M  V30 28560 H 2720.46 3.97734 -1.01173 0
M  V30 28561 H 2719.99 3.8726 0.692332 0
M  V30 28562 H 2722.01 4.67312 1.66836 0
M  V30 28563 N 2721.18 0.331843 1.54067 0
M  V30 28564 C 2722.11 -0.522892 2.2757 0
M  V30 28565 C 2723.09 -1.11244 1.28681 0
M  V30 28566 O 2724.28 -1.13603 1.57506 0
M  V30 28567 C 2721.41 -1.67981 3.03973 0
M  V30 28568 C 2720.36 -1.21917 4.10269 0
M  V30 28569 C 2719.69 -2.46369 4.74559 0
M  V30 28570 C 2720.99 -0.328058 5.21269 0
M  V30 28571 H 2722.68 0.0902503 2.99264 0
M  V30 28572 H 2720.23 0.0448463 1.4393 0
M  V30 28573 H 2722.18 -2.28412 3.54127 0
M  V30 28574 H 2720.91 -2.31967 2.2991 0
M  V30 28575 H 2719.56 -0.637745 3.6101 0
M  V30 28576 H 2719.21 -3.08736 3.97103 0
M  V30 28577 H 2718.91 -2.16234 5.46367 0
M  V30 28578 H 2720.44 -3.07546 5.27492 0
M  V30 28579 H 2721.85 -0.838878 5.67129 0
M  V30 28580 H 2720.25 -0.119122 5.99982 0
M  V30 28581 H 2721.32 0.638924 4.80672 0
M  V30 28582 N 2722.66 -1.57485 0.0601958 0
M  V30 28583 C 2723.57 -2.15548 -0.926083 0
M  V30 28584 C 2724.59 -1.11561 -1.3353 0
M  V30 28585 O 2725.76 -1.43772 -1.41037 0
M  V30 28586 C 2722.83 -2.69629 -2.17947 0
M  V30 28587 C 2721.89 -3.88447 -1.82776 0
M  V30 28588 C 2721.12 -4.3994 -3.0214 0
M  V30 28589 O 2721.34 -3.90473 -4.15796 0
M  V30 28590 O 2720.28 -5.31417 -2.8263 0
M  V30 28591 H 2724.1 -3.00162 -0.462236 0
M  V30 28592 H 2721.69 -1.48517 -0.16222 0
M  V30 28593 H 2723.57 -3.04342 -2.91469 0
M  V30 28594 H 2722.25 -1.88081 -2.63452 0
M  V30 28595 H 2721.15 -3.58608 -1.06543 0
M  V30 28596 H 2722.49 -4.71252 -1.42064 0
M  V30 28597 N 2724.14 0.213268 -1.5615 0
M  V30 28598 C 2725.42 0.961251 -1.70351 0
M  V30 28599 C 2725.8 2.021 -0.609827 0
M  V30 28600 O 2725.14 2.25285 0.381948 0
M  V30 28601 C 2725.35 1.56418 -3.11985 0
M  V30 28602 C 2726.7 2.05328 -3.71653 0
M  V30 28603 O 2727.73 1.66296 -3.14998 0
M  V30 28604 O 2726.58 2.77094 -4.71043 0
M  V30 28605 H 2723.68 0.44957 -0.694129 0
M  V30 28606 H 2726.22 0.204397 -1.68465 0
M  V30 28607 H 2725 0.799389 -3.83048 0
M  V30 28608 H 2724.62 2.38636 -3.18023 0
M  V30 28609 N 2725.62 1.50103 0.480296 0
M  V30 28610 C 2726.58 1.67753 1.56178 0
M  V30 28611 C 2727.58 0.548529 1.51155 0
M  V30 28612 O 2728.77 0.81539 1.53938 0
M  V30 28613 C 2725.9 1.6942 2.9582 0
M  V30 28614 H 2727.09 2.64232 1.4185 0
M  V30 28615 H 2724.65 1.39445 0.706025 0
M  V30 28616 H 2725.38 0.746003 3.15603 0
M  V30 28617 H 2725.17 2.5143 3.00874 0
M  V30 28618 H 2726.66 1.85061 3.74356 0
M  V30 28619 N 2727.09 -0.732829 1.39526 0
M  V30 28620 C 2728.03 -1.85572 1.32809 0
M  V30 28621 C 2729.01 -1.61348 0.201382 0
M  V30 28622 O 2730.19 -1.84585 0.382192 0
M  V30 28623 C 2727.32 -3.21594 1.06277 0
M  V30 28624 C 2726.36 -3.64674 2.21167 0
M  V30 28625 S 2727.2 -3.73789 3.83461 0
M  V30 28626 C 2728.35 -5.12598 3.59158 0
M  V30 28627 H 2728.58 -1.90986 2.27842 0
M  V30 28628 H 2726.12 -0.897905 1.25607 0
M  V30 28629 H 2728.08 -4.00137 0.916532 0
M  V30 28630 H 2726.74 -3.13834 0.129278 0
M  V30 28631 H 2725.93 -4.63392 1.98201 0
M  V30 28632 H 2725.53 -2.93342 2.32005 0
M  V30 28633 H 2727.82 -5.98997 3.16557 0
M  V30 28634 H 2728.77 -5.40594 4.57345 0
M  V30 28635 H 2729.17 -4.82377 2.93212 0
M  V30 28636 N 2728.57 -1.24737 -0.963244 0
M  V30 28637 C 2729.8 -1.11527 -1.73912 0
M  V30 28638 C 2730.21 0.334579 -1.86218 0
M  V30 28639 O 2729.55 1.24242 -1.35313 0
M  V30 28640 C 2729.62 -1.68627 -3.17498 0
M  V30 28641 C 2729.28 -3.17551 -3.28649 0
M  V30 28642 C 2730.28 -4.14647 -3.1363 0
M  V30 28643 C 2727.96 -3.57597 -3.52746 0
M  V30 28644 C 2729.96 -5.49769 -3.2254 0
M  V30 28645 C 2727.64 -4.92859 -3.61294 0
M  V30 28646 C 2728.64 -5.88754 -3.46204 0
M  V30 28647 O 2728.33 -7.21556 -3.54417 0
M  V30 28648 H 2728.06 -0.390149 -0.552051 0
M  V30 28649 H 2730.61 -1.65414 -1.21768 0
M  V30 28650 H 2728.84 -1.09179 -3.70968 0
M  V30 28651 H 2730.53 -1.50642 -3.76911 0
M  V30 28652 H 2731.3 -3.8505 -2.94892 0
M  V30 28653 H 2727.18 -2.83457 -3.63556 0
M  V30 28654 H 2730.72 -6.24599 -3.10679 0
M  V30 28655 H 2726.62 -5.22125 -3.79547 0
M  V30 28656 H 2727.39 -7.29537 -3.71103 0
M  V30 28657 N 2730.05 1.16459 -1.06184 0
M  V30 28658 C 2731.3 1.86593 -0.776359 0
M  V30 28659 C 2731.62 1.82034 0.699178 0
M  V30 28660 O 2730.89 1.25313 1.50577 0
M  V30 28661 H 2729.47 0.690827 -0.284196 0
M  V30 28662 H 2732.13 1.41233 -1.34311 0
M  V30 28663 H 2731.23 2.92062 -1.10027 0
M  V30 28664 N 2731.53 0.844266 1.33079 0
M  V30 28665 C 2732.76 0.456238 2.01807 0
M  V30 28666 C 2733.17 -0.944102 1.635 0
M  V30 28667 O 2732.53 -1.61442 0.851049 0
M  V30 28668 C 2732.58 0.573576 3.56921 0
M  V30 28669 O 2732.3 1.91874 3.93847 0
M  V30 28670 C 2733.8 0.183203 4.42921 0
M  V30 28671 H 2731.02 0.180489 0.64627 0
M  V30 28672 H 2733.57 1.13833 1.69889 0
M  V30 28673 H 2731.72 -0.0606686 3.87352 0
M  V30 28674 H 2732.13 1.90811 4.88561 0
M  V30 28675 H 2733.61 0.316337 5.51093 0
M  V30 28676 H 2734.09 -0.875401 4.30387 0
M  V30 28677 H 2734.69 0.7921 4.17859 0
M  V30 28678 N 2733.01 -1.45682 0.60121 0
M  V30 28679 C 2734.28 -1.95582 0.0262003 0
M  V30 28680 C 2734.66 -1.54372 -1.43987 0
M  V30 28681 O 2734.01 -0.803217 -2.13917 0
M  V30 28682 C 2734.22 -3.48321 0.217618 0
M  V30 28683 C 2735.57 -4.24494 0.0950822 0
M  V30 28684 O 2736.59 -3.55895 0.147408 0
M  V30 28685 O 2735.45 -5.46494 -0.0251649 0
M  V30 28686 H 2732.55 -0.826063 -0.0393543 0
M  V30 28687 H 2735.09 -1.55878 0.670825 0
M  V30 28688 H 2733.86 -3.71264 1.23608 0
M  V30 28689 H 2733.49 -3.949 -0.462571 0
M  V30 28690 N 2734.48 -0.340009 -1.53889 0
M  V30 28691 C 2735.73 0.257077 -2.00458 0
M  V30 28692 C 2736.05 1.51351 -1.22955 0
M  V30 28693 O 2735.32 1.93001 -0.335768 0
M  V30 28694 H 2733.9 0.0979835 -0.740546 0
M  V30 28695 H 2736.57 -0.46035 -1.89385 0
M  V30 28696 H 2735.66 0.502002 -3.08036 0
M  V30 28697 N 2735.96 1.57451 -0.0685468 0
M  V30 28698 C 2736.89 2.15565 0.897432 0
M  V30 28699 C 2737.87 1.08184 1.31264 0
M  V30 28700 O 2739.06 1.36204 1.38427 0
M  V30 28701 C 2736.19 2.71466 2.16618 0
M  V30 28702 C 2735.14 3.83986 1.89047 0
M  V30 28703 C 2734.47 4.26476 3.22525 0
M  V30 28704 C 2735.77 5.08368 1.19831 0
M  V30 28705 H 2737.46 2.96533 0.413321 0
M  V30 28706 H 2735.01 1.42641 0.197365 0
M  V30 28707 H 2736.96 3.10766 2.84609 0
M  V30 28708 H 2735.69 1.87715 2.67265 0
M  V30 28709 H 2734.35 3.45185 1.23463 0
M  V30 28710 H 2733.99 3.39651 3.71007 0
M  V30 28711 H 2733.69 5.02323 3.0487 0
M  V30 28712 H 2735.22 4.6839 3.91719 0
M  V30 28713 H 2736.63 5.45004 1.77886 0
M  V30 28714 H 2735.03 5.89471 1.12445 0
M  V30 28715 H 2736.1 4.84577 0.176911 0
M  V30 28716 N 2737.44 -0.204984 1.56261 0
M  V30 28717 C 2738.35 -1.27473 1.96946 0
M  V30 28718 C 2739.37 -1.5036 0.875662 0
M  V30 28719 O 2740.54 -1.63167 1.18061 0
M  V30 28720 C 2737.61 -2.60111 2.29223 0
M  V30 28721 C 2736.67 -2.45381 3.52259 0
M  V30 28722 C 2735.9 -3.71694 3.82987 0
M  V30 28723 O 2736.13 -4.75436 3.15146 0
M  V30 28724 O 2735.06 -3.67815 4.76441 0
M  V30 28725 H 2738.89 -0.959477 2.88145 0
M  V30 28726 H 2736.47 -0.409192 1.43687 0
M  V30 28727 H 2738.35 -3.38415 2.51104 0
M  V30 28728 H 2737.03 -2.91283 1.41195 0
M  V30 28729 H 2735.93 -1.65221 3.35638 0
M  V30 28730 H 2737.27 -2.19144 4.40723 0
M  V30 28731 N 2738.92 -1.50356 -0.472329 0
M  V30 28732 C 2739.88 -1.68579 -1.55287 0
M  V30 28733 C 2740.88 -0.556538 -1.50862 0
M  V30 28734 O 2742.07 -0.823543 -1.53504 0
M  V30 28735 C 2739.2 -1.70986 -2.94918 0
M  V30 28736 H 2740.4 -2.64981 -1.40447 0
M  V30 28737 H 2737.95 -1.39818 -0.69862 0
M  V30 28738 H 2738.69 -0.76273 -3.15203 0
M  V30 28739 H 2738.47 -2.53022 -2.99536 0
M  V30 28740 H 2739.96 -1.87044 -3.73369 0
M  V30 28741 N 2740.4 0.725419 -1.39912 0
M  V30 28742 C 2741.33 1.85252 -1.42141 0
M  V30 28743 C 2742.31 1.6772 -0.283542 0
M  V30 28744 O 2743.49 1.87897 -0.49075 0
M  V30 28745 C 2740.62 3.23105 -1.27359 0
M  V30 28746 C 2739.58 3.55291 -2.38646 0
M  V30 28747 C 2738.9 4.92184 -2.08947 0
M  V30 28748 C 2740.2 3.57288 -3.80976 0
M  V30 28749 H 2741.9 1.83644 -2.36464 0
M  V30 28750 H 2739.44 0.882118 -1.13819 0
M  V30 28751 H 2741.4 4.01637 -1.27537 0
M  V30 28752 H 2740.12 3.25264 -0.295083 0
M  V30 28753 H 2738.78 2.79094 -2.37701 0
M  V30 28754 H 2738.43 4.90934 -1.09511 0
M  V30 28755 H 2738.13 5.14686 -2.835 0
M  V30 28756 H 2739.65 5.73061 -2.10791 0
M  V30 28757 H 2741.07 4.25878 -3.83798 0
M  V30 28758 H 2739.46 3.91312 -4.54967 0
M  V30 28759 H 2740.53 2.56883 -4.11265 0
M  V30 28760 N 2741.88 1.25246 0.956615 0
M  V30 28761 C 2743.15 1.00654 1.67715 0
M  V30 28762 C 2743.53 -0.46783 2.05851 0
M  V30 28763 O 2742.88 -1.44472 1.77031 0
M  V30 28764 C 2743.09 1.94034 2.9009 0
M  V30 28765 C 2744.44 2.21763 3.62086 0
M  V30 28766 O 2745.46 1.91776 3.00167 0
M  V30 28767 O 2744.32 2.72744 4.73575 0
M  V30 28768 H 2741.42 0.381546 0.733724 0
M  V30 28769 H 2743.96 1.36392 1.00972 0
M  V30 28770 H 2742.73 2.93596 2.58683 0
M  V30 28771 H 2742.36 1.5868 3.64563 0
M  V30 28772 N 2743.35 -1.15894 1.068 0
M  V30 28773 C 2744.28 -2.22612 0.704716 0
M  V30 28774 C 2745.26 -1.67339 -0.305222 0
M  V30 28775 O 2746.45 -1.93371 -0.179213 0
M  V30 28776 C 2743.58 -3.47168 0.0957935 0
M  V30 28777 C 2742.53 -4.15365 1.03227 0
M  V30 28778 C 2741.86 -5.33933 0.286386 0
M  V30 28779 C 2743.16 -4.65764 2.3635 0
M  V30 28780 H 2744.85 -2.53256 1.59693 0
M  V30 28781 H 2742.4 -1.2173 0.769278 0
M  V30 28782 H 2744.35 -4.21056 -0.170259 0
M  V30 28783 H 2743.08 -3.15839 -0.831461 0
M  V30 28784 H 2741.74 -3.43411 1.28315 0
M  V30 28785 H 2741.38 -4.98858 -0.644149 0
M  V30 28786 H 2741.08 -5.80502 0.910538 0
M  V30 28787 H 2742.61 -6.10594 0.0280011 0
M  V30 28788 H 2744.02 -5.31207 2.15619 0
M  V30 28789 H 2742.42 -5.22975 2.94308 0
M  V30 28790 H 2743.49 -3.817 2.99054 0
M  V30 28791 N 2744.83 -0.851312 -1.32629 0
M  V30 28792 C 2746.06 -0.466042 -2.02096 0
M  V30 28793 C 2746.48 0.92868 -1.63576 0
M  V30 28794 O 2745.84 1.60943 -0.834694 0
M  V30 28795 C 2745.89 -0.6088 -3.55424 0
M  V30 28796 O 2744.99 0.359806 -4.10827 0
M  V30 28797 H 2744.33 -0.187735 -0.636908 0
M  V30 28798 H 2746.86 -1.14958 -1.69251 0
M  V30 28799 H 2746.87 -0.495077 -4.04985 0
M  V30 28800 H 2745.55 -1.62588 -3.82803 0
M  V30 28801 H 2744.12 0.202601 -3.72349 0
M  V30 28802 N 2746.31 1.45361 -0.608928 0
M  V30 28803 C 2747.54 2.06602 -0.111049 0
M  V30 28804 C 2747.95 1.45334 1.20513 0
M  V30 28805 O 2747.31 0.568008 1.73436 0
M  V30 28806 C 2747.36 3.61484 0.0336244 0
M  V30 28807 O 2747.08 4.20465 -1.23048 0
M  V30 28808 C 2748.58 4.39713 0.562805 0
M  V30 28809 H 2745.8 0.667395 -0.0694571 0
M  V30 28810 H 2748.35 1.86585 -0.83704 0
M  V30 28811 H 2746.5 3.80839 0.709949 0
M  V30 28812 H 2746.92 5.13656 -1.06103 0
M  V30 28813 H 2748.39 5.48584 0.613117 0
M  V30 28814 H 2748.87 4.09589 1.58535 0
M  V30 28815 H 2749.47 4.25226 -0.0795201 0
M  V30 28816 N 2747.79 0.348166 1.53706 0
M  V30 28817 C 2749.01 -0.250847 2.05877 0
M  V30 28818 C 2749.44 -1.4307 1.22117 0
M  V30 28819 O 2748.8 -1.79757 0.236017 0
M  V30 28820 C 2748.84 -0.639354 3.54887 0
M  V30 28821 O 2747.95 -1.73881 3.73951 0
M  V30 28822 H 2747.29 -0.0406414 0.662755 0
M  V30 28823 H 2749.82 0.50372 1.98302 0
M  V30 28824 H 2749.83 -0.915225 3.97602 0
M  V30 28825 H 2748.5 0.223459 4.15299 0
M  V30 28826 H 2747.08 -1.45985 3.43137 0
M  V30 28827 N 2749.27 -1.57412 0.0768958 0
M  V30 28828 C 2750.23 -2.11885 -0.873911 0
M  V30 28829 C 2751.23 -1.04401 -1.22299 0
M  V30 28830 O 2752.42 -1.30367 -1.15543 0
M  V30 28831 C 2749.55 -2.62442 -2.1757 0
M  V30 28832 H 2750.74 -2.97204 -0.401226 0
M  V30 28833 H 2748.3 -1.55352 -0.171877 0
M  V30 28834 H 2749.03 -1.80592 -2.69364 0
M  V30 28835 H 2748.82 -3.41012 -1.93528 0
M  V30 28836 H 2750.31 -3.04644 -2.85625 0
M  V30 28837 N 2750.74 0.196695 -1.56368 0
M  V30 28838 C 2751.99 0.915522 -1.80174 0
M  V30 28839 C 2752.31 1.83859 -0.649682 0
M  V30 28840 O 2751.58 1.93065 0.332077 0
M  V30 28841 H 2750.16 0.341055 -0.664598 0
M  V30 28842 H 2752.83 0.202588 -1.93844 0
M  V30 28843 H 2751.92 1.50759 -2.73273 0
M  V30 28844 N 2752.22 1.50604 0.464349 0
M  V30 28845 C 2753.45 1.65456 1.23724 0
M  V30 28846 C 2753.86 0.340064 1.86119 0
M  V30 28847 O 2753.2 -0.688676 1.70303 0
M  V30 28848 C 2753.27 2.69306 2.38149 0
M  V30 28849 C 2752.93 4.12675 1.96338 0
M  V30 28850 C 2753.93 4.98328 1.48206 0
M  V30 28851 C 2751.61 4.58629 2.04853 0
M  V30 28852 C 2753.61 6.27986 1.09141 0
M  V30 28853 C 2751.29 5.88291 1.65399 0
M  V30 28854 C 2752.29 6.72796 1.17622 0
M  V30 28855 O 2751.98 8.00037 0.787171 0
M  V30 28856 H 2751.71 0.559041 0.380065 0
M  V30 28857 H 2754.26 1.97622 0.559885 0
M  V30 28858 H 2752.49 2.32397 3.09077 0
M  V30 28859 H 2754.18 2.7331 3.00094 0
M  V30 28860 H 2754.95 4.64038 1.41044 0
M  V30 28861 H 2750.83 3.92995 2.40989 0
M  V30 28862 H 2754.37 6.93897 0.717787 0
M  V30 28863 H 2750.27 6.22101 1.72223 0
M  V30 28864 H 2751.04 8.13365 0.915424 0
M  V30 28865 N 2753.7 -0.717989 1.40295 0
M  V30 28866 C 2755.11 -1.29703 1.34291 0
M  V30 28867 C 2755.46 -1.96194 0.0152573 0
M  V30 28868 O 2754.59 -1.97396 -0.886785 0
M  V30 28869 C 2755.18 -2.35855 2.43223 0
M  V30 28870 C 2753.74 -2.8939 2.40687 0
M  V30 28871 C 2752.89 -1.6315 2.24226 0
M  V30 28872 H 2755.84 -0.514286 1.50136 0
M  V30 28873 H 2755.86 -3.16643 2.10992 0
M  V30 28874 H 2755.37 -1.87433 3.39839 0
M  V30 28875 H 2753.47 -3.42049 1.47762 0
M  V30 28876 H 2753.59 -3.41347 3.36183 0
M  V30 28877 H 2751.95 -1.88126 1.71699 0
M  V30 28878 H 2752.73 -1.16755 3.22836 0
M  V30 28879 N 2755.18 -1.25752 -0.94996 0
M  V30 28880 C 2756.41 -1.13366 -1.72719 0
M  V30 28881 C 2756.82 0.314809 -1.86563 0
M  V30 28882 O 2756.16 1.228 -1.36623 0
M  V30 28883 C 2756.22 -1.71985 -3.15692 0
M  V30 28884 C 2755.89 -3.21019 -3.25262 0
M  V30 28885 C 2756.88 -4.1795 -3.09214 0
M  V30 28886 C 2754.57 -3.61318 -3.48934 0
M  V30 28887 C 2756.56 -5.53159 -3.16691 0
M  V30 28888 C 2754.25 -4.96663 -3.56046 0
M  V30 28889 C 2755.25 -5.92393 -3.3994 0
M  V30 28890 O 2754.93 -7.25275 -3.46744 0
M  V30 28891 H 2754.67 -0.395982 -0.547881 0
M  V30 28892 H 2757.22 -1.66696 -1.20006 0
M  V30 28893 H 2755.45 -1.13107 -3.69789 0
M  V30 28894 H 2757.14 -1.54631 -3.75292 0
M  V30 28895 H 2757.91 -3.88156 -2.90791 0
M  V30 28896 H 2753.78 -2.87297 -3.60529 0
M  V30 28897 H 2757.33 -6.27859 -3.04037 0
M  V30 28898 H 2753.23 -5.26121 -3.73988 0
M  V30 28899 H 2753.99 -7.33432 -3.63345 0
M  V30 28900 N 2756.66 1.15326 -1.07413 0
M  V30 28901 C 2757.9 1.86403 -0.798863 0
M  V30 28902 C 2758.24 1.82151 0.673401 0
M  V30 28903 O 2757.51 1.24508 1.49426 0
M  V30 28904 C 2757.79 3.35484 -1.30852 0
M  V30 28905 C 2757.65 3.48365 -2.84538 0
M  V30 28906 C 2758.97 4.30257 -0.925562 0
M  V30 28907 H 2756.08 0.676829 -0.291671 0
M  V30 28908 H 2758.73 1.35489 -1.33202 0
M  V30 28909 H 2756.88 3.78975 -0.854983 0
M  V30 28910 H 2758.55 3.13733 -3.38185 0
M  V30 28911 H 2756.79 2.89904 -3.22704 0
M  V30 28912 H 2757.46 4.53112 -3.15267 0
M  V30 28913 H 2759.94 3.94729 -1.31637 0
M  V30 28914 H 2758.81 5.33051 -1.30949 0
M  V30 28915 H 2759.08 4.41779 0.168447 0
M  V30 28916 N 2758.13 0.858334 1.32176 0
M  V30 28917 C 2759.1 0.310628 2.27085 0
M  V30 28918 C 2760.1 -0.53178 1.51752 0
M  V30 28919 O 2761.29 -0.34276 1.70795 0
M  V30 28920 C 2758.42 -0.56012 3.36267 0
M  V30 28921 H 2759.61 1.14835 2.77043 0
M  V30 28922 H 2757.17 0.632967 1.4291 0
M  V30 28923 H 2757.9 -1.41951 2.91583 0
M  V30 28924 H 2757.69 0.0429162 3.92077 0
M  V30 28925 H 2759.18 -0.935984 4.06976 0
M  V30 28926 N 2759.61 -1.45036 0.616628 0
M  V30 28927 C 2760.55 -2.27733 -0.145944 0
M  V30 28928 C 2761.52 -1.37677 -0.865084 0
M  V30 28929 O 2762.71 -1.67112 -0.872122 0
M  V30 28930 C 2759.83 -3.16267 -1.21214 0
M  V30 28931 C 2758.88 -4.22327 -0.595144 0
M  V30 28932 S 2759.71 -5.32085 0.603837 0
M  V30 28933 C 2760.87 -6.24187 -0.462732 0
M  V30 28934 H 2761.1 -2.92061 0.555643 0
M  V30 28935 H 2758.64 -1.4901 0.404391 0
M  V30 28936 H 2760.59 -3.6783 -1.8224 0
M  V30 28937 H 2759.25 -2.51186 -1.88585 0
M  V30 28938 H 2758.45 -4.84233 -1.39767 0
M  V30 28939 H 2758.05 -3.73952 -0.0598308 0
M  V30 28940 H 2760.34 -6.6413 -1.33933 0
M  V30 28941 H 2761.28 -7.07998 0.120384 0
M  V30 28942 H 2761.69 -5.59056 -0.782121 0
M  V30 28943 N 2761.09 -0.356312 -1.53519 0
M  V30 28944 C 2762.34 0.235801 -2.0072 0
M  V30 28945 C 2762.66 1.50038 -1.24554 0
M  V30 28946 O 2761.93 1.92634 -0.356219 0
M  V30 28947 H 2760.51 0.0901235 -0.741543 0
M  V30 28948 H 2763.17 -0.480411 -1.88886 0
M  V30 28949 H 2762.27 0.469303 -3.08551 0
M  V30 28950 N 2762.57 1.57369 -0.0852427 0
M  V30 28951 C 2763.52 2.13479 0.877231 0
M  V30 28952 C 2764.49 1.05076 1.2864 0
M  V30 28953 O 2765.67 1.3281 1.36989 0
M  V30 28954 C 2762.81 2.71163 2.13459 0
M  V30 28955 C 2761.92 3.93767 1.77684 0
M  V30 28956 C 2761.06 4.39649 2.98132 0
M  V30 28957 C 2760.1 5.54867 2.58437 0
M  V30 28958 N 2759.23 5.95645 3.71687 0
M  V30 28959 H 2764.07 2.95412 0.391881 0
M  V30 28960 H 2761.61 1.45973 0.18177 0
M  V30 28961 H 2763.57 3.02722 2.87081 0
M  V30 28962 H 2762.2 1.91974 2.59511 0
M  V30 28963 H 2761.25 3.68585 0.940703 0
M  V30 28964 H 2762.56 4.77414 1.44489 0
M  V30 28965 H 2761.72 4.72939 3.80018 0
M  V30 28966 H 2760.46 3.54882 3.3453 0
M  V30 28967 H 2759.46 5.21214 1.74975 0
M  V30 28968 H 2760.69 6.41375 2.23194 0
M  V30 28969 H 2758.63 5.13826 4.07822 0
M  V30 28970 H 2758.55 6.74065 3.42305 0
M  V30 28971 H 2759.82 6.33563 4.54112 0
M  V30 28972 N 2764.05 -0.188399 1.5647 0
M  V30 28973 C 2764.99 -1.23346 1.95076 0
M  V30 28974 C 2765.96 -1.44884 0.812264 0
M  V30 28975 O 2767.15 -1.57907 1.07098 0
M  V30 28976 C 2764.29 -2.57167 2.30128 0
M  V30 28977 C 2763.4 -2.43151 3.57074 0
M  V30 28978 C 2762.54 -3.69722 3.81417 0
M  V30 28979 C 2761.58 -3.50566 5.01766 0
M  V30 28980 N 2760.71 -4.69165 5.2233 0
M  V30 28981 H 2765.55 -0.89723 2.84172 0
M  V30 28982 H 2763.09 -0.431659 1.40624 0
M  V30 28983 H 2765.05 -3.3514 2.48469 0
M  V30 28984 H 2763.68 -2.88819 1.44164 0
M  V30 28985 H 2762.73 -1.56441 3.46743 0
M  V30 28986 H 2764.04 -2.24934 4.45204 0
M  V30 28987 H 2763.2 -4.56134 4.00034 0
M  V30 28988 H 2761.93 -3.909 2.9163 0
M  V30 28989 H 2760.94 -2.6254 4.83066 0
M  V30 28990 H 2762.16 -3.30827 5.93069 0
M  V30 28991 H 2760.11 -4.90595 4.35491 0
M  V30 28992 H 2760.03 -4.53798 6.04651 0
M  V30 28993 H 2761.3 -5.56909 5.4541 0
M  V30 28994 N 2765.53 -1.50848 -0.456355 0
M  V30 28995 C 2766.47 -1.70785 -1.55246 0
M  V30 28996 C 2767.44 -0.549259 -1.56756 0
M  V30 28997 O 2768.63 -0.78153 -1.7406 0
M  V30 28998 C 2765.77 -1.82148 -2.93114 0
M  V30 28999 C 2764.88 -3.09604 -3.0128 0
M  V30 29000 C 2764.02 -3.11675 -4.30154 0
M  V30 29001 C 2763.05 -4.33523 -4.32116 0
M  V30 29002 N 2762.19 -4.3325 -5.52484 0
M  V30 29003 H 2767.03 -2.64356 -1.3755 0
M  V30 29004 H 2764.57 -1.31031 -0.66852 0
M  V30 29005 H 2766.53 -1.86718 -3.73085 0
M  V30 29006 H 2765.16 -0.920033 -3.09411 0
M  V30 29007 H 2764.21 -3.14435 -2.1409 0
M  V30 29008 H 2765.52 -3.99557 -2.9859 0
M  V30 29009 H 2764.67 -3.15055 -5.18484 0
M  V30 29010 H 2763.41 -2.19577 -4.35473 0
M  V30 29011 H 2762.42 -4.30339 -3.42182 0
M  V30 29012 H 2763.64 -5.26864 -4.28476 0
M  V30 29013 H 2761.59 -3.44014 -5.58561 0
M  V30 29014 H 2761.51 -5.16989 -5.51596 0
M  V30 29015 H 2762.77 -4.40797 -6.42898 0
M  V30 29016 N 2767 0.710538 -1.40674 0
M  V30 29017 C 2768.42 1.01925 -1.22814 0
M  V30 29018 C 2768.62 2.01216 -0.106905 0
M  V30 29019 O 2767.68 2.46798 0.533571 0
M  V30 29020 C 2768.99 1.55815 -2.57181 0
M  V30 29021 C 2770.54 1.67775 -2.64236 0
M  V30 29022 C 2771.01 2.25069 -3.98883 0
M  V30 29023 N 2772.5 2.32449 -4.00652 0
M  V30 29024 C 2773.24 2.77775 -5.01626 0
M  V30 29025 N 2772.73 3.22815 -6.12994 0
M  V30 29026 N 2774.53 2.77204 -4.88993 0
M  V30 29027 H 2766.68 0.0524927 -2.12335 0
M  V30 29028 H 2768.94 0.0858814 -0.944102 0
M  V30 29029 H 2768.65 0.903189 -3.39905 0
M  V30 29030 H 2768.52 2.54262 -2.78622 0
M  V30 29031 H 2770.91 2.32387 -1.8188 0
M  V30 29032 H 2770.99 0.679134 -2.4662 0
M  V30 29033 H 2770.63 1.61077 -4.81681 0
M  V30 29034 H 2770.56 3.25654 -4.13832 0
M  V30 29035 H 2773.05 2.00645 -3.20235 0
M  V30 29036 H 2773.37 3.55983 -6.85927 0
M  V30 29037 H 2771.71 3.20762 -6.16552 0
M  V30 29038 H 2774.9 2.41356 -4.0108 0
M  V30 29039 H 2775.08 3.12211 -5.67827 0
M  V30 29040 N 2768.48 1.26254 0.943277 0
M  V30 29041 C 2769.76 1.02427 1.66638 0
M  V30 29042 C 2770.14 -0.44597 2.06335 0
M  V30 29043 O 2769.49 -1.42586 1.78554 0
M  V30 29044 C 2769.7 1.97099 2.88015 0
M  V30 29045 C 2771.04 2.25591 3.59714 0
M  V30 29046 O 2772.07 1.94949 2.98117 0
M  V30 29047 O 2770.93 2.77751 4.70655 0
M  V30 29048 H 2768.02 0.389307 0.729636 0
M  V30 29049 H 2770.57 1.37455 0.995194 0
M  V30 29050 H 2769.34 2.96323 2.55555 0
M  V30 29051 H 2768.96 1.62538 3.6286 0
M  V30 29052 N 2769.96 -1.14755 1.08024 0
M  V30 29053 C 2771.21 -1.85048 0.802501 0
M  V30 29054 C 2771.52 -1.8362 -0.674028 0
M  V30 29055 O 2772.73 -2.49664 -1.06678 0
M  V30 29056 C 2771.18 -3.3216 1.38556 0
M  V30 29057 C 2770.79 -3.42016 2.8936 0
M  V30 29058 C 2772.54 -4.07591 1.18615 0
M  V30 29059 C 2770.44 -4.83315 3.40823 0
M  V30 29060 H 2769.37 -0.693243 0.29653 0
M  V30 29061 H 2772.02 -1.29391 1.30116 0
M  V30 29062 H 2770.41 -3.8753 0.814624 0
M  V30 29063 H 2771.58 -2.96716 3.52557 0
M  V30 29064 H 2769.89 -2.80036 3.0817 0
M  V30 29065 H 2772.49 -5.11882 1.54534 0
M  V30 29066 H 2772.83 -4.1611 0.125672 0
M  V30 29067 H 2773.37 -3.5851 1.72382 0
M  V30 29068 H 2770.11 -4.79983 4.46427 0
M  V30 29069 H 2769.63 -5.29169 2.82383 0
M  V30 29070 H 2771.31 -5.52194 3.37181 0
M  V30 29071 N 2771.44 -0.865331 -1.31719 0
M  V30 29072 C 2772.37 -0.333343 -2.31108 0
M  V30 29073 C 2773.35 0.573273 -1.60149 0
M  V30 29074 O 2774.53 0.491272 -1.87883 0
M  V30 29075 C 2771.66 0.470017 -3.44105 0
M  V30 29076 C 2770.62 -0.343096 -4.26623 0
M  V30 29077 C 2769.94 0.585663 -5.31483 0
M  V30 29078 C 2771.24 -1.57465 -4.97998 0
M  V30 29079 H 2772.94 -1.16385 -2.75853 0
M  V30 29080 H 2770.48 -0.561092 -1.32619 0
M  V30 29081 H 2772.44 0.852679 -4.12683 0
M  V30 29082 H 2771.16 1.33399 -2.98115 0
M  V30 29083 H 2769.82 -0.707646 -3.59705 0
M  V30 29084 H 2769.47 1.44678 -4.81744 0
M  V30 29085 H 2769.17 0.0455461 -5.87582 0
M  V30 29086 H 2770.69 0.965269 -6.02922 0
M  V30 29087 H 2772.11 -1.26369 -5.59199 0
M  V30 29088 H 2770.5 -2.05349 -5.63872 0
M  V30 29089 H 2771.57 -2.33005 -4.25249 0
M  V30 29090 N 2772.92 1.44707 -0.624311 0
M  V30 29091 C 2773.86 2.32398 0.0969544 0
M  V30 29092 C 2774.86 1.4695 0.842736 0
M  V30 29093 O 2776.06 1.63335 0.756408 0
M  V30 29094 H 2772.44 0.750328 0.0501174 0
M  V30 29095 H 2774.41 2.90991 -0.660818 0
M  V30 29096 C 2773.16 3.30839 1.06961 0
M  V30 29097 H 2772.48 3.96596 0.505172 0
M  V30 29098 H 2773.92 3.94892 1.5439 0
M  V30 29099 C 2772.38 2.59254 2.15149 0
M  V30 29100 O 2772.91 2.38635 3.23135 0
M  V30 29101 N 2771.12 2.19107 1.90894 0
M  V30 29102 H 2770.66 2.36076 1.03082 0
M  V30 29103 H 2770.62 1.71536 2.63482 0
M  V30 29104 N 2774.39 0.364449 1.53328 0
M  V30 29105 C 2775.34 -0.482567 2.25699 0
M  V30 29106 C 2776.31 -1.07846 1.26327 0
M  V30 29107 O 2777.5 -1.11116 1.55106 0
M  V30 29108 C 2774.64 -1.61694 3.04876 0
M  V30 29109 C 2773.75 -1.04633 4.19137 0
M  V30 29110 C 2772.88 -2.14971 4.85758 0
M  V30 29111 C 2771.92 -1.5537 5.92053 0
M  V30 29112 N 2771.06 -2.59535 6.52369 0
M  V30 29113 H 2775.9 0.141084 2.97666 0
M  V30 29114 H 2773.44 0.081395 1.46875 0
M  V30 29115 H 2775.39 -2.28509 3.49055 0
M  V30 29116 H 2774.02 -2.21126 2.35166 0
M  V30 29117 H 2773.08 -0.268486 3.79451 0
M  V30 29118 H 2774.39 -0.570566 4.95526 0
M  V30 29119 H 2773.54 -2.89609 5.33115 0
M  V30 29120 H 2772.28 -2.65899 4.08839 0
M  V30 29121 H 2771.29 -0.792453 5.44059 0
M  V30 29122 H 2772.51 -1.05268 6.70892 0
M  V30 29123 H 2770.46 -3.09679 5.78304 0
M  V30 29124 H 2770.37 -2.16642 7.24294 0
M  V30 29125 H 2771.64 -3.3388 7.04375 0
M  V30 29126 N 2775.87 -1.57322 0.0935872 0
M  V30 29127 C 2776.8 -2.10966 -0.895886 0
M  V30 29128 C 2777.82 -1.04656 -1.24703 0
M  V30 29129 O 2779.01 -1.32107 -1.20041 0
M  V30 29130 C 2776.11 -2.57322 -2.20542 0
M  V30 29131 C 2775.28 -3.87449 -2.02983 0
M  V30 29132 C 2774.34 -4.19668 -3.17435 0
M  V30 29133 O 2773.36 -4.88914 -2.91465 0
M  V30 29134 N 2774.57 -3.7495 -4.43162 0
M  V30 29135 H 2777.33 -2.96486 -0.437736 0
M  V30 29136 H 2774.89 -1.61641 -0.0915579 0
M  V30 29137 H 2776.88 -2.75923 -2.96055 0
M  V30 29138 H 2775.45 -1.7682 -2.57785 0
M  V30 29139 H 2774.67 -3.78011 -1.11809 0
M  V30 29140 H 2775.96 -4.72583 -1.88527 0
M  V30 29141 H 2775.36 -3.19051 -4.67143 0
M  V30 29142 H 2773.92 -3.98709 -5.1563 0
M  V30 29143 N 2777.35 0.180099 -1.56568 0
M  V30 29144 C 2778.58 0.913939 -1.8562 0
M  V30 29145 C 2778.99 1.76209 -0.677923 0
M  V30 29146 O 2778.35 1.79051 0.35314 0
M  V30 29147 C 2778.4 1.79787 -3.13622 0
M  V30 29148 O 2778.12 0.983945 -4.26908 0
M  V30 29149 C 2779.62 2.64212 -3.55959 0
M  V30 29150 H 2776.84 0.265944 -0.616048 0
M  V30 29151 H 2779.39 0.182836 -2.03681 0
M  V30 29152 H 2777.54 2.48242 -2.97413 0
M  V30 29153 H 2777.96 1.58767 -4.99893 0
M  V30 29154 H 2779.43 3.21865 -4.48449 0
M  V30 29155 H 2779.91 3.38656 -2.79659 0
M  V30 29156 H 2780.51 2.01104 -3.74749 0
M  V30 29157 N 2778.83 1.51088 0.448349 0
M  V30 29158 C 2780.24 1.39019 0.783959 0
M  V30 29159 C 2780.44 0.463938 1.96086 0
M  V30 29160 O 2779.5 -0.0850091 2.52357 0
M  V30 29161 C 2780.81 2.80841 1.07467 0
M  V30 29162 C 2782.36 2.89915 1.17976 0
M  V30 29163 C 2782.84 4.3262 1.50347 0
M  V30 29164 N 2784.33 4.35675 1.57293 0
M  V30 29165 C 2785.06 5.43113 1.8389 0
M  V30 29166 N 2784.56 6.60727 2.08353 0
M  V30 29167 N 2786.35 5.30581 1.85581 0
M  V30 29168 H 2778.5 2.09869 -0.326918 0
M  V30 29169 H 2780.76 0.944287 -0.0838172 0
M  V30 29170 H 2780.47 3.50562 0.282706 0
M  V30 29171 H 2780.34 3.1949 2.00514 0
M  V30 29172 H 2782.73 2.20398 1.96236 0
M  V30 29173 H 2782.81 2.54777 0.228558 0
M  V30 29174 H 2782.46 5.02682 0.726185 0
M  V30 29175 H 2782.39 4.65262 2.46655 0
M  V30 29176 H 2784.88 3.50876 1.40336 0
M  V30 29177 H 2785.19 7.38405 2.27986 0
M  V30 29178 H 2783.54 6.63862 2.05698 0
M  V30 29179 H 2786.73 4.37685 1.65981 0
M  V30 29180 H 2786.9 6.14394 2.05972 0
M  V30 29181 N 2780.31 -0.703068 1.41049 0
M  V30 29182 C 2781.58 -1.45706 1.30496 0
M  V30 29183 C 2781.96 -2.10981 -0.0709521 0
M  V30 29184 O 2781.31 -2.01114 -1.08468 0
M  V30 29185 C 2781.52 -2.4826 2.45291 0
M  V30 29186 C 2782.87 -3.1373 2.86109 0
M  V30 29187 O 2783.89 -2.58583 2.44976 0
M  V30 29188 O 2782.75 -4.13595 3.57214 0
M  V30 29189 H 2779.85 -0.648537 0.513155 0
M  V30 29190 H 2782.39 -0.734181 1.52996 0
M  V30 29191 H 2781.16 -1.98629 3.37138 0
M  V30 29192 H 2780.79 -3.28067 2.24628 0
M  V30 29193 N 2781.78 -1.26752 -0.936569 0
M  V30 29194 C 2783.01 -1.15358 -1.71756 0
M  V30 29195 C 2783.43 0.29065 -1.86549 0
M  V30 29196 O 2782.78 1.19865 -1.37618 0
M  V30 29197 C 2782.84 -1.82263 -3.1219 0
M  V30 29198 O 2782.56 -3.21043 -2.98099 0
M  V30 29199 C 2784.06 -1.76882 -4.06482 0
M  V30 29200 H 2781.28 -0.401492 -0.537629 0
M  V30 29201 H 2783.82 -1.67459 -1.17379 0
M  V30 29202 H 2781.98 -1.34089 -3.63454 0
M  V30 29203 H 2782.39 -3.54221 -3.86817 0
M  V30 29204 H 2783.86 -2.28325 -5.02565 0
M  V30 29205 H 2784.34 -0.736292 -4.32984 0
M  V30 29206 H 2784.95 -2.24629 -3.6114 0
M  V30 29207 N 2783.26 1.1418 -1.08631 0
M  V30 29208 C 2784.21 2.19337 -0.718338 0
M  V30 29209 C 2785.18 1.63431 0.296558 0
M  V30 29210 O 2786.36 1.89949 0.180046 0
M  V30 29211 C 2783.5 3.44831 -0.136264 0
M  V30 29212 C 2782.62 4.14877 -1.20421 0
M  V30 29213 C 2781.75 5.27961 -0.585759 0
M  V30 29214 C 2780.79 5.89843 -1.63559 0
M  V30 29215 N 2779.93 6.94373 -1.03876 0
M  V30 29216 H 2784.77 2.50161 -1.61937 0
M  V30 29217 H 2782.31 1.22842 -0.809211 0
M  V30 29218 H 2784.26 4.16625 0.218948 0
M  V30 29219 H 2782.89 3.14482 0.728065 0
M  V30 29220 H 2781.95 3.41448 -1.67682 0
M  V30 29221 H 2783.26 4.56962 -1.99967 0
M  V30 29222 H 2782.41 6.06436 -0.178924 0
M  V30 29223 H 2781.15 4.87103 0.241334 0
M  V30 29224 H 2780.16 5.10069 -2.05206 0
M  V30 29225 H 2781.38 6.32775 -2.4652 0
M  V30 29226 H 2779.33 6.55587 -0.232803 0
M  V30 29227 H 2779.24 7.34957 -1.77129 0
M  V30 29228 H 2780.51 7.76719 -0.65786 0
M  V30 29229 N 2784.74 0.872304 1.31258 0
M  V30 29230 C 2785.65 0.333295 2.3222 0
M  V30 29231 C 2786.67 -0.557984 1.64811 0
M  V30 29232 O 2787.84 -0.454141 1.96213 0
M  V30 29233 C 2784.91 -0.454419 3.43709 0
M  V30 29234 C 2783.97 0.465099 4.26773 0
M  V30 29235 C 2783.2 -0.285116 5.32938 0
M  V30 29236 O 2783.42 -1.5129 5.4997 0
M  V30 29237 O 2782.36 0.358232 6.00833 0
M  V30 29238 H 2786.18 1.17021 2.8025 0
M  V30 29239 H 2783.77 0.635748 1.35198 0
M  V30 29240 H 2785.65 -0.90089 4.11658 0
M  V30 29241 H 2784.33 -1.26784 2.97838 0
M  V30 29242 H 2783.23 0.960119 3.6157 0
M  V30 29243 H 2784.57 1.24418 4.76215 0
M  V30 29244 N 2786.22 -1.44374 0.631976 0
M  V30 29245 C 2787.15 -2.27875 -0.121782 0
M  V30 29246 C 2788.13 -1.38587 -0.850432 0
M  V30 29247 O 2789.31 -1.68027 -0.854349 0
M  V30 29248 C 2786.44 -3.17535 -1.17853 0
M  V30 29249 C 2785.49 -4.22935 -0.550317 0
M  V30 29250 S 2786.32 -5.31414 0.660238 0
M  V30 29251 C 2787.48 -6.24643 -0.396503 0
M  V30 29252 H 2787.71 -2.91456 0.586588 0
M  V30 29253 H 2785.24 -1.48573 0.420172 0
M  V30 29254 H 2787.2 -3.69742 -1.78328 0
M  V30 29255 H 2785.86 -2.53172 -1.8591 0
M  V30 29256 H 2785.05 -4.85688 -1.34623 0
M  V30 29257 H 2784.66 -3.73995 -0.0201648 0
M  V30 29258 H 2786.95 -6.65513 -1.26882 0
M  V30 29259 H 2787.89 -7.0783 0.19547 0
M  V30 29260 H 2788.3 -5.59854 -0.722782 0
M  V30 29261 N 2787.7 -0.372575 -1.53133 0
M  V30 29262 C 2788.63 0.505405 -2.23558 0
M  V30 29263 C 2789.64 1.04046 -1.25213 0
M  V30 29264 O 2790.83 0.945649 -1.51393 0
M  V30 29265 C 2787.93 1.71131 -2.92519 0
M  V30 29266 C 2787.1 1.30654 -4.17431 0
M  V30 29267 C 2786.16 2.37527 -4.69539 0
M  V30 29268 O 2785.19 1.99627 -5.33046 0
M  V30 29269 N 2786.39 3.69212 -4.47954 0
M  V30 29270 H 2789.16 -0.0978785 -2.9954 0
M  V30 29271 H 2786.72 -0.198096 -1.60684 0
M  V30 29272 H 2788.71 2.42118 -3.24285 0
M  V30 29273 H 2787.28 2.2213 -2.19948 0
M  V30 29274 H 2786.5 0.426223 -3.91889 0
M  V30 29275 H 2787.79 1.0125 -4.98624 0
M  V30 29276 H 2787.18 4.02776 -3.97226 0
M  V30 29277 H 2785.74 4.36283 -4.84252 0
M  V30 29278 N 2789.17 1.5727 -0.101929 0
M  V30 29279 C 2790.59 1.57554 0.254712 0
M  V30 29280 C 2790.79 1.11355 1.67935 0
M  V30 29281 O 2789.85 0.793124 2.3972 0
M  V30 29282 C 2791.16 3.00677 0.0369221 0
M  V30 29283 C 2792.71 3.12827 0.104144 0
M  V30 29284 C 2793.18 4.5792 -0.085737 0
M  V30 29285 N 2794.67 4.6319 -0.0311313 0
M  V30 29286 C 2795.41 5.73195 -0.1532 0
M  V30 29287 N 2794.9 6.92011 -0.330485 0
M  V30 29288 N 2796.7 5.62021 -0.0939841 0
M  V30 29289 H 2788.85 1.85607 -1.03266 0
M  V30 29290 H 2791.11 0.857008 -0.405266 0
M  V30 29291 H 2790.82 3.38702 -0.947314 0
M  V30 29292 H 2790.69 3.69126 0.77627 0
M  V30 29293 H 2793.08 2.74671 1.07889 0
M  V30 29294 H 2793.16 2.46956 -0.666806 0
M  V30 29295 H 2792.8 4.96771 -1.05738 0
M  V30 29296 H 2792.73 5.2186 0.70499 0
M  V30 29297 H 2795.22 3.77759 0.103075 0
M  V30 29298 H 2795.54 7.71685 -0.414956 0
M  V30 29299 H 2793.88 6.94034 -0.366241 0
M  V30 29300 H 2797.07 4.6808 0.0434346 0
M  V30 29301 H 2797.25 6.47714 -0.192563 0
M  V30 29302 N 2790.65 -0.171793 1.56661 0
M  V30 29303 C 2791.58 -1.21494 1.99403 0
M  V30 29304 C 2792.56 -1.46195 0.869541 0
M  V30 29305 O 2793.75 -1.57537 1.13559 0
M  V30 29306 C 2790.88 -2.55396 2.35351 0
M  V30 29307 C 2789.83 -2.45265 3.50755 0
M  V30 29308 C 2789.16 -3.83653 3.72444 0
M  V30 29309 C 2790.46 -1.95778 4.84219 0
M  V30 29310 H 2792.15 -0.859648 2.86793 0
M  V30 29311 H 2789.7 -0.412079 1.37978 0
M  V30 29312 H 2791.65 -3.28575 2.63849 0
M  V30 29313 H 2790.38 -2.92713 1.44869 0
M  V30 29314 H 2789.03 -1.74541 3.22383 0
M  V30 29315 H 2788.68 -4.18362 2.79253 0
M  V30 29316 H 2788.38 -3.77743 4.50093 0
M  V30 29317 H 2789.91 -4.58418 4.03342 0
M  V30 29318 H 2791.32 -2.58731 5.11597 0
M  V30 29319 H 2789.72 -2.00817 5.65502 0
M  V30 29320 H 2790.79 -0.912075 4.76245 0
M  V30 29321 N 2792.13 -1.51324 -0.44033 0
M  V30 29322 C 2793.06 -1.75367 -1.54171 0
M  V30 29323 C 2794.04 -0.603403 -1.59038 0
M  V30 29324 O 2795.23 -0.845804 -1.74814 0
M  V30 29325 C 2792.36 -1.87598 -2.92274 0
M  V30 29326 C 2791.31 -3.03014 -3.02269 0
M  V30 29327 C 2790.64 -3.00425 -4.42322 0
M  V30 29328 C 2791.94 -4.43029 -2.76627 0
M  V30 29329 H 2793.63 -2.67588 -1.34302 0
M  V30 29330 H 2791.18 -1.28764 -0.644656 0
M  V30 29331 H 2793.13 -2.03002 -3.69281 0
M  V30 29332 H 2791.85 -0.920234 -3.13368 0
M  V30 29333 H 2790.51 -2.87311 -2.27701 0
M  V30 29334 H 2790.16 -2.02634 -4.60379 0
M  V30 29335 H 2789.86 -3.77926 -4.49939 0
M  V30 29336 H 2791.38 -3.17918 -5.21306 0
M  V30 29337 H 2792.8 -4.59099 -3.43368 0
M  V30 29338 H 2791.2 -5.22213 -2.95657 0
M  V30 29339 H 2792.27 -4.53273 -1.72254 0
M  V30 29340 N 2793.61 0.695578 -1.41419 0
M  V30 29341 C 2794.89 1.45012 -1.31266 0
M  V30 29342 C 2795.27 2.11015 0.0597623 0
M  V30 29343 O 2794.61 2.01687 1.074 0
M  V30 29344 C 2794.82 2.46956 -2.46605 0
M  V30 29345 C 2796.17 3.12209 -2.87769 0
M  V30 29346 O 2797.2 2.5728 -2.46344 0
M  V30 29347 O 2796.05 4.11694 -3.59402 0
M  V30 29348 H 2793.15 0.645807 -0.516587 0
M  V30 29349 H 2795.69 0.726057 -1.53383 0
M  V30 29350 H 2794.47 1.96839 -3.38187 0
M  V30 29351 H 2794.09 3.26872 -2.26364 0
M  V30 29352 N 2795.09 1.27247 0.929833 0
M  V30 29353 C 2796.05 1.09833 2.0117 0
M  V30 29354 C 2797.05 0.042997 1.60743 0
M  V30 29355 O 2798.24 0.287404 1.71813 0
M  V30 29356 C 2795.37 0.673062 3.3419 0
M  V30 29357 H 2796.57 2.05898 2.1805 0
M  V30 29358 H 2794.12 1.10005 1.11034 0
M  V30 29359 H 2794.85 -0.289078 3.23009 0
M  V30 29360 H 2794.64 1.43522 3.64889 0
M  V30 29361 H 2796.13 0.573396 4.13645 0
M  V30 29362 N 2796.57 -1.13603 1.09235 0
M  V30 29363 C 2797.8 -1.88408 0.84771 0
M  V30 29364 C 2798.2 -1.79283 -0.604493 0
M  V30 29365 O 2797.55 -1.15594 -1.42771 0
M  V30 29366 C 2797.61 -3.38824 1.20159 0
M  V30 29367 C 2797.27 -3.7173 2.6583 0
M  V30 29368 C 2798.27 -3.71137 3.64079 0
M  V30 29369 C 2795.95 -4.01449 3.01901 0
M  V30 29370 C 2797.95 -3.99799 4.96426 0
M  V30 29371 C 2795.64 -4.29773 4.3444 0
M  V30 29372 C 2796.63 -4.28933 5.31512 0
M  V30 29373 O 2796.32 -4.56565 6.61668 0
M  V30 29374 H 2796.05 -0.603373 0.304824 0
M  V30 29375 H 2798.61 -1.44745 1.45733 0
M  V30 29376 H 2796.84 -3.82981 0.535014 0
M  V30 29377 H 2798.53 -3.94951 0.936419 0
M  V30 29378 H 2799.29 -3.48255 3.37556 0
M  V30 29379 H 2795.17 -4.01251 2.26978 0
M  V30 29380 H 2798.72 -3.99059 5.72187 0
M  V30 29381 H 2794.61 -4.52126 4.60708 0
M  V30 29382 H 2795.38 -4.74242 6.67111 0
M  V30 29383 N 2798.04 -0.879253 -1.30793 0
M  V30 29384 C 2799.29 -0.493843 -1.95973 0
M  V30 29385 C 2799.61 0.958991 -1.69789 0
M  V30 29386 O 2798.88 1.67351 -1.01835 0
M  V30 29387 H 2797.46 -0.179635 -0.72508 0
M  V30 29388 H 2800.12 -1.12108 -1.5943 0
M  V30 29389 H 2799.22 -0.659316 -3.05056 0
M  V30 29390 N 2799.52 1.44037 -0.639624 0
M  V30 29391 C 2800.77 2.01179 -0.144921 0
M  V30 29392 C 2801.08 1.50969 1.24369 0
M  V30 29393 O 2802.29 2.00295 1.83287 0
M  V30 29394 C 2800.75 3.59297 -0.208307 0
M  V30 29395 C 2800.35 4.18502 -1.59876 0
M  V30 29396 C 2802.1 4.23879 0.229493 0
M  V30 29397 C 2800 5.6887 -1.61681 0
M  V30 29398 H 2798.93 0.752313 -0.0504137 0
M  V30 29399 H 2801.59 1.65159 -0.799668 0
M  V30 29400 H 2799.97 3.92654 0.513698 0
M  V30 29401 H 2801.14 3.96667 -2.34503 0
M  V30 29402 H 2799.46 3.66239 -1.98137 0
M  V30 29403 H 2802.05 5.3418 0.235664 0
M  V30 29404 H 2802.4 3.96825 1.25841 0
M  V30 29405 H 2802.93 3.95356 -0.440302 0
M  V30 29406 H 2799.67 6.00672 -2.62437 0
M  V30 29407 H 2799.19 5.92801 -0.913594 0
M  V30 29408 H 2800.87 6.32663 -1.3545 0
M  V30 29409 N 2801 0.380691 1.52933 0
M  V30 29410 C 2801.95 -0.47357 2.27728 0
M  V30 29411 C 2802.94 -1.07048 1.3129 0
M  V30 29412 O 2804.15 -1.01194 1.48861 0
M  V30 29413 H 2800.52 -0.171463 0.732192 0
M  V30 29414 H 2802.49 0.178837 2.97864 0
M  V30 29415 C 2801.24 -1.59336 3.09043 0
M  V30 29416 H 2800.57 -1.14336 3.83102 0
M  V30 29417 H 2802.01 -2.16549 3.64531 0
M  V30 29418 C 2800.46 -2.54443 2.20818 0
M  V30 29419 O 2800.99 -3.57639 1.82914 0
M  V30 29420 N 2799.2 -2.23983 1.85149 0
M  V30 29421 H 2798.75 -1.40099 2.16171 0
M  V30 29422 H 2798.71 -2.87869 1.26407 0
M  V30 29423 N 2802.48 -1.57214 0.110268 0
M  V30 29424 C 2803.41 -2.17869 -0.839964 0
M  V30 29425 C 2804.39 -1.11626 -1.2835 0
M  V30 29426 O 2805.57 -1.39826 -1.34767 0
M  V30 29427 C 2802.7 -2.77114 -2.09344 0
M  V30 29428 C 2801.66 -3.88863 -1.788 0
M  V30 29429 C 2800.98 -4.34877 -3.11104 0
M  V30 29430 C 2802.28 -5.11366 -1.06311 0
M  V30 29431 H 2803.98 -2.97525 -0.334555 0
M  V30 29432 H 2801.52 -1.43114 -0.159477 0
M  V30 29433 H 2803.48 -3.18203 -2.76269 0
M  V30 29434 H 2802.2 -1.94735 -2.62194 0
M  V30 29435 H 2800.86 -3.48337 -1.14267 0
M  V30 29436 H 2800.51 -3.49368 -3.61871 0
M  V30 29437 H 2800.21 -5.10229 -2.91444 0
M  V30 29438 H 2801.73 -4.78611 -3.79162 0
M  V30 29439 H 2803.15 -5.49529 -1.63374 0
M  V30 29440 H 2801.54 -5.92245 -0.967772 0
M  V30 29441 H 2802.61 -4.84876 -0.0483717 0
M  V30 29442 N 2803.96 0.163482 -1.5675 0
M  V30 29443 C 2805.37 0.725185 -1.72041 0
M  V30 29444 C 2805.72 1.8243 -0.722052 0
M  V30 29445 O 2804.84 2.16095 0.114904 0
M  V30 29446 C 2805.44 1.32222 -3.11934 0
M  V30 29447 C 2804 1.83066 -3.28883 0
M  V30 29448 C 2803.14 0.712668 -2.67986 0
M  V30 29449 H 2806.09 -0.0620051 -1.58579 0
M  V30 29450 H 2806.12 2.19197 -3.11019 0
M  V30 29451 H 2805.63 0.522035 -3.84573 0
M  V30 29452 H 2803.73 2.65703 -2.61213 0
M  V30 29453 H 2803.84 1.97071 -4.36692 0
M  V30 29454 H 2802.21 1.13511 -2.28007 0
M  V30 29455 H 2802.99 -0.0757964 -3.43216 0
M  V30 29456 N 2805.43 1.51555 0.432299 0
M  V30 29457 C 2806.36 1.76182 1.53239 0
M  V30 29458 C 2807.34 0.611829 1.58716 0
M  V30 29459 O 2808.53 0.855063 1.74363 0
M  V30 29460 C 2805.66 1.89146 2.91275 0
M  V30 29461 C 2804.61 3.04613 3.00657 0
M  V30 29462 C 2803.94 3.02767 4.40722 0
M  V30 29463 C 2805.24 4.4449 2.74273 0
M  V30 29464 H 2806.93 2.68296 1.32881 0
M  V30 29465 H 2804.48 1.29104 0.637818 0
M  V30 29466 H 2806.43 2.04957 3.68199 0
M  V30 29467 H 2805.16 0.93684 3.12875 0
M  V30 29468 H 2803.82 2.88515 2.26174 0
M  V30 29469 H 2803.46 2.05073 4.59297 0
M  V30 29470 H 2803.16 3.80307 4.47929 0
M  V30 29471 H 2804.69 3.20678 5.19613 0
M  V30 29472 H 2806.1 4.60913 3.40928 0
M  V30 29473 H 2804.5 5.23774 2.92883 0
M  V30 29474 H 2805.57 4.5418 1.69848 0
M  V30 29475 N 2806.91 -0.688069 1.41786 0
M  V30 29476 C 2808.16 -1.45028 1.41756 0
M  V30 29477 C 2808.49 -1.94178 0.0291086 0
M  V30 29478 O 2807.77 -1.70032 -0.944426 0
M  V30 29479 C 2808.05 -2.65682 2.43074 0
M  V30 29480 C 2807.9 -2.22249 3.91057 0
M  V30 29481 C 2809.22 -3.67888 2.41549 0
M  V30 29482 H 2806.34 -0.526018 0.516212 0
M  V30 29483 H 2808.98 -0.783075 1.73112 0
M  V30 29484 H 2807.13 -3.22606 2.16466 0
M  V30 29485 H 2808.8 -1.70594 4.28597 0
M  V30 29486 H 2807.05 -1.53955 4.05562 0
M  V30 29487 H 2807.72 -3.08855 4.57507 0
M  V30 29488 H 2810.19 -3.20653 2.65181 0
M  V30 29489 H 2809.07 -4.49908 3.14442 0
M  V30 29490 H 2809.33 -4.18103 1.43673 0
M  V30 29491 N 2808.39 -1.27739 -0.923072 0
M  V30 29492 C 2809.62 -1.17174 -1.70523 0
M  V30 29493 C 2810.03 0.270848 -1.86847 0
M  V30 29494 O 2809.39 1.18399 -1.38881 0
M  V30 29495 C 2809.44 -1.85564 -3.10239 0
M  V30 29496 O 2809.16 -3.24187 -2.94677 0
M  V30 29497 C 2810.66 -1.81183 -4.04583 0
M  V30 29498 H 2807.88 -0.407172 -0.53334 0
M  V30 29499 H 2810.43 -1.68694 -1.15596 0
M  V30 29500 H 2808.58 -1.37937 -3.62011 0
M  V30 29501 H 2809 -3.58304 -3.83039 0
M  V30 29502 H 2810.47 -2.33642 -5.00115 0
M  V30 29503 H 2810.95 -0.782175 -4.32179 0
M  V30 29504 H 2811.55 -2.28447 -3.58737 0
M  V30 29505 N 2809.87 1.13022 -1.09836 0
M  V30 29506 C 2811.1 1.87955 -0.85769 0
M  V30 29507 C 2811.51 1.79601 0.594976 0
M  V30 29508 O 2810.85 1.1635 1.42156 0
M  V30 29509 C 2810.91 3.38182 -1.21955 0
M  V30 29510 C 2810.58 3.70315 -2.67798 0
M  V30 29511 C 2811.57 3.69201 -3.66042 0
M  V30 29512 C 2809.26 3.99842 -3.04026 0
M  V30 29513 C 2811.25 3.97161 -4.9854 0
M  V30 29514 C 2808.94 4.27463 -4.36713 0
M  V30 29515 C 2809.94 4.26108 -5.3378 0
M  V30 29516 O 2809.62 4.53049 -6.64079 0
M  V30 29517 H 2809.36 0.601748 -0.308019 0
M  V30 29518 H 2811.91 1.4397 -1.46498 0
M  V30 29519 H 2810.14 3.82692 -0.555317 0
M  V30 29520 H 2811.83 3.94448 -0.957351 0
M  V30 29521 H 2812.6 3.4646 -3.39398 0
M  V30 29522 H 2808.47 4.00041 -2.29103 0
M  V30 29523 H 2812.02 3.96019 -5.74295 0
M  V30 29524 H 2807.92 4.49677 -4.63099 0
M  V30 29525 H 2808.68 4.70698 -6.69616 0
M  V30 29526 N 2811.35 0.886177 1.30325 0
M  V30 29527 C 2812.59 0.505975 1.96387 0
M  V30 29528 C 2812.93 -0.942682 1.69786 0
M  V30 29529 O 2812.2 -1.66629 1.00325 0
M  V30 29530 C 2812.48 0.782887 3.51487 0
M  V30 29531 C 2812.34 2.28226 3.87599 0
M  V30 29532 C 2813.66 0.260205 4.3933 0
M  V30 29533 H 2810.77 0.185305 0.713324 0
M  V30 29534 H 2813.42 1.11039 1.54176 0
M  V30 29535 H 2811.57 0.268467 3.87571 0
M  V30 29536 H 2813.24 2.86518 3.61532 0
M  V30 29537 H 2811.48 2.74843 3.35625 0
M  V30 29538 H 2812.15 2.42662 4.95802 0
M  V30 29539 H 2814.63 0.700517 4.10161 0
M  V30 29540 H 2813.5 0.483276 5.46768 0
M  V30 29541 H 2813.77 -0.838598 4.34074 0
M  V30 29542 N 2812.82 -1.43695 0.647253 0
M  V30 29543 C 2813.77 -2.3075 -0.0479687 0
M  V30 29544 C 2814.74 -1.44409 -0.82068 0
M  V30 29545 O 2815.93 -1.73288 -0.798484 0
M  V30 29546 C 2813.07 -3.29912 -1.01254 0
M  V30 29547 C 2812.18 -4.31352 -0.236553 0
M  V30 29548 C 2811.31 -5.17598 -1.19438 0
M  V30 29549 C 2810.35 -6.10735 -0.408488 0
M  V30 29550 N 2809.49 -6.89626 -1.3176 0
M  V30 29551 H 2814.33 -2.89655 0.700289 0
M  V30 29552 H 2811.87 -1.427 0.357107 0
M  V30 29553 H 2813.83 -3.85906 -1.58532 0
M  V30 29554 H 2812.46 -2.7267 -1.72774 0
M  V30 29555 H 2811.51 -3.777 0.45242 0
M  V30 29556 H 2812.82 -4.9739 0.374818 0
M  V30 29557 H 2811.97 -5.78189 -1.83799 0
M  V30 29558 H 2810.71 -4.51672 -1.83967 0
M  V30 29559 H 2809.72 -5.49238 0.248507 0
M  V30 29560 H 2810.94 -6.78703 0.232308 0
M  V30 29561 H 2808.89 -6.26354 -1.9498 0
M  V30 29562 H 2808.81 -7.52164 -0.760647 0
M  V30 29563 H 2810.07 -7.54727 -1.94954 0
M  V30 29564 N 2814.3 -0.388796 -1.52729 0
M  V30 29565 C 2815.58 0.251099 -1.93982 0
M  V30 29566 C 2815.96 1.64402 -1.32421 0
M  V30 29567 O 2815.31 2.23138 -0.492113 0
M  V30 29568 C 2815.52 0.277959 -3.47891 0
M  V30 29569 C 2816.87 0.507155 -4.2156 0
M  V30 29570 O 2817.89 0.35819 -3.54394 0
M  V30 29571 O 2816.75 0.798999 -5.40628 0
M  V30 29572 H 2813.84 0.155966 -0.81216 0
M  V30 29573 H 2816.39 -0.443266 -1.63809 0
M  V30 29574 H 2815.16 -0.697737 -3.85029 0
M  V30 29575 H 2814.78 1.01727 -3.84366 0
M  V30 29576 N 2815.78 1.57153 -0.118604 0
M  V30 29577 C 2816.69 2.18836 0.845446 0
M  V30 29578 C 2817.71 1.1644 1.29297 0
M  V30 29579 O 2818.88 1.48908 1.35604 0
M  V30 29580 C 2815.95 2.77532 2.0779 0
M  V30 29581 C 2815.01 3.94963 1.68233 0
M  V30 29582 C 2814.24 4.5085 2.85604 0
M  V30 29583 O 2814.46 4.05636 4.01018 0
M  V30 29584 O 2813.4 5.4154 2.62712 0
M  V30 29585 H 2817.22 3.0167 0.350515 0
M  V30 29586 H 2814.81 1.49016 0.106987 0
M  V30 29587 H 2816.69 3.1495 2.79972 0
M  V30 29588 H 2815.37 1.9773 2.5629 0
M  V30 29589 H 2814.27 3.62315 0.931599 0
M  V30 29590 H 2815.61 4.762 1.24475 0
M  V30 29591 N 2817.26 -0.155167 1.56834 0
M  V30 29592 C 2818.19 -1.19372 2.0068 0
M  V30 29593 C 2819.17 -1.45265 0.884998 0
M  V30 29594 O 2820.35 -1.56324 1.15223 0
M  V30 29595 C 2817.48 -2.52886 2.38046 0
M  V30 29596 C 2816.44 -2.41531 3.53336 0
M  V30 29597 C 2815.76 -3.79681 3.76492 0
M  V30 29598 C 2817.06 -1.90631 4.86268 0
M  V30 29599 H 2818.76 -0.829182 2.87689 0
M  V30 29600 H 2816.3 -0.397421 1.38407 0
M  V30 29601 H 2818.26 -3.25758 2.67319 0
M  V30 29602 H 2816.98 -2.9116 1.47965 0
M  V30 29603 H 2815.64 -1.71112 3.24216 0
M  V30 29604 H 2815.29 -4.15377 2.83675 0
M  V30 29605 H 2814.99 -3.72948 4.54074 0
M  V30 29606 H 2816.51 -4.54115 4.08182 0
M  V30 29607 H 2817.93 -2.5329 5.14312 0
M  V30 29608 H 2816.32 -1.94808 5.676 0
M  V30 29609 H 2817.39 -0.861512 4.77185 0
M  V30 29610 N 2818.74 -1.51782 -0.424256 0
M  V30 29611 C 2820.15 -1.40248 -0.761743 0
M  V30 29612 C 2820.35 -0.495075 -1.95323 0
M  V30 29613 O 2819.41 0.0448505 -2.5246 0
M  V30 29614 C 2820.72 -2.82515 -1.02985 0
M  V30 29615 C 2822.27 -2.91755 -1.13349 0
M  V30 29616 C 2822.74 -4.34957 -1.43445 0
M  V30 29617 N 2824.24 -4.38123 -1.50342 0
M  V30 29618 C 2824.97 -5.4597 -1.75226 0
M  V30 29619 N 2824.47 -6.63958 -1.97815 0
M  V30 29620 N 2826.26 -5.33466 -1.77117 0
M  V30 29621 H 2818.41 -2.09322 0.360265 0
M  V30 29622 H 2820.67 -0.942834 0.0988294 0
M  V30 29623 H 2820.38 -3.50967 -0.226899 0
M  V30 29624 H 2820.25 -3.2264 -1.95405 0
M  V30 29625 H 2822.64 -2.23492 -1.92705 0
M  V30 29626 H 2822.72 -2.55108 -0.187996 0
M  V30 29627 H 2822.37 -5.03773 -0.646121 0
M  V30 29628 H 2822.3 -4.69127 -2.39222 0
M  V30 29629 H 2824.79 -3.53065 -1.34736 0
M  V30 29630 H 2825.1 -7.41939 -2.1621 0
M  V30 29631 H 2823.44 -6.67051 -1.95111 0
M  V30 29632 H 2826.64 -4.4027 -1.58997 0
M  V30 29633 H 2826.81 -6.17593 -1.96172 0
M  V30 29634 N 2820.21 0.68054 -1.42149 0
M  V30 29635 C 2821.44 1.47401 -1.45903 0
M  V30 29636 C 2821.86 1.87969 -0.0701315 0
M  V30 29637 O 2821.22 1.55623 0.930117 0
M  V30 29638 C 2821.27 2.70317 -2.38666 0
M  V30 29639 O 2820.37 3.68373 -1.85406 0
M  V30 29640 H 2819.72 0.443051 -0.494573 0
M  V30 29641 H 2822.25 0.835218 -1.86776 0
M  V30 29642 H 2822.26 3.18454 -2.55051 0
M  V30 29643 H 2820.93 2.40128 -3.39575 0
M  V30 29644 H 2819.51 3.27377 -1.78546 0
M  V30 29645 N 2821.69 1.28226 0.916285 0
M  V30 29646 C 2822.64 1.11935 2.01839 0
M  V30 29647 C 2823.61 0.0171896 1.66091 0
M  V30 29648 O 2824.79 0.181651 1.89933 0
M  V30 29649 C 2821.93 0.784563 3.36063 0
M  V30 29650 C 2821.05 1.96551 3.84697 0
M  V30 29651 C 2820.18 1.57157 5.0742 0
M  V30 29652 C 2819.22 2.71932 5.48379 0
M  V30 29653 N 2818.36 2.33048 6.62294 0
M  V30 29654 H 2823.2 2.06236 2.15106 0
M  V30 29655 H 2820.74 1.02649 1.05364 0
M  V30 29656 H 2822.69 0.571221 4.13271 0
M  V30 29657 H 2821.32 -0.121508 3.22571 0
M  V30 29658 H 2820.38 2.29106 3.03669 0
M  V30 29659 H 2821.69 2.8261 4.11015 0
M  V30 29660 H 2820.84 1.32015 5.92163 0
M  V30 29661 H 2819.58 0.682238 4.82905 0
M  V30 29662 H 2818.59 2.97776 4.62179 0
M  V30 29663 H 2819.81 3.61504 5.74884 0
M  V30 29664 H 2817.76 1.46581 6.39414 0
M  V30 29665 H 2817.67 3.12643 6.88324 0
M  V30 29666 H 2818.94 2.11183 7.50348 0
M  V30 29667 N 2823.17 -1.12438 1.10433 0
M  V30 29668 C 2824.4 -1.8777 0.868905 0
M  V30 29669 C 2824.81 -1.79651 -0.580614 0
M  V30 29670 O 2824.17 -1.17039 -1.40029 0
M  V30 29671 C 2824.22 -3.36983 1.30861 0
M  V30 29672 O 2823.94 -3.44909 2.70129 0
M  V30 29673 C 2825.44 -4.29254 1.10707 0
M  V30 29674 H 2822.66 -0.594115 0.311879 0
M  V30 29675 H 2825.21 -1.4227 1.46899 0
M  V30 29676 H 2823.36 -3.80027 0.752192 0
M  V30 29677 H 2823.78 -4.37743 2.88931 0
M  V30 29678 H 2825.25 -5.32236 1.46387 0
M  V30 29679 H 2825.73 -4.39176 0.0456999 0
M  V30 29680 H 2826.33 -3.91991 1.64995 0
M  V30 29681 N 2824.65 -0.893076 -1.29853 0
M  V30 29682 C 2825.6 -0.364201 -2.27908 0
M  V30 29683 C 2826.57 0.550065 -1.56727 0
M  V30 29684 O 2827.75 0.476738 -1.84748 0
M  V30 29685 C 2824.89 0.408118 -3.42678 0
M  V30 29686 C 2824 -0.536288 -4.28658 0
M  V30 29687 C 2823.14 0.252428 -5.306 0
M  V30 29688 C 2822.18 -0.686928 -6.08233 0
M  V30 29689 N 2821.32 0.0669668 -7.02068 0
M  V30 29690 H 2826.16 -1.20549 -2.72529 0
M  V30 29691 H 2823.69 -0.605803 -1.34046 0
M  V30 29692 H 2825.65 0.871891 -4.07988 0
M  V30 29693 H 2824.28 1.21391 -2.99105 0
M  V30 29694 H 2823.33 -1.11857 -3.63582 0
M  V30 29695 H 2824.64 -1.2556 -4.82738 0
M  V30 29696 H 2823.8 0.777696 -6.01695 0
M  V30 29697 H 2822.54 1.00491 -4.77235 0
M  V30 29698 H 2821.54 -1.22375 -5.36008 0
M  V30 29699 H 2822.77 -1.43864 -6.63687 0
M  V30 29700 H 2820.71 0.80184 -6.51081 0
M  V30 29701 H 2820.63 -0.592563 -7.53674 0
M  V30 29702 H 2821.9 0.572714 -7.77393 0
M  V30 29703 N 2826.13 1.4335 -0.654865 0
M  V30 29704 C 2827.37 2.02093 -0.169178 0
M  V30 29705 C 2827.71 1.51555 1.21428 0
M  V30 29706 O 2826.98 0.709348 1.81104 0
M  V30 29707 C 2827.26 3.59641 -0.181838 0
M  V30 29708 C 2827.12 4.20406 -1.59933 0
M  V30 29709 C 2828.44 4.37465 0.480868 0
M  V30 29710 H 2825.56 0.734307 -0.0629501 0
M  V30 29711 H 2828.2 1.70626 -0.835863 0
M  V30 29712 H 2826.35 3.86579 0.38585 0
M  V30 29713 H 2828.02 4.04493 -2.21773 0
M  V30 29714 H 2826.26 3.76994 -2.14612 0
M  V30 29715 H 2826.93 5.29497 -1.56003 0
M  V30 29716 H 2829.41 4.161 -0.00215586 0
M  V30 29717 H 2828.29 5.47123 0.441288 0
M  V30 29718 H 2828.55 4.13841 1.55526 0
M  V30 29719 N 2827.61 0.39689 1.52521 0
M  V30 29720 C 2828.52 -0.44174 2.30404 0
M  V30 29721 C 2829.53 -1.06466 1.37626 0
M  V30 29722 O 2830.71 -1.06883 1.70699 0
M  V30 29723 C 2827.77 -1.5498 3.10132 0
M  V30 29724 C 2826.83 -0.951206 4.18629 0
M  V30 29725 C 2826.07 -2.00646 4.94547 0
M  V30 29726 O 2826.29 -3.22272 4.70634 0
M  V30 29727 O 2825.22 -1.61952 5.79703 0
M  V30 29728 H 2829.05 0.192946 3.03086 0
M  V30 29729 H 2826.63 0.160406 1.48536 0
M  V30 29730 H 2828.52 -2.19335 3.5982 0
M  V30 29731 H 2827.19 -2.16931 2.40255 0
M  V30 29732 H 2826.1 -0.270707 3.73119 0
M  V30 29733 H 2827.43 -0.375801 4.90763 0
M  V30 29734 N 2829.08 -1.57088 0.126936 0
M  V30 29735 C 2830.02 -2.12819 -0.850936 0
M  V30 29736 C 2831.03 -1.07278 -1.22455 0
M  V30 29737 O 2832.22 -1.34624 -1.17212 0
M  V30 29738 C 2829.32 -2.61942 -2.15034 0
M  V30 29739 C 2828.49 -3.91667 -1.94719 0
M  V30 29740 C 2827.55 -4.26307 -3.08462 0
M  V30 29741 O 2826.58 -4.94986 -2.81029 0
M  V30 29742 N 2827.78 -3.84266 -4.35109 0
M  V30 29743 H 2830.54 -2.97348 -0.374748 0
M  V30 29744 H 2828.1 -1.61799 -0.0572509 0
M  V30 29745 H 2830.1 -2.8214 -2.90136 0
M  V30 29746 H 2828.67 -1.82249 -2.53977 0
M  V30 29747 H 2827.89 -3.80298 -1.03765 0
M  V30 29748 H 2829.17 -4.76476 -1.7846 0
M  V30 29749 H 2828.57 -3.28888 -4.60271 0
M  V30 29750 H 2827.13 -4.09557 -5.07057 0
M  V30 29751 N 2830.56 0.146848 -1.56914 0
M  V30 29752 C 2831.81 0.857738 -1.82995 0
M  V30 29753 C 2832.13 1.81699 -0.707846 0
M  V30 29754 O 2831.4 1.94024 0.270487 0
M  V30 29755 H 2829.98 0.319739 -0.675112 0
M  V30 29756 H 2832.64 0.140815 -1.94391 0
M  V30 29757 H 2831.74 1.41989 -2.77931 0
M  V30 29758 N 2832.04 1.52005 0.4162 0
M  V30 29759 C 2832.99 1.74841 1.50663 0
M  V30 29760 C 2833.96 0.590626 1.55244 0
M  V30 29761 O 2835.14 0.827405 1.71926 0
M  V30 29762 C 2832.28 1.89856 2.88182 0
M  V30 29763 C 2831.39 3.17483 2.92965 0
M  V30 29764 C 2830.53 3.2297 4.21739 0
M  V30 29765 C 2829.57 4.44827 4.2047 0
M  V30 29766 N 2828.71 4.47746 5.40803 0
M  V30 29767 H 2833.55 2.6791 1.30493 0
M  V30 29768 H 2831.08 1.32758 0.633544 0
M  V30 29769 H 2833.04 1.96544 3.68003 0
M  V30 29770 H 2831.67 1.00174 3.06863 0
M  V30 29771 H 2830.72 3.20001 2.05678 0
M  V30 29772 H 2832.03 4.07333 2.87891 0
M  V30 29773 H 2831.19 3.28691 5.09948 0
M  V30 29774 H 2829.93 2.31046 4.29499 0
M  V30 29775 H 2828.93 4.3926 3.30652 0
M  V30 29776 H 2830.16 5.38039 4.14356 0
M  V30 29777 H 2828.1 3.58702 5.49244 0
M  V30 29778 H 2828.02 5.31432 5.37695 0
M  V30 29779 H 2829.29 4.57687 6.30985 0
M  V30 29780 N 2833.52 -0.672992 1.42508 0
M  V30 29781 C 2834.74 -1.46625 1.46683 0
M  V30 29782 C 2835.17 -1.87929 0.080099 0
M  V30 29783 O 2834.53 -1.56114 -0.921851 0
M  V30 29784 C 2834.57 -2.69047 2.40096 0
M  V30 29785 O 2833.68 -3.67384 1.87357 0
M  V30 29786 H 2833.02 -0.440421 0.496915 0
M  V30 29787 H 2835.55 -0.825302 1.87216 0
M  V30 29788 H 2835.56 -3.17097 2.56737 0
M  V30 29789 H 2834.23 -2.38324 3.40844 0
M  V30 29790 H 2832.81 -3.26425 1.8028 0
M  V30 29791 N 2835 -1.2871 -0.909472 0
M  V30 29792 C 2836.41 -1.0651 -1.1886 0
M  V30 29793 C 2836.61 0.189828 -2.00604 0
M  V30 29794 O 2835.67 0.890314 -2.36283 0
M  V30 29795 C 2836.98 -2.31503 -1.91903 0
M  V30 29796 C 2838.53 -2.36725 -2.04769 0
M  V30 29797 C 2839 -3.61495 -2.81221 0
M  V30 29798 N 2840.49 -3.6216 -2.88781 0
M  V30 29799 C 2841.23 -4.55381 -3.48447 0
M  V30 29800 N 2840.73 -5.58925 -4.09359 0
M  V30 29801 N 2842.52 -4.42969 -3.46027 0
M  V30 29802 H 2834.67 -2.09261 -0.363831 0
M  V30 29803 H 2836.93 -0.921245 -0.223633 0
M  V30 29804 H 2836.64 -3.2295 -1.39269 0
M  V30 29805 H 2836.51 -2.3825 -2.92432 0
M  V30 29806 H 2838.9 -1.45771 -2.56583 0
M  V30 29807 H 2838.98 -2.33969 -1.03404 0
M  V30 29808 H 2838.62 -4.52794 -2.30086 0
M  V30 29809 H 2838.55 -3.61506 -3.82911 0
M  V30 29810 H 2841.05 -2.87287 -2.45508 0
M  V30 29811 H 2841.36 -6.26195 -4.5288 0
M  V30 29812 H 2839.7 -5.62746 -4.0785 0
M  V30 29813 H 2842.89 -3.61275 -2.97654 0
M  V30 29814 H 2843.07 -5.15806 -3.92235 0
M  V30 29815 N 2836.47 1.1185 -1.11028 0
M  V30 29816 C 2837.4 2.19843 -0.786851 0
M  V30 29817 C 2838.38 1.68357 0.242905 0
M  V30 29818 O 2839.57 1.93903 0.107321 0
M  V30 29819 C 2836.7 3.46573 -0.224577 0
M  V30 29820 C 2835.65 4.11248 -1.18572 0
M  V30 29821 C 2834.98 5.32502 -0.484355 0
M  V30 29822 C 2836.28 4.56671 -2.53473 0
M  V30 29823 H 2837.97 2.47155 -1.68982 0
M  V30 29824 H 2835.52 1.18791 -0.813927 0
M  V30 29825 H 2837.47 4.21398 0.0138694 0
M  V30 29826 H 2836.2 3.18707 0.713666 0
M  V30 29827 H 2834.86 3.38412 -1.40972 0
M  V30 29828 H 2834.5 5.00905 0.458558 0
M  V30 29829 H 2834.2 5.76723 -1.12536 0
M  V30 29830 H 2835.73 6.10069 -0.2546 0
M  V30 29831 H 2837.14 5.22839 -2.35186 0
M  V30 29832 H 2835.54 5.11691 -3.13516 0
M  V30 29833 H 2836.61 3.70338 -3.13014 0
M  V30 29834 N 2837.95 0.89995 1.29378 0
M  V30 29835 C 2839.2 0.521971 1.94829 0
M  V30 29836 C 2839.51 -0.936443 1.71727 0
M  V30 29837 O 2840.72 -1.42195 2.31285 0
M  V30 29838 C 2839.18 0.882611 3.4891 0
M  V30 29839 C 2838.78 2.35981 3.80811 0
M  V30 29840 C 2840.53 0.574554 4.20594 0
M  V30 29841 C 2838.43 2.6613 5.28137 0
M  V30 29842 H 2837.36 0.191481 0.729281 0
M  V30 29843 H 2840.02 1.09698 1.47101 0
M  V30 29844 H 2838.4 0.236529 3.95293 0
M  V30 29845 H 2839.57 3.05147 3.45286 0
M  V30 29846 H 2837.89 2.63692 3.22266 0
M  V30 29847 H 2840.48 0.776649 5.2903 0
M  V30 29848 H 2840.83 -0.486932 4.13442 0
M  V30 29849 H 2841.36 1.17849 3.79943 0
M  V30 29850 H 2838.1 3.71077 5.40353 0
M  V30 29851 H 2837.62 2.01588 5.64909 0
M  V30 29852 H 2839.3 2.5241 5.95734 0
M  V30 29853 N 2839.43 -1.43001 0.662458 0
M  V30 29854 C 2840.34 -2.34588 -0.0238786 0
M  V30 29855 C 2841.36 -1.54403 -0.802228 0
M  V30 29856 O 2842.53 -1.8702 -0.747368 0
M  V30 29857 C 2839.6 -3.32795 -0.97204 0
M  V30 29858 C 2838.66 -4.28881 -0.189597 0
M  V30 29859 C 2837.89 -5.22396 -1.0926 0
M  V30 29860 O 2838.11 -5.20551 -2.332 0
M  V30 29861 O 2837.05 -5.99289 -0.560031 0
M  V30 29862 H 2840.87 -2.9479 0.730223 0
M  V30 29863 H 2838.46 -1.43297 0.42266 0
M  V30 29864 H 2840.34 -3.9316 -1.51669 0
M  V30 29865 H 2839.02 -2.75082 -1.70621 0
M  V30 29866 H 2837.92 -3.71968 0.398859 0
M  V30 29867 H 2839.26 -4.896 0.505196 0
M  V30 29868 N 2840.91 -0.404973 -1.52308 0
M  V30 29869 C 2841.87 0.410612 -2.25492 0
M  V30 29870 C 2842.87 0.977132 -1.27706 0
M  V30 29871 O 2844.06 0.856665 -1.5168 0
M  V30 29872 C 2841.19 1.5776 -3.022 0
M  V30 29873 H 2842.39 -0.230329 -2.99014 0
M  V30 29874 H 2839.94 -0.157405 -1.55505 0
M  V30 29875 H 2840.67 2.25552 -2.33016 0
M  V30 29876 H 2840.46 1.17791 -3.73989 0
M  V30 29877 H 2841.95 2.15463 -3.57723 0
M  V30 29878 N 2842.39 1.57018 -0.135265 0
M  V30 29879 C 2843.61 2.00532 0.529308 0
M  V30 29880 C 2844.04 1.01462 1.58389 0
M  V30 29881 O 2843.39 -0.0113668 1.81296 0
M  V30 29882 C 2843.44 3.4285 1.11742 0
M  V30 29883 O 2842.55 3.46739 2.23261 0
M  V30 29884 H 2841.89 0.651018 0.130658 0
M  V30 29885 H 2844.42 2.0332 -0.228539 0
M  V30 29886 H 2844.43 3.81403 1.44898 0
M  V30 29887 H 2843.1 4.14466 0.345074 0
M  V30 29888 H 2841.68 3.20019 1.91422 0
M  V30 29889 N 2843.86 -0.138524 1.5699 0
M  V30 29890 C 2845.09 -0.868377 1.88345 0
M  V30 29891 C 2845.51 -1.73559 0.72519 0
M  V30 29892 O 2844.87 -1.78364 -0.324961 0
M  V30 29893 C 2844.92 -1.69393 3.18337 0
M  V30 29894 O 2844.02 -2.79902 3.02868 0
M  V30 29895 H 2843.37 -0.241356 0.618582 0
M  V30 29896 H 2845.9 -0.12679 2.04207 0
M  V30 29897 H 2845.91 -2.0872 3.50571 0
M  V30 29898 H 2844.58 -1.05717 4.0224 0
M  V30 29899 H 2843.16 -2.43919 2.8206 0
M  V30 29900 N 2845.34 -1.52224 -0.408133 0
M  V30 29901 C 2846.27 -1.78598 -1.50416 0
M  V30 29902 C 2847.25 -0.637002 -1.57722 0
M  V30 29903 O 2848.44 -0.882695 -1.7298 0
M  V30 29904 C 2845.57 -1.93756 -2.88229 0
M  V30 29905 C 2844.52 -3.09358 -2.95773 0
M  V30 29906 C 2843.85 -3.0974 -4.3585 0
M  V30 29907 C 2845.15 -4.48797 -2.67167 0
M  V30 29908 H 2846.84 -2.70376 -1.28596 0
M  V30 29909 H 2844.39 -1.30103 -0.617198 0
M  V30 29910 H 2846.34 -2.10789 -3.64892 0
M  V30 29911 H 2845.07 -0.986497 -3.11345 0
M  V30 29912 H 2843.72 -2.92076 -2.21556 0
M  V30 29913 H 2843.37 -2.12354 -4.55977 0
M  V30 29914 H 2843.07 -3.87385 -4.41822 0
M  V30 29915 H 2844.6 -3.28904 -5.14446 0
M  V30 29916 H 2846.01 -4.66279 -3.33552 0
M  V30 29917 H 2844.41 -5.28367 -2.84514 0
M  V30 29918 H 2845.48 -4.56825 -1.62601 0
M  V30 29919 N 2846.82 0.665425 -1.42863 0
M  V30 29920 C 2847.77 1.79997 -1.47322 0
M  V30 29921 C 2848.76 1.65787 -0.347992 0
M  V30 29922 O 2849.97 1.72282 -0.521436 0
M  V30 29923 H 2846.34 0.593659 -0.461598 0
M  V30 29924 H 2848.31 1.73356 -2.42879 0
M  V30 29925 C 2847.06 3.182 -1.40157 0
M  V30 29926 H 2846.39 3.29766 -2.26041 0
M  V30 29927 H 2847.83 3.97577 -1.47338 0
M  V30 29928 C 2846.29 3.36695 -0.117552 0
M  V30 29929 O 2846.82 3.93116 0.825989 0
M  V30 29930 N 2845.02 2.90583 -0.0316729 0
M  V30 29931 H 2844.57 2.44853 -0.80029 0
M  V30 29932 H 2844.53 3.03334 0.826782 0
M  V30 29933 N 2848.3 1.29191 0.902633 0
M  V30 29934 C 2849.58 1.07677 1.63295 0
M  V30 29935 C 2849.96 -0.3801 2.0765 0
M  V30 29936 O 2849.3 -1.36834 1.83 0
M  V30 29937 C 2849.51 2.06163 2.81599 0
M  V30 29938 C 2850.86 2.3692 3.52355 0
M  V30 29939 O 2851.89 2.04334 2.91763 0
M  V30 29940 O 2850.74 2.92584 4.61581 0
M  V30 29941 H 2847.84 0.412323 0.716881 0
M  V30 29942 H 2850.38 1.40552 0.950959 0
M  V30 29943 H 2849.16 3.04303 2.45998 0
M  V30 29944 H 2848.78 1.74 3.57505 0
M  V30 29945 N 2849.78 -1.1126 1.1162 0
M  V30 29946 C 2851 -1.87379 0.889046 0
M  V30 29947 C 2851.43 -1.79699 -0.555852 0
M  V30 29948 O 2850.78 -1.16075 -1.3927 0
M  V30 29949 C 2850.83 -3.34066 1.35765 0
M  V30 29950 O 2849.94 -4.08973 0.530571 0
M  V30 29951 H 2849.28 -0.581753 0.320092 0
M  V30 29952 H 2851.81 -1.40624 1.48613 0
M  V30 29953 H 2851.82 -3.84914 1.35298 0
M  V30 29954 H 2850.49 -3.38972 2.40979 0
M  V30 29955 H 2849.07 -3.68017 0.601503 0
M  V30 29956 N 2851.25 -0.906798 -1.28899 0
M  V30 29957 C 2852.5 -0.537155 -1.95557 0
M  V30 29958 C 2852.83 0.915552 -1.71264 0
M  V30 29959 O 2852.11 1.65011 -1.02964 0
M  V30 29960 C 2852.39 -0.838707 -3.50197 0
M  V30 29961 C 2852.24 -2.34364 -3.83919 0
M  V30 29962 C 2853.56 -0.330065 -4.38861 0
M  V30 29963 H 2850.68 -0.19663 -0.710286 0
M  V30 29964 H 2853.32 -1.13478 -1.5239 0
M  V30 29965 H 2851.47 -0.330092 -3.87095 0
M  V30 29966 H 2853.15 -2.92234 -3.56928 0
M  V30 29967 H 2851.39 -2.80147 -3.3121 0
M  V30 29968 H 2852.06 -2.50519 -4.91878 0
M  V30 29969 H 2854.54 -0.765681 -4.08995 0
M  V30 29970 H 2853.41 -0.5702 -5.4593 0
M  V30 29971 H 2853.67 0.769435 -4.35353 0
M  V30 29972 N 2852.73 1.42648 -0.670032 0
M  V30 29973 C 2853.7 2.292 0.00200631 0
M  V30 29974 C 2854.7 1.43081 0.733792 0
M  V30 29975 O 2855.89 1.64523 0.572511 0
M  V30 29976 C 2853.02 3.25485 1.01353 0
M  V30 29977 H 2854.21 2.90117 -0.759747 0
M  V30 29978 H 2851.76 1.50208 -0.432131 0
M  V30 29979 H 2852.5 2.69497 1.80394 0
M  V30 29980 H 2852.28 3.88998 0.492255 0
M  V30 29981 H 2853.77 3.90406 1.48233 0
M  V30 29982 N 2854.21 0.413044 1.52091 0
M  V30 29983 C 2855.14 -0.455195 2.23614 0
M  V30 29984 C 2856.12 -1.04478 1.24592 0
M  V30 29985 O 2857.31 -1.0919 1.53655 0
M  V30 29986 C 2854.43 -1.63219 2.96778 0
M  V30 29987 C 2853.48 -1.16561 4.10263 0
M  V30 29988 S 2854.31 -0.127539 5.35348 0
M  V30 29989 C 2855.47 -1.30976 6.12042 0
M  V30 29990 H 2855.7 0.152095 2.96911 0
M  V30 29991 H 2853.23 0.19737 1.53133 0
M  V30 29992 H 2855.19 -2.30707 3.39536 0
M  V30 29993 H 2853.85 -2.21083 2.23117 0
M  V30 29994 H 2853.05 -2.04507 4.60644 0
M  V30 29995 H 2852.65 -0.569321 3.69641 0
M  V30 29996 H 2854.94 -2.23265 6.39655 0
M  V30 29997 H 2855.88 -0.84641 7.03023 0
M  V30 29998 H 2856.29 -1.53733 5.43163 0
M  V30 29999 N 2855.69 -1.56945 0.143591 0
M  V30 30000 C 2857.11 -1.58174 -0.212849 0
M  V30 30001 C 2857.31 -1.15768 -1.64924 0
M  V30 30002 O 2856.36 -0.856402 -2.37533 0
M  V30 30003 C 2857.67 -3.0067 0.0428101 0
M  V30 30004 C 2859.22 -3.12993 -0.0211671 0
M  V30 30005 C 2859.7 -4.57531 0.207116 0
M  V30 30006 N 2861.19 -4.62944 0.153927 0
M  V30 30007 C 2861.92 -5.72588 0.305119 0
M  V30 30008 N 2861.42 -6.90892 0.513844 0
M  V30 30009 N 2863.21 -5.61575 0.242961 0
M  V30 30010 H 2855.36 -1.82804 1.08151 0
M  V30 30011 H 2857.63 -0.845962 0.427846 0
M  V30 30012 H 2857.33 -3.36071 1.03678 0
M  V30 30013 H 2857.21 -3.71054 -0.67813 0
M  V30 30014 H 2859.59 -2.77435 -1.00569 0
M  V30 30015 H 2859.67 -2.45101 0.732047 0
M  V30 30016 H 2859.32 -4.93793 1.18872 0
M  V30 30017 H 2859.25 -5.23545 -0.566381 0
M  V30 30018 H 2861.74 -3.779 -0.00288224 0
M  V30 30019 H 2862.05 -7.70314 0.619409 0
M  V30 30020 H 2860.4 -6.92819 0.550123 0
M  V30 30021 H 2863.59 -4.6803 0.0806838 0
M  V30 30022 H 2863.76 -6.46976 0.364226 0
M  V30 30023 N 2857.17 0.130197 -1.57061 0
M  V30 30024 C 2858.1 1.19025 -1.947 0
M  V30 30025 C 2859.08 1.40694 -0.815099 0
M  V30 30026 O 2860.26 1.55032 -1.07226 0
M  V30 30027 C 2857.39 2.54617 -2.23356 0
M  V30 30028 C 2856.44 2.49442 -3.45949 0
M  V30 30029 S 2857.27 1.94497 -4.9893 0
M  V30 30030 C 2858.42 3.31783 -5.30727 0
M  V30 30031 H 2858.66 0.869222 -2.84309 0
M  V30 30032 H 2856.19 0.336504 -1.50688 0
M  V30 30033 H 2858.15 3.32638 -2.40545 0
M  V30 30034 H 2856.81 2.83902 -1.34381 0
M  V30 30035 H 2856 3.49295 -3.6333 0
M  V30 30036 H 2855.6 1.79537 -3.28089 0
M  V30 30037 H 2857.9 4.27957 -5.25223 0
M  V30 30038 H 2858.84 3.1924 -6.32053 0
M  V30 30039 H 2859.25 3.29695 -4.58216 0
M  V30 30040 N 2858.65 1.52438 0.400055 0
M  V30 30041 C 2859.61 1.75795 1.47067 0
M  V30 30042 C 2860.61 0.627882 1.48035 0
M  V30 30043 O 2861.8 0.895843 1.494 0
M  V30 30044 C 2858.93 1.84863 2.86424 0
M  V30 30045 H 2860.12 2.7138 1.27644 0
M  V30 30046 H 2857.68 1.42992 0.631116 0
M  V30 30047 H 2858.41 0.912249 3.11205 0
M  V30 30048 H 2858.2 2.67026 2.87123 0
M  V30 30049 H 2859.69 2.04645 3.6402 0
M  V30 30050 N 2860.12 -0.657839 1.43214 0
M  V30 30051 C 2861.37 -1.41778 1.44586 0
M  V30 30052 C 2861.7 -1.94379 0.0684549 0
M  V30 30053 O 2860.95 -1.72414 -0.925842 0
M  V30 30054 C 2861.25 -2.61943 2.43147 0
M  V30 30055 C 2860.92 -2.27787 3.89132 0
M  V30 30056 C 2859.58 -2.18184 4.28893 0
M  V30 30057 C 2861.93 -2.00367 4.81147 0
M  V30 30058 C 2859.26 -1.7931 5.58628 0
M  V30 30059 C 2861.61 -1.62992 6.11242 0
M  V30 30060 C 2860.28 -1.51911 6.49984 0
M  V30 30061 H 2859.55 -0.518804 0.529078 0
M  V30 30062 H 2862.19 -0.748546 1.76264 0
M  V30 30063 H 2860.5 -3.33978 2.04857 0
M  V30 30064 H 2862.2 -3.20149 2.41466 0
M  V30 30065 H 2858.79 -2.3617 3.57661 0
M  V30 30066 H 2862.97 -2.0671 4.51204 0
M  V30 30067 H 2858.23 -1.69313 5.87489 0
M  V30 30068 H 2862.4 -1.40805 6.82017 0
M  V30 30069 H 2860.03 -1.21559 7.50418 0
M  V30 30070 N 2861.6 -1.29668 -0.895769 0
M  V30 30071 C 2862.85 -1.17634 -1.64337 0
M  V30 30072 C 2863.17 0.271609 -1.93099 0
M  V30 30073 O 2862.44 1.18516 -1.55984 0
M  V30 30074 H 2861.02 -0.432365 -0.609155 0
M  V30 30075 H 2863.68 -1.62648 -1.07386 0
M  V30 30076 H 2862.78 -1.72929 -2.59812 0
M  V30 30077 N 2863.08 1.10667 -1.12208 0
M  V30 30078 C 2864.03 2.19026 -0.782957 0
M  V30 30079 C 2865.02 1.67843 0.229145 0
M  V30 30080 O 2866.23 1.79787 0.0875979 0
M  V30 30081 H 2862.6 0.714223 -0.235351 0
M  V30 30082 H 2864.57 2.44871 -1.70531 0
M  V30 30083 C 2863.32 3.46791 -0.251221 0
M  V30 30084 H 2862.65 3.86535 -1.0213 0
M  V30 30085 H 2864.09 4.23968 -0.0522154 0
M  V30 30086 C 2862.54 3.21078 1.02031 0
M  V30 30087 O 2863.07 3.42525 2.09855 0
M  V30 30088 N 2861.28 2.74761 0.946299 0
M  V30 30089 H 2860.83 2.57508 0.0687317 0
M  V30 30090 H 2860.79 2.57934 1.7977 0
M  V30 30091 N 2864.56 0.913621 1.28416 0
M  V30 30092 C 2865.49 0.418888 2.29712 0
M  V30 30093 C 2866.47 -0.51344 1.62166 0
M  V30 30094 O 2867.65 -0.421202 1.89577 0
M  V30 30095 C 2864.78 -0.341981 3.45612 0
M  V30 30096 C 2863.74 0.501198 4.25055 0
M  V30 30097 C 2863.06 -0.388003 5.3329 0
M  V30 30098 C 2864.36 1.75839 4.91811 0
M  V30 30099 H 2866.06 1.26543 2.71344 0
M  V30 30100 H 2863.6 0.609926 1.30445 0
M  V30 30101 H 2865.56 -0.698927 4.15563 0
M  V30 30102 H 2864.28 -1.22242 3.0286 0
M  V30 30103 H 2862.94 0.840661 3.56831 0
M  V30 30104 H 2862.59 -1.26699 4.86782 0
M  V30 30105 H 2862.29 0.172563 5.87347 0
M  V30 30106 H 2863.81 -0.740833 6.06089 0
M  V30 30107 H 2865.23 1.47036 5.54124 0
M  V30 30108 H 2863.62 2.26136 5.55862 0
M  V30 30109 H 2864.69 2.48627 4.16308 0
M  V30 30110 N 2866.04 -1.4229 0.677588 0
M  V30 30111 C 2867.27 -2.05538 0.209191 0
M  V30 30112 C 2867.67 -1.51011 -1.13984 0
M  V30 30113 O 2867.02 -0.645794 -1.71974 0
M  V30 30114 C 2867.08 -3.59432 0.069839 0
M  V30 30115 C 2866.74 -4.36666 1.34803 0
M  V30 30116 C 2867.74 -4.67137 2.28209 0
M  V30 30117 C 2865.42 -4.76257 1.5964 0
M  V30 30118 C 2867.42 -5.36136 3.44727 0
M  V30 30119 C 2865.11 -5.44996 2.76447 0
M  V30 30120 C 2866.1 -5.74861 3.68815 0
M  V30 30121 O 2865.79 -6.42189 4.83578 0
M  V30 30122 H 2865.52 -0.668766 0.0986319 0
M  V30 30123 H 2868.08 -1.83367 0.925515 0
M  V30 30124 H 2866.31 -3.80273 -0.702091 0
M  V30 30125 H 2868 -4.04309 -0.359044 0
M  V30 30126 H 2868.76 -4.37048 2.10271 0
M  V30 30127 H 2864.64 -4.52403 0.886153 0
M  V30 30128 H 2868.19 -5.59364 4.16843 0
M  V30 30129 H 2864.08 -5.74502 2.94309 0
M  V30 30130 H 2864.85 -6.60681 4.83159 0
M  V30 30131 N 2867.51 -0.421104 -1.5187 0
M  V30 30132 C 2868.48 0.386672 -2.25915 0
M  V30 30133 C 2869.48 0.963532 -1.28735 0
M  V30 30134 O 2870.67 0.840529 -1.5258 0
M  V30 30135 C 2867.8 1.54546 -3.03856 0
M  V30 30136 H 2868.99 -0.262031 -2.98753 0
M  V30 30137 H 2866.54 -0.173889 -1.5533 0
M  V30 30138 H 2867.28 2.23068 -2.35396 0
M  V30 30139 H 2867.06 1.13817 -3.75217 0
M  V30 30140 H 2868.55 2.11657 -3.59988 0
M  V30 30141 N 2868.99 1.56866 -0.151912 0
M  V30 30142 C 2869.96 2.15814 0.771823 0
M  V30 30143 C 2870.96 1.10117 1.17179 0
M  V30 30144 O 2872.15 1.35731 1.09191 0
M  V30 30145 C 2869.28 2.72524 2.04801 0
M  V30 30146 H 2870.47 2.9878 0.258969 0
M  V30 30147 H 2868.02 1.55995 0.0975606 0
M  V30 30148 H 2868.76 1.93238 2.60441 0
M  V30 30149 H 2868.54 3.49857 1.77038 0
M  V30 30150 H 2870.03 3.17925 2.70765 0
M  V30 30151 N 2870.47 -0.121866 1.57128 0
M  V30 30152 C 2871.72 -0.830156 1.84702 0
M  V30 30153 C 2872.05 -1.80013 0.736575 0
M  V30 30154 O 2871.3 -1.93796 -0.272324 0
M  V30 30155 C 2871.6 -1.61671 3.18743 0
M  V30 30156 C 2871.27 -0.791283 4.43903 0
M  V30 30157 C 2869.93 -0.563647 4.77888 0
M  V30 30158 C 2872.28 -0.215731 5.20753 0
M  V30 30159 C 2869.61 0.24984 5.86168 0
M  V30 30160 C 2871.96 0.584931 6.2989 0
M  V30 30161 C 2870.62 0.82291 6.62408 0
M  V30 30162 H 2869.89 -0.303776 0.675871 0
M  V30 30163 H 2872.54 -0.0926558 1.91276 0
M  V30 30164 H 2870.85 -2.42504 3.07732 0
M  V30 30165 H 2872.54 -2.16866 3.37298 0
M  V30 30166 H 2869.13 -0.978794 4.17274 0
M  V30 30167 H 2873.32 -0.37882 4.94852 0
M  V30 30168 H 2868.57 0.443468 6.0979 0
M  V30 30169 H 2872.75 1.03791 6.88622 0
M  V30 30170 H 2870.37 1.45509 7.46144 0
M  V30 30171 N 2871.95 -1.52648 -0.391965 0
M  V30 30172 C 2872.9 -1.73596 -1.47812 0
M  V30 30173 C 2873.88 -0.590006 -1.49692 0
M  V30 30174 O 2875.07 -0.847728 -1.55379 0
M  V30 30175 C 2872.2 -1.90556 -2.85558 0
M  V30 30176 C 2871.29 -3.11075 -2.88259 0
M  V30 30177 N 2871.68 -4.33478 -2.60634 0
M  V30 30178 C 2869.98 -3.1126 -3.19427 0
M  V30 30179 C 2870.68 -5.15063 -2.70342 0
M  V30 30180 N 2869.66 -4.50685 -3.03948 0
M  V30 30181 H 2873.46 -2.65863 -1.25276 0
M  V30 30182 H 2870.97 -1.50915 -0.599881 0
M  V30 30183 H 2872.97 -2.03685 -3.63756 0
M  V30 30184 H 2871.63 -0.995007 -3.09079 0
M  V30 30185 H 2872.64 -4.61662 -2.3471 0
M  V30 30186 H 2869.32 -2.30003 -3.48432 0
M  V30 30187 H 2870.71 -6.22628 -2.52554 0
M  V30 30188 N 2873.43 0.650235 -1.43561 0
M  V30 30189 C 2874.84 0.966246 -1.27027 0
M  V30 30190 C 2875.04 2.00582 -0.192152 0
M  V30 30191 O 2874.1 2.48839 0.428415 0
M  V30 30192 C 2875.41 1.44767 -2.63558 0
M  V30 30193 C 2876.96 1.56416 -2.71114 0
M  V30 30194 C 2877.43 2.07949 -4.0807 0
M  V30 30195 N 2878.93 2.15247 -4.1015 0
M  V30 30196 C 2879.66 2.56249 -5.12956 0
M  V30 30197 N 2879.16 2.96526 -6.26134 0
M  V30 30198 N 2880.95 2.56215 -5.0031 0
M  V30 30199 H 2873.1 -0.0376131 -2.12367 0
M  V30 30200 H 2875.36 0.0457616 -0.946895 0
M  V30 30201 H 2875.07 0.758211 -3.4343 0
M  V30 30202 H 2874.94 2.42216 -2.89156 0
M  V30 30203 H 2877.33 2.24463 -1.91573 0
M  V30 30204 H 2877.41 0.573923 -2.49278 0
M  V30 30205 H 2877.06 1.40503 -4.88079 0
M  V30 30206 H 2876.99 3.07809 -4.27272 0
M  V30 30207 H 2879.48 1.86882 -3.28456 0
M  V30 30208 H 2879.79 3.2657 -7.00408 0
M  V30 30209 H 2878.13 2.94323 -6.29602 0
M  V30 30210 H 2881.33 2.24128 -4.10956 0
M  V30 30211 H 2881.5 2.87847 -5.80558 0
M  V30 30212 N 2874.9 1.30141 0.88888 0
M  V30 30213 C 2875.85 1.16091 2.01558 0
M  V30 30214 C 2876.85 0.073771 1.69239 0
M  V30 30215 O 2878.05 0.234345 1.78468 0
M  V30 30216 H 2874.43 0.358918 0.660819 0
M  V30 30217 H 2876.4 2.11457 2.10544 0
M  V30 30218 C 2875.15 0.865485 3.36756 0
M  V30 30219 H 2874.47 1.69408 3.62134 0
M  V30 30220 H 2875.91 0.807265 4.16244 0
M  V30 30221 C 2874.37 -0.431518 3.34125 0
M  V30 30222 O 2874.9 -1.45425 3.74452 0
M  V30 30223 N 2873.11 -0.441271 2.8723 0
M  V30 30224 H 2872.65 0.391477 2.54608 0
M  V30 30225 H 2872.61 -1.30903 2.85852 0
M  V30 30226 N 2876.38 -1.1007 1.12794 0
M  V30 30227 C 2877.79 -1.6361 0.899375 0
M  V30 30228 C 2878.14 -1.87873 -0.565514 0
M  V30 30229 O 2877.27 -1.6235 -1.43078 0
M  V30 30230 C 2877.86 -2.97224 1.62613 0
M  V30 30231 C 2876.42 -3.47616 1.44362 0
M  V30 30232 C 2875.57 -2.22153 1.65962 0
M  V30 30233 H 2878.52 -0.935201 1.28217 0
M  V30 30234 H 2878.54 -3.6487 1.07936 0
M  V30 30235 H 2878.05 -2.79533 2.69226 0
M  V30 30236 H 2876.16 -3.70444 0.400213 0
M  V30 30237 H 2876.27 -4.25485 2.20226 0
M  V30 30238 H 2874.63 -2.30482 1.08399 0
M  V30 30239 H 2875.42 -2.06988 2.73881 0
M  V30 30240 N 2877.86 -0.920419 -1.2793 0
M  V30 30241 C 2879.11 -0.55594 -1.94303 0
M  V30 30242 C 2879.43 0.904489 -1.72754 0
M  V30 30243 O 2878.7 1.64027 -1.07107 0
M  V30 30244 H 2877.28 -0.202612 -0.718998 0
M  V30 30245 H 2879.94 -1.17123 -1.55783 0
M  V30 30246 H 2879.04 -0.756034 -3.02804 0
M  V30 30247 N 2879.34 1.41929 -0.685124 0
M  V30 30248 C 2880.58 2.01689 -0.212007 0
M  V30 30249 C 2880.92 1.54096 1.18186 0
M  V30 30250 O 2880.19 0.747604 1.79558 0
M  V30 30251 C 2880.48 3.59174 -0.258083 0
M  V30 30252 C 2880.33 4.16919 -1.68814 0
M  V30 30253 C 2881.65 4.38387 0.387967 0
M  V30 30254 H 2878.77 0.732806 -0.0785116 0
M  V30 30255 H 2881.41 1.68815 -0.871867 0
M  V30 30256 H 2879.56 3.87311 0.303764 0
M  V30 30257 H 2881.23 3.99697 -2.30303 0
M  V30 30258 H 2879.47 3.72357 -2.2256 0
M  V30 30259 H 2880.14 5.26069 -1.67199 0
M  V30 30260 H 2882.62 4.16002 -0.0904163 0
M  V30 30261 H 2881.5 5.47936 0.325136 0
M  V30 30262 H 2881.76 4.17046 1.46713 0
M  V30 30263 N 2880.82 0.429152 1.51644 0
M  V30 30264 C 2882.06 -0.140251 2.02314 0
M  V30 30265 C 2882.4 -1.43072 1.31317 0
M  V30 30266 O 2881.67 -1.89787 0.425565 0
M  V30 30267 C 2881.95 -0.367427 3.58221 0
M  V30 30268 C 2881.81 0.941117 4.39844 0
M  V30 30269 C 2883.13 -1.14082 4.25057 0
M  V30 30270 H 2880.24 -0.0494983 0.735336 0
M  V30 30271 H 2882.89 0.566546 1.81357 0
M  V30 30272 H 2881.04 -0.96949 3.76209 0
M  V30 30273 H 2882.71 1.57653 4.33524 0
M  V30 30274 H 2880.95 1.54758 4.05256 0
M  V30 30275 H 2881.62 0.736306 5.47067 0
M  V30 30276 H 2884.1 -0.630913 4.11289 0
M  V30 30277 H 2882.97 -1.26853 5.34041 0
M  V30 30278 H 2883.24 -2.16676 3.85362 0
M  V30 30279 N 2882.29 -1.56783 0.160229 0
M  V30 30280 C 2883.52 -2.00913 -0.49413 0
M  V30 30281 C 2883.94 -1.04041 -1.57546 0
M  V30 30282 O 2883.29 -0.0394902 -1.82457 0
M  V30 30283 C 2883.35 -3.44907 -1.08265 0
M  V30 30284 O 2883.07 -4.38077 -0.0444934 0
M  V30 30285 C 2884.57 -4.04382 -1.81633 0
M  V30 30286 H 2881.79 -0.658778 -0.127486 0
M  V30 30287 H 2884.33 -2.02857 0.258701 0
M  V30 30288 H 2882.49 -3.43773 -1.78603 0
M  V30 30289 H 2882.9 -5.22322 -0.477452 0
M  V30 30290 H 2884.37 -5.07093 -2.18085 0
M  V30 30291 H 2884.85 -3.45842 -2.70721 0
M  V30 30292 H 2885.46 -4.09186 -1.15962 0
M  V30 30293 N 2883.77 0.113531 -1.57191 0
M  V30 30294 C 2885.02 0.818729 -1.84773 0
M  V30 30295 C 2885.34 1.80157 -0.746228 0
M  V30 30296 O 2884.61 1.94554 0.229271 0
M  V30 30297 H 2883.19 0.305347 -0.681742 0
M  V30 30298 H 2885.85 0.0995502 -1.94646 0
M  V30 30299 H 2884.95 1.36062 -2.8088 0
M  V30 30300 N 2885.25 1.52854 0.383864 0
M  V30 30301 C 2886.48 1.72332 1.15397 0
M  V30 30302 C 2886.9 0.443012 1.82809 0
M  V30 30303 O 2886.26 -0.601615 1.71027 0
M  V30 30304 C 2886.31 2.87712 2.17381 0
M  V30 30305 O 2885.41 2.55044 3.24078 0
M  V30 30306 H 2884.75 0.572889 0.335699 0
M  V30 30307 H 2887.28 1.99667 0.446585 0
M  V30 30308 H 2887.29 3.13355 2.61291 0
M  V30 30309 H 2885.97 3.8059 1.67703 0
M  V30 30310 H 2884.54 2.40158 2.85269 0
M  V30 30311 N 2886.73 -0.642612 1.43904 0
M  V30 30312 C 2887.69 -1.73696 1.49541 0
M  V30 30313 C 2888.69 -1.56275 0.378803 0
M  V30 30314 O 2889.88 -1.61979 0.640978 0
M  V30 30315 C 2887.01 -3.12672 1.35826 0
M  V30 30316 H 2888.21 -1.70075 2.47011 0
M  V30 30317 H 2885.76 -0.855237 1.30826 0
M  V30 30318 H 2886.5 -3.21897 0.394051 0
M  V30 30319 H 2886.28 -3.26723 2.16782 0
M  V30 30320 H 2887.77 -3.92452 1.42727 0
M  V30 30321 N 2888.21 -1.30611 -0.881966 0
M  V30 30322 C 2889.45 -1.19784 -1.63645 0
M  V30 30323 C 2889.79 0.246231 -1.92633 0
M  V30 30324 O 2889.06 1.17575 -1.5494 0
M  V30 30325 C 2889.34 -2.0299 -2.97434 0
M  V30 30326 C 2889.2 -3.55633 -2.754 0
M  V30 30327 C 2890.52 -1.87004 -3.98394 0
M  V30 30328 H 2887.64 -0.436498 -0.593833 0
M  V30 30329 H 2890.28 -1.60275 -1.02039 0
M  V30 30330 H 2888.43 -1.68587 -3.50015 0
M  V30 30331 H 2890.1 -4.00111 -2.29583 0
M  V30 30332 H 2888.34 -3.79665 -2.09849 0
M  V30 30333 H 2889.01 -4.09146 -3.70545 0
M  V30 30334 H 2891.49 -2.17088 -3.54982 0
M  V30 30335 H 2890.37 -2.47544 -4.89911 0
M  V30 30336 H 2890.63 -0.830019 -4.34239 0
M  V30 30337 N 2889.69 1.0947 -1.13376 0
M  V30 30338 C 2890.93 1.81278 -0.893454 0
M  V30 30339 C 2891.25 1.86112 0.581996 0
M  V30 30340 O 2890.52 1.34635 1.42303 0
M  V30 30341 H 2889.1 0.671355 -0.327555 0
M  V30 30342 H 2891.77 1.32405 -1.43021 0
M  V30 30343 H 2890.86 2.84474 -1.28379 0
M  V30 30344 N 2891.16 0.92719 1.2744 0
M  V30 30345 C 2892.4 0.574643 1.96156 0
M  V30 30346 C 2892.77 -0.867867 1.71266 0
M  V30 30347 O 2893.97 -1.32866 2.33667 0
M  V30 30348 C 2892.24 0.89107 3.46114 0
M  V30 30349 S 2893.8 0.646961 4.34004 0
M  V30 30350 H 2890.62 0.212137 0.678615 0
M  V30 30351 H 2893.22 1.19552 1.54686 0
M  V30 30352 H 2891.92 1.93861 3.61727 0
M  V30 30353 H 2891.45 0.25937 3.92544 0
M  V30 30354 H 2893.47 -0.495481 4.9372 0
M  V30 30355 N 2892.64 -1.41564 0.692641 0
M  V30 30356 C 2893.92 -1.9502 0.15053 0
M  V30 30357 C 2894.3 -1.63217 -1.33878 0
M  V30 30358 O 2893.65 -0.937635 -2.08376 0
M  V30 30359 C 2893.86 -3.46232 0.438697 0
M  V30 30360 C 2895.2 -4.2303 0.364852 0
M  V30 30361 O 2896.23 -3.54237 0.373445 0
M  V30 30362 O 2895.09 -5.45548 0.322436 0
M  V30 30363 H 2892.18 -0.826894 0.0132599 0
M  V30 30364 H 2894.73 -1.51296 0.7686 0
M  V30 30365 H 2893.5 -3.62651 1.46969 0
M  V30 30366 H 2893.12 -3.97042 -0.210493 0
M  V30 30367 N 2894.12 -0.437188 -1.51415 0
M  V30 30368 C 2895.53 0.0259677 -1.86682 0
M  V30 30369 C 2895.88 1.41957 -1.35435 0
M  V30 30370 O 2895.01 2.04591 -0.705091 0
M  V30 30371 C 2895.6 0.0538982 -3.38757 0
M  V30 30372 C 2894.16 0.461466 -3.73561 0
M  V30 30373 C 2893.31 -0.345973 -2.75133 0
M  V30 30374 H 2896.26 -0.653038 -1.44641 0
M  V30 30375 H 2896.28 0.863413 -3.70574 0
M  V30 30376 H 2895.79 -0.960516 -3.76026 0
M  V30 30377 H 2893.89 1.48149 -3.41881 0
M  V30 30378 H 2894.01 0.186367 -4.78737 0
M  V30 30379 H 2892.37 0.195695 -2.53947 0
M  V30 30380 H 2893.15 -1.35926 -3.15244 0
M  V30 30381 N 2895.6 1.56696 -0.168541 0
M  V30 30382 C 2896.87 1.88469 0.523334 0
M  V30 30383 C 2897.25 1.07799 1.81501 0
M  V30 30384 O 2896.6 0.171085 2.27859 0
M  V30 30385 C 2896.81 3.40447 0.767931 0
M  V30 30386 C 2898.16 4.10126 1.09917 0
M  V30 30387 O 2899.18 3.45748 0.856564 0
M  V30 30388 O 2898.04 5.23859 1.55672 0
M  V30 30389 H 2895.14 0.781879 0.269433 0
M  V30 30390 H 2897.68 1.68436 -0.206769 0
M  V30 30391 H 2896.46 3.9103 -0.145323 0
M  V30 30392 H 2896.08 3.66082 1.55145 0
M  V30 30393 N 2897.08 -0.105193 1.57249 0
M  V30 30394 C 2898.01 -1.12927 2.04376 0
M  V30 30395 C 2898.99 -1.42375 0.930765 0
M  V30 30396 O 2900.17 -1.52579 1.20138 0
M  V30 30397 C 2897.3 -2.45185 2.45971 0
M  V30 30398 C 2896.26 -2.30168 3.60842 0
M  V30 30399 C 2895.58 -3.67511 3.88381 0
M  V30 30400 C 2896.88 -1.75065 4.92087 0
M  V30 30401 H 2898.58 -0.737236 2.90181 0
M  V30 30402 H 2896.12 -0.353187 1.39602 0
M  V30 30403 H 2898.07 -3.17089 2.77548 0
M  V30 30404 H 2896.8 -2.86305 1.57153 0
M  V30 30405 H 2895.46 -1.6071 3.29496 0
M  V30 30406 H 2895.11 -4.06141 2.96746 0
M  V30 30407 H 2894.81 -3.58313 4.6571 0
M  V30 30408 H 2896.33 -4.40899 4.22422 0
M  V30 30409 H 2897.74 -2.36799 5.2211 0
M  V30 30410 H 2896.14 -1.76652 5.7351 0
M  V30 30411 H 2897.21 -0.709263 4.79685 0
M  V30 30412 N 2898.55 -1.53055 -0.375752 0
M  V30 30413 C 2899.8 -1.68744 -1.11945 0
M  V30 30414 C 2900.13 -0.434048 -1.89595 0
M  V30 30415 O 2899.38 0.583834 -1.86788 0
M  V30 30416 C 2899.68 -2.88211 -2.11351 0
M  V30 30417 C 2899.35 -4.25127 -1.50259 0
M  V30 30418 C 2898.01 -4.62361 -1.33325 0
M  V30 30419 C 2900.36 -5.10314 -1.05967 0
M  V30 30420 C 2897.69 -5.82429 -0.706663 0
M  V30 30421 C 2900.04 -6.31018 -0.44713 0
M  V30 30422 C 2898.71 -6.66973 -0.265196 0
M  V30 30423 H 2897.98 -0.617478 -0.409637 0
M  V30 30424 H 2900.62 -1.87223 -0.402459 0
M  V30 30425 H 2898.93 -2.64202 -2.89317 0
M  V30 30426 H 2900.63 -2.97544 -2.68828 0
M  V30 30427 H 2897.22 -3.95804 -1.6443 0
M  V30 30428 H 2901.4 -4.82106 -1.17847 0
M  V30 30429 H 2896.66 -6.08885 -0.554025 0
M  V30 30430 H 2900.83 -6.96334 -0.095684 0
M  V30 30431 H 2898.46 -7.59875 0.222401 0
M  V30 30432 N 2900.03 0.634971 -1.44242 0
M  V30 30433 C 2901.28 1.39489 -1.48035 0
M  V30 30434 C 2901.63 1.92086 -0.109825 0
M  V30 30435 O 2900.93 1.70486 0.874364 0
M  V30 30436 C 2901.12 2.58042 -2.47284 0
M  V30 30437 C 2900.95 2.1705 -3.93852 0
M  V30 30438 C 2899.72 2.0451 -4.62065 0
M  V30 30439 C 2901.92 1.762 -4.83175 0
M  V30 30440 N 2899.9 1.57041 -5.93474 0
M  V30 30441 C 2901.27 1.39948 -6.03999 0
M  V30 30442 C 2903.33 1.63546 -4.70274 0
M  V30 30443 C 2902.03 0.923071 -7.13353 0
M  V30 30444 C 2904.05 1.1731 -5.79648 0
M  V30 30445 C 2903.42 0.820058 -6.9961 0
M  V30 30446 H 2899.52 0.505382 -0.596752 0
M  V30 30447 H 2902.1 0.728838 -1.80544 0
M  V30 30448 H 2900.27 3.2228 -2.16772 0
M  V30 30449 H 2902 3.24823 -2.41397 0
M  V30 30450 H 2898.76 2.24843 -4.16824 0
M  V30 30451 H 2899.18 1.35616 -6.63278 0
M  V30 30452 H 2903.82 1.89474 -3.77968 0
M  V30 30453 H 2901.54 0.6513 -8.05471 0
M  V30 30454 H 2905.13 1.07983 -5.71691 0
M  V30 30455 H 2904.01 0.467763 -7.82804 0
M  V30 30456 N 2901.51 1.31076 0.875027 0
M  V30 30457 C 2902.74 1.23553 1.66581 0
M  V30 30458 C 2903.16 -0.196827 1.87067 0
M  V30 30459 O 2902.52 -1.14117 1.40879 0
M  V30 30460 C 2902.57 1.9797 3.01397 0
M  V30 30461 O 2901.67 1.31358 3.9092 0
M  V30 30462 H 2901.01 0.42683 0.508638 0
M  V30 30463 H 2903.54 1.73062 1.09136 0
M  V30 30464 H 2903.55 2.07372 3.5137 0
M  V30 30465 H 2902.23 3.02138 2.85806 0
M  V30 30466 H 2900.8 1.30374 3.49366 0
M  V30 30467 N 2902.99 -1.08867 1.13955 0
M  V30 30468 C 2903.94 -2.1566 0.822168 0
M  V30 30469 C 2904.91 -1.6466 -0.218245 0
M  V30 30470 O 2906.09 -1.90591 -0.089214 0
M  V30 30471 C 2903.23 -3.43788 0.300632 0
M  V30 30472 C 2902.34 -4.08659 1.40079 0
M  V30 30473 C 2901.48 -5.24565 0.836989 0
M  V30 30474 C 2900.52 -5.81368 1.91515 0
M  V30 30475 N 2899.65 -6.88626 1.36887 0
M  V30 30476 H 2904.49 -2.4215 1.73688 0
M  V30 30477 H 2902.03 -1.18841 0.866899 0
M  V30 30478 H 2903.99 -4.17195 -0.0199209 0
M  V30 30479 H 2902.62 -3.17598 -0.577193 0
M  V30 30480 H 2901.67 -3.33059 1.83782 0
M  V30 30481 H 2902.98 -4.46901 2.21542 0
M  V30 30482 H 2902.14 -6.04892 0.468059 0
M  V30 30483 H 2900.88 -4.87699 -0.00865635 0
M  V30 30484 H 2899.88 -4.99698 2.29308 0
M  V30 30485 H 2901.11 -6.20293 2.7643 0
M  V30 30486 H 2899.05 -6.53729 0.545326 0
M  V30 30487 H 2898.97 -7.25669 2.11993 0
M  V30 30488 H 2900.24 -7.72696 1.02769 0
M  V30 30489 N 2904.47 -0.933936 -1.26946 0
M  V30 30490 C 2905.72 -0.573443 -1.93377 0
M  V30 30491 C 2906.03 0.890583 -1.74149 0
M  V30 30492 O 2907.23 1.36013 -2.34974 0
M  V30 30493 C 2905.69 -0.974808 -3.46447 0
M  V30 30494 C 2905.3 -2.45995 -3.7442 0
M  V30 30495 C 2907.04 -0.685865 -4.18923 0
M  V30 30496 C 2904.95 -2.80039 -5.20896 0
M  V30 30497 H 2903.88 -0.210749 -0.723948 0
M  V30 30498 H 2906.53 -1.13559 -1.44141 0
M  V30 30499 H 2904.91 -0.341251 -3.94527 0
M  V30 30500 H 2906.09 -3.14194 -3.37074 0
M  V30 30501 H 2904.4 -2.72143 -3.15162 0
M  V30 30502 H 2907 -0.916638 -5.26784 0
M  V30 30503 H 2907.34 0.377144 -4.14588 0
M  V30 30504 H 2907.87 -1.27881 -3.76685 0
M  V30 30505 H 2904.61 -3.85274 -5.30325 0
M  V30 30506 H 2904.13 -2.16495 -5.59366 0
M  V30 30507 H 2905.81 -2.68116 -5.88832 0
M  V30 30508 N 2905.94 1.41194 -0.700139 0
M  V30 30509 C 2907.36 1.84154 -0.307281 0
M  V30 30510 C 2907.71 1.58574 1.15537 0
M  V30 30511 O 2906.83 1.05856 1.88742 0
M  V30 30512 C 2907.43 3.34291 -0.550931 0
M  V30 30513 C 2905.99 3.75803 -0.211943 0
M  V30 30514 C 2905.13 2.64557 -0.830961 0
M  V30 30515 H 2908.08 1.30681 -0.900454 0
M  V30 30516 H 2908.1 3.80031 0.188887 0
M  V30 30517 H 2907.62 3.52877 -1.61554 0
M  V30 30518 H 2905.72 3.62817 0.848219 0
M  V30 30519 H 2905.83 4.7439 -0.670153 0
M  V30 30520 H 2904.19 2.53367 -0.260199 0
M  V30 30521 H 2904.98 2.8596 -1.89953 0
M  V30 30522 N 2907.42 0.445212 1.51181 0
M  V30 30523 C 2908.67 -0.118785 2.02452 0
M  V30 30524 C 2909 -1.41671 1.32827 0
M  V30 30525 O 2908.28 -1.89325 0.44567 0
M  V30 30526 C 2908.56 -0.329412 3.5859 0
M  V30 30527 C 2908.41 0.987715 4.38821 0
M  V30 30528 C 2909.73 -1.09567 4.26243 0
M  V30 30529 H 2906.85 -0.0416963 0.73582 0
M  V30 30530 H 2909.49 0.585749 1.80746 0
M  V30 30531 H 2907.64 -0.929534 3.77216 0
M  V30 30532 H 2909.31 1.62242 4.31828 0
M  V30 30533 H 2907.56 1.59048 4.03592 0
M  V30 30534 H 2908.23 0.794288 5.46255 0
M  V30 30535 H 2910.7 -0.587255 4.11935 0
M  V30 30536 H 2909.58 -1.21182 5.35356 0
M  V30 30537 H 2909.84 -2.12577 3.87638 0
M  V30 30538 N 2908.9 -1.56605 0.176849 0
M  V30 30539 C 2909.83 -2.21235 -0.746802 0
M  V30 30540 C 2910.81 -1.16969 -1.235 0
M  V30 30541 O 2912 -1.45417 -1.28715 0
M  V30 30542 C 2909.13 -2.85744 -1.97402 0
M  V30 30543 C 2908.08 -3.96097 -1.62146 0
M  V30 30544 C 2907.41 -4.47681 -2.92379 0
M  V30 30545 C 2908.71 -5.15415 -0.845263 0
M  V30 30546 H 2910.4 -2.98676 -0.208064 0
M  V30 30547 H 2907.95 -1.43662 -0.0986342 0
M  V30 30548 H 2909.9 -3.29634 -2.62525 0
M  V30 30549 H 2908.62 -2.0568 -2.53699 0
M  V30 30550 H 2907.28 -3.5287 -0.993902 0
M  V30 30551 H 2906.93 -3.64402 -3.46728 0
M  V30 30552 H 2906.63 -5.22131 -2.69542 0
M  V30 30553 H 2908.15 -4.94262 -3.58522 0
M  V30 30554 H 2909.57 -5.55964 -1.39919 0
M  V30 30555 H 2907.97 -5.95817 -0.71571 0
M  V30 30556 H 2909.04 -4.84645 0.157324 0
M  V30 30557 N 2910.38 0.0968524 -1.57302 0
M  V30 30558 C 2911.31 1.14869 -1.97181 0
M  V30 30559 C 2912.29 1.38934 -0.844759 0
M  V30 30560 O 2913.47 1.52723 -1.1049 0
M  V30 30561 C 2910.6 2.49822 -2.28707 0
M  V30 30562 C 2909.65 2.42048 -3.51162 0
M  V30 30563 S 2910.48 1.8387 -5.02943 0
M  V30 30564 C 2911.64 3.20451 -5.37645 0
M  V30 30565 H 2911.87 0.80872 -2.86089 0
M  V30 30566 H 2909.4 0.304465 -1.51368 0
M  V30 30567 H 2911.36 3.27461 -2.47547 0
M  V30 30568 H 2910.02 2.80988 -1.40373 0
M  V30 30569 H 2909.21 3.4151 -3.70657 0
M  V30 30570 H 2908.82 1.72537 -3.31824 0
M  V30 30571 H 2911.11 4.1672 -5.34182 0
M  V30 30572 H 2912.05 3.05761 -6.38683 0
M  V30 30573 H 2912.46 3.19901 -4.65106 0
M  V30 30574 N 2911.86 1.53252 0.36763 0
M  V30 30575 C 2912.77 1.82502 1.47412 0
M  V30 30576 C 2913.78 0.71325 1.5871 0
M  V30 30577 O 2914.96 1.00309 1.74643 0
M  V30 30578 C 2912.02 2.00699 2.82703 0
M  V30 30579 C 2911.08 3.24601 2.8095 0
M  V30 30580 C 2910.32 3.41921 4.09787 0
M  V30 30581 O 2910.54 2.63581 5.05847 0
M  V30 30582 O 2909.47 4.35267 4.15724 0
M  V30 30583 H 2913.3 2.76502 1.25619 0
M  V30 30584 H 2910.89 1.38607 0.557535 0
M  V30 30585 H 2912.77 2.14252 3.62869 0
M  V30 30586 H 2911.44 1.09888 3.04477 0
M  V30 30587 H 2910.35 3.16473 1.99489 0
M  V30 30588 H 2911.68 4.15327 2.64129 0
M  V30 30589 N 2913.34 -0.627313 1.44577 0
M  V30 30590 C 2914.25 -1.76773 1.54235 0
M  V30 30591 C 2915.26 -1.68659 0.427811 0
M  V30 30592 O 2916.44 -1.89368 0.685705 0
M  V30 30593 C 2913.5 -3.13171 1.48744 0
M  V30 30594 C 2912.56 -3.32888 2.71079 0
M  V30 30595 C 2911.8 -4.62779 2.6584 0
M  V30 30596 O 2912.02 -5.43831 1.72057 0
M  V30 30597 O 2910.95 -4.84781 3.5675 0
M  V30 30598 H 2914.78 -1.71577 2.50589 0
M  V30 30599 H 2912.36 -0.789006 1.26866 0
M  V30 30600 H 2914.25 -3.94474 1.48218 0
M  V30 30601 H 2912.92 -3.18901 0.555348 0
M  V30 30602 H 2911.83 -2.5125 2.77172 0
M  V30 30603 H 2913.16 -3.32023 3.63348 0
M  V30 30604 N 2914.81 -1.31539 -0.868063 0
M  V30 30605 C 2915.76 -1.19349 -1.97546 0
M  V30 30606 C 2916.73 -0.0788214 -1.65913 0
M  V30 30607 O 2917.92 -0.252018 -1.89128 0
M  V30 30608 C 2915.06 -0.90875 -3.3292 0
M  V30 30609 C 2914.17 -2.10693 -3.77137 0
M  V30 30610 C 2913.3 -1.75882 -5.01238 0
M  V30 30611 C 2912.34 -2.92097 -5.37908 0
M  V30 30612 N 2911.48 -2.57468 -6.53188 0
M  V30 30613 H 2916.32 -2.14077 -2.07304 0
M  V30 30614 H 2913.86 -1.06489 -1.01481 0
M  V30 30615 H 2915.81 -0.72421 -4.10866 0
M  V30 30616 H 2914.44 0.00170436 -3.228 0
M  V30 30617 H 2913.5 -2.40218 -2.94956 0
M  V30 30618 H 2914.81 -2.9767 -4.00243 0
M  V30 30619 H 2913.96 -1.53901 -5.86855 0
M  V30 30620 H 2912.7 -0.860995 -4.8004 0
M  V30 30621 H 2911.71 -3.14725 -4.50809 0
M  V30 30622 H 2912.93 -3.82592 -5.61071 0
M  V30 30623 H 2910.88 -1.70211 -6.33533 0
M  V30 30624 H 2910.79 -3.37975 -6.76246 0
M  V30 30625 H 2912.06 -2.38886 -7.41993 0
M  V30 30626 N 2916.29 1.08262 -1.1453 0
M  V30 30627 C 2917.22 2.17228 -0.856394 0
M  V30 30628 C 2918.2 1.69044 0.189221 0
M  V30 30629 O 2919.39 1.94147 0.0455778 0
M  V30 30630 C 2916.52 3.45683 -0.334723 0
M  V30 30631 C 2915.47 4.07267 -1.31595 0
M  V30 30632 C 2914.8 5.30691 -0.653521 0
M  V30 30633 C 2916.1 4.48376 -2.67874 0
M  V30 30634 H 2917.79 2.41654 -1.76759 0
M  V30 30635 H 2915.34 1.16141 -0.851308 0
M  V30 30636 H 2917.29 4.21229 -0.120202 0
M  V30 30637 H 2916.01 3.20816 0.611911 0
M  V30 30638 H 2914.67 3.33755 -1.51667 0
M  V30 30639 H 2914.32 5.02111 0.298966 0
M  V30 30640 H 2914.02 5.72851 -1.30827 0
M  V30 30641 H 2915.55 6.0895 -0.44856 0
M  V30 30642 H 2916.96 5.15092 -2.51701 0
M  V30 30643 H 2915.36 5.01458 -3.29636 0
M  V30 30644 H 2916.43 3.60192 -3.24638 0
M  V30 30645 N 2917.77 0.940655 1.26449 0
M  V30 30646 C 2919.02 0.587943 1.93777 0
M  V30 30647 C 2919.34 -0.872904 1.73812 0
M  V30 30648 O 2918.6 -1.63976 1.06819 0
M  V30 30649 C 2918.9 0.875855 3.46502 0
M  V30 30650 C 2918.56 2.3205 3.86605 0
M  V30 30651 C 2917.23 2.71541 3.97264 0
M  V30 30652 C 2919.58 3.25934 4.06714 0
M  V30 30653 C 2916.91 4.04014 4.25429 0
M  V30 30654 C 2919.26 4.58003 4.36367 0
M  V30 30655 C 2917.92 4.9731 4.45241 0
M  V30 30656 H 2917.19 0.215144 0.70908 0
M  V30 30657 H 2919.84 1.18706 1.5027 0
M  V30 30658 H 2918.14 0.194193 3.91318 0
M  V30 30659 H 2919.84 0.581734 3.96758 0
M  V30 30660 H 2916.43 2.00418 3.78855 0
M  V30 30661 H 2920.62 2.96621 3.97907 0
M  V30 30662 H 2915.87 4.34131 4.30511 0
M  V30 30663 H 2920.05 5.30742 4.50872 0
M  V30 30664 H 2917.67 5.99987 4.66819 0
M  V30 30665 N 2919.25 -1.40821 0.707617 0
M  V30 30666 C 2920.21 -2.29125 0.0587627 0
M  V30 30667 C 2921.21 -1.44976 -0.695598 0
M  V30 30668 O 2922.4 -1.65983 -0.528689 0
M  V30 30669 C 2919.53 -3.28057 -0.926881 0
M  V30 30670 H 2920.73 -2.88001 0.8364 0
M  V30 30671 H 2918.28 -1.49009 0.471804 0
M  V30 30672 H 2919.01 -2.74185 -1.73186 0
M  V30 30673 H 2918.8 -3.90166 -0.388946 0
M  V30 30674 H 2920.29 -3.94199 -1.3783 0
M  V30 30675 N 2920.73 -0.453223 -1.50943 0
M  V30 30676 C 2921.97 0.107887 -2.02212 0
M  V30 30677 C 2922.3 1.41316 -1.33641 0
M  V30 30678 O 2921.56 1.90569 -0.445187 0
M  V30 30679 C 2921.85 0.357881 -3.55604 0
M  V30 30680 C 2921.52 -0.863505 -4.42554 0
M  V30 30681 C 2920.18 -1.19842 -4.66038 0
M  V30 30682 C 2922.53 -1.67755 -4.93465 0
M  V30 30683 C 2919.86 -2.34777 -5.37677 0
M  V30 30684 C 2922.21 -2.81803 -5.66365 0
M  V30 30685 C 2920.88 -3.1573 -5.88108 0
M  V30 30686 H 2920.15 0.0394786 -0.739948 0
M  V30 30687 H 2922.8 -0.603662 -1.81737 0
M  V30 30688 H 2921.1 1.15149 -3.74497 0
M  V30 30689 H 2922.8 0.805712 -3.92822 0
M  V30 30690 H 2919.39 -0.592553 -4.24484 0
M  V30 30691 H 2923.57 -1.432 -4.75192 0
M  V30 30692 H 2918.83 -2.61358 -5.52722 0
M  V30 30693 H 2923 -3.4524 -6.048 0
M  V30 30694 H 2920.63 -4.049 -6.43397 0
M  V30 30695 N 2922.2 1.56509 -0.185151 0
M  V30 30696 C 2923.48 1.89013 0.503315 0
M  V30 30697 C 2923.86 1.09718 1.80348 0
M  V30 30698 O 2923.21 0.195243 2.27664 0
M  V30 30699 C 2923.42 3.41242 0.731779 0
M  V30 30700 C 2924.77 4.11269 1.0556 0
M  V30 30701 O 2925.79 3.46637 0.819845 0
M  V30 30702 O 2924.65 5.25481 1.50107 0
M  V30 30703 H 2921.74 0.784693 0.261125 0
M  V30 30704 H 2924.29 1.68207 -0.224622 0
M  V30 30705 H 2923.06 3.90854 -0.186789 0
M  V30 30706 H 2922.68 3.67707 1.51254 0
M  V30 30707 N 2923.68 -0.0885089 1.57351 0
M  V30 30708 C 2924.91 -0.802997 1.90356 0
M  V30 30709 C 2925.32 -1.72477 0.777708 0
M  V30 30710 O 2924.66 -1.81867 -0.258876 0
M  V30 30711 C 2924.72 -1.66389 3.18677 0
M  V30 30712 C 2924.39 -0.913248 4.47782 0
M  V30 30713 C 2925.39 -0.240057 5.19345 0
M  V30 30714 C 2923.07 -0.885376 4.94435 0
M  V30 30715 C 2925.06 0.450966 6.35803 0
M  V30 30716 C 2922.75 -0.190571 6.10803 0
M  V30 30717 C 2923.75 0.476415 6.81336 0
M  V30 30718 O 2923.44 1.16006 7.95486 0
M  V30 30719 H 2923.17 -0.234458 0.634039 0
M  V30 30720 H 2925.72 -0.0681598 2.05287 0
M  V30 30721 H 2923.95 -2.44112 2.9991 0
M  V30 30722 H 2925.64 -2.25554 3.37462 0
M  V30 30723 H 2926.41 -0.253007 4.8434 0
M  V30 30724 H 2922.29 -1.39398 4.39419 0
M  V30 30725 H 2925.83 0.97214 6.90793 0
M  V30 30726 H 2921.73 -0.17549 6.45261 0
M  V30 30727 H 2922.5 1.06763 8.11507 0
M  V30 30728 N 2925.16 -1.53445 -0.359498 0
M  V30 30729 C 2926.39 -1.73839 -1.12195 0
M  V30 30730 C 2926.8 -0.470139 -1.82853 0
M  V30 30731 O 2926.16 0.557318 -1.73782 0
M  V30 30732 C 2926.21 -2.9079 -2.14763 0
M  V30 30733 O 2925.93 -4.12708 -1.46982 0
M  V30 30734 C 2927.43 -3.23106 -3.03509 0
M  V30 30735 H 2924.65 -0.581259 -0.33523 0
M  V30 30736 H 2927.2 -2.00212 -0.416563 0
M  V30 30737 H 2925.35 -2.66793 -2.80891 0
M  V30 30738 H 2925.77 -4.78243 -2.1537 0
M  V30 30739 H 2927.24 -4.08329 -3.71446 0
M  V30 30740 H 2927.72 -2.38728 -3.68654 0
M  V30 30741 H 2928.32 -3.4905 -2.4299 0
M  V30 30742 N 2926.64 0.619637 -1.44908 0
M  V30 30743 C 2927.89 1.37623 -1.48001 0
M  V30 30744 C 2928.21 1.94641 -0.118329 0
M  V30 30745 O 2927.48 1.76459 0.850829 0
M  V30 30746 H 2926.06 0.510864 -0.545002 0
M  V30 30747 H 2928.72 0.728491 -1.80773 0
M  V30 30748 H 2927.81 2.20175 -2.212 0
M  V30 30749 N 2928.12 1.31997 0.861075 0
M  V30 30750 C 2929.35 1.24995 1.64499 0
M  V30 30751 C 2929.75 -0.185542 1.88288 0
M  V30 30752 O 2929.1 -1.13097 1.44758 0
M  V30 30753 C 2929.16 1.93324 3.03094 0
M  V30 30754 C 2928.82 3.42663 3.02375 0
M  V30 30755 C 2929.82 4.38259 2.79688 0
M  V30 30756 C 2927.51 3.84497 3.23214 0
M  V30 30757 C 2929.5 5.73662 2.77833 0
M  V30 30758 C 2927.19 5.2001 3.20987 0
M  V30 30759 C 2928.18 6.14404 2.98324 0
M  V30 30760 O 2927.87 7.47438 2.95958 0
M  V30 30761 H 2927.6 0.432784 0.519302 0
M  V30 30762 H 2930.16 1.74567 1.08238 0
M  V30 30763 H 2928.39 1.38312 3.61119 0
M  V30 30764 H 2930.08 1.80117 3.63748 0
M  V30 30765 H 2930.84 4.07266 2.63361 0
M  V30 30766 H 2926.72 3.11451 3.39882 0
M  V30 30767 H 2930.27 6.47312 2.60063 0
M  V30 30768 H 2926.16 5.50635 3.36856 0
M  V30 30769 H 2926.93 7.5672 3.11957 0
M  V30 30770 N 2929.59 -1.07653 1.15103 0
M  V30 30771 C 2930.87 -1.769 0.834609 0
M  V30 30772 C 2931.25 -2.00172 -0.670396 0
M  V30 30773 O 2930.6 -1.61772 -1.61375 0
M  V30 30774 C 2930.81 -3.07962 1.64197 0
M  V30 30775 C 2932.16 -3.82361 1.84622 0
M  V30 30776 O 2933.18 -3.17765 1.60947 0
M  V30 30777 O 2932.04 -4.9837 2.24253 0
M  V30 30778 H 2929.13 -0.768057 0.306622 0
M  V30 30779 H 2931.68 -1.14046 1.25665 0
M  V30 30780 H 2930.45 -2.86621 2.66391 0
M  V30 30781 H 2930.08 -3.78547 1.21606 0
M  V30 30782 N 2931.07 -0.947348 -1.25949 0
M  V30 30783 C 2932.04 -0.466324 -2.24406 0
M  V30 30784 C 2933.04 0.425978 -1.55055 0
M  V30 30785 O 2934.23 0.224289 -1.7275 0
M  V30 30786 C 2931.36 0.327142 -3.39327 0
M  V30 30787 H 2932.55 -1.33647 -2.68474 0
M  V30 30788 H 2930.1 -0.729911 -1.3821 0
M  V30 30789 H 2930.84 1.21527 -3.00669 0
M  V30 30790 H 2930.62 -0.312907 -3.90849 0
M  V30 30791 H 2932.11 0.653404 -4.12457 0
M  V30 30792 N 2932.55 1.40444 -0.715075 0
M  V30 30793 C 2933.78 2.05731 -0.262576 0
M  V30 30794 C 2934.2 1.5352 1.08688 0
M  V30 30795 O 2933.56 0.670358 1.68451 0
M  V30 30796 C 2933.61 3.59718 -0.252013 0
M  V30 30797 O 2932.71 4.05206 0.766927 0
M  V30 30798 H 2932.05 0.652431 -0.123409 0
M  V30 30799 H 2934.58 1.79852 -0.975413 0
M  V30 30800 H 2934.59 4.07902 -0.0895254 0
M  V30 30801 H 2933.27 3.97085 -1.23679 0
M  V30 30802 H 2931.84 3.68484 0.572204 0
M  V30 30803 N 2934.03 0.461222 1.507 0
M  V30 30804 C 2934.96 -0.328144 2.31183 0
M  V30 30805 C 2935.94 -0.999384 1.37646 0
M  V30 30806 O 2937.12 -0.998451 1.66567 0
M  V30 30807 C 2934.25 -1.41615 3.17116 0
M  V30 30808 C 2933.21 -0.867074 4.19125 0
M  V30 30809 C 2932.53 -2.05263 4.93732 0
M  V30 30810 C 2933.83 0.1149 5.22174 0
M  V30 30811 H 2935.53 0.343553 2.97422 0
M  V30 30812 H 2933.07 0.166666 1.43032 0
M  V30 30813 H 2935.03 -1.97578 3.72211 0
M  V30 30814 H 2933.75 -2.11648 2.48742 0
M  V30 30815 H 2932.41 -0.329493 3.65116 0
M  V30 30816 H 2932.06 -2.73971 4.2184 0
M  V30 30817 H 2931.76 -1.69151 5.62727 0
M  V30 30818 H 2933.28 -2.61734 5.51659 0
M  V30 30819 H 2934.7 -0.355215 5.72198 0
M  V30 30820 H 2933.09 0.389794 5.98833 0
M  V30 30821 H 2934.16 1.044 4.73528 0
M  V30 30822 N 2935.51 -1.56408 0.193449 0
M  V30 30823 C 2936.73 -2.02358 -0.454517 0
M  V30 30824 C 2937.16 -1.07271 -1.54514 0
M  V30 30825 O 2936.51 -0.055928 -1.81214 0
M  V30 30826 C 2936.56 -3.46761 -0.989408 0
M  V30 30827 O 2935.67 -3.54787 -2.10238 0
M  V30 30828 H 2935.01 -0.655419 -0.106405 0
M  V30 30829 H 2937.54 -2.02331 0.303842 0
M  V30 30830 H 2937.55 -3.86518 -1.30643 0
M  V30 30831 H 2936.22 -4.15461 -0.19101 0
M  V30 30832 H 2934.8 -3.26903 -1.79413 0
M  V30 30833 N 2936.98 0.0801629 -1.57396 0
M  V30 30834 C 2938.4 0.632971 -1.75643 0
M  V30 30835 C 2938.75 1.78346 -0.817739 0
M  V30 30836 O 2937.87 2.164 0.000195706 0
M  V30 30837 C 2938.47 1.15501 -3.18504 0
M  V30 30838 C 2937.03 1.65375 -3.38124 0
M  V30 30839 C 2936.17 0.569613 -2.71387 0
M  V30 30840 H 2939.12 -0.145977 -1.58027 0
M  V30 30841 H 2939.14 2.02402 -3.22201 0
M  V30 30842 H 2938.66 0.317447 -3.868 0
M  V30 30843 H 2936.76 2.51484 -2.7493 0
M  V30 30844 H 2936.87 1.73646 -4.46524 0
M  V30 30845 H 2935.23 1.01266 -2.33704 0
M  V30 30846 H 2936.02 -0.257621 -3.42332 0
M  V30 30847 N 2938.46 1.53634 0.351355 0
M  V30 30848 C 2939.43 1.80385 1.41399 0
M  V30 30849 C 2940.43 0.67466 1.45962 0
M  V30 30850 O 2941.62 0.94292 1.46474 0
M  V30 30851 C 2938.75 1.93881 2.80398 0
M  V30 30852 H 2939.94 2.75303 1.18946 0
M  V30 30853 H 2937.49 1.44927 0.585304 0
M  V30 30854 H 2938.23 1.01079 3.08145 0
M  V30 30855 H 2938.01 2.76025 2.78483 0
M  V30 30856 H 2939.5 2.16122 3.57325 0
M  V30 30857 N 2939.94 -0.611943 1.45234 0
M  V30 30858 C 2941.19 -1.37116 1.50235 0
M  V30 30859 C 2941.54 -1.91887 0.14037 0
M  V30 30860 O 2940.83 -1.71855 -0.847131 0
M  V30 30861 C 2941.03 -2.54075 2.51358 0
M  V30 30862 C 2940.86 -2.10757 3.97255 0
M  V30 30863 C 2939.63 -1.97133 4.6526 0
M  V30 30864 C 2941.83 -1.6849 4.85917 0
M  V30 30865 N 2939.81 -1.47579 5.95897 0
M  V30 30866 C 2941.18 -1.30321 6.06149 0
M  V30 30867 C 2943.23 -1.56043 4.72816 0
M  V30 30868 C 2941.94 -0.809466 7.14731 0
M  V30 30869 C 2943.96 -1.08073 5.81441 0
M  V30 30870 C 2943.32 -0.708652 7.00826 0
M  V30 30871 H 2939.42 -0.495824 0.604717 0
M  V30 30872 H 2942.01 -0.700023 1.8168 0
M  V30 30873 H 2940.18 -3.18791 2.21872 0
M  V30 30874 H 2941.91 -3.20941 2.46534 0
M  V30 30875 H 2938.67 -2.18183 4.20349 0
M  V30 30876 H 2939.09 -1.25047 6.65351 0
M  V30 30877 H 2943.73 -1.83437 3.80934 0
M  V30 30878 H 2941.45 -0.523074 8.06405 0
M  V30 30879 H 2945.04 -0.988741 5.73337 0
M  V30 30880 H 2943.92 -0.343167 7.83449 0
M  V30 30881 N 2941.42 -1.32452 -0.854063 0
M  V30 30882 C 2942.67 -1.23046 -1.60829 0
M  V30 30883 C 2942.99 0.207566 -1.93389 0
M  V30 30884 O 2942.25 1.16072 -1.57562 0
M  V30 30885 C 2942.55 -2.03592 -2.93743 0
M  V30 30886 C 2942.21 -3.52944 -2.80609 0
M  V30 30887 C 2940.88 -3.93664 -2.76735 0
M  V30 30888 C 2943.23 -4.47915 -2.66499 0
M  V30 30889 C 2940.56 -5.27597 -2.56629 0
M  V30 30890 C 2942.91 -5.81992 -2.47929 0
M  V30 30891 C 2941.57 -6.21913 -2.42447 0
M  V30 30892 H 2940.84 -0.450257 -0.588515 0
M  V30 30893 H 2943.49 -1.63884 -0.99067 0
M  V30 30894 H 2941.79 -1.55484 -3.59627 0
M  V30 30895 H 2943.49 -1.93683 -3.51124 0
M  V30 30896 H 2940.08 -3.20603 -2.8445 0
M  V30 30897 H 2944.26 -4.17375 -2.68537 0
M  V30 30898 H 2939.52 -5.57583 -2.50821 0
M  V30 30899 H 2943.69 -6.55196 -2.35991 0
M  V30 30900 H 2941.32 -7.25634 -2.26627 0
M  V30 30901 N 2942.9 1.07041 -1.15672 0
M  V30 30902 C 2943.81 2.17853 -0.870473 0
M  V30 30903 C 2944.82 1.73313 0.154422 0
M  V30 30904 O 2946 2.0139 -0.0204113 0
M  V30 30905 C 2943.06 3.44749 -0.367279 0
M  V30 30906 C 2942.13 4.03839 -1.45646 0
M  V30 30907 C 2941.36 5.24678 -0.977184 0
M  V30 30908 O 2941.58 5.70128 0.176027 0
M  V30 30909 O 2940.52 5.75524 -1.76225 0
M  V30 30910 H 2944.34 2.44836 -1.79692 0
M  V30 30911 H 2941.93 1.16438 -0.936085 0
M  V30 30912 H 2943.81 4.21297 -0.0932687 0
M  V30 30913 H 2942.48 3.19311 0.531254 0
M  V30 30914 H 2941.39 3.28816 -1.78412 0
M  V30 30915 H 2942.72 4.33556 -2.33002 0
M  V30 30916 N 2944.38 0.954014 1.25445 0
M  V30 30917 C 2945.34 0.478219 2.24156 0
M  V30 30918 C 2946.34 -0.417749 1.55279 0
M  V30 30919 O 2947.53 -0.215124 1.72867 0
M  V30 30920 C 2944.66 -0.309142 3.39495 0
M  V30 30921 H 2945.85 1.35069 2.67762 0
M  V30 30922 H 2943.41 0.737231 1.37821 0
M  V30 30923 H 2944.14 -1.19931 3.01309 0
M  V30 30924 H 2943.93 0.333631 3.90678 0
M  V30 30925 H 2945.42 -0.631521 4.12797 0
M  V30 30926 N 2945.85 -1.40063 0.722513 0
M  V30 30927 C 2946.78 -2.33329 0.0892862 0
M  V30 30928 C 2947.76 -1.53258 -0.737965 0
M  V30 30929 O 2948.95 -1.817 -0.685484 0
M  V30 30930 C 2946.08 -3.37283 -0.828079 0
M  V30 30931 C 2945.03 -4.27869 -0.10593 0
M  V30 30932 C 2944.36 -5.22417 -1.13948 0
M  V30 30933 C 2945.66 -5.11759 1.04404 0
M  V30 30934 H 2947.35 -2.86532 0.868319 0
M  V30 30935 H 2944.9 -1.37769 0.419006 0
M  V30 30936 H 2946.85 -4.01473 -1.28051 0
M  V30 30937 H 2945.58 -2.82492 -1.63909 0
M  V30 30938 H 2944.24 -3.65141 0.326747 0
M  V30 30939 H 2943.88 -4.63927 -1.94372 0
M  V30 30940 H 2943.58 -5.83869 -0.661131 0
M  V30 30941 H 2945.11 -5.89485 -1.59187 0
M  V30 30942 H 2946.52 -5.69364 0.670641 0
M  V30 30943 H 2944.92 -5.82289 1.4512 0
M  V30 30944 H 2945.99 -4.47328 1.87152 0
M  V30 30945 N 2947.33 -0.469207 -1.50453 0
M  V30 30946 C 2948.28 0.325941 -2.28487 0
M  V30 30947 C 2949.25 0.98887 -1.33456 0
M  V30 30948 O 2950.43 1.00167 -1.62392 0
M  V30 30949 C 2947.57 1.40307 -3.1529 0
M  V30 30950 C 2946.69 0.755108 -4.25349 0
M  V30 30951 C 2945.82 1.80997 -4.99413 0
M  V30 30952 C 2944.86 1.14215 -6.0135 0
M  V30 30953 N 2944 2.13978 -6.68698 0
M  V30 30954 H 2948.84 -0.345805 -2.95987 0
M  V30 30955 H 2946.37 -0.18238 -1.45965 0
M  V30 30956 H 2948.33 2.03921 -3.63967 0
M  V30 30957 H 2946.96 2.04401 -2.4984 0
M  V30 30958 H 2946.01 0.00645215 -3.80399 0
M  V30 30959 H 2947.33 0.227853 -4.98279 0
M  V30 30960 H 2946.48 2.52196 -5.51799 0
M  V30 30961 H 2945.22 2.37103 -4.26185 0
M  V30 30962 H 2944.22 0.41578 -5.48226 0
M  V30 30963 H 2945.45 0.588016 -6.76549 0
M  V30 30964 H 2943.4 2.69105 -5.98263 0
M  V30 30965 H 2943.31 1.66233 -7.37498 0
M  V30 30966 H 2944.58 2.84563 -7.25702 0
M  V30 30967 N 2948.81 1.56303 -0.201741 0
M  V30 30968 C 2949.74 2.15316 0.755938 0
M  V30 30969 C 2950.72 1.09177 1.20495 0
M  V30 30970 O 2951.9 1.37326 1.29127 0
M  V30 30971 C 2949.03 2.71743 2.02172 0
M  V30 30972 C 2948.08 3.90531 1.71429 0
M  V30 30973 S 2948.91 5.28606 0.856531 0
M  V30 30974 C 2950.07 5.88458 2.13231 0
M  V30 30975 H 2950.3 2.9621 0.254296 0
M  V30 30976 H 2947.83 1.54394 0.0133397 0
M  V30 30977 H 2949.79 3.04896 2.74862 0
M  V30 30978 H 2948.45 1.90877 2.49449 0
M  V30 30979 H 2947.64 4.28445 2.65425 0
M  V30 30980 H 2947.25 3.58422 1.06817 0
M  V30 30981 H 2949.54 6.03225 3.08424 0
M  V30 30982 H 2950.48 6.84909 1.79738 0
M  V30 30983 H 2950.89 5.17119 2.26381 0
M  V30 30984 N 2950.29 -0.0718147 1.57436 0
M  V30 30985 C 2951.53 -0.772116 1.87527 0
M  V30 30986 C 2951.87 -1.77226 0.794021 0
M  V30 30987 O 2951.14 -1.93513 -0.195699 0
M  V30 30988 C 2951.42 -1.48012 3.28275 0
M  V30 30989 C 2951.28 -0.496391 4.47053 0
M  V30 30990 C 2952.6 -2.42503 3.67261 0
M  V30 30991 H 2949.72 -0.279233 0.682054 0
M  V30 30992 H 2952.36 -0.0353066 1.89967 0
M  V30 30993 H 2950.51 -2.10818 3.26325 0
M  V30 30994 H 2952.18 0.126456 4.61127 0
M  V30 30995 H 2950.42 0.188282 4.33391 0
M  V30 30996 H 2951.09 -1.0294 5.42317 0
M  V30 30997 H 2953.57 -1.89774 3.70304 0
M  V30 30998 H 2952.45 -2.89045 4.66631 0
M  V30 30999 H 2952.71 -3.27307 2.97192 0
M  V30 31000 N 2951.77 -1.53818 -0.343203 0
M  V30 31001 C 2952.7 -1.84817 -1.42706 0
M  V30 31002 C 2953.68 -0.703324 -1.54879 0
M  V30 31003 O 2954.86 -0.955267 -1.69081 0
M  V30 31004 C 2951.99 -2.05806 -2.79752 0
M  V30 31005 C 2950.95 -3.21624 -2.82386 0
M  V30 31006 C 2950.27 -3.27947 -4.22321 0
M  V30 31007 C 2951.57 -4.59725 -2.47892 0
M  V30 31008 H 2953.27 -2.75587 -1.17013 0
M  V30 31009 H 2950.81 -1.32603 -0.561462 0
M  V30 31010 H 2952.76 -2.26076 -3.55623 0
M  V30 31011 H 2951.49 -1.11766 -3.06881 0
M  V30 31012 H 2950.15 -3.0121 -2.08968 0
M  V30 31013 H 2949.8 -2.31502 -4.4656 0
M  V30 31014 H 2949.5 -4.05776 -4.24994 0
M  V30 31015 H 2951.02 -3.50428 -5.00033 0
M  V30 31016 H 2952.43 -4.80006 -3.13475 0
M  V30 31017 H 2950.83 -5.39959 -2.61848 0
M  V30 31018 H 2951.9 -4.6331 -1.43079 0
M  V30 31019 N 2953.24 0.604233 -1.45557 0
M  V30 31020 C 2954.15 1.74297 -1.57028 0
M  V30 31021 C 2955.17 1.67957 -0.454589 0
M  V30 31022 O 2956.35 1.88253 -0.715745 0
M  V30 31023 C 2953.41 3.10765 -1.53707 0
M  V30 31024 C 2952.47 3.28533 -2.76341 0
M  V30 31025 C 2951.7 4.58491 -2.73169 0
M  V30 31026 O 2951.93 5.41025 -1.80687 0
M  V30 31027 O 2950.86 4.79044 -3.64418 0
M  V30 31028 H 2954.69 1.67569 -2.53287 0
M  V30 31029 H 2952.27 0.768722 -1.28105 0
M  V30 31030 H 2954.15 3.92066 -1.54475 0
M  V30 31031 H 2952.83 3.17977 -0.606013 0
M  V30 31032 H 2951.74 2.46808 -2.81134 0
M  V30 31033 H 2953.07 3.262 -3.68584 0
M  V30 31034 N 2954.72 1.32903 0.847027 0
M  V30 31035 C 2955.67 1.22477 1.95622 0
M  V30 31036 C 2956.64 0.105207 1.65766 0
M  V30 31037 O 2957.82 0.282075 1.88703 0
M  V30 31038 C 2954.96 0.9616 3.31432 0
M  V30 31039 C 2954.08 2.16667 3.73737 0
M  V30 31040 C 2953.21 1.83834 4.98376 0
M  V30 31041 C 2952.25 3.00618 5.33193 0
M  V30 31042 N 2951.39 2.67827 6.49009 0
M  V30 31043 H 2956.23 2.17348 2.03872 0
M  V30 31044 H 2953.76 1.0809 0.997745 0
M  V30 31045 H 2955.72 0.789484 4.09662 0
M  V30 31046 H 2954.35 0.0496505 3.22762 0
M  V30 31047 H 2953.4 2.44881 2.91097 0
M  V30 31048 H 2954.72 3.04 3.95456 0
M  V30 31049 H 2953.87 1.63218 5.84333 0
M  V30 31050 H 2952.61 0.937256 4.78609 0
M  V30 31051 H 2951.61 3.21857 4.45745 0
M  V30 31052 H 2952.84 3.9147 5.54913 0
M  V30 31053 H 2950.79 1.80269 6.30745 0
M  V30 31054 H 2950.7 3.4869 6.70784 0
M  V30 31055 H 2951.97 2.5066 7.38099 0
M  V30 31056 N 2956.2 -1.06426 1.16238 0
M  V30 31057 C 2957.45 -1.78586 0.937554 0
M  V30 31058 C 2957.76 -1.88114 -0.535967 0
M  V30 31059 O 2958.97 -2.56889 -0.878651 0
M  V30 31060 C 2957.42 -3.20967 1.62813 0
M  V30 31061 C 2957.03 -3.19609 3.13933 0
M  V30 31062 C 2958.78 -3.9767 1.48522 0
M  V30 31063 C 2956.68 -4.56702 3.75735 0
M  V30 31064 H 2955.61 -0.669337 0.347137 0
M  V30 31065 H 2958.26 -1.19383 1.39356 0
M  V30 31066 H 2956.65 -3.8042 1.09984 0
M  V30 31067 H 2957.82 -2.69747 3.73595 0
M  V30 31068 H 2956.13 -2.56405 3.28094 0
M  V30 31069 H 2958.73 -4.99009 1.92078 0
M  V30 31070 H 2959.07 -4.14032 0.433986 0
M  V30 31071 H 2959.61 -3.44736 1.985 0
M  V30 31072 H 2956.35 -4.45546 4.80801 0
M  V30 31073 H 2955.87 -5.06765 3.20858 0
M  V30 31074 H 2957.55 -5.25661 3.77213 0
M  V30 31075 N 2957.68 -0.960653 -1.24937 0
M  V30 31076 C 2958.93 -0.617475 -1.92436 0
M  V30 31077 C 2959.25 0.84907 -1.75544 0
M  V30 31078 O 2958.52 1.60536 -1.12271 0
M  V30 31079 H 2957.1 -0.225384 -0.712188 0
M  V30 31080 H 2959.76 -1.2202 -1.51978 0
M  V30 31081 H 2958.86 -0.851986 -3.00246 0
M  V30 31082 N 2959.16 1.39677 -0.729931 0
M  V30 31083 C 2960.4 2.00615 -0.275657 0
M  V30 31084 C 2960.73 1.57909 1.13557 0
M  V30 31085 O 2959.99 0.79682 1.78744 0
M  V30 31086 C 2960.29 3.55968 -0.319627 0
M  V30 31087 C 2959.95 4.18307 -1.68316 0
M  V30 31088 C 2958.61 4.35048 -2.05637 0
M  V30 31089 C 2960.97 4.5294 -2.57865 0
M  V30 31090 C 2958.29 4.8371 -3.32026 0
M  V30 31091 C 2960.65 5.03008 -3.83621 0
M  V30 31092 C 2959.31 5.17957 -4.21042 0
M  V30 31093 H 2958.58 0.734102 -0.10087 0
M  V30 31094 H 2961.23 1.67079 -0.93578 0
M  V30 31095 H 2959.53 3.89498 0.424072 0
M  V30 31096 H 2961.23 4.00969 0.04992 0
M  V30 31097 H 2957.82 4.05675 -1.38297 0
M  V30 31098 H 2962 4.3963 -2.30303 0
M  V30 31099 H 2957.26 4.93469 -3.60969 0
M  V30 31100 H 2961.43 5.28781 -4.53171 0
M  V30 31101 H 2959.06 5.55426 -5.19044 0
M  V30 31102 N 2960.63 0.47718 1.50202 0
M  V30 31103 C 2961.88 -0.0755534 2.01959 0
M  V30 31104 C 2962.2 -1.39666 1.36082 0
M  V30 31105 O 2961.47 -1.89194 0.508169 0
M  V30 31106 H 2960.05 -0.0309117 0.74636 0
M  V30 31107 H 2962.72 0.628991 1.84471 0
M  V30 31108 H 2961.81 -0.222628 3.11305 0
M  V30 31109 N 2962.11 -1.56194 0.210027 0
M  V30 31110 C 2963.39 -1.8979 -0.473181 0
M  V30 31111 C 2963.77 -1.12573 -1.78579 0
M  V30 31112 O 2963.12 -0.231438 -2.27325 0
M  V30 31113 C 2963.33 -3.42363 -0.677397 0
M  V30 31114 C 2964.68 -4.12896 -0.990041 0
M  V30 31115 O 2965.7 -3.47897 -0.764594 0
M  V30 31116 O 2964.56 -5.27802 -1.41728 0
M  V30 31117 H 2961.65 -0.788748 -0.248608 0
M  V30 31118 H 2964.2 -1.67828 0.251354 0
M  V30 31119 H 2962.97 -3.90507 0.248947 0
M  V30 31120 H 2962.59 -3.70066 -1.45384 0
M  V30 31121 N 2963.59 0.0634645 -1.57472 0
M  V30 31122 C 2965.01 0.418439 -1.54017 0
M  V30 31123 C 2965.21 1.78681 -0.931407 0
M  V30 31124 O 2964.26 2.46713 -0.537508 0
M  V30 31125 C 2965.58 0.351854 -2.98634 0
M  V30 31126 C 2967.12 0.431439 -3.10012 0
M  V30 31127 C 2967.6 0.394673 -4.56296 0
M  V30 31128 N 2969.09 0.454502 -4.60965 0
M  V30 31129 C 2969.82 0.448401 -5.71644 0
M  V30 31130 N 2969.32 0.39662 -6.91664 0
M  V30 31131 N 2971.11 0.495579 -5.59911 0
M  V30 31132 H 2963.26 -0.832442 -1.95408 0
M  V30 31133 H 2965.53 -0.313212 -0.894764 0
M  V30 31134 H 2965.23 -0.587109 -3.46765 0
M  V30 31135 H 2965.11 1.15887 -3.58957 0
M  V30 31136 H 2967.49 1.36083 -2.6185 0
M  V30 31137 H 2967.58 -0.404303 -2.52585 0
M  V30 31138 H 2967.22 -0.5309 -5.05118 0
M  V30 31139 H 2967.15 1.24806 -5.11597 0
M  V30 31140 H 2969.64 0.49843 -3.74599 0
M  V30 31141 H 2969.95 0.39612 -7.71784 0
M  V30 31142 H 2968.3 0.363182 -6.9405 0
M  V30 31143 H 2971.49 0.533782 -4.65047 0
M  V30 31144 H 2971.66 0.487355 -6.46165 0
M  V30 31145 N 2965.07 1.53998 0.33504 0
M  V30 31146 C 2966.31 1.71907 1.07591 0
M  V30 31147 C 2966.65 0.485297 1.88039 0
M  V30 31148 O 2965.92 -0.51772 1.87483 0
M  V30 31149 C 2966.21 2.98775 2.01011 0
M  V30 31150 C 2966.06 4.32379 1.23969 0
M  V30 31151 C 2967.38 3.21348 3.00705 0
M  V30 31152 H 2964.5 0.625511 0.389749 0
M  V30 31153 H 2967.14 1.8668 0.353651 0
M  V30 31154 H 2965.29 2.86312 2.62598 0
M  V30 31155 H 2966.96 4.56708 0.649303 0
M  V30 31156 H 2965.2 4.30403 0.541803 0
M  V30 31157 H 2965.87 5.17346 1.92503 0
M  V30 31158 H 2968.35 3.33199 2.49235 0
M  V30 31159 H 2967.23 4.11497 3.63265 0
M  V30 31160 H 2967.49 2.3804 3.72545 0
M  V30 31161 N 2966.55 -0.596505 1.45875 0
M  V30 31162 C 2967.82 -1.35625 1.40944 0
M  V30 31163 C 2968.2 -2.10926 0.0857437 0
M  V30 31164 O 2967.55 -2.08606 -0.932507 0
M  V30 31165 C 2967.76 -2.29381 2.63031 0
M  V30 31166 C 2969.11 -2.91643 3.08593 0
M  V30 31167 O 2970.13 -2.39699 2.63482 0
M  V30 31168 O 2968.99 -3.85958 3.86909 0
M  V30 31169 H 2966.09 -0.608686 0.559849 0
M  V30 31170 H 2968.63 -0.61867 1.58021 0
M  V30 31171 H 2967.4 -1.73074 3.50943 0
M  V30 31172 H 2967.03 -3.10501 2.48344 0
M  V30 31173 N 2968.02 -1.3335 -0.839967 0
M  V30 31174 C 2969.25 -1.27596 -1.6249 0
M  V30 31175 C 2969.66 0.155564 -1.88559 0
M  V30 31176 O 2969.01 1.1078 -1.46539 0
M  V30 31177 C 2969.07 -1.98121 -2.9998 0
M  V30 31178 C 2968.73 -3.4743 -2.96886 0
M  V30 31179 C 2969.73 -4.42653 -2.7268 0
M  V30 31180 C 2967.41 -3.8959 -3.17056 0
M  V30 31181 C 2969.41 -5.78009 -2.68671 0
M  V30 31182 C 2967.09 -5.25051 -3.12673 0
M  V30 31183 C 2968.09 -6.19072 -2.88511 0
M  V30 31184 O 2967.78 -7.52052 -2.84029 0
M  V30 31185 H 2967.51 -0.440991 -0.512351 0
M  V30 31186 H 2970.07 -1.76267 -1.05447 0
M  V30 31187 H 2968.3 -1.4404 -3.58872 0
M  V30 31188 H 2969.99 -1.85881 -3.60837 0
M  V30 31189 H 2970.75 -4.11405 -2.56849 0
M  V30 31190 H 2966.63 -3.16818 -3.34884 0
M  V30 31191 H 2970.17 -6.51368 -2.49732 0
M  V30 31192 H 2966.07 -5.55924 -3.28053 0
M  V30 31193 H 2966.84 -7.61587 -2.99879 0
M  V30 31194 N 2969.5 1.05808 -1.16801 0
M  V30 31195 C 2970.75 1.78086 -0.947012 0
M  V30 31196 C 2971.06 1.88395 0.525983 0
M  V30 31197 O 2972.27 2.57351 0.865016 0
M  V30 31198 C 2970.73 3.20099 -1.64513 0
M  V30 31199 C 2970.33 3.1794 -3.15623 0
M  V30 31200 C 2972.08 3.96877 -1.50629 0
M  V30 31201 C 2969.99 4.54703 -3.78152 0
M  V30 31202 H 2968.92 0.667487 -0.350681 0
M  V30 31203 H 2971.57 1.18642 -1.39987 0
M  V30 31204 H 2969.95 3.79832 -1.12 0
M  V30 31205 H 2971.12 2.67762 -3.7502 0
M  V30 31206 H 2969.44 2.54662 -3.29449 0
M  V30 31207 H 2972.03 4.97983 -1.94722 0
M  V30 31208 H 2972.38 4.13796 -0.455937 0
M  V30 31209 H 2972.91 3.43678 -2.00325 0
M  V30 31210 H 2969.65 4.4299 -4.83157 0
M  V30 31211 H 2969.17 5.05056 -3.23541 0
M  V30 31212 H 2970.85 5.23653 -3.79995 0
M  V30 31213 N 2970.98 0.967265 1.24426 0
M  V30 31214 C 2972.26 0.545809 1.8783 0
M  V30 31215 C 2972.64 -0.977066 1.87127 0
M  V30 31216 O 2971.99 -1.84823 1.3436 0
M  V30 31217 C 2972.2 1.13684 3.29965 0
M  V30 31218 C 2973.54 1.22147 4.06651 0
M  V30 31219 O 2974.57 1.08932 3.39134 0
M  V30 31220 O 2973.43 1.43027 5.27452 0
M  V30 31221 H 2970.52 0.181926 0.806741 0
M  V30 31222 H 2973.07 1.06151 1.32401 0
M  V30 31223 H 2971.84 2.17963 3.24973 0
M  V30 31224 H 2971.46 0.605163 3.92968 0
M  V30 31225 N 2972.46 -1.39288 0.737328 0
M  V30 31226 C 2973.69 -2.04466 0.296178 0
M  V30 31227 C 2974.1 -1.55709 -1.07477 0
M  V30 31228 O 2973.44 -0.718153 -1.69081 0
M  V30 31229 C 2973.5 -3.58813 0.222224 0
M  V30 31230 C 2973.17 -4.30556 1.53202 0
M  V30 31231 C 2974.16 -4.57037 2.47817 0
M  V30 31232 C 2971.85 -4.69057 1.79696 0
M  V30 31233 C 2973.84 -5.21032 3.67157 0
M  V30 31234 C 2971.53 -5.3278 2.99313 0
M  V30 31235 C 2972.53 -5.58701 3.92865 0
M  V30 31236 O 2972.22 -6.21101 5.10381 0
M  V30 31237 H 2971.95 -0.663981 0.126908 0
M  V30 31238 H 2974.5 -1.79276 1.00245 0
M  V30 31239 H 2972.73 -3.82909 -0.540172 0
M  V30 31240 H 2974.42 -4.05468 -0.18724 0
M  V30 31241 H 2975.19 -4.27736 2.28619 0
M  V30 31242 H 2971.07 -4.48237 1.07723 0
M  V30 31243 H 2974.61 -5.41181 4.40192 0
M  V30 31244 H 2970.51 -5.61502 3.18411 0
M  V30 31245 H 2971.27 -6.39594 5.10746 0
M  V30 31246 N 2973.94 -0.485139 -1.49947 0
M  V30 31247 C 2974.87 0.291323 -2.31676 0
M  V30 31248 C 2975.85 0.977359 -1.39218 0
M  V30 31249 O 2977.03 0.971825 -1.68134 0
M  V30 31250 C 2974.16 1.36552 -3.19329 0
M  V30 31251 C 2973.12 0.800285 -4.20451 0
M  V30 31252 C 2972.44 1.97382 -4.96935 0
M  V30 31253 C 2973.74 -0.197959 -5.21925 0
M  V30 31254 H 2975.44 -0.390827 -2.96838 0
M  V30 31255 H 2972.98 -0.189401 -1.42749 0
M  V30 31256 H 2974.94 1.91631 -3.75307 0
M  V30 31257 H 2973.66 2.07664 -2.52078 0
M  V30 31258 H 2972.32 0.271364 -3.65594 0
M  V30 31259 H 2971.97 2.67225 -4.26145 0
M  V30 31260 H 2971.67 1.60177 -5.65347 0
M  V30 31261 H 2973.19 2.52925 -5.55753 0
M  V30 31262 H 2974.61 0.264138 -5.72691 0
M  V30 31263 H 2973 -0.485014 -5.98137 0
M  V30 31264 H 2974.07 -1.1192 -4.71807 0
M  V30 31265 N 2975.42 1.56081 -0.218307 0
M  V30 31266 C 2976.36 2.2151 0.70964 0
M  V30 31267 C 2977.36 1.19348 1.20219 0
M  V30 31268 O 2978.56 1.37436 1.16239 0
M  V30 31269 H 2974.94 0.710188 0.247258 0
M  V30 31270 H 2976.91 2.98097 0.134334 0
M  V30 31271 C 2975.66 2.90641 1.90848 0
M  V30 31272 H 2974.98 3.69009 1.53859 0
M  V30 31273 H 2976.42 3.39827 2.53562 0
M  V30 31274 C 2974.88 1.92934 2.76185 0
M  V30 31275 O 2975.41 1.44423 3.7484 0
M  V30 31276 N 2973.62 1.60654 2.42154 0
M  V30 31277 H 2973.16 2.00297 1.61984 0
M  V30 31278 H 2973.12 0.9554 2.99532 0
M  V30 31279 N 2976.89 -0.0551124 1.57504 0
M  V30 31280 C 2977.84 -1.07097 2.01282 0
M  V30 31281 C 2978.83 -1.33535 0.897616 0
M  V30 31282 O 2980.02 -1.33556 1.16154 0
M  V30 31283 C 2977.15 -2.3799 2.47418 0
M  V30 31284 C 2976.23 -2.14754 3.65707 0
M  V30 31285 N 2976.63 -1.61495 4.79325 0
M  V30 31286 C 2974.92 -2.45156 3.72578 0
M  V30 31287 C 2975.62 -1.53462 5.61092 0
M  V30 31288 N 2974.6 -2.00105 5.05429 0
M  V30 31289 H 2978.4 -0.652778 2.86559 0
M  V30 31290 H 2975.92 -0.261902 1.60274 0
M  V30 31291 H 2977.91 -3.11546 2.77028 0
M  V30 31292 H 2976.57 -2.80511 1.63535 0
M  V30 31293 H 2977.58 -1.30125 5.01286 0
M  V30 31294 H 2974.26 -2.90929 2.99444 0
M  V30 31295 H 2975.65 -1.12996 6.6233 0
M  V30 31296 N 2978.37 -1.54173 -0.326869 0
M  V30 31297 C 2979.6 -1.76496 -1.08921 0
M  V30 31298 C 2980.02 -0.510555 -1.81039 0
M  V30 31299 O 2979.38 0.537725 -1.73142 0
M  V30 31300 C 2979.43 -2.95581 -2.06553 0
M  V30 31301 O 2978.53 -2.66896 -3.14389 0
M  V30 31302 H 2977.87 -0.584954 -0.314205 0
M  V30 31303 H 2980.4 -2.01187 -0.372172 0
M  V30 31304 H 2980.41 -3.22836 -2.49481 0
M  V30 31305 H 2979.09 -3.86552 -1.53462 0
M  V30 31306 H 2977.66 -2.5058 -2.76159 0
M  V30 31307 N 2979.85 0.58876 -1.4619 0
M  V30 31308 C 2980.8 1.69301 -1.52713 0
M  V30 31309 C 2981.78 1.56137 -0.388606 0
M  V30 31310 O 2982.98 1.65154 -0.636645 0
M  V30 31311 C 2980.1 3.08081 -1.51463 0
M  V30 31312 C 2979.19 3.26563 -2.70587 0
M  V30 31313 N 2979.58 3.15229 -3.95556 0
M  V30 31314 C 2977.88 3.57486 -2.66682 0
M  V30 31315 C 2978.58 3.35552 -4.75163 0
M  V30 31316 N 2977.56 3.60425 -4.06933 0
M  V30 31317 H 2981.36 1.59059 -2.47139 0
M  V30 31318 H 2978.87 0.792608 -1.41744 0
M  V30 31319 H 2980.87 3.87325 -1.54223 0
M  V30 31320 H 2979.53 3.19458 -0.581092 0
M  V30 31321 H 2980.54 2.93225 -4.26895 0
M  V30 31322 H 2977.22 3.75585 -1.82324 0
M  V30 31323 H 2978.61 3.32024 -5.84132 0
M  V30 31324 N 2981.33 1.33794 0.832883 0
M  V30 31325 C 2982.28 1.21108 1.93176 0
M  V30 31326 C 2983.26 0.112519 1.60506 0
M  V30 31327 O 2984.45 0.34121 1.7368 0
M  V30 31328 C 2981.58 0.958584 3.29645 0
M  V30 31329 C 2980.67 2.09986 3.68465 0
M  V30 31330 N 2981.06 3.35031 3.7893 0
M  V30 31331 C 2979.36 2.00789 3.98246 0
M  V30 31332 C 2980.06 4.09919 4.12724 0
M  V30 31333 N 2979.03 3.38415 4.25413 0
M  V30 31334 H 2982.84 2.15881 1.9943 0
M  V30 31335 H 2980.35 1.25888 1.02596 0
M  V30 31336 H 2982.35 0.848624 4.08172 0
M  V30 31337 H 2981.01 0.019444 3.24694 0
M  V30 31338 H 2982.02 3.69706 3.62682 0
M  V30 31339 H 2978.7 1.14571 4.01472 0
M  V30 31340 H 2980.09 5.17854 4.28108 0
M  V30 31341 N 2982.81 -1.05187 1.1736 0
M  V30 31342 C 2983.74 -2.14881 0.913687 0
M  V30 31343 C 2984.72 -1.69487 -0.144335 0
M  V30 31344 O 2985.9 -1.94199 0.00591275 0
M  V30 31345 C 2983.03 -3.44674 0.426257 0
M  V30 31346 C 2981.99 -4.03635 1.42347 0
M  V30 31347 C 2981.31 -5.28772 0.793995 0
M  V30 31348 C 2982.61 -4.41116 2.79667 0
M  V30 31349 H 2984.31 -2.36882 1.83104 0
M  V30 31350 H 2981.85 -1.13843 0.881801 0
M  V30 31351 H 2983.8 -4.20762 0.231841 0
M  V30 31352 H 2982.53 -3.22326 -0.526637 0
M  V30 31353 H 2981.19 -3.29617 1.60463 0
M  V30 31354 H 2980.84 -5.02727 -0.165735 0
M  V30 31355 H 2980.54 -5.69181 1.45969 0
M  V30 31356 H 2982.06 -6.07547 0.609854 0
M  V30 31357 H 2983.47 -5.08237 2.65269 0
M  V30 31358 H 2981.87 -4.92542 3.42815 0
M  V30 31359 H 2982.94 -3.51458 3.34074 0
M  V30 31360 N 2984.28 -0.97385 -1.23911 0
M  V30 31361 C 2985.51 -0.655973 -1.9591 0
M  V30 31362 C 2985.92 0.779937 -1.72376 0
M  V30 31363 O 2985.26 1.53568 -1.0081 0
M  V30 31364 C 2985.33 -0.858385 -3.49102 0
M  V30 31365 C 2984.99 -2.27511 -3.96343 0
M  V30 31366 C 2985.99 -3.25331 -4.05532 0
M  V30 31367 C 2983.67 -2.60445 -4.29504 0
M  V30 31368 C 2985.67 -4.54168 -4.47225 0
M  V30 31369 C 2983.35 -3.89507 -4.7088 0
M  V30 31370 C 2984.35 -4.8618 -4.79706 0
M  V30 31371 O 2984.04 -6.12939 -5.20155 0
M  V30 31372 H 2983.77 -0.243255 -0.630716 0
M  V30 31373 H 2986.33 -1.30602 -1.58531 0
M  V30 31374 H 2984.56 -0.151165 -3.86404 0
M  V30 31375 H 2986.24 -0.538663 -4.0231 0
M  V30 31376 H 2987.01 -3.01217 -3.80123 0
M  V30 31377 H 2982.89 -1.85913 -4.2185 0
M  V30 31378 H 2986.43 -5.29626 -4.54029 0
M  V30 31379 H 2982.33 -4.13419 -4.95737 0
M  V30 31380 H 2983.1 -6.16595 -5.38287 0
M  V30 31381 N 2985.76 1.38895 -0.744705 0
M  V30 31382 C 2986.71 2.30532 -0.111104 0
M  V30 31383 C 2987.68 1.4972 0.719249 0
M  V30 31384 O 2988.86 1.78377 0.677213 0
M  V30 31385 C 2986 3.36103 0.782861 0
M  V30 31386 C 2985.12 4.31957 -0.0611576 0
M  V30 31387 C 2984.25 5.24596 0.834983 0
M  V30 31388 C 2983.29 6.12099 -0.013205 0
M  V30 31389 N 2982.43 6.97064 0.839403 0
M  V30 31390 H 2987.27 2.84143 -0.898163 0
M  V30 31391 H 2984.8 1.39901 -0.454561 0
M  V30 31392 H 2986.76 3.9591 1.31571 0
M  V30 31393 H 2985.39 2.83925 1.5358 0
M  V30 31394 H 2984.44 3.73686 -0.711535 0
M  V30 31395 H 2985.76 4.93626 -0.716569 0
M  V30 31396 H 2984.91 5.89477 1.43532 0
M  V30 31397 H 2983.65 4.63272 1.52415 0
M  V30 31398 H 2982.65 5.46221 -0.626275 0
M  V30 31399 H 2983.88 6.7549 -0.6993 0
M  V30 31400 H 2981.83 6.38297 1.51368 0
M  V30 31401 H 2981.74 7.55617 0.24069 0
M  V30 31402 H 2983.01 7.66364 1.42499 0
M  V30 31403 N 2987.24 0.493084 1.49688 0
M  V30 31404 C 2988.19 -0.303343 2.30614 0
M  V30 31405 C 2989.18 -0.970141 1.38869 0
M  V30 31406 O 2990.39 -0.898733 1.55958 0
M  V30 31407 H 2986.76 -0.116678 0.742893 0
M  V30 31408 H 2988.73 0.399292 2.95716 0
M  V30 31409 C 2987.48 -1.35973 3.20011 0
M  V30 31410 H 2986.81 -0.856034 3.90528 0
M  V30 31411 H 2988.25 -1.88912 3.79589 0
M  V30 31412 C 2986.71 -2.37362 2.39083 0
M  V30 31413 O 2987.24 -3.43085 2.08939 0
M  V30 31414 N 2985.44 -2.09632 2.01253 0
M  V30 31415 H 2984.99 -1.23678 2.25968 0
M  V30 31416 H 2984.95 -2.77699 1.47412 0
M  V30 31417 N 2988.72 -1.55963 0.226582 0
M  V30 31418 C 2989.67 -2.2051 -0.681465 0
M  V30 31419 C 2990.64 -1.16231 -1.18658 0
M  V30 31420 O 2991.82 -1.44605 -1.24475 0
M  V30 31421 C 2988.96 -2.8928 -1.88178 0
M  V30 31422 C 2988.07 -4.08165 -1.4151 0
M  V30 31423 C 2987.21 -4.64705 -2.57338 0
M  V30 31424 C 2986.25 -5.75881 -2.07431 0
M  V30 31425 N 2985.38 -6.2669 -3.1655 0
M  V30 31426 H 2990.22 -2.97741 -0.124319 0
M  V30 31427 H 2987.76 -1.47016 -0.0496074 0
M  V30 31428 H 2989.72 -3.27339 -2.5866 0
M  V30 31429 H 2988.35 -2.14559 -2.41173 0
M  V30 31430 H 2987.4 -3.75558 -0.605033 0
M  V30 31431 H 2988.71 -4.88484 -1.00919 0
M  V30 31432 H 2987.87 -5.05233 -3.35894 0
M  V30 31433 H 2986.61 -3.8356 -3.0122 0
M  V30 31434 H 2985.61 -5.34851 -1.27338 0
M  V30 31435 H 2986.84 -6.58865 -1.64542 0
M  V30 31436 H 2984.78 -5.48457 -3.59904 0
M  V30 31437 H 2984.7 -7.02146 -2.80226 0
M  V30 31438 H 2985.97 -6.71875 -3.95226 0
M  V30 31439 N 2990.2 0.0467589 -1.57531 0
M  V30 31440 C 2991.45 0.740036 -1.87634 0
M  V30 31441 C 2991.76 1.77456 -0.822722 0
M  V30 31442 O 2992.96 2.51918 -1.0124 0
M  V30 31443 C 2991.42 1.36721 -3.32919 0
M  V30 31444 C 2991.03 0.369956 -4.4647 0
M  V30 31445 C 2992.77 2.04139 -3.72193 0
M  V30 31446 C 2990.68 1.00447 -5.82807 0
M  V30 31447 H 2989.61 0.280146 -0.700025 0
M  V30 31448 H 2992.26 -0.00610376 -1.83499 0
M  V30 31449 H 2990.64 2.16246 -3.31743 0
M  V30 31450 H 2991.82 -0.397298 -4.59084 0
M  V30 31451 H 2990.13 -0.201152 -4.15914 0
M  V30 31452 H 2992.73 2.52433 -4.71362 0
M  V30 31453 H 2993.07 2.85187 -3.03273 0
M  V30 31454 H 2993.6 1.31413 -3.75467 0
M  V30 31455 H 2990.34 0.233791 -6.55083 0
M  V30 31456 H 2989.86 1.74198 -5.73947 0
M  V30 31457 H 2991.54 1.51702 -6.28964 0
M  V30 31458 N 2991.67 1.54344 0.318688 0
M  V30 31459 C 2992.9 1.76496 1.07391 0
M  V30 31460 C 2993.31 0.515913 1.8203 0
M  V30 31461 O 2992.66 -0.523219 1.76091 0
M  V30 31462 C 2992.72 2.90778 2.11396 0
M  V30 31463 C 2992.38 4.2951 1.56111 0
M  V30 31464 C 2993.38 5.10185 1.00034 0
M  V30 31465 C 2991.06 4.76066 1.60207 0
M  V30 31466 C 2993.06 6.3553 0.487881 0
M  V30 31467 C 2990.74 6.01378 1.08574 0
M  V30 31468 C 2991.74 6.80944 0.529594 0
M  V30 31469 O 2991.43 8.03897 0.021041 0
M  V30 31470 H 2991.16 0.592721 0.325051 0
M  V30 31471 H 2993.72 2.02059 0.368974 0
M  V30 31472 H 2991.95 2.60798 2.85519 0
M  V30 31473 H 2993.64 3.00668 2.72678 0
M  V30 31474 H 2994.4 4.75369 0.961727 0
M  V30 31475 H 2990.28 4.14176 2.02434 0
M  V30 31476 H 2993.82 6.9758 0.0531382 0
M  V30 31477 H 2989.72 6.35684 1.12144 0
M  V30 31478 H 2990.49 8.18387 0.136007 0
M  V30 31479 N 2993.15 -0.580999 1.465 0
M  V30 31480 C 2994.39 -1.35018 1.53459 0
M  V30 31481 C 2994.76 -1.9113 0.182575 0
M  V30 31482 O 2995.96 -2.685 0.126921 0
M  V30 31483 C 2994.23 -2.44808 2.60392 0
M  V30 31484 S 2995.79 -3.32129 2.86768 0
M  V30 31485 H 2992.61 -0.459972 0.542168 0
M  V30 31486 H 2995.21 -0.667722 1.83744 0
M  V30 31487 H 2993.91 -2.01979 3.57257 0
M  V30 31488 H 2993.44 -3.17823 2.31844 0
M  V30 31489 H 2995.46 -4.43684 2.22168 0
M  V30 31490 N 2994.63 -1.34234 -0.825776 0
M  V30 31491 C 2995.88 -1.26617 -1.58417 0
M  V30 31492 C 2996.21 0.164307 -1.93504 0
M  V30 31493 O 2995.48 1.10897 -1.59787 0
M  V30 31494 C 2995.77 -2.15423 -2.88557 0
M  V30 31495 C 2995.62 -3.66994 -2.60068 0
M  V30 31496 C 2996.94 -2.03733 -3.90104 0
M  V30 31497 H 2994.06 -0.461292 -0.574786 0
M  V30 31498 H 2996.7 -1.64459 -0.95149 0
M  V30 31499 H 2994.85 -1.83281 -3.4255 0
M  V30 31500 H 2996.52 -4.09489 -2.12407 0
M  V30 31501 H 2994.77 -3.88224 -1.93558 0
M  V30 31502 H 2995.44 -4.24494 -3.52858 0
M  V30 31503 H 2997.91 -2.31948 -3.45455 0
M  V30 31504 H 2996.79 -2.681 -4.78971 0
M  V30 31505 H 2997.05 -1.01345 -4.30327 0
M  V30 31506 N 2996.11 1.04563 -1.17917 0
M  V30 31507 C 2997.06 2.1246 -0.901642 0
M  V30 31508 C 2998.03 1.65357 0.156982 0
M  V30 31509 O 2999.21 1.90791 0.0184158 0
M  V30 31510 C 2996.35 3.42435 -0.42802 0
M  V30 31511 C 2995.46 4.03178 -1.55149 0
M  V30 31512 C 2994.6 5.21097 -1.0311 0
M  V30 31513 C 2993.64 5.73859 -2.1296 0
M  V30 31514 N 2992.77 6.83071 -1.62351 0
M  V30 31515 H 2997.61 2.35537 -1.82555 0
M  V30 31516 H 2995.15 1.15542 -0.910409 0
M  V30 31517 H 2997.11 4.16982 -0.134932 0
M  V30 31518 H 2995.74 3.19521 0.458921 0
M  V30 31519 H 2994.79 3.26008 -1.96017 0
M  V30 31520 H 2996.1 4.38371 -2.37976 0
M  V30 31521 H 2995.26 6.02738 -0.692238 0
M  V30 31522 H 2994 4.87395 -0.172356 0
M  V30 31523 H 2993 4.90843 -2.47696 0
M  V30 31524 H 2994.23 6.09606 -2.99261 0
M  V30 31525 H 2992.17 6.51255 -0.787578 0
M  V30 31526 H 2992.09 7.17301 -2.38779 0
M  V30 31527 H 2993.36 7.68349 -1.31377 0
M  V30 31528 N 2997.59 0.980408 1.23393 0
M  V30 31529 C 2998.83 0.648012 1.91429 0
M  V30 31530 C 2999.16 -0.821035 1.76873 0
M  V30 31531 O 2998.43 -1.5873 1.14811 0
M  V30 31532 H 2997.01 0.236685 0.708512 0
M  V30 31533 H 2999.67 1.24422 1.50017 0
M  V30 31534 H 2998.76 0.899645 2.98852 0
M  V30 31535 N 2999.06 -1.38498 0.75206 0
M  V30 31536 C 3000.31 -1.99756 0.306931 0
M  V30 31537 C 3000.63 -1.59994 -1.11476 0
M  V30 31538 O 2999.9 -0.856076 -1.76205 0
M  V30 31539 H 2998.48 -0.738783 0.110493 0
M  V30 31540 H 3001.15 -1.69287 0.965815 0
M  V30 31541 H 3000.24 -3.09913 0.368851 0
M  V30 31542 N 3000.54 -0.501015 -1.49424 0
M  V30 31543 C 3001.48 0.324047 -2.25888 0
M  V30 31544 C 3002.45 0.970365 -1.30471 0
M  V30 31545 O 3003.64 1.00046 -1.59759 0
M  V30 31546 C 3000.76 1.45638 -3.0579 0
M  V30 31547 C 2999.81 0.924435 -4.16361 0
M  V30 31548 S 3000.64 -0.184801 -5.35181 0
M  V30 31549 C 3001.8 0.950697 -6.18638 0
M  V30 31550 H 3002.03 -0.324943 -2.95519 0
M  V30 31551 H 2999.57 -0.286315 -1.51722 0
M  V30 31552 H 3001.52 2.10518 -3.52409 0
M  V30 31553 H 3000.18 2.07698 -2.35627 0
M  V30 31554 H 2999.38 1.77302 -4.71784 0
M  V30 31555 H 2998.98 0.352841 -3.72332 0
M  V30 31556 H 3001.27 1.85592 -6.51584 0
M  V30 31557 H 3002.21 0.435087 -7.06762 0
M  V30 31558 H 3002.62 1.21804 -5.51202 0
M  V30 31559 N 3002.02 1.5584 -0.234849 0
M  V30 31560 C 3003.43 1.84729 0.270556 0
M  V30 31561 C 3003.78 1.15649 1.58492 0
M  V30 31562 O 3002.91 0.430704 2.12071 0
M  V30 31563 C 3003.5 3.35125 0.497674 0
M  V30 31564 C 3002.06 3.64283 0.947364 0
M  V30 31565 C 3001.21 2.77294 0.0178213 0
M  V30 31566 H 3004.16 1.51956 -0.457718 0
M  V30 31567 H 3004.18 3.56052 1.34192 0
M  V30 31568 H 3003.69 3.85375 -0.459105 0
M  V30 31569 H 3001.79 3.195 1.91703 0
M  V30 31570 H 3001.91 4.72159 0.812568 0
M  V30 31571 H 3000.27 2.49188 0.527028 0
M  V30 31572 H 3001.05 3.30347 -0.934114 0
M  V30 31573 N 3003.5 -0.038404 1.57553 0
M  V30 31574 C 3004.72 -0.746838 1.93487 0
M  V30 31575 C 3005.15 -1.68595 0.834099 0
M  V30 31576 O 3004.51 -1.8007 -0.21087 0
M  V30 31577 C 3004.56 -1.48805 3.28465 0
M  V30 31578 O 3003.66 -2.60074 3.20055 0
M  V30 31579 H 3003 -0.201528 0.632679 0
M  V30 31580 H 3005.53 0.00333411 2.046 0
M  V30 31581 H 3005.54 -1.86003 3.63135 0
M  V30 31582 H 3004.22 -0.799225 4.08149 0
M  V30 31583 H 3002.79 -2.25487 2.97002 0
M  V30 31584 N 3004.98 -1.54511 -0.310498 0
M  V30 31585 C 3006.23 -1.72998 -1.04481 0
M  V30 31586 C 3006.55 -0.513512 -1.88117 0
M  V30 31587 O 3005.82 0.47235 -1.9012 0
M  V30 31588 H 3004.4 -0.637882 -0.388735 0
M  V30 31589 H 3007.06 -1.91844 -0.343777 0
M  V30 31590 H 3006.15 -2.61518 -1.70336 0
M  V30 31591 N 3006.46 0.573222 -1.46806 0
M  V30 31592 C 3007.7 1.34202 -1.54172 0
M  V30 31593 C 3008.06 1.9103 -0.192709 0
M  V30 31594 O 3009.26 2.68429 -0.141159 0
M  V30 31595 C 3007.53 2.43424 -2.61686 0
M  V30 31596 S 3009.09 3.30604 -2.88525 0
M  V30 31597 H 3005.91 0.457091 -0.5446 0
M  V30 31598 H 3008.51 0.657968 -1.84095 0
M  V30 31599 H 3007.21 2.00082 -3.58323 0
M  V30 31600 H 3006.75 3.16589 -2.33527 0
M  V30 31601 H 3008.76 4.425 -2.24518 0
M  V30 31602 N 3007.93 1.3467 0.818645 0
M  V30 31603 C 3009.16 1.30508 1.61191 0
M  V30 31604 C 3009.58 -0.117308 1.87734 0
M  V30 31605 O 3008.94 -1.08039 1.45592 0
M  V30 31606 C 3008.99 2.10575 2.92729 0
M  V30 31607 O 3008.09 1.4782 3.84997 0
M  V30 31608 H 3007.43 0.448019 0.490077 0
M  V30 31609 H 3009.96 1.77535 1.01697 0
M  V30 31610 H 3009.97 2.22088 3.42258 0
M  V30 31611 H 3008.65 3.13988 2.72735 0
M  V30 31612 H 3007.23 1.45075 3.43522 0
M  V30 31613 N 3009.41 -1.03936 1.1847 0
M  V30 31614 C 3010.66 -1.76809 0.978926 0
M  V30 31615 C 3010.98 -1.88677 -0.492537 0
M  V30 31616 O 3010.25 -1.41271 -1.35717 0
M  V30 31617 H 3008.83 -0.654962 0.359213 0
M  V30 31618 H 3011.49 -1.25431 1.49175 0
M  V30 31619 H 3010.59 -2.78025 1.41805 0
M  V30 31620 N 3010.89 -0.986938 -1.22871 0
M  V30 31621 C 3012.12 -0.677697 -1.95486 0
M  V30 31622 C 3012.53 0.756542 -1.72979 0
M  V30 31623 O 3011.89 1.50983 -1.0252 0
M  V30 31624 C 3011.94 -0.966699 -3.48335 0
M  V30 31625 O 3011.66 -2.34457 -3.70083 0
M  V30 31626 C 3013.16 -0.674325 -4.38141 0
M  V30 31627 H 3010.38 -0.251196 -0.622207 0
M  V30 31628 H 3012.93 -1.32009 -1.56185 0
M  V30 31629 H 3011.08 -0.370205 -3.85627 0
M  V30 31630 H 3011.5 -2.43926 -4.64328 0
M  V30 31631 H 3012.97 -0.926854 -5.44163 0
M  V30 31632 H 3013.45 0.391652 -4.3745 0
M  V30 31633 H 3014.05 -1.2516 -4.06467 0
M  V30 31634 N 3012.37 1.38098 -0.759394 0
M  V30 31635 C 3013.59 2.04792 -0.327895 0
M  V30 31636 C 3014.02 1.56901 1.03749 0
M  V30 31637 O 3013.38 0.72361 1.66233 0
M  V30 31638 C 3013.42 3.58734 -0.366327 0
M  V30 31639 O 3012.53 4.07441 0.637626 0
M  V30 31640 H 3011.87 0.648175 -0.144103 0
M  V30 31641 H 3014.4 1.76658 -1.03214 0
M  V30 31642 H 3014.41 4.0741 -0.219251 0
M  V30 31643 H 3013.08 3.92949 -1.36249 0
M  V30 31644 H 3011.66 3.70118 0.454684 0
M  V30 31645 N 3013.85 0.508932 1.49156 0
M  V30 31646 C 3015.09 -0.03465 2.0167 0
M  V30 31647 C 3015.41 -1.37308 1.39305 0
M  V30 31648 O 3016.61 -2.00381 1.83193 0
M  V30 31649 C 3015.07 -0.112198 3.59725 0
M  V30 31650 C 3014.68 1.22007 4.31067 0
M  V30 31651 C 3016.42 -0.605724 4.20156 0
M  V30 31652 C 3014.33 1.10425 5.80999 0
M  V30 31653 H 3013.26 -0.0167222 0.753815 0
M  V30 31654 H 3015.91 0.649548 1.71619 0
M  V30 31655 H 3014.29 -0.861019 3.86526 0
M  V30 31656 H 3015.47 1.9828 4.15959 0
M  V30 31657 H 3013.78 1.64766 3.82415 0
M  V30 31658 H 3016.38 -0.710009 5.29965 0
M  V30 31659 H 3016.72 -1.60649 3.84054 0
M  V30 31660 H 3017.25 0.0867938 3.97705 0
M  V30 31661 H 3013.99 2.07952 6.2164 0
M  V30 31662 H 3013.51 0.382534 5.98579 0
M  V30 31663 H 3015.19 0.786229 6.42205 0
M  V30 31664 N 3015.32 -1.55714 0.243111 0
M  V30 31665 C 3016.57 -1.98851 -0.382685 0
M  V30 31666 C 3016.9 -1.13118 -1.58223 0
M  V30 31667 O 3016.15 -0.181101 -1.9486 0
M  V30 31668 C 3016.45 -3.47399 -0.83956 0
M  V30 31669 C 3016.12 -4.50196 0.251816 0
M  V30 31670 C 3014.78 -4.78028 0.551571 0
M  V30 31671 C 3017.13 -5.11734 0.988818 0
M  V30 31672 C 3014.46 -5.64675 1.59247 0
M  V30 31673 C 3016.81 -5.99509 2.01921 0
M  V30 31674 C 3015.48 -6.25675 2.32565 0
M  V30 31675 H 3014.75 -0.727648 -0.140034 0
M  V30 31676 H 3017.39 -1.88272 0.350143 0
M  V30 31677 H 3015.7 -3.55291 -1.65152 0
M  V30 31678 H 3017.4 -3.78162 -1.33397 0
M  V30 31679 H 3013.99 -4.28599 0.00804275 0
M  V30 31680 H 3018.17 -4.90283 0.770486 0
M  V30 31681 H 3013.43 -5.83205 1.83527 0
M  V30 31682 H 3017.6 -6.46236 2.59522 0
M  V30 31683 H 3015.23 -6.9261 3.13361 0
M  V30 31684 N 3016.8 0.030048 -1.57571 0
M  V30 31685 C 3017.75 1.0494 -2.07582 0
M  V30 31686 C 3018.74 1.37503 -0.989408 0
M  V30 31687 O 3019.95 1.3642 -1.1743 0
M  V30 31688 H 3016.33 0.355944 -0.662426 0
M  V30 31689 H 3018.3 0.601796 -2.92269 0
M  V30 31690 C 3017.05 2.3421 -2.56984 0
M  V30 31691 H 3016.37 2.10015 -3.40197 0
M  V30 31692 H 3017.81 3.03883 -2.95687 0
M  V30 31693 C 3016.27 3.03107 -1.47064 0
M  V30 31694 O 3016.8 3.92898 -0.836319 0
M  V30 31695 N 3015 2.6442 -1.20543 0
M  V30 31696 H 3014.55 1.91487 -1.72309 0
M  V30 31697 H 3014.51 3.10835 -0.4721 0
M  V30 31698 N 3018.28 1.54674 0.3023 0
M  V30 31699 C 3019.51 1.78207 1.061 0
M  V30 31700 C 3019.93 0.539292 1.80203 0
M  V30 31701 O 3019.29 -0.510112 1.73976 0
M  V30 31702 C 3019.34 2.9883 2.01824 0
M  V30 31703 O 3018.44 2.71864 3.10103 0
M  V30 31704 H 3017.78 0.589879 0.304859 0
M  V30 31705 H 3020.31 2.01753 0.340118 0
M  V30 31706 H 3020.32 3.26764 2.44313 0
M  V30 31707 H 3019 3.88944 1.47293 0
M  V30 31708 H 3017.57 2.54942 2.72138 0
M  V30 31709 N 3019.76 -0.565428 1.47108 0
M  V30 31710 C 3020.69 -1.6885 1.53508 0
M  V30 31711 C 3021.67 -1.57907 0.387834 0
M  V30 31712 O 3022.85 -1.78881 0.594464 0
M  V30 31713 C 3019.98 -3.07037 1.4299 0
M  V30 31714 C 3019.03 -3.36449 2.62114 0
M  V30 31715 S 3019.86 -3.2661 4.24366 0
M  V30 31716 C 3021.02 -4.67304 4.16386 0
M  V30 31717 H 3021.25 -1.63165 2.48525 0
M  V30 31718 H 3018.78 -0.745586 1.35205 0
M  V30 31719 H 3020.74 -3.86748 1.37609 0
M  V30 31720 H 3019.4 -3.10195 0.493725 0
M  V30 31721 H 3018.59 -4.3717 2.50796 0
M  V30 31722 H 3018.2 -2.64341 2.64575 0
M  V30 31723 H 3020.49 -5.58075 3.84133 0
M  V30 31724 H 3021.43 -4.8368 5.17165 0
M  V30 31725 H 3021.84 -4.44965 3.4737 0
M  V30 31726 N 3021.24 -1.35102 -0.811492 0
M  V30 31727 C 3022.49 -1.27438 -1.56341 0
M  V30 31728 C 3022.8 0.150662 -1.95019 0
M  V30 31729 O 3024 0.349539 -2.69241 0
M  V30 31730 C 3022.46 -2.23464 -2.8212 0
M  V30 31731 C 3022.07 -3.71287 -2.50699 0
M  V30 31732 C 3023.81 -2.24732 -3.60133 0
M  V30 31733 C 3021.72 -4.5915 -3.7274 0
M  V30 31734 H 3020.65 -0.473464 -0.586812 0
M  V30 31735 H 3023.3 -1.60337 -0.892437 0
M  V30 31736 H 3021.68 -1.83531 -3.50902 0
M  V30 31737 H 3022.86 -4.19826 -1.89955 0
M  V30 31738 H 3021.17 -3.72579 -1.85941 0
M  V30 31739 H 3023.77 -2.87594 -4.5077 0
M  V30 31740 H 3024.11 -1.24972 -3.97099 0
M  V30 31741 H 3024.64 -2.63169 -2.98307 0
M  V30 31742 H 3021.38 -5.5989 -3.40886 0
M  V30 31743 H 3020.9 -4.1534 -4.32727 0
M  V30 31744 H 3022.58 -4.74329 -4.40024 0
M  V30 31745 N 3022.71 1.03306 -1.19019 0
M  V30 31746 C 3023.66 2.13604 -0.920664 0
M  V30 31747 C 3024.66 1.68961 0.12194 0
M  V30 31748 O 3025.86 1.7998 -0.0269171 0
M  V30 31749 H 3022.24 0.697809 -0.280297 0
M  V30 31750 H 3024.21 2.3353 -1.85759 0
M  V30 31751 C 3022.96 3.44492 -0.471259 0
M  V30 31752 H 3022.28 3.79258 -1.26505 0
M  V30 31753 H 3023.72 4.22778 -0.321737 0
M  V30 31754 C 3022.18 3.26917 0.814052 0
M  V30 31755 O 3022.71 3.55178 1.87647 0
M  V30 31756 N 3020.92 2.80223 0.769646 0
M  V30 31757 H 3020.46 2.57424 -0.0951731 0
M  V30 31758 H 3020.42 2.68845 1.63003 0
M  V30 31759 N 3024.19 0.99344 1.22346 0
M  V30 31760 C 3025.14 0.537092 2.26314 0
M  V30 31761 C 3026.13 -0.412516 1.64301 0
M  V30 31762 O 3027.34 -0.284976 1.7773 0
M  V30 31763 H 3023.72 0.155299 0.73579 0
M  V30 31764 H 3025.69 1.42539 2.62155 0
M  V30 31765 C 3024.44 -0.132057 3.47449 0
M  V30 31766 H 3023.76 0.589589 3.95429 0
M  V30 31767 H 3025.2 -0.41481 4.21966 0
M  V30 31768 C 3023.66 -1.36756 3.07895 0
M  V30 31769 O 3024.19 -2.46286 3.17343 0
M  V30 31770 N 3022.39 -1.24301 2.62674 0
M  V30 31771 H 3021.94 -0.351781 2.55187 0
M  V30 31772 H 3021.9 -2.07072 2.36577 0
M  V30 31773 N 3025.67 -1.37693 0.766707 0
M  V30 31774 C 3026.6 -2.32927 0.163473 0
M  V30 31775 C 3027.58 -1.55528 -0.688834 0
M  V30 31776 O 3028.77 -1.83788 -0.627331 0
M  V30 31777 C 3025.9 -3.39747 -0.720356 0
M  V30 31778 C 3024.85 -4.27989 0.0302471 0
M  V30 31779 C 3024.18 -5.25778 -0.972696 0
M  V30 31780 C 3025.48 -5.08178 1.20632 0
M  V30 31781 H 3027.17 -2.83624 0.959038 0
M  V30 31782 H 3024.72 -1.36366 0.462625 0
M  V30 31783 H 3026.67 -4.05344 -1.15214 0
M  V30 31784 H 3025.39 -2.87563 -1.54839 0
M  V30 31785 H 3024.05 -3.63917 0.442749 0
M  V30 31786 H 3023.7 -4.69876 -1.79514 0
M  V30 31787 H 3023.4 -5.85677 -0.475043 0
M  V30 31788 H 3024.92 -5.94251 -1.40352 0
M  V30 31789 H 3026.34 -5.66942 0.85144 0
M  V30 31790 H 3024.74 -5.77377 1.63572 0
M  V30 31791 H 3025.81 -4.41147 2.01288 0
M  V30 31792 N 3027.15 -0.516835 -1.48884 0
M  V30 31793 C 3028.4 0.0239544 -2.01686 0
M  V30 31794 C 3028.71 1.36567 -1.40031 0
M  V30 31795 O 3029.92 1.99407 -1.84253 0
M  V30 31796 C 3028.37 0.0931193 -3.5978 0
M  V30 31797 C 3027.98 -1.24291 -4.30413 0
M  V30 31798 C 3029.72 0.583433 -4.20472 0
M  V30 31799 C 3027.63 -1.13505 -5.80406 0
M  V30 31800 H 3026.56 0.0127243 -0.753893 0
M  V30 31801 H 3029.21 -0.65864 -1.71272 0
M  V30 31802 H 3027.59 0.840509 -3.86977 0
M  V30 31803 H 3028.77 -2.00483 -4.14901 0
M  V30 31804 H 3027.08 -1.66791 -3.81536 0
M  V30 31805 H 3029.68 0.681894 -5.30334 0
M  V30 31806 H 3030.02 1.5861 -3.84901 0
M  V30 31807 H 3030.56 -0.107884 -3.97654 0
M  V30 31808 H 3027.3 -2.11246 -6.20528 0
M  V30 31809 H 3026.82 -0.414272 -5.98368 0
M  V30 31810 H 3028.49 -0.820275 -6.41779 0
M  V30 31811 N 3028.63 1.55583 -0.251365 0
M  V30 31812 C 3029.88 1.98228 0.372646 0
M  V30 31813 C 3030.19 1.14283 1.58741 0
M  V30 31814 O 3031.39 1.46962 2.28286 0
M  V30 31815 C 3029.85 3.52739 0.714377 0
M  V30 31816 C 3029.46 4.45429 -0.479247 0
M  V30 31817 C 3031.2 4.04029 1.30233 0
M  V30 31818 C 3029.11 5.91291 -0.113422 0
M  V30 31819 H 3028.04 0.740314 0.143007 0
M  V30 31820 H 3030.69 1.80087 -0.352284 0
M  V30 31821 H 3029.07 3.66591 1.49756 0
M  V30 31822 H 3030.25 4.43338 -1.25652 0
M  V30 31823 H 3028.56 4.04645 -0.98243 0
M  V30 31824 H 3031.16 5.1053 1.58944 0
M  V30 31825 H 3031.5 3.51642 2.2283 0
M  V30 31826 H 3032.03 3.9352 0.581955 0
M  V30 31827 H 3028.77 6.47724 -1.00665 0
M  V30 31828 H 3028.29 5.96508 0.627561 0
M  V30 31829 H 3029.97 6.46291 0.302816 0
M  V30 31830 N 3030.1 -0.0216912 1.57585 0
M  V30 31831 C 3031.52 -0.377457 1.55072 0
M  V30 31832 C 3031.72 -1.76149 0.978454 0
M  V30 31833 O 3030.78 -2.45201 0.602731 0
M  V30 31834 C 3032.09 -0.272552 2.99462 0
M  V30 31835 C 3033.64 -0.349093 3.11047 0
M  V30 31836 C 3034.11 -0.273556 4.57182 0
M  V30 31837 N 3035.6 -0.332125 4.62008 0
M  V30 31838 C 3036.34 -0.296682 5.72632 0
M  V30 31839 N 3035.83 -0.213099 6.92472 0
M  V30 31840 N 3037.63 -0.346954 5.61028 0
M  V30 31841 H 3029.78 0.883959 1.93132 0
M  V30 31842 H 3032.04 0.336825 0.886145 0
M  V30 31843 H 3031.75 0.678841 3.45086 0
M  V30 31844 H 3031.62 -1.06329 3.61903 0
M  V30 31845 H 3034.01 -1.29092 2.65366 0
M  V30 31846 H 3034.09 0.471129 2.51424 0
M  V30 31847 H 3033.73 0.664637 5.03533 0
M  V30 31848 H 3033.66 -1.11198 5.14726 0
M  V30 31849 H 3036.15 -0.398937 3.75788 0
M  V30 31850 H 3036.47 -0.191356 7.72563 0
M  V30 31851 H 3034.81 -0.179039 6.94769 0
M  V30 31852 H 3038 -0.410296 4.66298 0
M  V30 31853 H 3038.18 -0.315865 6.4723 0
M  V30 31854 N 3031.58 -1.54832 -0.294093 0
M  V30 31855 C 3032.81 -1.78441 -1.04721 0
M  V30 31856 C 3033.23 -0.547271 -1.80694 0
M  V30 31857 O 3032.58 0.48311 -1.75989 0
M  V30 31858 C 3032.63 -2.99637 -2.02237 0
M  V30 31859 O 3032.36 -4.18571 -1.29345 0
M  V30 31860 C 3033.86 -3.35688 -2.89532 0
M  V30 31861 H 3031.08 -0.594954 -0.310275 0
M  V30 31862 H 3033.62 -2.01799 -0.331271 0
M  V30 31863 H 3031.78 -2.78467 -2.69323 0
M  V30 31864 H 3032.19 -4.86947 -1.94892 0
M  V30 31865 H 3033.66 -4.23715 -3.53793 0
M  V30 31866 H 3034.14 -2.54149 -3.58197 0
M  V30 31867 H 3034.75 -3.59042 -2.27966 0
M  V30 31868 N 3033.06 0.557619 -1.47405 0
M  V30 31869 C 3033.99 1.67446 -1.62739 0
M  V30 31870 C 3034.97 1.63279 -0.476853 0
M  V30 31871 O 3036.16 1.80907 -0.706139 0
M  V30 31872 C 3033.29 3.06083 -1.64105 0
M  V30 31873 C 3032.24 3.25096 -2.78382 0
M  V30 31874 C 3031.57 4.64515 -2.64821 0
M  V30 31875 C 3032.87 3.10511 -4.19977 0
M  V30 31876 H 3034.56 1.54869 -2.56234 0
M  V30 31877 H 3032.11 0.743628 -1.23313 0
M  V30 31878 H 3034.06 3.8406 -1.73424 0
M  V30 31879 H 3032.78 3.19618 -0.671708 0
M  V30 31880 H 3031.44 2.49527 -2.68574 0
M  V30 31881 H 3031.09 4.74849 -1.65915 0
M  V30 31882 H 3030.79 4.78185 -3.41486 0
M  V30 31883 H 3032.32 5.44628 -2.76067 0
M  V30 31884 H 3033.73 3.78306 -4.30764 0
M  V30 31885 H 3032.13 3.35691 -4.97425 0
M  V30 31886 H 3033.2 2.07262 -4.38372 0
M  V30 31887 N 3034.54 1.35531 0.804316 0
M  V30 31888 C 3035.47 1.31304 1.93084 0
M  V30 31889 C 3036.45 0.187073 1.69068 0
M  V30 31890 O 3037.64 0.382392 1.90398 0
M  V30 31891 C 3034.77 1.08656 3.29865 0
M  V30 31892 C 3033.72 2.17918 3.68369 0
M  V30 31893 C 3033.05 1.80432 5.03337 0
M  V30 31894 C 3034.35 3.599 3.78509 0
M  V30 31895 H 3036.04 2.25565 1.96878 0
M  V30 31896 H 3033.59 1.08583 0.945822 0
M  V30 31897 H 3035.54 1.04338 4.08279 0
M  V30 31898 H 3034.26 0.108416 3.2642 0
M  V30 31899 H 3032.92 2.21336 2.92243 0
M  V30 31900 H 3032.57 0.8123 4.96398 0
M  V30 31901 H 3032.27 2.53574 5.3007 0
M  V30 31902 H 3033.79 1.77643 5.84188 0
M  V30 31903 H 3035.21 3.58791 4.47149 0
M  V30 31904 H 3033.6 4.31822 4.16713 0
M  V30 31905 H 3034.67 3.95887 2.80003 0
M  V30 31906 N 3036.02 -1.02674 1.19565 0
M  V30 31907 C 3036.95 -2.12895 0.959061 0
M  V30 31908 C 3037.93 -1.69755 -0.108352 0
M  V30 31909 O 3039.11 -1.94143 0.0471039 0
M  V30 31910 C 3036.24 -3.43693 0.499271 0
M  V30 31911 C 3035.2 -4.00525 1.50877 0
M  V30 31912 C 3034.52 -5.26969 0.905976 0
M  V30 31913 C 3035.82 -4.35085 2.88961 0
M  V30 31914 H 3037.52 -2.32945 1.88088 0
M  V30 31915 H 3035.06 -1.11947 0.905751 0
M  V30 31916 H 3037.02 -4.20175 0.321039 0
M  V30 31917 H 3035.74 -3.23371 -0.458148 0
M  V30 31918 H 3034.4 -3.26139 1.67418 0
M  V30 31919 H 3034.05 -5.02965 -0.0590622 0
M  V30 31920 H 3033.75 -5.65956 1.5801 0
M  V30 31921 H 3035.27 -6.06117 0.738587 0
M  V30 31922 H 3036.69 -5.02496 2.7599 0
M  V30 31923 H 3035.08 -4.8516 3.53186 0
M  V30 31924 H 3036.15 -3.44293 3.41453 0
M  V30 31925 N 3037.5 -0.999914 -1.21817 0
M  V30 31926 C 3038.44 -0.556044 -2.24002 0
M  V30 31927 C 3039.41 0.415259 -1.60825 0
M  V30 31928 O 3040.6 0.318447 -1.88124 0
M  V30 31929 C 3037.74 0.116228 -3.44904 0
M  V30 31930 C 3036.85 -0.897648 -4.22571 0
M  V30 31931 C 3035.99 -0.198166 -5.3083 0
M  V30 31932 C 3035.02 -1.19994 -6.00223 0
M  V30 31933 N 3034.16 -0.52828 -7.0011 0
M  V30 31934 H 3039 -1.43212 -2.61332 0
M  V30 31935 H 3036.54 -0.717228 -1.2843 0
M  V30 31936 H 3038.5 0.522982 -4.13909 0
M  V30 31937 H 3037.13 0.956054 -3.08317 0
M  V30 31938 H 3036.18 -1.42268 -3.52794 0
M  V30 31939 H 3037.49 -1.66021 -4.7036 0
M  V30 31940 H 3036.64 0.264958 -6.06121 0
M  V30 31941 H 3035.38 0.596839 -4.84034 0
M  V30 31942 H 3034.39 -1.67362 -5.23708 0
M  V30 31943 H 3035.61 -1.99594 -6.49106 0
M  V30 31944 H 3033.56 0.247161 -6.55534 0
M  V30 31945 H 3033.48 -1.22917 -7.45941 0
M  V30 31946 H 3034.74 -0.0881913 -7.7945 0
M  V30 31947 N 3038.97 1.37284 -0.773999 0
M  V30 31948 C 3040.2 2.03905 -0.350794 0
M  V30 31949 C 3040.62 1.58375 1.02776 0
M  V30 31950 O 3039.97 0.766039 1.65644 0
M  V30 31951 C 3040.02 3.59418 -0.387399 0
M  V30 31952 O 3039.75 4.03283 -1.71157 0
M  V30 31953 C 3041.25 4.43275 0.0471201 0
M  V30 31954 H 3038.47 0.654773 -0.146675 0
M  V30 31955 H 3041.01 1.75573 -1.04855 0
M  V30 31956 H 3039.17 3.86514 0.261797 0
M  V30 31957 H 3039.58 4.97813 -1.65175 0
M  V30 31958 H 3041.05 5.51992 -0.0296445 0
M  V30 31959 H 3041.53 4.25259 1.09778 0
M  V30 31960 H 3042.14 4.21409 -0.573974 0
M  V30 31961 N 3040.45 0.524724 1.48608 0
M  V30 31962 C 3041.68 -0.00738237 2.06599 0
M  V30 31963 C 3042.09 -1.29184 1.38232 0
M  V30 31964 O 3041.43 -1.77796 0.461994 0
M  V30 31965 C 3041.49 -0.307261 3.58185 0
M  V30 31966 C 3041.16 0.882943 4.48389 0
M  V30 31967 C 3042.16 1.77993 4.88482 0
M  V30 31968 C 3039.84 1.08845 4.90365 0
M  V30 31969 C 3041.83 2.86637 5.69313 0
M  V30 31970 C 3039.52 2.17804 5.70968 0
M  V30 31971 C 3040.52 3.06533 6.10349 0
M  V30 31972 O 3040.21 4.13608 6.89336 0
M  V30 31973 H 3039.94 0.0279965 0.67542 0
M  V30 31974 H 3042.49 0.728234 1.92057 0
M  V30 31975 H 3040.72 -1.09678 3.7082 0
M  V30 31976 H 3042.41 -0.780816 3.98319 0
M  V30 31977 H 3043.18 1.63307 4.56679 0
M  V30 31978 H 3039.06 0.407116 4.59199 0
M  V30 31979 H 3042.6 3.55921 5.99972 0
M  V30 31980 H 3038.5 2.32476 6.02184 0
M  V30 31981 H 3039.27 4.11253 7.07682 0
M  V30 31982 N 3041.93 -1.55447 0.259613 0
M  V30 31983 C 3042.88 -2.21906 -0.634539 0
M  V30 31984 C 3043.85 -1.18721 -1.16166 0
M  V30 31985 O 3045.03 -1.47212 -1.2138 0
M  V30 31986 C 3042.17 -2.93207 -1.82 0
M  V30 31987 C 3041.28 -4.11075 -1.3282 0
M  V30 31988 C 3040.42 -4.70059 -2.47423 0
M  V30 31989 C 3039.46 -5.80151 -1.95169 0
M  V30 31990 N 3038.6 -6.33264 -3.03185 0
M  V30 31991 H 3043.44 -2.97937 -0.0611362 0
M  V30 31992 H 3040.97 -1.47088 -0.0184119 0
M  V30 31993 H 3042.93 -3.32752 -2.51658 0
M  V30 31994 H 3041.56 -2.19626 -2.36567 0
M  V30 31995 H 3040.61 -3.76756 -0.525235 0
M  V30 31996 H 3041.92 -4.90515 -0.905348 0
M  V30 31997 H 3041.08 -5.12244 -3.25102 0
M  V30 31998 H 3039.82 -3.89863 -2.93016 0
M  V30 31999 H 3038.82 -5.37431 -1.15964 0
M  V30 32000 H 3040.05 -6.62207 -1.5053 0
M  V30 32001 H 3037.99 -5.55968 -3.4819 0
M  V30 32002 H 3037.91 -7.07932 -2.6527 0
M  V30 32003 H 3039.18 -6.80108 -3.80886 0
M  V30 32004 N 3043.41 0.0133338 -1.57594 0
M  V30 32005 C 3044.66 0.699562 -1.89606 0
M  V30 32006 C 3044.98 1.75046 -0.85929 0
M  V30 32007 O 3044.25 1.95618 0.105078 0
M  V30 32008 H 3042.83 0.261373 -0.699781 0
M  V30 32009 H 3045.49 -0.0244386 -1.94885 0
M  V30 32010 H 3044.58 1.17923 -2.88965 0
M  V30 32011 N 3044.89 1.54985 0.285878 0
M  V30 32012 C 3046.13 1.74191 1.01688 0
M  V30 32013 C 3046.45 0.543168 1.87907 0
M  V30 32014 O 3047.65 0.617352 2.64388 0
M  V30 32015 C 3046.11 3.08244 1.85779 0
M  V30 32016 C 3045.72 4.35644 1.0449 0
M  V30 32017 C 3047.46 3.36803 2.58388 0
M  V30 32018 C 3045.37 5.60741 1.87945 0
M  V30 32019 H 3044.3 0.649255 0.383385 0
M  V30 32020 H 3046.95 1.81456 0.273138 0
M  V30 32021 H 3045.33 2.94982 2.642 0
M  V30 32022 H 3046.51 4.59784 0.305766 0
M  V30 32023 H 3044.82 4.14133 0.43395 0
M  V30 32024 H 3047.42 4.2747 3.21206 0
M  V30 32025 H 3047.76 2.56355 3.28006 0
M  V30 32026 H 3048.29 3.51103 1.87006 0
M  V30 32027 H 3045.03 6.43901 1.2277 0
M  V30 32028 H 3044.55 5.40764 2.5949 0
M  V30 32029 H 3046.23 5.98563 2.45625 0
M  V30 32030 N 3046.36 -0.549794 1.47699 0
M  V30 32031 C 3047.64 -1.31072 1.45188 0
M  V30 32032 C 3048.02 -2.10546 0.152805 0
M  V30 32033 O 3047.37 -2.11467 -0.865669 0
M  V30 32034 C 3047.58 -2.20897 2.70195 0
M  V30 32035 C 3048.93 -2.81678 3.17715 0
M  V30 32036 O 3049.95 -2.31195 2.70975 0
M  V30 32037 O 3048.81 -3.73453 3.98992 0
M  V30 32038 H 3045.9 -0.590567 0.57893 0
M  V30 32039 H 3048.45 -0.568084 1.59909 0
M  V30 32040 H 3047.22 -1.61822 3.56272 0
M  V30 32041 H 3046.85 -3.02443 2.58097 0
M  V30 32042 N 3047.84 -1.35955 -0.797117 0
M  V30 32043 C 3048.77 -1.32326 -1.92385 0
M  V30 32044 C 3049.75 -0.196037 -1.68967 0
M  V30 32045 O 3050.94 -0.392484 -1.90193 0
M  V30 32046 C 3048.07 -1.10404 -3.29285 0
M  V30 32047 C 3047.02 -2.19868 -3.67208 0
M  V30 32048 C 3046.35 -1.83099 -5.02373 0
M  V30 32049 C 3047.65 -3.61902 -3.76595 0
M  V30 32050 H 3049.34 -2.26606 -1.95679 0
M  V30 32051 H 3046.89 -1.09083 -0.94005 0
M  V30 32052 H 3048.84 -1.06502 -4.0772 0
M  V30 32053 H 3047.57 -0.125725 -3.26358 0
M  V30 32054 H 3046.22 -2.22883 -2.91065 0
M  V30 32055 H 3045.87 -0.838614 -4.9596 0
M  V30 32056 H 3045.57 -2.56382 -5.28718 0
M  V30 32057 H 3047.1 -1.80739 -5.83237 0
M  V30 32058 H 3048.51 -3.61157 -4.4524 0
M  V30 32059 H 3046.91 -4.34026 -4.14417 0
M  V30 32060 H 3047.98 -3.97366 -2.77899 0
M  V30 32061 N 3049.32 1.02038 -1.20108 0
M  V30 32062 C 3050.6 1.72717 -0.91806 0
M  V30 32063 C 3050.98 2.03143 0.574127 0
M  V30 32064 O 3050.33 1.69288 1.53473 0
M  V30 32065 C 3050.54 2.99777 -1.78703 0
M  V30 32066 C 3051.88 3.73117 -2.02655 0
M  V30 32067 O 3052.91 3.09724 -1.75925 0
M  V30 32068 O 3051.77 4.87103 -2.47776 0
M  V30 32069 H 3048.86 0.752553 -0.342918 0
M  V30 32070 H 3051.41 1.0792 -1.30963 0
M  V30 32071 H 3050.18 2.73585 -2.79762 0
M  V30 32072 H 3049.8 3.72314 -1.39529 0
M  V30 32073 N 3050.8 1.00636 1.21285 0
M  V30 32074 C 3051.75 0.538899 2.2154 0
M  V30 32075 C 3052.73 -0.400228 1.55843 0
M  V30 32076 O 3053.92 -0.224858 1.75566 0
M  V30 32077 C 3051.05 -0.131735 3.43047 0
M  V30 32078 C 3050.14 0.828492 4.15929 0
M  V30 32079 N 3050.53 1.98186 4.65356 0
M  V30 32080 C 3048.83 0.647161 4.4128 0
M  V30 32081 C 3049.53 2.58566 5.21074 0
M  V30 32082 N 3048.51 1.86714 5.10528 0
M  V30 32083 H 3052.31 1.41835 2.5741 0
M  V30 32084 H 3049.82 0.870362 1.37107 0
M  V30 32085 H 3051.82 -0.484105 4.1408 0
M  V30 32086 H 3050.48 -1.00716 3.08685 0
M  V30 32087 H 3051.49 2.36219 4.60892 0
M  V30 32088 H 3048.17 -0.181066 4.17107 0
M  V30 32089 H 3049.56 3.56117 5.69764 0
M  V30 32090 N 3052.28 -1.36872 0.781268 0
M  V30 32091 C 3053.21 -2.32741 0.188169 0
M  V30 32092 C 3054.19 -1.5625 -0.672299 0
M  V30 32093 O 3055.37 -1.84444 -0.607802 0
M  V30 32094 C 3052.5 -3.40492 -0.684281 0
M  V30 32095 C 3051.46 -4.27933 0.0756394 0
M  V30 32096 C 3050.78 -5.2678 -0.916875 0
M  V30 32097 C 3052.08 -5.0687 1.26015 0
M  V30 32098 H 3053.78 -2.82591 0.989066 0
M  V30 32099 H 3051.32 -1.35868 0.477062 0
M  V30 32100 H 3053.28 -4.06543 -1.10908 0
M  V30 32101 H 3052 -2.89189 -1.5178 0
M  V30 32102 H 3050.66 -3.63427 0.481322 0
M  V30 32103 H 3050.31 -4.71754 -1.7452 0
M  V30 32104 H 3050.01 -5.86148 -0.412897 0
M  V30 32105 H 3051.53 -5.95706 -1.34041 0
M  V30 32106 H 3052.94 -5.66007 0.911524 0
M  V30 32107 H 3051.34 -5.7561 1.69686 0
M  V30 32108 H 3052.41 -4.38988 2.05956 0
M  V30 32109 N 3053.75 -0.532597 -1.48328 0
M  V30 32110 C 3054.7 0.228739 -2.29664 0
M  V30 32111 C 3055.67 0.931376 -1.3753 0
M  V30 32112 O 3056.86 0.931892 -1.66494 0
M  V30 32113 C 3054 1.26808 -3.20957 0
M  V30 32114 C 3053.11 0.574024 -4.28169 0
M  V30 32115 C 3052.24 1.59653 -5.0664 0
M  V30 32116 C 3051.28 0.886073 -6.05653 0
M  V30 32117 N 3050.42 1.85424 -6.77172 0
M  V30 32118 H 3055.26 -0.471032 -2.94254 0
M  V30 32119 H 3052.8 -0.244125 -1.4506 0
M  V30 32120 H 3054.76 1.883 -3.72289 0
M  V30 32121 H 3053.39 1.9362 -2.58285 0
M  V30 32122 H 3052.44 -0.154894 -3.80085 0
M  V30 32123 H 3053.75 0.0163108 -4.98797 0
M  V30 32124 H 3052.9 2.28566 -5.61999 0
M  V30 32125 H 3051.64 2.18813 -4.35858 0
M  V30 32126 H 3050.65 0.182885 -5.49496 0
M  V30 32127 H 3051.87 0.300539 -6.78435 0
M  V30 32128 H 3049.82 2.43488 -6.09138 0
M  V30 32129 H 3049.74 1.34803 -7.43884 0
M  V30 32130 H 3051 2.53528 -7.37119 0
M  V30 32131 N 3055.23 1.55307 -0.267853 0
M  V30 32132 C 3056.17 2.18328 0.663935 0
M  V30 32133 C 3057.14 1.14189 1.15757 0
M  V30 32134 O 3058.33 1.42679 1.23187 0
M  V30 32135 C 3055.45 2.80073 1.90465 0
M  V30 32136 C 3054.5 3.9745 1.54711 0
M  V30 32137 S 3055.33 5.31763 0.631561 0
M  V30 32138 C 3056.49 5.96973 1.88081 0
M  V30 32139 H 3056.72 2.97022 0.128434 0
M  V30 32140 H 3054.26 1.54312 -0.0521562 0
M  V30 32141 H 3056.21 3.16279 2.61683 0
M  V30 32142 H 3054.87 2.01286 2.41128 0
M  V30 32143 H 3054.07 4.39317 2.47014 0
M  V30 32144 H 3053.67 3.6263 0.91519 0
M  V30 32145 H 3055.96 6.15764 2.82562 0
M  V30 32146 H 3056.9 6.91916 1.50527 0
M  V30 32147 H 3057.31 5.26255 2.04244 0
M  V30 32148 N 3056.71 -0.00497598 1.57599 0
M  V30 32149 C 3057.96 -0.690028 1.8953 0
M  V30 32150 C 3058.27 -1.75212 0.869482 0
M  V30 32151 O 3059.48 -2.49145 1.07883 0
M  V30 32152 C 3057.93 -1.27846 3.36427 0
M  V30 32153 C 3057.54 -0.251453 4.47294 0
M  V30 32154 C 3059.29 -1.942 3.77474 0
M  V30 32155 C 3057.19 -0.849597 5.85266 0
M  V30 32156 H 3056.12 -0.261487 0.707206 0
M  V30 32157 H 3058.77 0.0547531 1.83418 0
M  V30 32158 H 3057.16 -2.07375 3.3736 0
M  V30 32159 H 3058.33 0.518876 4.57869 0
M  V30 32160 H 3056.65 0.311354 4.15234 0
M  V30 32161 H 3059.24 -2.39847 4.77889 0
M  V30 32162 H 3059.59 -2.77046 3.10727 0
M  V30 32163 H 3060.12 -1.21412 3.78819 0
M  V30 32164 H 3056.86 -0.0600256 6.55473 0
M  V30 32165 H 3056.38 -1.5892 5.78364 0
M  V30 32166 H 3058.06 -1.34973 6.32765 0
M  V30 32167 N 3058.19 -1.55135 -0.277654 0
M  V30 32168 C 3059.15 -1.86926 -1.32632 0
M  V30 32169 C 3060.15 -0.743532 -1.42577 0
M  V30 32170 O 3061.34 -1.01173 -1.41808 0
M  V30 32171 C 3058.47 -2.07039 -2.70828 0
M  V30 32172 H 3059.67 -2.80665 -1.05675 0
M  V30 32173 H 3057.22 -1.47555 -0.515491 0
M  V30 32174 H 3057.95 -1.15666 -3.02972 0
M  V30 32175 H 3057.74 -2.88997 -2.64996 0
M  V30 32176 H 3059.23 -2.32924 -3.46606 0
M  V30 32177 N 3059.67 0.541953 -1.47989 0
M  V30 32178 C 3060.9 1.32152 -1.58806 0
M  V30 32179 C 3061.3 1.87634 -0.242926 0
M  V30 32180 O 3060.65 1.66495 0.77621 0
M  V30 32181 C 3060.71 2.51816 -2.56571 0
M  V30 32182 C 3060.37 2.17509 -4.01919 0
M  V30 32183 C 3061.37 1.73892 -4.89957 0
M  V30 32184 C 3059.06 2.284 -4.47369 0
M  V30 32185 C 3061.05 1.41614 -6.21469 0
M  V30 32186 C 3058.74 1.95734 -5.78905 0
M  V30 32187 C 3059.73 1.52411 -6.65778 0
M  V30 32188 O 3059.42 1.20169 -7.94868 0
M  V30 32189 H 3059.15 0.408592 -0.538543 0
M  V30 32190 H 3061.71 0.661784 -1.94447 0
M  V30 32191 H 3059.94 3.20732 -2.16028 0
M  V30 32192 H 3061.63 3.13886 -2.57352 0
M  V30 32193 H 3062.39 1.64958 -4.56085 0
M  V30 32194 H 3058.27 2.61078 -3.79947 0
M  V30 32195 H 3061.82 1.07726 -6.89232 0
M  V30 32196 H 3057.71 2.04305 -6.12315 0
M  V30 32197 H 3058.48 1.33669 -8.07511 0
M  V30 32198 N 3061.15 1.36376 0.789896 0
M  V30 32199 C 3062.39 1.30321 1.54469 0
M  V30 32200 C 3062.71 -0.117304 1.94647 0
M  V30 32201 O 3061.98 -1.05746 1.64908 0
M  V30 32202 H 3060.56 0.479404 0.57287 0
M  V30 32203 H 3063.23 1.70667 0.941215 0
M  V30 32204 H 3062.32 1.93028 2.45248 0
M  V30 32205 N 3062.62 -1.014 1.20647 0
M  V30 32206 C 3063.9 -1.72227 0.927206 0
M  V30 32207 C 3064.28 -2.03444 -0.563346 0
M  V30 32208 O 3063.63 -1.70099 -1.52573 0
M  V30 32209 C 3063.84 -2.98825 1.8029 0
M  V30 32210 C 3065.19 -3.72037 2.04631 0
M  V30 32211 O 3066.21 -3.08787 1.77565 0
M  V30 32212 O 3065.07 -4.85782 2.50355 0
M  V30 32213 H 3062.16 -0.750724 0.346904 0
M  V30 32214 H 3064.71 -1.07224 1.31533 0
M  V30 32215 H 3063.48 -2.72098 2.81209 0
M  V30 32216 H 3063.1 -3.71569 1.41501 0
M  V30 32217 N 3064.1 -1.01278 -1.2075 0
M  V30 32218 C 3065.38 -0.615145 -1.85675 0
M  V30 32219 C 3065.76 0.906942 -1.90625 0
M  V30 32220 O 3065.11 1.79709 -1.41127 0
M  V30 32221 C 3065.32 -1.25852 -3.25518 0
M  V30 32222 C 3066.66 -1.37155 -4.01838 0
M  V30 32223 O 3067.69 -1.21444 -3.34858 0
M  V30 32224 O 3066.55 -1.62504 -5.2178 0
M  V30 32225 H 3063.64 -0.211743 -0.799434 0
M  V30 32226 H 3066.19 -1.10992 -1.2837 0
M  V30 32227 H 3064.96 -2.29874 -3.1666 0
M  V30 32228 H 3064.58 -0.750593 -3.90451 0
M  V30 32229 N 3065.58 1.36456 -0.788516 0
M  V30 32230 C 3066.83 1.99561 -0.361031 0
M  V30 32231 C 3067.16 1.62439 1.0643 0
M  V30 32232 O 3066.43 0.878736 1.73518 0
M  V30 32233 C 3066.72 3.5627 -0.523798 0
M  V30 32234 C 3066.57 4.03248 -1.99275 0
M  V30 32235 C 3067.89 4.40057 0.0617135 0
M  V30 32236 H 3065.01 0.724964 -0.132653 0
M  V30 32237 H 3067.65 1.61883 -0.994688 0
M  V30 32238 H 3065.8 3.88497 0.0156296 0
M  V30 32239 H 3067.47 3.81513 -2.59317 0
M  V30 32240 H 3065.71 3.54822 -2.49567 0
M  V30 32241 H 3066.39 5.12217 -2.05761 0
M  V30 32242 H 3068.86 4.14185 -0.398747 0
M  V30 32243 H 3067.74 5.48838 -0.0822053 0
M  V30 32244 H 3068 4.2678 1.15373 0
M  V30 32245 N 3067.06 0.540456 1.48043 0
M  V30 32246 C 3068.31 0.00813507 2.01698 0
M  V30 32247 C 3068.62 -1.34322 1.42186 0
M  V30 32248 O 3069.83 -1.9645 1.87402 0
M  V30 32249 C 3068.28 -0.0358697 3.59882 0
M  V30 32250 C 3067.89 1.31123 4.28382 0
M  V30 32251 C 3069.63 -0.516466 4.21347 0
M  V30 32252 C 3067.54 1.22724 5.78526 0
M  V30 32253 H 3066.47 -0.00072892 0.754 0
M  V30 32254 H 3069.12 0.685805 1.70203 0
M  V30 32255 H 3067.5 -0.778838 3.88266 0
M  V30 32256 H 3068.68 2.07059 4.11659 0
M  V30 32257 H 3066.99 1.7284 3.78834 0
M  V30 32258 H 3069.59 -0.597436 5.31352 0
M  V30 32259 H 3069.93 -1.52466 3.87375 0
M  V30 32260 H 3070.47 0.171133 3.97432 0
M  V30 32261 H 3067.2 2.21091 6.17089 0
M  V30 32262 H 3066.72 0.509415 5.97633 0
M  V30 32263 H 3068.4 0.922273 6.40393 0
M  V30 32264 N 3068.54 -1.55163 0.276085 0
M  V30 32265 C 3069.5 -2.21264 -0.597886 0
M  V30 32266 C 3070.5 -1.1908 -1.08058 0
M  V30 32267 O 3071.69 -1.43979 -0.980601 0
M  V30 32268 C 3068.82 -2.87937 -1.82497 0
M  V30 32269 H 3070.01 -2.99893 -0.0207242 0
M  V30 32270 H 3067.57 -1.56277 0.0267097 0
M  V30 32271 H 3068.3 -2.13323 -2.44262 0
M  V30 32272 H 3068.09 -3.62819 -1.48677 0
M  V30 32273 H 3069.58 -3.38436 -2.44645 0
M  V30 32274 N 3070.01 -0.00338196 -1.576 0
M  V30 32275 C 3071.24 0.695276 -1.95399 0
M  V30 32276 C 3071.66 1.66325 -0.878505 0
M  V30 32277 O 3071.02 1.80565 0.163054 0
M  V30 32278 C 3071.07 1.40044 -3.32295 0
M  V30 32279 O 3070.17 2.51497 -3.26838 0
M  V30 32280 H 3069.51 0.184683 -0.637799 0
M  V30 32281 H 3072.04 -0.0575789 -2.04519 0
M  V30 32282 H 3072.05 1.76309 -3.67939 0
M  V30 32283 H 3070.73 0.690731 -4.10124 0
M  V30 32284 H 3069.31 2.17533 -3.02876 0
M  V30 32285 N 3071.49 1.5528 0.269423 0
M  V30 32286 C 3072.72 1.79823 1.01721 0
M  V30 32287 C 3073.13 0.573564 1.80297 0
M  V30 32288 O 3072.47 -0.466932 1.77667 0
M  V30 32289 C 3072.53 2.97357 2.02038 0
M  V30 32290 C 3072.2 4.34259 1.42367 0
M  V30 32291 C 3073.2 5.1311 0.837521 0
M  V30 32292 C 3070.88 4.80922 1.4498 0
M  V30 32293 C 3072.87 6.36761 0.285445 0
M  V30 32294 C 3070.56 6.04527 0.893863 0
M  V30 32295 C 3071.56 6.82284 0.312689 0
M  V30 32296 O 3071.25 8.03557 -0.234723 0
M  V30 32297 H 3070.98 0.602762 0.306029 0
M  V30 32298 H 3073.53 2.0313 0.304504 0
M  V30 32299 H 3071.76 2.6975 2.77077 0
M  V30 32300 H 3073.45 3.09191 2.62974 0
M  V30 32301 H 3074.22 4.78188 0.810006 0
M  V30 32302 H 3070.1 4.20406 1.89155 0
M  V30 32303 H 3073.64 6.97396 -0.168818 0
M  V30 32304 H 3069.54 6.3893 0.91863 0
M  V30 32305 H 3070.31 8.18405 -0.124426 0
M  V30 32306 N 3072.97 -0.534097 1.48274 0
M  V30 32307 C 3074.38 -1.11607 1.49669 0
M  V30 32308 C 3074.73 -1.94413 0.264173 0
M  V30 32309 O 3073.86 -2.07055 -0.629047 0
M  V30 32310 C 3074.45 -2.03074 2.71194 0
M  V30 32311 C 3073.01 -2.56498 2.75474 0
M  V30 32312 C 3072.16 -1.33368 2.43122 0
M  V30 32313 H 3075.11 -0.319551 1.5545 0
M  V30 32314 H 3075.13 -2.87299 2.49478 0
M  V30 32315 H 3074.64 -1.42779 3.60882 0
M  V30 32316 H 3072.74 -3.20526 1.89984 0
M  V30 32317 H 3072.86 -2.95912 3.76793 0
M  V30 32318 H 3071.22 -1.6481 1.9419 0
M  V30 32319 H 3072 -0.748316 3.35045 0
M  V30 32320 N 3074.45 -1.36793 -0.782652 0
M  V30 32321 C 3075.4 -1.28194 -1.88548 0
M  V30 32322 C 3076.38 -0.172013 -1.59978 0
M  V30 32323 O 3077.57 -0.405435 -1.72294 0
M  V30 32324 C 3074.7 -1.08027 -3.25861 0
M  V30 32325 C 3073.79 -2.23517 -3.60418 0
M  V30 32326 N 3074.18 -3.48864 -3.66235 0
M  V30 32327 C 3072.48 -2.15431 -3.90519 0
M  V30 32328 C 3073.18 -4.24955 -3.97226 0
M  V30 32329 N 3072.15 -3.5397 -4.1256 0
M  V30 32330 H 3075.96 -2.23134 -1.91281 0
M  V30 32331 H 3073.47 -1.29609 -0.978532 0
M  V30 32332 H 3075.47 -0.999529 -4.04741 0
M  V30 32333 H 3074.13 -0.139939 -3.24398 0
M  V30 32334 H 3075.14 -3.82912 -3.48711 0
M  V30 32335 H 3071.82 -1.29393 -3.96943 0
M  V30 32336 H 3073.21 -5.33387 -4.08593 0
M  V30 32337 N 3075.93 1.00759 -1.21184 0
M  V30 32338 C 3076.84 2.12933 -0.984729 0
M  V30 32339 C 3077.85 1.73888 0.0623351 0
M  V30 32340 O 3079.03 2.00998 -0.127135 0
M  V30 32341 C 3076.09 3.42318 -0.549507 0
M  V30 32342 C 3075.15 3.95551 -1.66848 0
M  V30 32343 C 3074.39 5.1876 -1.25393 0
M  V30 32344 O 3074.61 5.7026 -0.126433 0
M  V30 32345 O 3073.54 5.65374 -2.06485 0
M  V30 32346 H 3077.37 2.34967 -1.92417 0
M  V30 32347 H 3074.96 1.11312 -0.99649 0
M  V30 32348 H 3076.84 4.2021 -0.316458 0
M  V30 32349 H 3075.51 3.21678 0.361248 0
M  V30 32350 H 3074.42 3.18897 -1.95591 0
M  V30 32351 H 3075.75 4.20595 -2.55657 0
M  V30 32352 N 3077.4 1.01917 1.20211 0
M  V30 32353 C 3078.65 0.71104 1.89926 0
M  V30 32354 C 3078.98 -0.757638 1.78811 0
M  V30 32355 O 3078.26 -1.55071 1.17402 0
M  V30 32356 C 3078.54 1.15059 3.41223 0
M  V30 32357 C 3078.39 2.67977 3.61259 0
M  V30 32358 C 3079.71 0.723846 4.34107 0
M  V30 32359 H 3076.83 0.259781 0.689698 0
M  V30 32360 H 3079.47 1.26737 1.41555 0
M  V30 32361 H 3077.62 0.677267 3.82551 0
M  V30 32362 H 3079.3 3.23182 3.29167 0
M  V30 32363 H 3077.54 3.08829 3.04642 0
M  V30 32364 H 3078.21 2.93787 4.67326 0
M  V30 32365 H 3080.69 1.1308 4.0044 0
M  V30 32366 H 3079.56 1.0594 5.38579 0
M  V30 32367 H 3079.82 -0.374346 4.40512 0
M  V30 32368 N 3078.88 -1.36036 0.795742 0
M  V30 32369 C 3080.16 -1.93366 0.294777 0
M  V30 32370 C 3080.54 -1.72698 -1.21402 0
M  V30 32371 O 3079.89 -1.08962 -2.00847 0
M  V30 32372 C 3080.1 -3.42024 0.694314 0
M  V30 32373 C 3081.45 -4.19158 0.67764 0
M  V30 32374 O 3082.47 -3.50491 0.635181 0
M  V30 32375 O 3081.33 -5.41653 0.726222 0
M  V30 32376 H 3078.42 -0.823632 0.0745603 0
M  V30 32377 H 3080.97 -1.45178 0.878711 0
M  V30 32378 H 3079.74 -3.5075 1.73464 0
M  V30 32379 H 3079.36 -3.9751 0.0846037 0
M  V30 32380 N 3080.36 -0.5483 -1.47755 0
M  V30 32381 C 3081.32 0.193817 -2.28379 0
M  V30 32382 C 3082.32 0.850962 -1.36438 0
M  V30 32383 O 3083.51 0.708192 -1.59155 0
M  V30 32384 C 3080.65 1.28238 -3.15861 0
M  V30 32385 H 3081.84 -0.514283 -2.95458 0
M  V30 32386 H 3079.39 -0.304906 -1.53297 0
M  V30 32387 H 3080.13 2.02316 -2.53454 0
M  V30 32388 H 3079.91 0.816081 -3.83513 0
M  V30 32389 H 3081.4 1.80386 -3.76631 0
M  V30 32390 N 3081.84 1.55014 -0.28431 0
M  V30 32391 C 3083.06 2.04664 0.335763 0
M  V30 32392 C 3083.49 1.16097 1.47997 0
M  V30 32393 O 3082.85 0.161486 1.80579 0
M  V30 32394 C 3082.89 3.5194 0.785553 0
M  V30 32395 O 3082 3.66441 1.89196 0
M  V30 32396 H 3081.34 0.660508 0.0680117 0
M  V30 32397 H 3083.87 2.00216 -0.42129 0
M  V30 32398 H 3083.88 3.93478 1.07885 0
M  V30 32399 H 3082.55 4.15868 -0.0515406 0
M  V30 32400 H 3081.13 3.36807 1.60049 0
M  V30 32401 N 3083.32 0.0117398 1.57596 0
M  V30 32402 C 3084.25 -0.974562 2.1219 0
M  V30 32403 C 3085.23 -1.35079 1.03381 0
M  V30 32404 O 3086.41 -1.43247 1.31125 0
M  V30 32405 C 3083.54 -2.26264 2.63481 0
M  V30 32406 C 3082.5 -2.02768 3.76921 0
M  V30 32407 C 3081.82 -3.3769 4.14572 0
M  V30 32408 C 3083.12 -1.38081 5.03717 0
M  V30 32409 H 3084.82 -0.519955 2.94851 0
M  V30 32410 H 3082.36 -0.248661 1.41837 0
M  V30 32411 H 3084.32 -2.95627 3.00304 0
M  V30 32412 H 3083.04 -2.73859 1.77958 0
M  V30 32413 H 3081.7 -1.35827 3.4051 0
M  V30 32414 H 3081.35 -3.83011 3.26055 0
M  V30 32415 H 3081.05 -3.22781 4.91005 0
M  V30 32416 H 3082.57 -4.0835 4.53963 0
M  V30 32417 H 3083.98 -1.97418 5.38237 0
M  V30 32418 H 3082.38 -1.33623 5.85034 0
M  V30 32419 H 3083.45 -0.35149 4.83624 0
M  V30 32420 N 3084.79 -1.55421 -0.261185 0
M  V30 32421 C 3085.72 -1.92121 -1.32709 0
M  V30 32422 C 3086.71 -0.784433 -1.50933 0
M  V30 32423 O 3087.89 -1.04355 -1.63779 0
M  V30 32424 C 3085.02 -2.20346 -2.68449 0
M  V30 32425 C 3083.97 -3.36141 -2.64941 0
M  V30 32426 C 3083.3 -3.49872 -4.04343 0
M  V30 32427 C 3084.6 -4.72219 -2.23174 0
M  V30 32428 H 3086.29 -2.81402 -1.0224 0
M  V30 32429 H 3083.84 -1.35393 -0.490382 0
M  V30 32430 H 3085.79 -2.44609 -3.43139 0
M  V30 32431 H 3084.52 -1.27876 -3.00525 0
M  V30 32432 H 3083.18 -3.11864 -1.92708 0
M  V30 32433 H 3082.82 -2.54848 -4.33661 0
M  V30 32434 H 3082.52 -4.27733 -4.02887 0
M  V30 32435 H 3084.05 -3.76441 -4.80754 0
M  V30 32436 H 3085.46 -4.95948 -2.87591 0
M  V30 32437 H 3083.86 -5.5308 -2.32858 0
M  V30 32438 H 3084.93 -4.70243 -1.18318 0
M  V30 32439 N 3086.27 0.526227 -1.48555 0
M  V30 32440 C 3087.24 1.61263 -1.62871 0
M  V30 32441 C 3088.24 1.5277 -0.501789 0
M  V30 32442 O 3089.43 1.56373 -0.767668 0
M  V30 32443 C 3086.56 3.0089 -1.60243 0
M  V30 32444 H 3087.75 1.49908 -2.59745 0
M  V30 32445 H 3085.3 0.748571 -1.37208 0
M  V30 32446 H 3086.04 3.17748 -0.648601 0
M  V30 32447 H 3085.82 3.08463 -2.42059 0
M  V30 32448 H 3087.31 3.79869 -1.73462 0
M  V30 32449 N 3087.75 1.37206 0.775387 0
M  V30 32450 C 3088.68 1.28547 1.89758 0
M  V30 32451 C 3089.7 0.202025 1.61542 0
M  V30 32452 O 3090.88 0.457879 1.72527 0
M  V30 32453 C 3087.98 0.963942 3.24902 0
M  V30 32454 C 3087.16 2.15212 3.80792 0
M  V30 32455 C 3086.22 1.80143 4.94403 0
M  V30 32456 O 3085.24 2.52397 5.10181 0
M  V30 32457 N 3086.44 0.743399 5.7572 0
M  V30 32458 H 3089.21 2.25241 1.97704 0
M  V30 32459 H 3086.77 1.30783 0.954325 0
M  V30 32460 H 3088.76 0.710252 3.98419 0
M  V30 32461 H 3087.33 0.085687 3.12483 0
M  V30 32462 H 3086.55 2.56778 2.99097 0
M  V30 32463 H 3087.84 2.94559 4.14864 0
M  V30 32464 H 3087.24 0.143754 5.65517 0
M  V30 32465 H 3085.8 0.54956 6.49479 0
M  V30 32466 N 3089.23 -1.00115 1.21716 0
M  V30 32467 C 3090.45 -1.78052 1.0636 0
M  V30 32468 C 3090.88 -1.84179 -0.382043 0
M  V30 32469 O 3090.24 -1.28821 -1.27573 0
M  V30 32470 C 3090.28 -3.19605 1.66988 0
M  V30 32471 O 3089.39 -4.02054 0.917963 0
M  V30 32472 H 3088.73 -0.548596 0.374084 0
M  V30 32473 H 3091.26 -1.25819 1.6134 0
M  V30 32474 H 3091.27 -3.70265 1.71369 0
M  V30 32475 H 3089.94 -3.1446 2.72191 0
M  V30 32476 H 3088.52 -3.60608 0.949536 0
M  V30 32477 N 3090.71 -1.02553 -1.19669 0
M  V30 32478 C 3091.96 -0.718613 -1.88892 0
M  V30 32479 C 3092.28 0.754824 -1.79798 0
M  V30 32480 O 3091.55 1.54359 -1.20623 0
M  V30 32481 H 3090.13 -0.262818 -0.699239 0
M  V30 32482 H 3092.79 -1.29904 -1.45296 0
M  V30 32483 H 3091.88 -1.00994 -2.95308 0
M  V30 32484 N 3092.19 1.35612 -0.802945 0
M  V30 32485 C 3093.13 2.29854 -0.208781 0
M  V30 32486 C 3094.1 1.52636 0.655101 0
M  V30 32487 O 3095.29 1.81089 0.600947 0
M  V30 32488 C 3092.43 3.39121 0.639604 0
M  V30 32489 C 3091.54 4.31309 -0.24431 0
M  V30 32490 C 3090.68 5.27666 0.611732 0
M  V30 32491 C 3089.71 6.11492 -0.272805 0
M  V30 32492 N 3088.85 6.99997 0.542999 0
M  V30 32493 H 3093.69 2.80078 -1.01787 0
M  V30 32494 H 3091.23 1.37847 -0.513489 0
M  V30 32495 H 3093.19 4.01134 1.14661 0
M  V30 32496 H 3091.82 2.90183 1.41399 0
M  V30 32497 H 3090.87 3.70332 -0.869387 0
M  V30 32498 H 3092.18 4.90143 -0.925288 0
M  V30 32499 H 3091.33 5.95034 1.18401 0
M  V30 32500 H 3090.07 4.6932 1.32629 0
M  V30 32501 H 3089.08 5.43074 -0.857382 0
M  V30 32502 H 3090.3 6.71916 -0.985169 0
M  V30 32503 H 3088.25 6.44143 1.2416 0
M  V30 32504 H 3088.17 7.55958 -0.0800095 0
M  V30 32505 H 3089.43 7.71719 1.09867 0
M  V30 32506 N 3093.66 0.556128 1.47462 0
M  V30 32507 C 3094.94 -0.0339548 1.95571 0
M  V30 32508 C 3095.32 -1.48666 1.49872 0
M  V30 32509 O 3094.67 -2.16286 0.737057 0
M  V30 32510 C 3094.88 0.110404 3.48825 0
M  V30 32511 C 3096.23 -0.035497 4.24585 0
M  V30 32512 O 3097.25 0.0378982 3.5618 0
M  V30 32513 O 3096.11 -0.193203 5.46158 0
M  V30 32514 H 3093.2 -0.0647376 0.824462 0
M  V30 32515 H 3095.75 0.622575 1.57867 0
M  V30 32516 H 3094.52 1.12133 3.74889 0
M  V30 32517 H 3094.14 -0.583786 3.93291 0
M  V30 32518 N 3095.14 -1.54861 0.292527 0
M  V30 32519 C 3096.37 -2.04081 -0.321611 0
M  V30 32520 C 3096.78 -1.1697 -1.4871 0
M  V30 32521 O 3096.12 -0.186122 -1.82755 0
M  V30 32522 C 3096.18 -3.4934 -0.848617 0
M  V30 32523 C 3095.85 -4.56603 0.190496 0
M  V30 32524 C 3096.85 -5.09875 1.01604 0
M  V30 32525 C 3094.53 -5.01216 0.329754 0
M  V30 32526 C 3096.52 -6.06295 1.96687 0
M  V30 32527 C 3094.21 -5.97458 1.28403 0
M  V30 32528 C 3095.21 -6.4988 2.10108 0
M  V30 32529 O 3094.9 -7.44237 3.0392 0
M  V30 32530 H 3094.63 -0.671817 -0.0750862 0
M  V30 32531 H 3097.18 -2.00901 0.427566 0
M  V30 32532 H 3095.41 -3.49817 -1.64817 0
M  V30 32533 H 3097.1 -3.81803 -1.37772 0
M  V30 32534 H 3097.87 -4.76208 0.919281 0
M  V30 32535 H 3093.75 -4.60047 -0.296237 0
M  V30 32536 H 3097.29 -6.47136 2.605 0
M  V30 32537 H 3093.19 -6.30542 1.38155 0
M  V30 32538 H 3093.96 -7.62011 2.98801 0
M  V30 32539 N 3096.62 -0.0200973 -1.57587 0
M  V30 32540 C 3097.87 0.659187 -1.91047 0
M  V30 32541 C 3098.19 1.73184 -0.896227 0
M  V30 32542 O 3097.46 1.95797 0.0635608 0
M  V30 32543 H 3096.04 0.24647 -0.705168 0
M  V30 32544 H 3098.7 -0.065771 -1.94789 0
M  V30 32545 H 3097.8 1.11767 -2.91401 0
M  V30 32546 N 3098.1 1.55557 0.252939 0
M  V30 32547 C 3099.03 1.92822 1.31688 0
M  V30 32548 C 3100.01 0.792426 1.50515 0
M  V30 32549 O 3101.19 1.05222 1.63224 0
M  V30 32550 C 3098.32 2.21766 2.67277 0
M  V30 32551 C 3097.28 3.37541 2.63154 0
M  V30 32552 C 3096.6 3.52012 4.02482 0
M  V30 32553 C 3097.9 4.73396 2.20667 0
M  V30 32554 H 3099.6 2.81941 1.00746 0
M  V30 32555 H 3097.14 1.35651 0.483195 0
M  V30 32556 H 3099.1 2.46425 3.41837 0
M  V30 32557 H 3097.82 1.29468 2.99843 0
M  V30 32558 H 3096.48 3.12882 1.91052 0
M  V30 32559 H 3096.13 2.57144 4.32303 0
M  V30 32560 H 3095.83 4.29864 4.00613 0
M  V30 32561 H 3097.35 3.78985 4.78751 0
M  V30 32562 H 3098.77 4.97466 2.84957 0
M  V30 32563 H 3097.16 5.54307 2.29921 0
M  V30 32564 H 3098.23 4.70864 1.15823 0
M  V30 32565 N 3099.58 -0.518341 1.48832 0
M  V30 32566 C 3100.8 -1.29797 1.61122 0
M  V30 32567 C 3101.22 -1.86773 0.275905 0
M  V30 32568 O 3100.58 -1.66984 -0.736387 0
M  V30 32569 C 3100.63 -2.44058 2.6668 0
M  V30 32570 O 3100.35 -1.89427 3.9503 0
M  V30 32571 C 3101.85 -3.35701 2.89516 0
M  V30 32572 H 3099.07 -0.394304 0.542923 0
M  V30 32573 H 3101.61 -0.624108 1.94744 0
M  V30 32574 H 3099.77 -3.07307 2.35884 0
M  V30 32575 H 3100.18 -2.64308 4.53036 0
M  V30 32576 H 3101.66 -4.12196 3.67149 0
M  V30 32577 H 3102.13 -3.91644 1.98775 0
M  V30 32578 H 3102.74 -2.78235 3.21661 0
M  V30 32579 N 3101.05 -1.37615 -0.7681 0
M  V30 32580 C 3101.99 -1.28044 -1.88892 0
M  V30 32581 C 3102.96 -0.160254 -1.61808 0
M  V30 32582 O 3104.15 -0.335092 -1.85498 0
M  V30 32583 C 3101.28 -0.98058 -3.24195 0
M  V30 32584 C 3100.32 -2.11815 -3.70185 0
M  V30 32585 S 3101.15 -3.73824 -3.83427 0
M  V30 32586 C 3102.31 -3.45996 -5.21572 0
M  V30 32587 H 3102.54 -2.22907 -1.96722 0
M  V30 32588 H 3100.08 -1.23281 -0.929581 0
M  V30 32589 H 3102.03 -0.814402 -4.0234 0
M  V30 32590 H 3100.7 -0.0493674 -3.14061 0
M  V30 32591 H 3099.89 -1.86344 -4.68286 0
M  V30 32592 H 3099.49 -2.24465 -2.99151 0
M  V30 32593 H 3101.78 -3.0121 -6.0686 0
M  V30 32594 H 3102.73 -4.43439 -5.52058 0
M  V30 32595 H 3103.13 -2.8084 -4.89682 0
M  V30 32596 N 3102.53 0.994677 -1.22245 0
M  V30 32597 C 3103.76 1.7695 -1.07221 0
M  V30 32598 C 3104.17 1.8499 0.377356 0
M  V30 32599 O 3103.53 1.31876 1.26154 0
M  V30 32600 C 3103.58 3.20352 -1.67502 0
M  V30 32601 O 3103.3 3.1275 -3.06788 0
M  V30 32602 C 3104.8 4.14291 -1.57728 0
M  V30 32603 H 3102.02 0.555773 -0.375976 0
M  V30 32604 H 3104.57 1.25063 -1.61801 0
M  V30 32605 H 3102.72 3.69313 -1.16989 0
M  V30 32606 H 3103.14 4.0292 -3.35791 0
M  V30 32607 H 3104.61 5.12669 -2.04632 0
M  V30 32608 H 3105.09 4.35948 -0.533511 0
M  V30 32609 H 3105.69 3.71225 -2.07538 0
M  V30 32610 N 3104.01 1.03186 1.19123 0
M  V30 32611 C 3105.42 0.759294 1.70563 0
M  V30 32612 C 3105.77 -0.720761 1.82481 0
M  V30 32613 O 3104.9 -1.56163 1.49807 0
M  V30 32614 C 3105.49 1.37168 3.09791 0
M  V30 32615 C 3104.05 1.14763 3.58478 0
M  V30 32616 C 3103.2 1.46788 2.35263 0
M  V30 32617 H 3106.15 1.19941 1.03923 0
M  V30 32618 H 3106.17 0.770215 3.72623 0
M  V30 32619 H 3105.68 2.44888 3.01084 0
M  V30 32620 H 3103.78 0.0887837 3.72494 0
M  V30 32621 H 3103.9 1.83844 4.42423 0
M  V30 32622 H 3102.26 0.887296 2.38745 0
M  V30 32623 H 3103.04 2.55597 2.29183 0
M  V30 32624 N 3105.49 -1.35184 0.810125 0
M  V30 32625 C 3106.45 -2.28058 0.22856 0
M  V30 32626 C 3107.45 -1.49736 -0.586142 0
M  V30 32627 O 3108.64 -1.69448 -0.40411 0
M  V30 32628 C 3105.77 -3.34029 -0.680983 0
M  V30 32629 H 3106.97 -2.81003 1.04773 0
M  V30 32630 H 3104.52 -1.45099 0.581036 0
M  V30 32631 H 3105.25 -2.86276 -1.5237 0
M  V30 32632 H 3105.04 -3.91976 -0.0984587 0
M  V30 32633 H 3106.53 -4.03337 -1.08209 0
M  V30 32634 N 3106.97 -0.56394 -1.47165 0
M  V30 32635 C 3108.24 0.0235828 -1.95586 0
M  V30 32636 C 3108.62 1.47869 -1.50658 0
M  V30 32637 O 3107.97 2.15892 -0.748517 0
M  V30 32638 C 3108.18 -0.128902 -3.48762 0
M  V30 32639 C 3109.53 0.0129797 -4.24598 0
M  V30 32640 O 3110.55 -0.0567868 -3.56155 0
M  V30 32641 O 3109.41 0.164236 -5.46253 0
M  V30 32642 H 3106.51 0.0603644 -0.824794 0
M  V30 32643 H 3109.05 -0.630938 -1.57535 0
M  V30 32644 H 3107.82 -1.1412 -3.74289 0
M  V30 32645 H 3107.45 0.562921 -3.93595 0
M  V30 32646 N 3108.44 1.54704 -0.300735 0
M  V30 32647 C 3109.39 2.2351 0.575481 0
M  V30 32648 C 3110.36 1.2176 1.12977 0
M  V30 32649 O 3111.55 1.50379 1.17434 0
M  V30 32650 C 3108.69 2.97929 1.74162 0
M  V30 32651 C 3107.8 4.14452 1.21875 0
M  V30 32652 C 3106.93 4.76454 2.34873 0
M  V30 32653 C 3105.97 5.85122 1.79718 0
M  V30 32654 N 3105.11 6.4108 2.86289 0
M  V30 32655 H 3109.95 2.97995 -0.0178781 0
M  V30 32656 H 3107.49 1.47086 -0.0205924 0
M  V30 32657 H 3109.45 3.39307 2.42748 0
M  V30 32658 H 3108.08 2.25821 2.30661 0
M  V30 32659 H 3107.13 3.78017 0.42516 0
M  V30 32660 H 3108.44 4.92743 0.774979 0
M  V30 32661 H 3107.59 5.20683 3.11406 0
M  V30 32662 H 3106.33 3.97494 2.82577 0
M  V30 32663 H 3105.34 5.40317 1.01674 0
M  V30 32664 H 3106.56 6.65965 1.32919 0
M  V30 32665 H 3104.51 5.65004 3.33327 0
M  V30 32666 H 3104.43 7.14716 2.46407 0
M  V30 32667 H 3105.69 6.89967 3.6272 0
M  V30 32668 N 3109.92 0.0284543 1.57574 0
M  V30 32669 C 3111.15 -0.664102 1.9648 0
M  V30 32670 C 3111.57 -1.64906 0.904855 0
M  V30 32671 O 3110.93 -1.80802 -0.134307 0
M  V30 32672 C 3110.98 -1.34739 3.34481 0
M  V30 32673 O 3110.08 -2.46265 3.30798 0
M  V30 32674 H 3109.42 -0.174513 0.640657 0
M  V30 32675 H 3111.95 0.0901088 2.04401 0
M  V30 32676 H 3111.96 -1.70433 3.70697 0
M  V30 32677 H 3110.64 -0.625396 4.11171 0
M  V30 32678 H 3109.22 -2.12687 3.06298 0
M  V30 32679 N 3111.4 -1.55689 -0.244686 0
M  V30 32680 C 3112.36 -1.89697 -1.28637 0
M  V30 32681 C 3113.36 -0.773608 -1.40968 0
M  V30 32682 O 3114.55 -1.04158 -1.39631 0
M  V30 32683 C 3111.69 -2.12737 -2.66375 0
M  V30 32684 H 3112.88 -2.82843 -0.996983 0
M  V30 32685 H 3110.43 -1.48615 -0.484077 0
M  V30 32686 H 3111.17 -1.22067 -3.0045 0
M  V30 32687 H 3110.95 -2.94553 -2.58806 0
M  V30 32688 H 3112.44 -2.40224 -3.41588 0
M  V30 32689 N 3112.88 0.510441 -1.49105 0
M  V30 32690 C 3114.11 1.28941 -1.61808 0
M  V30 32691 C 3114.52 1.86624 -0.285806 0
M  V30 32692 O 3113.88 1.67372 0.727521 0
M  V30 32693 C 3113.93 2.4264 -2.6797 0
M  V30 32694 O 3113.65 1.8733 -3.96029 0
M  V30 32695 C 3115.15 3.34161 -2.91292 0
M  V30 32696 H 3112.37 0.391419 -0.545006 0
M  V30 32697 H 3114.92 0.613771 -1.95072 0
M  V30 32698 H 3113.07 3.06051 -2.37511 0
M  V30 32699 H 3113.48 2.61901 -4.54431 0
M  V30 32700 H 3114.96 4.10243 -3.6933 0
M  V30 32701 H 3115.44 3.90584 -2.00849 0
M  V30 32702 H 3116.04 2.76525 -3.23132 0
M  V30 32703 N 3114.36 1.38021 0.760791 0
M  V30 32704 C 3115.6 1.33833 1.5197 0
M  V30 32705 C 3115.93 -0.0738513 1.9436 0
M  V30 32706 O 3115.19 -1.04943 1.65183 0
M  V30 32707 C 3115.49 2.23344 2.7902 0
M  V30 32708 C 3115.15 3.71436 2.55629 0
M  V30 32709 C 3113.81 4.11792 2.48959 0
M  V30 32710 C 3116.17 4.65209 2.3501 0
M  V30 32711 C 3113.49 5.44022 2.19674 0
M  V30 32712 C 3115.85 5.97688 2.07248 0
M  V30 32713 C 3114.51 6.37137 1.99029 0
M  V30 32714 H 3113.78 0.489729 0.556099 0
M  V30 32715 H 3116.43 1.70319 0.87542 0
M  V30 32716 H 3114.73 1.79889 3.48062 0
M  V30 32717 H 3116.43 2.17411 3.36947 0
M  V30 32718 H 3113.02 3.39436 2.61689 0
M  V30 32719 H 3117.2 4.34882 2.39147 0
M  V30 32720 H 3112.46 5.73537 2.11814 0
M  V30 32721 H 3116.63 6.69896 1.90295 0
M  V30 32722 H 3114.26 7.39522 1.76102 0
M  V30 32723 N 3115.83 -0.98818 1.22771 0
M  V30 32724 C 3116.74 -2.11339 1.01848 0
M  V30 32725 C 3117.76 -1.73965 -0.0346631 0
M  V30 32726 O 3118.94 -2.00771 0.159096 0
M  V30 32727 C 3116 -3.414 0.603897 0
M  V30 32728 C 3115.06 -3.92846 1.7312 0
M  V30 32729 C 3114.3 -5.167 1.3363 0
M  V30 32730 O 3114.52 -5.69987 0.217141 0
M  V30 32731 O 3113.45 -5.62017 2.15453 0
M  V30 32732 H 3117.28 -2.31876 1.96131 0
M  V30 32733 H 3114.86 -1.09713 1.01407 0
M  V30 32734 H 3116.75 -4.19653 0.38327 0
M  V30 32735 H 3115.42 -3.22212 -0.310026 0
M  V30 32736 H 3114.33 -3.15745 2.00639 0
M  V30 32737 H 3115.66 -4.16475 2.62316 0
M  V30 32738 N 3117.31 -1.03816 -1.18575 0
M  V30 32739 C 3118.54 -0.76 -1.92436 0
M  V30 32740 C 3118.96 0.682495 -1.76033 0
M  V30 32741 O 3118.31 1.46499 -1.08831 0
M  V30 32742 C 3118.36 -1.11357 -3.43921 0
M  V30 32743 O 3118.08 -2.49943 -3.59806 0
M  V30 32744 C 3119.59 -0.859548 -4.34887 0
M  V30 32745 H 3116.81 -0.27736 -0.610993 0
M  V30 32746 H 3119.35 -1.38515 -1.50446 0
M  V30 32747 H 3117.5 -0.53343 -3.8371 0
M  V30 32748 H 3117.92 -2.63401 -4.53564 0
M  V30 32749 H 3119.39 -1.15682 -5.39742 0
M  V30 32750 H 3119.87 0.205762 -4.38718 0
M  V30 32751 H 3120.48 -1.42287 -4.00793 0
M  V30 32752 N 3118.79 1.34753 -0.817283 0
M  V30 32753 C 3120.04 1.9875 -0.403279 0
M  V30 32754 C 3120.37 1.6466 1.0296 0
M  V30 32755 O 3119.64 0.915344 1.71615 0
M  V30 32756 C 3119.93 3.55079 -0.59925 0
M  V30 32757 C 3119.78 3.98931 -2.07784 0
M  V30 32758 C 3121.1 4.40089 -0.0316429 0
M  V30 32759 H 3118.22 0.721987 -0.148001 0
M  V30 32760 H 3120.86 1.59736 -1.0288 0
M  V30 32761 H 3119.01 3.88443 -0.0667799 0
M  V30 32762 H 3120.68 3.75927 -2.67352 0
M  V30 32763 H 3118.93 3.49448 -2.57037 0
M  V30 32764 H 3119.6 5.07737 -2.1658 0
M  V30 32765 H 3122.07 4.13246 -0.486512 0
M  V30 32766 H 3120.95 5.48541 -0.198604 0
M  V30 32767 H 3121.21 4.29132 1.06295 0
M  V30 32768 N 3120.27 0.571737 1.46864 0
M  V30 32769 C 3121.5 0.0584339 2.06817 0
M  V30 32770 C 3121.91 -1.24173 1.4222 0
M  V30 32771 O 3121.27 -1.74825 0.523686 0
M  V30 32772 C 3121.32 -0.125609 3.61282 0
M  V30 32773 O 3121.04 1.12308 4.2346 0
M  V30 32774 C 3122.54 -0.674527 4.38138 0
M  V30 32775 H 3119.76 0.0524497 0.668947 0
M  V30 32776 H 3122.31 0.789285 1.88655 0
M  V30 32777 H 3120.46 -0.80664 3.78909 0
M  V30 32778 H 3120.88 0.929959 5.1619 0
M  V30 32779 H 3122.35 -0.75253 5.46846 0
M  V30 32780 H 3122.83 -1.68908 4.05422 0
M  V30 32781 H 3123.43 -0.0287231 4.2529 0
M  V30 32782 N 3121.75 -1.54542 0.308935 0
M  V30 32783 C 3122.99 -2.01304 -0.291276 0
M  V30 32784 C 3123.35 -1.19342 -1.50915 0
M  V30 32785 O 3122.64 -0.263757 -1.89776 0
M  V30 32786 C 3122.84 -3.50647 -0.69146 0
M  V30 32787 C 3122.66 -4.47065 0.486086 0
M  V30 32788 C 3121.43 -4.95694 0.980603 0
M  V30 32789 C 3123.63 -4.96709 1.33361 0
M  V30 32790 N 3121.61 -5.75983 2.12408 0
M  V30 32791 C 3122.99 -5.74777 2.32446 0
M  V30 32792 C 3125.04 -4.78879 1.36306 0
M  V30 32793 C 3123.74 -6.36915 3.34263 0
M  V30 32794 C 3125.77 -5.41841 2.36986 0
M  V30 32795 C 3125.13 -6.19749 3.348 0
M  V30 32796 H 3121.23 -0.778786 -0.0708281 0
M  V30 32797 H 3123.81 -1.89648 0.440654 0
M  V30 32798 H 3121.99 -3.62578 -1.39255 0
M  V30 32799 H 3123.72 -3.84194 -1.27189 0
M  V30 32800 H 3120.47 -4.70345 0.554272 0
M  V30 32801 H 3120.9 -6.20809 2.70046 0
M  V30 32802 H 3125.54 -4.18221 0.620546 0
M  V30 32803 H 3123.26 -6.96702 4.09429 0
M  V30 32804 H 3126.84 -5.2997 2.40049 0
M  V30 32805 H 3125.72 -6.67604 4.1143 0
M  V30 32806 N 3123.23 -0.0368104 -1.57557 0
M  V30 32807 C 3124.14 0.957979 -2.14149 0
M  V30 32808 C 3125.15 1.35171 -1.09566 0
M  V30 32809 O 3126.33 1.43156 -1.41663 0
M  V30 32810 C 3123.39 2.21926 -2.66364 0
M  V30 32811 C 3122.45 1.88523 -3.85691 0
M  V30 32812 C 3121.69 3.08638 -4.35406 0
M  V30 32813 O 3121.91 4.21547 -3.84258 0
M  V30 32814 O 3120.84 2.90488 -5.27163 0
M  V30 32815 H 3124.67 0.506744 -2.99442 0
M  V30 32816 H 3122.25 0.184249 -1.4826 0
M  V30 32817 H 3124.14 2.95955 -2.99981 0
M  V30 32818 H 3122.81 2.66215 -1.8415 0
M  V30 32819 H 3121.72 1.11855 -3.56986 0
M  V30 32820 H 3123.05 1.49044 -4.69091 0
M  V30 32821 N 3124.7 1.55817 0.236426 0
M  V30 32822 C 3125.65 1.92028 1.31256 0
M  V30 32823 C 3126.65 0.800544 1.4929 0
M  V30 32824 O 3127.85 0.985256 1.50641 0
M  V30 32825 H 3124.23 0.610027 0.43974 0
M  V30 32826 H 3126.2 2.81853 0.979877 0
M  V30 32827 C 3124.95 2.24051 2.65888 0
M  V30 32828 H 3124.27 3.09718 2.52814 0
M  V30 32829 H 3125.71 2.53283 3.40035 0
M  V30 32830 C 3124.17 1.06045 3.19775 0
M  V30 32831 O 3124.7 0.313856 4.00472 0
M  V30 32832 N 3122.9 0.848258 2.77944 0
M  V30 32833 H 3122.45 1.45709 2.1243 0
M  V30 32834 H 3122.41 0.0603977 3.14342 0
M  V30 32835 N 3126.18 -0.502526 1.49373 0
M  V30 32836 C 3127.43 -1.25861 1.59018 0
M  V30 32837 C 3127.76 -1.92238 0.275353 0
M  V30 32838 O 3127.04 -1.80645 -0.720956 0
M  V30 32839 C 3127.32 -2.32678 2.74832 0
M  V30 32840 C 3127.17 -1.70813 4.16105 0
M  V30 32841 C 3128.49 -3.34251 2.86294 0
M  V30 32842 H 3125.61 -0.456237 0.578806 0
M  V30 32843 H 3128.25 -0.557 1.81652 0
M  V30 32844 H 3126.4 -2.9252 2.55665 0
M  V30 32845 H 3128.07 -1.1481 4.46784 0
M  V30 32846 H 3126.32 -1.0123 4.21823 0
M  V30 32847 H 3126.99 -2.48283 4.93011 0
M  V30 32848 H 3129.46 -2.84399 3.03738 0
M  V30 32849 H 3128.34 -4.06355 3.69008 0
M  V30 32850 H 3128.6 -3.96484 1.95583 0
M  V30 32851 N 3127.66 -1.38422 -0.75346 0
M  V30 32852 C 3128.89 -1.37871 -1.5427 0
M  V30 32853 C 3129.3 0.0314823 -1.88774 0
M  V30 32854 O 3128.66 0.998121 -1.52787 0
M  V30 32855 C 3128.71 -2.23443 -2.84175 0
M  V30 32856 O 3128.43 -3.58969 -2.51143 0
M  V30 32857 C 3129.93 -2.31074 -3.78312 0
M  V30 32858 H 3127.15 -0.471578 -0.477342 0
M  V30 32859 H 3129.7 -1.82003 -0.932477 0
M  V30 32860 H 3127.85 -1.82773 -3.41574 0
M  V30 32861 H 3128.27 -4.04027 -3.34459 0
M  V30 32862 H 3129.74 -2.95234 -4.66413 0
M  V30 32863 H 3130.22 -1.32443 -4.18755 0
M  V30 32864 H 3130.82 -2.72135 -3.26837 0
M  V30 32865 N 3129.14 0.981655 -1.23294 0
M  V30 32866 C 3130.38 1.72277 -1.06427 0
M  V30 32867 C 3130.71 1.90363 0.399021 0
M  V30 32868 O 3129.97 1.45226 1.31179 0
M  V30 32869 C 3130.27 3.12548 -1.73344 0
M  V30 32870 C 3129.93 3.14345 -3.23261 0
M  V30 32871 C 3128.59 3.14543 -3.64165 0
M  V30 32872 C 3130.95 3.09758 -4.19165 0
M  V30 32873 C 3128.27 3.07868 -4.99434 0
M  V30 32874 C 3130.63 3.04625 -5.54424 0
M  V30 32875 C 3129.29 3.03144 -5.94693 0
M  V30 32876 H 3128.56 0.630408 -0.389445 0
M  V30 32877 H 3131.21 1.14887 -1.5321 0
M  V30 32878 H 3129.51 3.73317 -1.18918 0
M  V30 32879 H 3131.21 3.68658 -1.57773 0
M  V30 32880 H 3127.8 3.14948 -2.90699 0
M  V30 32881 H 3131.98 3.08746 -3.88574 0
M  V30 32882 H 3127.24 3.05073 -5.29849 0
M  V30 32883 H 3131.41 3.00032 -6.28453 0
M  V30 32884 H 3129.04 2.97726 -6.99473 0
M  V30 32885 N 3130.62 1.04444 1.18022 0
M  V30 32886 C 3131.55 0.659722 2.23986 0
M  V30 32887 C 3132.53 -0.338875 1.6669 0
M  V30 32888 O 3133.71 -0.218136 1.92971 0
M  V30 32889 C 3130.84 0.0258283 3.4729 0
M  V30 32890 C 3129.8 0.948373 4.17361 0
M  V30 32891 C 3129.12 0.178754 5.34401 0
M  V30 32892 C 3130.42 2.26918 4.70431 0
M  V30 32893 H 3132.12 1.54558 2.56422 0
M  V30 32894 H 3129.66 0.744596 1.23255 0
M  V30 32895 H 3131.61 -0.255057 4.20627 0
M  V30 32896 H 3130.34 -0.894926 3.141 0
M  V30 32897 H 3129 1.2137 3.45926 0
M  V30 32898 H 3128.65 -0.744526 4.97459 0
M  V30 32899 H 3128.35 0.793397 5.82219 0
M  V30 32900 H 3129.87 -0.0950242 6.10526 0
M  V30 32901 H 3131.28 2.04873 5.35444 0
M  V30 32902 H 3129.68 2.83712 5.28798 0
M  V30 32903 H 3130.75 2.91303 3.87648 0
M  V30 32904 N 3132.09 -1.34317 0.824418 0
M  V30 32905 C 3133.04 -2.29493 0.245322 0
M  V30 32906 C 3134.01 -1.53659 -0.630735 0
M  V30 32907 O 3135.2 -1.82022 -0.572062 0
M  V30 32908 C 3132.34 -3.40096 -0.585572 0
M  V30 32909 C 3131.45 -4.30865 0.312897 0
M  V30 32910 C 3130.58 -5.28572 -0.527708 0
M  V30 32911 C 3129.62 -6.1098 0.370054 0
M  V30 32912 N 3128.76 -7.00772 -0.431566 0
M  V30 32913 H 3133.6 -2.78423 1.0623 0
M  V30 32914 H 3131.14 -1.37012 0.535354 0
M  V30 32915 H 3133.09 -4.02908 -1.08264 0
M  V30 32916 H 3131.72 -2.92396 -1.36765 0
M  V30 32917 H 3130.78 -3.68902 0.928194 0
M  V30 32918 H 3132.09 -4.88609 1.00315 0
M  V30 32919 H 3131.24 -5.96843 -1.0892 0
M  V30 32920 H 3129.98 -4.7137 -1.25146 0
M  V30 32921 H 3128.99 -5.41641 0.943672 0
M  V30 32922 H 3130.21 -6.70264 1.09194 0
M  V30 32923 H 3128.16 -6.46037 -1.13896 0
M  V30 32924 H 3128.07 -7.55735 0.200266 0
M  V30 32925 H 3129.34 -7.73369 -0.975759 0
M  V30 32926 N 3133.57 -0.579517 -1.46558 0
M  V30 32927 C 3134.99 -0.240948 -1.57771 0
M  V30 32928 C 3135.19 1.25673 -1.57507 0
M  V30 32929 O 3134.24 2.03827 -1.49034 0
M  V30 32930 C 3135.56 -0.887335 -2.8731 0
M  V30 32931 C 3137.1 -0.860629 -3.00935 0
M  V30 32932 C 3137.58 -1.4865 -4.33206 0
M  V30 32933 N 3139.07 -1.45069 -4.39897 0
M  V30 32934 C 3139.81 -1.90437 -5.40852 0
M  V30 32935 N 3139.3 -2.43764 -6.48499 0
M  V30 32936 N 3141.09 -1.81373 -5.32034 0
M  V30 32937 H 3133.25 -1.5523 -1.44974 0
M  V30 32938 H 3135.51 -0.648652 -0.691343 0
M  V30 32939 H 3135.21 -1.94076 -2.93304 0
M  V30 32940 H 3135.09 -0.393643 -3.7514 0
M  V30 32941 H 3137.48 0.184171 -2.94525 0
M  V30 32942 H 3137.56 -1.39231 -2.14589 0
M  V30 32943 H 3137.2 -2.53048 -4.40374 0
M  V30 32944 H 3137.13 -0.930072 -5.18322 0
M  V30 32945 H 3139.62 -1.06086 -3.62704 0
M  V30 32946 H 3139.93 -2.76247 -7.21739 0
M  V30 32947 H 3138.28 -2.47787 -6.49328 0
M  V30 32948 H 3141.47 -1.39473 -4.46839 0
M  V30 32949 H 3141.64 -2.17046 -6.10569 0
M  V30 32950 N 3135.05 1.54376 -0.317127 0
M  V30 32951 C 3136.3 2.00451 0.287375 0
M  V30 32952 C 3136.63 1.20538 1.52646 0
M  V30 32953 O 3135.88 0.273865 1.93774 0
M  V30 32954 C 3136.18 3.51009 0.672855 0
M  V30 32955 C 3135.85 4.48482 -0.466324 0
M  V30 32956 C 3134.51 4.74852 -0.779016 0
M  V30 32957 C 3136.86 5.06434 -1.23185 0
M  V30 32958 C 3134.19 5.56434 -1.86007 0
M  V30 32959 C 3136.54 5.89192 -2.30294 0
M  V30 32960 C 3135.2 6.13867 -2.62152 0
M  V30 32961 H 3134.47 0.7335 0.105158 0
M  V30 32962 H 3137.12 1.86387 -0.439571 0
M  V30 32963 H 3135.43 3.62766 1.48013 0
M  V30 32964 H 3137.12 3.84096 1.15202 0
M  V30 32965 H 3133.71 4.28073 -0.212524 0
M  V30 32966 H 3137.9 4.86048 -1.00353 0
M  V30 32967 H 3133.15 5.73784 -2.11144 0
M  V30 32968 H 3137.33 6.33118 -2.90059 0
M  V30 32969 H 3134.95 6.76871 -3.46049 0
M  V30 32970 N 3136.53 0.0451655 1.57535 0
M  V30 32971 C 3137.78 -0.629953 1.92452 0
M  V30 32972 C 3138.1 -1.71204 0.92301 0
M  V30 32973 O 3137.36 -1.9559 -0.0656282 0
M  V30 32974 C 3137.66 -1.27019 3.34067 0
M  V30 32975 C 3137.32 -0.316891 4.49785 0
M  V30 32976 C 3135.99 -0.0545561 4.81169 0
M  V30 32977 C 3138.34 0.336785 5.20111 0
M  V30 32978 C 3135.67 0.868992 5.80229 0
M  V30 32979 C 3138.02 1.24849 6.20158 0
M  V30 32980 C 3136.68 1.51955 6.49974 0
M  V30 32981 H 3135.95 -0.230516 0.704232 0
M  V30 32982 H 3138.6 0.110362 1.91182 0
M  V30 32983 H 3136.9 -2.08563 3.31676 0
M  V30 32984 H 3138.6 -1.79939 3.58362 0
M  V30 32985 H 3135.19 -0.53154 4.25291 0
M  V30 32986 H 3139.37 0.147192 4.96082 0
M  V30 32987 H 3134.63 1.08654 6.01668 0
M  V30 32988 H 3138.8 1.7611 6.73764 0
M  V30 32989 H 3136.43 2.23683 7.26547 0
M  V30 32990 N 3138.01 -1.5594 -0.228159 0
M  V30 32991 C 3139.42 -1.48783 -0.577557 0
M  V30 32992 C 3139.62 -0.739004 -1.87459 0
M  V30 32993 O 3138.68 -0.275973 -2.50987 0
M  V30 32994 C 3139.99 -2.93302 -0.66291 0
M  V30 32995 C 3141.54 -3.03783 -0.753982 0
M  V30 32996 C 3142.01 -4.49647 -0.870736 0
M  V30 32997 N 3143.51 -4.53662 -0.935128 0
M  V30 32998 C 3144.24 -5.63796 -1.04506 0
M  V30 32999 N 3143.74 -6.83697 -1.11936 0
M  V30 33000 N 3145.53 -5.51633 -1.07968 0
M  V30 33001 H 3137.68 -2.03056 0.623054 0
M  V30 33002 H 3139.94 -0.922663 0.217709 0
M  V30 33003 H 3139.65 -3.51008 0.220437 0
M  V30 33004 H 3139.52 -3.44834 -1.5287 0
M  V30 33005 H 3141.91 -2.46145 -1.62777 0
M  V30 33006 H 3141.99 -2.55431 0.137346 0
M  V30 33007 H 3141.64 -5.079 -0.00142932 0
M  V30 33008 H 3141.57 -4.95698 -1.77738 0
M  V30 33009 H 3144.06 -3.67311 -0.888296 0
M  V30 33010 H 3144.37 -7.63382 -1.20283 0
M  V30 33011 H 3142.71 -6.86421 -1.0886 0
M  V30 33012 H 3145.91 -4.56891 -1.01825 0
M  V30 33013 H 3146.08 -6.37498 -1.16191 0
M  V30 33014 N 3139.48 0.494597 -1.49638 0
M  V30 33015 C 3140.45 1.57772 -1.66255 0
M  V30 33016 C 3141.45 1.51671 -0.534081 0
M  V30 33017 O 3142.64 1.54709 -0.800664 0
M  V30 33018 C 3139.77 2.97423 -1.6659 0
M  V30 33019 H 3140.96 1.44365 -2.62866 0
M  V30 33020 H 3138.52 0.719299 -1.38765 0
M  V30 33021 H 3139.25 3.16301 -0.715854 0
M  V30 33022 H 3139.04 3.0326 -2.48548 0
M  V30 33023 H 3140.53 3.76105 -1.8148 0
M  V30 33024 N 3140.96 1.3882 0.746109 0
M  V30 33025 C 3142.24 1.25953 1.4965 0
M  V30 33026 C 3142.62 -0.135796 2.10663 0
M  V30 33027 O 3141.97 -1.14601 1.97684 0
M  V30 33028 C 3142.18 2.37541 2.55686 0
M  V30 33029 C 3143.53 2.76326 3.2238 0
M  V30 33030 O 3144.55 2.36909 2.65994 0
M  V30 33031 O 3143.41 3.44327 4.24384 0
M  V30 33032 H 3140.5 0.49297 0.66401 0
M  V30 33033 H 3143.05 1.50666 0.780882 0
M  V30 33034 H 3141.82 3.30871 2.08903 0
M  V30 33035 H 3141.44 2.14433 3.3482 0
M  V30 33036 N 3142.44 -0.975103 1.23812 0
M  V30 33037 C 3143.35 -2.10247 1.04084 0
M  V30 33038 C 3144.37 -1.73992 -0.0162098 0
M  V30 33039 O 3145.54 -2.00591 0.180381 0
M  V30 33040 C 3142.61 -3.4074 0.640073 0
M  V30 33041 C 3141.67 -3.90988 1.77277 0
M  V30 33042 C 3140.9 -5.15253 1.39103 0
M  V30 33043 O 3141.12 -5.69724 0.277583 0
M  V30 33044 O 3140.06 -5.59701 2.21402 0
M  V30 33045 H 3143.88 -2.29782 1.98579 0
M  V30 33046 H 3141.47 -1.08631 1.02565 0
M  V30 33047 H 3143.35 -4.19223 0.427758 0
M  V30 33048 H 3142.03 -3.22523 -0.275833 0
M  V30 33049 H 3140.93 -3.13599 2.03977 0
M  V30 33050 H 3142.27 -4.13669 2.66718 0
M  V30 33051 N 3143.92 -1.05068 -1.17467 0
M  V30 33052 C 3144.87 -0.650551 -2.21442 0
M  V30 33053 C 3145.84 0.346674 -1.62442 0
M  V30 33054 O 3147.02 0.238371 -1.89305 0
M  V30 33055 C 3144.16 -0.0301621 -3.45087 0
M  V30 33056 C 3143.27 -1.07607 -4.18384 0
M  V30 33057 C 3142.41 -0.423131 -5.29512 0
M  V30 33058 C 3141.45 -1.45343 -5.94594 0
M  V30 33059 N 3140.58 -0.824745 -6.97239 0
M  V30 33060 H 3145.42 -1.54167 -2.55022 0
M  V30 33061 H 3142.96 -0.771054 -1.25272 0
M  V30 33062 H 3144.92 0.346959 -4.15755 0
M  V30 33063 H 3143.55 0.824426 -3.12095 0
M  V30 33064 H 3142.6 -1.57103 -3.46443 0
M  V30 33065 H 3143.91 -1.85821 -4.62895 0
M  V30 33066 H 3143.07 0.00764311 -6.067 0
M  V30 33067 H 3141.81 0.391007 -4.8613 0
M  V30 33068 H 3140.81 -1.89424 -5.16138 0
M  V30 33069 H 3142.04 -2.26945 -6.40057 0
M  V30 33070 H 3139.98 -0.0310957 -6.55993 0
M  V30 33071 H 3139.9 -1.54445 -7.40056 0
M  V30 33072 H 3141.17 -0.418703 -7.78375 0
M  V30 33073 N 3145.4 1.33878 -0.831529 0
M  V30 33074 C 3146.63 2.0194 -0.436327 0
M  V30 33075 C 3147.03 1.62743 0.96495 0
M  V30 33076 O 3146.38 0.832923 1.63732 0
M  V30 33077 C 3146.44 3.56429 -0.468874 0
M  V30 33078 C 3146.1 4.18979 -1.82498 0
M  V30 33079 C 3147.1 4.3888 -2.78712 0
M  V30 33080 C 3144.79 4.55564 -2.11582 0
M  V30 33081 C 3146.78 4.94502 -4.02177 0
M  V30 33082 C 3144.47 5.10895 -3.35304 0
M  V30 33083 C 3145.46 5.3031 -4.30419 0
M  V30 33084 O 3145.15 5.84467 -5.51954 0
M  V30 33085 H 3144.88 0.653661 -0.172347 0
M  V30 33086 H 3147.44 1.71945 -1.12357 0
M  V30 33087 H 3145.67 3.8572 0.275111 0
M  V30 33088 H 3147.36 4.05795 -0.0925232 0
M  V30 33089 H 3148.12 4.10971 -2.57542 0
M  V30 33090 H 3144 4.39752 -1.38346 0
M  V30 33091 H 3147.55 5.09571 -4.76427 0
M  V30 33092 H 3143.44 5.38234 -3.56335 0
M  V30 33093 H 3144.21 6.02891 -5.53593 0
M  V30 33094 N 3146.87 0.587281 1.46249 0
M  V30 33095 C 3148.29 0.161951 1.85996 0
M  V30 33096 C 3148.64 -1.27614 1.49027 0
M  V30 33097 O 3147.76 -1.96461 0.907316 0
M  V30 33098 C 3148.36 0.287137 3.37581 0
M  V30 33099 C 3146.92 -0.083355 3.76308 0
M  V30 33100 C 3146.06 0.620979 2.70258 0
M  V30 33101 H 3149.01 0.795223 1.37339 0
M  V30 33102 H 3149.03 -0.486266 3.7738 0
M  V30 33103 H 3148.55 1.3339 3.64457 0
M  V30 33104 H 3146.65 -1.13007 3.55049 0
M  V30 33105 H 3146.76 0.296148 4.78184 0
M  V30 33106 H 3145.12 0.0607475 2.54628 0
M  V30 33107 H 3145.91 1.66948 2.99972 0
M  V30 33108 N 3148.35 -1.54206 0.325309 0
M  V30 33109 C 3149.6 -2.006 -0.27674 0
M  V30 33110 C 3149.93 -1.21346 -1.52005 0
M  V30 33111 O 3149.18 -0.284138 -1.93626 0
M  V30 33112 C 3149.48 -3.51361 -0.654231 0
M  V30 33113 C 3149.15 -4.48229 0.490101 0
M  V30 33114 C 3147.81 -4.74433 0.804188 0
M  V30 33115 C 3150.16 -5.05773 1.25869 0
M  V30 33116 C 3147.49 -5.55439 1.88955 0
M  V30 33117 C 3149.84 -5.87963 2.33415 0
M  V30 33118 C 3148.51 -6.12468 2.65404 0
M  V30 33119 H 3147.78 -0.734048 -0.101266 0
M  V30 33120 H 3150.42 -1.86151 0.449449 0
M  V30 33121 H 3148.73 -3.63546 -1.46087 0
M  V30 33122 H 3150.42 -3.84701 -1.13164 0
M  V30 33123 H 3147.01 -4.27954 0.235223 0
M  V30 33124 H 3151.2 -4.85509 1.02929 0
M  V30 33125 H 3146.45 -5.72656 2.14184 0
M  V30 33126 H 3150.63 -6.31571 2.93413 0
M  V30 33127 H 3148.26 -6.75026 3.49634 0
M  V30 33128 N 3149.83 -0.0535194 -1.57509 0
M  V30 33129 C 3150.76 0.917961 -2.14699 0
M  V30 33130 C 3151.74 1.32291 -1.06926 0
M  V30 33131 O 3152.93 1.3972 -1.34877 0
M  V30 33132 C 3150.06 2.19198 -2.69387 0
M  V30 33133 C 3149.01 1.92703 -3.82164 0
M  V30 33134 C 3148.34 3.26579 -4.23379 0
M  V30 33135 C 3149.64 1.24677 -5.07201 0
M  V30 33136 H 3151.33 0.441598 -2.96125 0
M  V30 33137 H 3148.88 0.210968 -1.42446 0
M  V30 33138 H 3150.83 2.87561 -3.08036 0
M  V30 33139 H 3149.55 2.69044 -1.85156 0
M  V30 33140 H 3148.21 1.26751 -3.43991 0
M  V30 33141 H 3147.86 3.74231 -3.36095 0
M  V30 33142 H 3147.56 3.09649 -4.99391 0
M  V30 33143 H 3149.09 3.9617 -4.6463 0
M  V30 33144 H 3150.5 1.83078 -5.43282 0
M  V30 33145 H 3148.9 1.18065 -5.88371 0
M  V30 33146 H 3149.97 0.223142 -4.84386 0
M  V30 33147 N 3151.31 1.56059 0.219886 0
M  V30 33148 C 3152.56 1.78347 0.942087 0
M  V30 33149 C 3152.87 0.622377 1.85434 0
M  V30 33150 O 3154.08 0.728932 2.61532 0
M  V30 33151 C 3152.53 3.15846 1.72538 0
M  V30 33152 C 3152.14 4.39684 0.859186 0
M  V30 33153 C 3153.89 3.47459 2.4387 0
M  V30 33154 C 3151.79 5.68208 1.63993 0
M  V30 33155 H 3150.72 0.664932 0.355502 0
M  V30 33156 H 3153.37 1.82451 0.195931 0
M  V30 33157 H 3151.76 3.05922 2.51451 0
M  V30 33158 H 3152.93 4.60668 0.110481 0
M  V30 33159 H 3151.24 4.156 0.257912 0
M  V30 33160 H 3153.84 4.40709 3.02787 0
M  V30 33161 H 3154.18 2.70036 3.16838 0
M  V30 33162 H 3154.72 3.58719 1.71946 0
M  V30 33163 H 3151.46 6.48528 0.953492 0
M  V30 33164 H 3150.98 5.51283 2.3632 0
M  V30 33165 H 3152.66 6.08442 2.20017 0
M  V30 33166 N 3152.79 -0.486655 1.49898 0
M  V30 33167 C 3153.74 -1.58378 1.64013 0
M  V30 33168 C 3154.72 -1.53089 0.495242 0
M  V30 33169 O 3155.91 -1.60376 0.748904 0
M  V30 33170 C 3153.04 -2.96915 1.72326 0
M  V30 33171 C 3152.13 -3.07147 2.9244 0
M  V30 33172 N 3152.52 -2.87231 4.16331 0
M  V30 33173 C 3150.82 -3.38266 2.90675 0
M  V30 33174 C 3151.52 -3.02022 4.97149 0
M  V30 33175 N 3150.49 -3.31536 4.30795 0
M  V30 33176 H 3154.3 -1.41656 2.57509 0
M  V30 33177 H 3151.81 -0.69308 1.46868 0
M  V30 33178 H 3153.81 -3.75781 1.80539 0
M  V30 33179 H 3152.47 -3.14696 0.799779 0
M  V30 33180 H 3153.48 -2.6312 4.46081 0
M  V30 33181 H 3150.16 -3.62133 2.07764 0
M  V30 33182 H 3151.55 -2.90995 6.05616 0
M  V30 33183 N 3154.27 -1.39214 -0.738737 0
M  V30 33184 C 3155.68 -1.32351 -1.31682 0
M  V30 33185 C 3156.03 0.0138696 -1.96195 0
M  V30 33186 O 3155.15 0.915991 -1.96058 0
M  V30 33187 C 3155.75 -2.39695 -2.3944 0
M  V30 33188 C 3154.31 -2.36365 -2.92931 0
M  V30 33189 C 3153.45 -2.21779 -1.66461 0
M  V30 33190 H 3156.4 -1.49356 -0.536517 0
M  V30 33191 H 3156.43 -2.06268 -3.1974 0
M  V30 33192 H 3155.94 -3.37019 -1.92457 0
M  V30 33193 H 3154.04 -1.42668 -3.44204 0
M  V30 33194 H 3154.15 -3.31079 -3.463 0
M  V30 33195 H 3152.52 -1.68887 -1.90654 0
M  V30 33196 H 3153.3 -3.21067 -1.21535 0
M  V30 33197 N 3155.74 0.968523 -1.24328 0
M  V30 33198 C 3156.99 1.71392 -1.08409 0
M  V30 33199 C 3157.32 1.90519 0.376319 0
M  V30 33200 O 3156.6 1.46609 1.27813 0
M  V30 33201 C 3156.88 3.10517 -1.82349 0
M  V30 33202 C 3156.73 2.98887 -3.36135 0
M  V30 33203 C 3158.05 4.1016 -1.59552 0
M  V30 33204 H 3155.17 0.622072 -0.395216 0
M  V30 33205 H 3157.81 1.12675 -1.52985 0
M  V30 33206 H 3155.96 3.60644 -1.44459 0
M  V30 33207 H 3157.64 2.56193 -3.83618 0
M  V30 33208 H 3155.88 2.35117 -3.64558 0
M  V30 33209 H 3156.55 3.97443 -3.83071 0
M  V30 33210 H 3159.03 3.68889 -1.92511 0
M  V30 33211 H 3157.9 5.05573 -2.13745 0
M  V30 33212 H 3158.16 4.38868 -0.53358 0
M  V30 33213 N 3157.22 1.0569 1.16908 0
M  V30 33214 C 3158.15 0.606577 2.19991 0
M  V30 33215 C 3159.13 -0.367455 1.58394 0
M  V30 33216 O 3160.32 -0.277882 1.86441 0
M  V30 33217 C 3157.44 -0.111604 3.38516 0
M  V30 33218 C 3156.49 0.818226 4.18578 0
M  V30 33219 S 3157.32 2.31014 4.83107 0
M  V30 33220 C 3158.48 1.60328 6.05017 0
M  V30 33221 H 3158.71 1.47992 2.57848 0
M  V30 33222 H 3156.24 0.869313 1.27602 0
M  V30 33223 H 3158.2 -0.519758 4.07196 0
M  V30 33224 H 3156.86 -0.96105 2.99036 0
M  V30 33225 H 3156.06 0.262181 5.03318 0
M  V30 33226 H 3155.66 1.16598 3.5536 0
M  V30 33227 H 3157.95 0.905428 6.71423 0
M  V30 33228 H 3158.89 2.42835 6.65159 0
M  V30 33229 H 3159.3 1.08851 5.53906 0
M  V30 33230 N 3158.7 -1.33435 0.838617 0
M  V30 33231 C 3160.11 -1.80129 0.490966 0
M  V30 33232 C 3160.46 -1.69392 -0.989994 0
M  V30 33233 O 3159.59 -1.24305 -1.77136 0
M  V30 33234 C 3160.18 -3.27053 0.884405 0
M  V30 33235 C 3158.74 -3.71765 0.588894 0
M  V30 33236 C 3157.89 -2.54856 1.09287 0
M  V30 33237 H 3160.84 -1.2096 1.02734 0
M  V30 33238 H 3160.86 -3.80003 0.19435 0
M  V30 33239 H 3160.37 -3.34836 1.96231 0
M  V30 33240 H 3158.47 -3.69509 -0.478953 0
M  V30 33241 H 3158.59 -4.65242 1.14395 0
M  V30 33242 H 3156.95 -2.49465 0.513746 0
M  V30 33243 H 3157.73 -2.65401 2.17754 0
M  V30 33244 N 3160.18 -0.595029 -1.45935 0
M  V30 33245 C 3161.11 0.179735 -2.27491 0
M  V30 33246 C 3162.09 0.885427 -1.36378 0
M  V30 33247 O 3163.27 0.896834 -1.65798 0
M  V30 33248 C 3160.4 1.25896 -3.14433 0
M  V30 33249 C 3159.45 0.657773 -4.21397 0
M  V30 33250 S 3160.28 -0.524782 -5.32922 0
M  V30 33251 C 3161.43 0.555342 -6.23431 0
M  V30 33252 H 3161.67 -0.512225 -2.92854 0
M  V30 33253 H 3159.2 -0.382225 -1.49594 0
M  V30 33254 H 3161.16 1.8768 -3.65084 0
M  V30 33255 H 3159.82 1.92293 -2.48359 0
M  V30 33256 H 3159.01 1.4694 -4.82104 0
M  V30 33257 H 3158.61 0.115338 -3.73822 0
M  V30 33258 H 3160.91 1.43778 -6.62068 0
M  V30 33259 H 3161.85 -0.0152676 -7.08098 0
M  V30 33260 H 3162.26 0.865027 -5.57833 0
M  V30 33261 N 3161.66 1.54031 -0.333483 0
M  V30 33262 C 3162.6 2.24681 0.527942 0
M  V30 33263 C 3163.57 1.24129 1.10369 0
M  V30 33264 O 3164.76 1.52836 1.14218 0
M  V30 33265 C 3161.9 3.01556 1.67803 0
M  V30 33266 C 3161.01 4.16944 1.13056 0
M  V30 33267 C 3160.15 4.81328 2.24714 0
M  V30 33268 C 3159.18 5.88802 1.67267 0
M  V30 33269 N 3158.32 6.47008 2.72626 0
M  V30 33270 H 3163.16 2.9789 -0.0810831 0
M  V30 33271 H 3160.7 1.47009 -0.0517868 0
M  V30 33272 H 3162.66 3.4438 2.35496 0
M  V30 33273 H 3161.29 2.30663 2.25819 0
M  V30 33274 H 3160.34 3.78833 0.344882 0
M  V30 33275 H 3161.65 4.94276 0.670286 0
M  V30 33276 H 3160.8 5.27172 3.00292 0
M  V30 33277 H 3159.54 4.03399 2.74082 0
M  V30 33278 H 3158.55 5.42352 0.901907 0
M  V30 33279 H 3159.77 6.68634 1.18763 0
M  V30 33280 H 3157.72 5.71947 3.21267 0
M  V30 33281 H 3157.64 7.19782 2.31191 0
M  V30 33282 H 3158.9 6.97506 3.48003 0
M  V30 33283 N 3163.13 0.0618717 1.57479 0
M  V30 33284 C 3164.04 -0.923788 2.15646 0
M  V30 33285 C 3165.06 -1.33411 1.11703 0
M  V30 33286 O 3166.24 -1.40884 1.43922 0
M  V30 33287 C 3163.3 -2.1766 2.69861 0
M  V30 33288 C 3162.36 -1.82363 3.88642 0
M  V30 33289 C 3161.59 -3.01672 4.40261 0
M  V30 33290 O 3161.82 -4.15381 3.90916 0
M  V30 33291 O 3160.75 -2.82064 5.31717 0
M  V30 33292 H 3164.58 -0.459042 3.00211 0
M  V30 33293 H 3162.16 -0.160639 1.48534 0
M  V30 33294 H 3164.04 -2.91145 3.04652 0
M  V30 33295 H 3162.72 -2.63252 1.88362 0
M  V30 33296 H 3161.63 -1.06161 3.58721 0
M  V30 33297 H 3162.96 -1.41562 4.71403 0
M  V30 33298 N 3164.61 -1.56173 -0.211607 0
M  V30 33299 C 3165.86 -1.78844 -0.932616 0
M  V30 33300 C 3166.17 -0.632202 -1.85101 0
M  V30 33301 O 3167.38 -0.742792 -2.61141 0
M  V30 33302 C 3165.84 -3.16756 -1.70861 0
M  V30 33303 C 3165.44 -4.40133 -0.835856 0
M  V30 33304 C 3167.19 -3.48747 -2.42024 0
M  V30 33305 C 3165.1 -5.6907 -1.60977 0
M  V30 33306 H 3164.03 -0.666808 -0.351971 0
M  V30 33307 H 3166.68 -1.82552 -0.186252 0
M  V30 33308 H 3165.06 -3.07252 -2.49825 0
M  V30 33309 H 3166.23 -4.6072 -0.0860489 0
M  V30 33310 H 3164.55 -4.15731 -0.235868 0
M  V30 33311 H 3167.14 -4.42308 -3.00445 0
M  V30 33312 H 3167.49 -2.71712 -3.15402 0
M  V30 33313 H 3168.02 -3.59626 -1.70041 0
M  V30 33314 H 3164.76 -6.49025 -0.919085 0
M  V30 33315 H 3164.28 -5.52528 -2.33393 0
M  V30 33316 H 3165.96 -6.096 -2.16787 0
M  V30 33317 N 3166.09 0.478699 -1.50154 0
M  V30 33318 C 3167.04 1.57506 -1.64851 0
M  V30 33319 C 3168.02 1.52824 -0.503354 0
M  V30 33320 O 3169.22 1.59976 -0.757399 0
M  V30 33321 C 3166.35 2.95997 -1.73898 0
M  V30 33322 C 3165.43 3.05592 -2.94065 0
M  V30 33323 N 3165.82 2.85019 -4.17849 0
M  V30 33324 C 3164.12 3.3672 -2.92465 0
M  V30 33325 C 3164.82 2.99381 -4.98744 0
M  V30 33326 N 3163.8 3.29247 -4.32548 0
M  V30 33327 H 3167.6 1.40289 -2.58256 0
M  V30 33328 H 3165.11 0.685281 -1.47233 0
M  V30 33329 H 3167.11 3.74818 -1.82529 0
M  V30 33330 H 3165.77 3.14268 -0.816457 0
M  V30 33331 H 3166.78 2.60751 -4.4747 0
M  V30 33332 H 3163.46 3.61026 -2.09682 0
M  V30 33333 H 3164.85 2.8778 -6.07151 0
M  V30 33334 N 3167.57 1.39603 0.731343 0
M  V30 33335 C 3168.48 1.40898 1.87577 0
M  V30 33336 C 3169.49 0.303349 1.71335 0
M  V30 33337 O 3170.67 0.545411 1.93874 0
M  V30 33338 C 3167.74 1.25448 3.23209 0
M  V30 33339 C 3166.8 2.46014 3.51817 0
M  V30 33340 C 3166.03 2.31292 4.80978 0
M  V30 33341 O 3166.25 1.31834 5.54956 0
M  V30 33342 O 3165.19 3.2035 5.09568 0
M  V30 33343 H 3169.01 2.37373 1.8944 0
M  V30 33344 H 3166.6 1.20758 0.879654 0
M  V30 33345 H 3168.48 1.18979 4.04255 0
M  V30 33346 H 3167.15 0.320694 3.22108 0
M  V30 33347 H 3166.06 2.5806 2.70843 0
M  V30 33348 H 3167.39 3.38099 3.57701 0
M  V30 33349 N 3169.05 -0.961916 1.2484 0
M  V30 33350 C 3170.27 -1.74578 1.1197 0
M  V30 33351 C 3170.7 -1.85302 -0.323254 0
M  V30 33352 O 3170.05 -1.32815 -1.2341 0
M  V30 33353 C 3170.1 -3.14131 1.77071 0
M  V30 33354 O 3169.21 -3.9893 1.04541 0
M  V30 33355 H 3168.55 -0.536417 0.391348 0
M  V30 33356 H 3171.08 -1.20623 1.65261 0
M  V30 33357 H 3171.09 -3.64626 1.83062 0
M  V30 33358 H 3169.76 -3.05641 2.82057 0
M  V30 33359 H 3168.34 -3.57405 1.06378 0
M  V30 33360 N 3170.52 -1.06308 -1.16346 0
M  V30 33361 C 3171.77 -0.774942 -1.86219 0
M  V30 33362 C 3172.09 0.701213 -1.82599 0
M  V30 33363 O 3173.29 1.10373 -2.48053 0
M  V30 33364 C 3171.75 -1.3361 -3.3418 0
M  V30 33365 C 3171.36 -2.84251 -3.46274 0
M  V30 33366 C 3173.1 -1.12551 -4.09307 0
M  V30 33367 C 3171.01 -3.33611 -4.88322 0
M  V30 33368 H 3169.94 -0.286206 -0.697569 0
M  V30 33369 H 3172.59 -1.28181 -1.31308 0
M  V30 33370 H 3170.97 -0.757005 -3.88697 0
M  V30 33371 H 3172.14 -3.48113 -3.01917 0
M  V30 33372 H 3170.46 -3.03979 -2.8458 0
M  V30 33373 H 3173.06 -1.46918 -5.1412 0
M  V30 33374 H 3173.4 -0.063886 -4.16251 0
M  V30 33375 H 3173.93 -1.6704 -3.6103 0
M  V30 33376 H 3170.67 -4.39252 -4.86557 0
M  V30 33377 H 3170.19 -2.74497 -5.33303 0
M  V30 33378 H 3171.87 -3.28947 -5.57138 0
M  V30 33379 N 3172 1.32989 -0.845682 0
M  V30 33380 C 3173.42 1.50389 -0.534356 0
M  V30 33381 C 3173.62 1.78394 0.936908 0
M  V30 33382 O 3172.67 1.84821 1.72039 0
M  V30 33383 C 3173.99 2.65402 -1.41359 0
M  V30 33384 C 3175.54 2.79287 -1.41308 0
M  V30 33385 C 3176.01 3.97369 -2.27731 0
M  V30 33386 N 3177.5 4.04616 -2.25478 0
M  V30 33387 C 3178.24 4.95196 -2.89082 0
M  V30 33388 N 3177.73 5.90845 -3.61765 0
M  V30 33389 N 3179.53 4.88247 -2.78517 0
M  V30 33390 H 3171.68 1.13075 -1.798 0
M  V30 33391 H 3173.94 0.556511 -0.767463 0
M  V30 33392 H 3173.65 2.51409 -2.4594 0
M  V30 33393 H 3173.52 3.60971 -1.09452 0
M  V30 33394 H 3175.91 2.92708 -0.37495 0
M  V30 33395 H 3175.99 1.84458 -1.77225 0
M  V30 33396 H 3175.63 3.84707 -3.31606 0
M  V30 33397 H 3175.56 4.91456 -1.89151 0
M  V30 33398 H 3178.05 3.36167 -1.72628 0
M  V30 33399 H 3178.37 6.56639 -4.07486 0
M  V30 33400 H 3176.71 5.90899 -3.65873 0
M  V30 33401 H 3179.9 4.12489 -2.21292 0
M  V30 33402 H 3180.07 5.58639 -3.2837 0
M  V30 33403 N 3173.48 0.60276 1.45618 0
M  V30 33404 C 3174.73 0.104622 2.03131 0
M  V30 33405 C 3175.08 -1.24907 1.46342 0
M  V30 33406 O 3174.37 -1.81059 0.626765 0
M  V30 33407 C 3174.57 0.00164192 3.574 0
M  V30 33408 C 3174.4 1.34381 4.29153 0
M  V30 33409 C 3173.17 1.92324 4.67268 0
M  V30 33410 C 3175.37 2.27151 4.61418 0
M  V30 33411 N 3173.35 3.20071 5.23859 0
M  V30 33412 C 3174.72 3.39494 5.1879 0
M  V30 33413 C 3176.77 2.26583 4.43356 0
M  V30 33414 C 3175.48 4.51429 5.60004 0
M  V30 33415 C 3177.5 3.37561 4.85599 0
M  V30 33416 C 3176.86 4.48626 5.4306 0
M  V30 33417 H 3172.96 0.0815388 0.777737 0
M  V30 33418 H 3175.55 0.800055 1.77503 0
M  V30 33419 H 3173.72 -0.663001 3.82699 0
M  V30 33420 H 3175.45 -0.502714 4.01566 0
M  V30 33421 H 3172.21 1.45585 4.50668 0
M  V30 33422 H 3172.63 3.85308 5.56657 0
M  V30 33423 H 3177.27 1.41978 3.98249 0
M  V30 33424 H 3174.99 5.36762 6.0408 0
M  V30 33425 H 3178.58 3.38264 4.73359 0
M  V30 33426 H 3177.46 5.33082 5.75147 0
M  V30 33427 N 3174.96 -1.53852 0.341647 0
M  V30 33428 C 3176.19 -2.05299 -0.256893 0
M  V30 33429 C 3176.6 -1.21673 -1.44364 0
M  V30 33430 O 3175.96 -0.251615 -1.80757 0
M  V30 33431 C 3176.01 -3.55165 -0.673792 0
M  V30 33432 O 3175.73 -4.35617 0.465764 0
M  V30 33433 C 3177.23 -4.22776 -1.33325 0
M  V30 33434 H 3174.45 -0.66914 -0.0499327 0
M  V30 33435 H 3177 -1.98466 0.493082 0
M  V30 33436 H 3175.15 -3.62226 -1.37371 0
M  V30 33437 H 3175.56 -5.24329 0.133815 0
M  V30 33438 H 3177.04 -5.29032 -1.57573 0
M  V30 33439 H 3177.52 -3.75005 -2.28622 0
M  V30 33440 H 3178.12 -4.19903 -0.675415 0
M  V30 33441 N 3176.44 -0.0702223 -1.57443 0
M  V30 33442 C 3177.38 0.897561 -2.12632 0
M  V30 33443 C 3178.35 1.29637 -1.03843 0
M  V30 33444 O 3179.54 1.3825 -1.31497 0
M  V30 33445 C 3176.68 2.16037 -2.69114 0
M  V30 33446 C 3175.79 1.81433 -3.92054 0
M  V30 33447 C 3174.93 3.02313 -4.36784 0
M  V30 33448 C 3173.97 2.6372 -5.52375 0
M  V30 33449 N 3173.1 3.77354 -5.92071 0
M  V30 33450 H 3177.94 0.420052 -2.95025 0
M  V30 33451 H 3175.48 0.195691 -1.45793 0
M  V30 33452 H 3177.44 2.89956 -2.99969 0
M  V30 33453 H 3176.07 2.61331 -1.89489 0
M  V30 33454 H 3175.12 0.975831 -3.67671 0
M  V30 33455 H 3176.43 1.49038 -4.76014 0
M  V30 33456 H 3175.59 3.84513 -4.69291 0
M  V30 33457 H 3174.32 3.37901 -3.51674 0
M  V30 33458 H 3173.33 1.79941 -5.1952 0
M  V30 33459 H 3174.55 2.29304 -6.39216 0
M  V30 33460 H 3172.5 4.12706 -5.09911 0
M  V30 33461 H 3172.42 3.48721 -6.70768 0
M  V30 33462 H 3173.69 4.60137 -6.29201 0
M  V30 33463 N 3177.91 1.56283 0.203321 0
M  V30 33464 C 3179.19 1.70959 0.950385 0
M  V30 33465 C 3179.57 0.622683 2.01707 0
M  V30 33466 O 3178.92 -0.367595 2.25524 0
M  V30 33467 C 3179.13 3.12974 1.54428 0
M  V30 33468 C 3180.48 3.72953 2.02957 0
M  V30 33469 O 3181.5 3.16051 1.64287 0
M  V30 33470 O 3180.36 4.72798 2.74089 0
M  V30 33471 H 3177.45 0.696978 0.445141 0
M  V30 33472 H 3180 1.68591 0.193666 0
M  V30 33473 H 3178.77 3.83549 0.774983 0
M  V30 33474 H 3178.4 3.19536 2.36606 0
M  V30 33475 N 3179.39 -0.470729 1.50406 0
M  V30 33476 C 3180.8 -1.05159 1.54268 0
M  V30 33477 C 3181.16 -1.93118 0.346393 0
M  V30 33478 O 3180.28 -2.09537 -0.540662 0
M  V30 33479 C 3180.88 -1.91389 2.79563 0
M  V30 33480 C 3179.43 -2.44583 2.86105 0
M  V30 33481 C 3178.58 -1.22937 2.4856 0
M  V30 33482 H 3181.53 -0.253332 1.56665 0
M  V30 33483 H 3181.55 -2.7646 2.61439 0
M  V30 33484 H 3181.07 -1.27344 3.66613 0
M  V30 33485 H 3179.17 -3.12179 2.03408 0
M  V30 33486 H 3179.28 -2.79665 3.89004 0
M  V30 33487 H 3177.64 -1.56425 2.01005 0
M  V30 33488 H 3178.43 -0.605539 3.37917 0
M  V30 33489 N 3180.87 -1.39989 -0.72393 0
M  V30 33490 C 3182.29 -1.21836 -1.03093 0
M  V30 33491 C 3182.49 -0.0877001 -2.01309 0
M  V30 33492 O 3181.54 0.557096 -2.46278 0
M  V30 33493 C 3182.86 -2.55682 -1.58262 0
M  V30 33494 C 3184.4 -2.62623 -1.70288 0
M  V30 33495 C 3184.88 -3.96717 -2.28865 0
M  V30 33496 N 3186.37 -3.98415 -2.36262 0
M  V30 33497 C 3187.11 -4.98953 -2.82549 0
M  V30 33498 N 3186.6 -6.09886 -3.2865 0
M  V30 33499 N 3188.39 -4.86326 -2.81858 0
M  V30 33500 H 3180.55 -2.12275 -0.0727518 0
M  V30 33501 H 3182.81 -0.943239 -0.0948863 0
M  V30 33502 H 3182.51 -3.39028 -0.935582 0
M  V30 33503 H 3182.39 -2.76183 -2.5691 0
M  V30 33504 H 3184.78 -1.79655 -2.34112 0
M  V30 33505 H 3184.86 -2.45961 -0.702637 0
M  V30 33506 H 3184.5 -4.80122 -1.65666 0
M  V30 33507 H 3184.43 -4.10706 -3.29588 0
M  V30 33508 H 3186.92 -3.18305 -2.03691 0
M  V30 33509 H 3187.23 -6.82499 -3.62512 0
M  V30 33510 H 3185.58 -6.13464 -3.2663 0
M  V30 33511 H 3188.77 -3.98758 -2.45172 0
M  V30 33512 H 3188.94 -5.64822 -3.17616 0
M  V30 33513 N 3182.35 0.955282 -1.25348 0
M  V30 33514 C 3183.3 2.07316 -1.05464 0
M  V30 33515 C 3184.29 1.69394 0.0142401 0
M  V30 33516 O 3185.5 1.79444 -0.141323 0
M  V30 33517 H 3181.87 0.678571 -0.324107 0
M  V30 33518 H 3183.84 2.21243 -2.00235 0
M  V30 33519 C 3182.59 3.40797 -0.689389 0
M  V30 33520 H 3181.92 3.70445 -1.50368 0
M  V30 33521 H 3183.36 4.19876 -0.589957 0
M  V30 33522 C 3181.81 3.31432 0.604497 0
M  V30 33523 O 3182.34 3.66393 1.6468 0
M  V30 33524 N 3180.55 2.8455 0.589877 0
M  V30 33525 H 3180.1 2.56298 -0.258693 0
M  V30 33526 H 3180.06 2.78667 1.45575 0
M  V30 33527 N 3183.83 1.06924 1.1578 0
M  V30 33528 C 3185.06 0.810754 1.90353 0
M  V30 33529 C 3185.47 -0.635583 1.7778 0
M  V30 33530 O 3184.83 -1.43562 1.12677 0
M  V30 33531 C 3184.88 1.20436 3.40848 0
M  V30 33532 O 3184.6 2.59395 3.53052 0
M  V30 33533 C 3186.1 0.974549 4.32455 0
M  V30 33534 H 3183.32 0.293462 0.603424 0
M  V30 33535 H 3185.86 1.42455 1.4672 0
M  V30 33536 H 3184.02 0.634976 3.82161 0
M  V30 33537 H 3184.43 2.75333 4.46421 0
M  V30 33538 H 3185.91 1.29951 5.36485 0
M  V30 33539 H 3186.38 -0.0893709 4.39109 0
M  V30 33540 H 3186.99 1.52863 3.96879 0
M  V30 33541 N 3185.31 -1.32538 0.852723 0
M  V30 33542 C 3186.24 -2.27797 0.253221 0
M  V30 33543 C 3187.25 -1.52347 -0.57395 0
M  V30 33544 O 3188.44 -1.73989 -0.398756 0
M  V30 33545 C 3185.54 -3.32392 -0.660975 0
M  V30 33546 C 3184.71 -4.37207 0.129916 0
M  V30 33547 C 3183.77 -5.21391 -0.709745 0
M  V30 33548 O 3182.8 -5.69018 -0.143956 0
M  V30 33549 N 3184 -5.44042 -2.0248 0
M  V30 33550 H 3186.76 -2.79881 1.07175 0
M  V30 33551 H 3184.33 -1.45378 0.712517 0
M  V30 33552 H 3186.32 -3.85619 -1.22799 0
M  V30 33553 H 3184.89 -2.80481 -1.3802 0
M  V30 33554 H 3184.11 -3.8429 0.878357 0
M  V30 33555 H 3185.4 -5.04326 0.67323 0
M  V30 33556 H 3184.79 -5.07074 -2.50783 0
M  V30 33557 H 3183.35 -6.00273 -2.53999 0
M  V30 33558 N 3186.78 -0.610474 -1.45296 0
M  V30 33559 C 3188.06 -0.0386533 -1.95562 0
M  V30 33560 C 3188.44 1.43001 -1.55286 0
M  V30 33561 O 3187.79 2.13402 -0.816822 0
M  V30 33562 C 3188 -0.239793 -3.48175 0
M  V30 33563 C 3189.35 -0.122109 -4.24424 0
M  V30 33564 O 3190.37 -0.170066 -3.55794 0
M  V30 33565 O 3189.23 -0.00963301 -5.46499 0
M  V30 33566 H 3186.32 0.0340936 -0.826297 0
M  V30 33567 H 3188.87 -0.680737 -1.55448 0
M  V30 33568 H 3187.64 -1.25969 -3.70469 0
M  V30 33569 H 3187.26 0.437416 -3.95187 0
M  V30 33570 N 3188.26 1.53669 -0.349801 0
M  V30 33571 C 3189.21 2.21987 0.520191 0
M  V30 33572 C 3190.2 1.20946 1.06117 0
M  V30 33573 O 3191.39 1.46465 0.993831 0
M  V30 33574 C 3188.52 3.00084 1.66746 0
M  V30 33575 C 3187.6 4.08488 1.14012 0
M  V30 33576 N 3187.99 5.04693 0.334499 0
M  V30 33577 C 3186.29 4.22911 1.41643 0
M  V30 33578 C 3186.99 5.81681 0.0475883 0
M  V30 33579 N 3185.97 5.39808 0.640938 0
M  V30 33580 H 3189.77 2.93722 -0.102312 0
M  V30 33581 H 3187.28 1.61639 -0.156989 0
M  V30 33582 H 3189.28 3.47533 2.30275 0
M  V30 33583 H 3187.94 2.29877 2.29318 0
M  V30 33584 H 3188.95 5.17894 -0.0249575 0
M  V30 33585 H 3185.63 3.63925 2.04608 0
M  V30 33586 H 3187.02 6.69192 -0.602683 0
M  V30 33587 N 3189.74 0.0785709 1.57404 0
M  V30 33588 C 3190.99 -0.589862 1.94032 0
M  V30 33589 C 3191.32 -1.68851 0.959327 0
M  V30 33590 O 3190.59 -1.94497 -0.0103636 0
M  V30 33591 C 3190.88 -1.16049 3.40888 0
M  V30 33592 C 3190.73 -0.0680282 4.49749 0
M  V30 33593 C 3192.05 -2.06394 3.88702 0
M  V30 33594 H 3189.17 -0.212952 0.705564 0
M  V30 33595 H 3191.81 0.145919 1.89439 0
M  V30 33596 H 3189.96 -1.78755 3.44933 0
M  V30 33597 H 3191.63 0.565399 4.57822 0
M  V30 33598 H 3189.87 0.600507 4.29624 0
M  V30 33599 H 3190.55 -0.507809 5.49659 0
M  V30 33600 H 3193.02 -1.53615 3.86706 0
M  V30 33601 H 3191.9 -2.43252 4.92056 0
M  V30 33602 H 3192.16 -2.9749 3.27035 0
M  V30 33603 N 3191.22 -1.56389 -0.19503 0
M  V30 33604 C 3192.63 -1.49975 -0.545868 0
M  V30 33605 C 3192.83 -0.778601 -1.8585 0
M  V30 33606 O 3191.89 -0.329149 -2.50345 0
M  V30 33607 C 3193.2 -2.94642 -0.600547 0
M  V30 33608 C 3194.75 -3.05314 -0.689375 0
M  V30 33609 C 3195.23 -4.51393 -0.775164 0
M  V30 33610 N 3196.72 -4.55544 -0.838689 0
M  V30 33611 C 3197.45 -5.65886 -0.925237 0
M  V30 33612 N 3196.95 -6.85918 -0.974083 0
M  V30 33613 N 3198.74 -5.53799 -0.962431 0
M  V30 33614 H 3190.89 -2.01689 0.665985 0
M  V30 33615 H 3193.15 -0.917837 0.237231 0
M  V30 33616 H 3192.86 -3.50462 0.294841 0
M  V30 33617 H 3192.73 -3.47999 -1.45522 0
M  V30 33618 H 3195.12 -2.49543 -1.57519 0
M  V30 33619 H 3195.2 -2.55082 0.191496 0
M  V30 33620 H 3194.85 -5.07789 0.106304 0
M  V30 33621 H 3194.78 -4.99357 -1.67184 0
M  V30 33622 H 3197.27 -3.69113 -0.810184 0
M  V30 33623 H 3197.58 -7.65761 -1.04064 0
M  V30 33624 H 3195.93 -6.88576 -0.94276 0
M  V30 33625 H 3199.12 -4.58948 -0.921108 0
M  V30 33626 H 3199.29 -6.39819 -1.02642 0
M  V30 33627 N 3192.7 0.462746 -1.50653 0
M  V30 33628 C 3193.92 1.24193 -1.66105 0
M  V30 33629 C 3194.35 1.84863 -0.347453 0
M  V30 33630 O 3193.7 1.67671 0.689643 0
M  V30 33631 C 3193.75 2.32032 -2.76031 0
M  V30 33632 O 3192.86 3.36889 -2.37865 0
M  V30 33633 H 3192.2 0.365005 -0.554678 0
M  V30 33634 H 3194.73 0.549699 -1.97077 0
M  V30 33635 H 3194.74 2.77215 -2.99359 0
M  V30 33636 H 3193.41 1.87247 -3.71364 0
M  V30 33637 H 3191.99 2.97359 -2.25016 0
M  V30 33638 N 3194.17 1.40371 0.716495 0
M  V30 33639 C 3195.1 1.43318 1.84343 0
M  V30 33640 C 3196.09 0.294216 1.67536 0
M  V30 33641 O 3197.27 0.502704 1.87581 0
M  V30 33642 C 3194.4 1.29414 3.22288 0
M  V30 33643 C 3193.35 2.40904 3.53765 0
M  V30 33644 C 3192.68 2.12077 4.90844 0
M  V30 33645 C 3193.98 3.83243 3.54855 0
M  V30 33646 H 3195.67 2.37629 1.82134 0
M  V30 33647 H 3193.22 1.14378 0.874853 0
M  V30 33648 H 3195.17 1.30092 4.00817 0
M  V30 33649 H 3193.9 0.315787 3.2507 0
M  V30 33650 H 3192.56 2.39474 2.77575 0
M  V30 33651 H 3192.2 1.12635 4.90227 0
M  V30 33652 H 3191.9 2.86771 5.1287 0
M  V30 33653 H 3193.43 2.14436 5.71708 0
M  V30 33654 H 3194.84 3.86502 4.23426 0
M  V30 33655 H 3193.24 4.57449 3.88408 0
M  V30 33656 H 3194.31 4.12893 2.54259 0
M  V30 33657 N 3195.65 -0.948621 1.25853 0
M  V30 33658 C 3196.89 -1.70872 1.12169 0
M  V30 33659 C 3197.26 -1.89131 -0.3307 0
M  V30 33660 O 3198.46 -2.62256 -0.589494 0
M  V30 33661 C 3196.73 -3.05084 1.86167 0
M  V30 33662 S 3198.29 -3.96274 1.88448 0
M  V30 33663 H 3195.11 -0.587256 0.400813 0
M  V30 33664 H 3197.71 -1.13098 1.59465 0
M  V30 33665 H 3196.41 -2.89471 2.90921 0
M  V30 33666 H 3195.94 -3.67918 1.39283 0
M  V30 33667 H 3197.96 -4.86709 0.965836 0
M  V30 33668 N 3197.13 -1.07536 -1.15212 0
M  V30 33669 C 3198.06 -0.718876 -2.22159 0
M  V30 33670 C 3199.04 0.294561 -1.6753 0
M  V30 33671 O 3200.23 0.166897 -1.93482 0
M  V30 33672 C 3197.36 -0.117897 -3.471 0
M  V30 33673 C 3196.31 -1.0587 -4.14699 0
M  V30 33674 C 3195.64 -0.320378 -5.33739 0
M  V30 33675 C 3196.94 -2.39311 -4.6425 0
M  V30 33676 H 3198.63 -1.61302 -2.52234 0
M  V30 33677 H 3196.18 -0.777014 -1.21237 0
M  V30 33678 H 3198.13 0.143445 -4.21156 0
M  V30 33679 H 3196.85 0.811333 -3.16362 0
M  V30 33680 H 3195.51 -1.30499 -3.42587 0
M  V30 33681 H 3195.16 0.612372 -4.99258 0
M  V30 33682 H 3194.86 -0.947483 -5.79911 0
M  V30 33683 H 3196.38 -0.0668794 -6.10563 0
M  V30 33684 H 3197.8 -2.18997 -5.29824 0
M  V30 33685 H 3196.2 -2.97633 -5.2109 0
M  V30 33686 H 3197.27 -3.01478 -3.79788 0
M  V30 33687 N 3198.61 1.32084 -0.85974 0
M  V30 33688 C 3199.54 2.31248 -0.323543 0
M  V30 33689 C 3200.52 1.59904 0.580057 0
M  V30 33690 O 3201.7 1.87673 0.499232 0
M  V30 33691 C 3198.83 3.43902 0.4846 0
M  V30 33692 C 3197.79 4.26764 -0.325008 0
M  V30 33693 C 3197.11 5.3123 0.608187 0
M  V30 33694 C 3198.41 4.98661 -1.55353 0
M  V30 33695 H 3200.11 2.76344 -1.15214 0
M  V30 33696 H 3197.65 1.32855 -0.555465 0
M  V30 33697 H 3199.61 4.12318 0.870166 0
M  V30 33698 H 3198.33 2.97547 1.34661 0
M  V30 33699 H 3196.99 3.60002 -0.692391 0
M  V30 33700 H 3196.64 4.81126 1.46719 0
M  V30 33701 H 3196.34 5.87558 0.0704538 0
M  V30 33702 H 3197.86 6.02507 0.990819 0
M  V30 33703 H 3199.28 5.5973 -1.23997 0
M  V30 33704 H 3197.67 5.64737 -2.02957 0
M  V30 33705 H 3198.74 4.26233 -2.312 0
M  V30 33706 N 3200.09 0.618171 1.4497 0
M  V30 33707 C 3201.05 -0.0846336 2.29044 0
M  V30 33708 C 3202.05 -0.784896 1.40342 0
M  V30 33709 O 3203.24 -0.631451 1.62353 0
M  V30 33710 C 3200.37 -1.13022 3.21619 0
M  V30 33711 H 3201.56 0.654664 2.92667 0
M  V30 33712 H 3199.12 0.377699 1.51668 0
M  V30 33713 H 3199.85 -1.89993 2.62818 0
M  V30 33714 H 3199.64 -0.632172 3.8697 0
M  V30 33715 H 3201.13 -1.62211 3.84808 0
M  V30 33716 N 3201.56 -1.53481 0.357946 0
M  V30 33717 C 3202.81 -2.02128 -0.227085 0
M  V30 33718 C 3203.17 -1.24083 -1.47042 0
M  V30 33719 O 3202.46 -0.324 -1.88841 0
M  V30 33720 C 3202.65 -3.5267 -0.579555 0
M  V30 33721 C 3202.48 -4.45292 0.62807 0
M  V30 33722 C 3201.25 -4.92323 1.13781 0
M  V30 33723 C 3203.45 -4.92214 1.49096 0
M  V30 33724 N 3201.43 -5.68933 2.30625 0
M  V30 33725 C 3202.8 -5.67091 2.50614 0
M  V30 33726 C 3204.86 -4.743 1.51472 0
M  V30 33727 C 3203.56 -6.25958 3.54357 0
M  V30 33728 C 3205.59 -5.34027 2.54104 0
M  V30 33729 C 3204.95 -6.08784 3.54347 0
M  V30 33730 H 3201.05 -0.780645 -0.0460158 0
M  V30 33731 H 3203.63 -1.8815 0.500766 0
M  V30 33732 H 3201.8 -3.66825 -1.27649 0
M  V30 33733 H 3203.53 -3.88046 -1.14902 0
M  V30 33734 H 3200.29 -4.68344 0.703628 0
M  V30 33735 H 3200.71 -6.11904 2.8966 0
M  V30 33736 H 3205.36 -4.16035 0.753286 0
M  V30 33737 H 3203.07 -6.83323 4.31387 0
M  V30 33738 H 3206.66 -5.22064 2.56788 0
M  V30 33739 H 3205.54 -6.54177 4.32461 0
M  V30 33740 N 3203.04 -0.0869173 -1.5736 0
M  V30 33741 C 3203.99 0.885398 -2.10106 0
M  V30 33742 C 3204.98 1.24911 -1.0142 0
M  V30 33743 O 3206.17 1.22556 -1.27707 0
M  V30 33744 C 3203.3 2.14747 -2.6784 0
M  V30 33745 C 3202.38 1.80956 -3.83557 0
M  V30 33746 N 3202.77 1.17684 -4.91919 0
M  V30 33747 C 3201.07 2.10616 -3.93137 0
M  V30 33748 C 3201.77 1.02322 -5.7263 0
M  V30 33749 N 3200.75 1.53787 -5.21393 0
M  V30 33750 H 3204.55 0.392128 -2.91272 0
M  V30 33751 H 3202.07 0.116538 -1.61981 0
M  V30 33752 H 3204.06 2.85339 -3.03953 0
M  V30 33753 H 3202.72 2.64648 -1.88127 0
M  V30 33754 H 3203.73 0.844641 -5.10966 0
M  V30 33755 H 3200.41 2.62788 -3.24421 0
M  V30 33756 H 3201.8 0.529053 -6.69814 0
M  V30 33757 N 3204.52 1.5649 0.186734 0
M  V30 33758 C 3205.47 1.96106 1.2508 0
M  V30 33759 C 3206.46 0.847634 1.46668 0
M  V30 33760 O 3207.67 1.03268 1.4743 0
M  V30 33761 H 3204.04 0.623708 0.42011 0
M  V30 33762 H 3206.01 2.84827 0.889711 0
M  V30 33763 C 3204.76 2.32396 2.58626 0
M  V30 33764 H 3204.09 3.17604 2.42833 0
M  V30 33765 H 3205.53 2.63973 3.31805 0
M  V30 33766 C 3203.99 1.16165 3.16239 0
M  V30 33767 O 3204.52 0.441104 3.99271 0
M  V30 33768 N 3202.72 0.936255 2.75105 0
M  V30 33769 H 3202.27 1.52394 2.07687 0
M  V30 33770 H 3202.23 0.160373 3.13991 0
M  V30 33771 N 3206 -0.45475 1.50897 0
M  V30 33772 C 3207.25 -1.20321 1.6238 0
M  V30 33773 C 3207.57 -1.9212 0.333917 0
M  V30 33774 O 3206.84 -1.84822 -0.649444 0
M  V30 33775 H 3205.42 -0.447128 0.598402 0
M  V30 33776 H 3208.08 -0.523069 1.8775 0
M  V30 33777 H 3207.18 -1.94227 2.44299 0
M  V30 33778 N 3207.48 -1.40749 -0.709041 0
M  V30 33779 C 3208.39 -1.43864 -1.85311 0
M  V30 33780 C 3209.4 -0.330569 -1.70831 0
M  V30 33781 O 3210.58 -0.576185 -1.92982 0
M  V30 33782 C 3207.64 -1.30574 -3.21172 0
M  V30 33783 C 3206.7 -2.5158 -3.47859 0
M  V30 33784 C 3205.94 -2.38915 -4.77237 0
M  V30 33785 O 3206.16 -1.40646 -5.52788 0
M  V30 33786 O 3205.09 -3.28416 -5.04407 0
M  V30 33787 H 3208.92 -2.40357 -1.8564 0
M  V30 33788 H 3206.51 -1.22142 -0.860331 0
M  V30 33789 H 3208.39 -1.25395 -4.02311 0
M  V30 33790 H 3207.06 -0.371898 -3.21557 0
M  V30 33791 H 3205.97 -2.62336 -2.66703 0
M  V30 33792 H 3207.3 -3.43747 -3.52277 0
M  V30 33793 N 3208.96 0.941933 -1.26354 0
M  V30 33794 C 3209.87 2.07413 -1.09622 0
M  V30 33795 C 3210.88 1.73974 -0.0299269 0
M  V30 33796 O 3212.06 2.00042 -0.233501 0
M  V30 33797 C 3209.12 3.38923 -0.730189 0
M  V30 33798 C 3208.18 3.8615 -1.87581 0
M  V30 33799 C 3207.42 5.11384 -1.52715 0
M  V30 33800 O 3207.64 5.68788 -0.428538 0
M  V30 33801 O 3206.57 5.53634 -2.36164 0
M  V30 33802 H 3210.4 2.24437 -2.04602 0
M  V30 33803 H 3207.98 1.05874 -1.05409 0
M  V30 33804 H 3209.87 4.17942 -0.538757 0
M  V30 33805 H 3208.54 3.23141 0.190225 0
M  V30 33806 H 3207.45 3.0808 -2.1222 0
M  V30 33807 H 3208.78 4.06452 -2.77592 0
M  V30 33808 N 3210.43 1.08146 1.1464 0
M  V30 33809 C 3211.34 0.720707 2.23255 0
M  V30 33810 C 3212.36 -0.271618 1.71867 0
M  V30 33811 O 3213.54 -0.116231 2.01064 0
M  V30 33812 C 3210.6 0.132603 3.46446 0
M  V30 33813 C 3209.66 1.1792 4.12787 0
M  V30 33814 C 3208.89 0.619065 5.30097 0
M  V30 33815 O 3209.12 -0.562318 5.67621 0
M  V30 33816 O 3208.05 1.36784 5.86152 0
M  V30 33817 H 3211.88 1.62672 2.5646 0
M  V30 33818 H 3209.46 0.854953 1.22519 0
M  V30 33819 H 3211.34 -0.192696 4.20959 0
M  V30 33820 H 3210.02 -0.746607 3.14972 0
M  V30 33821 H 3208.93 1.55699 3.4016 0
M  V30 33822 H 3210.26 2.03059 4.48361 0
M  V30 33823 N 3211.91 -1.31626 0.866732 0
M  V30 33824 C 3213.14 -2.00712 0.489715 0
M  V30 33825 C 3213.55 -1.65244 -0.921463 0
M  V30 33826 O 3212.89 -0.876041 -1.61466 0
M  V30 33827 C 3212.95 -3.55061 0.56321 0
M  V30 33828 C 3212.62 -4.13993 1.93543 0
M  V30 33829 C 3213.62 -4.31336 2.90251 0
M  V30 33830 C 3211.3 -4.49794 2.23586 0
M  V30 33831 C 3213.29 -4.83665 4.15147 0
M  V30 33832 C 3210.98 -5.01826 3.48732 0
M  V30 33833 C 3211.98 -5.18712 4.44328 0
M  V30 33834 O 3211.67 -5.69627 5.67257 0
M  V30 33835 H 3211.4 -0.648862 0.189617 0
M  V30 33836 H 3213.95 -1.68905 1.16877 0
M  V30 33837 H 3212.18 -3.86314 -0.172748 0
M  V30 33838 H 3213.87 -4.05407 0.20008 0
M  V30 33839 H 3214.64 -4.03998 2.68347 0
M  V30 33840 H 3210.52 -4.35929 1.49956 0
M  V30 33841 H 3214.06 -4.9676 4.8977 0
M  V30 33842 H 3209.96 -5.28597 3.7048 0
M  V30 33843 H 3210.73 -5.88001 5.69383 0
M  V30 33844 N 3213.39 -0.62585 -1.4464 0
M  V30 33845 C 3214.34 0.0944812 -2.32408 0
M  V30 33846 C 3215.33 0.841172 -1.4704 0
M  V30 33847 O 3216.54 0.754669 -1.63416 0
M  V30 33848 H 3212.91 0.0493189 -0.750381 0
M  V30 33849 H 3214.88 -0.663914 -2.9092 0
M  V30 33850 C 3213.63 1.06609 -3.30953 0
M  V30 33851 H 3212.96 0.500952 -3.96649 0
M  V30 33852 H 3214.4 1.53969 -3.95056 0
M  V30 33853 C 3212.85 2.14873 -2.59483 0
M  V30 33854 O 3213.38 3.22881 -2.38979 0
M  V30 33855 N 3211.59 1.90661 -2.1931 0
M  V30 33856 H 3211.14 1.02831 -2.36186 0
M  V30 33857 H 3211.1 2.63299 -1.71816 0
M  V30 33858 N 3214.87 1.53289 -0.36608 0
M  V30 33859 C 3215.81 2.2575 0.480165 0
M  V30 33860 C 3216.78 1.26442 1.07711 0
M  V30 33861 O 3217.97 1.55224 1.10951 0
M  V30 33862 C 3215.11 3.05048 1.61369 0
M  V30 33863 C 3214.22 4.19248 1.04187 0
M  V30 33864 C 3213.36 4.85987 2.14454 0
M  V30 33865 C 3212.4 5.92218 1.5474 0
M  V30 33866 N 3211.53 6.52645 2.58841 0
M  V30 33867 H 3216.37 2.97651 -0.144252 0
M  V30 33868 H 3213.91 1.46866 -0.0829579 0
M  V30 33869 H 3215.87 3.49298 2.28138 0
M  V30 33870 H 3214.5 2.35401 2.20876 0
M  V30 33871 H 3213.55 3.7948 0.264448 0
M  V30 33872 H 3214.86 4.95586 0.565292 0
M  V30 33873 H 3214.02 5.33423 2.89042 0
M  V30 33874 H 3212.76 4.09122 2.65463 0
M  V30 33875 H 3211.76 5.44143 0.786663 0
M  V30 33876 H 3212.99 6.71003 1.04554 0
M  V30 33877 H 3210.93 5.78633 3.09063 0
M  V30 33878 H 3210.85 7.24524 2.15872 0
M  V30 33879 H 3212.12 7.0473 3.3313 0
M  V30 33880 N 3216.35 0.0952613 1.57312 0
M  V30 33881 C 3217.59 -0.568407 1.94359 0
M  V30 33882 C 3217.92 -1.68181 0.97701 0
M  V30 33883 O 3217.18 -1.957 -0.00336958 0
M  V30 33884 C 3217.47 -1.16326 3.37939 0
M  V30 33885 C 3217.14 -0.173635 4.50566 0
M  V30 33886 C 3215.8 0.0985518 4.81099 0
M  V30 33887 C 3218.15 0.502084 5.18776 0
M  V30 33888 C 3215.48 1.05315 5.7717 0
M  V30 33889 C 3217.83 1.44515 6.15872 0
M  V30 33890 C 3216.5 1.72557 6.4481 0
M  V30 33891 H 3215.77 -0.207995 0.71121 0
M  V30 33892 H 3218.42 0.171129 1.90734 0
M  V30 33893 H 3216.72 -1.97905 3.38143 0
M  V30 33894 H 3218.42 -1.68446 3.63905 0
M  V30 33895 H 3215.01 -0.395967 4.26767 0
M  V30 33896 H 3219.19 0.304942 4.95362 0
M  V30 33897 H 3214.45 1.27741 5.97907 0
M  V30 33898 H 3218.62 1.97456 6.6782 0
M  V30 33899 H 3216.25 2.46684 7.19063 0
M  V30 33900 N 3217.82 -1.56587 -0.178432 0
M  V30 33901 C 3218.75 -1.98886 -1.22338 0
M  V30 33902 C 3219.73 -0.863336 -1.46562 0
M  V30 33903 O 3220.92 -1.1289 -1.58017 0
M  V30 33904 C 3218.05 -2.34266 -2.56392 0
M  V30 33905 C 3217 -3.49712 -2.4675 0
M  V30 33906 C 3216.33 -3.70814 -3.85229 0
M  V30 33907 C 3217.63 -4.83385 -1.97829 0
M  V30 33908 H 3219.32 -2.86426 -0.871798 0
M  V30 33909 H 3216.87 -1.37802 -0.417924 0
M  V30 33910 H 3218.82 -2.62454 -3.29691 0
M  V30 33911 H 3217.55 -1.43627 -2.93324 0
M  V30 33912 H 3216.21 -3.21641 -1.75906 0
M  V30 33913 H 3215.85 -2.77477 -4.19542 0
M  V30 33914 H 3215.55 -4.48488 -3.79648 0
M  V30 33915 H 3217.08 -4.01395 -4.60124 0
M  V30 33916 H 3218.49 -5.10495 -2.60897 0
M  V30 33917 H 3216.89 -5.64646 -2.03213 0
M  V30 33918 H 3217.96 -4.75854 -0.932255 0
M  V30 33919 N 3219.3 0.446741 -1.51136 0
M  V30 33920 C 3220.26 1.52403 -1.7119 0
M  V30 33921 C 3221.26 1.49895 -0.582064 0
M  V30 33922 O 3222.45 1.52084 -0.849478 0
M  V30 33923 C 3219.59 2.91973 -1.75968 0
M  V30 33924 H 3220.78 1.35929 -2.67326 0
M  V30 33925 H 3218.33 0.674788 -1.40983 0
M  V30 33926 H 3219.07 3.13863 -0.81612 0
M  V30 33927 H 3218.85 2.95199 -2.5807 0
M  V30 33928 H 3220.34 3.70141 -1.93354 0
M  V30 33929 N 3220.78 1.41123 0.701567 0
M  V30 33930 C 3221.73 1.42498 1.81557 0
M  V30 33931 C 3222.7 0.280107 1.63721 0
M  V30 33932 O 3223.88 0.480263 1.84657 0
M  V30 33933 C 3221.02 1.30707 3.19389 0
M  V30 33934 C 3220.13 2.55015 3.48699 0
M  V30 33935 C 3219.27 2.35562 4.76113 0
M  V30 33936 C 3218.31 3.55376 4.98372 0
M  V30 33937 N 3217.45 3.35031 6.17008 0
M  V30 33938 H 3222.29 2.3771 1.79716 0
M  V30 33939 H 3219.82 1.18045 0.877706 0
M  V30 33940 H 3221.78 1.21874 3.99002 0
M  V30 33941 H 3220.41 0.391068 3.20422 0
M  V30 33942 H 3219.46 2.74322 2.63537 0
M  V30 33943 H 3220.77 3.44157 3.61051 0
M  V30 33944 H 3219.93 2.24162 5.6377 0
M  V30 33945 H 3218.67 1.43868 4.65997 0
M  V30 33946 H 3217.67 3.67237 4.09166 0
M  V30 33947 H 3218.9 4.48016 5.10351 0
M  V30 33948 H 3216.84 2.46031 6.08116 0
M  V30 33949 H 3216.76 4.17745 6.301 0
M  V30 33950 H 3218.03 3.27391 7.07414 0
M  V30 33951 N 3222.26 -0.935219 1.26852 0
M  V30 33952 C 3223.51 -1.67656 1.12135 0
M  V30 33953 C 3223.82 -1.92731 -0.333805 0
M  V30 33954 O 3225.03 -2.64747 -0.601754 0
M  V30 33955 C 3223.48 -3.01927 1.95878 0
M  V30 33956 C 3223.09 -2.84578 3.46005 0
M  V30 33957 C 3224.83 -3.79712 1.89787 0
M  V30 33958 C 3222.74 -4.14358 4.21973 0
M  V30 33959 H 3221.67 -0.628826 0.416046 0
M  V30 33960 H 3224.32 -1.03959 1.51211 0
M  V30 33961 H 3222.7 -3.66639 1.4964 0
M  V30 33962 H 3223.88 -2.2868 4.00053 0
M  V30 33963 H 3222.19 -2.2023 3.53395 0
M  V30 33964 H 3224.79 -4.7587 2.43827 0
M  V30 33965 H 3225.13 -4.07111 0.869868 0
M  V30 33966 H 3225.67 -3.21784 2.3388 0
M  V30 33967 H 3222.4 -3.92141 5.25267 0
M  V30 33968 H 3221.92 -4.69949 3.72704 0
M  V30 33969 H 3223.6 -4.82773 4.30743 0
M  V30 33970 N 3223.74 -1.08752 -1.14065 0
M  V30 33971 C 3225.15 -0.815847 -1.37172 0
M  V30 33972 C 3225.35 0.573181 -1.93176 0
M  V30 33973 O 3224.41 1.32933 -2.14674 0
M  V30 33974 C 3225.72 -1.90142 -2.32952 0
M  V30 33975 C 3227.27 -1.92785 -2.46583 0
M  V30 33976 C 3227.74 -3.00466 -3.45665 0
M  V30 33977 N 3229.24 -2.99661 -3.5321 0
M  V30 33978 C 3229.97 -3.79623 -4.29737 0
M  V30 33979 N 3229.47 -4.69475 -5.09476 0
M  V30 33980 N 3231.26 -3.67911 -4.24968 0
M  V30 33981 H 3223.41 -1.98314 -0.760613 0
M  V30 33982 H 3225.67 -0.860814 -0.39712 0
M  V30 33983 H 3225.38 -2.90025 -1.98944 0
M  V30 33984 H 3225.25 -1.77374 -3.32894 0
M  V30 33985 H 3227.64 -0.935453 -2.79881 0
M  V30 33986 H 3227.72 -2.09631 -1.46589 0
M  V30 33987 H 3227.37 -3.99914 -3.13099 0
M  V30 33988 H 3227.3 -2.80864 -4.45447 0
M  V30 33989 H 3229.79 -2.3454 -2.96309 0
M  V30 33990 H 3230.1 -5.27087 -5.65154 0
M  V30 33991 H 3228.44 -4.73515 -5.08732 0
M  V30 33992 H 3231.64 -2.97081 -3.61746 0
M  V30 33993 H 3231.81 -4.30468 -4.84357 0
M  V30 33994 N 3225.21 1.31165 -0.873701 0
M  V30 33995 C 3226.44 2.01276 -0.500277 0
M  V30 33996 C 3226.86 1.65129 0.900782 0
M  V30 33997 O 3226.22 0.86189 1.59503 0
M  V30 33998 C 3226.27 3.54339 -0.669039 0
M  V30 33999 O 3225.37 4.11379 0.290023 0
M  V30 34000 H 3224.72 0.63363 -0.198518 0
M  V30 34001 H 3227.25 1.67275 -1.17814 0
M  V30 34002 H 3227.26 4.04087 -0.563745 0
M  V30 34003 H 3225.93 3.79988 -1.69062 0
M  V30 34004 H 3224.51 3.72639 0.139372 0
M  V30 34005 N 3226.69 0.633512 1.44307 0
M  V30 34006 C 3227.94 0.139158 2.02322 0
M  V30 34007 C 3228.27 -1.23665 1.49735 0
M  V30 34008 O 3227.55 -1.82137 0.682385 0
M  V30 34009 C 3227.83 0.128429 3.59871 0
M  V30 34010 C 3227.68 1.53674 4.22734 0
M  V30 34011 C 3229 -0.545757 4.36703 0
M  V30 34012 H 3226.12 0.0520423 0.73516 0
M  V30 34013 H 3228.76 0.810441 1.71848 0
M  V30 34014 H 3226.91 -0.443195 3.85964 0
M  V30 34015 H 3228.58 2.15744 4.0774 0
M  V30 34016 H 3226.83 2.08991 3.80138 0
M  V30 34017 H 3227.5 1.48125 5.31755 0
M  V30 34018 H 3229.97 -0.0596148 4.16057 0
M  V30 34019 H 3228.85 -0.522461 5.46408 0
M  V30 34020 H 3229.11 -1.61652 4.11486 0
M  V30 34021 N 3228.17 -1.53093 0.374204 0
M  V30 34022 C 3229.58 -1.86415 -0.103139 0
M  V30 34023 C 3229.93 -1.29449 -1.47436 0
M  V30 34024 O 3229.06 -0.619889 -2.07331 0
M  V30 34025 C 3229.65 -3.38245 -0.193929 0
M  V30 34026 C 3228.21 -3.71333 -0.61554 0
M  V30 34027 C 3227.36 -2.76329 0.231909 0
M  V30 34028 H 3230.31 -1.47218 0.59267 0
M  V30 34029 H 3230.33 -3.66687 -1.01591 0
M  V30 34030 H 3229.84 -3.79676 0.804207 0
M  V30 34031 H 3227.94 -3.35463 -1.62159 0
M  V30 34032 H 3228.06 -4.77557 -0.384166 0
M  V30 34033 H 3226.42 -2.52921 -0.300535 0
M  V30 34034 H 3227.2 -3.20595 1.22774 0
M  V30 34035 N 3229.65 -0.103603 -1.57259 0
M  V30 34036 C 3230.9 0.557826 -1.93833 0
M  V30 34037 C 3231.21 1.68806 -0.988117 0
M  V30 34038 O 3232.42 2.41122 -1.2479 0
M  V30 34039 C 3230.87 1.04367 -3.44435 0
M  V30 34040 C 3230.48 -0.0572758 -4.47963 0
M  V30 34041 C 3232.22 1.67735 -3.89955 0
M  V30 34042 C 3230.13 0.444401 -5.89728 0
M  V30 34043 H 3229.06 0.212148 -0.723539 0
M  V30 34044 H 3231.71 -0.180976 -1.82605 0
M  V30 34045 H 3230.09 1.83642 -3.50844 0
M  V30 34046 H 3231.27 -0.83306 -4.53207 0
M  V30 34047 H 3229.58 -0.59666 -4.12103 0
M  V30 34048 H 3232.18 2.06356 -4.93276 0
M  V30 34049 H 3232.52 2.54982 -3.29074 0
M  V30 34050 H 3233.06 0.950275 -3.86283 0
M  V30 34051 H 3229.8 -0.391658 -6.54329 0
M  V30 34052 H 3229.32 1.187 -5.87937 0
M  V30 34053 H 3230.99 0.910627 -6.4056 0
M  V30 34054 N 3231.13 1.56679 0.170126 0
M  V30 34055 C 3232.37 1.81702 0.884809 0
M  V30 34056 C 3232.7 0.680795 1.8273 0
M  V30 34057 O 3231.97 -0.29926 1.93601 0
M  V30 34058 H 3230.55 0.670291 0.329726 0
M  V30 34059 H 3233.21 1.9416 0.169657 0
M  V30 34060 H 3232.3 2.75792 1.46099 0
M  V30 34061 N 3232.6 -0.43872 1.5137 0
M  V30 34062 C 3234.02 -0.775091 1.39515 0
M  V30 34063 C 3234.22 -1.95787 0.476414 0
M  V30 34064 O 3233.28 -2.52406 -0.0689388 0
M  V30 34065 C 3234.59 -1.05676 2.81519 0
M  V30 34066 C 3236.14 -1.16128 2.9066 0
M  V30 34067 C 3236.61 -1.47589 4.33568 0
M  V30 34068 N 3238.1 -1.54516 4.36668 0
M  V30 34069 C 3238.84 -1.80428 5.44273 0
M  V30 34070 N 3238.33 -2.04142 6.62041 0
M  V30 34071 N 3240.13 -1.82199 5.31752 0
M  V30 34072 H 3232.28 0.340274 2.09657 0
M  V30 34073 H 3234.54 0.0898281 0.943735 0
M  V30 34074 H 3234.25 -0.260379 3.50735 0
M  V30 34075 H 3234.12 -1.98475 3.20761 0
M  V30 34076 H 3236.51 -1.94829 2.21643 0
M  V30 34077 H 3236.59 -0.212331 2.54917 0
M  V30 34078 H 3236.23 -0.694163 5.03134 0
M  V30 34079 H 3236.16 -2.43688 4.66823 0
M  V30 34080 H 3238.65 -1.38099 3.51763 0
M  V30 34081 H 3238.97 -2.2328 7.39842 0
M  V30 34082 H 3237.31 -2.01467 6.65159 0
M  V30 34083 H 3240.5 -1.63191 4.38733 0
M  V30 34084 H 3240.68 -2.02056 6.15693 0
M  V30 34085 N 3234.08 -1.41493 -0.694073 0
M  V30 34086 C 3235.05 -1.43182 -1.78974 0
M  V30 34087 C 3236.05 -0.322218 -1.57539 0
M  V30 34088 O 3237.24 -0.582167 -1.64184 0
M  V30 34089 C 3234.37 -1.24466 -3.17366 0
M  V30 34090 H 3235.56 -2.40719 -1.78869 0
M  V30 34091 H 3233.11 -1.27658 -0.901845 0
M  V30 34092 H 3233.85 -0.277748 -3.23108 0
M  V30 34093 H 3233.63 -2.04862 -3.34326 0
M  V30 34094 H 3235.12 -1.28486 -3.97343 0
M  V30 34095 N 3235.56 0.928479 -1.27346 0
M  V30 34096 C 3236.49 2.04601 -1.12521 0
M  V30 34097 C 3237.47 1.70079 -0.0268862 0
M  V30 34098 O 3238.66 1.93155 -0.201231 0
M  V30 34099 C 3235.79 3.38638 -0.770808 0
M  V30 34100 C 3234.74 3.87269 -1.82227 0
M  V30 34101 C 3234.07 5.18103 -1.32187 0
M  V30 34102 C 3235.37 4.10746 -3.22621 0
M  V30 34103 H 3237.06 2.17262 -2.06004 0
M  V30 34104 H 3234.61 1.04396 -0.991845 0
M  V30 34105 H 3236.56 4.16295 -0.653916 0
M  V30 34106 H 3235.28 3.25989 0.199732 0
M  V30 34107 H 3233.94 3.11804 -1.92805 0
M  V30 34108 H 3233.59 5.01844 -0.340807 0
M  V30 34109 H 3233.29 5.5161 -2.02484 0
M  V30 34110 H 3234.81 5.98331 -1.2179 0
M  V30 34111 H 3236.23 4.78976 -3.15048 0
M  V30 34112 H 3234.63 4.55559 -3.90622 0
M  V30 34113 H 3235.7 3.1607 -3.67733 0
M  V30 34114 N 3237.04 1.09355 1.13486 0
M  V30 34115 C 3237.97 0.754129 2.20987 0
M  V30 34116 C 3238.95 -0.267871 1.67978 0
M  V30 34117 O 3240.13 -0.136094 1.93723 0
M  V30 34118 C 3237.26 0.173103 3.46868 0
M  V30 34119 C 3236.22 1.12454 4.12963 0
M  V30 34120 C 3235.54 0.405251 5.33162 0
M  V30 34121 C 3236.84 2.46666 4.60384 0
M  V30 34122 H 3238.54 1.65294 2.49636 0
M  V30 34123 H 3236.08 0.796203 1.19986 0
M  V30 34124 H 3238.04 -0.0764247 4.21331 0
M  V30 34125 H 3236.76 -0.7609 3.17613 0
M  V30 34126 H 3235.42 1.35933 3.40467 0
M  V30 34127 H 3235.07 -0.532867 5.0017 0
M  V30 34128 H 3234.77 1.03962 5.7833 0
M  V30 34129 H 3236.29 0.164006 6.1038 0
M  V30 34130 H 3237.71 2.27399 5.26272 0
M  V30 34131 H 3236.1 3.05885 5.16289 0
M  V30 34132 H 3237.17 3.07482 3.74944 0
M  V30 34133 N 3238.52 -1.307 0.880644 0
M  V30 34134 C 3239.45 -2.30704 0.360292 0
M  V30 34135 C 3240.43 -1.60807 -0.554544 0
M  V30 34136 O 3241.61 -1.88444 -0.469312 0
M  V30 34137 C 3238.74 -3.4463 -0.429827 0
M  V30 34138 C 3237.7 -4.26193 0.392861 0
M  V30 34139 C 3237.02 -5.3213 -0.523596 0
M  V30 34140 C 3238.32 -4.96126 1.63266 0
M  V30 34141 H 3240.02 -2.74476 1.19596 0
M  V30 34142 H 3237.56 -1.31955 0.576531 0
M  V30 34143 H 3239.52 -4.1365 -0.804459 0
M  V30 34144 H 3238.24 -2.99651 -1.2991 0
M  V30 34145 H 3236.9 -3.58855 0.749577 0
M  V30 34146 H 3236.55 -4.834 -1.39046 0
M  V30 34147 H 3236.25 -5.87595 0.0230304 0
M  V30 34148 H 3237.77 -6.04007 -0.89484 0
M  V30 34149 H 3239.19 -5.57686 1.32886 0
M  V30 34150 H 3237.58 -5.61437 2.11916 0
M  V30 34151 H 3238.65 -4.22501 2.37952 0
M  V30 34152 N 3240 -0.641156 -1.43969 0
M  V30 34153 C 3241.41 -0.23087 -1.85267 0
M  V30 34154 C 3241.76 1.21995 -1.53661 0
M  V30 34155 O 3240.88 1.92958 -0.979606 0
M  V30 34156 C 3241.48 -0.41223 -3.36283 0
M  V30 34157 C 3240.04 -0.0563666 -3.76358 0
M  V30 34158 C 3239.18 -0.720856 -2.67767 0
M  V30 34159 H 3242.13 -0.845647 -1.34293 0
M  V30 34160 H 3242.16 0.345869 -3.78925 0
M  V30 34161 H 3241.67 -1.46824 -3.59255 0
M  V30 34162 H 3239.77 0.997519 -3.58999 0
M  V30 34163 H 3239.88 -0.473419 -4.76755 0
M  V30 34164 H 3238.25 -0.155209 -2.54227 0
M  V30 34165 H 3239.03 -1.77966 -2.9357 0
M  V30 34166 N 3241.47 1.52892 -0.382318 0
M  V30 34167 C 3242.38 2.29972 0.463705 0
M  V30 34168 C 3243.4 1.36604 1.07774 0
M  V30 34169 O 3244.58 1.69671 1.08507 0
M  V30 34170 C 3241.64 3.08639 1.57932 0
M  V30 34171 C 3240.7 4.17703 0.991109 0
M  V30 34172 C 3239.93 4.9261 2.05356 0
M  V30 34173 O 3240.16 4.67538 3.26749 0
M  V30 34174 O 3239.09 5.78131 1.67477 0
M  V30 34175 H 3242.92 3.03257 -0.164016 0
M  V30 34176 H 3240.5 1.48683 -0.146225 0
M  V30 34177 H 3242.38 3.5771 2.22758 0
M  V30 34178 H 3241.06 2.38174 2.19214 0
M  V30 34179 H 3239.97 3.72844 0.306299 0
M  V30 34180 H 3241.3 4.90382 0.422613 0
M  V30 34181 N 3242.95 0.111941 1.57202 0
M  V30 34182 C 3244.18 -0.554872 1.99009 0
M  V30 34183 C 3244.59 -1.6121 0.990351 0
M  V30 34184 O 3243.93 -1.83682 -0.0259289 0
M  V30 34185 C 3243.99 -1.24592 3.3722 0
M  V30 34186 C 3243.66 -0.337469 4.55752 0
M  V30 34187 C 3244.66 0.421117 5.18192 0
M  V30 34188 C 3242.34 -0.250602 5.01674 0
M  V30 34189 C 3244.33 1.25437 6.24935 0
M  V30 34190 C 3242.02 0.586293 6.08281 0
M  V30 34191 C 3243.02 1.33742 6.69778 0
M  V30 34192 O 3242.71 2.16043 7.74326 0
M  V30 34193 H 3242.44 -0.152079 0.658671 0
M  V30 34194 H 3244.99 0.192973 2.04492 0
M  V30 34195 H 3243.22 -2.04068 3.28471 0
M  V30 34196 H 3244.91 -1.80893 3.63363 0
M  V30 34197 H 3245.68 0.363837 4.83633 0
M  V30 34198 H 3241.56 -0.824925 4.53559 0
M  V30 34199 H 3245.1 1.84114 6.72865 0
M  V30 34200 H 3241 0.644992 6.42269 0
M  V30 34201 H 3241.77 2.08908 7.91391 0
M  V30 34202 N 3244.43 -1.56767 -0.161814 0
M  V30 34203 C 3245.65 -1.87035 -0.896241 0
M  V30 34204 C 3246.08 -0.699345 -1.74616 0
M  V30 34205 O 3245.44 0.351404 -1.77862 0
M  V30 34206 C 3245.49 -3.15787 -1.741 0
M  V30 34207 O 3244.59 -2.98679 -2.84367 0
M  V30 34208 H 3243.93 -0.61493 -0.250513 0
M  V30 34209 H 3246.46 -2.03996 -0.157091 0
M  V30 34210 H 3246.47 -3.47434 -2.13901 0
M  V30 34211 H 3245.15 -4.00626 -1.11677 0
M  V30 34212 H 3243.72 -2.78408 -2.48079 0
M  V30 34213 N 3245.91 0.430686 -1.51601 0
M  V30 34214 C 3247.14 1.20182 -1.68416 0
M  V30 34215 C 3247.55 1.84847 -0.38433 0
M  V30 34216 O 3246.91 1.70993 0.637778 0
M  V30 34217 C 3246.96 2.28095 -2.80455 0
M  V30 34218 O 3246.68 1.66074 -4.05402 0
M  V30 34219 C 3248.18 3.18251 -3.08596 0
M  V30 34220 H 3245.4 0.36198 -0.564988 0
M  V30 34221 H 3247.94 0.509505 -1.98051 0
M  V30 34222 H 3246.1 2.93031 -2.534 0
M  V30 34223 H 3246.51 2.37445 -4.67675 0
M  V30 34224 H 3247.99 3.90089 -3.90557 0
M  V30 34225 H 3248.46 3.79389 -2.21271 0
M  V30 34226 H 3249.07 2.59008 -3.37335 0
M  V30 34227 N 3247.39 1.4186 0.686559 0
M  V30 34228 C 3248.32 1.47196 1.81261 0
M  V30 34229 C 3249.3 0.329686 1.66874 0
M  V30 34230 O 3250.48 0.54238 1.86472 0
M  V30 34231 C 3247.61 1.36221 3.1947 0
M  V30 34232 C 3246.57 2.48353 3.48575 0
M  V30 34233 C 3245.89 2.22441 4.86235 0
M  V30 34234 C 3247.19 3.90684 3.46646 0
M  V30 34235 H 3248.89 2.41439 1.77053 0
M  V30 34236 H 3246.43 1.16208 0.850395 0
M  V30 34237 H 3248.38 1.38565 3.97967 0
M  V30 34238 H 3247.11 0.384668 3.24327 0
M  V30 34239 H 3245.77 2.45307 2.72433 0
M  V30 34240 H 3245.42 1.23008 4.87727 0
M  V30 34241 H 3245.12 2.97585 5.06672 0
M  V30 34242 H 3246.64 2.26514 5.6703 0
M  V30 34243 H 3248.05 3.95396 4.15132 0
M  V30 34244 H 3246.45 4.65585 3.78617 0
M  V30 34245 H 3247.52 4.18193 2.45444 0
M  V30 34246 N 3248.86 -0.921712 1.27837 0
M  V30 34247 C 3250.09 -1.70151 1.17185 0
M  V30 34248 C 3250.5 -1.87218 -0.273174 0
M  V30 34249 O 3249.84 -1.39324 -1.19727 0
M  V30 34250 C 3249.91 -3.11783 1.78975 0
M  V30 34251 C 3249.57 -3.18031 3.28185 0
M  V30 34252 C 3250.57 -2.99828 4.24735 0
M  V30 34253 C 3248.25 -3.40799 3.69001 0
M  V30 34254 C 3250.25 -3.04291 5.60077 0
M  V30 34255 C 3247.93 -3.44895 5.04471 0
M  V30 34256 C 3248.93 -3.2666 5.99819 0
M  V30 34257 O 3248.62 -3.30502 7.32819 0
M  V30 34258 H 3248.35 -0.538925 0.408088 0
M  V30 34259 H 3250.91 -1.16263 1.69328 0
M  V30 34260 H 3249.14 -3.67177 1.21316 0
M  V30 34261 H 3250.82 -3.71754 1.62952 0
M  V30 34262 H 3251.59 -2.82073 3.94538 0
M  V30 34263 H 3247.47 -3.5404 2.95257 0
M  V30 34264 H 3251.01 -2.89976 6.34476 0
M  V30 34265 H 3246.91 -3.62175 5.34321 0
M  V30 34266 H 3247.68 -3.46917 7.41344 0
M  V30 34267 N 3250.34 -1.09956 -1.12905 0
M  V30 34268 C 3251.76 -0.83035 -1.36299 0
M  V30 34269 C 3251.96 0.55266 -1.93773 0
M  V30 34270 O 3251.01 1.30649 -2.16072 0
M  V30 34271 C 3252.33 -1.92602 -2.30922 0
M  V30 34272 C 3253.87 -1.95389 -2.44524 0
M  V30 34273 C 3254.35 -3.04116 -3.42458 0
M  V30 34274 N 3255.84 -3.0339 -3.50012 0
M  V30 34275 C 3256.58 -3.8416 -4.25686 0
M  V30 34276 N 3256.07 -4.74852 -5.04468 0
M  V30 34277 N 3257.86 -3.72398 -4.21042 0
M  V30 34278 H 3250.02 -1.9911 -0.739536 0
M  V30 34279 H 3252.28 -0.864977 -0.387967 0
M  V30 34280 H 3251.98 -2.92119 -1.95856 0
M  V30 34281 H 3251.86 -1.80894 -3.30994 0
M  V30 34282 H 3254.25 -0.965086 -2.78873 0
M  V30 34283 H 3254.33 -2.11174 -1.44357 0
M  V30 34284 H 3253.97 -4.03213 -3.0884 0
M  V30 34285 H 3253.9 -2.85573 -4.42443 0
M  V30 34286 H 3256.39 -2.3767 -2.93805 0
M  V30 34287 H 3256.7 -5.33051 -5.59532 0
M  V30 34288 H 3255.05 -4.78884 -5.03681 0
M  V30 34289 H 3258.24 -3.00901 -3.58575 0
M  V30 34290 H 3258.41 -4.35581 -4.79764 0
M  V30 34291 N 3251.82 1.30231 -0.887563 0
M  V30 34292 C 3253.24 1.48613 -0.581931 0
M  V30 34293 C 3253.44 1.81284 0.879679 0
M  V30 34294 O 3252.49 1.90201 1.66072 0
M  V30 34295 C 3253.8 2.6077 -1.49731 0
M  V30 34296 C 3255.35 2.7465 -1.50121 0
M  V30 34297 C 3255.83 3.89923 -2.40258 0
M  V30 34298 N 3257.32 3.97238 -2.38236 0
M  V30 34299 C 3258.05 4.85748 -3.0469 0
M  V30 34300 N 3257.55 5.79037 -3.80379 0
M  V30 34301 N 3259.34 4.79139 -2.93909 0
M  V30 34302 H 3251.49 1.07297 -1.83306 0
M  V30 34303 H 3253.76 0.531813 -0.78478 0
M  V30 34304 H 3253.46 2.43457 -2.53814 0
M  V30 34305 H 3253.34 3.57306 -1.2088 0
M  V30 34306 H 3255.72 2.91367 -0.467883 0
M  V30 34307 H 3255.8 1.78727 -1.83004 0
M  V30 34308 H 3255.45 3.73963 -3.43678 0
M  V30 34309 H 3255.38 4.8519 -2.04691 0
M  V30 34310 H 3257.87 3.30505 -1.83235 0
M  V30 34311 H 3258.18 6.43343 -4.28171 0
M  V30 34312 H 3256.53 5.7896 -3.84487 0
M  V30 34313 H 3259.72 4.0524 -2.34303 0
M  V30 34314 H 3259.89 5.47909 -3.45976 0
M  V30 34315 N 3253.3 0.648782 1.43627 0
M  V30 34316 C 3254.54 0.169194 2.02695 0
M  V30 34317 C 3254.9 -1.20188 1.50242 0
M  V30 34318 O 3254.19 -1.78973 0.68405 0
M  V30 34319 C 3254.39 0.115345 3.57214 0
M  V30 34320 C 3254.22 1.47966 4.2466 0
M  V30 34321 C 3252.99 2.07092 4.60913 0
M  V30 34322 C 3255.18 2.41716 4.53958 0
M  V30 34323 N 3253.17 3.36575 5.13411 0
M  V30 34324 C 3254.54 3.55828 5.07727 0
M  V30 34325 C 3256.59 2.40573 4.35923 0
M  V30 34326 C 3255.29 4.69016 5.45359 0
M  V30 34327 C 3257.32 3.52839 4.74614 0
M  V30 34328 C 3256.68 4.65676 5.28512 0
M  V30 34329 H 3252.78 0.106241 0.77475 0
M  V30 34330 H 3255.37 0.856121 1.74868 0
M  V30 34331 H 3253.54 -0.540912 3.84615 0
M  V30 34332 H 3255.27 -0.374704 4.02962 0
M  V30 34333 H 3252.02 1.59849 4.45809 0
M  V30 34334 H 3252.45 4.02822 5.44117 0
M  V30 34335 H 3257.09 1.54576 3.9353 0
M  V30 34336 H 3254.81 5.55709 5.86697 0
M  V30 34337 H 3258.39 3.53152 4.62358 0
M  V30 34338 H 3257.27 5.5111 5.57896 0
M  V30 34339 N 3254.78 -1.52688 0.390421 0
M  V30 34340 C 3255.71 -2.294 -0.435629 0
M  V30 34341 C 3256.69 -1.32834 -1.0625 0
M  V30 34342 O 3257.87 -1.61728 -1.07506 0
M  V30 34343 C 3255 -3.10165 -1.56254 0
M  V30 34344 C 3253.96 -4.14624 -1.06165 0
M  V30 34345 C 3253.28 -4.83619 -2.28071 0
M  V30 34346 C 3254.58 -5.22141 -0.12881 0
M  V30 34347 H 3256.28 -2.98701 0.204437 0
M  V30 34348 H 3253.82 -1.43654 0.0997629 0
M  V30 34349 H 3255.78 -3.62589 -2.14725 0
M  V30 34350 H 3254.5 -2.38599 -2.23021 0
M  V30 34351 H 3253.16 -3.63182 -0.499455 0
M  V30 34352 H 3252.81 -4.08601 -2.93351 0
M  V30 34353 H 3252.51 -5.54224 -1.95217 0
M  V30 34354 H 3254.03 -5.38849 -2.87183 0
M  V30 34355 H 3255.44 -5.69919 -0.621749 0
M  V30 34356 H 3253.84 -5.99999 0.110024 0
M  V30 34357 H 3254.91 -4.77883 0.821968 0
M  V30 34358 N 3256.25 -0.120276 -1.5714 0
M  V30 34359 C 3257.53 0.581042 -1.86771 0
M  V30 34360 C 3257.91 1.8473 -1.02166 0
M  V30 34361 O 3257.26 2.28277 -0.100937 0
M  V30 34362 C 3257.47 0.872257 -3.37924 0
M  V30 34363 C 3258.82 1.22476 -4.06552 0
M  V30 34364 O 3259.84 0.962478 -3.4295 0
M  V30 34365 O 3258.7 1.71707 -5.18824 0
M  V30 34366 H 3255.79 0.293349 -0.773224 0
M  V30 34367 H 3258.34 -0.154876 -1.68992 0
M  V30 34368 H 3257.11 -0.0250104 -3.91292 0
M  V30 34369 H 3256.74 1.66329 -3.61138 0
M  V30 34370 N 3257.73 1.56851 0.153498 0
M  V30 34371 C 3258.96 1.87508 0.88631 0
M  V30 34372 C 3259.38 0.708595 1.74243 0
M  V30 34373 O 3258.74 -0.341966 1.78046 0
M  V30 34374 C 3258.79 3.16706 1.72422 0
M  V30 34375 O 3257.89 3.00183 2.82779 0
M  V30 34376 H 3257.23 0.61625 0.247248 0
M  V30 34377 H 3259.76 2.04076 0.146271 0
M  V30 34378 H 3259.77 3.48563 2.12056 0
M  V30 34379 H 3258.45 4.01212 1.09551 0
M  V30 34380 H 3257.03 2.7972 2.46599 0
M  V30 34381 N 3259.21 -0.42264 1.51827 0
M  V30 34382 C 3260.46 -1.17081 1.65222 0
M  V30 34383 C 3260.79 -1.9084 0.375541 0
M  V30 34384 O 3260.04 -1.84905 -0.640997 0
M  V30 34385 C 3260.34 -2.20114 2.81575 0
M  V30 34386 C 3260.01 -1.63261 4.20306 0
M  V30 34387 C 3258.67 -1.47479 4.58043 0
M  V30 34388 C 3261.02 -1.21609 5.06814 0
M  V30 34389 C 3258.35 -0.885429 5.7998 0
M  V30 34390 C 3260.7 -0.64096 6.29344 0
M  V30 34391 C 3259.36 -0.470169 6.65842 0
M  V30 34392 H 3258.63 -0.428431 0.604589 0
M  V30 34393 H 3261.28 -0.459841 1.85897 0
M  V30 34394 H 3259.59 -2.97305 2.55181 0
M  V30 34395 H 3261.28 -2.77851 2.89137 0
M  V30 34396 H 3257.87 -1.76524 3.9056 0
M  V30 34397 H 3262.06 -1.32616 4.78254 0
M  V30 34398 H 3257.31 -0.740998 6.06893 0
M  V30 34399 H 3261.49 -0.309766 6.95711 0
M  V30 34400 H 3259.11 -0.0113702 7.60199 0
M  V30 34401 O 3260.73 -1.51164 -0.568468 0
M  V30 34402 H 3261.42 -1.50164 -1.22354 0
M  V30 END ATOM
M  V30 BEGIN BOND
M  V30 END BOND
M  V30 END CTAB
M  END
$$$$
