drugbank_target|P00524 Tyrosine-protein kinase transforming protein Src (DB08434)
 OpenBabel12092120513D

  0  0  0     0  0            999 V3000
M  V30 BEGIN CTAB
M  V30 COUNTS 8228 8327 0 0 0
M  V30 BEGIN ATOM
M  V30 1 H -0.908 1.98254 -0.117106 0
M  V30 2 N 0 1.576 0 0
M  V30 3 C 0.933 2.03868 1.02534 0
M  V30 4 C 1.911 0.928543 1.3348 0
M  V30 5 O 3.095 1.19667 1.45644 0
M  V30 6 C 0.222 2.43627 2.35294 0
M  V30 7 C -0.732 3.65373 2.2001 0
M  V30 8 S 0.101 5.13292 1.52614 0
M  V30 9 C 1.257 5.56322 2.86805 0
M  V30 10 H 1.49 2.90518 0.631377 0
M  V30 11 H -0.977 1.52953 0.210867 0
M  V30 12 H 0.981 2.67203 3.11629 0
M  V30 13 H -0.358 1.57376 2.7183 0
M  V30 14 H -1.165 3.90944 3.18086 0
M  V30 15 H -1.563 3.418 1.51819 0
M  V30 16 H 0.729 5.58782 3.83104 0
M  V30 17 H 1.672 6.56266 2.65933 0
M  V30 18 H 2.08 4.83886 2.90714 0
M  V30 19 N 1.4781 -0.272755 1.55222 0
M  V30 20 C 2.7261 -1.00234 1.75492 0
M  V30 21 C 3.0471 -1.8681 0.5592 0
M  V30 22 O 2.3171 -1.91215 -0.425882 0
M  V30 23 H 0.8971 -0.373076 0.647166 0
M  V30 24 H 3.5591 -0.296926 1.92625 0
M  V30 25 H 2.6551 -1.63913 2.65592 0
M  V30 26 N 2.9562 -1.48159 -0.537278 0
M  V30 27 C 4.1812 -1.59707 -1.32319 0
M  V30 28 C 4.6062 -0.254859 -1.86365 0
M  V30 29 O 3.9642 0.772378 -1.64024 0
M  V30 30 C 4.0122 -2.6412 -2.45505 0
M  V30 31 O 3.1162 -2.20774 -3.48328 0
M  V30 32 H 2.4572 -0.535791 -0.392204 0
M  V30 33 H 4.9872 -1.94092 -0.647268 0
M  V30 34 H 4.9972 -2.85166 -2.91795 0
M  V30 35 H 3.6722 -3.61567 -2.05528 0
M  V30 36 H 2.2492 -2.09911 -3.08207 0
M  V30 37 N 4.4343 0.785586 -1.36625 0
M  V30 38 C 5.6593 1.57963 -1.34397 0
M  V30 39 C 6.0843 1.87964 0.071526 0
M  V30 40 O 5.4423 1.48182 1.0446 0
M  V30 41 C 5.4903 2.87511 -2.17646 0
M  V30 42 O 4.5943 3.81281 -1.57158 0
M  V30 43 H 3.9353 0.479014 -0.459828 0
M  V30 44 H 6.4653 0.973411 -1.79961 0
M  V30 45 H 6.4753 3.36745 -2.30362 0
M  V30 46 H 5.1503 2.65002 -3.20541 0
M  V30 47 H 3.7273 3.39885 -1.53403 0
M  V30 48 N 5.9124 1.20967 1.01018 0
M  V30 49 C 6.8594 0.964281 2.09691 0
M  V30 50 C 7.8294 -0.107853 1.65749 0
M  V30 51 O 9.0144 0.0381987 1.90762 0
M  V30 52 C 6.1544 0.52943 3.41015 0
M  V30 53 C 5.2674 1.67043 3.98398 0
M  V30 54 C 4.4024 1.18525 5.17808 0
M  V30 55 C 3.4414 2.29892 5.67288 0
M  V30 56 N 2.5784 1.82546 6.77954 0
M  V30 57 H 7.4184 1.89463 2.30017 0
M  V30 58 H 4.9554 0.944289 1.1279 0
M  V30 59 H 6.9134 0.258588 4.16398 0
M  V30 60 H 5.5434 -0.363919 3.20742 0
M  V30 61 H 4.5954 2.05603 3.20049 0
M  V30 62 H 5.9074 2.50877 4.31117 0
M  V30 63 H 5.0614 0.870762 6.00419 0
M  V30 64 H 3.8004 0.316887 4.86669 0
M  V30 65 H 2.8054 2.6215 4.83278 0
M  V30 66 H 4.0304 3.17216 6.00459 0
M  V30 67 H 1.9764 0.980454 6.48632 0
M  V30 68 H 1.8934 2.59956 7.09901 0
M  V30 69 H 3.1614 1.54115 7.64113 0
M  V30 70 N 7.3905 -1.2043 1.01659 0
M  V30 71 C 8.6155 -1.94318 0.724942 0
M  V30 72 C 9.0405 -1.74266 -0.708034 0
M  V30 73 O 8.3985 -1.03694 -1.48719 0
M  V30 74 C 8.4465 -3.44486 1.06591 0
M  V30 75 O 7.5505 -4.12017 0.177599 0
M  V30 76 H 6.8915 -0.60708 0.26898 0
M  V30 77 H 9.4215 -1.52861 1.35995 0
M  V30 78 H 9.4315 -3.95106 1.01762 0
M  V30 79 H 8.1065 -3.58404 2.10997 0
M  V30 80 H 6.6835 -3.71821 0.283421 0
M  V30 81 N 8.8686 -0.792821 -1.36206 0
M  V30 82 C 9.8156 -0.191653 -2.30003 0
M  V30 83 C 10.7856 0.666453 -1.52143 0
M  V30 84 O 11.9706 0.61442 -1.80636 0
M  V30 85 C 9.1106 0.664848 -3.38635 0
M  V30 86 C 8.2236 -0.212175 -4.31479 0
M  V30 87 C 7.3586 0.651022 -5.27196 0
M  V30 88 C 6.3976 -0.227247 -6.11678 0
M  V30 89 N 5.5346 0.595127 -6.99573 0
M  V30 90 H 10.3746 -0.996978 -2.80828 0
M  V30 91 H 7.9116 -0.503206 -1.38225 0
M  V30 92 H 9.8696 1.17645 -4.00269 0
M  V30 93 H 8.4996 1.43557 -2.89122 0
M  V30 94 H 7.5516 -0.841777 -3.70969 0
M  V30 95 H 8.8636 -0.888751 -4.90818 0
M  V30 96 H 8.0176 1.2283 -5.94136 0
M  V30 97 H 6.7566 1.36121 -4.68319 0
M  V30 98 H 5.7616 -0.816904 -5.43697 0
M  V30 99 H 6.9866 -0.93509 -6.72631 0
M  V30 100 H 4.9326 1.28955 -6.432 0
M  V30 101 H 4.8496 -0.0236952 -7.55996 0
M  V30 102 H 6.1176 1.15613 -7.70879 0
M  V30 103 N 10.3467 1.47872 -0.545128 0
M  V30 104 C 11.7577 1.86384 -0.108581 0
M  V30 105 C 12.1087 1.45309 1.31832 0
M  V30 106 O 11.2337 0.850641 1.9898 0
M  V30 107 C 11.8287 3.38265 -0.190274 0
M  V30 108 C 10.3877 3.75914 0.191164 0
M  V30 109 C 9.5347 2.71926 -0.543273 0
M  V30 110 H 12.4857 1.39561 -0.755537 0
M  V30 111 H 12.5067 3.75831 0.594217 0
M  V30 112 H 12.0187 3.6813 -1.2289 0
M  V30 113 H 10.1197 3.51665 1.23136 0
M  V30 114 H 10.2327 4.78836 -0.158987 0
M  V30 115 H 8.5967 2.54697 0.0122495 0
M  V30 116 H 9.3797 3.04634 -1.58282 0
M  V30 117 N 11.8248 0.280983 1.55075 0
M  V30 118 C 12.7718 -0.603937 2.22758 0
M  V30 119 C 13.7418 -1.1452 1.20309 0
M  V30 120 O 14.9268 -1.19343 1.48869 0
M  V30 121 C 12.0668 -1.77947 2.95684 0
M  V30 122 C 11.1798 -1.2715 4.12864 0
M  V30 123 C 10.3148 -2.4093 4.7342 0
M  V30 124 C 9.3538 -1.87165 5.82783 0
M  V30 125 N 8.4908 -2.94441 6.37377 0
M  V30 126 H 13.3308 -0.020124 2.97993 0
M  V30 127 H 10.8678 0.00183425 1.471 0
M  V30 128 H 12.8258 -2.47055 3.36184 0
M  V30 129 H 11.4558 -2.33522 2.22861 0
M  V30 130 H 10.5078 -0.473331 3.77444 0
M  V30 131 H 11.8198 -0.837751 4.91715 0
M  V30 132 H 10.9738 -3.18021 5.1667 0
M  V30 133 H 9.7128 -2.87623 3.93859 0
M  V30 134 H 8.7178 -1.08556 5.38976 0
M  V30 135 H 9.9428 -1.41401 6.64216 0
M  V30 136 H 7.8888 -3.40505 5.60707 0
M  V30 137 H 7.8058 -2.55501 7.11516 0
M  V30 138 H 9.0738 -3.71489 6.85285 0
M  V30 139 N 13.3029 -1.57598 0.00835791 0
M  V30 140 C 14.5799 -1.82172 -0.712235 0
M  V30 141 C 14.9599 -0.887873 -1.9152 0
M  V30 142 O 14.3079 0.06146 -2.28417 0
M  V30 143 C 14.5179 -3.30875 -1.11008 0
M  V30 144 C 15.8659 -3.96826 -1.51044 0
M  V30 145 O 16.8899 -3.35248 -1.20364 0
M  V30 146 O 15.7489 -5.05318 -2.08125 0
M  V30 147 H 12.8429 -0.750435 -0.347529 0
M  V30 148 H 15.3889 -1.69665 0.0344523 0
M  V30 149 H 14.1609 -3.90481 -0.252982 0
M  V30 150 H 13.7839 -3.48412 -1.9156 0
M  V30 151 N 14.781 0.264519 -1.55364 0
M  V30 152 C 16.192 0.834936 -1.6699 0
M  V30 153 C 16.543 1.86718 -0.602552 0
M  V30 154 O 15.668 2.14899 0.254425 0
M  V30 155 C 16.263 1.5212 -3.02729 0
M  V30 156 C 14.822 2.03954 -3.16354 0
M  V30 157 C 13.969 0.884498 -2.62815 0
M  V30 158 H 16.92 0.0406869 -1.58648 0
M  V30 159 H 16.941 2.38853 -2.96191 0
M  V30 160 H 16.453 0.769668 -3.80392 0
M  V30 161 H 14.554 2.82041 -2.43482 0
M  V30 162 H 14.667 2.24902 -4.23032 0
M  V30 163 H 13.031 1.2802 -2.20188 0
M  V30 164 H 13.814 0.14634 -3.42988 0
M  V30 165 N 16.2591 1.48442 0.529413 0
M  V30 166 C 17.4841 1.60406 1.31471 0
M  V30 167 C 17.9091 0.264738 1.86228 0
M  V30 168 O 17.2671 -0.763668 1.64432 0
M  V30 169 C 17.3151 2.65419 2.44101 0
M  V30 170 O 16.4191 2.22618 3.47153 0
M  V30 171 H 15.7601 0.537863 0.389357 0
M  V30 172 H 18.2901 1.94432 0.636965 0
M  V30 173 H 18.3001 2.86709 2.90279 0
M  V30 174 H 16.9751 3.62652 2.03608 0
M  V30 175 H 15.5521 2.11543 3.0709 0
M  V30 176 N 17.7372 -0.778329 1.37039 0
M  V30 177 C 18.6692 -1.90034 1.2814 0
M  V30 178 C 19.6822 -1.61585 0.198558 0
M  V30 179 O 20.8712 -1.72625 0.454175 0
M  V30 180 C 17.9712 -3.25108 0.956968 0
M  V30 181 C 17.1442 -3.81253 2.14394 0
M  V30 182 C 16.2032 -4.94789 1.79082 0
M  V30 183 O 15.2292 -5.10721 2.51301 0
M  V30 184 N 16.4312 -5.75878 0.731043 0
M  V30 185 H 19.1962 -1.98186 2.24816 0
M  V30 186 H 16.7572 -0.957129 1.30578 0
M  V30 187 H 18.7492 -3.9857 0.701701 0
M  V30 188 H 17.3192 -3.125 0.0789812 0
M  V30 189 H 16.5392 -2.99647 2.56135 0
M  V30 190 H 17.8272 -4.15495 2.93668 0
M  V30 191 H 17.2252 -5.65547 0.131618 0
M  V30 192 H 15.7822 -6.49596 0.535622 0
M  V30 193 N 19.2153 -1.21501 -1.00376 0
M  V30 194 C 20.6313 -0.972629 -1.26539 0
M  V30 195 C 20.8313 0.340257 -1.98606 0
M  V30 196 O 19.8873 1.06561 -2.28913 0
M  V30 197 C 21.2003 -2.16404 -2.08781 0
M  V30 198 C 22.7483 -2.20643 -2.22004 0
M  V30 199 C 23.2233 -3.39306 -3.07629 0
M  V30 200 N 24.7143 -3.39401 -3.15217 0
M  V30 201 C 25.4493 -4.27867 -3.81729 0
M  V30 202 N 24.9453 -5.26533 -4.5026 0
M  V30 203 N 26.7383 -4.15672 -3.78382 0
M  V30 204 H 18.8893 -2.05929 -0.520281 0
M  V30 205 H 21.1523 -0.901803 -0.292328 0
M  V30 206 H 20.8583 -3.11554 -1.63178 0
M  V30 207 H 20.7323 -2.15567 -3.09533 0
M  V30 208 H 23.1193 -1.26048 -2.66825 0
M  V30 209 H 23.2003 -2.25523 -1.20718 0
M  V30 210 H 22.8443 -4.34195 -2.63509 0
M  V30 211 H 22.7743 -3.31665 -4.09031 0
M  V30 212 H 25.2653 -2.67997 -2.66432 0
M  V30 213 H 25.5783 -5.90337 -4.98721 0
M  V30 214 H 23.9233 -5.30457 -4.49044 0
M  V30 215 H 27.1143 -3.3785 -3.23998 0
M  V30 216 H 27.2873 -4.84825 -4.2994 0
M  V30 217 N 20.6934 1.19889 -1.02296 0
M  V30 218 C 22.1094 1.41462 -0.738954 0
M  V30 219 C 22.3094 1.89721 0.678846 0
M  V30 220 O 21.3654 2.07016 1.4457 0
M  V30 221 C 22.6784 2.43083 -1.77005 0
M  V30 222 C 24.2264 2.5684 -1.78892 0
M  V30 223 C 24.7014 3.61709 -2.80945 0
M  V30 224 N 26.1924 3.69199 -2.79725 0
M  V30 225 C 26.9274 4.50019 -3.55345 0
M  V30 226 N 26.4234 5.34592 -4.40662 0
M  V30 227 N 28.2164 4.44612 -3.43914 0
M  V30 228 H 20.3674 0.868827 -1.93817 0
M  V30 229 H 22.6304 0.44399 -0.837602 0
M  V30 230 H 22.3364 2.14636 -2.78612 0
M  V30 231 H 22.2104 3.4217 -1.58744 0
M  V30 232 H 24.5974 2.84614 -0.779674 0
M  V30 233 H 24.6784 1.57927 -2.01228 0
M  V30 234 H 24.3224 3.34678 -3.82038 0
M  V30 235 H 24.2524 4.60259 -2.5587 0
M  V30 236 H 26.7434 3.08794 -2.17842 0
M  V30 237 H 27.0564 5.93363 -4.95116 0
M  V30 238 H 25.4014 5.34073 -4.44737 0
M  V30 239 H 28.5924 3.7758 -2.76679 0
M  V30 240 H 28.7654 5.0736 -4.031 0
M  V30 241 N 22.1715 0.800033 1.35784 0
M  V30 242 C 23.4115 0.382891 2.00782 0
M  V30 243 C 23.7755 -1.02891 1.62103 0
M  V30 244 O 24.9765 -1.54771 2.19771 0
M  V30 245 C 23.2475 0.553299 3.53091 0
M  V30 246 S 24.8065 0.225608 4.3822 0
M  V30 247 H 21.6245 0.145737 0.695904 0
M  V30 248 H 24.2265 1.04085 1.65489 0
M  V30 249 H 22.9305 1.58091 3.78729 0
M  V30 250 H 22.4615 -0.120214 3.93216 0
M  V30 251 H 24.4765 -0.969074 4.86645 0
M  V30 252 N 23.6496 -1.47581 0.552962 0
M  V30 253 C 24.8746 -2.07378 0.0300593 0
M  V30 254 C 25.2996 -1.40355 -1.25229 0
M  V30 255 O 24.6576 -0.477099 -1.7491 0
M  V30 256 C 24.7056 -3.60274 -0.153231 0
M  V30 257 O 23.8096 -3.94041 -1.21678 0
M  V30 258 H 23.1506 -0.662158 0.0494182 0
M  V30 259 H 25.6806 -1.89662 0.767434 0
M  V30 260 H 25.6906 -4.0633 -0.368761 0
M  V30 261 H 24.3656 -4.08455 0.783397 0
M  V30 262 H 22.9426 -3.59735 -0.982079 0
M  V30 263 N 25.1277 -0.289203 -1.54924 0
M  V30 264 C 26.0577 0.58549 -2.2604 0
M  V30 265 C 27.0387 1.14753 -1.25562 0
M  V30 266 O 28.2237 1.17906 -1.54311 0
M  V30 267 C 25.3537 1.76305 -2.99222 0
M  V30 268 C 24.3077 1.33191 -4.06748 0
M  V30 269 C 23.6337 2.5937 -4.6758 0
M  V30 270 C 24.9337 0.471775 -5.20165 0
M  V30 271 H 26.6277 -0.00763532 -2.99399 0
M  V30 272 H 24.1737 -0.00511229 -1.43999 0
M  V30 273 H 26.1267 2.38097 -3.47689 0
M  V30 274 H 24.8507 2.38223 -2.23422 0
M  V30 275 H 23.5097 0.737121 -3.59113 0
M  V30 276 H 23.1577 3.19576 -3.88433 0
M  V30 277 H 22.8577 2.31228 -5.40192 0
M  V30 278 H 24.3817 3.21985 -5.18804 0
M  V30 279 H 25.7957 0.995056 -5.64599 0
M  V30 280 H 24.1927 0.284639 -5.99425 0
M  V30 281 H 25.2627 -0.506041 -4.82252 0
M  V30 282 N 26.6058 1.57591 -0.0167156 0
M  V30 283 C 27.5158 2.1291 0.98521 0
M  V30 284 C 28.5318 1.07834 1.36557 0
M  V30 285 O 29.7078 1.39826 1.44951 0
M  V30 286 C 26.7728 2.63512 2.25305 0
M  V30 287 C 25.8338 3.83256 1.93426 0
M  V30 288 C 25.0668 4.31435 3.14165 0
M  V30 289 O 25.2898 3.78851 4.26413 0
M  V30 290 O 24.2238 5.23416 2.97186 0
M  V30 291 H 28.0498 2.98772 0.544888 0
M  V30 292 H 25.6348 1.48012 0.203141 0
M  V30 293 H 27.5168 2.96183 2.99756 0
M  V30 294 H 26.1918 1.8074 2.68542 0
M  V30 295 H 25.0988 3.55531 1.16398 0
M  V30 296 H 26.4318 4.67153 1.55013 0
M  V30 297 N 28.0839 -0.256276 1.55502 0
M  V30 298 C 29.4949 -0.826068 1.67431 0
M  V30 299 C 29.8459 -1.86396 0.612446 0
M  V30 300 O 28.9709 -2.15031 -0.243025 0
M  V30 301 C 29.5659 -1.50512 3.03532 0
M  V30 302 C 28.1249 -2.02273 3.17431 0
M  V30 303 C 27.2719 -0.870548 2.63281 0
M  V30 304 H 30.2229 -0.0322728 1.58667 0
M  V30 305 H 30.2439 -2.37279 2.97454 0
M  V30 306 H 29.7559 -0.749484 3.80794 0
M  V30 307 H 27.8569 -2.80746 2.44974 0
M  V30 308 H 27.9699 -2.22655 4.24219 0
M  V30 309 H 26.3339 -1.26851 2.20864 0
M  V30 310 H 27.1169 -0.128149 3.43061 0
M  V30 311 N 29.562 -1.4872 -0.521534 0
M  V30 312 C 30.973 -1.50607 -1.10337 0
M  V30 313 C 31.324 -0.280612 -1.94183 0
M  V30 314 O 30.449 0.611507 -2.0758 0
M  V30 315 C 31.044 -2.72903 -2.00772 0
M  V30 316 C 29.603 -2.77634 -2.54158 0
M  V30 317 C 28.75 -2.44241 -1.31307 0
M  V30 318 H 31.701 -1.55714 -0.306388 0
M  V30 319 H 31.722 -2.519 -2.85178 0
M  V30 320 H 31.234 -3.62077 -1.39721 0
M  V30 321 H 29.335 -1.92689 -3.18907 0
M  V30 322 H 29.448 -3.79283 -2.92714 0
M  V30 323 H 27.812 -1.95577 -1.63161 0
M  V30 324 H 28.595 -3.35666 -0.719943 0
M  V30 325 N 31.0401 0.771051 -1.3745 0
M  V30 326 C 32.3171 1.519 -1.23231 0
M  V30 327 C 32.6971 2.10383 0.173809 0
M  V30 328 O 32.0451 1.95583 1.18151 0
M  V30 329 C 32.2551 2.59933 -2.32886 0
M  V30 330 C 33.6031 3.27316 -2.70461 0
M  V30 331 O 34.6271 2.70228 -2.32068 0
M  V30 332 O 33.4861 4.30531 -3.36608 0
M  V30 333 H 30.5801 0.672803 -0.480901 0
M  V30 334 H 33.1261 0.807957 -1.49232 0
M  V30 335 H 31.8981 2.14842 -3.27045 0
M  V30 336 H 31.5211 3.38637 -2.08353 0
M  V30 337 N 32.5182 1.22032 0.997298 0
M  V30 338 C 33.7432 1.06921 1.77715 0
M  V30 339 C 34.1682 -0.376226 1.84299 0
M  V30 340 O 33.5262 -1.27165 1.29223 0
M  V30 341 C 33.5742 1.67996 3.19076 0
M  V30 342 O 32.6782 0.930653 4.01762 0
M  V30 343 H 32.0192 0.375814 0.547412 0
M  V30 344 H 34.5492 1.61737 1.25309 0
M  V30 345 H 34.5592 1.72538 3.69723 0
M  V30 346 H 33.2342 2.73182 3.13599 0
M  V30 347 H 31.8112 0.960917 3.60307 0
M  V30 348 N 33.9963 -1.19345 1.0293 0
M  V30 349 C 35.2243 -1.92997 0.745644 0
M  V30 350 C 35.6393 -1.75519 -0.695589 0
M  V30 351 O 34.9963 -1.07737 -1.47306 0
M  V30 352 C 35.0473 -3.44741 1.08792 0
M  V30 353 O 34.7683 -3.61658 2.47256 0
M  V30 354 C 36.2693 -4.35515 0.827129 0
M  V30 355 H 33.4893 -0.613042 0.272801 0
M  V30 356 H 36.0333 -1.51473 1.3739 0
M  V30 357 H 34.1883 -3.84097 0.504832 0
M  V30 358 H 34.6023 -4.55514 2.60015 0
M  V30 359 H 36.0763 -5.40589 1.11658 0
M  V30 360 H 36.5533 -4.38552 -0.238436 0
M  V30 361 H 37.1593 -4.01841 1.39297 0
M  V30 362 N 35.4744 -0.807222 -1.35358 0
M  V30 363 C 36.4244 -0.190706 -2.27201 0
M  V30 364 C 37.4084 0.635838 -1.47804 0
M  V30 365 O 38.6004 0.492991 -1.69996 0
M  V30 366 C 35.7294 0.659337 -3.36909 0
M  V30 367 C 34.8154 -0.176971 -4.23731 0
M  V30 368 N 35.2064 -1.24029 -4.90357 0
M  V30 369 C 33.5044 0.0412953 -4.45981 0
M  V30 370 C 34.2054 -1.75092 -5.54723 0
M  V30 371 N 33.1814 -1.05727 -5.33219 0
M  V30 372 H 36.9834 -1.0043 -2.76208 0
M  V30 373 H 34.4974 -0.648445 -1.48892 0
M  V30 374 H 36.4944 1.11706 -4.01656 0
M  V30 375 H 35.1544 1.47127 -2.89454 0
M  V30 376 H 36.1654 -1.62295 -4.91814 0
M  V30 377 H 32.8424 0.82232 -4.09322 0
M  V30 378 H 34.2324 -2.63963 -6.17878 0
M  V30 379 N 36.9525 1.47285 -0.560781 0
M  V30 380 C 37.9025 2.27073 0.205384 0
M  V30 381 C 38.8865 1.34569 0.882044 0
M  V30 382 O 40.0785 1.58899 0.77976 0
M  V30 383 C 37.2075 3.20414 1.23247 0
M  V30 384 C 36.2935 4.20399 0.559041 0
M  V30 385 N 36.6845 5.04423 -0.372927 0
M  V30 386 C 34.9825 4.38536 0.812522 0
M  V30 387 C 35.6835 5.76655 -0.764446 0
M  V30 388 N 34.6595 5.43471 -0.11848 0
M  V30 389 H 38.4615 2.89422 -0.511117 0
M  V30 390 H 35.9755 1.57868 -0.380975 0
M  V30 391 H 37.9725 3.76262 1.79534 0
M  V30 392 H 36.6325 2.59623 1.95002 0
M  V30 393 H 37.6435 5.1248 -0.747287 0
M  V30 394 H 34.3205 3.88913 1.51832 0
M  V30 395 H 35.7105 6.54238 -1.53045 0
M  V30 396 N 38.4306 0.297415 1.54768 0
M  V30 397 C 39.6786 -0.312295 1.99673 0
M  V30 398 C 39.9996 -1.54686 1.18732 0
M  V30 399 O 39.2696 -1.93854 0.282382 0
M  V30 400 H 37.8496 -0.118381 0.73756 0
M  V30 401 H 40.5116 0.407915 1.90583 0
M  V30 402 H 39.6076 -0.586813 3.06534 0
M  V30 403 N 39.9087 -1.5758 0.0250728 0
M  V30 404 C 41.1567 -1.91255 -0.653151 0
M  V30 405 C 41.4777 -0.901691 -1.729 0
M  V30 406 O 40.7477 0.0573785 -1.95816 0
M  V30 407 H 39.3277 -0.705942 -0.244243 0
M  V30 408 H 41.9897 -1.94767 0.0719209 0
M  V30 409 H 41.0857 -2.91752 -1.10847 0
M  V30 410 N 41.3868 0.248026 -1.55636 0
M  V30 411 C 42.6338 0.976224 -1.77415 0
M  V30 412 C 42.9618 1.85361 -0.589193 0
M  V30 413 O 42.2168 1.90973 0.427529 0
M  V30 414 C 42.5158 1.86819 -3.04686 0
M  V30 415 C 42.1818 1.14625 -4.36087 0
M  V30 416 C 40.8438 0.946723 -4.71795 0
M  V30 417 C 43.1958 0.634463 -5.17324 0
M  V30 418 C 40.5238 0.223091 -5.86276 0
M  V30 419 C 42.8758 -0.0756959 -6.32555 0
M  V30 420 C 41.5398 -0.286711 -6.66884 0
M  V30 421 H 40.8098 0.357226 -0.649208 0
M  V30 422 H 43.4568 0.246415 -1.89908 0
M  V30 423 H 41.7618 2.66502 -2.872 0
M  V30 424 H 43.4588 2.43329 -3.18735 0
M  V30 425 H 40.0488 1.3117 -4.08035 0
M  V30 426 H 44.2328 0.77616 -4.90193 0
M  V30 427 H 39.4888 0.0491185 -6.1138 0
M  V30 428 H 43.6628 -0.479899 -6.94745 0
M  V30 429 H 41.2898 -0.849389 -7.5544 0
M  V30 430 N 42.8649 1.48995 0.513639 0
M  V30 431 C 44.2759 1.5119 1.09537 0
M  V30 432 C 44.6269 0.290906 1.94031 0
M  V30 433 O 43.7519 -0.60049 2.07902 0
M  V30 434 C 44.3469 2.73964 1.99322 0
M  V30 435 C 42.9059 2.78978 2.52682 0
M  V30 436 C 42.0529 2.44934 1.30009 0
M  V30 437 H 45.0039 1.55875 0.298125 0
M  V30 438 H 45.0249 2.53409 2.83838 0
M  V30 439 H 44.5369 3.62813 1.37799 0
M  V30 440 H 42.6379 1.94378 3.1788 0
M  V30 441 H 42.7509 3.8083 2.90698 0
M  V30 442 H 41.1149 1.9644 1.62122 0
M  V30 443 H 41.8979 3.36043 0.702131 0
M  V30 444 N 44.343 -0.763751 1.37857 0
M  V30 445 C 45.306 -1.85889 1.34081 0
M  V30 446 C 46.306 -1.58949 0.243277 0
M  V30 447 O 47.496 -1.66882 0.499589 0
M  V30 448 C 44.628 -3.23176 1.08489 0
M  V30 449 H 45.821 -1.90648 2.31502 0
M  V30 450 H 43.374 -0.964367 1.23003 0
M  V30 451 H 44.109 -3.24091 0.116318 0
M  V30 452 H 43.894 -3.44124 1.8794 0
M  V30 453 H 45.384 -4.03254 1.08517 0
M  V30 454 N 45.8211 -1.22559 -0.990812 0
M  V30 455 C 47.0461 -1.07862 -1.77145 0
M  V30 456 C 47.4711 0.366447 -1.84496 0
M  V30 457 O 46.8291 1.26478 -1.29896 0
M  V30 458 C 46.8771 -1.69686 -3.18181 0
M  V30 459 O 45.9811 -0.951946 -4.01263 0
M  V30 460 H 45.3221 -0.378712 -0.545411 0
M  V30 461 H 47.8521 -1.62399 -1.2445 0
M  V30 462 H 47.8621 -1.74496 -3.68802 0
M  V30 463 H 46.5371 -2.74841 -3.12146 0
M  V30 464 H 45.1141 -0.980011 -3.59792 0
M  V30 465 N 47.2992 1.18797 -1.03562 0
M  V30 466 C 48.2312 2.21731 -0.580337 0
M  V30 467 C 49.2442 1.59051 0.347349 0
M  V30 468 O 50.4332 1.77929 0.142669 0
M  V30 469 C 47.5332 3.38459 0.172805 0
M  V30 470 C 46.7062 4.3072 -0.761496 0
M  V30 471 C 45.7652 5.26174 -0.0525547 0
M  V30 472 O 44.7912 5.65108 -0.681333 0
M  V30 473 N 45.9932 5.67624 1.21586 0
M  V30 474 H 48.7582 2.61417 -1.46565 0
M  V30 475 H 46.3192 1.33531 -0.915476 0
M  V30 476 H 48.3112 3.99335 0.656793 0
M  V30 477 H 46.8812 2.97507 0.959602 0
M  V30 478 H 46.1012 3.67525 -1.42544 0
M  V30 479 H 47.3892 4.89267 -1.39626 0
M  V30 480 H 46.7872 5.38038 1.74732 0
M  V30 481 H 45.3442 6.30721 1.64421 0
M  V30 482 N 48.7773 0.814389 1.34928 0
M  V30 483 C 50.0053 0.411136 2.02774 0
M  V30 484 C 50.4203 -0.980316 1.61354 0
M  V30 485 O 49.7773 -1.63299 0.814847 0
M  V30 486 C 49.8283 0.493865 3.58111 0
M  V30 487 O 49.5493 1.83047 3.98027 0
M  V30 488 C 51.0503 0.0844174 4.4322 0
M  V30 489 H 48.2703 0.166037 0.650133 0
M  V30 490 H 50.8143 1.10018 1.72384 0
M  V30 491 H 48.9693 -0.147006 3.87121 0
M  V30 492 H 49.3833 1.79872 4.92693 0
M  V30 493 H 50.8573 0.193404 5.51661 0
M  V30 494 H 51.3343 -0.97113 4.28329 0
M  V30 495 H 51.9403 0.69875 4.19521 0
M  V30 496 N 50.2554 -1.46986 0.568584 0
M  V30 497 C 51.6664 -1.86188 0.138219 0
M  V30 498 C 52.0174 -1.47388 -1.29504 0
M  V30 499 O 51.1424 -0.88219 -1.97602 0
M  V30 500 C 51.7374 -3.3792 0.244065 0
M  V30 501 C 50.2964 -3.76171 -0.131335 0
M  V30 502 C 49.4434 -2.71027 0.586465 0
M  V30 503 H 52.3944 -1.38342 0.777645 0
M  V30 504 H 52.4154 -3.76729 -0.534351 0
M  V30 505 H 51.9274 -3.66128 1.28731 0
M  V30 506 H 50.0284 -3.5358 -1.17526 0
M  V30 507 H 50.1414 -4.78523 0.235146 0
M  V30 508 H 48.5054 -2.54684 0.0282722 0
M  V30 509 H 49.2884 -3.02077 1.63109 0
M  V30 510 N 51.7335 -0.305618 -1.54608 0
M  V30 511 C 52.6815 0.584119 -2.25146 0
M  V30 512 C 53.6755 1.13326 -1.25911 0
M  V30 513 O 54.8815 1.08337 -1.43747 0
M  V30 514 H 51.2565 0.206983 -0.722954 0
M  V30 515 H 53.2275 -0.033291 -2.98381 0
M  V30 516 C 51.9765 1.74225 -3.009 0
M  V30 517 H 51.2995 1.32892 -3.77067 0
M  V30 518 H 52.7395 2.34077 -3.53531 0
M  V30 519 C 51.1985 2.64914 -2.0814 0
M  V30 520 O 51.7285 3.66137 -1.65246 0
M  V30 521 N 49.9345 2.3275 -1.74 0
M  V30 522 H 49.4815 1.50479 -2.09078 0
M  V30 523 H 49.4395 2.93694 -1.12211 0
M  V30 524 N 53.2116 1.57565 -0.0334293 0
M  V30 525 C 54.1586 2.10478 0.946981 0
M  V30 526 C 55.1286 1.00787 1.32027 0
M  V30 527 O 56.3136 1.28232 1.41284 0
M  V30 528 C 53.4536 2.63994 2.22263 0
M  V30 529 C 52.5666 3.87709 1.90541 0
M  V30 530 C 51.7016 4.29604 3.12433 0
M  V30 531 C 50.7406 5.46065 2.76549 0
M  V30 532 N 49.8776 5.83096 3.9108 0
M  V30 533 H 54.7176 2.93963 0.488846 0
M  V30 534 H 52.2546 1.45296 0.22969 0
M  V30 535 H 54.2126 2.93114 2.96884 0
M  V30 536 H 52.8426 1.83333 2.65685 0
M  V30 537 H 51.8946 3.65291 1.06144 0
M  V30 538 H 53.2066 4.72403 1.60116 0
M  V30 539 H 52.3606 4.60182 3.9537 0
M  V30 540 H 51.0996 3.43685 3.46023 0
M  V30 541 H 50.1046 5.15176 1.92026 0
M  V30 542 H 51.3296 6.33685 2.44171 0
M  V30 543 H 49.2756 5.00132 4.24504 0
M  V30 544 H 49.1926 6.6244 3.64293 0
M  V30 545 H 50.4606 6.18282 4.74708 0
M  V30 546 N 54.6897 -0.239769 1.55765 0
M  V30 547 C 55.9177 -0.98417 1.81994 0
M  V30 548 C 56.3327 -1.7867 0.610124 0
M  V30 549 O 55.6897 -1.77571 -0.421271 0
M  V30 550 C 55.7407 -1.91635 3.06526 0
M  V30 551 O 55.4617 -1.14629 4.22838 0
M  V30 552 C 56.9627 -2.77616 3.45607 0
M  V30 553 H 54.1827 -0.28928 0.605441 0
M  V30 554 H 56.7267 -0.260499 2.02834 0
M  V30 555 H 54.8817 -2.5942 2.87715 0
M  V30 556 H 55.2957 -1.77745 4.93464 0
M  V30 557 H 56.7697 -3.38759 4.35828 0
M  V30 558 H 57.2467 -3.4909 2.6652 0
M  V30 559 H 57.8527 -2.15271 3.66795 0
M  V30 560 N 56.1678 -1.49265 -0.50573 0
M  V30 561 C 57.1308 -1.65075 -1.59006 0
M  V30 562 C 58.1308 -0.522768 -1.52065 0
M  V30 563 O 59.3208 -0.789117 -1.55302 0
M  V30 564 C 56.4528 -1.64369 -2.98656 0
M  V30 565 H 57.6458 -2.61784 -1.46319 0
M  V30 566 H 55.1988 -1.38226 -0.729616 0
M  V30 567 H 55.9338 -0.692272 -3.16825 0
M  V30 568 H 55.7188 -2.46282 -3.05103 0
M  V30 569 H 57.2088 -1.78674 -3.77446 0
M  V30 570 N 57.6459 0.756429 -1.3826 0
M  V30 571 C 58.6089 1.85176 -1.35065 0
M  V30 572 C 59.6089 1.58818 -0.251703 0
M  V30 573 O 60.7989 1.66615 -0.508433 0
M  V30 574 C 57.9309 3.22596 -1.10201 0
M  V30 575 H 59.1239 1.89417 -2.3251 0
M  V30 576 H 56.6769 0.95783 -1.23512 0
M  V30 577 H 57.4119 3.24025 -0.133504 0
M  V30 578 H 57.1969 3.43122 -1.89762 0
M  V30 579 H 58.6869 4.02673 -1.10654 0
M  V30 580 N 59.124 1.23083 0.984299 0
M  V30 581 C 60.535 1.05609 1.5396 0
M  V30 582 C 60.886 -0.377793 1.92528 0
M  V30 583 O 60.011 -1.26398 1.75649 0
M  V30 584 C 60.606 1.91087 2.7977 0
M  V30 585 C 59.165 1.77885 3.31713 0
M  V30 586 C 58.312 1.87028 2.04733 0
M  V30 587 H 61.263 1.36802 0.804419 0
M  V30 588 H 61.284 1.43336 3.5247 0
M  V30 589 H 60.796 2.9544 2.51668 0
M  V30 590 H 58.897 0.762995 3.64704 0
M  V30 591 H 59.01 2.61047 4.01735 0
M  V30 592 H 57.374 1.30565 2.18689 0
M  V30 593 H 58.157 2.92929 1.79017 0
M  V30 594 N 60.6021 -1.18246 1.0419 0
M  V30 595 C 61.8791 -1.84121 0.660208 0
M  V30 596 C 62.2591 -1.92778 -0.860221 0
M  V30 597 O 61.6071 -1.45464 -1.76217 0
M  V30 598 C 61.8171 -3.22355 1.33747 0
M  V30 599 C 63.1651 -3.98376 1.46906 0
M  V30 600 O 64.1891 -3.31799 1.29568 0
M  V30 601 O 63.0481 -5.17665 1.75171 0
M  V30 602 H 60.1421 -0.794036 0.231161 0
M  V30 603 H 62.6881 -1.25628 1.14087 0
M  V30 604 H 61.4601 -3.10964 2.37522 0
M  V30 605 H 61.0831 -3.88506 0.845515 0
M  V30 606 N 62.0802 -0.821533 -1.34494 0
M  V30 607 C 63.3082 -0.421884 -2.02553 0
M  V30 608 C 63.7232 0.971745 -1.61872 0
M  V30 609 O 63.0802 1.62864 -0.823496 0
M  V30 610 C 63.1312 -0.51285 -3.57844 0
M  V30 611 O 62.8522 -1.85155 -3.97051 0
M  V30 612 C 64.3532 -0.107921 -4.43169 0
M  V30 613 H 61.5732 -0.169482 -0.649243 0
M  V30 614 H 64.1172 -1.1093 -1.71798 0
M  V30 615 H 62.2722 0.126474 -3.87193 0
M  V30 616 H 62.6862 -1.82482 -4.91732 0
M  V30 617 H 64.1602 -0.222657 -5.51551 0
M  V30 618 H 64.6372 0.948401 -4.28838 0
M  V30 619 H 65.2432 -0.720989 -4.19144 0
M  V30 620 N 63.5583 1.46682 -0.576371 0
M  V30 621 C 64.5083 2.27278 0.181288 0
M  V30 622 C 65.4923 1.35497 0.867721 0
M  V30 623 O 66.6843 1.59717 0.762863 0
M  V30 624 C 63.8133 3.21703 1.19841 0
M  V30 625 C 62.8993 4.20969 0.51442 0
M  V30 626 N 63.2903 5.03999 -0.426407 0
M  V30 627 C 61.5883 4.39373 0.765963 0
M  V30 628 C 62.2893 5.75812 -0.825565 0
M  V30 629 N 61.2653 5.43315 -0.176116 0
M  V30 630 H 65.0673 2.88863 -0.541785 0
M  V30 631 H 62.5813 1.57455 -0.397697 0
M  V30 632 H 64.5783 3.78145 1.75533 0
M  V30 633 H 63.2383 2.61677 1.92238 0
M  V30 634 H 64.2493 5.11659 -0.8016 0
M  V30 635 H 60.9263 3.90502 1.47698 0
M  V30 636 H 62.3163 6.52577 -1.59976 0
M  V30 637 N 65.0364 0.313813 1.54444 0
M  V30 638 C 66.4524 -0.0391619 1.59552 0
M  V30 639 C 66.6524 -1.51322 1.33056 0
M  V30 640 O 65.7084 -2.26782 1.11022 0
M  V30 641 C 67.0214 0.370302 2.98411 0
M  V30 642 C 68.5694 0.320139 3.11358 0
M  V30 643 C 69.0444 0.704617 4.52547 0
M  V30 644 N 70.5354 0.657645 4.58508 0
M  V30 645 C 71.2704 0.927453 5.6585 0
M  V30 646 N 70.7664 1.26389 6.81174 0
M  V30 647 N 72.5594 0.853662 5.5558 0
M  V30 648 H 64.7104 1.27433 1.69925 0
M  V30 649 H 66.9734 0.517511 0.794284 0
M  V30 650 H 66.6794 1.39694 3.22767 0
M  V30 651 H 66.5534 -0.269619 3.76235 0
M  V30 652 H 68.9404 -0.697275 2.86744 0
M  V30 653 H 69.0214 0.99486 2.35661 0
M  V30 654 H 68.6654 1.7199 4.77893 0
M  V30 655 H 68.5954 0.00768843 5.26599 0
M  V30 656 H 71.0864 0.409067 3.75679 0
M  V30 657 H 71.3994 1.4554 7.58972 0
M  V30 658 H 69.7444 1.30206 6.82694 0
M  V30 659 H 72.9354 0.590383 4.64362 0
M  V30 660 H 73.1084 1.0673 6.3915 0
M  V30 661 N 66.5145 -1.57545 0.0417849 0
M  V30 662 C 67.7425 -1.96624 -0.643928 0
M  V30 663 C 68.1575 -0.918897 -1.64929 0
M  V30 664 O 67.5145 0.0979323 -1.82237 0
M  V30 665 C 67.5655 -3.35781 -1.33914 0
M  V30 666 O 67.2865 -4.365 -0.374048 0
M  V30 667 C 68.7875 -3.89566 -2.1155 0
M  V30 668 H 66.0075 -0.647316 -0.176702 0
M  V30 669 H 68.5515 -2.04229 0.105304 0
M  V30 670 H 66.7065 -3.29357 -2.03968 0
M  V30 671 H 67.1205 -5.17248 -0.869179 0
M  V30 672 H 68.5945 -4.89242 -2.55628 0
M  V30 673 H 69.0715 -3.24488 -2.9598 0
M  V30 674 H 69.6775 -3.99298 -1.46427 0
M  V30 675 N 67.9926 0.231505 -1.5589 0
M  V30 676 C 69.4036 0.799327 -1.68724 0
M  V30 677 C 69.7546 1.85398 -0.642022 0
M  V30 678 O 68.8796 2.1539 0.208784 0
M  V30 679 C 69.4746 1.45664 -3.05888 0
M  V30 680 C 68.0336 1.97197 -3.20609 0
M  V30 681 C 67.1806 0.828552 -2.64632 0
M  V30 682 H 70.1316 0.00702616 -1.58698 0
M  V30 683 H 70.1526 2.32517 -3.01191 0
M  V30 684 H 69.6646 0.688808 -3.81939 0
M  V30 685 H 67.7656 2.76813 -2.4941 0
M  V30 686 H 67.8786 2.15878 -4.27707 0
M  V30 687 H 66.2426 1.23321 -2.22854 0
M  V30 688 H 67.0256 0.0735544 -3.43221 0
M  V30 689 N 69.4707 1.49531 0.497807 0
M  V30 690 C 70.6957 1.63159 1.28039 0
M  V30 691 C 71.1207 0.30418 1.85624 0
M  V30 692 O 70.4787 -0.728618 1.66015 0
M  V30 693 C 70.5267 2.70537 2.38416 0
M  V30 694 O 69.6307 2.29931 3.42353 0
M  V30 695 H 68.9717 0.546001 0.377861 0
M  V30 696 H 71.5017 1.9574 0.59558 0
M  V30 697 H 71.5117 2.92802 2.84132 0
M  V30 698 H 70.1867 3.6689 1.95869 0
M  V30 699 H 68.7637 2.18009 3.02533 0
M  V30 700 N 70.9488 -0.749086 1.3866 0
M  V30 701 C 72.3648 -1.05276 1.19955 0
M  V30 702 C 72.5648 -2.01435 0.05134 0
M  V30 703 O 71.6208 -2.45232 -0.60147 0
M  V30 704 C 72.9338 -1.62853 2.52783 0
M  V30 705 C 74.4818 -1.75002 2.59506 0
M  V30 706 C 74.9568 -2.35991 3.92521 0
M  V30 707 N 76.4478 -2.43416 3.94085 0
M  V30 708 C 77.1828 -2.91511 4.9377 0
M  V30 709 N 76.6788 -3.39608 6.03853 0
M  V30 710 N 78.4718 -2.90592 4.81157 0
M  V30 711 H 70.6228 -0.111066 2.12109 0
M  V30 712 H 72.8858 -0.111901 0.941373 0
M  V30 713 H 72.5918 -0.99664 3.37283 0
M  V30 714 H 72.4658 -2.61854 2.715 0
M  V30 715 H 74.8528 -2.37317 1.75398 0
M  V30 716 H 74.9338 -0.74693 2.44652 0
M  V30 717 H 74.5778 -1.74308 4.77053 0
M  V30 718 H 74.5078 -3.3695 4.04688 0
M  V30 719 H 76.9988 -2.09405 3.14576 0
M  V30 720 H 77.3118 -3.74775 6.75843 0
M  V30 721 H 75.6568 -3.37653 6.07466 0
M  V30 722 H 78.8478 -2.52332 3.94267 0
M  V30 723 H 79.0208 -3.27762 5.58996 0
M  V30 724 N 72.4269 -1.23603 -0.977757 0
M  V30 725 C 73.6519 -1.09735 -1.75991 0
M  V30 726 C 74.0769 0.346858 -1.84874 0
M  V30 727 O 73.4349 1.25093 -1.3123 0
M  V30 728 C 73.4829 -1.73051 -3.16363 0
M  V30 729 O 72.5869 -0.994452 -4.0023 0
M  V30 730 H 71.9279 -0.384476 -0.541364 0
M  V30 731 H 74.4579 -1.6371 -1.2272 0
M  V30 732 H 74.4679 -1.78398 -3.66931 0
M  V30 733 H 73.1429 -2.78137 -3.09213 0
M  V30 734 H 71.7199 -1.01812 -3.58732 0
M  V30 735 N 73.905 1.17692 -1.04816 0
M  V30 736 C 75.152 1.87859 -0.75599 0
M  V30 737 C 75.48 1.80812 0.716752 0
M  V30 738 O 74.735 1.20819 1.53952 0
M  V30 739 C 75.034 3.37462 -1.17703 0
M  V30 740 C 74.7 3.64713 -2.65133 0
M  V30 741 C 73.362 3.71859 -3.05408 0
M  V30 742 C 75.714 3.76492 -3.60421 0
M  V30 743 C 73.042 3.88271 -4.39843 0
M  V30 744 C 75.394 3.94421 -4.94585 0
M  V30 745 C 74.058 3.99806 -5.3452 0
M  V30 746 H 73.328 0.687425 -0.276636 0
M  V30 747 H 75.975 1.39255 -1.31455 0
M  V30 748 H 74.28 3.88097 -0.537395 0
M  V30 749 H 75.977 3.90109 -0.928218 0
M  V30 750 H 72.567 3.59772 -2.32942 0
M  V30 751 H 76.751 3.70295 -3.30447 0
M  V30 752 H 72.007 3.90687 -4.70291 0
M  V30 753 H 76.181 4.02477 -5.68318 0
M  V30 754 H 73.808 4.12276 -6.38696 0
M  V30 755 N 75.3831 0.828654 1.34056 0
M  V30 756 C 76.6311 0.41863 1.97717 0
M  V30 757 C 76.9521 -1.02314 1.66002 0
M  V30 758 O 76.2221 -1.71119 0.953683 0
M  V30 759 H 74.8021 0.151809 0.731412 0
M  V30 760 H 77.4641 1.05936 1.63596 0
M  V30 761 H 76.5601 0.542318 3.07352 0
M  V30 762 N 76.8612 -1.46375 0.584142 0
M  V30 763 C 78.0892 -2.06761 0.0759296 0
M  V30 764 C 78.5042 -1.43266 -1.22965 0
M  V30 765 O 77.8612 -0.538458 -1.74376 0
M  V30 766 C 77.9122 -3.61375 -0.0950384 0
M  V30 767 O 77.6332 -4.22495 1.15887 0
M  V30 768 C 79.1342 -4.38693 -0.637434 0
M  V30 769 H 76.3542 -0.668479 0.0581075 0
M  V30 770 H 78.8982 -1.8798 0.805218 0
M  V30 771 H 77.0532 -3.79578 -0.774554 0
M  V30 772 H 77.4672 -5.15385 0.973598 0
M  V30 773 H 78.9412 -5.47464 -0.706237 0
M  V30 774 H 79.4182 -4.06836 -1.65472 0
M  V30 775 H 80.0242 -4.25299 0.00725967 0
M  V30 776 N 78.3393 -0.321999 -1.54275 0
M  V30 777 C 79.5853 0.281461 -2.00837 0
M  V30 778 C 79.9183 1.51909 -1.20985 0
M  V30 779 O 79.1933 1.923 -0.291733 0
M  V30 780 C 79.4763 0.617162 -3.54772 0
M  V30 781 C 79.3293 -0.631064 -4.45351 0
M  V30 782 C 80.6483 1.43542 -4.16033 0
M  V30 783 H 77.7673 0.100826 -0.730071 0
M  V30 784 H 80.4093 -0.438268 -1.84876 0
M  V30 785 H 78.5593 1.23034 -3.68504 0
M  V30 786 H 80.2313 -1.26934 -4.43492 0
M  V30 787 H 78.4743 -1.26025 -4.15091 0
M  V30 788 H 79.1453 -0.351735 -5.50878 0
M  V30 789 H 81.6213 0.917134 -4.05867 0
M  V30 790 H 80.4973 1.63907 -5.23856 0
M  V30 791 H 80.7583 2.43108 -3.69257 0
M  V30 792 N 79.8174 1.5752 -0.0501392 0
M  V30 793 C 80.7804 2.1037 0.909786 0
M  V30 794 C 81.7804 1.02308 1.24056 0
M  V30 795 O 82.9704 1.28385 1.17741 0
M  V30 796 C 80.1024 2.58708 2.21998 0
M  V30 797 H 81.2954 2.96479 0.451665 0
M  V30 798 H 78.8484 1.55038 0.198248 0
M  V30 799 H 79.5834 1.75989 2.72394 0
M  V30 800 H 79.3684 3.37675 1.99295 0
M  V30 801 H 80.8584 2.99747 2.9076 0
M  V30 802 N 81.2955 -0.223234 1.56011 0
M  V30 803 C 82.5235 -0.964812 1.83027 0
M  V30 804 C 82.9385 -1.78013 0.62904 0
M  V30 805 O 82.2955 -1.78008 -0.402414 0
M  V30 806 C 82.3465 -1.88373 3.08542 0
M  V30 807 O 82.0675 -1.10137 4.2403 0
M  V30 808 C 83.5685 -2.73934 3.48533 0
M  V30 809 H 80.7885 -0.282842 0.608475 0
M  V30 810 H 83.3325 -0.238971 2.03099 0
M  V30 811 H 81.4875 -2.56354 2.9045 0
M  V30 812 H 81.9015 -1.72501 4.95322 0
M  V30 813 H 83.3755 -3.34117 4.39397 0
M  V30 814 H 83.8525 -3.46244 2.70207 0
M  V30 815 H 84.4585 -2.11369 3.69057 0
M  V30 816 N 82.7736 -1.49793 -0.48987 0
M  V30 817 C 83.6836 -1.70036 -1.61632 0
M  V30 818 C 84.6996 -0.583102 -1.63939 0
M  V30 819 O 85.8756 -0.859169 -1.82154 0
M  V30 820 C 82.9406 -1.77277 -2.97949 0
M  V30 821 C 82.0016 -3.00918 -3.06181 0
M  V30 822 C 81.2346 -3.07804 -4.35996 0
M  V30 823 O 81.4576 -2.21982 -5.25433 0
M  V30 824 O 80.3916 -4.00369 -4.49431 0
M  V30 825 H 84.2176 -2.65486 -1.47482 0
M  V30 826 H 81.8026 -1.33666 -0.667362 0
M  V30 827 H 83.6846 -1.84329 -3.78947 0
M  V30 828 H 82.3596 -0.850076 -3.12339 0
M  V30 829 H 81.2666 -2.99377 -2.2433 0
M  V30 830 H 82.5996 -3.92704 -2.96723 0
M  V30 831 N 84.2517 0.741722 -1.39055 0
M  V30 832 C 85.6627 1.31966 -1.32068 0
M  V30 833 C 86.0137 1.96192 0.0180797 0
M  V30 834 O 85.1387 1.95861 0.920196 0
M  V30 835 C 85.7337 2.39954 -2.39181 0
M  V30 836 C 84.2927 2.93438 -2.35735 0
M  V30 837 C 83.4397 1.66936 -2.21422 0
M  V30 838 H 86.3907 0.539721 -1.4924 0
M  V30 839 H 86.4117 3.20182 -2.05581 0
M  V30 840 H 85.9237 1.9318 -3.36605 0
M  V30 841 H 84.0247 3.4451 -1.41929 0
M  V30 842 H 84.1377 3.4701 -3.30335 0
M  V30 843 H 82.5017 1.91016 -1.68478 0
M  V30 844 H 83.2847 1.22224 -3.20806 0
M  V30 845 N 85.7298 1.2412 0.971189 0
M  V30 846 C 86.6768 1.0305 2.06517 0
M  V30 847 C 87.6468 -0.0550666 1.66009 0
M  V30 848 O 88.8318 0.0988688 1.90544 0
M  V30 849 C 85.9718 0.637653 3.39158 0
M  V30 850 C 85.0848 1.79633 3.92882 0
M  V30 851 C 84.2198 1.34939 5.13775 0
M  V30 852 C 83.2588 2.47823 5.59687 0
M  V30 853 N 82.3958 2.04022 6.71803 0
M  V30 854 H 87.2358 1.96685 2.23873 0
M  V30 855 H 84.7728 0.979694 1.09729 0
M  V30 856 H 86.7308 0.390931 4.15364 0
M  V30 857 H 85.3608 -0.261693 3.21737 0
M  V30 858 H 84.4128 2.15681 3.13346 0
M  V30 859 H 85.7248 2.64466 4.22918 0
M  V30 860 H 84.8788 1.06134 5.97345 0
M  V30 861 H 83.6178 0.471557 4.85415 0
M  V30 862 H 82.6228 2.77392 4.74693 0
M  V30 863 H 83.8478 3.36158 5.90063 0
M  V30 864 H 81.7938 1.18632 6.45184 0
M  V30 865 H 81.7108 2.82409 7.01271 0
M  V30 866 H 82.9788 1.78347 7.58823 0
M  V30 867 N 87.2079 -1.17134 1.05439 0
M  V30 868 C 88.1379 -2.2342 0.678649 0
M  V30 869 C 89.1189 -1.66971 -0.32476 0
M  V30 870 O 90.3039 -1.93149 -0.201802 0
M  V30 871 C 87.4339 -3.47256 0.0552099 0
M  V30 872 C 86.3879 -4.16543 0.98365 0
M  V30 873 C 85.7139 -5.34231 0.223961 0
M  V30 874 C 87.0139 -4.68495 2.3089 0
M  V30 875 H 88.7079 -2.55105 1.56722 0
M  V30 876 H 86.2539 -1.2262 0.754998 0
M  V30 877 H 88.2069 -4.20828 -0.21946 0
M  V30 878 H 86.9309 -3.14846 -0.868319 0
M  V30 879 H 85.5899 -3.44887 1.24293 0
M  V30 880 H 85.2379 -4.98071 -0.702412 0
M  V30 881 H 84.9379 -5.81527 0.842627 0
M  V30 882 H 86.4619 -6.10585 -0.0433671 0
M  V30 883 H 87.8759 -5.33691 2.09396 0
M  V30 884 H 86.2729 -5.26379 2.88176 0
M  V30 885 H 87.3429 -3.85169 2.94572 0
M  V30 886 N 88.686 -0.835752 -1.33615 0
M  V30 887 C 89.933 -0.429959 -1.97883 0
M  V30 888 C 90.261 1.01006 -1.66217 0
M  V30 889 O 89.516 1.72047 -0.93265 0
M  V30 890 C 89.815 -0.593925 -3.52431 0
M  V30 891 C 89.481 -2.00158 -4.04039 0
M  V30 892 C 88.143 -2.38662 -4.17844 0
M  V30 893 C 90.495 -2.92117 -4.31644 0
M  V30 894 C 87.823 -3.68435 -4.56588 0
M  V30 895 C 90.175 -4.21368 -4.71838 0
M  V30 896 C 88.839 -4.59833 -4.83849 0
M  V30 897 H 88.109 -0.157333 -0.724104 0
M  V30 898 H 90.756 -1.06217 -1.59343 0
M  V30 899 H 89.061 0.121619 -3.91611 0
M  V30 900 H 90.758 -0.260282 -4.00154 0
M  V30 901 H 87.348 -1.69252 -3.93766 0
M  V30 902 H 91.532 -2.63608 -4.20505 0
M  V30 903 H 86.788 -3.98046 -4.64079 0
M  V30 904 H 90.962 -4.92703 -4.92155 0
M  V30 905 H 88.589 -5.60438 -5.13627 0
M  V30 906 N 90.1641 1.46063 -0.591896 0
M  V30 907 C 91.4121 2.01938 -0.0808391 0
M  V30 908 C 91.7331 1.46475 1.28725 0
M  V30 909 O 91.0031 0.652944 1.84698 0
M  V30 910 H 89.5831 0.746516 -0.0268938 0
M  V30 911 H 92.2451 1.79055 -0.769752 0
M  V30 912 H 91.3411 3.12094 -0.0187578 0
M  V30 913 N 91.6422 0.330177 1.54103 0
M  V30 914 C 92.8902 -0.269871 2.0029 0
M  V30 915 C 93.2112 -1.52133 1.21986 0
M  V30 916 O 92.4812 -1.93212 0.323438 0
M  V30 917 H 91.0612 -0.10271 0.739905 0
M  V30 918 H 93.7232 0.448249 1.89675 0
M  V30 919 H 92.8192 -0.52166 3.07709 0
M  V30 920 N 93.1203 -1.57491 0.0584922 0
M  V30 921 C 94.3673 -1.92978 -0.613648 0
M  V30 922 C 94.6953 -0.937461 -1.70417 0
M  V30 923 O 93.9503 0.049078 -1.95638 0
M  V30 924 C 94.2493 -3.3513 -1.24188 0
M  V30 925 C 93.9153 -4.50037 -0.278826 0
M  V30 926 C 92.5773 -4.81198 -0.0138447 0
M  V30 927 C 94.9293 -5.19807 0.380777 0
M  V30 928 C 92.2573 -5.79473 0.918052 0
M  V30 929 C 94.6093 -6.19079 1.30091 0
M  V30 930 C 93.2733 -6.48665 1.57449 0
M  V30 931 H 92.5433 -0.706157 -0.22455 0
M  V30 932 H 95.1903 -1.91082 0.126533 0
M  V30 933 H 93.4953 -3.33429 -2.05749 0
M  V30 934 H 95.1923 -3.59871 -1.769 0
M  V30 935 H 91.7823 -4.25726 -0.495539 0
M  V30 936 H 95.9663 -4.95939 0.189158 0
M  V30 937 H 91.2223 -6.00727 1.1374 0
M  V30 938 H 95.3963 -6.7225 1.81804 0
M  V30 939 H 93.0233 -7.24628 2.29822 0
M  V30 940 N 94.5984 0.214957 -1.56127 0
M  V30 941 C 95.5464 1.28601 -1.93816 0
M  V30 942 C 96.5404 1.48175 -0.821016 0
M  V30 943 O 97.7464 1.49271 -1.0059 0
M  V30 944 H 94.1214 0.431302 -0.616022 0
M  V30 945 H 96.0924 0.940991 -2.83175 0
M  V30 946 C 94.8414 2.62779 -2.27689 0
M  V30 947 H 94.1644 2.48527 -3.13168 0
M  V30 948 H 95.6044 3.36517 -2.57939 0
M  V30 949 C 94.0634 3.18285 -1.10436 0
M  V30 950 O 94.5934 4.00002 -0.368945 0
M  V30 951 N 92.7994 2.7675 -0.886433 0
M  V30 952 H 92.3464 2.10404 -1.48619 0
M  V30 953 H 92.3044 3.14229 -0.103656 0
M  V30 954 N 96.0765 1.50051 0.48192 0
M  V30 955 C 97.3045 1.64237 1.25832 0
M  V30 956 C 97.7195 0.321336 1.86045 0
M  V30 957 O 97.0765 -0.695478 1.68729 0
M  V30 958 C 97.1275 2.72548 2.37487 0
M  V30 959 O 96.8485 3.99529 1.79745 0
M  V30 960 C 98.3495 2.9761 3.28547 0
M  V30 961 H 95.5695 0.55237 0.380957 0
M  V30 962 H 98.1135 1.96207 0.576467 0
M  V30 963 H 96.2685 2.43303 3.01467 0
M  V30 964 H 96.6825 4.59342 2.5319 0
M  V30 965 H 98.1565 3.77084 4.03127 0
M  V30 966 H 98.6335 2.0826 3.86684 0
M  V30 967 H 99.2395 3.28345 2.70314 0
M  V30 968 N 97.5546 -0.734337 1.39446 0
M  V30 969 C 98.7796 -1.52866 1.40167 0
M  V30 970 C 99.2046 -1.881 -0.00171513 0
M  V30 971 O 98.5626 -1.51957 -0.988879 0
M  V30 972 C 98.6106 -2.79235 2.28167 0
M  V30 973 O 97.7146 -3.75185 1.71201 0
M  V30 974 H 97.0556 -0.461618 0.477289 0
M  V30 975 H 99.5856 -0.905949 1.8345 0
M  V30 976 H 99.5956 -3.27963 2.42702 0
M  V30 977 H 98.2706 -2.52923 3.30156 0
M  V30 978 H 96.8476 -3.33958 1.65912 0
M  V30 979 N 99.0327 -1.24633 -0.964593 0
M  V30 980 C 100.31 -0.995809 -1.68354 0
M  V30 981 C 100.69 0.480964 -2.05548 0
M  V30 982 O 100.038 1.45599 -1.76105 0
M  V30 983 C 100.248 -1.92177 -2.91323 0
M  V30 984 C 101.596 -2.19446 -3.63495 0
M  V30 985 O 102.62 -1.89855 -3.01386 0
M  V30 986 O 101.479 -2.69714 -4.75307 0
M  V30 987 H 98.5727 -0.376854 -0.736146 0
M  V30 988 H 101.119 -1.35745 -1.0184 0
M  V30 989 H 99.8907 -2.91938 -2.60553 0
M  V30 990 H 99.5137 -1.56349 -3.65569 0
M  V30 991 N 100.511 1.16574 -1.06058 0
M  V30 992 C 101.739 1.90952 -0.796552 0
M  V30 993 C 102.154 1.77302 0.648808 0
M  V30 994 O 101.511 1.11605 1.44397 0
M  V30 995 C 101.562 3.41736 -1.17894 0
M  V30 996 O 101.283 3.54975 -2.56758 0
M  V30 997 C 102.784 4.33169 -0.942308 0
M  V30 998 H 100.004 0.605594 -0.288959 0
M  V30 999 H 102.548 1.47777 -1.41358 0
M  V30 1000 H 100.703 3.82623 -0.606491 0
M  V30 1001 H 101.117 4.4846 -2.72 0
M  V30 1002 H 102.591 5.37439 -1.25952 0
M  V30 1003 H 103.068 4.3903 0.122078 0
M  V30 1004 H 103.674 3.98007 -1.49902 0
M  V30 1005 N 101.989 0.842826 1.3317 0
M  V30 1006 C 103.235 0.441099 1.97945 0
M  V30 1007 C 103.568 -0.998024 1.66593 0
M  V30 1008 O 102.843 -1.69839 0.947898 0
M  V30 1009 C 103.126 0.666841 3.53872 0
M  V30 1010 C 102.979 2.15352 3.94897 0
M  V30 1011 C 104.298 0.115544 4.39948 0
M  V30 1012 H 101.417 0.161739 0.719034 0
M  V30 1013 H 104.059 1.05907 1.57746 0
M  V30 1014 H 102.209 0.140828 3.88245 0
M  V30 1015 H 103.881 2.7447 3.70761 0
M  V30 1016 H 102.124 2.63653 3.44484 0
M  V30 1017 H 102.795 2.26221 5.03516 0
M  V30 1018 H 105.271 0.565213 4.12243 0
M  V30 1019 H 104.147 0.303152 5.48062 0
M  V30 1020 H 104.408 -0.980935 4.3108 0
M  V30 1021 N 103.467 -1.45747 0.599634 0
M  V30 1022 C 104.695 -2.06668 0.0978551 0
M  V30 1023 C 105.11 -1.44562 -1.21439 0
M  V30 1024 O 104.467 -0.556923 -1.73795 0
M  V30 1025 C 104.518 -3.61456 -0.0567044 0
M  V30 1026 O 104.239 -4.21242 1.20361 0
M  V30 1027 C 105.74 -4.39345 -0.590869 0
M  V30 1028 H 102.96 -0.667825 0.0651943 0
M  V30 1029 H 105.504 -1.87115 0.82511 0
M  V30 1030 H 103.659 -3.80378 -0.734251 0
M  V30 1031 H 104.073 -5.14323 1.02821 0
M  V30 1032 H 105.547 -5.48182 -0.648131 0
M  V30 1033 H 106.024 -4.08568 -1.61147 0
M  V30 1034 H 106.63 -4.25268 0.0523679 0
M  V30 1035 N 104.945 -0.338344 -1.53925 0
M  V30 1036 C 106.17 0.263987 -2.05713 0
M  V30 1037 C 106.595 1.43847 -1.21201 0
M  V30 1038 O 105.953 1.79904 -0.224535 0
M  V30 1039 C 106.001 0.662 -3.54471 0
M  V30 1040 O 105.105 1.76265 -3.72833 0
M  V30 1041 H 104.446 0.0448722 -0.662482 0
M  V30 1042 H 106.976 -0.491048 -1.9862 0
M  V30 1043 H 106.986 0.940594 -3.9701 0
M  V30 1044 H 105.661 -0.196937 -4.15433 0
M  V30 1045 H 104.238 1.48173 -3.42198 0
M  V30 1046 N 106.423 1.57458 -0.0668435 0
M  V30 1047 C 107.834 1.80776 0.466558 0
M  V30 1048 C 108.185 0.980361 1.69951 0
M  V30 1049 O 107.31 0.201441 2.1546 0
M  V30 1050 C 107.905 3.27881 0.85321 0
M  V30 1051 C 106.464 3.52062 1.3315 0
M  V30 1052 C 105.611 2.75513 0.314264 0
M  V30 1053 H 108.562 1.5598 -0.292588 0
M  V30 1054 H 108.583 3.39659 1.715 0
M  V30 1055 H 108.095 3.88075 -0.0443439 0
M  V30 1056 H 106.196 2.97167 2.24772 0
M  V30 1057 H 106.309 4.60762 1.31285 0
M  V30 1058 H 104.673 2.42123 0.790492 0
M  V30 1059 H 105.456 3.38442 -0.575477 0
M  V30 1060 N 107.901 -0.206675 1.56239 0
M  V30 1061 C 108.833 -1.27997 1.9013 0
M  V30 1062 C 109.846 -1.42299 0.790883 0
M  V30 1063 O 111.035 -1.42931 1.06925 0
M  V30 1064 C 108.135 -2.65368 2.10792 0
M  V30 1065 C 107.308 -2.72824 3.41886 0
M  V30 1066 C 106.367 -3.9131 3.51799 0
M  V30 1067 O 105.393 -3.78953 4.24716 0
M  V30 1068 N 106.595 -5.06265 2.84035 0
M  V30 1069 H 109.36 -0.992444 2.82791 0
M  V30 1070 H 106.921 -0.396652 1.56966 0
M  V30 1071 H 108.913 -3.43039 2.14724 0
M  V30 1072 H 107.483 -2.86657 1.24685 0
M  V30 1073 H 106.703 -1.81515 3.49923 0
M  V30 1074 H 107.991 -2.74786 4.28217 0
M  V30 1075 H 107.389 -5.19203 2.246 0
M  V30 1076 H 105.946 -5.81925 2.93609 0
M  V30 1077 N 109.379 -1.50304 -0.473955 0
M  V30 1078 C 110.795 -1.37667 -0.807466 0
M  V30 1079 C 110.995 -0.430555 -1.96846 0
M  V30 1080 O 110.051 0.127874 -2.52176 0
M  V30 1081 C 111.364 -2.78974 -1.12223 0
M  V30 1082 C 112.912 -2.87868 -1.22885 0
M  V30 1083 C 113.387 -4.30003 -1.57676 0
M  V30 1084 N 114.878 -4.3294 -1.64673 0
M  V30 1085 C 115.613 -5.3991 -1.93091 0
M  V30 1086 N 115.109 -6.57092 -2.1955 0
M  V30 1087 N 116.902 -5.27351 -1.94569 0
M  V30 1088 H 109.053 -2.10394 0.291212 0
M  V30 1089 H 111.316 -0.945575 0.0677609 0
M  V30 1090 H 111.022 -3.50031 -0.342229 0
M  V30 1091 H 110.896 -3.16038 -2.05913 0
M  V30 1092 H 113.283 -2.17032 -1.99953 0
M  V30 1093 H 113.364 -2.54352 -0.271814 0
M  V30 1094 H 113.008 -5.01375 -0.81149 0
M  V30 1095 H 112.938 -4.61004 -2.54525 0
M  V30 1096 H 115.429 -3.48441 -1.46277 0
M  V30 1097 H 115.742 -7.34425 -2.405 0
M  V30 1098 H 114.087 -6.60272 -2.16948 0
M  V30 1099 H 117.278 -4.34801 -1.73394 0
M  V30 1100 H 117.451 -6.10805 -2.16381 0
M  V30 1101 N 110.857 0.726932 -1.39834 0
M  V30 1102 C 111.82 1.82269 -1.38962 0
M  V30 1103 C 112.82 1.58248 -0.285334 0
M  V30 1104 O 114.01 1.65499 -0.54366 0
M  V30 1105 C 111.142 3.20186 -1.17019 0
M  V30 1106 H 112.335 1.84443 -2.36476 0
M  V30 1107 H 109.888 0.931416 -1.25516 0
M  V30 1108 H 110.623 3.23669 -0.202204 0
M  V30 1109 H 110.408 3.3902 -1.96998 0
M  V30 1110 H 111.898 4.00235 -1.1917 0
M  V30 1111 N 112.336 1.25143 0.95797 0
M  V30 1112 C 113.584 1.09476 1.69881 0
M  V30 1113 C 113.905 -0.365502 1.91544 0
M  V30 1114 O 113.175 -1.25985 1.50015 0
M  V30 1115 H 111.755 0.402128 0.629525 0
M  V30 1116 H 114.417 1.57214 1.15194 0
M  V30 1117 H 113.513 1.60046 2.6794 0
M  V30 1118 N 113.814 -1.1601 1.06675 0
M  V30 1119 C 114.777 -2.18724 0.685001 0
M  V30 1120 C 115.777 -1.58496 -0.271246 0
M  V30 1121 O 116.967 -1.74119 -0.0531156 0
M  V30 1122 C 114.099 -3.40899 0.00853648 0
M  V30 1123 H 115.292 -2.54011 1.59431 0
M  V30 1124 H 112.845 -1.30352 0.862441 0
M  V30 1125 H 113.58 -3.11173 -0.913337 0
M  V30 1126 H 113.365 -3.8587 0.696204 0
M  V30 1127 H 114.855 -4.16886 -0.24414 0
M  V30 1128 N 115.292 -0.849877 -1.32721 0
M  V30 1129 C 116.222 -0.306308 -2.31482 0
M  V30 1130 C 117.203 0.591952 -1.59468 0
M  V30 1131 O 118.388 0.513199 -1.87296 0
M  V30 1132 C 115.518 0.510204 -3.43532 0
M  V30 1133 C 114.472 -0.293209 -4.26994 0
M  V30 1134 C 113.798 0.647743 -5.30762 0
M  V30 1135 C 115.098 -1.51634 -4.99804 0
M  V30 1136 H 116.792 -1.13153 -2.77195 0
M  V30 1137 H 114.338 -0.545553 -1.33266 0
M  V30 1138 H 116.291 0.900856 -4.11658 0
M  V30 1139 H 115.015 1.36874 -2.96535 0
M  V30 1140 H 113.674 -0.665555 -3.60508 0
M  V30 1141 H 113.322 1.50299 -4.8002 0
M  V30 1142 H 113.022 0.11422 -5.87489 0
M  V30 1143 H 114.546 1.03567 -6.01753 0
M  V30 1144 H 115.96 -1.19824 -5.60638 0
M  V30 1145 H 114.357 -1.98745 -5.66234 0
M  V30 1146 H 115.427 -2.28018 -4.27943 0
M  V30 1147 N 116.77 1.45427 -0.607355 0
M  V30 1148 C 117.733 2.28974 0.101693 0
M  V30 1149 C 118.733 1.39754 0.795329 0
M  V30 1150 O 119.923 1.61878 0.643527 0
M  V30 1151 C 117.055 3.20768 1.15414 0
M  V30 1152 H 118.248 2.93147 -0.632844 0
M  V30 1153 H 115.801 1.51945 -0.366391 0
M  V30 1154 H 116.536 2.61395 1.91945 0
M  V30 1155 H 116.321 3.86489 0.66098 0
M  V30 1156 H 117.811 3.83589 1.65073 0
M  V30 1157 N 118.248 0.346503 1.53744 0
M  V30 1158 C 119.496 -0.248612 2.00565 0
M  V30 1159 C 119.817 -1.5083 1.23593 0
M  V30 1160 O 119.087 -1.92858 0.343912 0
M  V30 1161 H 117.667 -0.0948564 0.740953 0
M  V30 1162 H 120.329 0.468341 1.89189 0
M  V30 1163 H 119.425 -0.488994 3.08245 0
M  V30 1164 N 119.726 -1.57421 0.075193 0
M  V30 1165 C 120.974 -1.93236 -0.591974 0
M  V30 1166 C 121.295 -0.956241 -1.69944 0
M  V30 1167 O 120.565 -0.00494792 -1.95899 0
M  V30 1168 H 119.145 -0.713355 -0.22166 0
M  V30 1169 H 121.807 -1.9444 0.133848 0
M  V30 1170 H 120.903 -2.95131 -1.01509 0
M  V30 1171 N 121.204 0.198386 -1.56346 0
M  V30 1172 C 122.45 0.920648 -1.80698 0
M  V30 1173 C 122.783 1.83045 -0.648697 0
M  V30 1174 O 122.058 1.91308 0.350925 0
M  V30 1175 C 122.341 1.73971 -3.15287 0
M  V30 1176 C 122.194 0.85485 -4.41602 0
M  V30 1177 C 123.513 2.71296 -3.46535 0
M  V30 1178 H 120.632 0.333261 -0.657348 0
M  V30 1179 H 123.274 0.188198 -1.89066 0
M  V30 1180 H 121.424 2.36416 -3.08285 0
M  V30 1181 H 123.096 0.245362 -4.60647 0
M  V30 1182 H 121.339 0.161398 -4.335 0
M  V30 1183 H 122.01 1.46286 -5.32264 0
M  V30 1184 H 124.486 2.18983 -3.53816 0
M  V30 1185 H 123.362 3.2569 -4.41834 0
M  V30 1186 H 123.623 3.5018 -2.69864 0
M  V30 1187 N 122.682 1.50554 0.465978 0
M  V30 1188 C 123.91 1.65563 1.24083 0
M  V30 1189 C 124.325 0.341051 1.85694 0
M  V30 1190 O 123.682 -0.677543 1.69457 0
M  V30 1191 C 123.733 2.75051 2.34583 0
M  V30 1192 O 123.454 4.01413 1.75497 0
M  V30 1193 C 124.955 3.01078 3.25372 0
M  V30 1194 H 122.175 0.55638 0.375077 0
M  V30 1195 H 124.719 1.96807 0.555624 0
M  V30 1196 H 122.874 2.46486 2.9887 0
M  V30 1197 H 123.288 4.62002 2.48303 0
M  V30 1198 H 124.762 3.81339 3.99105 0
M  V30 1199 H 125.239 2.12349 3.84453 0
M  V30 1200 H 125.845 3.31194 2.66816 0
M  V30 1201 N 124.16 -0.719506 1.40217 0
M  V30 1202 C 125.388 -1.50864 1.41589 0
M  V30 1203 C 125.803 -1.88794 0.0145275 0
M  V30 1204 O 125.16 -1.55174 -0.960594 0
M  V30 1205 C 125.211 -2.78646 2.30302 0
M  V30 1206 O 124.932 -2.42321 3.64983 0
M  V30 1207 C 126.433 -3.72569 2.40224 0
M  V30 1208 H 123.653 -0.465709 0.48307 0
M  V30 1209 H 126.197 -0.88785 1.84221 0
M  V30 1210 H 124.352 -3.37019 1.91042 0
M  V30 1211 H 124.766 -3.24514 4.12057 0
M  V30 1212 H 126.24 -4.5908 3.06512 0
M  V30 1213 H 126.717 -4.15403 1.42608 0
M  V30 1214 H 127.323 -3.20109 2.80019 0
M  V30 1215 N 125.638 -1.25649 -0.95132 0
M  V30 1216 C 126.885 -1.10594 -1.69633 0
M  V30 1217 C 127.213 0.352515 -1.91279 0
M  V30 1218 O 126.468 1.27601 -1.4838 0
M  V30 1219 C 126.767 -1.80909 -3.08231 0
M  V30 1220 C 126.433 -3.30825 -3.06375 0
M  V30 1221 C 125.095 -3.71722 -3.05576 0
M  V30 1222 C 127.447 -4.26589 -2.99452 0
M  V30 1223 C 124.775 -5.06788 -2.95606 0
M  V30 1224 C 127.127 -5.61683 -2.91024 0
M  V30 1225 C 125.791 -6.01904 -2.88562 0
M  V30 1226 H 125.061 -0.404691 -0.620731 0
M  V30 1227 H 127.708 -1.55964 -1.11119 0
M  V30 1228 H 126.013 -1.27979 -3.70309 0
M  V30 1229 H 127.71 -1.6671 -3.64704 0
M  V30 1230 H 124.3 -2.98287 -3.07771 0
M  V30 1231 H 128.484 -3.95982 -2.99185 0
M  V30 1232 H 123.74 -5.37126 -2.92071 0
M  V30 1233 H 127.914 -6.35578 -2.84629 0
M  V30 1234 H 125.541 -7.06521 -2.80593 0
M  V30 1235 N 127.117 1.15442 -1.07289 0
M  V30 1236 C 128.363 1.86489 -0.796846 0
M  V30 1237 C 128.696 1.82078 0.675371 0
M  V30 1238 O 127.971 1.24346 1.4956 0
M  V30 1239 C 128.254 3.35626 -1.30489 0
M  V30 1240 C 128.107 3.48673 -2.84161 0
M  V30 1241 C 129.426 4.30357 -0.920907 0
M  V30 1242 H 126.545 0.677144 -0.290939 0
M  V30 1243 H 129.187 1.35633 -1.33056 0
M  V30 1244 H 127.337 3.79068 -0.850883 0
M  V30 1245 H 129.009 3.14099 -3.37846 0
M  V30 1246 H 127.252 2.90253 -3.22391 0
M  V30 1247 H 127.923 4.53453 -3.14777 0
M  V30 1248 H 130.399 3.94871 -1.3121 0
M  V30 1249 H 129.275 5.33193 -1.30372 0
M  V30 1250 H 129.536 4.4176 0.173226 0
M  V30 1251 N 128.595 0.856903 1.32268 0
M  V30 1252 C 129.558 0.308171 2.27119 0
M  V30 1253 C 130.558 -0.533421 1.51695 0
M  V30 1254 O 131.748 -0.344607 1.70757 0
M  V30 1255 C 128.88 -0.563757 3.36206 0
M  V30 1256 H 130.073 1.14535 2.77167 0
M  V30 1257 H 127.626 0.631421 1.42978 0
M  V30 1258 H 128.361 -1.42266 2.91429 0
M  V30 1259 H 128.146 0.0386749 3.92081 0
M  V30 1260 H 129.636 -0.940386 4.06874 0
M  V30 1261 N 130.073 -1.45103 0.615059 0
M  V30 1262 C 131.003 -2.33339 -0.0865619 0
M  V30 1263 C 131.984 -1.4727 -0.851209 0
M  V30 1264 O 133.169 -1.76026 -0.820281 0
M  V30 1265 C 130.299 -3.30095 -1.07956 0
M  V30 1266 C 129.253 -4.25858 -0.427628 0
M  V30 1267 C 128.579 -5.12361 -1.5294 0
M  V30 1268 C 129.879 -5.18165 0.655944 0
M  V30 1269 H 131.573 -2.92254 0.650224 0
M  V30 1270 H 129.119 -1.40532 0.314138 0
M  V30 1271 H 131.072 -3.90698 -1.57901 0
M  V30 1272 H 129.796 -2.69355 -1.84703 0
M  V30 1273 H 128.455 -3.66564 0.0510292 0
M  V30 1274 H 128.103 -4.47984 -2.28734 0
M  V30 1275 H 127.803 -5.77238 -1.09865 0
M  V30 1276 H 129.327 -5.75833 -2.03098 0
M  V30 1277 H 130.741 -5.72796 0.240257 0
M  V30 1278 H 129.138 -5.91559 1.00888 0
M  V30 1279 H 130.208 -4.60144 1.52957 0
M  V30 1280 N 131.551 -0.354651 -1.53558 0
M  V30 1281 C 132.781 0.239167 -2.05211 0
M  V30 1282 C 133.189 1.43879 -1.22863 0
M  V30 1283 O 132.532 1.81857 -0.259565 0
M  V30 1284 C 132.594 0.707251 -3.52474 0
M  V30 1285 C 132.258 -0.374212 -4.55465 0
M  V30 1286 C 133.255 -1.22054 -5.0537 0
M  V30 1287 C 130.94 -0.531323 -4.99482 0
M  V30 1288 C 132.934 -2.20942 -5.97882 0
M  V30 1289 C 130.621 -1.52358 -5.91802 0
M  V30 1290 C 131.619 -2.36108 -6.40892 0
M  V30 1291 O 131.307 -3.33643 -7.31394 0
M  V30 1292 H 131.039 0.0479716 -0.674296 0
M  V30 1293 H 133.593 -0.508121 -1.99016 0
M  V30 1294 H 131.823 1.50596 -3.56171 0
M  V30 1295 H 133.512 1.22285 -3.87042 0
M  V30 1296 H 134.278 -1.1103 -4.7212 0
M  V30 1297 H 130.157 0.110738 -4.60867 0
M  V30 1298 H 133.701 -2.86348 -6.36121 0
M  V30 1299 H 129.598 -1.63434 -6.24467 0
M  V30 1300 H 130.366 -3.29244 -7.4936 0
M  V30 1301 N 133.029 1.57378 -0.0835403 0
M  V30 1302 C 134.306 1.85363 0.624507 0
M  V30 1303 C 134.686 0.978239 1.87066 0
M  V30 1304 O 134.034 0.0475908 2.2845 0
M  V30 1305 C 134.244 3.35795 0.950947 0
M  V30 1306 C 135.592 4.03581 1.31939 0
M  V30 1307 O 136.616 3.40609 1.04232 0
M  V30 1308 O 135.475 5.14672 1.83779 0
M  V30 1309 H 132.569 0.766162 0.311329 0
M  V30 1310 H 135.115 1.69307 -0.115362 0
M  V30 1311 H 133.887 3.91244 0.0663899 0
M  V30 1312 H 133.51 3.57154 1.74719 0
M  V30 1313 N 134.507 -0.190092 1.56449 0
M  V30 1314 C 135.737 -0.92443 1.84764 0
M  V30 1315 C 136.145 -1.77146 0.664529 0
M  V30 1316 O 135.488 -1.79812 -0.375957 0
M  V30 1317 C 135.55 -1.86651 3.07248 0
M  V30 1318 C 135.214 -1.20094 4.40938 0
M  V30 1319 C 136.211 -0.575445 5.16706 0
M  V30 1320 C 133.896 -1.2033 4.87674 0
M  V30 1321 C 135.89 0.0388111 6.37388 0
M  V30 1322 C 133.577 -0.585214 6.08291 0
M  V30 1323 C 134.575 0.0347578 6.82991 0
M  V30 1324 O 134.263 0.643147 8.01323 0
M  V30 1325 H 133.995 -0.274974 0.617548 0
M  V30 1326 H 136.549 -0.200788 2.04416 0
M  V30 1327 H 134.779 -2.62998 2.83494 0
M  V30 1328 H 136.468 -2.46907 3.22167 0
M  V30 1329 H 137.234 -0.565728 4.81689 0
M  V30 1330 H 133.113 -1.67526 4.29484 0
M  V30 1331 H 136.657 0.523329 6.95634 0
M  V30 1332 H 132.554 -0.592451 6.42775 0
M  V30 1333 H 133.322 0.540545 8.16713 0
M  V30 1334 N 135.985 -1.50799 -0.457987 0
M  V30 1335 C 136.895 -1.73426 -1.57989 0
M  V30 1336 C 137.911 -0.617745 -1.62665 0
M  V30 1337 O 139.087 -0.897614 -1.80291 0
M  V30 1338 C 136.152 -1.83557 -2.94122 0
M  V30 1339 C 135.213 -3.07345 -2.99729 0
M  V30 1340 C 134.446 -3.16983 -4.29368 0
M  V30 1341 O 134.669 -2.33077 -5.20607 0
M  V30 1342 O 133.603 -4.09812 -4.40837 0
M  V30 1343 H 137.429 -2.68555 -1.41817 0
M  V30 1344 H 135.014 -1.35052 -0.638859 0
M  V30 1345 H 136.896 -1.92326 -3.74952 0
M  V30 1346 H 135.571 -0.916137 -3.10465 0
M  V30 1347 H 134.478 -3.04068 -2.1793 0
M  V30 1348 H 135.811 -3.9891 -2.88326 0
M  V30 1349 N 137.463 0.71206 -1.40597 0
M  V30 1350 C 138.688 1.50617 -1.42581 0
M  V30 1351 C 139.113 1.88079 -0.0282102 0
M  V30 1352 O 138.471 1.53511 0.964579 0
M  V30 1353 C 138.519 2.7557 -2.3258 0
M  V30 1354 O 137.623 3.72414 -1.77148 0
M  V30 1355 H 136.964 0.453966 -0.484573 0
M  V30 1356 H 139.494 0.876649 -1.84868 0
M  V30 1357 H 139.504 3.2406 -2.47889 0
M  V30 1358 H 138.179 2.47639 -3.34138 0
M  V30 1359 H 136.756 3.31276 -1.71204 0
M  V30 1360 N 138.941 1.26152 0.944643 0
M  V30 1361 C 140.357 1.03189 1.21754 0
M  V30 1362 C 140.557 -0.245112 2.00004 0
M  V30 1363 O 139.613 -0.955176 2.33736 0
M  V30 1364 C 140.926 2.26119 1.98219 0
M  V30 1365 C 142.474 2.30984 2.11224 0
M  V30 1366 C 142.949 3.53597 2.91089 0
M  V30 1367 N 144.44 3.54053 2.98664 0
M  V30 1368 C 145.175 4.45593 3.60881 0
M  V30 1369 N 144.671 5.47416 4.24626 0
M  V30 1370 N 146.464 4.33252 3.58119 0
M  V30 1371 H 138.615 2.08177 0.421437 0
M  V30 1372 H 140.878 0.914723 0.248969 0
M  V30 1373 H 140.584 3.18984 1.48128 0
M  V30 1374 H 140.458 2.3009 2.98895 0
M  V30 1375 H 142.845 1.38635 2.60508 0
M  V30 1376 H 142.926 2.31026 1.09821 0
M  V30 1377 H 142.57 4.46273 2.42493 0
M  V30 1378 H 142.5 3.50802 3.92741 0
M  V30 1379 H 144.991 2.80403 2.53343 0
M  V30 1380 H 145.304 6.13459 4.69987 0
M  V30 1381 H 143.649 5.51278 4.23223 0
M  V30 1382 H 146.84 3.52924 3.0751 0
M  V30 1383 H 147.013 5.04786 4.06319 0
M  V30 1384 N 140.419 -1.14872 1.07899 0
M  V30 1385 C 141.647 -1.89661 0.82683 0
M  V30 1386 C 142.062 -1.78312 -0.620519 0
M  V30 1387 O 141.419 -1.13888 -1.42604 0
M  V30 1388 C 141.47 -3.39817 1.23316 0
M  V30 1389 O 141.191 -3.50845 2.62372 0
M  V30 1390 C 142.692 -4.31615 1.0111 0
M  V30 1391 H 139.912 -0.60092 0.298557 0
M  V30 1392 H 142.456 -1.4551 1.43691 0
M  V30 1393 H 140.611 -3.8161 0.667286 0
M  V30 1394 H 141.025 -4.44076 2.79101 0
M  V30 1395 H 142.499 -5.35367 1.34486 0
M  V30 1396 H 142.976 -4.39169 -0.0522168 0
M  V30 1397 H 143.582 -3.95572 1.56215 0
M  V30 1398 N 141.898 -0.863906 -1.31812 0
M  V30 1399 C 142.808 -0.318461 -2.32428 0
M  V30 1400 C 143.824 0.568496 -1.64451 0
M  V30 1401 O 145 0.46666 -1.95919 0
M  V30 1402 C 142.065 0.476355 -3.43412 0
M  V30 1403 C 141.126 -0.43784 -4.27061 0
M  V30 1404 C 140.359 0.319138 -5.32745 0
M  V30 1405 O 140.582 1.54799 -5.48993 0
M  V30 1406 O 139.516 -0.319861 -6.01049 0
M  V30 1407 H 143.342 -1.15229 -2.80991 0
M  V30 1408 H 140.927 -0.627103 -1.35602 0
M  V30 1409 H 142.809 0.927156 -4.11074 0
M  V30 1410 H 141.484 1.28683 -2.97022 0
M  V30 1411 H 140.391 -0.937013 -3.62175 0
M  V30 1412 H 141.724 -1.21375 -4.77 0
M  V30 1413 N 143.376 1.44774 -0.622745 0
M  V30 1414 C 144.604 2.06487 -0.130722 0
M  V30 1415 C 145.019 1.46476 1.19123 0
M  V30 1416 O 144.376 0.584502 1.72887 0
M  V30 1417 C 144.427 3.615 -0.000807207 0
M  V30 1418 O 144.148 4.19274 -1.27048 0
M  V30 1419 C 145.649 4.40229 0.520898 0
M  V30 1420 H 142.869 0.666704 -0.0758106 0
M  V30 1421 H 145.413 1.85779 -0.854774 0
M  V30 1422 H 143.568 3.81498 0.673643 0
M  V30 1423 H 143.982 5.12622 -1.1099 0
M  V30 1424 H 145.456 5.49144 0.560838 0
M  V30 1425 H 145.933 4.1108 1.54627 0
M  V30 1426 H 146.539 4.25131 -0.120018 0
M  V30 1427 N 144.854 0.36279 1.53368 0
M  V30 1428 C 146.131 -0.284021 1.93527 0
M  V30 1429 C 146.511 -1.66628 1.29608 0
M  V30 1430 O 145.859 -2.23942 0.45413 0
M  V30 1431 C 146.069 -0.337028 3.47369 0
M  V30 1432 C 147.417 -0.578708 4.20638 0
M  V30 1433 O 148.441 -0.418352 3.53735 0
M  V30 1434 O 147.3 -0.89074 5.39192 0
M  V30 1435 H 144.394 -0.169743 0.809393 0
M  V30 1436 H 146.94 0.41537 1.64538 0
M  V30 1437 H 145.712 0.632217 3.86159 0
M  V30 1438 H 145.335 -1.08243 3.82582 0
M  V30 1439 N 146.332 -1.57332 0.0918853 0
M  V30 1440 C 147.262 -2.16872 -0.865371 0
M  V30 1441 C 148.243 -1.10118 -1.29646 0
M  V30 1442 O 149.428 -1.38242 -1.36392 0
M  V30 1443 C 146.558 -2.74649 -2.12569 0
M  V30 1444 C 145.512 -3.86747 -1.83333 0
M  V30 1445 C 144.838 -4.31212 -3.16166 0
M  V30 1446 C 146.138 -5.10089 -1.1228 0
M  V30 1447 H 147.832 -2.97114 -0.369307 0
M  V30 1448 H 145.378 -1.42918 -0.176194 0
M  V30 1449 H 147.331 -3.14952 -2.7997 0
M  V30 1450 H 146.055 -1.91657 -2.64452 0
M  V30 1451 H 144.714 -3.46978 -1.18331 0
M  V30 1452 H 144.362 -3.45115 -3.6593 0
M  V30 1453 H 144.062 -5.06788 -2.97388 0
M  V30 1454 H 145.586 -4.74146 -3.84731 0
M  V30 1455 H 147 -5.47582 -1.69785 0
M  V30 1456 H 145.397 -5.91073 -1.03693 0
M  V30 1457 H 146.467 -4.84786 -0.105041 0
M  V30 1458 N 147.81 0.181792 -1.56548 0
M  V30 1459 C 149.035 0.920019 -1.85877 0
M  V30 1460 C 149.46 1.75494 -0.677021 0
M  V30 1461 O 148.818 1.77399 0.374056 0
M  V30 1462 C 148.866 1.78112 -3.13542 0
M  V30 1463 O 147.97 2.88152 -2.95029 0
M  V30 1464 H 147.311 0.258334 -0.611686 0
M  V30 1465 H 149.841 0.183092 -2.03779 0
M  V30 1466 H 149.851 2.18314 -3.44678 0
M  V30 1467 H 148.526 1.16777 -3.99169 0
M  V30 1468 H 147.103 2.51609 -2.75222 0
M  V30 1469 N 149.288 1.51039 0.449983 0
M  V30 1470 C 150.535 1.63081 1.20045 0
M  V30 1471 C 150.863 0.341024 1.91487 0
M  V30 1472 O 150.118 -0.674276 1.83717 0
M  V30 1473 C 150.417 2.77556 2.25161 0
M  V30 1474 C 150.083 4.17289 1.70823 0
M  V30 1475 C 148.745 4.55305 1.55725 0
M  V30 1476 C 151.097 5.04536 1.3074 0
M  V30 1477 C 148.425 5.78287 0.989999 0
M  V30 1478 C 150.777 6.28085 0.754482 0
M  V30 1479 C 149.441 6.64885 0.590308 0
M  V30 1480 H 148.711 0.596755 0.439277 0
M  V30 1481 H 151.358 1.85037 0.49333 0
M  V30 1482 H 149.663 2.49771 3.01863 0
M  V30 1483 H 151.36 2.84073 2.83026 0
M  V30 1484 H 147.95 3.8731 1.83546 0
M  V30 1485 H 152.134 4.75782 1.41229 0
M  V30 1486 H 147.39 6.05456 0.850451 0
M  V30 1487 H 151.564 6.95038 0.435324 0
M  V30 1488 H 149.191 7.60055 0.14862 0
M  V30 1489 N 150.766 -0.704594 1.40972 0
M  V30 1490 C 151.713 -1.81862 1.42109 0
M  V30 1491 C 152.683 -1.63781 0.276593 0
M  V30 1492 O 153.868 -1.84759 0.4763 0
M  V30 1493 C 151.008 -3.19669 1.30022 0
M  V30 1494 C 150.121 -3.49246 2.54267 0
M  V30 1495 C 149.256 -4.76618 2.3454 0
M  V30 1496 C 148.295 -4.99133 3.54306 0
M  V30 1497 N 147.432 -6.17726 3.33706 0
M  V30 1498 H 152.272 -1.80226 2.37324 0
M  V30 1499 H 149.809 -0.880238 1.17857 0
M  V30 1500 H 151.767 -3.99263 1.21018 0
M  V30 1501 H 150.397 -3.20506 0.384192 0
M  V30 1502 H 149.449 -2.64125 2.73756 0
M  V30 1503 H 150.761 -3.61788 3.43381 0
M  V30 1504 H 149.915 -5.64249 2.22952 0
M  V30 1505 H 148.654 -4.66305 1.42867 0
M  V30 1506 H 147.659 -4.09953 3.66359 0
M  V30 1507 H 148.884 -5.11311 4.4692 0
M  V30 1508 H 146.83 -6.08642 2.44725 0
M  V30 1509 H 146.747 -6.30995 4.16391 0
M  V30 1510 H 148.015 -7.08115 3.25873 0
M  V30 1511 N 152.244 -1.26651 -0.937939 0
M  V30 1512 C 153.191 -1.0849 -2.03712 0
M  V30 1513 C 154.161 0.011033 -1.66096 0
M  V30 1514 O 155.346 -0.149353 -1.90215 0
M  V30 1515 C 152.486 -0.72735 -3.37348 0
M  V30 1516 C 151.599 -1.89986 -3.87981 0
M  V30 1517 C 150.734 -1.48513 -5.10017 0
M  V30 1518 C 149.773 -2.62575 -5.5292 0
M  V30 1519 N 148.91 -2.21762 -6.66158 0
M  V30 1520 H 153.75 -2.02551 -2.18579 0
M  V30 1521 H 151.287 -1.00844 -1.07093 0
M  V30 1522 H 153.245 -0.50092 -4.14182 0
M  V30 1523 H 151.875 0.176298 -3.22318 0
M  V30 1524 H 150.927 -2.23913 -3.07518 0
M  V30 1525 H 152.239 -2.75586 -4.15757 0
M  V30 1526 H 151.393 -1.21934 -5.94321 0
M  V30 1527 H 150.132 -0.60009 -4.83994 0
M  V30 1528 H 149.137 -2.8988 -4.67172 0
M  V30 1529 H 150.362 -3.51685 -5.80943 0
M  V30 1530 H 148.308 -1.35696 -6.41812 0
M  V30 1531 H 148.225 -3.00903 -6.93537 0
M  V30 1532 H 149.493 -1.98403 -7.53828 0
M  V30 1533 N 153.722 1.14298 -1.08507 0
M  V30 1534 C 154.97 1.84993 -0.813763 0
M  V30 1535 C 155.291 1.83405 0.662393 0
M  V30 1536 O 154.561 1.28319 1.48024 0
M  V30 1537 H 153.141 0.684966 -0.298045 0
M  V30 1538 H 155.803 1.385 -1.37126 0
M  V30 1539 H 154.899 2.89788 -1.15884 0
M  V30 1540 N 155.201 0.870884 1.31352 0
M  V30 1541 C 156.111 0.330783 2.32256 0
M  V30 1542 C 157.127 -0.559767 1.6475 0
M  V30 1543 O 158.303 -0.456263 1.96164 0
M  V30 1544 C 155.368 -0.458137 3.4366 0
M  V30 1545 C 154.429 0.460482 4.26823 0
M  V30 1546 C 153.662 -0.290881 5.32907 0
M  V30 1547 O 153.885 -1.51885 5.49806 0
M  V30 1548 O 152.819 0.351732 6.00871 0
M  V30 1549 H 156.645 1.16718 2.80376 0
M  V30 1550 H 154.23 0.634285 1.35267 0
M  V30 1551 H 156.112 -0.905343 4.1156 0
M  V30 1552 H 154.787 -1.27106 2.97701 0
M  V30 1553 H 153.694 0.956207 3.61673 0
M  V30 1554 H 155.027 1.23903 4.7635 0
M  V30 1555 N 156.679 -1.44442 0.630414 0
M  V30 1556 C 158.095 -1.56832 0.295973 0
M  V30 1557 C 158.295 -1.61806 -1.20088 0
M  V30 1558 O 157.351 -1.5607 -1.9849 0
M  V30 1559 C 158.664 -2.84031 0.987264 0
M  V30 1560 C 160.212 -2.97742 0.96534 0
M  V30 1561 C 160.687 -4.27743 1.63708 0
M  V30 1562 N 162.178 -4.34555 1.60364 0
M  V30 1563 C 162.913 -5.33862 2.09234 0
M  V30 1564 N 162.409 -6.39578 2.66292 0
M  V30 1565 N 164.202 -5.25366 1.99867 0
M  V30 1566 H 156.353 -1.39457 1.60205 0
M  V30 1567 H 158.616 -0.668237 0.672431 0
M  V30 1568 H 158.322 -2.86338 2.04215 0
M  V30 1569 H 158.196 -3.73534 0.524588 0
M  V30 1570 H 160.583 -2.94989 -0.0810639 0
M  V30 1571 H 160.664 -2.09589 1.4665 0
M  V30 1572 H 160.308 -4.31255 2.68293 0
M  V30 1573 H 160.238 -5.14752 1.11076 0
M  V30 1574 H 162.729 -3.58772 1.18705 0
M  V30 1575 H 163.042 -7.11637 3.01317 0
M  V30 1576 H 161.387 -6.40265 2.70343 0
M  V30 1577 H 164.578 -4.41688 1.55013 0
M  V30 1578 H 164.751 -6.02606 2.38265 0
M  V30 1579 N 158.157 -0.370918 -1.53173 0
M  V30 1580 C 159.087 0.464847 -2.28826 0
M  V30 1581 C 160.068 1.07936 -1.31468 0
M  V30 1582 O 161.253 1.0956 -1.60344 0
M  V30 1583 C 158.383 1.60196 -3.08147 0
M  V30 1584 C 157.337 1.11443 -4.13237 0
M  V30 1585 C 156.663 2.3422 -4.80672 0
M  V30 1586 C 157.963 0.195384 -5.21934 0
M  V30 1587 H 159.657 -0.166329 -2.98938 0
M  V30 1588 H 157.203 -0.0814359 -1.4377 0
M  V30 1589 H 159.156 2.19332 -3.59822 0
M  V30 1590 H 157.88 2.26045 -2.35735 0
M  V30 1591 H 156.539 0.545727 -3.62515 0
M  V30 1592 H 156.187 2.98537 -4.04827 0
M  V30 1593 H 155.887 2.02269 -5.51689 0
M  V30 1594 H 157.411 2.94032 -5.35143 0
M  V30 1595 H 158.825 0.694375 -5.69079 0
M  V30 1596 H 157.222 -0.0335027 -6.00091 0
M  V30 1597 H 158.292 -0.760961 -4.78892 0
M  V30 1598 N 159.635 1.57281 -0.100228 0
M  V30 1599 C 160.567 2.11342 0.886972 0
M  V30 1600 C 161.58 1.05182 1.24261 0
M  V30 1601 O 162.769 1.32613 1.19483 0
M  V30 1602 C 159.869 2.5825 2.19454 0
M  V30 1603 C 159.042 3.88302 2.01346 0
M  V30 1604 C 158.101 4.21004 3.15661 0
M  V30 1605 O 157.127 4.9014 2.89398 0
M  V30 1606 N 158.329 3.76818 4.41575 0
M  V30 1607 H 161.094 2.96668 0.425216 0
M  V30 1608 H 158.655 1.61678 0.0847334 0
M  V30 1609 H 160.647 2.7717 2.94888 0
M  V30 1610 H 159.217 1.77907 2.57037 0
M  V30 1611 H 158.437 3.7848 1.10212 0
M  V30 1612 H 159.725 4.73375 1.8653 0
M  V30 1613 H 159.123 3.2102 4.65792 0
M  V30 1614 H 157.68 4.00882 5.13942 0
M  V30 1615 N 161.113 -0.173488 1.56642 0
M  V30 1616 C 162.362 -0.888758 1.81063 0
M  V30 1617 C 162.675 -1.83506 0.67712 0
M  V30 1618 O 163.881 -2.59254 0.806206 0
M  V30 1619 C 162.337 -1.63091 3.20826 0
M  V30 1620 C 161.945 -0.728357 4.4204 0
M  V30 1621 C 163.689 -2.33454 3.54541 0
M  V30 1622 C 161.596 -1.47062 5.72823 0
M  V30 1623 H 160.526 -0.335618 0.675186 0
M  V30 1624 H 163.177 -0.141712 1.82952 0
M  V30 1625 H 161.559 -2.42263 3.13248 0
M  V30 1626 H 162.733 0.0262449 4.60793 0
M  V30 1627 H 161.048 -0.134492 4.16183 0
M  V30 1628 H 163.645 -2.89578 4.49498 0
M  V30 1629 H 163.988 -3.08687 2.79317 0
M  V30 1630 H 164.521 -1.61227 3.63663 0
M  V30 1631 H 161.26 -0.760658 6.51072 0
M  V30 1632 H 160.78 -2.1986 5.58052 0
M  V30 1633 H 162.459 -2.01868 6.14702 0
M  V30 1634 N 162.591 -1.51276 -0.441967 0
M  V30 1635 C 163.837 -1.63958 -1.19355 0
M  V30 1636 C 164.17 -0.352543 -1.90973 0
M  V30 1637 O 163.445 0.647627 -1.83401 0
M  V30 1638 C 163.728 -2.83979 -2.21422 0
M  V30 1639 C 163.581 -4.22646 -1.53918 0
M  V30 1640 C 164.9 -2.99521 -3.22451 0
M  V30 1641 H 162.019 -0.596709 -0.432559 0
M  V30 1642 H 164.661 -1.83748 -0.483398 0
M  V30 1643 H 162.811 -2.67237 -2.81987 0
M  V30 1644 H 164.483 -4.51045 -0.967256 0
M  V30 1645 H 162.726 -4.25558 -0.841615 0
M  V30 1646 H 163.397 -5.02609 -2.28229 0
M  V30 1647 H 165.873 -3.14944 -2.71937 0
M  V30 1648 H 164.749 -3.85072 -3.91166 0
M  V30 1649 H 165.01 -2.11391 -3.88287 0
M  V30 1650 N 164.069 0.697108 -1.41344 0
M  V30 1651 C 165.017 1.83237 -1.43272 0
M  V30 1652 C 166.011 1.66522 -0.310947 0
M  V30 1653 O 167.217 1.73402 -0.482899 0
M  V30 1654 H 163.592 0.603802 -0.448249 0
M  V30 1655 H 165.563 1.78727 -2.38954 0
M  V30 1656 C 164.312 3.21245 -1.33029 0
M  V30 1657 H 163.635 3.34723 -2.18633 0
M  V30 1658 H 165.075 4.00763 -1.38439 0
M  V30 1659 C 163.534 3.36873 -0.0424635 0
M  V30 1660 O 164.064 3.91177 0.913421 0
M  V30 1661 N 162.27 2.90581 0.0331145 0
M  V30 1662 H 161.817 2.46577 -0.745506 0
M  V30 1663 H 161.775 3.01416 0.894199 0
M  V30 1664 N 165.547 1.27147 0.931209 0
M  V30 1665 C 166.495 1.09398 2.05268 0
M  V30 1666 C 167.489 0.0180591 1.6939 0
M  V30 1667 O 168.695 0.17551 1.79142 0
M  V30 1668 H 165.07 0.336986 0.672268 0
M  V30 1669 H 167.041 2.04416 2.17386 0
M  V30 1670 C 165.79 0.75424 3.39421 0
M  V30 1671 H 165.113 1.57404 3.67511 0
M  V30 1672 H 166.553 0.669903 4.18674 0
M  V30 1673 C 165.012 -0.541197 3.32525 0
M  V30 1674 O 165.542 -1.57664 3.69466 0
M  V30 1675 N 163.748 -0.535517 2.85623 0
M  V30 1676 H 163.295 0.307511 2.55758 0
M  V30 1677 H 163.253 -1.40236 2.81392 0
M  V30 1678 N 167.025 -1.13721 1.09112 0
M  V30 1679 C 168.253 -1.88773 0.846899 0
M  V30 1680 C 168.668 -1.7896 -0.601572 0
M  V30 1681 O 168.025 -1.15394 -1.41388 0
M  V30 1682 C 168.076 -3.3849 1.26913 0
M  V30 1683 O 167.797 -3.48043 2.66079 0
M  V30 1684 C 169.298 -4.30518 1.05682 0
M  V30 1685 H 166.518 -0.59772 0.304914 0
M  V30 1686 H 169.062 -1.43977 1.45227 0
M  V30 1687 H 167.217 -3.80881 0.707723 0
M  V30 1688 H 167.631 -4.4109 2.83795 0
M  V30 1689 H 169.105 -5.3391 1.40156 0
M  V30 1690 H 169.582 -4.392 -0.00563416 0
M  V30 1691 H 170.188 -3.93893 1.60402 0
M  V30 1692 N 168.503 -0.877838 -1.30888 0
M  V30 1693 C 169.413 -0.343096 -2.32078 0
M  V30 1694 C 170.429 0.551022 -1.65045 0
M  V30 1695 O 171.605 0.445854 -1.96403 0
M  V30 1696 C 168.67 0.439905 -3.43898 0
M  V30 1697 C 167.731 -0.483111 -4.26573 0
M  V30 1698 C 166.964 0.262616 -5.33053 0
M  V30 1699 O 167.187 1.48967 -5.50604 0
M  V30 1700 O 166.121 -0.383593 -6.00676 0
M  V30 1701 H 169.947 -1.18203 -2.79753 0
M  V30 1702 H 167.532 -0.64145 -1.34929 0
M  V30 1703 H 169.414 0.883504 -4.12034 0
M  V30 1704 H 168.089 1.25526 -2.98371 0
M  V30 1705 H 166.996 -0.975374 -3.61161 0
M  V30 1706 H 168.329 -1.26427 -4.75686 0
M  V30 1707 N 169.982 1.44106 -0.638065 0
M  V30 1708 C 171.23 2.01579 -0.145043 0
M  V30 1709 C 171.551 1.50496 1.24 0
M  V30 1710 O 170.821 0.711374 1.82527 0
M  V30 1711 H 169.401 0.745282 -0.05063 0
M  V30 1712 H 172.063 1.76516 -0.826327 0
M  V30 1713 H 171.159 3.11877 -0.118039 0
M  V30 1714 N 171.46 0.379036 1.52974 0
M  V30 1715 C 172.737 -0.263479 1.93817 0
M  V30 1716 C 173.117 -1.65244 1.31368 0
M  V30 1717 O 172.465 -2.23448 0.477856 0
M  V30 1718 C 172.675 -0.300166 3.47707 0
M  V30 1719 C 174.023 -0.534061 4.21228 0
M  V30 1720 O 175.047 -0.38081 3.54159 0
M  V30 1721 O 173.906 -0.833501 5.40106 0
M  V30 1722 H 171 -0.161149 0.811147 0
M  V30 1723 H 173.546 0.432798 1.64088 0
M  V30 1724 H 172.318 0.673138 3.85467 0
M  V30 1725 H 171.941 -1.04179 3.83709 0
M  V30 1726 N 172.938 -1.57226 0.108567 0
M  V30 1727 C 174.184 -1.95919 -0.546564 0
M  V30 1728 C 174.539 -0.990417 -1.6495 0
M  V30 1729 O 173.832 -0.0186593 -1.91591 0
M  V30 1730 C 174.026 -3.38911 -1.13463 0
M  V30 1731 C 173.855 -4.4961 -0.0901926 0
M  V30 1732 C 172.625 -5.04168 0.338008 0
M  V30 1733 C 174.823 -5.09693 0.686808 0
M  V30 1734 N 172.805 -5.98434 1.36931 0
M  V30 1735 C 174.176 -5.99804 1.56958 0
M  V30 1736 C 176.231 -4.92388 0.738846 0
M  V30 1737 C 174.934 -6.74463 2.49983 0
M  V30 1738 C 176.96 -5.67719 1.65676 0
M  V30 1739 C 176.322 -6.57507 2.52713 0
M  V30 1740 H 172.421 -0.763312 -0.169936 0
M  V30 1741 H 175.005 -1.93728 0.194264 0
M  V30 1742 H 173.176 -3.41769 -1.84522 0
M  V30 1743 H 174.908 -3.64752 -1.75322 0
M  V30 1744 H 171.663 -4.73571 -0.0523673 0
M  V30 1745 H 172.087 -6.5027 1.88356 0
M  V30 1746 H 176.729 -4.22724 0.080084 0
M  V30 1747 H 174.447 -7.4338 3.16878 0
M  V30 1748 H 178.033 -5.56338 1.70233 0
M  V30 1749 H 176.913 -7.14778 3.22586 0
M  V30 1750 N 174.416 0.165178 -1.56732 0
M  V30 1751 C 175.662 0.877389 -1.83503 0
M  V30 1752 C 176.017 1.79602 -0.689996 0
M  V30 1753 O 175.31 1.89023 0.313205 0
M  V30 1754 C 175.504 1.70405 -3.1416 0
M  V30 1755 C 175.333 0.866961 -4.41264 0
M  V30 1756 C 174.103 0.539646 -5.0241 0
M  V30 1757 C 176.301 0.205671 -5.13889 0
M  V30 1758 N 174.283 -0.312946 -6.13102 0
M  V30 1759 C 175.654 -0.507823 -6.17917 0
M  V30 1760 C 177.709 0.124468 -4.97744 0
M  V30 1761 C 176.412 -1.29483 -7.0755 0
M  V30 1762 C 178.438 -0.649222 -5.87826 0
M  V30 1763 C 177.8 -1.35106 -6.91322 0
M  V30 1764 H 173.899 0.299477 -0.722383 0
M  V30 1765 H 176.483 0.143949 -1.94167 0
M  V30 1766 H 174.654 2.40887 -3.04677 0
M  V30 1767 H 176.386 2.35804 -3.28905 0
M  V30 1768 H 173.141 0.871176 -4.65519 0
M  V30 1769 H 173.565 -0.729731 -6.73056 0
M  V30 1770 H 178.207 0.652724 -4.17731 0
M  V30 1771 H 175.925 -1.83441 -7.87004 0
M  V30 1772 H 179.511 -0.713804 -5.77405 0
M  V30 1773 H 178.391 -1.94013 -7.59821 0
M  V30 1774 N 175.894 1.51508 0.433938 0
M  V30 1775 C 176.824 1.76016 1.53429 0
M  V30 1776 C 177.805 0.610112 1.58782 0
M  V30 1777 O 178.99 0.853177 1.74455 0
M  V30 1778 C 176.12 1.88831 2.9148 0
M  V30 1779 C 175.074 3.04288 3.00987 0
M  V30 1780 C 174.4 3.0229 4.4105 0
M  V30 1781 C 175.7 4.44193 2.74754 0
M  V30 1782 H 177.394 2.68152 1.33171 0
M  V30 1783 H 174.94 1.29035 0.639214 0
M  V30 1784 H 176.893 2.04559 3.6842 0
M  V30 1785 H 175.617 0.933455 3.12976 0
M  V30 1786 H 174.276 2.8827 2.26486 0
M  V30 1787 H 173.924 2.04576 4.59519 0
M  V30 1788 H 173.624 3.79822 4.4834 0
M  V30 1789 H 175.148 3.20116 5.1996 0
M  V30 1790 H 176.562 4.60544 3.41426 0
M  V30 1791 H 174.959 5.23457 2.9345 0
M  V30 1792 H 176.029 4.53996 1.70339 0
M  V30 1793 N 177.372 -0.689602 1.41712 0
M  V30 1794 C 178.335 -1.78521 1.43746 0
M  V30 1795 C 179.335 -1.57436 0.327191 0
M  V30 1796 O 180.525 -1.64 0.587348 0
M  V30 1797 C 177.657 -3.16971 1.25467 0
M  V30 1798 H 178.85 -1.78108 2.41283 0
M  V30 1799 H 176.403 -0.89781 1.27942 0
M  V30 1800 H 177.138 -3.23019 0.287948 0
M  V30 1801 H 176.923 -3.33678 2.05917 0
M  V30 1802 H 178.413 -3.96935 1.2974 0
M  V30 1803 N 178.85 -1.27639 -0.924453 0
M  V30 1804 C 179.8 -1.07295 -2.01176 0
M  V30 1805 C 180.784 5.77352e-05 -1.609 0
M  V30 1806 O 181.976 -0.218855 -1.75642 0
M  V30 1807 C 179.105 -0.725592 -3.35544 0
M  V30 1808 C 178.191 -1.83691 -3.82254 0
M  V30 1809 N 178.582 -3.07697 -4.01443 0
M  V30 1810 C 176.88 -1.72433 -4.11319 0
M  V30 1811 C 177.581 -3.80037 -4.40394 0
M  V30 1812 N 176.557 -3.0782 -4.48049 0
M  V30 1813 H 180.359 -2.01399 -2.14046 0
M  V30 1814 H 177.873 -1.18401 -1.11153 0
M  V30 1815 H 179.87 -0.560959 -4.13109 0
M  V30 1816 H 178.53 0.207782 -3.24034 0
M  V30 1817 H 179.541 -3.43424 -3.8766 0
M  V30 1818 H 176.218 -0.862005 -4.08504 0
M  V30 1819 H 177.608 -4.86632 -4.63291 0
M  V30 1820 N 180.328 1.1314 -1.09713 0
M  V30 1821 C 181.553 1.88862 -0.857081 0
M  V30 1822 C 181.978 1.78729 0.586304 0
M  V30 1823 O 181.336 1.13692 1.41222 0
M  V30 1824 C 181.384 3.36325 -1.30069 0
M  V30 1825 O 180.488 4.09815 -0.461007 0
M  V30 1826 H 179.829 0.587108 -0.310162 0
M  V30 1827 H 182.359 1.43129 -1.46203 0
M  V30 1828 H 182.369 3.87157 -1.28738 0
M  V30 1829 H 181.044 3.43017 -2.35185 0
M  V30 1830 H 179.621 3.68986 -0.538888 0
M  V30 1831 N 181.806 0.884767 1.30421 0
M  V30 1832 C 182.736 0.367574 2.30589 0
M  V30 1833 C 183.717 -0.549464 1.60981 0
M  V30 1834 O 184.902 -0.46336 1.88591 0
M  V30 1835 C 182.032 -0.418944 3.44764 0
M  V30 1836 C 180.986 0.406316 4.26067 0
M  V30 1837 C 180.312 -0.506793 5.32293 0
M  V30 1838 C 181.612 1.64832 4.95608 0
M  V30 1839 H 183.306 1.20462 2.74097 0
M  V30 1840 H 180.852 0.580695 1.31772 0
M  V30 1841 H 182.805 -0.791395 4.13902 0
M  V30 1842 H 181.529 -1.28964 3.0006 0
M  V30 1843 H 180.188 0.760903 3.58617 0
M  V30 1844 H 179.836 -1.37519 4.83836 0
M  V30 1845 H 179.536 0.0415828 5.87585 0
M  V30 1846 H 181.06 -0.875764 6.04287 0
M  V30 1847 H 182.474 1.34646 5.57264 0
M  V30 1848 H 180.871 2.13688 5.60765 0
M  V30 1849 H 181.941 2.39284 4.21748 0
M  V30 1850 N 183.284 -1.43765 0.645699 0
M  V30 1851 C 184.512 -2.06253 0.163556 0
M  V30 1852 C 184.927 -1.48352 -1.16778 0
M  V30 1853 O 184.284 -0.611932 -1.71935 0
M  V30 1854 C 184.335 -3.61453 0.0583186 0
M  V30 1855 O 184.056 -4.172 1.33702 0
M  V30 1856 C 185.557 -4.41002 -0.450795 0
M  V30 1857 H 182.777 -0.665413 0.0864077 0
M  V30 1858 H 185.321 -1.84396 0.884222 0
M  V30 1859 H 183.476 -3.82522 -0.612865 0
M  V30 1860 H 183.89 -5.10791 1.19131 0
M  V30 1861 H 185.364 -5.49966 -0.473403 0
M  V30 1862 H 185.841 -4.13488 -1.48068 0
M  V30 1863 H 186.447 -4.24886 0.187637 0
M  V30 1864 N 184.763 -0.387143 -1.52771 0
M  V30 1865 C 185.991 0.195869 -2.05971 0
M  V30 1866 C 186.406 1.40691 -1.25903 0
M  V30 1867 O 185.763 1.79931 -0.305134 0
M  V30 1868 C 185.814 0.56812 -3.57008 0
M  V30 1869 O 185.535 -0.594803 -4.34043 0
M  V30 1870 C 187.036 1.20723 -4.26545 0
M  V30 1871 H 184.256 0.0300578 -0.670326 0
M  V30 1872 H 186.8 -0.551749 -1.96916 0
M  V30 1873 H 184.955 1.26564 -3.66143 0
M  V30 1874 H 185.369 -0.289322 -5.23701 0
M  V30 1875 H 186.843 1.41807 -5.33474 0
M  V30 1876 H 187.32 2.17395 -3.81623 0
M  V30 1877 H 187.926 0.550535 -4.21722 0
M  V30 1878 N 186.241 1.57166 -0.116904 0
M  V30 1879 C 187.489 1.94737 0.540533 0
M  V30 1880 C 187.81 1.00096 1.67349 0
M  V30 1881 O 187.08 0.0568854 1.95817 0
M  V30 1882 H 185.66 0.718981 0.202669 0
M  V30 1883 H 188.322 1.94017 -0.185353 0
M  V30 1884 H 187.418 2.97719 0.936483 0
M  V30 1885 N 187.719 -0.156864 1.56817 0
M  V30 1886 C 188.651 -1.21883 1.94106 0
M  V30 1887 C 189.664 -1.3971 0.835754 0
M  V30 1888 O 190.853 -1.39457 1.11418 0
M  V30 1889 C 187.953 -2.58527 2.19127 0
M  V30 1890 C 187.126 -2.61809 3.50393 0
M  V30 1891 C 186.185 -3.7992 3.64071 0
M  V30 1892 O 185.211 -3.65249 4.36557 0
M  V30 1893 N 186.413 -4.96973 2.99997 0
M  V30 1894 H 189.178 -0.901974 2.85805 0
M  V30 1895 H 186.739 -0.346513 1.58148 0
M  V30 1896 H 188.731 -3.36034 2.25529 0
M  V30 1897 H 187.301 -2.82545 1.33742 0
M  V30 1898 H 186.521 -1.7029 3.5552 0
M  V30 1899 H 187.809 -2.61024 4.36742 0
M  V30 1900 H 187.207 -5.11794 2.41004 0
M  V30 1901 H 185.764 -5.7229 3.11974 0
M  V30 1902 N 189.197 -1.51736 -0.425897 0
M  V30 1903 C 190.425 -1.68794 -1.1965 0
M  V30 1904 C 190.84 -0.390164 -1.84725 0
M  V30 1905 O 190.197 0.632376 -1.71194 0
M  V30 1906 C 190.248 -2.81174 -2.27208 0
M  V30 1907 O 189.969 -4.05925 -1.64793 0
M  V30 1908 C 191.47 -3.09599 -3.17275 0
M  V30 1909 H 188.69 -0.566128 -0.360194 0
M  V30 1910 H 191.234 -1.98211 -0.503249 0
M  V30 1911 H 189.389 -2.54324 -2.9223 0
M  V30 1912 H 189.803 -4.68423 -2.35967 0
M  V30 1913 H 191.277 -3.91786 -3.88854 0
M  V30 1914 H 191.754 -2.22468 -3.78688 0
M  V30 1915 H 192.36 -3.38151 -2.57941 0
M  V30 1916 N 190.675 0.682077 -1.42076 0
M  V30 1917 C 191.923 1.4393 -1.41876 0
M  V30 1918 C 192.244 1.94971 -0.0335599 0
M  V30 1919 O 191.514 1.72591 0.926773 0
M  V30 1920 H 190.094 0.534085 -0.522267 0
M  V30 1921 H 192.756 0.806427 -1.77434 0
M  V30 1922 H 191.852 2.29588 -2.11414 0
M  V30 1923 N 192.153 1.28127 0.917671 0
M  V30 1924 C 193.383 1.17722 1.6978 0
M  V30 1925 C 193.791 -0.267261 1.87303 0
M  V30 1926 O 193.134 -1.19286 1.39702 0
M  V30 1927 C 193.196 1.79958 3.11216 0
M  V30 1928 C 192.86 3.29187 3.16993 0
M  V30 1929 C 193.857 4.25679 2.98485 0
M  V30 1930 C 191.542 3.70075 3.39632 0
M  V30 1931 C 193.536 5.61035 3.02521 0
M  V30 1932 C 191.223 5.05557 3.433 0
M  V30 1933 C 192.221 6.00847 3.24764 0
M  V30 1934 O 191.909 7.33859 3.28187 0
M  V30 1935 H 191.641 0.409788 0.537634 0
M  V30 1936 H 194.195 1.69694 1.15728 0
M  V30 1937 H 192.425 1.22475 3.66793 0
M  V30 1938 H 194.114 1.64125 3.71238 0
M  V30 1939 H 194.88 3.95426 2.80826 0
M  V30 1940 H 190.759 2.96373 3.53106 0
M  V30 1941 H 194.303 6.35388 2.87971 0
M  V30 1942 H 190.2 5.35462 3.60486 0
M  V30 1943 H 190.968 7.42436 3.44575 0
M  V30 1944 N 193.631 -1.12557 1.10312 0
M  V30 1945 C 194.88 -1.83395 0.839588 0
M  V30 1946 C 195.193 -1.84939 -0.636929 0
M  V30 1947 O 196.399 -2.51761 -1.01631 0
M  V30 1948 C 194.855 -3.29303 1.45215 0
M  V30 1949 C 194.463 -3.36122 2.96186 0
M  V30 1950 C 196.207 -4.05121 1.26796 0
M  V30 1951 C 194.114 -4.76357 3.50483 0
M  V30 1952 H 193.044 -0.687133 0.310425 0
M  V30 1953 H 195.695 -1.26746 1.32694 0
M  V30 1954 H 194.077 -3.85812 0.892469 0
M  V30 1955 H 195.251 -2.89559 3.58458 0
M  V30 1956 H 193.566 -2.73776 3.13745 0
M  V30 1957 H 196.163 -5.08668 1.64806 0
M  V30 1958 H 196.506 -4.15773 0.209409 0
M  V30 1959 H 197.039 -3.54967 1.79563 0
M  V30 1960 H 193.778 -4.70899 4.55998 0
M  V30 1961 H 193.298 -5.23377 2.92978 0
M  V30 1962 H 194.977 -5.45294 3.48228 0
M  V30 1963 N 195.109 -0.891671 -1.2995 0
M  V30 1964 C 196.52 -0.563104 -1.78006 0
M  V30 1965 C 196.871 0.920978 -1.73241 0
M  V30 1966 O 195.996 1.71987 -1.31337 0
M  V30 1967 C 196.591 -1.01539 -3.23226 0
M  V30 1968 C 195.15 -0.738124 -3.69092 0
M  V30 1969 C 194.297 -1.19461 -2.50249 0
M  V30 1970 H 197.248 -1.07522 -1.16725 0
M  V30 1971 H 197.269 -0.347217 -3.78912 0
M  V30 1972 H 196.781 -2.09555 -3.26662 0
M  V30 1973 H 194.882 0.329766 -3.71138 0
M  V30 1974 H 194.995 -1.33037 -4.60259 0
M  V30 1975 H 193.359 -0.613787 -2.47194 0
M  V30 1976 H 194.142 -2.28265 -2.56417 0
M  V30 1977 N 196.587 1.43421 -0.653314 0
M  V30 1978 C 197.812 2.06678 -0.172846 0
M  V30 1979 C 198.237 1.48648 1.15262 0
M  V30 1980 O 197.595 0.596457 1.71208 0
M  V30 1981 C 197.643 3.60474 -0.0953184 0
M  V30 1982 O 196.747 4.01487 0.942442 0
M  V30 1983 H 196.088 0.657181 -0.0949155 0
M  V30 1984 H 198.618 1.83925 -0.896265 0
M  V30 1985 H 198.628 4.07905 0.0879728 0
M  V30 1986 H 197.303 4.02088 -1.06291 0
M  V30 1987 H 195.88 3.65646 0.731932 0
M  V30 1988 N 198.065 0.39524 1.52563 0
M  V30 1989 C 199.013 -0.451859 2.28169 0
M  V30 1990 C 200.007 -1.05792 1.32304 0
M  V30 1991 O 201.213 -0.997718 1.49818 0
M  V30 1992 H 197.588 -0.164481 0.733792 0
M  V30 1993 H 199.559 0.207199 2.9768 0
M  V30 1994 C 198.308 -1.56385 3.10546 0
M  V30 1995 H 197.631 -1.10682 3.84174 0
M  V30 1996 H 199.071 -2.13067 3.66577 0
M  V30 1997 C 197.53 -2.52328 2.23231 0
M  V30 1998 O 198.06 -3.5588 1.86312 0
M  V30 1999 N 196.266 -2.22209 1.87274 0
M  V30 2000 H 195.813 -1.38033 2.17496 0
M  V30 2001 H 195.771 -2.86652 1.29143 0
M  V30 2002 N 199.544 -1.57102 0.125237 0
M  V30 2003 C 200.774 -1.99472 -0.538015 0
M  V30 2004 C 201.182 -1.00395 -1.60366 0
M  V30 2005 O 200.525 0.0103875 -1.83697 0
M  V30 2006 C 200.587 -3.38262 -1.21734 0
M  V30 2007 C 200.251 -4.56021 -0.298897 0
M  V30 2008 C 201.248 -5.17817 0.464943 0
M  V30 2009 C 198.933 -5.01869 -0.208149 0
M  V30 2010 C 200.927 -6.23852 1.3072 0
M  V30 2011 C 198.614 -6.07763 0.637736 0
M  V30 2012 C 199.612 -6.68622 1.39403 0
M  V30 2013 O 199.3 -7.7247 2.22586 0
M  V30 2014 H 199.032 -0.659934 -0.146501 0
M  V30 2015 H 201.586 -2.04321 0.210267 0
M  V30 2016 H 199.816 -3.30185 -2.01282 0
M  V30 2017 H 201.505 -3.6488 -1.77813 0
M  V30 2018 H 202.271 -4.83308 0.404741 0
M  V30 2019 H 198.15 -4.54241 -0.786522 0
M  V30 2020 H 201.694 -6.71284 1.898 0
M  V30 2021 H 197.591 -6.41701 0.699309 0
M  V30 2022 H 198.359 -7.89595 2.15596 0
M  V30 2023 N 201.022 0.148545 -1.56898 0
M  V30 2024 C 202.268 0.862694 -1.83536 0
M  V30 2025 C 202.601 1.80889 -0.706604 0
M  V30 2026 O 201.876 1.92328 0.289885 0
M  V30 2027 C 202.159 1.63853 -3.20662 0
M  V30 2028 C 202.012 0.713925 -4.44098 0
M  V30 2029 C 203.331 2.60133 -3.54991 0
M  V30 2030 H 200.45 0.312179 -0.667618 0
M  V30 2031 H 203.092 0.127953 -1.89569 0
M  V30 2032 H 201.242 2.26489 -3.1565 0
M  V30 2033 H 202.914 0.098686 -4.61194 0
M  V30 2034 H 201.157 0.0234019 -4.33794 0
M  V30 2035 H 201.828 1.29278 -5.36648 0
M  V30 2036 H 204.304 2.07616 -3.60603 0
M  V30 2037 H 203.18 3.11468 -4.51972 0
M  V30 2038 H 203.441 3.41417 -2.80868 0
M  V30 2039 N 202.5 1.5196 0.417844 0
M  V30 2040 C 203.463 1.74065 1.49111 0
M  V30 2041 C 204.463 0.610537 1.48758 0
M  V30 2042 O 205.653 0.87832 1.50437 0
M  V30 2043 C 202.785 1.81502 2.88565 0
M  V30 2044 H 203.978 2.69869 1.30807 0
M  V30 2045 H 201.531 1.42244 0.647785 0
M  V30 2046 H 202.266 0.875813 3.1225 0
M  V30 2047 H 202.051 2.63651 2.90225 0
M  V30 2048 H 203.541 2.00376 3.66387 0
M  V30 2049 N 203.978 -0.674533 1.42435 0
M  V30 2050 C 205.389 -1.25514 1.38214 0
M  V30 2051 C 205.74 -1.96055 0.0755464 0
M  V30 2052 O 204.865 -2.00028 -0.8257 0
M  V30 2053 C 205.46 -2.28269 2.50357 0
M  V30 2054 C 204.019 -2.81856 2.49467 0
M  V30 2055 C 203.166 -1.56182 2.29134 0
M  V30 2056 H 206.117 -0.467902 1.51646 0
M  V30 2057 H 206.138 -3.10009 2.20624 0
M  V30 2058 H 205.65 -1.769 3.45439 0
M  V30 2059 H 203.751 -3.37346 1.58204 0
M  V30 2060 H 203.864 -3.30854 3.46515 0
M  V30 2061 H 202.228 -1.82761 1.774 0
M  V30 2062 H 203.011 -1.06778 3.26272 0
M  V30 2063 N 205.456 -1.28612 -0.910864 0
M  V30 2064 C 206.681 -1.1891 -1.69927 0
M  V30 2065 C 207.106 0.248372 -1.86453 0
M  V30 2066 O 206.464 1.17961 -1.37676 0
M  V30 2067 C 206.512 -1.89578 -3.06745 0
M  V30 2068 O 205.616 -1.20521 -3.94396 0
M  V30 2069 H 204.957 -0.412632 -0.520222 0
M  V30 2070 H 207.487 -1.69985 -1.1387 0
M  V30 2071 H 207.497 -1.97597 -3.56958 0
M  V30 2072 H 206.172 -2.94136 -2.94035 0
M  V30 2073 H 204.749 -1.20684 -3.52831 0
M  V30 2074 N 206.934 1.1197 -1.10907 0
M  V30 2075 C 208.211 1.79959 -0.766432 0
M  V30 2076 C 208.591 1.97466 0.746363 0
M  V30 2077 O 207.939 1.55491 1.67436 0
M  V30 2078 C 208.149 3.14009 -1.52314 0
M  V30 2079 C 209.497 3.89134 -1.69883 0
M  V30 2080 O 210.521 3.2368 -1.48692 0
M  V30 2081 O 209.38 5.06572 -2.05054 0
M  V30 2082 H 206.474 0.779208 -0.277062 0
M  V30 2083 H 209.02 1.18762 -1.21217 0
M  V30 2084 H 207.792 2.96587 -2.55249 0
M  V30 2085 H 207.415 3.82915 -1.07059 0
M  V30 2086 N 208.412 0.89855 1.29475 0
M  V30 2087 C 209.637 0.538561 2.00285 0
M  V30 2088 C 210.062 -0.869135 1.66816 0
M  V30 2089 O 209.42 -1.57831 0.892145 0
M  V30 2090 C 209.468 0.736475 3.52999 0
M  V30 2091 O 208.572 -0.211537 4.11857 0
M  V30 2092 H 207.913 0.210563 0.62973 0
M  V30 2093 H 210.443 1.20982 1.64998 0
M  V30 2094 H 210.453 0.640685 4.02938 0
M  V30 2095 H 209.128 1.76276 3.76696 0
M  V30 2096 H 207.705 -0.0682991 3.72837 0
M  V30 2097 N 209.89 -1.43072 0.660911 0
M  V30 2098 C 211.139 -2.00942 0.174735 0
M  V30 2099 C 211.452 -1.52797 -1.22117 0
M  V30 2100 O 212.658 -2.02991 -1.80297 0
M  V30 2101 C 211.114 -3.58948 0.261559 0
M  V30 2102 C 210.722 -4.16085 1.66064 0
M  V30 2103 C 212.466 -4.24173 -0.166617 0
M  V30 2104 C 210.373 -5.6641 1.70098 0
M  V30 2105 H 209.303 -0.751483 0.0615631 0
M  V30 2106 H 211.954 -1.63955 0.824069 0
M  V30 2107 H 210.336 -3.93372 -0.455421 0
M  V30 2108 H 211.51 -3.93147 2.40359 0
M  V30 2109 H 209.825 -3.6326 2.03546 0
M  V30 2110 H 212.422 -5.34471 -0.156433 0
M  V30 2111 H 212.765 -3.98647 -1.19943 0
M  V30 2112 H 213.298 -3.94659 0.498875 0
M  V30 2113 H 210.037 -5.96715 2.71315 0
M  V30 2114 H 209.557 -5.91382 1.00139 0
M  V30 2115 H 211.236 -6.30585 1.44816 0
M  V30 2116 N 211.368 -0.403325 -1.52352 0
M  V30 2117 C 212.3 0.4603 -2.2453 0
M  V30 2118 C 213.313 1.01505 -1.27282 0
M  V30 2119 O 214.502 0.914982 -1.53266 0
M  V30 2120 C 211.602 1.65208 -2.95905 0
M  V30 2121 C 210.775 1.22224 -4.19976 0
M  V30 2122 C 209.834 2.28028 -4.74226 0
M  V30 2123 O 208.86 1.88857 -5.36956 0
M  V30 2124 N 210.062 3.6012 -4.55295 0
M  V30 2125 H 212.827 -0.158156 -2.99282 0
M  V30 2126 H 210.388 -0.230402 -1.60252 0
M  V30 2127 H 212.38 2.35541 -3.29093 0
M  V30 2128 H 210.95 2.17658 -2.24374 0
M  V30 2129 H 210.17 0.34725 -3.92668 0
M  V30 2130 H 211.458 0.911924 -5.00561 0
M  V30 2131 H 210.856 3.94698 -4.05253 0
M  V30 2132 H 209.413 4.26447 -4.92936 0
M  V30 2133 N 212.846 1.57033 -0.133567 0
M  V30 2134 C 213.809 2.14897 0.796995 0
M  V30 2135 C 214.809 1.0874 1.18458 0
M  V30 2136 O 215.999 1.34446 1.1077 0
M  V30 2137 C 213.131 2.70112 2.07973 0
M  V30 2138 H 214.324 2.98457 0.293873 0
M  V30 2139 H 211.877 1.55871 0.115787 0
M  V30 2140 H 212.612 1.9018 2.62682 0
M  V30 2141 H 212.397 3.47764 1.81115 0
M  V30 2142 H 213.887 3.14738 2.74462 0
M  V30 2143 N 214.325 -0.140222 1.56975 0
M  V30 2144 C 215.235 -1.19223 2.02047 0
M  V30 2145 C 216.251 -1.46612 0.937062 0
M  V30 2146 O 217.427 -1.58148 1.24704 0
M  V30 2147 C 214.492 -2.50414 2.39778 0
M  V30 2148 C 213.553 -2.30612 3.621 0
M  V30 2149 C 212.786 -3.55547 3.98023 0
M  V30 2150 O 213.009 -4.62004 3.34528 0
M  V30 2151 O 211.943 -3.47808 4.91237 0
M  V30 2152 H 215.769 -0.839559 2.91865 0
M  V30 2153 H 213.354 -0.349453 1.45256 0
M  V30 2154 H 215.236 -3.27747 2.64877 0
M  V30 2155 H 213.911 -2.85198 1.53114 0
M  V30 2156 H 212.818 -1.51207 3.4218 0
M  V30 2157 H 214.151 -2.00741 4.49404 0
M  V30 2158 N 215.803 -1.52179 -0.40978 0
M  V30 2159 C 216.713 -1.78364 -1.52392 0
M  V30 2160 C 217.729 -0.669183 -1.60617 0
M  V30 2161 O 218.905 -0.954518 -1.77344 0
M  V30 2162 C 215.97 -1.92822 -2.88133 0
M  V30 2163 C 215.031 -3.16725 -2.898 0
M  V30 2164 C 214.264 -3.30483 -4.19067 0
M  V30 2165 O 214.487 -2.49522 -5.12928 0
M  V30 2166 O 213.421 -4.2363 -4.27576 0
M  V30 2167 H 217.247 -2.72931 -1.33201 0
M  V30 2168 H 214.832 -1.37016 -0.59557 0
M  V30 2169 H 216.714 -2.04157 -3.68643 0
M  V30 2170 H 215.389 -1.01444 -3.07393 0
M  V30 2171 H 214.296 -3.10848 -2.08146 0
M  V30 2172 H 215.629 -4.07881 -2.75489 0
M  V30 2173 N 217.281 0.66697 -1.42791 0
M  V30 2174 C 218.527 1.42754 -1.44889 0
M  V30 2175 C 218.882 1.92283 -0.0669755 0
M  V30 2176 O 218.175 1.68494 0.912154 0
M  V30 2177 C 218.369 2.6349 -2.4147 0
M  V30 2178 C 218.198 2.25776 -3.88915 0
M  V30 2179 C 216.968 2.1476 -4.57391 0
M  V30 2180 C 219.166 1.86927 -4.79127 0
M  V30 2181 N 217.148 1.70232 -5.89826 0
M  V30 2182 C 218.519 1.53378 -6.00729 0
M  V30 2183 C 220.574 1.73989 -4.66511 0
M  V30 2184 C 219.277 1.08187 -7.11117 0
M  V30 2185 C 221.303 1.30203 -5.76889 0
M  V30 2186 C 220.665 0.975818 -6.97608 0
M  V30 2187 H 216.764 0.518559 -0.585338 0
M  V30 2188 H 219.348 0.768906 -1.78874 0
M  V30 2189 H 217.519 3.27033 -2.09533 0
M  V30 2190 H 219.251 3.30123 -2.34096 0
M  V30 2191 H 216.006 2.3408 -4.11708 0
M  V30 2192 H 216.43 1.50369 -6.6009 0
M  V30 2193 H 221.072 1.97853 -3.7365 0
M  V30 2194 H 218.79 0.830701 -8.03819 0
M  V30 2195 H 222.376 1.20701 -5.69142 0
M  V30 2196 H 221.256 0.642157 -7.81566 0
M  V30 2197 N 218.759 1.29093 0.90403 0
M  V30 2198 C 219.989 1.19516 1.68522 0
M  V30 2199 C 220.397 -0.24738 1.87576 0
M  V30 2200 O 219.74 -1.17798 1.40959 0
M  V30 2201 C 219.802 1.83249 3.0929 0
M  V30 2202 C 219.466 3.32531 3.13484 0
M  V30 2203 C 220.463 4.28821 2.93953 0
M  V30 2204 C 218.148 3.73656 3.35688 0
M  V30 2205 C 220.142 5.64212 2.96553 0
M  V30 2206 C 217.829 5.0917 3.37919 0
M  V30 2207 C 218.827 6.04258 3.18373 0
M  V30 2208 O 218.515 7.37298 3.20385 0
M  V30 2209 H 218.247 0.415467 0.533257 0
M  V30 2210 H 220.801 1.70912 1.13922 0
M  V30 2211 H 219.031 1.26358 3.65473 0
M  V30 2212 H 220.72 1.68054 3.69476 0
M  V30 2213 H 221.486 3.98382 2.76616 0
M  V30 2214 H 217.365 3.00101 3.49943 0
M  V30 2215 H 220.909 6.38407 2.81216 0
M  V30 2216 H 216.806 5.39256 3.54787 0
M  V30 2217 H 217.574 7.46048 3.36681 0
M  V30 2218 N 220.237 -1.11381 1.11499 0
M  V30 2219 C 221.484 -1.83132 0.864231 0
M  V30 2220 C 221.812 -1.84683 -0.610114 0
M  V30 2221 O 221.067 -1.29589 -1.46646 0
M  V30 2222 C 221.366 -3.30026 1.37177 0
M  V30 2223 C 221.032 -3.48634 2.85946 0
M  V30 2224 C 219.694 -3.53421 3.26569 0
M  V30 2225 C 222.046 -3.54837 3.81759 0
M  V30 2226 C 219.374 -3.61967 4.61733 0
M  V30 2227 C 221.726 -3.64915 5.1674 0
M  V30 2228 C 220.39 -3.67962 5.5692 0
M  V30 2229 H 219.66 -0.670127 0.316245 0
M  V30 2230 H 222.307 -1.31354 1.3935 0
M  V30 2231 H 220.612 -3.84304 0.762753 0
M  V30 2232 H 222.309 -3.84034 1.15408 0
M  V30 2233 H 218.899 -3.45579 2.53521 0
M  V30 2234 H 223.083 -3.50399 3.51474 0
M  V30 2235 H 218.339 -3.62603 4.92269 0
M  V30 2236 H 222.513 -3.68658 5.90816 0
M  V30 2237 H 220.14 -3.74336 6.61647 0
M  V30 2238 N 221.715 -0.905404 -1.28997 0
M  V30 2239 C 222.963 -0.533192 -1.9494 0
M  V30 2240 C 223.284 0.924618 -1.71685 0
M  V30 2241 O 222.554 1.65268 -1.05183 0
M  V30 2242 H 221.134 -0.194194 -0.721317 0
M  V30 2243 H 223.796 -1.15294 -1.57141 0
M  V30 2244 H 222.892 -0.72059 -3.03667 0
M  V30 2245 N 223.193 1.4272 -0.668489 0
M  V30 2246 C 224.14 2.30796 0.0137489 0
M  V30 2247 C 225.11 1.4561 0.799177 0
M  V30 2248 O 226.295 1.74453 0.772702 0
M  V30 2249 C 223.435 3.31377 0.963507 0
M  V30 2250 C 222.548 4.31655 0.172569 0
M  V30 2251 C 221.683 5.19312 1.1175 0
M  V30 2252 C 220.722 6.11274 0.317886 0
M  V30 2253 N 219.859 6.91504 1.2152 0
M  V30 2254 H 224.699 2.88585 -0.743161 0
M  V30 2255 H 222.236 1.42154 -0.378226 0
M  V30 2256 H 224.194 3.88214 1.52792 0
M  V30 2257 H 222.824 2.75202 1.68712 0
M  V30 2258 H 221.876 3.76988 -0.508374 0
M  V30 2259 H 223.188 4.96779 -0.448527 0
M  V30 2260 H 222.342 5.80851 1.75206 0
M  V30 2261 H 221.081 4.5435 1.77249 0
M  V30 2262 H 220.086 5.48809 -0.329918 0
M  V30 2263 H 221.311 6.78283 -0.332917 0
M  V30 2264 H 219.257 6.29176 1.85671 0
M  V30 2265 H 219.174 7.53209 0.649036 0
M  V30 2266 H 220.442 7.57535 1.83742 0
M  V30 2267 N 224.671 0.411399 1.52136 0
M  V30 2268 C 225.92 -0.165009 2.01024 0
M  V30 2269 C 226.233 -1.4603 1.30133 0
M  V30 2270 O 227.439 -2.1181 1.69849 0
M  V30 2271 C 225.895 -0.344618 3.58246 0
M  V30 2272 C 225.503 0.938716 4.38055 0
M  V30 2273 C 227.247 -0.876195 4.15359 0
M  V30 2274 C 225.154 0.726172 5.86925 0
M  V30 2275 H 224.084 -0.0654407 0.751155 0
M  V30 2276 H 226.735 0.537192 1.75461 0
M  V30 2277 H 225.117 -1.10921 3.80148 0
M  V30 2278 H 226.291 1.70963 4.27912 0
M  V30 2279 H 224.606 1.39688 3.92271 0
M  V30 2280 H 227.203 -1.05128 5.24263 0
M  V30 2281 H 227.546 -1.85152 3.7286 0
M  V30 2282 H 228.079 -0.170607 3.97434 0
M  V30 2283 H 224.818 1.67312 6.33788 0
M  V30 2284 H 224.338 -0.00540283 5.998 0
M  V30 2285 H 226.017 0.369231 6.45946 0
M  V30 2286 N 226.149 -1.5696 0.141893 0
M  V30 2287 C 227.377 -2.00322 -0.517579 0
M  V30 2288 C 227.792 -1.02193 -1.58752 0
M  V30 2289 O 227.149 -0.0181619 -1.82491 0
M  V30 2290 C 227.2 -3.43618 -1.12289 0
M  V30 2291 O 226.921 -4.37995 -0.0956929 0
M  V30 2292 C 228.422 -4.02231 -1.86347 0
M  V30 2293 H 225.642 -0.657243 -0.135177 0
M  V30 2294 H 228.186 -2.03146 0.234973 0
M  V30 2295 H 226.341 -3.41662 -1.82609 0
M  V30 2296 H 226.755 -5.21729 -0.538469 0
M  V30 2297 H 228.229 -5.04509 -2.23997 0
M  V30 2298 H 228.706 -3.42655 -2.74744 0
M  V30 2299 H 229.312 -4.07802 -1.20737 0
M  V30 2300 N 227.627 0.131896 -1.57047 0
M  V30 2301 C 229.043 0.485031 -1.52051 0
M  V30 2302 C 229.243 1.82563 -0.85281 0
M  V30 2303 O 228.299 2.48817 -0.429694 0
M  V30 2304 C 229.612 0.481409 -2.96821 0
M  V30 2305 C 231.16 0.565868 -3.07842 0
M  V30 2306 C 231.635 0.592762 -4.54148 0
M  V30 2307 N 233.126 0.654564 -4.58552 0
M  V30 2308 C 233.861 0.696608 -5.69153 0
M  V30 2309 N 233.357 0.697078 -6.89284 0
M  V30 2310 N 235.15 0.738639 -5.57226 0
M  V30 2311 H 227.301 -0.746664 -1.98843 0
M  V30 2312 H 229.564 -0.273999 -0.90754 0
M  V30 2313 H 229.27 -0.435731 -3.4899 0
M  V30 2314 H 229.144 1.3139 -3.53577 0
M  V30 2315 H 231.531 1.47343 -2.55684 0
M  V30 2316 H 231.612 -0.29406 -2.54104 0
M  V30 2317 H 231.256 -0.310701 -5.06949 0
M  V30 2318 H 231.186 1.46939 -5.05684 0
M  V30 2319 H 233.677 0.660887 -3.72076 0
M  V30 2320 H 233.99 0.731426 -7.69331 0
M  V30 2321 H 232.335 0.66471 -6.91814 0
M  V30 2322 H 235.526 0.735545 -4.62285 0
M  V30 2323 H 235.699 0.767938 -6.43434 0
M  V30 2324 N 229.106 1.52395 0.401703 0
M  V30 2325 C 230.522 1.41363 0.740864 0
M  V30 2326 C 230.722 0.523982 1.94568 0
M  V30 2327 O 229.778 -0.00741204 2.52499 0
M  V30 2328 C 231.091 2.84011 0.987847 0
M  V30 2329 C 232.639 2.93404 1.09011 0
M  V30 2330 C 233.114 4.37036 1.3698 0
M  V30 2331 N 234.605 4.40304 1.43829 0
M  V30 2332 C 235.34 5.48508 1.67112 0
M  V30 2333 N 234.836 6.66819 1.87949 0
M  V30 2334 N 236.629 5.36034 1.69187 0
M  V30 2335 H 228.78 2.08765 -0.391262 0
M  V30 2336 H 231.043 0.941265 -0.112798 0
M  V30 2337 H 230.749 3.51265 0.174835 0
M  V30 2338 H 230.623 3.25502 1.906 0
M  V30 2339 H 233.01 2.26325 1.8937 0
M  V30 2340 H 233.091 2.55359 0.15015 0
M  V30 2341 H 232.735 5.04676 0.571353 0
M  V30 2342 H 232.665 4.72623 2.3224 0
M  V30 2343 H 235.156 3.55024 1.29486 0
M  V30 2344 H 235.469 7.45063 2.05185 0
M  V30 2345 H 233.814 6.6987 1.85199 0
M  V30 2346 H 237.005 4.42579 1.52451 0
M  V30 2347 H 237.178 6.20434 1.86993 0
M  V30 2348 N 230.584 -0.659388 1.43143 0
M  V30 2349 C 231.494 -1.80167 1.50256 0
M  V30 2350 C 232.51 -1.69571 0.390106 0
M  V30 2351 O 233.686 -1.90849 0.643319 0
M  V30 2352 C 230.751 -3.16409 1.41725 0
M  V30 2353 C 229.812 -3.38848 2.63591 0
M  V30 2354 C 229.045 -4.68591 2.55458 0
M  V30 2355 O 229.268 -5.47532 1.59891 0
M  V30 2356 O 228.202 -4.92614 3.45854 0
M  V30 2357 H 232.028 -1.77121 2.46702 0
M  V30 2358 H 229.613 -0.817092 1.25076 0
M  V30 2359 H 231.495 -3.9768 1.39387 0
M  V30 2360 H 230.17 -3.20059 0.484118 0
M  V30 2361 H 229.077 -2.57366 2.71502 0
M  V30 2362 H 230.41 -3.4004 3.55856 0
M  V30 2363 N 232.062 -1.29571 -0.897171 0
M  V30 2364 C 233.287 -1.20705 -1.68656 0
M  V30 2365 C 233.712 0.228582 -1.86706 0
M  V30 2366 O 233.07 1.16494 -1.3892 0
M  V30 2367 C 233.118 -1.9282 -3.04717 0
M  V30 2368 O 232.222 -1.24697 -3.93096 0
M  V30 2369 H 231.563 -0.418126 -0.515816 0
M  V30 2370 H 234.093 -1.71183 -1.12061 0
M  V30 2371 H 234.103 -2.01372 -3.54843 0
M  V30 2372 H 232.778 -2.97239 -2.90899 0
M  V30 2373 H 231.355 -1.2442 -3.51531 0
M  V30 2374 N 233.54 1.10788 -1.12088 0
M  V30 2375 C 234.45 2.20599 -0.798338 0
M  V30 2376 C 235.466 1.72712 0.21135 0
M  V30 2377 O 236.642 2.01348 0.0458477 0
M  V30 2378 C 233.707 3.45771 -0.253674 0
M  V30 2379 C 232.768 4.08411 -1.32283 0
M  V30 2380 C 232.001 5.27608 -0.80406 0
M  V30 2381 O 232.224 5.69241 0.363478 0
M  V30 2382 O 231.158 5.8101 -1.57198 0
M  V30 2383 H 234.984 2.50614 -1.7154 0
M  V30 2384 H 232.569 1.19454 -0.897275 0
M  V30 2385 H 234.451 4.21376 0.0453691 0
M  V30 2386 H 233.126 3.1739 0.636005 0
M  V30 2387 H 232.033 3.34507 -1.67499 0
M  V30 2388 H 233.366 4.40986 -2.18614 0
M  V30 2389 N 235.018 0.912232 1.28515 0
M  V30 2390 C 236.434 0.610159 1.47476 0
M  V30 2391 C 236.634 -0.844955 1.82928 0
M  V30 2392 O 235.69 -1.62416 1.93332 0
M  V30 2393 C 237.003 1.54675 2.57868 0
M  V30 2394 C 238.551 1.55331 2.71738 0
M  V30 2395 C 239.026 2.47649 3.85272 0
M  V30 2396 N 240.517 2.45767 3.92623 0
M  V30 2397 C 241.252 3.13896 4.79851 0
M  V30 2398 N 240.748 3.9135 5.71679 0
M  V30 2399 N 242.541 3.02991 4.73448 0
M  V30 2400 H 234.692 1.85318 1.03783 0
M  V30 2401 H 236.955 0.794777 0.516753 0
M  V30 2402 H 236.661 2.5841 2.38574 0
M  V30 2403 H 236.535 1.27671 3.54937 0
M  V30 2404 H 238.922 0.52335 2.90422 0
M  V30 2405 H 239.003 1.86378 1.75205 0
M  V30 2406 H 238.647 3.50745 3.67342 0
M  V30 2407 H 238.577 2.13904 4.81199 0
M  V30 2408 H 241.068 1.89503 3.26951 0
M  V30 2409 H 241.381 4.40359 6.35062 0
M  V30 2410 H 239.726 3.95455 5.71524 0
M  V30 2411 H 242.917 2.41987 4.007 0
M  V30 2412 H 243.09 3.5636 5.41213 0
M  V30 2413 N 236.496 -1.42363 0.676048 0
M  V30 2414 C 237.426 -2.33497 0.0124832 0
M  V30 2415 C 238.407 -1.50748 -0.787981 0
M  V30 2416 O 239.592 -1.79346 -0.744884 0
M  V30 2417 C 236.722 -3.34377 -0.938582 0
M  V30 2418 C 235.676 -4.27289 -0.246622 0
M  V30 2419 C 235.002 -5.18386 -1.31071 0
M  V30 2420 C 236.302 -5.14916 0.875125 0
M  V30 2421 H 237.996 -2.89233 0.773593 0
M  V30 2422 H 235.542 -1.39073 0.37346 0
M  V30 2423 H 237.495 -3.97044 -1.41188 0
M  V30 2424 H 236.219 -2.76947 -1.73113 0
M  V30 2425 H 234.878 -3.66018 0.206456 0
M  V30 2426 H 234.526 -4.57282 -2.09528 0
M  V30 2427 H 234.226 -5.81378 -0.852839 0
M  V30 2428 H 235.75 -5.83929 -1.78492 0
M  V30 2429 H 237.164 -5.71262 0.482983 0
M  V30 2430 H 235.561 -5.86747 1.25887 0
M  V30 2431 H 236.631 -4.53242 1.72335 0
M  V30 2432 N 237.974 -0.419461 -1.51915 0
M  V30 2433 C 238.904 0.391813 -2.30189 0
M  V30 2434 C 239.885 1.03699 -1.34836 0
M  V30 2435 O 241.07 1.04403 -1.63748 0
M  V30 2436 C 238.2 1.50312 -3.13087 0
M  V30 2437 C 237.154 0.9824 -4.16573 0
M  V30 2438 C 236.48 2.18809 -4.8788 0
M  V30 2439 C 237.78 0.0292356 -5.22292 0
M  V30 2440 H 239.474 -0.26135 -2.98257 0
M  V30 2441 H 237.02 -0.127134 -1.43438 0
M  V30 2442 H 238.973 2.07773 -3.66617 0
M  V30 2443 H 237.697 2.18431 -2.42807 0
M  V30 2444 H 236.356 0.430119 -3.64068 0
M  V30 2445 H 236.004 2.85507 -4.14119 0
M  V30 2446 H 235.704 1.84615 -5.57845 0
M  V30 2447 H 237.228 2.76858 -5.44226 0
M  V30 2448 H 238.642 0.512976 -5.71 0
M  V30 2449 H 237.039 -0.2244 -5.9968 0
M  V30 2450 H 238.109 -0.912931 -4.76228 0
M  V30 2451 N 239.452 1.56882 -0.150215 0
M  V30 2452 C 240.382 2.19935 0.784284 0
M  V30 2453 C 241.363 1.14854 1.25469 0
M  V30 2454 O 242.548 1.43209 1.31168 0
M  V30 2455 C 239.678 2.82349 2.02229 0
M  V30 2456 C 238.632 3.93285 1.68853 0
M  V30 2457 C 237.958 4.42649 2.99944 0
M  V30 2458 C 239.258 5.13904 0.932714 0
M  V30 2459 H 240.952 2.9828 0.258781 0
M  V30 2460 H 238.498 1.43473 0.123029 0
M  V30 2461 H 240.451 3.25126 2.68088 0
M  V30 2462 H 239.175 2.0134 2.57157 0
M  V30 2463 H 237.834 3.5113 1.05371 0
M  V30 2464 H 237.482 3.58458 3.52869 0
M  V30 2465 H 237.182 5.17476 2.78374 0
M  V30 2466 H 238.706 4.88099 3.66868 0
M  V30 2467 H 240.12 5.53506 1.49345 0
M  V30 2468 H 238.517 5.94515 0.81684 0
M  V30 2469 H 239.587 4.84842 -0.0749568 0
M  V30 2470 N 240.93 -0.123565 1.57115 0
M  V30 2471 C 241.878 -1.17082 2.00984 0
M  V30 2472 C 242.872 -1.43136 0.906009 0
M  V30 2473 O 244.078 -1.43152 1.09121 0
M  V30 2474 H 240.453 -0.394653 0.64012 0
M  V30 2475 H 242.424 -0.774292 2.88179 0
M  V30 2476 C 241.173 -2.49057 2.42623 0
M  V30 2477 H 240.496 -2.29846 3.27125 0
M  V30 2478 H 241.936 -3.20906 2.7712 0
M  V30 2479 C 240.395 -3.11305 1.28805 0
M  V30 2480 O 240.925 -3.97171 0.60153 0
M  V30 2481 N 239.131 -2.71111 1.04628 0
M  V30 2482 H 238.678 -2.01382 1.60634 0
M  V30 2483 H 238.636 -3.1309 0.286685 0
M  V30 2484 N 242.408 -1.52605 -0.393616 0
M  V30 2485 C 243.819 -1.59417 -0.971761 0
M  V30 2486 C 244.17 -0.444173 -1.91106 0
M  V30 2487 O 243.295 0.433382 -2.12016 0
M  V30 2488 C 243.89 -2.88936 -1.76921 0
M  V30 2489 C 242.449 -2.98175 -2.29714 0
M  V30 2490 C 241.596 -2.54491 -1.10135 0
M  V30 2491 H 244.547 -1.57751 -0.173317 0
M  V30 2492 H 244.568 -2.75163 -2.62804 0
M  V30 2493 H 244.08 -3.72616 -1.08532 0
M  V30 2494 H 242.181 -2.19024 -3.01429 0
M  V30 2495 H 242.294 -4.02726 -2.59517 0
M  V30 2496 H 240.658 -2.08702 -1.45999 0
M  V30 2497 H 241.441 -3.4056 -0.432874 0
M  V30 2498 N 243.887 0.651787 -1.4349 0
M  V30 2499 C 244.797 1.79368 -1.5121 0
M  V30 2500 C 245.813 1.69361 -0.399093 0
M  V30 2501 O 246.989 1.90505 -0.653431 0
M  V30 2502 C 244.054 3.15653 -1.43401 0
M  V30 2503 C 243.115 3.37446 -2.65384 0
M  V30 2504 C 242.348 4.67229 -2.57939 0
M  V30 2505 O 242.571 5.46676 -1.62792 0
M  V30 2506 O 241.505 4.90773 -3.48462 0
M  V30 2507 H 245.331 1.7581 -2.47638 0
M  V30 2508 H 242.916 0.810447 -1.25507 0
M  V30 2509 H 244.798 3.96935 -1.41494 0
M  V30 2510 H 243.473 3.19798 -0.501085 0
M  V30 2511 H 242.38 2.55923 -2.72863 0
M  V30 2512 H 243.713 3.38148 -3.57654 0
M  V30 2513 N 245.365 1.30045 0.890287 0
M  V30 2514 C 246.313 1.15873 2.01683 0
M  V30 2515 C 247.307 0.0719403 1.69247 0
M  V30 2516 O 248.513 0.232414 1.78493 0
M  V30 2517 H 244.888 0.358203 0.661207 0
M  V30 2518 H 246.859 2.11229 2.10772 0
M  V30 2519 C 245.608 0.861842 3.36849 0
M  V30 2520 H 244.931 1.69016 3.62317 0
M  V30 2521 H 246.371 0.802762 4.16331 0
M  V30 2522 C 244.83 -0.435132 3.34078 0
M  V30 2523 O 245.36 -1.4583 3.74295 0
M  V30 2524 N 243.566 -0.444377 2.87182 0
M  V30 2525 H 243.113 0.388723 2.5465 0
M  V30 2526 H 243.071 -1.31213 2.85711 0
M  V30 2527 N 246.843 -1.10192 1.12674 0
M  V30 2528 C 248.254 -1.63707 0.897604 0
M  V30 2529 C 248.605 -1.87812 -0.567546 0
M  V30 2530 O 247.73 -1.62196 -1.43253 0
M  V30 2531 C 248.325 -2.974 1.62292 0
M  V30 2532 C 246.884 -3.47772 1.43986 0
M  V30 2533 C 246.031 -2.22332 1.65722 0
M  V30 2534 H 248.982 -0.936587 1.28116 0
M  V30 2535 H 249.003 -3.64986 1.07541 0
M  V30 2536 H 248.515 -2.79824 2.68924 0
M  V30 2537 H 246.616 -3.70487 0.396206 0
M  V30 2538 H 246.729 -4.25723 2.19765 0
M  V30 2539 H 245.093 -2.30599 1.08149 0
M  V30 2540 H 245.876 -2.07285 2.73657 0
M  V30 2541 N 248.321 -0.919034 -1.28029 0
M  V30 2542 C 249.737 -0.617972 -1.4715 0
M  V30 2543 C 249.937 0.835242 -1.83374 0
M  V30 2544 O 248.993 1.61388 -1.94191 0
M  V30 2545 C 250.306 -1.56041 -2.57044 0
M  V30 2546 C 251.854 -1.56769 -2.7091 0
M  V30 2547 C 252.329 -2.49688 -3.83953 0
M  V30 2548 N 253.82 -2.47845 -3.91314 0
M  V30 2549 C 254.555 -3.16437 -4.78179 0
M  V30 2550 N 254.051 -3.94376 -5.69596 0
M  V30 2551 N 255.844 -3.05498 -4.71834 0
M  V30 2552 H 247.995 -1.85866 -1.02798 0
M  V30 2553 H 250.258 -0.797506 -0.512531 0
M  V30 2554 H 249.964 -2.59671 -2.372 0
M  V30 2555 H 249.838 -1.29551 -3.54255 0
M  V30 2556 H 252.225 -0.538745 -2.90141 0
M  V30 2557 H 252.306 -1.87305 -1.74214 0
M  V30 2558 H 251.95 -3.52688 -3.65477 0
M  V30 2559 H 251.88 -2.16453 -4.80058 0
M  V30 2560 H 254.371 -1.91234 -3.25941 0
M  V30 2561 H 254.684 -4.43721 -6.32718 0
M  V30 2562 H 253.029 -3.98481 -5.69419 0
M  V30 2563 H 256.22 -2.44108 -3.99411 0
M  V30 2564 H 256.393 -3.59225 -5.39316 0
M  V30 2565 N 249.799 1.42003 -0.683588 0
M  V30 2566 C 251.047 2.01015 -0.209101 0
M  V30 2567 C 251.368 1.54365 1.19149 0
M  V30 2568 O 250.638 0.769083 1.80172 0
M  V30 2569 H 249.218 0.743294 -0.074315 0
M  V30 2570 H 251.88 1.73798 -0.882066 0
M  V30 2571 H 250.976 3.11343 -0.2172 0
M  V30 2572 N 251.277 0.427512 1.51691 0
M  V30 2573 C 252.505 -0.141191 2.06418 0
M  V30 2574 C 252.92 -1.37303 1.29589 0
M  V30 2575 O 252.277 -1.79059 0.352732 0
M  V30 2576 C 252.328 -0.473266 3.58389 0
M  V30 2577 O 252.049 0.709673 4.32314 0
M  V30 2578 C 253.55 -1.09371 4.29596 0
M  V30 2579 H 250.77 -0.0122747 0.670888 0
M  V30 2580 H 253.314 0.603764 1.95384 0
M  V30 2581 H 251.469 -1.16812 3.69369 0
M  V30 2582 H 251.883 0.42807 5.2275 0
M  V30 2583 H 253.357 -1.27613 5.37046 0
M  V30 2584 H 253.834 -2.072 3.87253 0
M  V30 2585 H 254.44 -0.43853 4.23033 0
M  V30 2586 N 252.755 -1.56801 0.158532 0
M  V30 2587 C 254.002 -1.9649 -0.489679 0
M  V30 2588 C 254.33 -1.04394 -1.6411 0
M  V30 2589 O 253.585 -0.0754401 -1.95555 0
M  V30 2590 C 253.884 -3.4235 -1.02623 0
M  V30 2591 C 253.55 -4.50899 0.00794526 0
M  V30 2592 C 252.212 -4.80312 0.292207 0
M  V30 2593 C 254.564 -5.16333 0.710584 0
M  V30 2594 C 251.892 -5.72461 1.28472 0
M  V30 2595 C 254.244 -6.09553 1.69199 0
M  V30 2596 C 252.908 -6.37339 1.98383 0
M  V30 2597 H 252.178 -0.719009 -0.179186 0
M  V30 2598 H 254.825 -1.8989 0.247798 0
M  V30 2599 H 253.13 -3.45838 -1.84128 0
M  V30 2600 H 254.827 -3.70393 -1.53656 0
M  V30 2601 H 251.417 -4.28015 -0.22379 0
M  V30 2602 H 255.601 -4.93732 0.504174 0
M  V30 2603 H 250.857 -5.92278 1.51714 0
M  V30 2604 H 255.031 -6.59327 2.24189 0
M  V30 2605 H 252.658 -7.08546 2.7544 0
M  V30 2606 N 254.233 0.115231 -1.57178 0
M  V30 2607 C 255.163 1.1423 -2.03651 0
M  V30 2608 C 256.144 1.42967 -0.921655 0
M  V30 2609 O 257.329 1.53343 -1.19162 0
M  V30 2610 C 254.459 2.4675 -2.44401 0
M  V30 2611 C 253.413 2.32467 -3.59365 0
M  V30 2612 C 252.739 3.69984 -3.86026 0
M  V30 2613 C 254.039 1.78203 -4.90959 0
M  V30 2614 H 255.733 0.755749 -2.89705 0
M  V30 2615 H 253.279 0.362093 -1.39373 0
M  V30 2616 H 255.232 3.18854 -2.75517 0
M  V30 2617 H 253.956 2.87302 -1.55322 0
M  V30 2618 H 252.615 1.62811 -3.28463 0
M  V30 2619 H 252.263 4.08028 -2.94147 0
M  V30 2620 H 251.963 3.61279 -4.63412 0
M  V30 2621 H 253.487 4.43587 -4.19599 0
M  V30 2622 H 254.901 2.40128 -5.20587 0
M  V30 2623 H 253.298 1.8031 -5.72371 0
M  V30 2624 H 254.368 0.739876 -4.79222 0
M  V30 2625 N 255.711 1.52812 0.385517 0
M  V30 2626 C 256.957 1.68275 1.13188 0
M  V30 2627 C 257.29 0.423179 1.89533 0
M  V30 2628 O 256.565 -0.579113 1.85679 0
M  V30 2629 C 256.848 2.92001 2.1073 0
M  V30 2630 C 256.701 4.28067 1.38125 0
M  V30 2631 C 258.02 3.11283 3.11113 0
M  V30 2632 H 255.139 0.612352 0.410115 0
M  V30 2633 H 257.781 1.85415 0.414869 0
M  V30 2634 H 255.931 2.77519 2.71874 0
M  V30 2635 H 257.603 4.54324 0.799187 0
M  V30 2636 H 255.846 4.28388 0.683092 0
M  V30 2637 H 256.517 5.10733 2.09417 0
M  V30 2638 H 258.993 3.2482 2.6006 0
M  V30 2639 H 257.869 3.99325 3.76605 0
M  V30 2640 H 258.13 2.25656 3.80173 0
M  V30 2641 N 257.189 -0.644168 1.43834 0
M  V30 2642 C 258.605 -0.960875 1.27434 0
M  V30 2643 C 258.805 -2.00499 0.200618 0
M  V30 2644 O 257.861 -2.49018 -0.417906 0
M  V30 2645 C 259.174 -1.43653 2.64167 0
M  V30 2646 C 260.722 -1.55271 2.71772 0
M  V30 2647 C 261.197 -2.06224 4.08944 0
M  V30 2648 N 262.688 -2.13513 4.11055 0
M  V30 2649 C 263.423 -2.54081 5.14033 0
M  V30 2650 N 262.919 -2.9388 6.27381 0
M  V30 2651 N 264.712 -2.54101 5.01387 0
M  V30 2652 H 256.863 0.0465779 2.12349 0
M  V30 2653 H 259.126 -0.0417638 0.94708 0
M  V30 2654 H 258.832 -0.743706 3.43747 0
M  V30 2655 H 258.706 -2.40993 2.90176 0
M  V30 2656 H 261.093 -2.23653 1.92519 0
M  V30 2657 H 261.174 -0.563395 2.49519 0
M  V30 2658 H 260.818 -1.38441 4.88668 0
M  V30 2659 H 260.748 -3.06003 4.28567 0
M  V30 2660 H 263.239 -1.85493 3.29242 0
M  V30 2661 H 263.552 -3.2361 7.01781 0
M  V30 2662 H 261.897 -2.91663 6.30839 0
M  V30 2663 H 265.088 -2.22391 4.11898 0
M  V30 2664 H 265.261 -2.85394 5.81768 0
M  V30 2665 N 258.668 -1.30515 -0.883378 0
M  V30 2666 C 259.578 -1.18959 -2.02203 0
M  V30 2667 C 260.594 -0.109172 -1.73657 0
M  V30 2668 O 261.77 -0.324413 -1.9877 0
M  V30 2669 C 258.835 -0.883871 -3.35244 0
M  V30 2670 C 257.896 -2.04982 -3.77201 0
M  V30 2671 C 257.129 -1.75859 -5.03894 0
M  V30 2672 O 257.352 -0.687276 -5.66244 0
M  V30 2673 O 256.286 -2.61146 -5.42297 0
M  V30 2674 H 260.112 -2.14616 -2.1488 0
M  V30 2675 H 257.697 -1.10124 -1.0096 0
M  V30 2676 H 259.579 -0.728644 -4.15053 0
M  V30 2677 H 258.254 0.0427798 -3.23672 0
M  V30 2678 H 257.161 -2.26038 -2.9809 0
M  V30 2679 H 258.494 -2.95825 -3.93381 0
M  V30 2680 N 260.146 1.09593 -1.13257 0
M  V30 2681 C 261.371 1.8604 -0.916732 0
M  V30 2682 C 261.796 1.80504 0.529146 0
M  V30 2683 O 261.154 1.18127 1.37534 0
M  V30 2684 C 261.202 3.32017 -1.40703 0
M  V30 2685 O 260.306 4.08141 -0.591153 0
M  V30 2686 H 259.647 0.576943 -0.328683 0
M  V30 2687 H 262.177 1.38405 -1.50682 0
M  V30 2688 H 262.187 3.82865 -1.4099 0
M  V30 2689 H 260.862 3.35361 -2.45979 0
M  V30 2690 H 259.439 3.67084 -0.656005 0
M  V30 2691 N 261.624 0.925811 1.2754 0
M  V30 2692 C 262.534 0.428993 2.30644 0
M  V30 2693 C 263.55 -0.489387 1.66976 0
M  V30 2694 O 264.726 -0.372653 1.97922 0
M  V30 2695 C 261.791 -0.311967 3.45294 0
M  V30 2696 C 260.852 0.641098 4.24486 0
M  V30 2697 C 260.085 -0.0645955 5.33661 0
M  V30 2698 O 260.308 -1.28429 5.55754 0
M  V30 2699 O 259.242 0.606265 5.98839 0
M  V30 2700 H 263.068 1.28504 2.75173 0
M  V30 2701 H 260.653 0.691086 1.32455 0
M  V30 2702 H 262.535 -0.729972 4.15029 0
M  V30 2703 H 261.21 -1.14365 3.02824 0
M  V30 2704 H 260.117 1.10874 3.57292 0
M  V30 2705 H 261.45 1.43995 4.70666 0
M  V30 2706 N 263.102 -1.41638 0.69111 0
M  V30 2707 C 264.33 -2.05628 0.22909 0
M  V30 2708 C 264.745 -1.51992 -1.11999 0
M  V30 2709 O 264.102 -0.666322 -1.69901 0
M  V30 2710 C 264.153 -3.61084 0.173283 0
M  V30 2711 O 263.874 -4.12735 1.46907 0
M  V30 2712 C 265.375 -4.42213 -0.310266 0
M  V30 2713 H 262.595 -0.662327 0.107534 0
M  V30 2714 H 265.139 -1.81489 0.942438 0
M  V30 2715 H 263.294 -3.84278 -0.490858 0
M  V30 2716 H 263.708 -5.06743 1.35322 0
M  V30 2717 H 265.182 -5.51194 -0.298196 0
M  V30 2718 H 265.659 -4.1799 -1.34838 0
M  V30 2719 H 266.265 -4.24074 0.322716 0
M  V30 2720 N 264.58 -0.43555 -1.51462 0
M  V30 2721 C 265.808 0.130242 -2.0649 0
M  V30 2722 C 266.223 1.36614 -1.30315 0
M  V30 2723 O 265.58 1.78869 -0.362223 0
M  V30 2724 C 265.631 0.454253 -3.58635 0
M  V30 2725 O 265.352 -0.73259 -4.31931 0
M  V30 2726 C 266.853 1.07091 -4.3017 0
M  V30 2727 H 264.073 0.00871669 -0.670943 0
M  V30 2728 H 266.617 -0.614117 -1.95061 0
M  V30 2729 H 264.772 1.14851 -3.69984 0
M  V30 2730 H 265.186 -0.455787 -5.22516 0
M  V30 2731 H 266.66 1.24764 -5.37716 0
M  V30 2732 H 267.137 2.05144 -3.88346 0
M  V30 2733 H 267.743 0.416089 -4.2326 0
M  V30 2734 N 266.058 1.56714 -0.166846 0
M  V30 2735 C 267.005 2.17746 0.765193 0
M  V30 2736 C 267.975 1.11614 1.23011 0
M  V30 2737 O 269.16 1.39745 1.29908 0
M  V30 2738 C 266.3 2.81882 1.9909 0
M  V30 2739 C 265.413 4.02462 1.56997 0
M  V30 2740 C 264.548 4.54537 2.749 0
M  V30 2741 C 263.587 5.67538 2.29275 0
M  V30 2742 N 262.724 6.14142 3.40255 0
M  V30 2743 H 267.564 2.97048 0.237952 0
M  V30 2744 H 265.101 1.4672 0.105725 0
M  V30 2745 H 267.059 3.17221 2.70974 0
M  V30 2746 H 265.689 2.05191 2.49192 0
M  V30 2747 H 264.741 3.72973 0.748037 0
M  V30 2748 H 266.053 4.84273 1.19503 0
M  V30 2749 H 265.207 4.92035 3.54946 0
M  V30 2750 H 263.946 3.71774 3.1565 0
M  V30 2751 H 262.951 5.29597 1.47674 0
M  V30 2752 H 264.176 6.52099 1.89588 0
M  V30 2753 H 262.122 5.3431 3.8059 0
M  V30 2754 H 262.039 6.9093 3.06841 0
M  V30 2755 H 263.307 6.56289 4.206 0
M  V30 2756 N 267.536 -0.106894 1.57237 0
M  V30 2757 C 268.784 -0.810921 1.85117 0
M  V30 2758 C 269.105 -1.7984 0.753827 0
M  V30 2759 O 268.375 -1.94649 -0.221056 0
M  V30 2760 H 266.955 -0.302466 0.683025 0
M  V30 2761 H 269.617 -0.0913324 1.94686 0
M  V30 2762 H 268.713 -1.34875 2.81452 0
M  V30 2763 N 269.014 -1.53014 -0.377408 0
M  V30 2764 C 269.977 -1.77957 -1.44444 0
M  V30 2765 C 270.977 -0.649763 -1.47087 0
M  V30 2766 O 272.167 -0.917897 -1.48055 0
M  V30 2767 C 269.299 -1.89089 -2.83651 0
M  V30 2768 H 270.492 -2.73243 -1.23606 0
M  V30 2769 H 268.045 -1.43912 -0.609844 0
M  V30 2770 H 268.78 -0.958293 -3.09818 0
M  V30 2771 H 268.565 -2.71254 -2.83132 0
M  V30 2772 H 270.055 -2.1002 -3.60945 0
M  V30 2773 N 270.492 0.636531 -1.44174 0
M  V30 2774 C 271.722 1.42146 -1.49927 0
M  V30 2775 C 272.13 1.88812 -0.121063 0
M  V30 2776 O 271.473 1.61126 0.882267 0
M  V30 2777 C 271.535 2.67883 -2.39748 0
M  V30 2778 C 271.199 2.43048 -3.8701 0
M  V30 2779 C 272.196 2.05216 -4.77684 0
M  V30 2780 C 269.881 2.56856 -4.3166 0
M  V30 2781 C 271.875 1.81512 -6.11009 0
M  V30 2782 C 269.562 2.32766 -5.65034 0
M  V30 2783 C 270.56 1.95152 -6.54526 0
M  V30 2784 O 270.248 1.71326 -7.85431 0
M  V30 2785 H 269.98 0.442567 -0.51099 0
M  V30 2786 H 272.534 0.786158 -1.8976 0
M  V30 2787 H 270.764 3.34032 -1.94832 0
M  V30 2788 H 272.453 3.29874 -2.36513 0
M  V30 2789 H 273.219 1.94111 -4.44462 0
M  V30 2790 H 269.098 2.85104 -3.62266 0
M  V30 2791 H 272.642 1.52077 -6.80822 0
M  V30 2792 H 268.539 2.43479 -5.97819 0
M  V30 2793 H 269.307 1.85616 -7.97176 0
M  V30 2794 N 271.97 1.30982 0.876444 0
M  V30 2795 C 273.21 1.21589 1.64303 0
M  V30 2796 C 273.574 -0.223962 1.90689 0
M  V30 2797 O 274.775 -0.44128 2.65153 0
M  V30 2798 C 273.046 2.03007 2.94148 0
M  V30 2799 S 274.605 2.10405 3.85065 0
M  V30 2800 H 271.423 0.433161 0.563819 0
M  V30 2801 H 274.025 1.65565 1.03964 0
M  V30 2802 H 272.729 3.06719 2.72675 0
M  V30 2803 H 272.26 1.59725 3.59515 0
M  V30 2804 H 274.275 1.23765 4.80517 0
M  V30 2805 N 273.449 -1.08991 1.13837 0
M  V30 2806 C 274.379 -2.17771 0.842507 0
M  V30 2807 C 275.36 -1.6892 -0.20001 0
M  V30 2808 O 276.545 -1.94113 -0.0579731 0
M  V30 2809 C 273.675 -3.4589 0.312644 0
M  V30 2810 C 272.629 -4.08099 1.28992 0
M  V30 2811 C 271.955 -5.31098 0.619623 0
M  V30 2812 C 273.255 -4.50077 2.65005 0
M  V30 2813 H 274.949 -2.42777 1.75213 0
M  V30 2814 H 272.495 -1.16682 0.843875 0
M  V30 2815 H 274.448 -4.21297 0.0933043 0
M  V30 2816 H 273.172 -3.20419 -0.632382 0
M  V30 2817 H 271.831 -3.34717 1.49533 0
M  V30 2818 H 271.479 -5.0191 -0.33102 0
M  V30 2819 H 271.179 -5.73674 1.27167 0
M  V30 2820 H 272.703 -6.09224 0.409669 0
M  V30 2821 H 274.117 -5.16688 2.48407 0
M  V30 2822 H 272.514 -5.03553 3.26427 0
M  V30 2823 H 273.584 -3.62257 3.22332 0
M  V30 2824 N 274.927 -0.932562 -1.27047 0
M  V30 2825 C 276.152 -0.591474 -1.98787 0
M  V30 2826 C 276.577 0.824601 -1.69062 0
M  V30 2827 O 275.935 1.5541 -0.933677 0
M  V30 2828 C 275.983 -0.829808 -3.50922 0
M  V30 2829 O 275.087 0.102266 -4.12273 0
M  V30 2830 H 274.428 -0.227185 -0.623926 0
M  V30 2831 H 276.958 -1.25314 -1.61733 0
M  V30 2832 H 276.968 -0.747292 -4.01098 0
M  V30 2833 H 275.643 -1.86201 -3.7189 0
M  V30 2834 H 274.22 -0.0305761 -3.72887 0
M  V30 2835 N 276.405 1.4127 -0.698611 0
M  V30 2836 C 277.651 2.01478 -0.231207 0
M  V30 2837 C 277.984 1.55215 1.16713 0
M  V30 2838 O 277.259 0.764672 1.78838 0
M  V30 2839 C 277.542 3.58912 -0.292281 0
M  V30 2840 C 277.395 4.15293 -1.72778 0
M  V30 2841 C 278.714 4.38736 0.346194 0
M  V30 2842 H 275.833 0.732025 -0.0854878 0
M  V30 2843 H 278.475 1.67977 -0.887906 0
M  V30 2844 H 276.625 3.87582 0.26686 0
M  V30 2845 H 278.297 3.97486 -2.341 0
M  V30 2846 H 276.54 3.7022 -2.26096 0
M  V30 2847 H 277.211 5.24452 -1.72202 0
M  V30 2848 H 279.687 4.15897 -0.130035 0
M  V30 2849 H 278.563 5.48221 0.272932 0
M  V30 2850 H 278.824 4.18425 1.42734 0
M  V30 2851 N 277.883 0.443576 1.51229 0
M  V30 2852 C 279.108 -0.121648 2.07043 0
M  V30 2853 C 279.533 -1.35156 1.30823 0
M  V30 2854 O 278.891 -1.7793 0.347934 0
M  V30 2855 C 278.939 -0.41624 3.5819 0
M  V30 2856 O 278.043 -1.50163 3.8409 0
M  V30 2857 H 277.384 0.000871367 0.663999 0
M  V30 2858 H 279.914 0.626706 1.94765 0
M  V30 2859 H 279.924 -0.664867 4.02546 0
M  V30 2860 H 278.599 0.482653 4.1309 0
M  V30 2861 H 277.176 -1.24248 3.51592 0
M  V30 2862 N 279.361 -1.56624 0.175154 0
M  V30 2863 C 280.638 -1.88688 -0.515373 0
M  V30 2864 C 281.018 -1.08564 -1.81044 0
M  V30 2865 O 280.366 -0.180703 -2.27784 0
M  V30 2866 C 280.576 -3.40768 -0.753552 0
M  V30 2867 C 281.924 -4.10587 -1.08184 0
M  V30 2868 O 282.948 -3.46106 -0.841961 0
M  V30 2869 O 281.807 -5.24512 -1.53459 0
M  V30 2870 H 278.901 -0.78301 -0.26613 0
M  V30 2871 H 281.447 -1.68347 0.213877 0
M  V30 2872 H 280.219 -3.90965 0.161829 0
M  V30 2873 H 279.842 -3.66733 -1.53598 0
M  V30 2874 N 280.839 0.0985539 -1.57292 0
M  V30 2875 C 282.086 0.802678 -1.85912 0
M  V30 2876 C 282.414 1.78901 -0.763186 0
M  V30 2877 O 281.669 1.94178 0.243559 0
M  V30 2878 C 281.968 1.56927 -3.21105 0
M  V30 2879 C 281.634 0.725376 -4.45027 0
M  V30 2880 C 280.296 0.492726 -4.78671 0
M  V30 2881 C 282.648 0.138493 -5.21016 0
M  V30 2882 C 279.976 -0.336727 -5.85733 0
M  V30 2883 C 282.328 -0.678264 -6.28953 0
M  V30 2884 C 280.992 -0.921039 -6.61115 0
M  V30 2885 H 280.262 0.293721 -0.680301 0
M  V30 2886 H 282.909 0.0642841 -1.91392 0
M  V30 2887 H 281.214 2.37914 -3.11294 0
M  V30 2888 H 282.911 2.11841 -3.40477 0
M  V30 2889 H 279.501 0.916815 -4.18679 0
M  V30 2890 H 283.685 0.305404 -4.95359 0
M  V30 2891 H 278.941 -0.533836 -6.09065 0
M  V30 2892 H 283.115 -1.1399 -6.87007 0
M  V30 2893 H 280.742 -1.56556 -7.43905 0
M  V30 2894 N 282.317 1.53212 0.369288 0
M  V30 2895 C 283.594 1.59815 1.12776 0
M  V30 2896 C 283.974 0.403402 2.0721 0
M  V30 2897 O 283.322 -0.606667 2.20299 0
M  V30 2898 C 283.532 2.94664 1.87013 0
M  V30 2899 C 284.88 3.49109 2.41677 0
M  V30 2900 O 285.904 2.96669 1.97144 0
M  V30 2901 O 284.763 4.40775 3.23079 0
M  V30 2902 H 281.857 0.645376 0.517125 0
M  V30 2903 H 284.403 1.65553 0.37285 0
M  V30 2904 H 283.175 3.73061 1.18071 0
M  V30 2905 H 282.798 2.92401 2.69421 0
M  V30 2906 N 283.795 -0.628877 1.44509 0
M  V30 2907 C 284.743 -1.76193 1.51852 0
M  V30 2908 C 285.737 -1.64849 0.390042 0
M  V30 2909 O 286.943 -1.709 0.565082 0
M  V30 2910 H 283.318 -0.581728 0.476547 0
M  V30 2911 H 285.289 -1.67123 2.47209 0
M  V30 2912 C 284.038 -3.14533 1.48204 0
M  V30 2913 H 283.361 -3.23911 2.34354 0
M  V30 2914 H 284.801 -3.93701 1.57402 0
M  V30 2915 C 283.26 -3.36287 0.203142 0
M  V30 2916 O 283.79 -3.9509 -0.725745 0
M  V30 2917 N 281.996 -2.90408 0.105563 0
M  V30 2918 H 281.543 -2.42739 0.862301 0
M  V30 2919 H 281.501 -3.05339 -0.749371 0
M  V30 2920 N 285.273 -1.31445 -0.869486 0
M  V30 2921 C 286.236 -1.19094 -1.9583 0
M  V30 2922 C 287.236 -0.117906 -1.60367 0
M  V30 2923 O 288.426 -0.367208 -1.70286 0
M  V30 2924 C 285.558 -0.828165 -3.30688 0
M  V30 2925 H 286.751 -2.15842 -2.08212 0
M  V30 2926 H 284.304 -1.15063 -1.05784 0
M  V30 2927 H 285.039 0.138142 -3.24006 0
M  V30 2928 H 284.824 -1.6038 -3.578 0
M  V30 2929 H 286.314 -0.765658 -4.10521 0
M  V30 2930 N 286.751 1.08385 -1.14413 0
M  V30 2931 C 287.698 2.15311 -0.831265 0
M  V30 2932 C 288.668 1.64751 0.211292 0
M  V30 2933 O 289.853 1.90627 0.0811674 0
M  V30 2934 C 286.993 3.43658 -0.315143 0
M  V30 2935 C 286.106 4.08064 -1.41802 0
M  V30 2936 C 285.241 5.24207 -0.859126 0
M  V30 2937 C 284.28 5.80554 -1.93967 0
M  V30 2938 N 283.417 6.88042 -1.39793 0
M  V30 2939 H 288.257 2.41415 -1.74708 0
M  V30 2940 H 285.794 1.18474 -0.871909 0
M  V30 2941 H 287.752 4.172 0.00230884 0
M  V30 2942 H 286.382 3.17839 0.56378 0
M  V30 2943 H 285.434 3.3228 -1.85187 0
M  V30 2944 H 286.746 4.45962 -2.23427 0
M  V30 2945 H 285.9 6.04689 -0.49359 0
M  V30 2946 H 284.639 4.87699 -0.011932 0
M  V30 2947 H 283.644 4.98725 -2.31415 0
M  V30 2948 H 284.869 6.19121 -2.79046 0
M  V30 2949 H 282.815 6.53493 -0.572919 0
M  V30 2950 H 282.732 7.24767 -2.15054 0
M  V30 2951 H 284 7.72255 -1.0603 0
M  V30 2952 N 288.23 0.939286 1.26551 0
M  V30 2953 C 289.478 0.58469 1.93457 0
M  V30 2954 C 289.799 -0.878774 1.74076 0
M  V30 2955 O 289.069 -1.62421 1.09528 0
M  V30 2956 H 287.649 0.21325 0.715914 0
M  V30 2957 H 290.311 1.1942 1.54029 0
M  V30 2958 H 289.407 0.800849 3.0165 0
M  V30 2959 N 289.708 -1.40897 0.706093 0
M  V30 2960 C 290.638 -2.33418 0.0620085 0
M  V30 2961 C 291.619 -1.52385 -0.755827 0
M  V30 2962 O 292.804 -1.80886 -0.706674 0
M  V30 2963 C 289.934 -3.36293 -0.867445 0
M  V30 2964 C 288.888 -4.27716 -0.155932 0
M  V30 2965 C 288.214 -5.2105 -1.20046 0
M  V30 2966 C 289.514 -5.12944 0.984149 0
M  V30 2967 H 291.208 -2.87527 0.83477 0
M  V30 2968 H 288.754 -1.38249 0.402875 0
M  V30 2969 H 290.707 -3.99949 -1.32735 0
M  V30 2970 H 289.431 -2.80556 -1.67199 0
M  V30 2971 H 288.09 -3.65498 0.284047 0
M  V30 2972 H 287.738 -4.61624 -1.99781 0
M  V30 2973 H 287.438 -5.83056 -0.729328 0
M  V30 2974 H 288.962 -5.87584 -1.66066 0
M  V30 2975 H 290.376 -5.70109 0.604048 0
M  V30 2976 H 288.773 -5.83945 1.38304 0
M  V30 2977 H 289.843 -4.49485 1.81911 0
M  V30 2978 N 291.186 -0.45159 -1.50991 0
M  V30 2979 C 292.134 0.366864 -2.29689 0
M  V30 2980 C 293.128 1.00809 -1.36139 0
M  V30 2981 O 294.334 0.941427 -1.53418 0
M  V30 2982 H 290.709 0.137133 -0.739391 0
M  V30 2983 H 292.68 -0.317538 -2.96706 0
M  V30 2984 C 291.429 1.44751 -3.16137 0
M  V30 2985 H 290.752 0.963473 -3.88017 0
M  V30 2986 H 292.192 1.99315 -3.74232 0
M  V30 2987 C 290.651 2.43869 -2.32442 0
M  V30 2988 O 291.181 3.4872 -1.99392 0
M  V30 2989 N 289.387 2.15105 -1.95392 0
M  V30 2990 H 288.934 1.29866 -2.22469 0
M  V30 2991 H 288.892 2.81661 -1.39693 0
M  V30 2992 N 292.664 1.56529 -0.183458 0
M  V30 2993 C 293.91 1.97537 0.459036 0
M  V30 2994 C 294.243 1.06989 1.62071 0
M  V30 2995 O 293.518 0.11948 1.94133 0
M  V30 2996 C 293.801 3.47874 0.930368 0
M  V30 2997 C 293.654 4.492 -0.232317 0
M  V30 2998 C 294.973 4.01612 1.79989 0
M  V30 2999 H 292.092 0.718204 0.165383 0
M  V30 3000 H 294.734 1.88042 -0.272038 0
M  V30 3001 H 292.884 3.56095 1.55333 0
M  V30 3002 H 294.556 4.53027 -0.86972 0
M  V30 3003 H 292.799 4.24657 -0.885928 0
M  V30 3004 H 293.47 5.51823 0.139796 0
M  V30 3005 H 295.946 3.96097 1.27461 0
M  V30 3006 H 294.822 5.07195 2.09867 0
M  V30 3007 H 295.083 3.46163 2.74998 0
M  V30 3008 N 294.142 -0.090211 1.57342 0
M  V30 3009 C 295.089 -1.10909 2.02405 0
M  V30 3010 C 296.059 -1.39523 0.901252 0
M  V30 3011 O 297.244 -1.50903 1.1676 0
M  V30 3012 C 294.384 -2.42277 2.45755 0
M  V30 3013 C 293.497 -2.20352 3.71576 0
M  V30 3014 C 292.632 -3.45154 4.03785 0
M  V30 3015 C 291.671 -3.18512 5.22701 0
M  V30 3016 N 290.808 -4.35593 5.50639 0
M  V30 3017 H 295.648 -0.71782 2.89225 0
M  V30 3018 H 293.185 -0.342901 1.43048 0
M  V30 3019 H 295.143 -3.18951 2.68935 0
M  V30 3020 H 293.773 -2.79242 1.61938 0
M  V30 3021 H 292.825 -1.34458 3.55844 0
M  V30 3022 H 294.137 -1.96661 4.58395 0
M  V30 3023 H 293.291 -4.30233 4.27767 0
M  V30 3024 H 292.03 -3.71904 3.15498 0
M  V30 3025 H 291.035 -2.31827 4.98534 0
M  V30 3026 H 292.26 -2.93103 6.12591 0
M  V30 3027 H 290.206 -4.6241 4.6531 0
M  V30 3028 H 290.123 -4.1511 6.31838 0
M  V30 3029 H 291.391 -5.21723 5.7916 0
M  V30 3030 N 295.62 -1.53406 -0.361157 0
M  V30 3031 C 296.57 -1.76536 -1.44287 0
M  V30 3032 C 297.554 -0.620019 -1.48474 0
M  V30 3033 O 298.746 -0.878834 -1.53641 0
M  V30 3034 C 295.875 -1.96266 -2.81664 0
M  V30 3035 C 294.961 -3.16815 -2.81938 0
M  V30 3036 N 295.352 -4.38637 -2.51855 0
M  V30 3037 C 293.65 -3.17627 -3.13096 0
M  V30 3038 C 294.351 -5.20401 -2.59919 0
M  V30 3039 N 293.327 -4.56712 -2.94814 0
M  V30 3040 H 297.129 -2.68331 -1.19899 0
M  V30 3041 H 294.643 -1.52091 -0.56938 0
M  V30 3042 H 296.64 -2.10966 -3.59582 0
M  V30 3043 H 295.3 -1.05702 -3.07013 0
M  V30 3044 H 296.311 -4.66293 -2.25369 0
M  V30 3045 H 292.988 -2.36971 -3.43731 0
M  V30 3046 H 294.378 -6.27586 -2.39969 0
M  V30 3047 N 297.098 0.621204 -1.44841 0
M  V30 3048 C 298.328 1.40548 -1.51426 0
M  V30 3049 C 298.736 1.88673 -0.141083 0
M  V30 3050 O 298.079 1.62053 0.865128 0
M  V30 3051 C 298.141 2.65325 -2.42576 0
M  V30 3052 C 297.805 2.3893 -3.89566 0
M  V30 3053 C 298.802 2.00138 -4.79834 0
M  V30 3054 C 296.487 2.52263 -4.3436 0
M  V30 3055 C 298.481 1.75021 -6.129 0
M  V30 3056 C 296.168 2.2676 -5.67471 0
M  V30 3057 C 297.166 1.88199 -6.56559 0
M  V30 3058 O 296.854 1.62986 -7.87204 0
M  V30 3059 H 296.586 0.437122 -0.515655 0
M  V30 3060 H 299.14 0.765987 -1.90583 0
M  V30 3061 H 297.37 3.31947 -1.98364 0
M  V30 3062 H 299.059 3.27347 -2.39998 0
M  V30 3063 H 299.825 1.89386 -4.46495 0
M  V30 3064 H 295.704 2.81246 -3.65269 0
M  V30 3065 H 299.248 1.44848 -6.82396 0
M  V30 3066 H 295.145 2.37125 -6.00368 0
M  V30 3067 H 295.913 1.7715 -7.991 0
M  V30 3068 N 298.576 1.31904 0.862503 0
M  V30 3069 C 299.523 1.20182 1.9704 0
M  V30 3070 C 300.493 0.0858247 1.65878 0
M  V30 3071 O 301.678 0.26 1.8902 0
M  V30 3072 C 298.818 0.922797 3.32533 0
M  V30 3073 C 297.931 2.12284 3.76244 0
M  V30 3074 C 297.066 1.77996 5.00491 0
M  V30 3075 C 296.105 2.94366 5.36671 0
M  V30 3076 N 295.242 2.60223 6.52095 0
M  V30 3077 H 300.082 2.14951 2.06398 0
M  V30 3078 H 297.619 1.06917 1.01031 0
M  V30 3079 H 299.577 0.741548 4.10557 0
M  V30 3080 H 298.207 0.0119227 3.22798 0
M  V30 3081 H 297.259 2.41461 2.9394 0
M  V30 3082 H 298.571 2.99357 3.98982 0
M  V30 3083 H 297.725 1.56377 5.862 0
M  V30 3084 H 296.464 0.881252 4.79672 0
M  V30 3085 H 295.469 3.16625 4.49476 0
M  V30 3086 H 296.694 3.84957 5.59451 0
M  V30 3087 H 294.64 1.72884 6.32809 0
M  V30 3088 H 294.557 3.40827 6.74814 0
M  V30 3089 H 295.825 2.42016 7.40978 0
M  V30 3090 N 300.054 -1.07777 1.14986 0
M  V30 3091 C 301.303 -1.79669 0.916617 0
M  V30 3092 C 301.616 -1.87474 -0.557917 0
M  V30 3093 O 302.822 -2.55845 -0.908617 0
M  V30 3094 C 301.278 -3.22848 1.59051 0
M  V30 3095 C 300.886 -3.23257 3.10176 0
M  V30 3096 C 302.63 -3.99379 1.43864 0
M  V30 3097 C 300.537 -4.61063 3.70372 0
M  V30 3098 H 299.467 -0.673349 0.33929 0
M  V30 3099 H 302.118 -1.21003 1.37951 0
M  V30 3100 H 300.5 -3.8168 1.0553 0
M  V30 3101 H 301.674 -2.74095 3.70417 0
M  V30 3102 H 299.989 -2.60222 3.25074 0
M  V30 3103 H 302.586 -5.0122 1.86232 0
M  V30 3104 H 302.929 -4.14511 0.385564 0
M  V30 3105 H 303.462 -3.47032 1.94457 0
M  V30 3106 H 300.201 -4.51135 4.7556 0
M  V30 3107 H 299.721 -5.1048 3.14913 0
M  V30 3108 H 301.4 -5.30034 3.71043 0
M  V30 3109 N 301.532 -0.945985 -1.26051 0
M  V30 3110 C 302.948 -0.649045 -1.45807 0
M  V30 3111 C 303.148 0.796158 -1.85104 0
M  V30 3112 O 302.204 1.57233 -1.97571 0
M  V30 3113 C 303.517 -1.61458 -2.53677 0
M  V30 3114 C 305.065 -1.62481 -2.67524 0
M  V30 3115 C 305.54 -2.57776 -3.7857 0
M  V30 3116 N 307.031 -2.5609 -3.85969 0
M  V30 3117 C 307.766 -3.26508 -4.7136 0
M  V30 3118 N 307.262 -4.0637 -5.61102 0
M  V30 3119 N 309.055 -3.15437 -4.65248 0
M  V30 3120 H 301.206 -1.88005 -0.988328 0
M  V30 3121 H 303.469 -0.808198 -0.4955 0
M  V30 3122 H 303.175 -2.64644 -2.31638 0
M  V30 3123 H 303.049 -1.37036 -3.51427 0
M  V30 3124 H 305.436 -0.600167 -2.88933 0
M  V30 3125 H 305.517 -1.90958 -1.70202 0
M  V30 3126 H 305.161 -3.60361 -3.57913 0
M  V30 3127 H 305.091 -2.26587 -4.75359 0
M  V30 3128 H 307.582 -1.98105 -3.21812 0
M  V30 3129 H 307.895 -4.57042 -6.23164 0
M  V30 3130 H 306.24 -4.10469 -5.60839 0
M  V30 3131 H 309.431 -2.52525 -3.94143 0
M  V30 3132 H 309.604 -3.70584 -5.31575 0
M  V30 3133 N 303.011 1.40521 -0.713556 0
M  V30 3134 C 303.958 2.30723 -0.059684 0
M  V30 3135 C 304.928 1.48079 0.752448 0
M  V30 3136 O 306.113 1.76823 0.71681 0
M  V30 3137 C 303.253 3.34274 0.857594 0
M  V30 3138 C 302.366 4.31986 0.0351536 0
M  V30 3139 C 301.501 5.22605 0.951724 0
M  V30 3140 C 300.54 6.11976 0.123253 0
M  V30 3141 N 299.677 6.9502 0.99459 0
M  V30 3142 H 304.517 2.86074 -0.834596 0
M  V30 3143 H 302.054 1.40879 -0.42326 0
M  V30 3144 H 304.012 3.92879 1.40364 0
M  V30 3145 H 302.642 2.8043 1.59871 0
M  V30 3146 H 301.694 3.7518 -0.628052 0
M  V30 3147 H 303.006 4.95101 -0.606347 0
M  V30 3148 H 302.16 5.86131 1.56638 0
M  V30 3149 H 300.899 4.59759 1.62705 0
M  V30 3150 H 299.904 5.47482 -0.50435 0
M  V30 3151 H 301.129 6.76881 -0.548539 0
M  V30 3152 H 299.075 6.34764 1.6556 0
M  V30 3153 H 298.992 7.54892 0.40908 0
M  V30 3154 H 300.26 7.62997 1.59549 0
M  V30 3155 N 304.489 0.459591 1.5075 0
M  V30 3156 C 305.419 -0.330644 2.31147 0
M  V30 3157 C 306.4 -1.00087 1.37538 0
M  V30 3158 O 307.585 -1.00025 1.66459 0
M  V30 3159 C 304.715 -1.41958 3.16962 0
M  V30 3160 C 303.669 -0.871608 4.19031 0
M  V30 3161 C 302.995 -2.05797 4.9351 0
M  V30 3162 C 304.295 0.109251 5.22186 0
M  V30 3163 H 305.989 0.340336 2.97459 0
M  V30 3164 H 303.535 0.165119 1.4305 0
M  V30 3165 H 305.488 -1.9798 3.71997 0
M  V30 3166 H 304.212 -2.11917 2.48513 0
M  V30 3167 H 302.871 -0.333442 3.6508 0
M  V30 3168 H 302.519 -2.74427 4.21544 0
M  V30 3169 H 302.219 -1.6976 5.62544 0
M  V30 3170 H 303.743 -2.62331 5.51375 0
M  V30 3171 H 305.157 -0.361405 5.7216 0
M  V30 3172 H 303.554 0.383316 5.98875 0
M  V30 3173 H 304.624 1.03887 4.73641 0
M  V30 3174 N 305.967 -1.56429 0.191757 0
M  V30 3175 C 307.244 -1.89224 -0.495332 0
M  V30 3176 C 307.624 -1.10478 -1.79883 0
M  V30 3177 O 306.972 -0.204852 -2.2758 0
M  V30 3178 C 307.182 -3.41548 -0.717367 0
M  V30 3179 C 308.53 -4.11711 -1.03823 0
M  V30 3180 O 309.554 -3.4698 -0.805204 0
M  V30 3181 O 308.413 -5.2611 -1.47887 0
M  V30 3182 H 305.507 -0.785788 -0.25781 0
M  V30 3183 H 308.053 -1.68111 0.231721 0
M  V30 3184 H 306.825 -3.90772 0.203287 0
M  V30 3185 H 306.448 -3.68342 -1.497 0
M  V30 3186 N 307.445 0.0818655 -1.57387 0
M  V30 3187 C 308.67 0.799946 -1.91352 0
M  V30 3188 C 309.095 1.70833 -0.787258 0
M  V30 3189 O 308.453 1.79419 0.26048 0
M  V30 3190 C 308.501 1.57812 -3.24234 0
M  V30 3191 O 307.605 2.68806 -3.12757 0
M  V30 3192 H 306.946 0.21891 -0.626877 0
M  V30 3193 H 309.476 0.0531256 -2.04531 0
M  V30 3194 H 309.486 1.95952 -3.57864 0
M  V30 3195 H 308.161 0.911548 -4.05788 0
M  V30 3196 H 306.738 2.33597 -2.90666 0
M  V30 3197 N 308.923 1.53595 0.353017 0
M  V30 3198 C 310.171 1.70049 1.09215 0
M  V30 3199 C 310.492 0.461406 1.89463 0
M  V30 3200 O 309.762 -0.524633 1.88744 0
M  V30 3201 H 308.342 0.626912 0.40619 0
M  V30 3202 H 311.004 1.90822 0.396585 0
M  V30 3203 H 310.1 2.56718 1.77488 0
M  V30 3204 N 310.401 -0.613514 1.45168 0
M  V30 3205 C 311.649 -1.36997 1.48581 0
M  V30 3206 C 311.97 -1.94589 0.126545 0
M  V30 3207 O 311.24 -1.76816 -0.843372 0
M  V30 3208 H 309.82 -0.508558 0.547154 0
M  V30 3209 H 312.482 -0.720853 1.81079 0
M  V30 3210 H 311.578 -2.1924 2.22127 0
M  V30 3211 N 311.879 -1.3236 -0.855495 0
M  V30 3212 C 313.126 -1.22872 -1.60962 0
M  V30 3213 C 313.454 0.209658 -1.93367 0
M  V30 3214 O 312.709 1.16243 -1.57436 0
M  V30 3215 C 313.008 -2.03275 -2.93963 0
M  V30 3216 C 312.674 -3.5264 -2.80991 0
M  V30 3217 C 311.336 -3.93364 -2.7716 0
M  V30 3218 C 313.688 -4.47626 -2.66983 0
M  V30 3219 C 311.016 -5.27319 -2.572 0
M  V30 3220 C 313.368 -5.81723 -2.48558 0
M  V30 3221 C 312.032 -6.2165 -2.4312 0
M  V30 3222 H 311.302 -0.44962 -0.589001 0
M  V30 3223 H 313.949 -1.63777 -0.992442 0
M  V30 3224 H 312.254 -1.55095 -3.59795 0
M  V30 3225 H 313.951 -1.93303 -3.51333 0
M  V30 3226 H 310.541 -3.20295 -2.84797 0
M  V30 3227 H 314.725 -4.17084 -2.68988 0
M  V30 3228 H 309.981 -5.57311 -2.51424 0
M  V30 3229 H 314.155 -6.5494 -2.36699 0
M  V30 3230 H 311.782 -7.25388 -2.27412 0
M  V30 3231 N 313.357 1.07166 -1.15556 0
M  V30 3232 C 314.587 1.83248 -0.954133 0
M  V30 3233 C 314.995 1.82449 0.500911 0
M  V30 3234 O 314.338 1.23575 1.35923 0
M  V30 3235 C 314.4 3.31393 -1.39351 0
M  V30 3236 C 314.064 3.5591 -2.86666 0
M  V30 3237 C 315.061 3.49695 -3.8472 0
M  V30 3238 C 312.746 3.83515 -3.24379 0
M  V30 3239 C 314.74 3.70737 -5.18491 0
M  V30 3240 C 312.427 4.04209 -4.58321 0
M  V30 3241 C 313.425 3.97815 -5.55186 0
M  V30 3242 O 313.113 4.17954 -6.86709 0
M  V30 3243 H 312.845 0.584941 -0.338851 0
M  V30 3244 H 315.399 1.36169 -1.53777 0
M  V30 3245 H 313.629 3.79292 -0.75329 0
M  V30 3246 H 315.318 3.88945 -1.16089 0
M  V30 3247 H 316.084 3.28368 -3.56931 0
M  V30 3248 H 311.963 3.87605 -2.49567 0
M  V30 3249 H 315.507 3.65663 -5.94085 0
M  V30 3250 H 311.404 4.25023 -4.85825 0
M  V30 3251 H 312.172 4.35291 -6.93155 0
M  V30 3252 N 314.835 0.952656 1.25548 0
M  V30 3253 C 316.084 0.602053 1.92505 0
M  V30 3254 C 316.397 -0.864663 1.75451 0
M  V30 3255 O 317.603 -1.32514 2.36965 0
M  V30 3256 C 316.059 1.02607 3.44963 0
M  V30 3257 C 315.667 2.51519 3.70732 0
M  V30 3258 C 317.411 0.747905 4.1786 0
M  V30 3259 C 315.318 2.87732 5.16686 0
M  V30 3260 H 314.248 0.22146 0.720744 0
M  V30 3261 H 316.899 1.15684 1.42441 0
M  V30 3262 H 315.281 0.399712 3.93978 0
M  V30 3263 H 316.455 3.19157 3.32378 0
M  V30 3264 H 314.77 2.76786 3.11092 0
M  V30 3265 H 317.367 0.994647 5.25367 0
M  V30 3266 H 317.71 -0.315629 4.15102 0
M  V30 3267 H 318.243 1.33452 3.74747 0
M  V30 3268 H 314.982 3.93095 5.24554 0
M  V30 3269 H 314.502 2.24765 5.56094 0
M  V30 3270 H 316.181 2.76817 5.84792 0
M  V30 3271 N 316.313 -1.40141 0.720998 0
M  V30 3272 C 317.541 -2.05096 0.272656 0
M  V30 3273 C 317.956 -1.54334 -1.0875 0
M  V30 3274 O 317.313 -0.702211 -1.6845 0
M  V30 3275 C 317.364 -3.60636 0.249835 0
M  V30 3276 O 317.085 -4.09526 1.55629 0
M  V30 3277 C 318.586 -4.42772 -0.216396 0
M  V30 3278 H 315.806 -0.659897 0.121558 0
M  V30 3279 H 318.35 -1.79449 0.980723 0
M  V30 3280 H 316.505 -3.85232 -0.409237 0
M  V30 3281 H 316.919 -5.03758 1.4604 0
M  V30 3282 H 318.393 -5.51702 -0.181212 0
M  V30 3283 H 318.87 -4.20756 -1.25941 0
M  V30 3284 H 319.476 -4.23294 0.412596 0
M  V30 3285 N 317.792 -0.46758 -1.50504 0
M  V30 3286 C 319.017 0.0886943 -2.0721 0
M  V30 3287 C 319.442 1.33057 -1.32956 0
M  V30 3288 O 318.8 1.77354 -0.376197 0
M  V30 3289 C 318.848 0.359202 -3.58806 0
M  V30 3290 O 317.952 1.44034 -3.8643 0
M  V30 3291 H 317.293 -0.0114349 -0.663902 0
M  V30 3292 H 319.823 -0.657613 -1.93744 0
M  V30 3293 H 319.833 0.600742 -4.03553 0
M  V30 3294 H 318.508 -0.548311 -4.1227 0
M  V30 3295 H 317.085 1.18638 -3.53524 0
M  V30 3296 N 319.27 1.56325 -0.20005 0
M  V30 3297 C 320.686 1.58839 0.155716 0
M  V30 3298 C 320.886 1.21636 1.60645 0
M  V30 3299 O 319.942 0.941437 2.34293 0
M  V30 3300 C 321.255 3.0032 -0.151124 0
M  V30 3301 C 322.803 3.12866 -0.0916284 0
M  V30 3302 C 323.278 4.56488 -0.371845 0
M  V30 3303 N 324.769 4.62089 -0.320641 0
M  V30 3304 C 325.504 5.71116 -0.511243 0
M  V30 3305 N 325 6.88592 -0.762461 0
M  V30 3306 N 326.793 5.60335 -0.445157 0
M  V30 3307 H 318.944 1.78788 -1.14668 0
M  V30 3308 H 321.207 0.829996 -0.458051 0
M  V30 3309 H 320.913 3.32117 -1.15721 0
M  V30 3310 H 320.787 3.73257 0.543986 0
M  V30 3311 H 323.174 2.80878 0.905065 0
M  V30 3312 H 323.255 2.42304 -0.81989 0
M  V30 3313 H 322.899 4.89189 -1.36588 0
M  V30 3314 H 322.829 5.25246 0.377362 0
M  V30 3315 H 325.32 3.77665 -0.13329 0
M  V30 3316 H 325.633 7.67581 -0.896576 0
M  V30 3317 H 323.978 6.90387 -0.799412 0
M  V30 3318 H 327.169 4.67436 -0.249278 0
M  V30 3319 H 327.342 6.45243 -0.597116 0
M  V30 3320 N 320.748 -0.0735177 1.57428 0
M  V30 3321 C 321.976 -0.785969 1.9139 0
M  V30 3322 C 322.391 -1.71207 0.795847 0
M  V30 3323 O 321.748 -1.81033 -0.230915 0
M  V30 3324 C 321.799 -1.58107 3.25091 0
M  V30 3325 O 321.52 -0.6922 4.32597 0
M  V30 3326 C 323.021 -2.39467 3.73055 0
M  V30 3327 H 320.241 -0.223558 0.632663 0
M  V30 3328 H 322.785 -0.044302 2.04452 0
M  V30 3329 H 320.94 -2.27503 3.13562 0
M  V30 3330 H 321.354 -1.24504 5.09508 0
M  V30 3331 H 322.828 -2.90716 4.69242 0
M  V30 3332 H 323.305 -3.18913 3.01979 0
M  V30 3333 H 323.911 -1.7523 3.87523 0
M  V30 3334 N 322.226 -1.5378 -0.344866 0
M  V30 3335 C 323.158 -1.77988 -1.44406 0
M  V30 3336 C 324.171 -0.661138 -1.48771 0
M  V30 3337 O 325.36 -0.937842 -1.51877 0
M  V30 3338 C 322.46 -1.86345 -2.8307 0
M  V30 3339 C 321.633 -3.16256 -3.0216 0
M  V30 3340 C 320.692 -3.15588 -4.21059 0
M  V30 3341 O 319.718 -3.89314 -4.15239 0
M  V30 3342 N 320.92 -2.37864 -5.29529 0
M  V30 3343 H 323.685 -2.72839 -1.24012 0
M  V30 3344 H 321.246 -1.52814 -0.534737 0
M  V30 3345 H 323.238 -1.83351 -3.60783 0
M  V30 3346 H 321.808 -0.986858 -2.96614 0
M  V30 3347 H 321.028 -3.32385 -2.11929 0
M  V30 3348 H 322.316 -4.0207 -3.11797 0
M  V30 3349 H 321.714 -1.77514 -5.37127 0
M  V30 3350 H 320.271 -2.40668 -6.05741 0
M  V30 3351 N 323.704 0.605807 -1.45491 0
M  V30 3352 C 324.951 1.36476 -1.49601 0
M  V30 3353 C 325.279 1.94007 -0.138452 0
M  V30 3354 O 324.534 1.75638 0.863114 0
M  V30 3355 C 324.833 2.53012 -2.52428 0
M  V30 3356 C 324.499 2.13617 -3.97087 0
M  V30 3357 C 323.161 2.02587 -4.36477 0
M  V30 3358 C 325.513 1.82899 -4.88055 0
M  V30 3359 C 322.841 1.59064 -5.64726 0
M  V30 3360 C 325.193 1.40861 -6.16718 0
M  V30 3361 C 323.857 1.28391 -6.55036 0
M  V30 3362 H 323.127 0.499402 -0.547429 0
M  V30 3363 H 325.774 0.684546 -1.78847 0
M  V30 3364 H 324.079 3.26379 -2.16758 0
M  V30 3365 H 325.776 3.1124 -2.52845 0
M  V30 3366 H 322.366 2.23129 -3.65939 0
M  V30 3367 H 326.55 1.90317 -4.58359 0
M  V30 3368 H 321.806 1.48034 -5.93208 0
M  V30 3369 H 325.98 1.16138 -6.86648 0
M  V30 3370 H 323.607 0.944403 -7.54311 0
M  V30 3371 N 325.182 1.32811 0.848464 0
M  V30 3372 C 326.407 1.26882 1.6406 0
M  V30 3373 C 326.832 -0.15913 1.87426 0
M  V30 3374 O 326.19 -1.11258 1.43148 0
M  V30 3375 C 326.238 2.03997 2.97351 0
M  V30 3376 O 325.342 1.39201 3.88197 0
M  V30 3377 H 324.683 0.436982 0.499943 0
M  V30 3378 H 327.213 1.75224 1.0563 0
M  V30 3379 H 327.223 2.14403 3.47124 0
M  V30 3380 H 325.898 3.0783 2.79666 0
M  V30 3381 H 324.475 1.37381 3.46671 0
M  V30 3382 N 326.66 -1.06551 1.16123 0
M  V30 3383 C 327.885 -1.83544 0.965735 0
M  V30 3384 C 328.31 -1.81843 -0.481102 0
M  V30 3385 O 327.668 -1.21732 -1.34354 0
M  V30 3386 C 327.716 -3.28169 1.49457 0
M  V30 3387 O 326.82 -4.0643 0.699157 0
M  V30 3388 H 326.161 -0.568026 0.343864 0
M  V30 3389 H 328.691 -1.34362 1.54299 0
M  V30 3390 H 328.701 -3.78992 1.51092 0
M  V30 3391 H 327.376 -3.28722 2.54784 0
M  V30 3392 H 325.953 -3.65216 0.7531 0
M  V30 3393 N 328.138 -0.959301 -1.25041 0
M  V30 3394 C 329.068 -0.501388 -2.28053 0
M  V30 3395 C 330.049 0.454673 -1.63911 0
M  V30 3396 O 331.234 0.352618 -1.90972 0
M  V30 3397 C 328.364 0.217224 -3.4662 0
M  V30 3398 C 327.318 -0.654034 -4.22973 0
M  V30 3399 C 326.644 0.195589 -5.34342 0
M  V30 3400 C 327.944 -1.93447 -4.85155 0
M  V30 3401 H 329.638 -1.36238 -2.66608 0
M  V30 3402 H 327.184 -0.656534 -1.28163 0
M  V30 3403 H 329.137 0.548732 -4.17812 0
M  V30 3404 H 327.861 1.1125 -3.07068 0
M  V30 3405 H 326.52 -0.968693 -3.5357 0
M  V30 3406 H 326.168 1.09076 -4.91031 0
M  V30 3407 H 325.868 -0.384091 -5.86343 0
M  V30 3408 H 327.392 0.521958 -6.08365 0
M  V30 3409 H 328.806 -1.66908 -5.48466 0
M  V30 3410 H 327.203 -2.46018 -5.47353 0
M  V30 3411 H 328.273 -2.63466 -4.07079 0
M  V30 3412 N 329.616 1.39756 -0.72842 0
M  V30 3413 C 330.548 2.29157 -0.0446202 0
M  V30 3414 C 331.561 1.46484 0.710367 0
M  V30 3415 O 332.75 1.69632 0.55562 0
M  V30 3416 C 329.85 3.24987 0.961071 0
M  V30 3417 C 329.023 4.36572 0.268967 0
M  V30 3418 C 328.082 5.12756 1.18184 0
M  V30 3419 O 327.108 5.6534 0.661794 0
M  V30 3420 N 328.31 5.23331 2.51206 0
M  V30 3421 H 331.075 2.88482 -0.812295 0
M  V30 3422 H 328.636 1.51265 -0.577098 0
M  V30 3423 H 330.628 3.72827 1.57423 0
M  V30 3424 H 329.198 2.66739 1.63 0
M  V30 3425 H 328.418 3.90694 -0.524574 0
M  V30 3426 H 329.706 5.08363 -0.210934 0
M  V30 3427 H 329.104 4.82116 2.9594 0
M  V30 3428 H 327.661 5.74634 3.07634 0
M  V30 3429 N 331.094 0.475555 1.50254 0
M  V30 3430 C 332.026 -0.352649 2.26471 0
M  V30 3431 C 333.039 -0.953165 1.3198 0
M  V30 3432 O 334.228 -0.840815 1.57457 0
M  V30 3433 C 331.328 -1.50902 3.0345 0
M  V30 3434 C 330.501 -1.02047 4.25329 0
M  V30 3435 C 329.56 -2.05142 4.84565 0
M  V30 3436 O 328.586 -1.63023 5.45355 0
M  V30 3437 N 329.788 -3.37987 4.71959 0
M  V30 3438 H 332.553 0.300767 2.98187 0
M  V30 3439 H 330.114 0.306598 1.5897 0
M  V30 3440 H 332.106 -2.19572 3.39956 0
M  V30 3441 H 330.676 -2.06705 2.34504 0
M  V30 3442 H 329.896 -0.159507 3.93877 0
M  V30 3443 H 331.184 -0.672061 5.04342 0
M  V30 3444 H 330.582 -3.74913 4.23623 0
M  V30 3445 H 329.139 -4.02443 5.12721 0
M  V30 3446 N 332.573 -1.56217 0.208337 0
M  V30 3447 C 333.503 -2.22694 -0.702116 0
M  V30 3448 C 334.484 -1.19432 -1.2112 0
M  V30 3449 O 335.669 -1.47978 -1.25762 0
M  V30 3450 C 332.799 -2.8966 -1.9161 0
M  V30 3451 C 331.753 -3.9928 -1.5414 0
M  V30 3452 C 331.079 -4.53476 -2.83308 0
M  V30 3453 C 332.379 -5.17012 -0.741339 0
M  V30 3454 H 334.073 -2.99034 -0.147898 0
M  V30 3455 H 331.619 -1.43831 -0.0696951 0
M  V30 3456 H 333.572 -3.34852 -2.55836 0
M  V30 3457 H 332.296 -2.10746 -2.49507 0
M  V30 3458 H 330.955 -3.54799 -0.922668 0
M  V30 3459 H 330.603 -3.71308 -3.39322 0
M  V30 3460 H 330.303 -5.27451 -2.58976 0
M  V30 3461 H 331.827 -5.01378 -3.485 0
M  V30 3462 H 333.241 -5.58667 -1.28699 0
M  V30 3463 H 331.638 -5.97137 -0.595627 0
M  V30 3464 H 332.708 -4.8423 0.254851 0
M  V30 3465 N 334.051 0.0651679 -1.57465 0
M  V30 3466 C 335.297 0.764193 -1.87851 0
M  V30 3467 C 335.63 1.76889 -0.801495 0
M  V30 3468 O 334.905 1.93594 0.187528 0
M  V30 3469 C 335.188 1.46625 -3.28897 0
M  V30 3470 C 335.041 0.477515 -4.47258 0
M  V30 3471 C 336.36 2.4095 -3.68281 0
M  V30 3472 H 333.479 0.276351 -0.683227 0
M  V30 3473 H 336.121 0.0272868 -1.8998 0
M  V30 3474 H 334.271 2.09438 -3.27212 0
M  V30 3475 H 335.943 -0.145922 -4.61069 0
M  V30 3476 H 334.186 -0.206576 -4.33308 0
M  V30 3477 H 334.857 1.0065 -5.42746 0
M  V30 3478 H 337.333 1.88209 -3.71102 0
M  V30 3479 H 336.209 2.87072 -4.67847 0
M  V30 3480 H 336.47 3.26049 -2.98571 0
M  V30 3481 N 335.529 1.53961 0.336706 0
M  V30 3482 C 336.492 1.81724 1.39675 0
M  V30 3483 C 337.492 0.688532 1.45313 0
M  V30 3484 O 338.682 0.956829 1.45569 0
M  V30 3485 C 335.814 1.96543 2.78538 0
M  V30 3486 H 337.007 2.76424 1.16318 0
M  V30 3487 H 334.56 1.45478 0.571474 0
M  V30 3488 H 335.295 1.0401 3.07168 0
M  V30 3489 H 335.08 2.78665 2.75841 0
M  V30 3490 H 336.57 2.19516 3.5525 0
M  V30 3491 N 337.007 -0.598083 1.45811 0
M  V30 3492 C 338.237 -1.38121 1.53643 0
M  V30 3493 C 338.645 -1.88425 0.171081 0
M  V30 3494 O 337.988 -1.63409 -0.839237 0
M  V30 3495 C 338.05 -2.61432 2.46766 0
M  V30 3496 C 337.714 -2.32702 3.93318 0
M  V30 3497 C 338.711 -1.92479 4.82957 0
M  V30 3498 C 336.396 -2.45321 4.38318 0
M  V30 3499 C 338.39 -1.65248 6.15607 0
M  V30 3500 C 336.077 -2.17703 5.71007 0
M  V30 3501 C 337.075 -1.7773 6.5947 0
M  V30 3502 O 336.763 -1.50441 7.89698 0
M  V30 3503 H 336.495 -0.428863 0.522544 0
M  V30 3504 H 339.049 -0.73557 1.91777 0
M  V30 3505 H 337.279 -3.28749 2.0362 0
M  V30 3506 H 338.968 -3.23487 2.45175 0
M  V30 3507 H 339.734 -1.82258 4.49452 0
M  V30 3508 H 335.613 -2.75399 3.69697 0
M  V30 3509 H 339.157 -1.33973 6.84614 0
M  V30 3510 H 335.054 -2.27544 6.04065 0
M  V30 3511 H 335.822 -1.64415 8.01817 0
M  V30 3512 N 338.485 -1.33259 -0.841409 0
M  V30 3513 C 339.715 -1.2742 -1.62628 0
M  V30 3514 C 340.123 0.157604 -1.88542 0
M  V30 3515 O 339.466 1.10938 -1.46419 0
M  V30 3516 C 339.528 -1.97797 -3.00194 0
M  V30 3517 C 339.192 -3.47109 -2.97261 0
M  V30 3518 C 340.189 -4.42358 -2.73159 0
M  V30 3519 C 337.874 -3.89247 -3.17478 0
M  V30 3520 C 339.868 -5.77718 -2.69296 0
M  V30 3521 C 337.555 -5.24713 -3.13241 0
M  V30 3522 C 338.553 -6.1876 -2.89181 0
M  V30 3523 O 338.241 -7.51745 -2.84843 0
M  V30 3524 H 337.973 -0.440436 -0.512827 0
M  V30 3525 H 340.527 -1.76153 -1.05638 0
M  V30 3526 H 338.757 -1.43652 -3.59028 0
M  V30 3527 H 340.446 -1.8549 -3.61038 0
M  V30 3528 H 341.212 -4.11127 -2.57294 0
M  V30 3529 H 337.091 -3.16456 -3.35226 0
M  V30 3530 H 340.635 -6.51097 -2.50436 0
M  V30 3531 H 336.532 -5.55569 -3.28654 0
M  V30 3532 H 337.3 -7.61262 -3.00702 0
M  V30 3533 N 339.963 1.05934 -1.16686 0
M  V30 3534 C 341.188 1.83029 -0.975455 0
M  V30 3535 C 341.613 1.82096 0.471452 0
M  V30 3536 O 340.971 1.22443 1.33706 0
M  V30 3537 C 341.019 3.27372 -1.51195 0
M  V30 3538 O 340.123 4.06054 -0.720701 0
M  V30 3539 H 339.464 0.566194 -0.346872 0
M  V30 3540 H 341.994 1.33541 -1.55009 0
M  V30 3541 H 342.004 3.78186 -1.53099 0
M  V30 3542 H 340.679 3.27366 -2.56523 0
M  V30 3543 H 339.256 3.64812 -0.772458 0
M  V30 3544 N 341.441 0.965919 1.2453 0
M  V30 3545 C 342.388 0.49402 2.25451 0
M  V30 3546 C 343.358 -0.45948 1.59618 0
M  V30 3547 O 344.543 -0.370238 1.87173 0
M  V30 3548 C 341.683 -0.211359 3.44452 0
M  V30 3549 C 340.796 0.7807 4.24887 0
M  V30 3550 C 339.931 0.0516105 5.31175 0
M  V30 3551 C 338.97 1.03385 6.03306 0
M  V30 3552 N 338.107 0.334887 7.01301 0
M  V30 3553 H 342.947 1.35946 2.65184 0
M  V30 3554 H 340.484 0.681515 1.3036 0
M  V30 3555 H 342.442 -0.637 4.12308 0
M  V30 3556 H 341.072 -1.04077 3.05562 0
M  V30 3557 H 340.124 1.32479 3.56586 0
M  V30 3558 H 341.436 1.52978 4.74762 0
M  V30 3559 H 340.59 -0.432114 6.05159 0
M  V30 3560 H 339.329 -0.730179 4.82203 0
M  V30 3561 H 338.334 1.52847 5.28127 0
M  V30 3562 H 339.559 1.81606 6.54367 0
M  V30 3563 H 337.505 -0.427959 6.54603 0
M  V30 3564 H 337.422 1.02287 7.49048 0
M  V30 3565 H 338.69 -0.126928 7.79397 0
M  V30 3566 N 342.919 -1.39368 0.735821 0
M  V30 3567 C 343.869 -2.27885 0.0724287 0
M  V30 3568 C 344.853 -1.44301 -0.711756 0
M  V30 3569 O 346.045 -1.67206 -0.58063 0
M  V30 3570 C 343.174 -3.33029 -0.833454 0
M  V30 3571 C 342.26 -4.24078 -0.0433749 0
M  V30 3572 N 342.651 -4.96138 0.983903 0
M  V30 3573 C 340.949 -4.45164 -0.272905 0
M  V30 3574 C 341.65 -5.63069 1.4604 0
M  V30 3575 N 340.626 -5.37991 0.778857 0
M  V30 3576 H 344.428 -2.81052 0.859467 0
M  V30 3577 H 341.942 -1.5206 0.570227 0
M  V30 3578 H 343.939 -3.95311 -1.32419 0
M  V30 3579 H 342.599 -2.81421 -1.61964 0
M  V30 3580 H 343.61 -4.9958 1.36528 0
M  V30 3581 H 340.287 -4.04497 -1.03383 0
M  V30 3582 H 341.677 -6.30755 2.31511 0
M  V30 3583 N 344.397 -0.483516 -1.5 0
M  V30 3584 C 345.36 0.292965 -2.2732 0
M  V30 3585 C 346.36 0.909499 -1.32608 0
M  V30 3586 O 347.55 0.776745 -1.55924 0
M  V30 3587 C 344.682 1.41854 -3.09984 0
M  V30 3588 H 345.875 -0.385289 -2.97415 0
M  V30 3589 H 343.428 -0.237942 -1.54478 0
M  V30 3590 H 344.163 2.13148 -2.44414 0
M  V30 3591 H 343.948 0.982114 -3.79601 0
M  V30 3592 H 345.438 1.96597 -3.68429 0
M  V30 3593 N 345.875 1.56104 -0.216619 0
M  V30 3594 C 347.152 1.89988 0.465165 0
M  V30 3595 C 347.532 1.13326 1.78102 0
M  V30 3596 O 346.88 0.241033 2.27225 0
M  V30 3597 C 347.09 3.42646 0.662939 0
M  V30 3598 C 348.438 4.13311 0.972602 0
M  V30 3599 O 349.462 3.48217 0.749901 0
M  V30 3600 O 348.321 5.28396 1.39499 0
M  V30 3601 H 345.415 0.78979 0.245276 0
M  V30 3602 H 347.961 1.67721 -0.258436 0
M  V30 3603 H 346.733 3.90399 -0.26543 0
M  V30 3604 H 346.356 3.70677 1.43821 0
M  V30 3605 N 347.353 -0.0568162 1.57498 0
M  V30 3606 C 348.601 -0.751617 1.87604 0
M  V30 3607 C 348.922 -1.77351 0.81066 0
M  V30 3608 O 348.192 -1.95254 -0.159018 0
M  V30 3609 H 346.772 -0.280583 0.692302 0
M  V30 3610 H 349.434 -0.0293483 1.94878 0
M  V30 3611 H 348.53 -1.25852 2.856 0
M  V30 3612 N 348.832 -1.54138 -0.328536 0
M  V30 3613 C 349.762 -1.86167 -1.40939 0
M  V30 3614 C 350.743 -0.718044 -1.54202 0
M  V30 3615 O 351.928 -0.971328 -1.68163 0
M  V30 3616 C 349.058 -2.08461 -2.77779 0
M  V30 3617 C 348.012 -3.24299 -2.7931 0
M  V30 3618 C 347.338 -3.31955 -4.19178 0
M  V30 3619 C 348.638 -4.62065 -2.43502 0
M  V30 3620 H 350.332 -2.76689 -1.14383 0
M  V30 3621 H 347.878 -1.33132 -0.548806 0
M  V30 3622 H 349.831 -2.29453 -3.53454 0
M  V30 3623 H 348.555 -1.14684 -3.05802 0
M  V30 3624 H 347.214 -3.03187 -2.0609 0
M  V30 3625 H 346.862 -2.35745 -4.44335 0
M  V30 3626 H 346.562 -4.09805 -4.2111 0
M  V30 3627 H 348.086 -3.55175 -4.96672 0
M  V30 3628 H 349.5 -4.8297 -3.08889 0
M  V30 3629 H 347.897 -5.42429 -2.56693 0
M  V30 3630 H 348.967 -4.64652 -1.38659 0
M  V30 3631 N 350.31 0.590341 -1.46126 0
M  V30 3632 C 351.55 1.35995 -1.52593 0
M  V30 3633 C 351.914 1.91243 -0.170368 0
M  V30 3634 O 353.115 2.68576 -0.109775 0
M  V30 3635 C 351.386 2.46465 -2.58823 0
M  V30 3636 S 352.945 3.33953 -2.84641 0
M  V30 3637 H 349.763 0.463425 -0.53922 0
M  V30 3638 H 352.365 0.67944 -1.83314 0
M  V30 3639 H 351.069 2.04256 -3.5596 0
M  V30 3640 H 350.6 3.19297 -2.2981 0
M  V30 3641 H 352.615 4.45094 -2.19331 0
M  V30 3642 N 351.788 1.33704 0.83433 0
M  V30 3643 C 352.738 1.20899 1.93306 0
M  V30 3644 C 353.722 0.110783 1.60518 0
M  V30 3645 O 354.914 0.339331 1.73717 0
M  V30 3646 C 352.043 0.955018 3.29749 0
M  V30 3647 C 351.129 2.09587 3.68692 0
M  V30 3648 N 351.52 3.34621 3.79292 0
M  V30 3649 C 349.818 2.00358 3.98463 0
M  V30 3650 C 350.519 4.09472 4.13167 0
M  V30 3651 N 349.495 3.37954 4.25779 0
M  V30 3652 H 353.297 2.15665 1.99664 0
M  V30 3653 H 350.811 1.25777 1.02732 0
M  V30 3654 H 352.808 0.844208 4.08263 0
M  V30 3655 H 351.468 0.0159317 3.24696 0
M  V30 3656 H 352.479 3.69313 3.63082 0
M  V30 3657 H 349.156 1.14137 4.01596 0
M  V30 3658 H 350.546 5.17391 4.28668 0
M  V30 3659 N 353.266 -1.05314 1.17247 0
M  V30 3660 C 354.682 -1.30452 0.919473 0
M  V30 3661 C 354.882 -1.9703 -0.42209 0
M  V30 3662 O 353.938 -2.24311 -1.15935 0
M  V30 3663 C 355.251 -2.17551 2.07586 0
M  V30 3664 C 356.799 -2.30937 2.11275 0
M  V30 3665 C 357.274 -3.21396 3.26296 0
M  V30 3666 N 358.765 -3.28981 3.26076 0
M  V30 3667 C 359.5 -3.99095 4.11716 0
M  V30 3668 N 358.996 -4.71648 5.07465 0
M  V30 3669 N 360.789 -3.95247 3.9967 0
M  V30 3670 H 352.94 -0.604988 2.03602 0
M  V30 3671 H 355.203 -0.329368 0.888944 0
M  V30 3672 H 354.909 -1.75921 3.0454 0
M  V30 3673 H 354.783 -3.18182 2.02584 0
M  V30 3674 H 357.17 -2.71809 1.14907 0
M  V30 3675 H 357.251 -1.2994 2.20339 0
M  V30 3676 H 356.895 -2.81238 4.22927 0
M  V30 3677 H 356.825 -4.22395 3.14467 0
M  V30 3678 H 359.316 -2.77286 2.5675 0
M  V30 3679 H 359.629 -5.22705 5.6921 0
M  V30 3680 H 357.974 -4.70594 5.11435 0
M  V30 3681 H 361.165 -3.37691 3.24164 0
M  V30 3682 H 361.338 -4.4962 4.66632 0
M  V30 3683 N 354.744 -0.972509 -1.24016 0
M  V30 3684 C 355.674 -0.525548 -2.27509 0
M  V30 3685 C 356.655 0.437262 -1.64384 0
M  V30 3686 O 357.84 0.332343 -1.91335 0
M  V30 3687 C 354.97 0.180448 -3.46831 0
M  V30 3688 C 353.924 -0.698859 -4.22256 0
M  V30 3689 C 353.25 0.138903 -5.3452 0
M  V30 3690 C 354.55 -1.98582 -4.83076 0
M  V30 3691 H 356.244 -1.39058 -2.65148 0
M  V30 3692 H 353.79 -0.67009 -1.27459 0
M  V30 3693 H 355.743 0.504387 -4.18371 0
M  V30 3694 H 354.467 1.07987 -3.08231 0
M  V30 3695 H 353.126 -1.00614 -3.52523 0
M  V30 3696 H 352.774 1.03862 -4.9216 0
M  V30 3697 H 352.474 -0.446259 -5.85903 0
M  V30 3698 H 353.998 0.457404 -6.08884 0
M  V30 3699 H 355.412 -1.72715 -5.46665 0
M  V30 3700 H 353.809 -2.5181 -5.44713 0
M  V30 3701 H 354.879 -2.67769 -4.04262 0
M  V30 3702 N 356.222 1.38976 -0.743202 0
M  V30 3703 C 357.45 2.04636 -0.30525 0
M  V30 3704 C 357.865 1.56044 1.06281 0
M  V30 3705 O 357.222 0.728921 1.67311 0
M  V30 3706 C 357.273 3.60193 -0.307177 0
M  V30 3707 O 356.994 4.06998 -1.62124 0
M  V30 3708 C 358.495 4.4306 0.145928 0
M  V30 3709 H 355.715 0.65788 -0.132041 0
M  V30 3710 H 358.259 1.77866 -1.00915 0
M  V30 3711 H 356.414 3.85835 0.347898 0
M  V30 3712 H 356.828 5.01371 -1.54036 0
M  V30 3713 H 358.302 5.51921 0.0934183 0
M  V30 3714 H 358.779 4.22706 1.19231 0
M  V30 3715 H 359.385 4.22584 -0.479886 0
M  V30 3716 N 357.7 0.491464 1.49741 0
M  V30 3717 C 358.648 -0.305837 2.30581 0
M  V30 3718 C 359.642 -0.971642 1.38764 0
M  V30 3719 O 360.848 -0.90042 1.5586 0
M  V30 3720 H 357.223 -0.117482 0.742767 0
M  V30 3721 H 359.194 0.396093 2.95759 0
M  V30 3722 C 357.943 -1.36319 3.19863 0
M  V30 3723 H 357.266 -0.860258 3.90435 0
M  V30 3724 H 358.706 -1.89323 3.79385 0
M  V30 3725 C 357.165 -2.37621 2.38826 0
M  V30 3726 O 357.695 -3.43311 2.08567 0
M  V30 3727 N 355.901 -2.09849 2.01026 0
M  V30 3728 H 355.448 -1.23922 2.25834 0
M  V30 3729 H 355.406 -2.77859 1.47112 0
M  V30 3730 N 359.178 -1.55987 0.224894 0
M  V30 3731 C 360.424 -1.98684 -0.406502 0
M  V30 3732 C 360.757 -1.11248 -1.59177 0
M  V30 3733 O 360.032 -0.170909 -1.93748 0
M  V30 3734 C 360.315 -3.50218 -0.837808 0
M  V30 3735 C 360.168 -4.48426 0.351332 0
M  V30 3736 C 361.487 -4.06243 -1.69278 0
M  V30 3737 H 358.606 -0.722337 -0.146283 0
M  V30 3738 H 361.248 -1.87255 0.321799 0
M  V30 3739 H 359.398 -3.60089 -1.45837 0
M  V30 3740 H 361.07 -4.50562 0.989526 0
M  V30 3741 H 359.313 -4.22159 0.998207 0
M  V30 3742 H 359.984 -5.52 0.00655905 0
M  V30 3743 H 362.46 -3.99337 -1.16914 0
M  V30 3744 H 361.336 -5.12581 -1.96346 0
M  V30 3745 H 361.597 -3.53332 -2.65723 0
M  V30 3746 N 360.656 0.0484629 -1.57525 0
M  V30 3747 C 361.896 0.748196 -1.90214 0
M  V30 3748 C 362.26 1.73545 -0.821347 0
M  V30 3749 O 363.461 2.48201 -1.03198 0
M  V30 3750 C 361.732 1.41727 -3.28098 0
M  V30 3751 S 363.291 2.14884 -3.82584 0
M  V30 3752 H 360.109 0.248307 -0.666232 0
M  V30 3753 H 362.711 0.00343188 -1.955 0
M  V30 3754 H 361.415 0.685244 -4.04639 0
M  V30 3755 H 360.946 2.20099 -3.26068 0
M  V30 3756 H 362.961 3.41755 -3.59747 0
M  V30 3757 N 362.134 1.5431 0.320358 0
M  V30 3758 C 363.545 1.63872 0.894594 0
M  V30 3759 C 363.896 0.534847 1.88769 0
M  V30 3760 O 363.021 -0.331732 2.13842 0
M  V30 3761 C 363.616 2.97049 1.62934 0
M  V30 3762 C 362.175 3.08796 2.15226 0
M  V30 3763 C 361.322 2.59456 0.978671 0
M  V30 3764 H 364.273 1.58398 0.0978544 0
M  V30 3765 H 364.294 2.87388 2.49376 0
M  V30 3766 H 363.806 3.7737 0.906302 0
M  V30 3767 H 361.907 2.33156 2.90636 0
M  V30 3768 H 362.02 4.14649 2.40006 0
M  V30 3769 H 360.384 2.1543 1.35875 0
M  V30 3770 H 361.167 3.42237 0.269895 0
M  V30 3771 N 363.613 -0.582584 1.46437 0
M  V30 3772 C 364.841 -1.36682 1.55324 0
M  V30 3773 C 365.256 -1.87796 0.194409 0
M  V30 3774 O 364.613 -1.63623 -0.808318 0
M  V30 3775 C 364.664 -2.55426 2.55812 0
M  V30 3776 O 364.385 -2.0643 3.86417 0
M  V30 3777 C 365.886 -3.47976 2.74641 0
M  V30 3778 H 363.106 -0.417545 0.525259 0
M  V30 3779 H 365.65 -0.708219 1.91845 0
M  V30 3780 H 363.805 -3.17275 2.22295 0
M  V30 3781 H 364.219 -2.83762 4.41111 0
M  V30 3782 H 365.693 -4.27775 3.48874 0
M  V30 3783 H 366.17 -3.99919 1.81553 0
M  V30 3784 H 366.776 -2.91962 3.09255 0
M  V30 3785 N 365.091 -1.34144 -0.827227 0
M  V30 3786 C 366.316 -1.29476 -1.62021 0
M  V30 3787 C 366.741 0.129292 -1.87655 0
M  V30 3788 O 366.099 1.08967 -1.449 0
M  V30 3789 C 366.147 -2.08702 -2.94068 0
M  V30 3790 O 365.251 -1.45359 -3.85933 0
M  V30 3791 H 364.592 -0.444881 -0.492927 0
M  V30 3792 H 367.122 -1.76882 -1.02829 0
M  V30 3793 H 367.132 -2.19898 -3.43669 0
M  V30 3794 H 365.807 -3.12241 -2.74734 0
M  V30 3795 H 364.384 -1.42879 -3.44442 0
M  V30 3796 N 366.569 1.04691 -1.17803 0
M  V30 3797 C 367.516 2.12557 -0.899343 0
M  V30 3798 C 368.486 1.65339 0.158771 0
M  V30 3799 O 369.671 1.90789 0.0204797 0
M  V30 3800 C 366.811 3.42481 -0.424315 0
M  V30 3801 C 365.924 4.03346 -1.54713 0
M  V30 3802 C 365.059 5.21208 -1.02546 0
M  V30 3803 C 364.098 5.74089 -2.12339 0
M  V30 3804 N 363.235 6.83247 -1.61612 0
M  V30 3805 H 368.075 2.35734 -1.823 0
M  V30 3806 H 365.612 1.1564 -0.909159 0
M  V30 3807 H 367.57 4.16996 -0.130421 0
M  V30 3808 H 366.2 3.19471 0.462377 0
M  V30 3809 H 365.252 3.2622 -1.95664 0
M  V30 3810 H 366.564 4.38628 -2.37501 0
M  V30 3811 H 365.718 6.02812 -0.685718 0
M  V30 3812 H 364.457 4.87414 -0.167084 0
M  V30 3813 H 363.462 4.91111 -2.47165 0
M  V30 3814 H 364.687 6.0993 -2.98601 0
M  V30 3815 H 362.633 6.5134 -0.780533 0
M  V30 3816 H 362.55 7.17559 -2.38003 0
M  V30 3817 H 363.818 7.68491 -1.30545 0
M  V30 3818 N 368.047 0.979072 1.23499 0
M  V30 3819 C 369.458 0.684391 1.73704 0
M  V30 3820 C 369.809 -0.799448 1.79174 0
M  V30 3821 O 368.934 -1.62531 1.42873 0
M  V30 3822 C 369.529 1.23564 3.15464 0
M  V30 3823 C 368.088 0.99063 3.6313 0
M  V30 3824 C 367.235 1.36416 2.41425 0
M  V30 3825 H 370.186 1.15307 1.09041 0
M  V30 3826 H 370.207 0.607417 3.7562 0
M  V30 3827 H 369.719 2.31561 3.1145 0
M  V30 3828 H 367.82 -0.0733136 3.72528 0
M  V30 3829 H 367.933 1.64427 4.5 0
M  V30 3830 H 366.297 0.782616 2.42378 0
M  V30 3831 H 367.08 2.45387 2.40083 0
M  V30 3832 N 369.525 -1.3858 0.750561 0
M  V30 3833 C 370.457 -2.29057 0.0810714 0
M  V30 3834 C 371.47 -1.47596 -0.686973 0
M  V30 3835 O 372.659 -1.70495 -0.528563 0
M  V30 3836 C 369.759 -3.26475 -0.909247 0
M  V30 3837 C 368.932 -4.36945 -0.199478 0
M  V30 3838 C 367.991 -5.14572 -1.10011 0
M  V30 3839 O 367.017 -5.66321 -0.57177 0
M  V30 3840 N 368.219 -5.27262 -2.42849 0
M  V30 3841 H 370.984 -2.87153 0.858087 0
M  V30 3842 H 368.545 -1.50328 0.60109 0
M  V30 3843 H 370.537 -3.75285 -1.51471 0
M  V30 3844 H 369.107 -2.69298 -1.58736 0
M  V30 3845 H 368.327 -3.8981 0.586664 0
M  V30 3846 H 369.615 -5.07963 0.291783 0
M  V30 3847 H 369.013 -4.86763 -2.88233 0
M  V30 3848 H 367.57 -5.79456 -2.98453 0
M  V30 3849 N 371.003 -0.499398 -1.49478 0
M  V30 3850 C 372.231 0.0425456 -2.06856 0
M  V30 3851 C 372.646 1.30964 -1.35992 0
M  V30 3852 O 372.003 1.77172 -0.437762 0
M  V30 3853 C 372.054 0.301735 -3.60239 0
M  V30 3854 O 371.775 -0.915127 -4.28436 0
M  V30 3855 C 373.276 0.887499 -4.34325 0
M  V30 3856 H 370.496 -0.0197482 -0.670709 0
M  V30 3857 H 373.04 -0.696297 -1.92281 0
M  V30 3858 H 371.195 0.990556 -3.74522 0
M  V30 3859 H 371.609 -0.676993 -5.20113 0
M  V30 3860 H 373.083 1.01845 -5.42523 0
M  V30 3861 H 373.56 1.88488 -3.96698 0
M  V30 3862 H 374.166 0.236196 -4.24644 0
M  V30 3863 N 372.481 1.55866 -0.233164 0
M  V30 3864 C 373.413 2.18099 0.704668 0
M  V30 3865 C 374.426 1.15334 1.14899 0
M  V30 3866 O 375.615 1.42262 1.07814 0
M  V30 3867 C 372.715 2.7592 1.96777 0
M  V30 3868 C 371.888 4.03969 1.67713 0
M  V30 3869 C 370.947 4.46242 2.78845 0
M  V30 3870 O 369.973 5.12903 2.46818 0
M  V30 3871 N 371.175 4.12886 4.08051 0
M  V30 3872 H 373.94 2.99205 0.172258 0
M  V30 3873 H 371.501 1.61815 -0.0525945 0
M  V30 3874 H 373.493 3.01165 2.70337 0
M  V30 3875 H 372.063 1.99051 2.41034 0
M  V30 3876 H 371.283 3.86459 0.777391 0
M  V30 3877 H 372.571 4.8748 1.4574 0
M  V30 3878 H 371.969 3.59342 4.3691 0
M  V30 3879 H 370.526 4.42997 4.78118 0
M  V30 3880 N 373.959 -0.0401083 1.57549 0
M  V30 3881 C 375.207 -0.731677 1.8839 0
M  V30 3882 C 375.528 -1.76481 0.829425 0
M  V30 3883 O 374.798 -1.95411 -0.1383 0
M  V30 3884 H 373.378 -0.273225 0.695239 0
M  V30 3885 H 376.04 -0.00867725 1.94898 0
M  V30 3886 H 375.136 -1.22816 2.86919 0
M  V30 3887 N 375.437 -1.54477 -0.31217 0
M  V30 3888 C 376.367 -1.87652 -1.38957 0
M  V30 3889 C 377.348 -0.734358 -1.53431 0
M  V30 3890 O 378.533 -0.98911 -1.67123 0
M  V30 3891 C 375.663 -2.11396 -2.75552 0
M  V30 3892 C 374.617 -3.27243 -2.75855 0
M  V30 3893 C 373.943 -3.36382 -4.15633 0
M  V30 3894 C 375.243 -4.64622 -2.38587 0
M  V30 3895 H 376.937 -2.77887 -1.11442 0
M  V30 3896 H 374.483 -1.33707 -0.534655 0
M  V30 3897 H 376.436 -2.33189 -3.51 0
M  V30 3898 H 375.16 -1.17921 -3.04569 0
M  V30 3899 H 373.819 -3.05356 -2.02863 0
M  V30 3900 H 373.467 -2.40445 -4.41809 0
M  V30 3901 H 373.167 -4.14249 -4.1674 0
M  V30 3902 H 374.691 -3.60422 -4.92877 0
M  V30 3903 H 376.105 -4.86219 -3.03749 0
M  V30 3904 H 374.502 -5.45121 -2.50925 0
M  V30 3905 H 375.572 -4.66097 -1.33723 0
M  V30 3906 N 376.915 0.57481 -1.46744 0
M  V30 3907 C 377.878 1.66533 -1.57478 0
M  V30 3908 C 378.878 1.54338 -0.451263 0
M  V30 3909 O 380.068 1.58814 -0.715813 0
M  V30 3910 C 377.2 3.05999 -1.50259 0
M  V30 3911 H 378.393 1.58372 -2.54673 0
M  V30 3912 H 375.946 0.793301 -1.34672 0
M  V30 3913 H 376.681 3.19709 -0.543725 0
M  V30 3914 H 376.466 3.16259 -2.31781 0
M  V30 3915 H 377.956 3.8537 -1.60872 0
M  V30 3916 N 378.394 1.34581 0.820102 0
M  V30 3917 C 379.341 1.2639 1.93117 0
M  V30 3918 C 380.311 0.138554 1.65521 0
M  V30 3919 O 381.496 0.320004 1.88097 0
M  V30 3920 C 378.636 1.02812 3.29429 0
M  V30 3921 C 377.749 2.24146 3.693 0
M  V30 3922 C 376.884 1.93829 4.94574 0
M  V30 3923 C 375.923 3.1129 5.27034 0
M  V30 3924 N 375.06 2.80838 6.43486 0
M  V30 3925 H 379.9 2.21408 1.99455 0
M  V30 3926 H 377.437 1.10077 0.975784 0
M  V30 3927 H 379.395 0.871788 4.0799 0
M  V30 3928 H 378.025 0.114612 3.22596 0
M  V30 3929 H 377.077 2.50691 2.86109 0
M  V30 3930 H 378.389 3.11899 3.89257 0
M  V30 3931 H 377.543 1.74948 5.80929 0
M  V30 3932 H 376.282 1.03341 4.76626 0
M  V30 3933 H 375.287 3.30764 4.39175 0
M  V30 3934 H 376.512 4.02561 5.4692 0
M  V30 3935 H 374.458 1.92929 6.26988 0
M  V30 3936 H 374.375 3.62123 6.63629 0
M  V30 3937 H 375.643 2.65467 7.32903 0
M  V30 3938 N 379.872 -1.04064 1.18357 0
M  V30 3939 C 381.149 -1.74252 0.888581 0
M  V30 3940 C 381.529 -2.02138 -0.60856 0
M  V30 3941 O 380.877 -1.66656 -1.56327 0
M  V30 3942 C 381.087 -3.0277 1.73584 0
M  V30 3943 C 382.435 -3.76506 1.96286 0
M  V30 3944 O 383.459 -3.12668 1.70637 0
M  V30 3945 O 382.318 -4.91243 2.39464 0
M  V30 3946 H 379.412 -0.758271 0.330082 0
M  V30 3947 H 381.958 -1.1013 1.2911 0
M  V30 3948 H 380.73 -2.78299 2.75073 0
M  V30 3949 H 380.353 -3.74631 1.33183 0
M  V30 3950 N 381.35 -0.985608 -1.22978 0
M  V30 3951 C 382.313 -0.535071 -2.22867 0
M  V30 3952 C 383.313 0.378123 -1.56291 0
M  V30 3953 O 384.503 0.171092 -1.73358 0
M  V30 3954 C 381.635 0.222702 -3.40172 0
M  V30 3955 H 382.828 -1.41835 -2.6424 0
M  V30 3956 H 380.381 -0.772042 -1.35901 0
M  V30 3957 H 381.116 1.12229 -3.04262 0
M  V30 3958 H 380.901 -0.43288 -3.89703 0
M  V30 3959 H 382.391 0.526335 -4.1427 0
M  V30 3960 N 382.828 1.3818 -0.7579 0
M  V30 3961 C 384.074 2.0078 -0.325423 0
M  V30 3962 C 384.429 1.59085 1.08211 0
M  V30 3963 O 383.722 0.820394 1.73148 0
M  V30 3964 C 383.916 3.55252 -0.391218 0
M  V30 3965 C 383.745 4.11947 -1.8036 0
M  V30 3966 C 382.515 4.43519 -2.42113 0
M  V30 3967 C 384.713 4.33908 -2.76095 0
M  V30 3968 N 382.695 4.85847 -3.75267 0
M  V30 3969 C 384.066 4.78692 -3.94023 0
M  V30 3970 C 386.121 4.16015 -2.73561 0
M  V30 3971 C 384.824 5.07459 -5.09782 0
M  V30 3972 C 386.85 4.45909 -3.88483 0
M  V30 3973 C 386.212 4.90921 -5.0515 0
M  V30 3974 H 382.311 0.764215 -0.165831 0
M  V30 3975 H 384.895 1.67724 -0.988776 0
M  V30 3976 H 383.066 3.87646 0.241886 0
M  V30 3977 H 384.798 4.04653 0.061989 0
M  V30 3978 H 381.553 4.32113 -1.93842 0
M  V30 3979 H 381.977 5.11339 -4.4369 0
M  V30 3980 H 386.619 3.80399 -1.84544 0
M  V30 3981 H 384.337 5.4197 -5.99412 0
M  V30 3982 H 387.923 4.33666 -3.87847 0
M  V30 3983 H 386.803 5.1361 -5.92599 0
M  V30 3984 N 384.306 0.507319 1.49211 0
M  V30 3985 C 385.216 -0.272136 2.33016 0
M  V30 3986 C 386.232 -0.961206 1.45041 0
M  V30 3987 O 387.408 -0.941191 1.78055 0
M  V30 3988 C 384.473 -1.31895 3.20631 0
M  V30 3989 C 383.534 -0.642648 4.24463 0
M  V30 3990 C 382.767 -1.63959 5.07891 0
M  V30 3991 O 382.99 -2.87007 4.92933 0
M  V30 3992 O 381.924 -1.19143 5.8999 0
M  V30 3993 H 385.75 0.413982 3.00865 0
M  V30 3994 H 383.335 0.268556 1.46966 0
M  V30 3995 H 385.217 -1.92446 3.7489 0
M  V30 3996 H 383.892 -1.98788 2.5547 0
M  V30 3997 H 382.799 0.00276252 3.741 0
M  V30 3998 H 384.132 -0.0160534 4.92197 0
M  V30 3999 N 385.784 -1.5574 0.241426 0
M  V30 4000 C 387.033 -1.97986 -0.385295 0
M  V30 4001 C 387.346 -1.13267 -1.59468 0
M  V30 4002 O 388.552 -1.45501 -2.2922 0
M  V30 4003 C 387.008 -3.52275 -0.736884 0
M  V30 4004 C 386.616 -4.45726 0.450796 0
M  V30 4005 C 388.36 -4.03189 -1.3281 0
M  V30 4006 C 386.267 -5.91352 0.0756662 0
M  V30 4007 H 385.197 -0.739386 -0.147731 0
M  V30 4008 H 387.848 -1.80308 0.340779 0
M  V30 4009 H 386.23 -3.65628 -1.52094 0
M  V30 4010 H 387.404 -4.44131 1.22819 0
M  V30 4011 H 385.719 -4.05264 0.956573 0
M  V30 4012 H 388.316 -5.09505 -1.62201 0
M  V30 4013 H 388.659 -3.50212 -2.25071 0
M  V30 4014 H 389.192 -3.93141 -0.607069 0
M  V30 4015 H 385.931 -6.48354 0.965272 0
M  V30 4016 H 385.451 -5.96095 -0.665635 0
M  V30 4017 H 387.13 -6.46084 -0.344075 0
M  V30 4018 N 387.262 0.0317525 -1.57568 0
M  V30 4019 C 388.673 0.578692 -1.77505 0
M  V30 4020 C 389.024 1.75749 -0.872164 0
M  V30 4021 O 388.149 2.16298 -0.0663106 0
M  V30 4022 C 388.744 1.05658 -3.21904 0
M  V30 4023 C 387.303 1.54906 -3.43047 0
M  V30 4024 C 386.45 0.485939 -2.73009 0
M  V30 4025 H 389.401 -0.194475 -1.57504 0
M  V30 4026 H 389.422 1.92404 -3.28269 0
M  V30 4027 H 388.934 0.198422 -3.87592 0
M  V30 4028 H 387.035 2.42915 -2.82529 0
M  V30 4029 H 387.148 1.59841 -4.5165 0
M  V30 4030 H 385.512 0.940354 -2.36705 0
M  V30 4031 H 386.295 -0.362709 -3.41379 0
M  V30 4032 N 388.74 1.54641 0.303973 0
M  V30 4033 C 390.156 1.45788 0.649463 0
M  V30 4034 C 390.356 0.64666 1.90842 0
M  V30 4035 O 389.412 0.153183 2.52035 0
M  V30 4036 C 390.725 2.89718 0.805227 0
M  V30 4037 C 392.273 2.99742 0.901305 0
M  V30 4038 C 392.748 4.44863 1.08909 0
M  V30 4039 N 394.239 4.48559 1.15536 0
M  V30 4040 C 394.974 5.58026 1.3189 0
M  V30 4041 N 394.47 6.77422 1.45161 0
M  V30 4042 N 396.263 5.45708 1.34755 0
M  V30 4043 H 388.414 2.05854 -0.523237 0
M  V30 4044 H 390.677 0.932186 -0.172431 0
M  V30 4045 H 390.383 3.51666 -0.0489108 0
M  V30 4046 H 390.257 3.36964 1.69513 0
M  V30 4047 H 392.644 2.3791 1.74593 0
M  V30 4048 H 392.725 2.55797 -0.0125531 0
M  V30 4049 H 392.369 5.07288 0.249241 0
M  V30 4050 H 392.299 4.86436 2.01713 0
M  V30 4051 H 394.79 3.6254 1.06646 0
M  V30 4052 H 395.103 7.56604 1.57387 0
M  V30 4053 H 393.448 6.80292 1.42223 0
M  V30 4054 H 396.639 4.51378 1.23996 0
M  V30 4055 H 396.812 6.3107 1.47157 0
M  V30 4056 N 390.218 -0.567019 1.47046 0
M  V30 4057 C 391.128 -1.70247 1.6141 0
M  V30 4058 C 392.144 -1.66746 0.497157 0
M  V30 4059 O 393.32 -1.86371 0.763389 0
M  V30 4060 C 390.385 -3.06756 1.61561 0
M  V30 4061 C 389.446 -3.21399 2.84607 0
M  V30 4062 C 388.679 -4.51396 2.84741 0
M  V30 4063 O 388.902 -5.36255 1.94388 0
M  V30 4064 O 387.836 -4.69621 3.76483 0
M  V30 4065 H 391.662 -1.61073 2.57467 0
M  V30 4066 H 389.247 -0.735894 1.30019 0
M  V30 4067 H 391.129 -3.8801 1.64396 0
M  V30 4068 H 389.804 -3.16333 0.686684 0
M  V30 4069 H 388.711 -2.39579 2.8732 0
M  V30 4070 H 390.044 -3.16721 3.76761 0
M  V30 4071 N 391.696 -1.35014 -0.812953 0
M  V30 4072 C 392.921 -1.31187 -1.60639 0
M  V30 4073 C 393.346 0.109382 -1.87782 0
M  V30 4074 O 392.704 1.07424 -1.46047 0
M  V30 4075 C 392.752 -2.11809 -2.91838 0
M  V30 4076 O 391.856 -1.49444 -3.8437 0
M  V30 4077 H 391.197 -0.450084 -0.488181 0
M  V30 4078 H 393.727 -1.77963 -1.00947 0
M  V30 4079 H 393.737 -2.23531 -3.41318 0
M  V30 4080 H 392.412 -3.15137 -2.71407 0
M  V30 4081 H 390.989 -1.46524 -3.42907 0
M  V30 4082 N 393.175 1.03435 -1.18907 0
M  V30 4083 C 394.105 2.13503 -0.945448 0
M  V30 4084 C 395.086 1.69682 0.119189 0
M  V30 4085 O 396.271 1.94169 -0.034707 0
M  V30 4086 C 393.401 3.44004 -0.477316 0
M  V30 4087 C 392.355 4.0148 -1.48316 0
M  V30 4088 C 391.681 5.27537 -0.872311 0
M  V30 4089 C 392.981 4.36921 -2.86177 0
M  V30 4090 H 394.675 2.34141 -1.86597 0
M  V30 4091 H 392.221 1.12523 -0.898584 0
M  V30 4092 H 394.174 4.20372 -0.294204 0
M  V30 4093 H 392.898 3.23072 0.478786 0
M  V30 4094 H 391.557 3.27201 -1.65332 0
M  V30 4095 H 391.205 5.02917 0.0911752 0
M  V30 4096 H 390.905 5.66954 -1.54393 0
M  V30 4097 H 392.429 6.06576 -0.699871 0
M  V30 4098 H 393.843 5.04248 -2.72776 0
M  V30 4099 H 392.24 4.87405 -3.50081 0
M  V30 4100 H 393.31 3.46466 -3.39248 0
M  V30 4101 N 394.653 0.992116 1.22453 0
M  V30 4102 C 396.069 0.702713 1.43297 0
M  V30 4103 C 396.269 -0.726909 1.87932 0
M  V30 4104 O 395.325 -1.49792 2.0327 0
M  V30 4105 C 396.638 1.70762 2.47509 0
M  V30 4106 C 398.186 1.72298 2.61309 0
M  V30 4107 C 398.661 2.71649 3.68742 0
M  V30 4108 N 400.152 2.70239 3.76199 0
M  V30 4109 C 400.887 3.43778 4.58917 0
M  V30 4110 N 400.383 4.26914 5.45633 0
M  V30 4111 N 402.176 3.32487 4.5322 0
M  V30 4112 H 394.327 1.91543 0.917871 0
M  V30 4113 H 396.59 0.826031 0.465162 0
M  V30 4114 H 396.296 2.73059 2.21657 0
M  V30 4115 H 396.17 1.49985 3.46099 0
M  V30 4116 H 398.557 0.706989 2.86506 0
M  V30 4117 H 398.638 1.97143 1.62997 0
M  V30 4118 H 398.282 3.73397 3.44292 0
M  V30 4119 H 398.212 2.44074 4.66622 0
M  V30 4120 H 400.703 2.09912 3.14237 0
M  V30 4121 H 401.016 4.79855 6.05771 0
M  V30 4122 H 399.361 4.31002 5.45218 0
M  V30 4123 H 402.552 2.6698 3.84499 0
M  V30 4124 H 402.725 3.90058 5.17454 0
M  V30 4125 N 396.131 -1.37776 0.765217 0
M  V30 4126 C 397.061 -2.32945 0.160953 0
M  V30 4127 C 398.042 -1.55454 -0.690516 0
M  V30 4128 O 399.227 -1.83721 -0.629318 0
M  V30 4129 C 396.357 -3.39669 -0.724031 0
M  V30 4130 C 395.311 -4.27992 0.0256173 0
M  V30 4131 C 394.637 -5.25673 -0.978383 0
M  V30 4132 C 395.937 -5.08309 1.20082 0
M  V30 4133 H 397.631 -2.83728 0.955969 0
M  V30 4134 H 395.177 -1.36416 0.461149 0
M  V30 4135 H 397.13 -4.05219 -1.15652 0
M  V30 4136 H 395.854 -2.87396 -1.5515 0
M  V30 4137 H 394.513 -3.63964 0.438812 0
M  V30 4138 H 394.161 -4.69682 -1.80022 0
M  V30 4139 H 393.861 -5.85625 -0.481378 0
M  V30 4140 H 395.385 -5.94098 -1.40995 0
M  V30 4141 H 396.799 -5.67034 0.845307 0
M  V30 4142 H 395.196 -5.77554 1.62947 0
M  V30 4143 H 396.266 -4.41365 2.00811 0
M  V30 4144 N 397.609 -0.515225 -1.4894 0
M  V30 4145 C 398.519 0.259774 -2.33157 0
M  V30 4146 C 399.535 0.953501 -1.45548 0
M  V30 4147 O 400.711 0.931735 -1.78552 0
M  V30 4148 C 397.776 1.30193 -3.21326 0
M  V30 4149 C 396.837 0.620129 -4.24797 0
M  V30 4150 C 396.07 1.61263 -5.08753 0
M  V30 4151 O 396.293 2.84389 -4.94448 0
M  V30 4152 O 395.227 1.16013 -5.90614 0
M  V30 4153 H 399.053 -0.429932 -3.00641 0
M  V30 4154 H 396.638 -0.276346 -1.46822 0
M  V30 4155 H 398.52 1.90455 -3.75905 0
M  V30 4156 H 397.195 1.97431 -2.56521 0
M  V30 4157 H 396.102 -0.0226019 -3.74093 0
M  V30 4158 H 397.435 -0.0100493 -4.92199 0
M  V30 4159 N 399.087 1.5561 -0.249682 0
M  V30 4160 C 400.333 1.99306 0.374841 0
M  V30 4161 C 400.666 1.13767 1.57387 0
M  V30 4162 O 399.941 0.201711 1.93451 0
M  V30 4163 C 400.224 3.51507 0.781986 0
M  V30 4164 C 400.077 4.4781 -0.422629 0
M  V30 4165 C 401.396 4.08884 1.62793 0
M  V30 4166 H 398.515 0.724572 0.134773 0
M  V30 4167 H 401.157 1.86719 -0.351549 0
M  V30 4168 H 399.307 3.62363 1.4009 0
M  V30 4169 H 400.979 4.48931 -1.06108 0
M  V30 4170 H 399.222 4.20518 -1.06524 0
M  V30 4171 H 399.893 5.51919 -0.0943766 0
M  V30 4172 H 402.369 4.01147 1.10547 0
M  V30 4173 H 401.245 5.1564 1.88166 0
M  V30 4174 H 401.506 3.57515 2.60068 0
M  V30 4175 N 400.565 -0.0233959 1.57583 0
M  V30 4176 C 401.512 -1.02224 2.06927 0
M  V30 4177 C 402.482 -1.35575 0.959617 0
M  V30 4178 O 403.667 -1.45815 1.23055 0
M  V30 4179 C 400.807 -2.31636 2.5581 0
M  V30 4180 C 399.92 -2.04394 3.80588 0
M  V30 4181 C 399.055 -3.27717 4.18061 0
M  V30 4182 C 398.094 -2.96056 5.3574 0
M  V30 4183 N 397.231 -4.11847 5.68618 0
M  V30 4184 H 402.071 -0.594504 2.9201 0
M  V30 4185 H 399.608 -0.281921 1.44373 0
M  V30 4186 H 401.566 -3.07258 2.82221 0
M  V30 4187 H 400.196 -2.72122 1.73636 0
M  V30 4188 H 399.248 -1.19244 3.61227 0
M  V30 4189 H 400.56 -1.77042 4.66323 0
M  V30 4190 H 399.714 -4.11702 4.4563 0
M  V30 4191 H 398.453 -3.58188 3.30988 0
M  V30 4192 H 397.458 -2.10474 5.07918 0
M  V30 4193 H 398.683 -2.66857 6.24471 0
M  V30 4194 H 396.629 -4.42258 4.84504 0
M  V30 4195 H 396.546 -3.87938 6.48876 0
M  V30 4196 H 397.814 -4.96689 6.00766 0
M  V30 4197 N 402.043 -1.548 -0.295768 0
M  V30 4198 C 402.973 -1.89115 -1.36959 0
M  V30 4199 C 403.954 -0.75059 -1.52644 0
M  V30 4200 O 405.139 -1.00678 -1.66065 0
M  V30 4201 C 402.269 -2.14307 -2.73295 0
M  V30 4202 C 401.223 -3.30151 -2.72368 0
M  V30 4203 C 400.549 -3.40772 -4.12042 0
M  V30 4204 C 401.849 -4.67126 -2.33646 0
M  V30 4205 H 403.543 -2.79053 -1.08488 0
M  V30 4206 H 401.089 -1.34266 -0.520443 0
M  V30 4207 H 403.042 -2.36898 -3.48507 0
M  V30 4208 H 401.766 -1.21145 -3.03301 0
M  V30 4209 H 400.425 -3.0749 -1.99613 0
M  V30 4210 H 400.073 -2.45117 -4.39234 0
M  V30 4211 H 399.773 -4.18645 -4.12322 0
M  V30 4212 H 401.297 -3.6563 -4.89027 0
M  V30 4213 H 402.711 -4.89414 -2.98575 0
M  V30 4214 H 401.108 -5.47751 -2.45129 0
M  V30 4215 H 402.178 -4.67489 -1.28772 0
M  V30 4216 N 403.521 0.559213 -1.47345 0
M  V30 4217 C 404.769 1.31388 -1.53563 0
M  V30 4218 C 405.09 1.93985 -0.198678 0
M  V30 4219 O 404.36 1.79825 0.777167 0
M  V30 4220 H 402.94 0.487901 -0.565652 0
M  V30 4221 H 405.602 0.65315 -1.8363 0
M  V30 4222 H 404.698 2.10844 -2.30111 0
M  V30 4223 N 404.999 1.35443 0.805782 0
M  V30 4224 C 405.931 1.24285 1.92577 0
M  V30 4225 C 406.944 0.165962 1.61952 0
M  V30 4226 O 408.133 0.419303 1.73505 0
M  V30 4227 C 405.233 0.891272 3.2697 0
M  V30 4228 C 404.406 2.06669 3.85495 0
M  V30 4229 C 403.465 1.69077 4.98297 0
M  V30 4230 O 402.491 2.4096 5.15681 0
M  V30 4231 N 403.693 0.614869 5.77234 0
M  V30 4232 H 406.458 2.20777 2.02676 0
M  V30 4233 H 404.019 1.28623 0.983243 0
M  V30 4234 H 406.011 0.621256 3.99903 0
M  V30 4235 H 404.581 0.016004 3.12596 0
M  V30 4236 H 403.801 2.50046 3.04747 0
M  V30 4237 H 405.089 2.85237 4.21328 0
M  V30 4238 H 404.487 0.017648 5.65697 0
M  V30 4239 H 403.044 0.404636 6.50543 0
M  V30 4240 N 406.477 -1.02803 1.19454 0
M  V30 4241 C 407.725 -1.75869 0.995722 0
M  V30 4242 C 408.046 -1.89138 -0.474543 0
M  V30 4243 O 407.316 -1.42558 -1.34366 0
M  V30 4244 H 405.896 -0.651511 0.365435 0
M  V30 4245 H 408.558 -1.24004 1.50363 0
M  V30 4246 H 407.654 -2.76661 1.44447 0
M  V30 4247 N 407.956 -0.998596 -1.21925 0
M  V30 4248 C 409.196 -0.685948 -1.92546 0
M  V30 4249 C 409.56 0.768441 -1.75952 0
M  V30 4250 O 410.761 1.19277 -2.40887 0
M  V30 4251 C 409.032 -1.08767 -3.40448 0
M  V30 4252 S 410.591 -0.894251 -4.29591 0
M  V30 4253 H 407.409 -0.250622 -0.665364 0
M  V30 4254 H 410.011 -1.28207 -1.47591 0
M  V30 4255 H 408.715 -2.14242 -3.50041 0
M  V30 4256 H 408.246 -0.48357 -3.90417 0
M  V30 4257 H 410.261 0.212149 -4.95746 0
M  V30 4258 N 409.434 1.37368 -0.772513 0
M  V30 4259 C 410.681 1.99673 -0.337182 0
M  V30 4260 C 411.009 1.61324 1.0865 0
M  V30 4261 O 410.264 0.851377 1.7621 0
M  V30 4262 C 410.563 3.54817 -0.428876 0
M  V30 4263 C 410.229 4.12936 -1.81092 0
M  V30 4264 C 408.891 4.28523 -2.1891 0
M  V30 4265 C 411.243 4.44801 -2.71664 0
M  V30 4266 C 408.571 4.73277 -3.46735 0
M  V30 4267 C 410.923 4.90981 -3.98899 0
M  V30 4268 C 409.587 5.04773 -4.36761 0
M  V30 4269 H 408.857 0.730656 -0.123384 0
M  V30 4270 H 411.504 1.64124 -0.986686 0
M  V30 4271 H 409.809 3.90618 0.304167 0
M  V30 4272 H 411.506 4.00933 -0.0733334 0
M  V30 4273 H 408.096 4.01233 -1.50699 0
M  V30 4274 H 412.28 4.32344 -2.43706 0
M  V30 4275 H 407.536 4.82142 -3.75964 0
M  V30 4276 H 411.71 5.14603 -4.69208 0
M  V30 4277 H 409.337 5.39211 -5.35868 0
M  V30 4278 N 410.912 0.523116 1.48665 0
M  V30 4279 C 412.16 -0.0134497 2.02096 0
M  V30 4280 C 412.481 -1.35418 1.40311 0
M  V30 4281 O 411.751 -1.87543 0.566074 0
M  V30 4282 H 410.331 -0.00795915 0.746958 0
M  V30 4283 H 412.993 0.685388 1.82451 0
M  V30 4284 H 412.089 -0.126849 3.11842 0
M  V30 4285 N 412.39 -1.55475 0.257931 0
M  V30 4286 C 413.3 -2.2549 -0.647425 0
M  V30 4287 C 414.316 -1.2748 -1.18427 0
M  V30 4288 O 415.492 -1.6038 -1.2182 0
M  V30 4289 C 412.557 -2.94916 -1.82278 0
M  V30 4290 C 411.618 -4.08363 -1.32432 0
M  V30 4291 C 410.851 -4.74469 -2.44366 0
M  V30 4292 O 411.074 -4.39701 -3.63344 0
M  V30 4293 O 410.008 -5.62763 -2.13497 0
M  V30 4294 H 413.834 -3.03593 -0.0807707 0
M  V30 4295 H 411.419 -1.49377 0.0259962 0
M  V30 4296 H 413.301 -3.38606 -2.50846 0
M  V30 4297 H 411.976 -2.19744 -2.37685 0
M  V30 4298 H 410.883 -3.69166 -0.605605 0
M  V30 4299 H 412.216 -4.85385 -0.816211 0
M  V30 4300 N 413.868 0.0150385 -1.57593 0
M  V30 4301 C 415.114 0.704043 -1.90187 0
M  V30 4302 C 415.447 1.74249 -0.857366 0
M  V30 4303 O 414.722 1.94092 0.125843 0
M  V30 4304 C 415.005 1.36087 -3.33395 0
M  V30 4305 C 414.858 0.334981 -4.48551 0
M  V30 4306 C 416.177 2.29112 -3.7576 0
M  V30 4307 H 413.296 0.254475 -0.691673 0
M  V30 4308 H 415.938 -0.0331678 -1.89971 0
M  V30 4309 H 414.088 1.98922 -3.3371 0
M  V30 4310 H 415.76 -0.292534 -4.60372 0
M  V30 4311 H 414.003 -0.344325 -4.32431 0
M  V30 4312 H 414.674 0.833316 -5.45674 0
M  V30 4313 H 417.15 1.76308 -3.76902 0
M  V30 4314 H 416.026 2.72043 -4.76743 0
M  V30 4315 H 416.287 3.16385 -3.08793 0
M  V30 4316 N 415.346 1.54954 0.287554 0
M  V30 4317 C 416.592 1.76059 1.01856 0
M  V30 4318 C 416.947 0.547056 1.84459 0
M  V30 4319 O 416.24 -0.460442 1.85985 0
M  V30 4320 C 416.434 2.99833 1.94512 0
M  V30 4321 C 416.263 4.33108 1.21026 0
M  V30 4322 C 415.033 4.96632 0.931896 0
M  V30 4323 C 417.231 5.10694 0.607949 0
M  V30 4324 N 415.213 6.13668 0.168716 0
M  V30 4325 C 416.584 6.19996 -0.0217865 0
M  V30 4326 C 418.639 4.95236 0.514338 0
M  V30 4327 C 417.342 7.15524 -0.736092 0
M  V30 4328 C 419.368 5.91106 -0.186343 0
M  V30 4329 C 418.73 6.99786 -0.804875 0
M  V30 4330 H 414.829 0.696679 0.355193 0
M  V30 4331 H 417.413 1.92441 0.295741 0
M  V30 4332 H 415.584 2.84853 2.64033 0
M  V30 4333 H 417.316 3.09405 2.60865 0
M  V30 4334 H 414.071 4.57255 1.23348 0
M  V30 4335 H 414.495 6.76705 -0.199781 0
M  V30 4336 H 419.137 4.11328 0.978234 0
M  V30 4337 H 416.855 7.98964 -1.21172 0
M  V30 4338 H 420.441 5.81224 -0.258897 0
M  V30 4339 H 419.321 7.72694 -1.33843 0
M  V30 4340 N 416.824 -0.551391 1.4764 0
M  V30 4341 C 417.757 -1.6738 1.5511 0
M  V30 4342 C 418.735 -1.5753 0.402856 0
M  V30 4343 O 419.919 -1.78307 0.611475 0
M  V30 4344 C 417.046 -3.05661 1.45908 0
M  V30 4345 C 416.092 -3.33938 2.65307 0
M  V30 4346 S 416.925 -3.22553 4.27457 0
M  V30 4347 C 418.081 -4.63317 4.20818 0
M  V30 4348 H 418.314 -1.6079 2.50068 0
M  V30 4349 H 415.847 -0.732674 1.35909 0
M  V30 4350 H 417.805 -3.8542 1.41286 0
M  V30 4351 H 416.466 -3.09711 0.523248 0
M  V30 4352 H 415.659 -4.34761 2.54948 0
M  V30 4353 H 415.261 -2.61809 2.67081 0
M  V30 4354 H 417.553 -5.54391 3.89431 0
M  V30 4355 H 418.496 -4.78732 5.21748 0
M  V30 4356 H 418.904 -4.41636 3.51593 0
M  V30 4357 N 418.302 -1.35869 -0.798587 0
M  V30 4358 C 419.55 -1.29332 -1.55298 0
M  V30 4359 C 419.871 0.129729 -1.94568 0
M  V30 4360 O 419.141 1.06796 -1.6423 0
M  V30 4361 H 417.721 -0.475737 -0.57592 0
M  V30 4362 H 420.383 -1.70062 -0.952093 0
M  V30 4363 H 419.479 -1.91458 -2.46476 0
M  V30 4364 N 419.78 1.02168 -1.19998 0
M  V30 4365 C 421.008 1.79296 -1.03249 0
M  V30 4366 C 421.423 1.84103 0.418502 0
M  V30 4367 O 420.78 1.29031 1.29063 0
M  V30 4368 C 420.831 3.24007 -1.60319 0
M  V30 4369 O 420.552 3.19512 -2.99739 0
M  V30 4370 C 422.053 4.17704 -1.48453 0
M  V30 4371 H 419.273 0.564016 -0.363493 0
M  V30 4372 H 421.817 1.28639 -1.58973 0
M  V30 4373 H 419.972 3.7183 -1.08727 0
M  V30 4374 H 420.386 4.10306 -3.26725 0
M  V30 4375 H 421.86 5.17104 -1.93153 0
M  V30 4376 H 422.337 4.37029 -0.436193 0
M  V30 4377 H 422.943 3.7576 -1.99211 0
M  V30 4378 N 421.258 1.00505 1.21394 0
M  V30 4379 C 422.504 0.698477 1.91031 0
M  V30 4380 C 422.859 -0.762448 1.76648 0
M  V30 4381 O 422.152 -1.54554 1.13241 0
M  V30 4382 C 422.346 1.0546 3.41486 0
M  V30 4383 C 422.175 2.5486 3.70508 0
M  V30 4384 C 420.945 3.21461 3.8986 0
M  V30 4385 C 423.143 3.53019 3.74008 0
M  V30 4386 N 421.125 4.60211 4.06299 0
M  V30 4387 C 422.496 4.77279 3.95733 0
M  V30 4388 C 424.551 3.47154 3.56915 0
M  V30 4389 C 423.254 5.96388 4.02137 0
M  V30 4390 C 425.28 4.65652 3.64585 0
M  V30 4391 C 424.642 5.88717 3.86771 0
M  V30 4392 H 420.741 0.30707 0.719189 0
M  V30 4393 H 423.325 1.28753 1.46051 0
M  V30 4394 H 421.496 0.494007 3.85246 0
M  V30 4395 H 423.228 0.702765 3.98552 0
M  V30 4396 H 419.983 2.71906 3.87768 0
M  V30 4397 H 420.407 5.32216 4.1842 0
M  V30 4398 H 425.049 2.53015 3.38738 0
M  V30 4399 H 422.767 6.90919 4.19114 0
M  V30 4400 H 426.353 4.62717 3.52681 0
M  V30 4401 H 425.233 6.78877 3.92549 0
M  V30 4402 N 422.737 -1.36956 0.779787 0
M  V30 4403 C 423.685 -2.32053 0.15942 0
M  V30 4404 C 424.679 -1.55333 -0.675878 0
M  V30 4405 O 425.885 -1.70668 -0.57204 0
M  V30 4406 H 422.26 -0.751286 0.0327707 0
M  V30 4407 H 424.231 -2.8195 0.977078 0
M  V30 4408 C 422.98 -3.40602 -0.698977 0
M  V30 4409 H 422.303 -3.99746 -0.0655966 0
M  V30 4410 H 423.743 -4.09486 -1.09989 0
M  V30 4411 C 422.202 -2.81359 -1.85307 0
M  V30 4412 O 422.732 -2.72751 -2.94906 0
M  V30 4413 N 420.938 -2.38786 -1.65619 0
M  V30 4414 H 420.485 -2.45987 -0.764725 0
M  V30 4415 H 420.443 -1.99493 -2.43002 0
M  V30 4416 N 424.215 -0.530993 -1.48385 0
M  V30 4417 C 425.463 0.00273189 -2.021 0
M  V30 4418 C 425.784 1.34672 -1.41027 0
M  V30 4419 O 425.054 1.8724 -0.576012 0
M  V30 4420 H 423.634 0.00399774 -0.746989 0
M  V30 4421 H 426.296 -0.695054 -1.82085 0
M  V30 4422 H 425.392 0.11031 -3.11905 0
M  V30 4423 N 425.693 1.55336 -0.266172 0
M  V30 4424 C 426.921 2.03801 0.356756 0
M  V30 4425 C 427.336 1.14485 1.50129 0
M  V30 4426 O 426.693 0.163121 1.8177 0
M  V30 4427 C 426.744 3.51455 0.846281 0
M  V30 4428 O 426.465 4.37371 -0.252663 0
M  V30 4429 C 427.966 4.15767 1.53794 0
M  V30 4430 H 425.186 0.665906 0.0825218 0
M  V30 4431 H 427.73 2.00636 -0.39566 0
M  V30 4432 H 425.885 3.55092 1.54881 0
M  V30 4433 H 426.299 5.24358 0.122173 0
M  V30 4434 H 427.773 5.20714 1.83198 0
M  V30 4435 H 428.25 3.63404 2.46646 0
M  V30 4436 H 428.856 4.16107 0.879488 0
M  V30 4437 N 427.171 -0.0066808 1.57599 0
M  V30 4438 C 428.399 -0.704087 1.94551 0
M  V30 4439 C 428.814 -1.67677 0.867746 0
M  V30 4440 O 428.171 -1.8185 -0.153925 0
M  V30 4441 C 428.222 -1.44177 3.31505 0
M  V30 4442 O 427.943 -0.508097 4.35144 0
M  V30 4443 C 429.444 -2.23429 3.82876 0
M  V30 4444 H 426.664 -0.196523 0.641576 0
M  V30 4445 H 429.208 0.042453 2.04456 0
M  V30 4446 H 427.363 -2.13999 3.22929 0
M  V30 4447 H 427.777 -1.02782 5.14331 0
M  V30 4448 H 429.251 -2.70552 4.8115 0
M  V30 4449 H 429.728 -3.05818 3.15233 0
M  V30 4450 H 430.334 -1.58636 3.94607 0
M  V30 4451 N 428.649 -1.55105 -0.279332 0
M  V30 4452 C 430.065 -1.46803 -0.626187 0
M  V30 4453 C 430.265 -0.676939 -1.89789 0
M  V30 4454 O 429.321 -0.19326 -2.51759 0
M  V30 4455 C 430.634 -2.90962 -0.759034 0
M  V30 4456 C 432.182 -3.01138 -0.853504 0
M  V30 4457 C 432.657 -4.46539 -1.01818 0
M  V30 4458 N 434.148 -4.50341 -1.08386 0
M  V30 4459 C 434.883 -5.60053 -1.22996 0
M  V30 4460 N 434.379 -6.79645 -1.34366 0
M  V30 4461 N 436.172 -5.47783 -1.26056 0
M  V30 4462 H 428.323 -2.04996 0.555921 0
M  V30 4463 H 430.586 -0.929325 0.187239 0
M  V30 4464 H 430.292 -3.51544 0.104852 0
M  V30 4465 H 430.166 -3.39619 -1.64131 0
M  V30 4466 H 432.553 -2.40658 -1.70786 0
M  V30 4467 H 432.634 -2.55745 0.0532466 0
M  V30 4468 H 432.278 -5.0762 -0.168504 0
M  V30 4469 H 432.208 -4.89583 -1.93948 0
M  V30 4470 H 434.699 -3.64191 -1.00864 0
M  V30 4471 H 435.012 -7.59012 -1.4533 0
M  V30 4472 H 433.357 -6.82469 -1.31382 0
M  V30 4473 H 436.548 -4.53294 -1.168 0
M  V30 4474 H 436.721 -6.33331 -1.37098 0
M  V30 4475 N 430.127 0.543554 -1.4793 0
M  V30 4476 C 431.373 1.30201 -1.55485 0
M  V30 4477 C 431.706 1.92925 -0.222201 0
M  V30 4478 O 430.981 1.78586 0.77053 0
M  V30 4479 C 431.264 2.40174 -2.68307 0
M  V30 4480 C 431.117 1.8223 -4.11233 0
M  V30 4481 C 432.436 3.42024 -2.76961 0
M  V30 4482 H 429.555 0.472036 -0.565996 0
M  V30 4483 H 432.197 0.606914 -1.80046 0
M  V30 4484 H 430.347 2.99463 -2.47495 0
M  V30 4485 H 432.019 1.27096 -4.43446 0
M  V30 4486 H 430.262 1.12832 -4.18869 0
M  V30 4487 H 430.933 2.61793 -4.85972 0
M  V30 4488 H 433.409 2.92672 -2.95774 0
M  V30 4489 H 432.285 4.16383 -3.57654 0
M  V30 4490 H 432.546 4.0173 -1.84568 0
M  V30 4491 N 431.605 1.3629 0.791371 0
M  V30 4492 C 432.568 1.30309 1.88553 0
M  V30 4493 C 433.568 0.211204 1.59407 0
M  V30 4494 O 434.758 0.465865 1.67855 0
M  V30 4495 C 431.89 1.01956 3.25297 0
M  V30 4496 H 433.083 2.27614 1.95273 0
M  V30 4497 H 430.636 1.21035 0.988953 0
M  V30 4498 H 431.371 0.050998 3.2426 0
M  V30 4499 H 431.156 1.80968 3.4784 0
M  V30 4500 H 432.646 1.0037 4.05359 0
M  V30 4501 N 433.083 -1.0153 1.20538 0
M  V30 4502 C 434.332 -1.74558 1.01057 0
M  V30 4503 C 434.645 -1.90168 -0.457756 0
M  V30 4504 O 435.851 -2.60301 -0.771722 0
M  V30 4505 C 434.307 -3.13963 1.75941 0
M  V30 4506 C 433.915 -3.06361 3.26875 0
M  V30 4507 C 435.659 -3.91191 1.64832 0
M  V30 4508 C 433.566 -4.40782 3.94291 0
M  V30 4509 H 432.496 -0.654417 0.374505 0
M  V30 4510 H 435.147 -1.13521 1.44171 0
M  V30 4511 H 433.529 -3.75549 1.25614 0
M  V30 4512 H 434.703 -2.54074 3.84425 0
M  V30 4513 H 433.018 -2.42625 3.38411 0
M  V30 4514 H 435.615 -4.90644 2.12539 0
M  V30 4515 H 435.958 -4.11884 0.604745 0
M  V30 4516 H 436.491 -3.36236 2.12579 0
M  V30 4517 H 433.23 -4.25292 4.98805 0
M  V30 4518 H 432.75 -4.9307 3.41529 0
M  V30 4519 H 434.429 -5.09621 3.98617 0
M  V30 4520 N 434.561 -1.01147 -1.20859 0
M  V30 4521 C 435.508 -0.577354 -2.23462 0
M  V30 4522 C 436.478 0.399922 -1.61214 0
M  V30 4523 O 437.663 0.300515 -1.88419 0
M  V30 4524 C 434.803 0.083372 -3.44999 0
M  V30 4525 C 433.916 -0.937856 -4.21697 0
M  V30 4526 C 433.051 -0.248717 -5.30617 0
M  V30 4527 C 432.09 -1.25705 -5.99053 0
M  V30 4528 N 431.227 -0.594939 -6.99575 0
M  V30 4529 H 436.067 -1.45695 -2.59956 0
M  V30 4530 H 433.604 -0.729428 -1.27741 0
M  V30 4531 H 435.562 0.483535 -4.14388 0
M  V30 4532 H 434.192 0.926645 -3.09214 0
M  V30 4533 H 433.244 -1.45622 -3.51423 0
M  V30 4534 H 434.556 -1.70493 -4.68757 0
M  V30 4535 H 433.71 0.207215 -6.06346 0
M  V30 4536 H 432.449 0.55071 -4.84581 0
M  V30 4537 H 431.454 -1.72343 -5.2209 0
M  V30 4538 H 432.679 -2.05767 -6.47176 0
M  V30 4539 H 430.625 0.184713 -6.5574 0
M  V30 4540 H 430.542 -1.30017 -7.44736 0
M  V30 4541 H 431.81 -0.162427 -7.79331 0
M  V30 4542 N 436.039 1.36541 -0.78704 0
M  V30 4543 C 437.267 2.03561 -0.370199 0
M  V30 4544 C 437.682 1.59347 1.01263 0
M  V30 4545 O 437.039 0.781781 1.64907 0
M  V30 4546 C 437.09 3.59033 -0.421614 0
M  V30 4547 O 436.811 4.01634 -1.7499 0
M  V30 4548 C 438.312 4.433 0.00489763 0
M  V30 4549 H 435.532 0.653346 -0.152904 0
M  V30 4550 H 438.076 1.74566 -1.06522 0
M  V30 4551 H 436.231 3.86746 0.224971 0
M  V30 4552 H 436.645 4.96217 -1.69909 0
M  V30 4553 H 438.119 5.51939 -0.0822184 0
M  V30 4554 H 438.596 4.26285 1.05723 0
M  V30 4555 H 439.202 4.20843 -0.614085 0
M  V30 4556 N 437.518 0.538854 1.48102 0
M  V30 4557 C 438.448 -0.207654 2.32575 0
M  V30 4558 C 439.429 -0.926559 1.4265 0
M  V30 4559 O 440.614 -0.91061 1.71527 0
M  V30 4560 C 437.744 -1.24957 3.24042 0
M  V30 4561 C 436.698 -0.648263 4.23062 0
M  V30 4562 C 436.024 -1.79348 5.03725 0
M  V30 4563 C 437.324 0.385897 5.20872 0
M  V30 4564 H 439.018 0.497534 2.95237 0
M  V30 4565 H 436.564 0.240715 1.41974 0
M  V30 4566 H 438.517 -1.77983 3.81969 0
M  V30 4567 H 437.241 -1.98446 2.59397 0
M  V30 4568 H 435.9 -0.139452 3.66335 0
M  V30 4569 H 435.548 -2.51696 4.35498 0
M  V30 4570 H 435.248 -1.39702 5.70751 0
M  V30 4571 H 436.772 -2.32735 5.64506 0
M  V30 4572 H 438.186 -0.057607 5.73271 0
M  V30 4573 H 436.583 0.700227 5.96001 0
M  V30 4574 H 437.653 1.28848 4.67468 0
M  V30 4575 N 438.996 -1.55193 0.274407 0
M  V30 4576 C 439.943 -2.225 -0.613374 0
M  V30 4577 C 440.913 -1.19823 -1.15029 0
M  V30 4578 O 442.098 -1.48362 -1.19973 0
M  V30 4579 C 439.238 -2.94927 -1.79199 0
M  V30 4580 C 438.351 -4.12322 -1.28899 0
M  V30 4581 C 437.486 -4.72394 -2.42934 0
M  V30 4582 C 436.525 -5.81984 -1.89634 0
M  V30 4583 N 435.662 -6.36123 -2.9714 0
M  V30 4584 H 440.502 -2.97982 -0.032756 0
M  V30 4585 H 438.039 -1.47099 -0.00440146 0
M  V30 4586 H 439.997 -3.35134 -2.48478 0
M  V30 4587 H 438.627 -2.2187 -2.34465 0
M  V30 4588 H 437.679 -3.7724 -0.489327 0
M  V30 4589 H 438.991 -4.91355 -0.858587 0
M  V30 4590 H 438.145 -5.15317 -3.20208 0
M  V30 4591 H 436.884 -3.92636 -2.8929 0
M  V30 4592 H 435.889 -5.38511 -1.1084 0
M  V30 4593 H 437.114 -6.6361 -1.44215 0
M  V30 4594 H 435.06 -5.59259 -3.42878 0
M  V30 4595 H 434.977 -7.10427 -2.58515 0
M  V30 4596 H 436.245 -6.83704 -3.74391 0
M  V30 4597 N 440.474 -0.00167713 -1.576 0
M  V30 4598 C 441.885 0.54091 -1.78693 0
M  V30 4599 C 442.236 1.7386 -0.909247 0
M  V30 4600 O 441.361 2.16109 -0.112176 0
M  V30 4601 C 441.956 0.98806 -3.24072 0
M  V30 4602 C 440.515 1.47594 -3.46256 0
M  V30 4603 C 439.662 0.42792 -2.73978 0
M  V30 4604 H 442.613 -0.22784 -1.57056 0
M  V30 4605 H 442.634 1.85398 -3.32277 0
M  V30 4606 H 442.146 0.116164 -3.87926 0
M  V30 4607 H 440.247 2.36868 -2.87618 0
M  V30 4608 H 440.36 1.50225 -4.54939 0
M  V30 4609 H 438.724 0.889934 -2.38647 0
M  V30 4610 H 439.507 -0.435038 -3.40532 0
M  V30 4611 N 441.952 1.55251 0.271103 0
M  V30 4612 C 443.2 1.75599 1.00047 0
M  V30 4613 C 443.521 0.561188 1.8675 0
M  V30 4614 O 442.791 -0.423846 1.9126 0
M  V30 4615 H 441.371 0.647562 0.372387 0
M  V30 4616 H 444.033 1.92656 0.294876 0
M  V30 4617 H 443.129 2.65766 1.6363 0
M  V30 4618 N 443.43 -0.535701 1.48216 0
M  V30 4619 C 444.658 -1.31671 1.59594 0
M  V30 4620 C 445.073 -1.87083 0.254056 0
M  V30 4621 O 444.43 -1.66112 -0.755854 0
M  V30 4622 C 444.481 -2.47158 2.63809 0
M  V30 4623 O 444.202 -1.94032 3.92789 0
M  V30 4624 C 445.703 -3.39062 2.85573 0
M  V30 4625 H 442.923 -0.400623 0.538277 0
M  V30 4626 H 445.467 -0.646827 1.94001 0
M  V30 4627 H 443.622 -3.10043 2.32276 0
M  V30 4628 H 444.036 -2.69585 4.49916 0
M  V30 4629 H 445.51 -4.16459 3.62306 0
M  V30 4630 H 445.987 -3.93941 1.94184 0
M  V30 4631 H 446.593 -2.81975 3.18387 0
M  V30 4632 N 444.908 -1.36708 -0.784132 0
M  V30 4633 C 445.841 -1.25827 -1.90375 0
M  V30 4634 C 446.819 -0.141331 -1.61985 0
M  V30 4635 O 448.003 -0.313389 -1.85877 0
M  V30 4636 C 445.13 -0.942621 -3.25319 0
M  V30 4637 C 444.176 -2.07474 -3.72635 0
M  V30 4638 S 445.009 -3.69317 -3.8777 0
M  V30 4639 C 446.165 -3.39876 -5.25581 0
M  V30 4640 H 446.398 -2.20593 -1.99314 0
M  V30 4641 H 443.931 -1.22186 -0.943926 0
M  V30 4642 H 445.889 -0.767321 -4.03265 0
M  V30 4643 H 444.55 -0.0126566 -3.14097 0
M  V30 4644 H 443.743 -1.80858 -4.70432 0
M  V30 4645 H 443.345 -2.20953 -3.01754 0
M  V30 4646 H 445.637 -2.94097 -6.10339 0
M  V30 4647 H 446.58 -4.36956 -5.57203 0
M  V30 4648 H 446.988 -2.75098 -4.92931 0
M  V30 4649 N 446.386 1.0089 -1.21074 0
M  V30 4650 C 447.611 1.78727 -1.05221 0
M  V30 4651 C 448.036 1.83932 0.393795 0
M  V30 4652 O 447.394 1.28004 1.28393 0
M  V30 4653 C 447.442 3.20665 -1.64944 0
M  V30 4654 O 446.546 4.02632 -0.892273 0
M  V30 4655 H 445.887 0.550973 -0.370574 0
M  V30 4656 H 448.417 1.26847 -1.60534 0
M  V30 4657 H 448.427 3.71352 -1.69002 0
M  V30 4658 H 447.102 3.16191 -2.70177 0
M  V30 4659 H 445.679 3.61207 -0.926492 0
M  V30 4660 N 447.864 1.01787 1.20321 0
M  V30 4661 C 449.275 0.739307 1.71438 0
M  V30 4662 C 449.626 -0.742041 1.81627 0
M  V30 4663 O 448.751 -1.57903 1.47971 0
M  V30 4664 C 449.346 1.33538 3.11373 0
M  V30 4665 C 447.905 1.10566 3.59795 0
M  V30 4666 C 447.052 1.44028 2.36962 0
M  V30 4667 H 450.003 1.18718 1.05317 0
M  V30 4668 H 450.024 0.726611 3.73498 0
M  V30 4669 H 449.536 2.41352 3.03926 0
M  V30 4670 H 447.637 0.0452405 3.72573 0
M  V30 4671 H 447.75 1.78661 4.44542 0
M  V30 4672 H 446.114 0.85933 2.39766 0
M  V30 4673 H 446.897 2.52901 2.32155 0
M  V30 4674 N 449.342 -1.36122 0.79427 0
M  V30 4675 C 450.252 -2.33769 0.197296 0
M  V30 4676 C 451.268 -1.61276 -0.653153 0
M  V30 4677 O 452.444 -1.9323 -0.5678 0
M  V30 4678 C 449.509 -3.40474 -0.654098 0
M  V30 4679 C 448.57 -4.28759 0.215411 0
M  V30 4680 C 447.803 -5.30368 -0.595443 0
M  V30 4681 O 448.026 -5.40211 -1.83107 0
M  V30 4682 O 446.96 -6.019 0.00721351 0
M  V30 4683 H 450.786 -2.86597 1.00478 0
M  V30 4684 H 448.371 -1.38676 0.555818 0
M  V30 4685 H 450.253 -4.05703 -1.13944 0
M  V30 4686 H 448.928 -2.89937 -1.43938 0
M  V30 4687 H 447.835 -3.66554 0.747615 0
M  V30 4688 H 449.168 -4.82661 0.964332 0
M  V30 4689 N 450.82 -0.546701 -1.47814 0
M  V30 4690 C 451.783 0.196287 -2.28358 0
M  V30 4691 C 452.783 0.852437 -1.36346 0
M  V30 4692 O 453.973 0.709913 -1.59078 0
M  V30 4693 C 451.105 1.28579 -3.15722 0
M  V30 4694 H 452.298 -0.511086 -2.95513 0
M  V30 4695 H 449.851 -0.303248 -1.5333 0
M  V30 4696 H 450.586 2.0259 -2.53235 0
M  V30 4697 H 450.371 0.820229 -3.83425 0
M  V30 4698 H 451.861 1.80793 -3.76435 0
M  V30 4699 N 452.299 1.55045 -0.282633 0
M  V30 4700 C 453.546 1.9976 0.33199 0
M  V30 4701 C 453.874 1.17105 1.55295 0
M  V30 4702 O 453.129 0.230599 1.94337 0
M  V30 4703 C 453.428 3.49422 0.750938 0
M  V30 4704 C 453.094 4.4941 -0.366228 0
M  V30 4705 C 451.756 4.76471 -0.672964 0
M  V30 4706 C 454.108 5.09054 -1.11864 0
M  V30 4707 C 451.436 5.60442 -1.73556 0
M  V30 4708 C 453.788 5.9418 -2.17102 0
M  V30 4709 C 452.452 6.19558 -2.48402 0
M  V30 4710 H 451.722 0.730974 0.121484 0
M  V30 4711 H 454.369 1.8732 -0.39791 0
M  V30 4712 H 452.674 3.59377 1.56063 0
M  V30 4713 H 454.371 3.81432 1.23736 0
M  V30 4714 H 450.961 4.2844 -0.117041 0
M  V30 4715 H 455.145 4.88165 -0.894925 0
M  V30 4716 H 450.401 5.78349 -1.983 0
M  V30 4717 H 454.575 6.39427 -2.75873 0
M  V30 4718 H 452.202 6.84417 -3.30874 0
M  V30 4719 N 453.777 0.010035 1.57597 0
M  V30 4720 C 454.707 -0.976857 2.12084 0
M  V30 4721 C 455.688 -1.35191 1.03235 0
M  V30 4722 O 456.873 -1.43389 1.3097 0
M  V30 4723 C 454.003 -2.26548 2.63236 0
M  V30 4724 C 452.957 -2.03175 3.76701 0
M  V30 4725 C 452.283 -3.38138 4.14206 0
M  V30 4726 C 453.583 -1.38625 5.03568 0
M  V30 4727 H 455.277 -0.523145 2.94794 0
M  V30 4728 H 452.823 -0.250195 1.4181 0
M  V30 4729 H 454.776 -2.95952 2.99984 0
M  V30 4730 H 453.5 -2.74051 1.77661 0
M  V30 4731 H 452.159 -1.36195 3.40362 0
M  V30 4732 H 451.807 -3.83363 3.25641 0
M  V30 4733 H 451.507 -3.23312 4.90656 0
M  V30 4734 H 453.031 -4.08841 4.53521 0
M  V30 4735 H 454.445 -1.98 5.38023 0
M  V30 4736 H 452.842 -1.34256 5.84889 0
M  V30 4737 H 453.912 -0.356722 4.83586 0
M  V30 4738 N 455.255 -1.55392 -0.262866 0
M  V30 4739 C 456.187 -1.85392 -1.34768 0
M  V30 4740 C 457.2 -0.739069 -1.45057 0
M  V30 4741 O 458.389 -1.01703 -1.46693 0
M  V30 4742 C 455.489 -2.01088 -2.72795 0
M  V30 4743 C 454.662 -3.31828 -2.84972 0
M  V30 4744 C 453.721 -3.37464 -4.03738 0
M  V30 4745 O 452.747 -4.10778 -3.94018 0
M  V30 4746 N 453.949 -2.65599 -5.16176 0
M  V30 4747 H 456.714 -2.79029 -1.09375 0
M  V30 4748 H 454.275 -1.55434 -0.452981 0
M  V30 4749 H 456.267 -2.02217 -3.50557 0
M  V30 4750 H 454.837 -1.1427 -2.90966 0
M  V30 4751 H 454.057 -3.43152 -1.94012 0
M  V30 4752 H 455.345 -4.18032 -2.90045 0
M  V30 4753 H 454.743 -2.05736 -5.26962 0
M  V30 4754 H 453.3 -2.72439 -5.92132 0
M  V30 4755 N 456.733 0.527833 -1.48498 0
M  V30 4756 C 457.643 1.65907 -1.65867 0
M  V30 4757 C 458.659 1.6537 -0.541192 0
M  V30 4758 O 459.835 1.84282 -0.812534 0
M  V30 4759 C 456.9 3.02364 -1.69637 0
M  V30 4760 C 455.961 3.1374 -2.93028 0
M  V30 4761 C 455.194 4.43688 -2.96609 0
M  V30 4762 O 455.417 5.30913 -2.08538 0
M  V30 4763 O 454.351 4.59475 -3.88802 0
M  V30 4764 H 458.177 1.5419 -2.61647 0
M  V30 4765 H 455.762 0.701163 -1.31924 0
M  V30 4766 H 457.644 3.83515 -1.74625 0
M  V30 4767 H 456.319 3.14401 -0.770312 0
M  V30 4768 H 455.226 2.31877 -2.93571 0
M  V30 4769 H 456.559 3.06621 -3.85026 0
M  V30 4770 N 458.211 1.37122 0.776871 0
M  V30 4771 C 459.174 1.32301 1.8716 0
M  V30 4772 C 460.174 0.228099 1.59174 0
M  V30 4773 O 461.364 0.483642 1.67352 0
M  V30 4774 C 458.496 1.054 3.24197 0
M  V30 4775 H 459.689 2.29673 1.92848 0
M  V30 4776 H 457.242 1.22077 0.97606 0
M  V30 4777 H 457.977 0.0853872 3.24188 0
M  V30 4778 H 457.762 1.84648 3.45901 0
M  V30 4779 H 459.252 1.04664 4.04271 0
M  V30 4780 N 459.689 -1.00246 1.21608 0
M  V30 4781 C 460.621 -2.09244 0.935401 0
M  V30 4782 C 461.634 -1.62592 -0.0823594 0
M  V30 4783 O 462.823 -1.77865 0.150456 0
M  V30 4784 C 459.923 -3.36724 0.383453 0
M  V30 4785 C 459.096 -4.1245 1.45615 0
M  V30 4786 C 458.155 -5.18219 0.912991 0
M  V30 4787 O 457.181 -5.46337 1.59701 0
M  V30 4788 N 458.383 -5.7987 -0.270478 0
M  V30 4789 H 461.148 -2.33905 1.87373 0
M  V30 4790 H 458.709 -1.16748 1.12167 0
M  V30 4791 H 460.701 -4.047 0.00562157 0
M  V30 4792 H 459.271 -3.09201 -0.459758 0
M  V30 4793 H 458.491 -3.39241 2.00772 0
M  V30 4794 H 459.779 -4.59819 2.17817 0
M  V30 4795 H 459.177 -5.59381 -0.843195 0
M  V30 4796 H 457.734 -6.49126 -0.589794 0
M  V30 4797 N 461.167 -1.02423 -1.1978 0
M  V30 4798 C 462.413 -0.719051 -1.89625 0
M  V30 4799 C 462.746 0.750083 -1.7913 0
M  V30 4800 O 462.021 1.54574 -1.18056 0
M  V30 4801 C 462.304 -1.16499 -3.40735 0
M  V30 4802 C 462.157 -2.695 -3.60125 0
M  V30 4803 C 463.476 -0.742166 -4.33797 0
M  V30 4804 H 460.595 -0.26269 -0.688595 0
M  V30 4805 H 463.237 -1.27333 -1.41018 0
M  V30 4806 H 461.387 -0.69341 -3.82262 0
M  V30 4807 H 463.059 -3.24569 -3.278 0
M  V30 4808 H 461.302 -3.10113 -3.03336 0
M  V30 4809 H 461.973 -2.95757 -4.66081 0
M  V30 4810 H 464.449 -1.1477 -3.99959 0
M  V30 4811 H 463.325 -1.08213 -5.38127 0
M  V30 4812 H 463.586 0.355747 -4.40666 0
M  V30 4813 N 462.645 1.35699 -0.801477 0
M  V30 4814 C 463.578 2.2768 -0.153922 0
M  V30 4815 C 464.556 1.47832 0.67709 0
M  V30 4816 O 465.74 1.77104 0.645474 0
M  V30 4817 C 462.867 3.2943 0.786986 0
M  V30 4818 C 461.913 4.26485 0.0362447 0
M  V30 4819 S 462.746 5.19573 -1.2963 0
M  V30 4820 C 463.902 6.24866 -0.359705 0
M  V30 4821 H 464.135 2.82254 -0.9338 0
M  V30 4822 H 461.668 1.42421 -0.596283 0
M  V30 4823 H 463.626 3.8855 1.32436 0
M  V30 4824 H 462.287 2.73745 1.54021 0
M  V30 4825 H 461.48 4.98378 0.750668 0
M  V30 4826 H 461.082 3.71508 -0.431017 0
M  V30 4827 H 463.374 6.75957 0.456954 0
M  V30 4828 H 464.317 7.00307 -1.04768 0
M  V30 4829 H 464.725 5.64484 0.0423274 0
M  V30 4830 N 464.123 0.554532 1.47522 0
M  V30 4831 C 465.07 -0.19466 2.29978 0
M  V30 4832 C 466.04 -0.910882 1.38896 0
M  V30 4833 O 467.225 -0.907102 1.67858 0
M  V30 4834 C 464.365 -1.22035 3.22802 0
M  V30 4835 C 463.478 -0.510474 4.28973 0
M  V30 4836 C 462.613 -1.52123 5.08952 0
M  V30 4837 C 461.652 -0.796173 6.069 0
M  V30 4838 N 460.789 -1.75363 6.79847 0
M  V30 4839 H 465.629 0.51461 2.93523 0
M  V30 4840 H 463.166 0.265607 1.44682 0
M  V30 4841 H 465.124 -1.8276 3.7504 0
M  V30 4842 H 463.754 -1.89769 2.61127 0
M  V30 4843 H 462.806 0.211234 3.79813 0
M  V30 4844 H 464.118 0.0576503 4.98767 0
M  V30 4845 H 463.272 -2.20207 5.65326 0
M  V30 4846 H 462.011 -2.12327 4.39054 0
M  V30 4847 H 461.016 -0.101388 5.49707 0
M  V30 4848 H 462.241 -0.199911 6.78806 0
M  V30 4849 H 460.187 -2.3443 6.12682 0
M  V30 4850 H 460.104 -1.23759 7.45801 0
M  V30 4851 H 461.372 -2.4257 7.40797 0
M  V30 4852 N 465.601 -1.54893 0.290851 0
M  V30 4853 C 466.548 -2.23138 -0.58974 0
M  V30 4854 C 467.518 -1.21036 -1.13752 0
M  V30 4855 O 468.703 -1.49626 -1.18392 0
M  V30 4856 C 465.843 -2.96811 -1.76061 0
M  V30 4857 C 464.956 -4.13665 -1.24519 0
M  V30 4858 C 464.091 -4.74944 -2.3791 0
M  V30 4859 C 463.13 -5.83963 -1.83451 0
M  V30 4860 N 462.267 -6.39239 -2.90376 0
M  V30 4861 H 467.107 -2.98 -0.00114915 0
M  V30 4862 H 464.644 -1.47096 0.0112006 0
M  V30 4863 H 466.602 -3.37751 -2.44909 0
M  V30 4864 H 465.232 -2.24344 -2.32098 0
M  V30 4865 H 464.284 -3.77737 -0.449288 0
M  V30 4866 H 465.596 -4.92238 -0.806424 0
M  V30 4867 H 464.75 -5.18684 -3.14724 0
M  V30 4868 H 463.489 -3.95682 -2.85109 0
M  V30 4869 H 462.494 -5.39657 -1.05122 0
M  V30 4870 H 463.719 -6.65103 -1.37169 0
M  V30 4871 H 461.665 -5.62864 -3.36927 0
M  V30 4872 H 461.582 -7.13129 -2.50965 0
M  V30 4873 H 462.85 -6.87637 -3.67118 0
M  V30 4874 N 467.08 -0.0183926 -1.57589 0
M  V30 4875 C 468.01 0.965596 -2.12599 0
M  V30 4876 C 468.991 1.34641 -1.0395 0
M  V30 4877 O 470.176 1.42693 -1.31729 0
M  V30 4878 C 467.306 2.25149 -2.64434 0
M  V30 4879 C 466.26 2.01175 -3.77773 0
M  V30 4880 C 465.586 3.35937 -4.15994 0
M  V30 4881 C 466.886 1.35953 -5.04296 0
M  V30 4882 H 468.58 0.507504 -2.95067 0
M  V30 4883 H 466.126 0.242671 -1.41941 0
M  V30 4884 H 468.079 2.94357 -3.01549 0
M  V30 4885 H 466.803 2.73105 -1.79112 0
M  V30 4886 H 465.462 1.34388 -3.4108 0
M  V30 4887 H 465.11 3.81631 -3.27669 0
M  V30 4888 H 464.81 3.20705 -4.92364 0
M  V30 4889 H 466.334 4.0643 -4.55683 0
M  V30 4890 H 467.748 1.95144 -5.39065 0
M  V30 4891 H 466.145 1.31152 -5.85593 0
M  V30 4892 H 467.215 0.331071 -4.83768 0
M  V30 4893 N 468.558 1.5553 0.254621 0
M  V30 4894 C 469.974 1.4778 0.602753 0
M  V30 4895 C 470.174 0.707047 1.88688 0
M  V30 4896 O 469.23 0.233288 2.5142 0
M  V30 4897 C 470.543 2.92133 0.712648 0
M  V30 4898 C 472.091 3.02458 0.805488 0
M  V30 4899 C 472.566 4.48102 0.947009 0
M  V30 4900 N 474.057 4.52008 1.01207 0
M  V30 4901 C 474.792 5.61939 1.1407 0
M  V30 4902 N 474.288 6.81697 1.23536 0
M  V30 4903 N 476.081 5.49719 1.17325 0
M  V30 4904 H 468.232 2.04085 -0.588463 0
M  V30 4905 H 470.495 0.926229 -0.202001 0
M  V30 4906 H 470.201 3.51332 -0.160766 0
M  V30 4907 H 470.075 3.42187 1.58707 0
M  V30 4908 H 472.462 2.43344 1.66936 0
M  V30 4909 H 472.543 2.55627 -0.0939266 0
M  V30 4910 H 472.187 5.07824 0.087725 0
M  V30 4911 H 472.117 4.92607 1.86135 0
M  V30 4912 H 474.608 3.65749 0.950577 0
M  V30 4913 H 474.921 7.61228 1.33236 0
M  V30 4914 H 473.266 6.84473 1.20508 0
M  V30 4915 H 476.457 4.55095 1.09573 0
M  V30 4916 H 476.63 6.35432 1.27005 0
M  V30 4917 N 470.036 -0.519951 1.48776 0
M  V30 4918 C 470.986 -1.61995 1.60442 0
M  V30 4919 C 471.97 -1.54155 0.460991 0
M  V30 4920 O 473.162 -1.62006 0.712965 0
M  V30 4921 C 470.291 -3.00683 1.65664 0
M  V30 4922 C 469.377 -3.1359 2.8552 0
M  V30 4923 N 469.768 -2.96441 4.09825 0
M  V30 4924 C 468.066 -3.44662 2.83062 0
M  V30 4925 C 468.767 -3.1303 4.90293 0
M  V30 4926 N 467.743 -3.41058 4.23297 0
M  V30 4927 H 471.545 -1.47362 2.54287 0
M  V30 4928 H 469.059 -0.725649 1.45286 0
M  V30 4929 H 471.056 -3.79712 1.72117 0
M  V30 4930 H 469.716 -3.16401 0.729425 0
M  V30 4931 H 470.727 -2.72999 4.40104 0
M  V30 4932 H 467.404 -3.66675 1.9964 0
M  V30 4933 H 468.794 -3.04424 5.98979 0
M  V30 4934 N 471.514 -1.37532 -0.769588 0
M  V30 4935 C 472.424 -1.35668 -1.91393 0
M  V30 4936 C 473.44 -0.255954 -1.72107 0
M  V30 4937 O 474.616 -0.491704 -1.95305 0
M  V30 4938 C 471.681 -1.16481 -3.26547 0
M  V30 4939 C 470.742 -2.36212 -3.58472 0
M  V30 4940 C 469.975 -2.17932 -4.87177 0
M  V30 4941 O 470.198 -1.1647 -5.58382 0
M  V30 4942 O 469.132 -3.06167 -5.18214 0
M  V30 4943 H 472.958 -2.32055 -1.95918 0
M  V30 4944 H 470.543 -1.18284 -0.912641 0
M  V30 4945 H 472.425 -1.07778 -4.07384 0
M  V30 4946 H 471.1 -0.231687 -3.2287 0
M  V30 4947 H 470.007 -2.50488 -2.77861 0
M  V30 4948 H 471.34 -3.281 -3.66894 0
M  V30 4949 N 472.992 0.995999 -1.22138 0
M  V30 4950 C 473.939 2.08551 -0.988687 0
M  V30 4951 C 474.909 1.65864 0.0885021 0
M  V30 4952 O 476.094 1.90704 -0.0604589 0
M  V30 4953 C 473.234 3.40374 -0.569191 0
M  V30 4954 C 472.347 3.96421 -1.71681 0
M  V30 4955 C 471.482 5.1639 -1.2456 0
M  V30 4956 C 470.521 5.64567 -2.36497 0
M  V30 4957 N 469.658 6.75777 -1.90445 0
M  V30 4958 H 474.498 2.2779 -1.92135 0
M  V30 4959 H 472.035 1.1168 -0.957388 0
M  V30 4960 H 473.993 4.16068 -0.307166 0
M  V30 4961 H 472.623 3.21145 0.326462 0
M  V30 4962 H 471.675 3.17628 -2.09324 0
M  V30 4963 H 472.987 4.2816 -2.55891 0
M  V30 4964 H 472.141 5.99362 -0.940774 0
M  V30 4965 H 470.88 4.86266 -0.373662 0
M  V30 4966 H 469.885 4.80185 -2.67772 0
M  V30 4967 H 471.11 5.96716 -3.24202 0
M  V30 4968 H 469.056 6.47443 -1.05609 0
M  V30 4969 H 468.973 7.06818 -2.68223 0
M  V30 4970 H 470.241 7.62262 -1.63022 0
M  V30 4971 N 474.47 1.03057 1.19235 0
M  V30 4972 C 475.4 0.633497 2.24742 0
M  V30 4973 C 476.381 -0.358335 1.66283 0
M  V30 4974 O 477.566 -0.240676 1.92703 0
M  V30 4975 C 474.696 -0.0147648 3.47297 0
M  V30 4976 C 473.65 0.899527 4.18441 0
M  V30 4977 C 472.976 0.116281 5.34574 0
M  V30 4978 C 474.276 2.21404 4.73051 0
M  V30 4979 H 475.97 1.5155 2.58211 0
M  V30 4980 H 473.516 0.73014 1.24117 0
M  V30 4981 H 475.469 -0.304202 4.20301 0
M  V30 4982 H 474.193 -0.931577 3.13032 0
M  V30 4983 H 472.852 1.17319 3.47321 0
M  V30 4984 H 472.5 -0.802619 4.96555 0
M  V30 4985 H 472.2 0.725293 5.83107 0
M  V30 4986 H 473.724 -0.166376 6.10373 0
M  V30 4987 H 475.138 1.98601 5.37802 0
M  V30 4988 H 473.535 2.77512 5.32078 0
M  V30 4989 H 474.605 2.86752 3.91026 0
M  V30 4990 N 475.948 -1.35272 0.808662 0
M  V30 4991 C 477.194 -1.99003 0.390581 0
M  V30 4992 C 477.527 -1.63999 -1.0401 0
M  V30 4993 O 476.802 -0.904368 -1.72196 0
M  V30 4994 C 477.085 -3.55454 0.576566 0
M  V30 4995 C 476.938 -4.00249 2.05233 0
M  V30 4996 C 478.257 -4.401 0.00354277 0
M  V30 4997 H 475.376 -0.722917 0.143388 0
M  V30 4998 H 478.018 -1.6039 1.01858 0
M  V30 4999 H 476.168 -3.88477 0.0419766 0
M  V30 5000 H 477.84 -3.77626 2.64946 0
M  V30 5001 H 476.083 -3.51082 2.54801 0
M  V30 5002 H 476.754 -5.0911 2.13333 0
M  V30 5003 H 479.23 -4.13548 0.460117 0
M  V30 5004 H 478.106 -5.48656 0.163575 0
M  V30 5005 H 478.367 -4.28444 -1.09032 0
M  V30 5006 N 477.426 -0.562348 -1.47226 0
M  V30 5007 C 478.358 0.220011 -2.28142 0
M  V30 5008 C 479.371 0.874596 -1.37312 0
M  V30 5009 O 480.56 0.747583 -1.62091 0
M  V30 5010 C 477.66 1.32953 -3.11732 0
M  V30 5011 C 476.833 0.770759 -4.30556 0
M  V30 5012 C 475.892 1.76541 -4.95701 0
M  V30 5013 O 474.918 1.3095 -5.53932 0
M  V30 5014 N 476.12 3.09896 -4.90861 0
M  V30 5015 H 478.885 -0.474107 -2.95926 0
M  V30 5016 H 476.446 -0.398761 -1.56912 0
M  V30 5017 H 478.438 1.99378 -3.5218 0
M  V30 5018 H 477.008 1.92681 -2.46156 0
M  V30 5019 H 476.228 -0.0704056 -3.94137 0
M  V30 5020 H 477.516 0.376872 -5.07402 0
M  V30 5021 H 476.914 3.49577 -4.44761 0
M  V30 5022 H 475.471 3.71865 -5.35313 0
M  V30 5023 N 478.904 1.54736 -0.299062 0
M  V30 5024 C 479.834 2.26409 0.571085 0
M  V30 5025 C 480.815 1.2629 1.13951 0
M  V30 5026 O 482 1.55059 1.16921 0
M  V30 5027 C 479.13 3.00338 1.74396 0
M  V30 5028 C 478.084 4.07588 1.30599 0
M  V30 5029 C 477.41 4.69222 2.56387 0
M  V30 5030 C 478.71 5.20455 0.438645 0
M  V30 5031 H 480.404 2.99388 -0.0266991 0
M  V30 5032 H 477.95 1.43993 -0.0142812 0
M  V30 5033 H 479.903 3.49198 2.35878 0
M  V30 5034 H 478.627 2.24934 2.36796 0
M  V30 5035 H 477.286 3.59575 0.71424 0
M  V30 5036 H 476.934 3.9046 3.17097 0
M  V30 5037 H 476.634 5.41653 2.27784 0
M  V30 5038 H 478.158 5.20844 3.18675 0
M  V30 5039 H 479.572 5.65221 0.959085 0
M  V30 5040 H 477.969 5.99594 0.246466 0
M  V30 5041 H 479.039 4.8192 -0.536738 0
M  V30 5042 N 480.382 0.0267497 1.57577 0
M  V30 5043 C 481.612 -0.6617 1.95717 0
M  V30 5044 C 482.02 -1.66331 0.901706 0
M  V30 5045 O 481.363 -1.83273 -0.125241 0
M  V30 5046 C 481.425 -1.42649 3.29987 0
M  V30 5047 C 481.089 -0.583482 4.5326 0
M  V30 5048 C 482.086 0.140221 5.19711 0
M  V30 5049 C 479.771 -0.521581 4.99585 0
M  V30 5050 C 481.765 0.914523 6.30805 0
M  V30 5051 C 479.452 0.256428 6.10562 0
M  V30 5052 C 480.45 0.973189 6.76031 0
M  V30 5053 O 480.138 1.73845 7.84878 0
M  V30 5054 H 479.87 -0.187483 0.649481 0
M  V30 5055 H 482.424 0.0820847 2.05236 0
M  V30 5056 H 480.654 -2.21536 3.16952 0
M  V30 5057 H 482.343 -2.00282 3.53047 0
M  V30 5058 H 483.109 0.101716 4.84893 0
M  V30 5059 H 478.988 -1.06904 4.48433 0
M  V30 5060 H 482.532 1.4745 6.81839 0
M  V30 5061 H 478.429 0.296657 6.44818 0
M  V30 5062 H 479.197 1.65797 8.01532 0
M  V30 5063 N 481.861 -1.55662 -0.24637 0
M  V30 5064 C 482.824 -1.89558 -1.28842 0
M  V30 5065 C 483.824 -0.772082 -1.41052 0
M  V30 5066 O 485.014 -1.04007 -1.39743 0
M  V30 5067 C 482.146 -2.12449 -2.66605 0
M  V30 5068 H 483.339 -2.82735 -1.00004 0
M  V30 5069 H 480.892 -1.48562 -0.485684 0
M  V30 5070 H 481.627 -1.21742 -3.00582 0
M  V30 5071 H 481.412 -2.94273 -2.59125 0
M  V30 5072 H 482.902 -2.39854 -3.41847 0
M  V30 5073 N 483.339 0.512053 -1.4905 0
M  V30 5074 C 484.585 1.26874 -1.58212 0
M  V30 5075 C 484.918 1.9241 -0.263073 0
M  V30 5076 O 484.193 1.80181 0.732476 0
M  V30 5077 C 484.476 2.34428 -2.73341 0
M  V30 5078 C 484.329 1.73466 -4.15006 0
M  V30 5079 C 485.648 3.36073 -2.84154 0
M  V30 5080 H 482.767 0.459924 -0.575881 0
M  V30 5081 H 485.409 0.568587 -1.81293 0
M  V30 5082 H 483.559 2.94146 -2.53792 0
M  V30 5083 H 485.231 1.17661 -4.46042 0
M  V30 5084 H 483.474 1.03921 -4.21168 0
M  V30 5085 H 484.145 2.51426 -4.91415 0
M  V30 5086 H 486.621 2.86332 -3.01916 0
M  V30 5087 H 485.497 4.08703 -3.66406 0
M  V30 5088 H 485.758 3.97725 -1.93048 0
M  V30 5089 N 484.817 1.37938 0.762283 0
M  V30 5090 C 486.063 1.33866 1.52341 0
M  V30 5091 C 486.396 -0.0738961 1.94059 0
M  V30 5092 O 485.671 -1.03326 1.64785 0
M  V30 5093 C 485.954 2.28644 2.78197 0
M  V30 5094 C 485.807 3.78722 2.42672 0
M  V30 5095 C 487.126 2.21702 3.80179 0
M  V30 5096 H 484.245 0.487593 0.55265 0
M  V30 5097 H 486.887 1.68717 0.873767 0
M  V30 5098 H 485.037 1.99055 3.33631 0
M  V30 5099 H 486.709 4.18948 1.93081 0
M  V30 5100 H 484.952 3.96827 1.75244 0
M  V30 5101 H 485.623 4.40486 3.3268 0
M  V30 5102 H 488.099 2.47805 3.34263 0
M  V30 5103 H 486.975 2.90143 4.65949 0
M  V30 5104 H 487.236 1.21301 4.25133 0
M  V30 5105 N 486.295 -0.989507 1.22664 0
M  V30 5106 C 487.52 -1.77031 1.08051 0
M  V30 5107 C 487.945 -1.84535 -0.364483 0
M  V30 5108 O 487.303 -1.3003 -1.2634 0
M  V30 5109 C 487.351 -3.18 1.70024 0
M  V30 5110 O 486.455 -4.01161 0.956216 0
M  V30 5111 H 485.796 -0.545008 0.379292 0
M  V30 5112 H 488.326 -1.24277 1.62531 0
M  V30 5113 H 488.336 -3.68616 1.74888 0
M  V30 5114 H 487.011 -3.11853 2.75174 0
M  V30 5115 H 485.588 -3.59687 0.98384 0
M  V30 5116 N 487.773 -1.03688 -1.18687 0
M  V30 5117 C 488.683 -0.634908 -2.25845 0
M  V30 5118 C 489.699 0.337065 -1.70704 0
M  V30 5119 O 490.875 0.192943 -2.00474 0
M  V30 5120 C 487.94 -0.000180054 -3.467 0
M  V30 5121 C 487.001 -1.02067 -4.1699 0
M  V30 5122 C 486.234 -0.41614 -5.32075 0
M  V30 5123 O 486.457 0.778712 -5.65059 0
M  V30 5124 O 485.391 -1.14296 -5.90948 0
M  V30 5125 H 489.217 -1.52757 -2.62486 0
M  V30 5126 H 486.802 -0.807533 -1.25695 0
M  V30 5127 H 488.684 0.353342 -4.19916 0
M  V30 5128 H 487.359 0.866367 -3.11891 0
M  V30 5129 H 486.266 -1.42592 -3.45859 0
M  V30 5130 H 487.599 -1.85786 -4.5579 0
M  V30 5131 N 489.251 1.34841 -0.815825 0
M  V30 5132 C 490.161 2.33425 -0.234462 0
M  V30 5133 C 491.177 1.62295 0.627413 0
M  V30 5134 O 492.353 1.94109 0.536987 0
M  V30 5135 C 489.418 3.41471 0.599849 0
M  V30 5136 C 488.479 4.28362 -0.283596 0
M  V30 5137 C 487.712 5.31248 0.51099 0
M  V30 5138 O 487.935 5.43056 1.7449 0
M  V30 5139 O 486.869 6.01812 -0.10297 0
M  V30 5140 H 490.695 2.84962 -1.05024 0
M  V30 5141 H 488.28 1.37774 -0.577809 0
M  V30 5142 H 490.162 4.07464 1.07475 0
M  V30 5143 H 488.837 2.9219 1.39308 0
M  V30 5144 H 487.744 3.65318 -0.805836 0
M  V30 5145 H 489.077 4.81066 -1.041 0
M  V30 5146 N 490.729 0.570148 1.46925 0
M  V30 5147 C 492.14 0.1402 1.86173 0
M  V30 5148 C 492.491 -1.29347 1.47526 0
M  V30 5149 O 491.616 -1.97508 0.884292 0
M  V30 5150 C 492.211 0.247661 3.37894 0
M  V30 5151 C 490.77 -0.127332 3.76185 0
M  V30 5152 C 489.917 0.589349 2.70965 0
M  V30 5153 H 492.868 0.779117 1.38259 0
M  V30 5154 H 492.889 -0.530341 3.76786 0
M  V30 5155 H 492.401 1.29121 3.65991 0
M  V30 5156 H 490.502 -1.17149 3.53704 0
M  V30 5157 H 490.615 0.240238 4.78497 0
M  V30 5158 H 488.979 0.0309824 2.54681 0
M  V30 5159 H 489.762 1.6343 3.01903 0
M  V30 5160 N 492.207 -1.54576 0.307264 0
M  V30 5161 C 493.456 -1.99442 -0.300976 0
M  V30 5162 C 493.769 -1.19928 -1.5452 0
M  V30 5163 O 494.975 -1.55092 -2.22842 0
M  V30 5164 C 493.431 -3.55084 -0.586809 0
M  V30 5165 C 493.039 -4.43413 0.639438 0
M  V30 5166 C 494.783 -4.0846 -1.1559 0
M  V30 5167 C 492.69 -5.90499 0.326411 0
M  V30 5168 H 491.62 -0.744986 -0.116238 0
M  V30 5169 H 494.271 -1.787 0.416947 0
M  V30 5170 H 492.653 -3.71749 -1.36449 0
M  V30 5171 H 493.827 -4.38522 1.41545 0
M  V30 5172 H 492.142 -4.00842 1.1276 0
M  V30 5173 H 494.739 -5.15926 -1.40445 0
M  V30 5174 H 495.082 -3.59443 -2.10015 0
M  V30 5175 H 495.615 -3.95362 -0.439778 0
M  V30 5176 H 492.354 -6.43676 1.23939 0
M  V30 5177 H 491.874 -5.98382 -0.412212 0
M  V30 5178 H 493.553 -6.46962 -0.0697393 0
M  V30 5179 N 493.685 -0.035106 -1.57561 0
M  V30 5180 C 494.915 0.651312 -1.96065 0
M  V30 5181 C 495.323 1.6585 -0.910514 0
M  V30 5182 O 494.666 1.83336 0.11552 0
M  V30 5183 C 494.728 1.40897 -3.30739 0
M  V30 5184 C 494.392 0.559436 -4.53563 0
M  V30 5185 C 495.389 -0.16778 -5.19629 0
M  V30 5186 C 493.074 0.495079 -4.99854 0
M  V30 5187 C 495.068 -0.947963 -6.30311 0
M  V30 5188 C 492.755 -0.288804 -6.10417 0
M  V30 5189 C 493.753 -1.00903 -6.75505 0
M  V30 5190 O 493.441 -1.78005 -7.83945 0
M  V30 5191 H 493.173 0.184036 -0.650467 0
M  V30 5192 H 495.727 -0.0929677 -2.05189 0
M  V30 5193 H 493.957 2.19852 -3.18123 0
M  V30 5194 H 495.646 1.98407 -3.54104 0
M  V30 5195 H 496.412 -0.12743 -4.84833 0
M  V30 5196 H 492.291 1.04524 -4.48994 0
M  V30 5197 H 495.835 -1.51064 -6.81047 0
M  V30 5198 H 491.732 -0.33085 -6.44652 0
M  V30 5199 H 492.5 -1.70046 -8.00641 0
M  V30 5200 N 495.163 1.55791 0.238111 0
M  V30 5201 C 496.412 1.77234 0.962868 0
M  V30 5202 C 496.725 0.600661 1.86149 0
M  V30 5203 O 497.931 0.698315 2.62366 0
M  V30 5204 C 496.387 3.13808 1.76218 0
M  V30 5205 C 495.995 4.3865 0.910518 0
M  V30 5206 C 497.739 3.44585 2.47914 0
M  V30 5207 C 495.646 5.66252 1.70623 0
M  V30 5208 H 494.576 0.660731 0.36325 0
M  V30 5209 H 497.227 1.8221 0.217242 0
M  V30 5210 H 495.609 3.02963 2.55009 0
M  V30 5211 H 496.783 4.60507 0.164316 0
M  V30 5212 H 495.098 4.15271 0.30647 0
M  V30 5213 H 497.695 4.3714 3.07917 0
M  V30 5214 H 498.038 2.66314 3.19973 0
M  V30 5215 H 498.571 3.56685 1.76127 0
M  V30 5216 H 495.31 6.47369 1.02923 0
M  V30 5217 H 494.83 5.48483 2.42748 0
M  V30 5218 H 496.509 6.05829 2.27114 0
M  V30 5219 N 496.642 -0.504142 1.49319 0
M  V30 5220 C 497.888 -1.26033 1.58882 0
M  V30 5221 C 498.221 -1.92268 0.273274 0
M  V30 5222 O 497.496 -1.80567 -0.72291 0
M  V30 5223 C 497.779 -2.32976 2.7458 0
M  V30 5224 C 497.632 -1.71263 4.1592 0
M  V30 5225 C 498.951 -3.34561 2.85932 0
M  V30 5226 H 496.07 -0.456863 0.578312 0
M  V30 5227 H 498.712 -0.558965 1.81592 0
M  V30 5228 H 496.862 -2.92796 2.55348 0
M  V30 5229 H 498.534 -1.15294 4.4666 0
M  V30 5230 H 496.777 -1.01686 4.21714 0
M  V30 5231 H 497.448 -2.48816 4.92742 0
M  V30 5232 H 499.924 -2.84727 3.0343 0
M  V30 5233 H 498.8 -4.06754 3.68568 0
M  V30 5234 H 499.061 -3.96695 1.95154 0
M  V30 5235 N 498.12 -1.38341 -0.754957 0
M  V30 5236 C 499.348 -1.37704 -1.54419 0
M  V30 5237 C 499.763 0.0335243 -1.8877 0
M  V30 5238 O 499.12 0.999773 -1.52679 0
M  V30 5239 C 499.171 -2.23136 -2.84416 0
M  V30 5240 O 498.892 -3.58697 -2.51531 0
M  V30 5241 C 500.393 -2.30664 -3.78562 0
M  V30 5242 H 497.613 -0.471061 -0.477852 0
M  V30 5243 H 500.157 -1.81902 -0.934446 0
M  V30 5244 H 498.312 -1.82403 -3.41772 0
M  V30 5245 H 498.726 -4.03665 -3.34896 0
M  V30 5246 H 500.2 -2.9473 -4.66732 0
M  V30 5247 H 500.677 -1.3199 -4.18898 0
M  V30 5248 H 501.283 -2.71781 -3.27131 0
M  V30 5249 N 499.598 0.982988 -1.23187 0
M  V30 5250 C 500.508 2.10907 -1.02739 0
M  V30 5251 C 501.524 1.73979 0.0273188 0
M  V30 5252 O 502.7 2.00702 -0.16757 0
M  V30 5253 C 499.765 3.41142 -0.618304 0
M  V30 5254 C 498.826 3.92112 -1.74777 0
M  V30 5255 C 498.059 5.16131 -1.3581 0
M  V30 5256 O 498.282 5.6989 -0.241201 0
M  V30 5257 O 497.216 5.61103 -2.17824 0
M  V30 5258 H 501.042 2.31046 -1.97108 0
M  V30 5259 H 498.627 1.09284 -1.01869 0
M  V30 5260 H 500.509 4.19488 -0.400982 0
M  V30 5261 H 499.184 3.2234 0.296421 0
M  V30 5262 H 498.091 3.14895 -2.0197 0
M  V30 5263 H 499.424 4.15364 -2.64071 0
M  V30 5264 N 501.076 1.04316 1.18135 0
M  V30 5265 C 502.306 0.767003 1.91835 0
M  V30 5266 C 502.714 -0.68002 1.76557 0
M  V30 5267 O 502.057 -1.47548 1.09432 0
M  V30 5268 C 502.119 1.05674 3.43618 0
M  V30 5269 C 501.783 2.49818 3.82675 0
M  V30 5270 C 502.78 3.48003 3.86251 0
M  V30 5271 C 500.465 2.84596 4.13897 0
M  V30 5272 C 502.459 4.79016 4.20503 0
M  V30 5273 C 500.146 4.15813 4.4782 0
M  V30 5274 C 501.144 5.12834 4.51099 0
M  V30 5275 O 500.832 6.41699 4.84229 0
M  V30 5276 H 500.564 0.278948 0.615763 0
M  V30 5277 H 503.118 1.3946 1.50798 0
M  V30 5278 H 501.348 0.372029 3.84906 0
M  V30 5279 H 503.037 0.767994 3.98568 0
M  V30 5280 H 503.803 3.22475 3.62264 0
M  V30 5281 H 499.682 2.09748 4.1052 0
M  V30 5282 H 503.226 5.54739 4.22978 0
M  V30 5283 H 499.123 4.41109 4.71268 0
M  V30 5284 H 499.891 6.46387 5.02121 0
M  V30 5285 N 502.554 -1.34406 0.822964 0
M  V30 5286 C 503.487 -2.27407 0.190124 0
M  V30 5287 C 504.465 -1.4889 -0.653486 0
M  V30 5288 O 505.649 -1.78109 -0.617216 0
M  V30 5289 C 502.776 -3.3064 -0.734477 0
M  V30 5290 C 501.822 -4.26488 0.0316099 0
M  V30 5291 S 502.655 -5.17445 1.3788 0
M  V30 5292 C 503.811 -6.24214 0.45907 0
M  V30 5293 H 504.044 -2.80733 0.978586 0
M  V30 5294 H 501.577 -1.41455 0.618866 0
M  V30 5295 H 503.535 -3.90607 -1.26238 0
M  V30 5296 H 502.196 -2.76161 -1.49646 0
M  V30 5297 H 501.389 -4.9951 -0.671285 0
M  V30 5298 H 500.991 -3.70775 0.490066 0
M  V30 5299 H 503.283 -6.76599 -0.349357 0
M  V30 5300 H 504.226 -6.98551 1.15896 0
M  V30 5301 H 504.634 -5.6448 0.0474825 0
M  V30 5302 N 504.032 -0.577932 -1.46621 0
M  V30 5303 C 505.257 -0.0652536 -2.07297 0
M  V30 5304 C 505.682 1.22828 -1.4246 0
M  V30 5305 O 505.04 1.74075 -0.506718 0
M  V30 5306 C 505.088 0.0920589 -3.60482 0
M  V30 5307 O 504.192 1.14972 -3.96049 0
M  V30 5308 H 503.533 -0.06065 -0.661224 0
M  V30 5309 H 506.063 -0.799515 -1.88332 0
M  V30 5310 H 506.073 0.299741 -4.06897 0
M  V30 5311 H 504.748 -0.852612 -4.07067 0
M  V30 5312 H 503.325 0.920879 -3.61351 0
M  V30 5313 N 505.51 1.54411 -0.315457 0
M  V30 5314 C 506.457 2.24048 0.554166 0
M  V30 5315 C 507.427 1.2283 1.11812 0
M  V30 5316 O 508.612 1.51491 1.15997 0
M  V30 5317 C 505.752 2.99574 1.71316 0
M  V30 5318 C 504.865 4.15594 1.17922 0
M  V30 5319 C 504 4.78669 2.30324 0
M  V30 5320 C 503.039 5.86807 1.74137 0
M  V30 5321 N 502.176 6.43777 2.8017 0
M  V30 5322 H 507.016 2.97964 -0.0462602 0
M  V30 5323 H 504.553 1.47059 -0.0346009 0
M  V30 5324 H 506.511 3.41604 2.39505 0
M  V30 5325 H 505.141 2.28008 2.285 0
M  V30 5326 H 504.193 3.78404 0.389136 0
M  V30 5327 H 505.505 4.93459 0.728012 0
M  V30 5328 H 504.659 5.23626 3.06433 0
M  V30 5329 H 503.398 4.00168 2.78778 0
M  V30 5330 H 502.403 5.41261 0.965236 0
M  V30 5331 H 503.628 6.67201 1.2657 0
M  V30 5332 H 501.574 5.68153 3.2793 0
M  V30 5333 H 501.491 7.17031 2.39588 0
M  V30 5334 H 502.759 6.9339 3.56132 0
M  V30 5335 N 506.988 0.0434614 1.5754 0
M  V30 5336 C 508.236 -0.630786 1.92004 0
M  V30 5337 C 508.557 -1.71836 0.921807 0
M  V30 5338 O 507.827 -1.9587 -0.034522 0
M  V30 5339 H 506.407 -0.235988 0.708745 0
M  V30 5340 H 509.069 0.0946462 1.9467 0
M  V30 5341 H 508.165 -1.07434 2.93026 0
M  V30 5342 N 508.466 -1.55915 -0.229846 0
M  V30 5343 C 509.691 -1.8296 -0.976743 0
M  V30 5344 C 510.116 -0.622735 -1.77493 0
M  V30 5345 O 509.474 0.428431 -1.76165 0
M  V30 5346 C 509.522 -3.07916 -1.8767 0
M  V30 5347 O 508.626 -2.86028 -2.97088 0
M  V30 5348 H 507.967 -0.603453 -0.277021 0
M  V30 5349 H 510.497 -2.0312 -0.245669 0
M  V30 5350 H 510.507 -3.37802 -2.2881 0
M  V30 5351 H 509.182 -3.95389 -1.28996 0
M  V30 5352 H 507.759 -2.67355 -2.59954 0
M  V30 5353 N 509.944 0.496216 -1.49584 0
M  V30 5354 C 510.874 1.60576 -1.69521 0
M  V30 5355 C 511.855 1.61169 -0.543933 0
M  V30 5356 O 513.04 1.77834 -0.78031 0
M  V30 5357 C 510.17 2.99038 -1.76616 0
M  V30 5358 C 509.124 3.13312 -2.91581 0
M  V30 5359 C 508.45 4.53172 -2.83794 0
M  V30 5360 C 509.75 2.92886 -4.32452 0
M  V30 5361 H 511.444 1.44146 -2.62416 0
M  V30 5362 H 508.99 0.692024 -1.26282 0
M  V30 5363 H 510.943 3.76564 -1.8915 0
M  V30 5364 H 509.667 3.16568 -0.80324 0
M  V30 5365 H 508.326 2.38213 -2.78658 0
M  V30 5366 H 507.974 4.67585 -1.854 0
M  V30 5367 H 507.674 4.63662 -3.60958 0
M  V30 5368 H 509.198 5.32752 -2.98342 0
M  V30 5369 H 510.612 3.60178 -4.46032 0
M  V30 5370 H 509.009 3.14844 -5.10875 0
M  V30 5371 H 510.079 1.88966 -4.46565 0
M  V30 5372 N 511.423 1.38739 0.74761 0
M  V30 5373 C 512.353 1.39173 1.87492 0
M  V30 5374 C 513.334 0.256794 1.6815 0
M  V30 5375 O 514.519 0.460762 1.88655 0
M  V30 5376 C 511.649 1.22197 3.25093 0
M  V30 5377 C 510.603 2.32957 3.59047 0
M  V30 5378 C 509.929 2.01082 4.95449 0
M  V30 5379 C 511.229 3.75237 3.6331 0
M  V30 5380 H 512.923 2.3351 1.87386 0
M  V30 5381 H 510.469 1.12399 0.900134 0
M  V30 5382 H 512.422 1.21124 4.03617 0
M  V30 5383 H 511.146 0.243241 3.25693 0
M  V30 5384 H 509.805 2.33226 2.82845 0
M  V30 5385 H 509.453 1.01678 4.92616 0
M  V30 5386 H 509.153 2.75267 5.19136 0
M  V30 5387 H 510.677 2.01638 5.76346 0
M  V30 5388 H 512.091 3.76966 4.31937 0
M  V30 5389 H 510.488 4.48677 3.98509 0
M  V30 5390 H 511.558 4.07122 2.634 0
M  V30 5391 N 512.901 -0.976442 1.23707 0
M  V30 5392 C 514.178 -1.69296 0.979699 0
M  V30 5393 C 514.558 -2.0508 -0.500555 0
M  V30 5394 O 513.906 -1.74708 -1.47273 0
M  V30 5395 C 514.116 -2.93143 1.89389 0
M  V30 5396 C 515.464 -3.65572 2.15968 0
M  V30 5397 O 516.488 -3.03184 1.86971 0
M  V30 5398 O 515.347 -4.77859 2.65167 0
M  V30 5399 H 512.441 -0.739708 0.369812 0
M  V30 5400 H 514.987 -1.03131 1.34767 0
M  V30 5401 H 513.759 -2.63327 2.89439 0
M  V30 5402 H 513.382 -3.67044 1.52854 0
M  V30 5403 N 514.379 -1.04941 -1.1758 0
M  V30 5404 C 515.626 -0.757989 -1.87779 0
M  V30 5405 C 515.954 0.714827 -1.80888 0
M  V30 5406 O 515.209 1.53824 -1.20982 0
M  V30 5407 C 515.508 -1.18062 -3.37337 0
M  V30 5408 C 515.174 -2.65521 -3.6443 0
M  V30 5409 C 513.836 -3.05804 -3.71534 0
M  V30 5410 C 516.188 -3.60822 -3.76108 0
M  V30 5411 C 513.516 -4.40256 -3.87803 0
M  V30 5412 C 515.868 -4.95005 -3.93895 0
M  V30 5413 C 514.532 -5.34945 -3.99237 0
M  V30 5414 H 513.802 -0.277368 -0.68713 0
M  V30 5415 H 516.449 -1.31603 -1.39115 0
M  V30 5416 H 514.754 -0.541525 -3.8804 0
M  V30 5417 H 516.451 -0.932368 -3.9001 0
M  V30 5418 H 513.041 -2.33324 -3.59524 0
M  V30 5419 H 517.225 -3.30841 -3.69943 0
M  V30 5420 H 512.481 -4.70707 -3.90186 0
M  V30 5421 H 516.655 -5.68746 -4.01872 0
M  V30 5422 H 514.282 -6.39135 -4.11596 0
M  V30 5423 N 515.857 1.33968 -0.830081 0
M  V30 5424 C 516.787 2.31911 -0.271911 0
M  V30 5425 C 517.768 1.58571 0.61556 0
M  V30 5426 O 518.953 1.86514 0.540946 0
M  V30 5427 C 516.083 3.42737 0.561146 0
M  V30 5428 C 515.037 4.27383 -0.229789 0
M  V30 5429 C 514.363 5.29742 0.726463 0
M  V30 5430 C 515.663 5.02 -1.44197 0
M  V30 5431 H 517.357 2.78844 -1.09025 0
M  V30 5432 H 514.903 1.34061 -0.52571 0
M  V30 5433 H 516.856 4.10276 0.961867 0
M  V30 5434 H 515.58 2.94471 1.41261 0
M  V30 5435 H 514.239 3.61456 -0.611964 0
M  V30 5436 H 513.887 4.77736 1.57408 0
M  V30 5437 H 513.587 5.87255 0.20142 0
M  V30 5438 H 515.111 6.00149 1.12489 0
M  V30 5439 H 516.525 5.62355 -1.11488 0
M  V30 5440 H 514.922 5.69122 -1.90317 0
M  V30 5441 H 515.992 4.31281 -2.2164 0
M  V30 5442 N 517.335 0.585699 1.46312 0
M  V30 5443 C 518.282 -0.145835 2.30339 0
M  V30 5444 C 519.252 -0.881215 1.40797 0
M  V30 5445 O 520.437 -0.871293 1.69744 0
M  V30 5446 C 517.577 -1.15161 3.25318 0
M  V30 5447 C 516.69 -0.419367 4.2996 0
M  V30 5448 C 515.825 -1.41293 5.12064 0
M  V30 5449 C 514.864 -0.667261 6.08452 0
M  V30 5450 N 514.001 -1.60903 6.83414 0
M  V30 5451 H 518.841 0.576755 2.92365 0
M  V30 5452 H 516.378 0.296237 1.44086 0
M  V30 5453 H 518.336 -1.74763 3.78832 0
M  V30 5454 H 516.966 -1.84188 2.65094 0
M  V30 5455 H 516.018 0.291751 3.7928 0
M  V30 5456 H 517.33 0.163433 4.98532 0
M  V30 5457 H 516.484 -2.08167 5.6987 0
M  V30 5458 H 515.223 -2.02966 4.43459 0
M  V30 5459 H 514.228 0.0152356 5.49798 0
M  V30 5460 H 515.453 -0.0558817 6.79077 0
M  V30 5461 H 513.399 -2.21381 6.17516 0
M  V30 5462 H 513.316 -1.07911 7.48259 0
M  V30 5463 H 514.584 -2.26802 7.45775 0
M  V30 5464 N 518.813 -1.54241 0.323641 0
M  V30 5465 C 520.061 -2.00174 -0.278359 0
M  V30 5466 C 520.382 -1.2134 -1.52648 0
M  V30 5467 O 519.652 -0.315244 -1.93347 0
M  V30 5468 H 518.232 -0.739463 -0.105845 0
M  V30 5469 H 520.894 -1.89864 0.440204 0
M  V30 5470 H 519.99 -3.07486 -0.5347 0
M  V30 5471 N 520.291 -0.0518155 -1.57515 0
M  V30 5472 C 521.201 0.937539 -2.15052 0
M  V30 5473 C 522.217 1.34121 -1.10849 0
M  V30 5474 O 523.393 1.418 -1.4302 0
M  V30 5475 C 520.458 2.19379 -2.68466 0
M  V30 5476 C 519.519 1.84841 -3.87469 0
M  V30 5477 C 518.752 3.04477 -4.38326 0
M  V30 5478 O 518.975 4.17868 -3.88256 0
M  V30 5479 O 517.909 2.85453 -5.29906 0
M  V30 5480 H 521.735 0.478201 -2.99912 0
M  V30 5481 H 519.32 0.17012 -1.48428 0
M  V30 5482 H 521.202 2.93084 -3.02787 0
M  V30 5483 H 519.877 2.64449 -1.86677 0
M  V30 5484 H 518.784 1.08449 -3.58036 0
M  V30 5485 H 520.117 1.44569 -4.7049 0
M  V30 5486 N 521.769 1.56035 0.221574 0
M  V30 5487 C 522.702 1.87427 1.30178 0
M  V30 5488 C 523.68 0.731658 1.45209 0
M  V30 5489 O 524.864 0.980016 1.61022 0
M  V30 5490 C 521.991 2.08127 2.67209 0
M  V30 5491 C 521.037 3.30813 2.69194 0
M  V30 5492 S 521.87 4.86738 2.23263 0
M  V30 5493 C 523.026 5.10474 3.62171 0
M  V30 5494 H 523.259 2.78756 1.03355 0
M  V30 5495 H 520.792 1.48469 0.423813 0
M  V30 5496 H 522.75 2.20736 3.46101 0
M  V30 5497 H 521.411 1.17595 2.91256 0
M  V30 5498 H 520.604 3.42341 3.6989 0
M  V30 5499 H 520.206 3.1706 1.98366 0
M  V30 5500 H 522.498 4.9937 4.5786 0
M  V30 5501 H 523.441 6.12359 3.55558 0
M  V30 5502 H 523.849 4.38208 3.55857 0
M  V30 5503 N 523.247 -0.488276 1.49845 0
M  V30 5504 C 524.495 -1.23911 1.59657 0
M  V30 5505 C 524.816 -1.92816 0.291005 0
M  V30 5506 O 524.086 -1.83328 -0.690485 0
M  V30 5507 H 522.666 -0.460357 0.588286 0
M  V30 5508 H 525.328 -0.564794 1.86537 0
M  V30 5509 H 524.424 -1.99625 2.39909 0
M  V30 5510 N 524.725 -1.39134 -0.740242 0
M  V30 5511 C 525.672 -1.37434 -1.8542 0
M  V30 5512 C 526.642 -0.234822 -1.64432 0
M  V30 5513 O 527.827 -0.429125 -1.85912 0
M  V30 5514 C 524.967 -1.21844 -3.22875 0
M  V30 5515 C 524.08 -2.45296 -3.55603 0
M  V30 5516 C 523.215 -2.22334 -4.82432 0
M  V30 5517 C 522.254 -3.41488 -5.07988 0
M  V30 5518 N 521.391 -3.17877 -6.26018 0
M  V30 5519 H 526.231 -2.3266 -1.86207 0
M  V30 5520 H 523.768 -1.15578 -0.909946 0
M  V30 5521 H 525.726 -1.10818 -4.02213 0
M  V30 5522 H 524.356 -0.3025 -3.21379 0
M  V30 5523 H 523.408 -2.66945 -2.71006 0
M  V30 5524 H 524.72 -3.34063 -3.7041 0
M  V30 5525 H 523.874 -2.0852 -5.69741 0
M  V30 5526 H 522.613 -1.30954 -4.6979 0
M  V30 5527 H 521.618 -3.55807 -4.19144 0
M  V30 5528 H 522.843 -4.33763 -5.22519 0
M  V30 5529 H 520.789 -2.29156 -6.14673 0
M  V30 5530 H 520.706 -4.00198 -6.41387 0
M  V30 5531 H 521.974 -3.07746 -7.16179 0
M  V30 5532 N 526.204 0.969867 -1.24223 0
M  V30 5533 C 527.434 1.74502 -1.106 0
M  V30 5534 C 527.842 1.86038 0.344483 0
M  V30 5535 O 527.185 1.3465 1.24961 0
M  V30 5536 C 527.247 3.18391 -1.66935 0
M  V30 5537 C 526.911 3.30334 -3.15798 0
M  V30 5538 C 527.908 3.15832 -4.12973 0
M  V30 5539 C 525.593 3.54644 -3.55715 0
M  V30 5540 C 527.587 3.25461 -5.48045 0
M  V30 5541 C 525.274 3.63912 -4.90929 0
M  V30 5542 C 526.272 3.49332 -5.86904 0
M  V30 5543 O 525.96 3.58251 -7.1966 0
M  V30 5544 H 525.692 0.554119 -0.387206 0
M  V30 5545 H 528.246 1.22646 -1.64764 0
M  V30 5546 H 526.476 3.71543 -1.07203 0
M  V30 5547 H 528.165 3.77707 -1.48634 0
M  V30 5548 H 528.931 2.96937 -3.83476 0
M  V30 5549 H 524.81 3.65059 -2.81519 0
M  V30 5550 H 528.354 3.13998 -6.22937 0
M  V30 5551 H 524.251 3.82319 -5.20098 0
M  V30 5552 H 525.019 3.7498 -7.27552 0
M  V30 5553 N 527.682 1.05563 1.17022 0
M  V30 5554 C 528.612 0.681026 2.23348 0
M  V30 5555 C 529.593 -0.322983 1.67005 0
M  V30 5556 O 530.778 -0.199746 1.9317 0
M  V30 5557 C 527.908 0.0589053 3.4725 0
M  V30 5558 C 526.862 0.988082 4.16438 0
M  V30 5559 C 526.188 0.229646 5.34207 0
M  V30 5560 C 527.488 2.31388 4.68249 0
M  V30 5561 H 529.182 1.56993 2.54938 0
M  V30 5562 H 526.728 0.756302 1.2254 0
M  V30 5563 H 528.681 -0.214982 4.20851 0
M  V30 5564 H 527.405 -0.864968 3.14938 0
M  V30 5565 H 526.064 1.24659 3.44754 0
M  V30 5566 H 525.712 -0.697111 4.98146 0
M  V30 5567 H 525.412 0.848815 5.81437 0
M  V30 5568 H 526.936 -0.0368694 6.10589 0
M  V30 5569 H 528.35 2.09964 5.33468 0
M  V30 5570 H 526.747 2.88736 5.26072 0
M  V30 5571 H 527.817 2.94982 3.84855 0
M  V30 5572 N 529.16 -1.33526 0.837174 0
M  V30 5573 C 530.576 -1.50727 0.524743 0
M  V30 5574 C 530.776 -1.77792 -0.948279 0
M  V30 5575 O 529.832 -1.83719 -1.73216 0
M  V30 5576 C 531.145 -2.66299 1.39661 0
M  V30 5577 C 532.693 -2.80183 1.39521 0
M  V30 5578 C 533.168 -3.98815 2.25189 0
M  V30 5579 N 534.659 -4.06047 2.2289 0
M  V30 5580 C 535.394 -4.97032 2.85915 0
M  V30 5581 N 534.89 -5.93143 3.57985 0
M  V30 5582 N 536.683 -4.90015 2.75394 0
M  V30 5583 H 528.834 -1.1422 1.79074 0
M  V30 5584 H 531.097 -0.561399 0.763894 0
M  V30 5585 H 530.803 -2.52974 2.4433 0
M  V30 5586 H 530.677 -3.61663 1.07145 0
M  V30 5587 H 533.064 -2.92942 0.356253 0
M  V30 5588 H 533.145 -1.85586 1.76044 0
M  V30 5589 H 532.789 -3.86817 3.29143 0
M  V30 5590 H 532.719 -4.92654 1.86009 0
M  V30 5591 H 535.21 -3.37262 1.70478 0
M  V30 5592 H 535.523 -6.59227 4.03286 0
M  V30 5593 H 533.868 -5.93223 3.62093 0
M  V30 5594 H 537.059 -4.13894 2.18654 0
M  V30 5595 H 537.232 -5.60724 3.24796 0
M  V30 5596 N 530.638 -0.59345 -1.46 0
M  V30 5597 C 531.568 0.121192 -2.33185 0
M  V30 5598 C 532.549 0.872977 -1.4599 0
M  V30 5599 O 533.734 0.846321 -1.74789 0
M  V30 5600 C 530.864 1.12844 -3.28456 0
M  V30 5601 C 529.818 0.4908 -4.25177 0
M  V30 5602 C 529.144 1.60529 -5.10034 0
M  V30 5603 C 530.444 -0.578949 -5.19081 0
M  V30 5604 H 532.138 -0.606767 -2.93187 0
M  V30 5605 H 529.684 -0.293242 -1.40983 0
M  V30 5606 H 531.637 1.63684 -3.88311 0
M  V30 5607 H 530.361 1.88681 -2.66584 0
M  V30 5608 H 529.02 0.00339328 -3.666 0
M  V30 5609 H 528.668 2.35359 -4.44539 0
M  V30 5610 H 528.368 1.18422 -5.75543 0
M  V30 5611 H 529.892 2.11623 -5.72755 0
M  V30 5612 H 531.306 -0.155199 -5.7309 0
M  V30 5613 H 529.703 -0.920947 -5.92991 0
M  V30 5614 H 530.773 -1.46109 -4.62364 0
M  V30 5615 N 532.116 1.54067 -0.331816 0
M  V30 5616 C 533.527 1.86059 0.15454 0
M  V30 5617 C 533.878 1.25331 1.50952 0
M  V30 5618 O 533.003 0.562441 2.08963 0
M  V30 5619 C 533.598 3.37581 0.287192 0
M  V30 5620 C 532.157 3.69493 0.717773 0
M  V30 5621 C 531.304 2.76863 -0.155569 0
M  V30 5622 H 534.255 1.48797 -0.55182 0
M  V30 5623 H 534.276 3.63744 1.11671 0
M  V30 5624 H 533.788 3.81751 -0.699131 0
M  V30 5625 H 531.889 3.3086 1.71354 0
M  V30 5626 H 532.002 4.76315 0.5158 0
M  V30 5627 H 530.366 2.51995 0.370213 0
M  V30 5628 H 531.149 3.23861 -1.13881 0
M  V30 5629 N 533.594 0.0601682 1.57485 0
M  V30 5630 C 534.526 -0.94047 2.09016 0
M  V30 5631 C 535.539 -1.26897 1.01985 0
M  V30 5632 O 536.728 -1.22819 1.29529 0
M  V30 5633 C 533.828 -2.25955 2.52582 0
M  V30 5634 C 533.001 -2.11163 3.83052 0
M  V30 5635 C 532.06 -3.26273 4.12835 0
M  V30 5636 O 531.086 -3.01779 4.82616 0
M  V30 5637 N 532.288 -4.51022 3.65458 0
M  V30 5638 H 535.053 -0.500578 2.9549 0
M  V30 5639 H 532.614 -0.125852 1.6141 0
M  V30 5640 H 534.606 -3.01846 2.69575 0
M  V30 5641 H 533.176 -2.61481 1.71308 0
M  V30 5642 H 532.396 -1.19808 3.75552 0
M  V30 5643 H 533.684 -1.98517 4.68475 0
M  V30 5644 H 533.082 -4.73811 3.09062 0
M  V30 5645 H 531.639 -5.23978 3.87673 0
M  V30 5646 N 535.072 -1.5615 -0.213296 0
M  V30 5647 C 536.002 -1.96109 -1.26742 0
M  V30 5648 C 536.983 -0.830448 -1.48451 0
M  V30 5649 O 538.168 -1.09339 -1.60495 0
M  V30 5650 C 535.298 -2.28492 -2.61551 0
M  V30 5651 C 534.252 -3.44124 -2.54485 0
M  V30 5652 C 533.578 -3.62134 -3.93399 0
M  V30 5653 C 534.878 -4.78855 -2.08556 0
M  V30 5654 H 536.572 -2.84412 -0.935434 0
M  V30 5655 H 534.118 -1.36836 -0.44854 0
M  V30 5656 H 536.071 -2.55039 -3.3546 0
M  V30 5657 H 534.795 -1.37052 -2.96453 0
M  V30 5658 H 533.454 -3.17639 -1.83033 0
M  V30 5659 H 533.102 -2.68055 -4.25623 0
M  V30 5660 H 532.802 -4.39913 -3.89551 0
M  V30 5661 H 534.326 -3.91038 -4.68958 0
M  V30 5662 H 535.74 -5.04552 -2.72213 0
M  V30 5663 H 534.137 -5.59975 -2.1575 0
M  V30 5664 H 535.207 -4.73657 -1.03811 0
M  V30 5665 N 536.55 0.480323 -1.50102 0
M  V30 5666 C 537.796 1.23489 -1.60867 0
M  V30 5667 C 538.129 1.91809 -0.303827 0
M  V30 5668 O 537.404 1.81694 0.694092 0
M  V30 5669 C 537.687 2.28578 -2.78252 0
M  V30 5670 C 537.54 1.64624 -4.18592 0
M  V30 5671 C 538.859 3.2997 -2.91218 0
M  V30 5672 H 535.978 0.447605 -0.585507 0
M  V30 5673 H 538.62 0.530005 -1.82458 0
M  V30 5674 H 536.77 2.88697 -2.59974 0
M  V30 5675 H 538.442 1.08173 -4.48438 0
M  V30 5676 H 536.685 0.949645 -4.23278 0
M  V30 5677 H 537.356 2.40946 -4.96638 0
M  V30 5678 H 539.832 2.79864 -3.07921 0
M  V30 5679 H 538.708 4.00839 -3.74993 0
M  V30 5680 H 538.969 3.93541 -2.0144 0
M  V30 5681 N 538.028 1.39524 0.732853 0
M  V30 5682 C 539.305 1.27373 1.48444 0
M  V30 5683 C 539.685 -0.115725 2.10783 0
M  V30 5684 O 539.033 -1.12713 1.98766 0
M  V30 5685 C 539.243 2.39966 2.53412 0
M  V30 5686 C 540.591 2.79384 3.19733 0
M  V30 5687 O 541.615 2.39431 2.63725 0
M  V30 5688 O 540.474 3.48353 4.21085 0
M  V30 5689 H 537.568 0.499272 0.659285 0
M  V30 5690 H 540.114 1.51403 0.766496 0
M  V30 5691 H 538.886 3.32845 2.05742 0
M  V30 5692 H 538.509 2.17612 3.32762 0
M  V30 5693 N 539.506 -0.963266 1.24736 0
M  V30 5694 C 540.439 -2.05758 0.986852 0
M  V30 5695 C 541.417 -1.62398 -0.0809272 0
M  V30 5696 O 542.601 -1.88414 0.0569347 0
M  V30 5697 C 539.728 -3.35135 0.490095 0
M  V30 5698 C 538.774 -3.97451 1.54709 0
M  V30 5699 S 539.607 -4.34519 3.12976 0
M  V30 5700 C 540.763 -5.67026 2.65014 0
M  V30 5701 H 540.996 -2.27539 1.91346 0
M  V30 5702 H 538.529 -1.10176 1.08169 0
M  V30 5703 H 540.487 -4.09962 0.21012 0
M  V30 5704 H 539.148 -3.11335 -0.415873 0
M  V30 5705 H 538.341 -4.90704 1.15003 0
M  V30 5706 H 537.943 -3.29071 1.77731 0
M  V30 5707 H 540.235 -6.44748 2.08102 0
M  V30 5708 H 541.178 -6.11594 3.56873 0
M  V30 5709 H 541.586 -5.25847 2.05294 0
M  V30 5710 N 540.985 -1.06182 -1.16461 0
M  V30 5711 C 541.948 -0.675723 -2.19013 0
M  V30 5712 C 542.948 0.277963 -1.58379 0
M  V30 5713 O 544.138 0.0604962 -1.74095 0
M  V30 5714 C 541.27 0.00591459 -3.40899 0
M  V30 5715 H 542.463 -1.58353 -2.54685 0
M  V30 5716 H 540.016 -0.856908 -1.30716 0
M  V30 5717 H 540.751 0.92652 -3.10783 0
M  V30 5718 H 540.536 -0.67984 -3.86161 0
M  V30 5719 H 542.026 0.26181 -4.16778 0
M  V30 5720 N 542.463 1.3308 -0.844243 0
M  V30 5721 C 543.426 2.27403 -0.286485 0
M  V30 5722 C 544.426 1.51179 0.547872 0
M  V30 5723 O 545.616 1.70421 0.360886 0
M  V30 5724 C 542.748 3.35653 0.595813 0
M  V30 5725 H 543.941 2.78248 -1.11885 0
M  V30 5726 H 541.494 1.43574 -0.617749 0
M  V30 5727 H 542.229 2.90058 1.4504 0
M  V30 5728 H 542.014 3.921 -0.00125994 0
M  V30 5729 H 543.504 4.05958 0.979168 0
M  V30 5730 N 543.941 0.601185 1.45683 0
M  V30 5731 C 544.873 -0.159446 2.28645 0
M  V30 5732 C 545.886 -0.837882 1.39583 0
M  V30 5733 O 547.075 -0.704344 1.64016 0
M  V30 5734 C 544.175 -1.24641 3.15147 0
M  V30 5735 C 543.348 -0.656334 4.32448 0
M  V30 5736 C 542.407 -1.63337 5.00208 0
M  V30 5737 O 541.433 -1.16217 5.57209 0
M  V30 5738 N 542.635 -2.96773 4.98905 0
M  V30 5739 H 545.4 0.5524 2.94565 0
M  V30 5740 H 542.961 0.440223 1.558 0
M  V30 5741 H 544.953 -1.8997 3.57342 0
M  V30 5742 H 543.523 -1.86087 2.51178 0
M  V30 5743 H 542.743 0.174879 3.93812 0
M  V30 5744 H 544.031 -0.242211 5.08223 0
M  V30 5745 H 543.429 -3.37662 4.53873 0
M  V30 5746 H 541.986 -3.57541 5.44984 0
M  V30 5747 N 545.419 -1.53889 0.339982 0
M  V30 5748 C 546.668 -2.00035 -0.258604 0
M  V30 5749 C 546.981 -1.23179 -1.51942 0
M  V30 5750 O 548.187 -1.59784 -2.19503 0
M  V30 5751 C 546.643 -3.56249 -0.511359 0
M  V30 5752 C 546.251 -4.41957 0.733349 0
M  V30 5753 C 547.995 -4.1082 -1.069 0
M  V30 5754 C 545.902 -5.89673 0.451591 0
M  V30 5755 H 544.832 -0.747284 -0.10041 0
M  V30 5756 H 547.483 -1.77776 0.454758 0
M  V30 5757 H 545.865 -3.7456 -1.28533 0
M  V30 5758 H 547.039 -4.35421 1.50815 0
M  V30 5759 H 545.354 -3.9836 1.21237 0
M  V30 5760 H 547.951 -5.18789 -1.2947 0
M  V30 5761 H 548.294 -3.63817 -2.02343 0
M  V30 5762 H 548.827 -3.96205 -0.355817 0
M  V30 5763 H 545.566 -6.40903 1.37565 0
M  V30 5764 H 545.086 -5.99122 -0.285193 0
M  V30 5765 H 546.765 -6.46965 0.0675067 0
M  V30 5766 N 546.897 -0.0685191 -1.57451 0
M  V30 5767 C 547.86 0.885173 -2.11417 0
M  V30 5768 C 548.86 1.22853 -1.03748 0
M  V30 5769 O 550.05 1.16235 -1.2975 0
M  V30 5770 C 547.182 2.18964 -2.61281 0
M  V30 5771 H 548.375 0.417034 -2.96986 0
M  V30 5772 H 545.928 0.18014 -1.55258 0
M  V30 5773 H 546.663 2.70321 -1.79156 0
M  V30 5774 H 546.448 1.9534 -3.39977 0
M  V30 5775 H 547.938 2.87242 -3.0312 0
M  V30 5776 N 548.375 1.56261 0.205012 0
M  V30 5777 C 549.6 1.84491 0.947512 0
M  V30 5778 C 550.025 0.650894 1.76479 0
M  V30 5779 O 549.383 -0.40035 1.76824 0
M  V30 5780 C 549.431 3.10863 1.82747 0
M  V30 5781 O 548.535 2.90719 2.925 0
M  V30 5782 H 547.876 0.607783 0.267386 0
M  V30 5783 H 550.406 2.03485 0.213323 0
M  V30 5784 H 550.416 3.41399 2.23407 0
M  V30 5785 H 549.091 3.97392 1.2269 0
M  V30 5786 H 547.668 2.71457 2.55667 0
M  V30 5787 N 549.853 -0.472356 1.50355 0
M  V30 5788 C 551.101 -1.22211 1.60962 0
M  V30 5789 C 551.422 -1.92497 0.311439 0
M  V30 5790 O 550.692 -1.8405 -0.671002 0
M  V30 5791 H 549.272 -0.454092 0.593135 0
M  V30 5792 H 551.934 -0.544977 1.87126 0
M  V30 5793 H 551.03 -1.9707 2.42012 0
M  V30 5794 N 551.331 -1.39911 -0.725443 0
M  V30 5795 C 552.264 -1.33788 -1.84867 0
M  V30 5796 C 553.242 -0.209907 -1.61239 0
M  V30 5797 O 554.426 -0.391943 -1.8438 0
M  V30 5798 C 551.553 -1.07975 -3.21028 0
M  V30 5799 C 550.599 -2.23092 -3.635 0
M  V30 5800 S 551.432 -3.85431 -3.71757 0
M  V30 5801 C 552.588 -3.61862 -5.10692 0
M  V30 5802 H 552.821 -2.28848 -1.89779 0
M  V30 5803 H 550.354 -1.26079 -0.891254 0
M  V30 5804 H 552.312 -0.937669 -3.99647 0
M  V30 5805 H 550.973 -0.145865 -3.13761 0
M  V30 5806 H 550.166 -2.00647 -4.62338 0
M  V30 5807 H 549.768 -2.33553 -2.92112 0
M  V30 5808 H 552.06 -3.19719 -5.97316 0
M  V30 5809 H 553.003 -4.60196 -5.38169 0
M  V30 5810 H 553.411 -2.95757 -4.8082 0
M  V30 5811 N 552.809 0.956637 -1.25245 0
M  V30 5812 C 553.772 2.03457 -1.05537 0
M  V30 5813 C 554.772 1.60798 -0.00886317 0
M  V30 5814 O 555.962 1.72384 -0.250865 0
M  V30 5815 C 553.094 3.35543 -0.601965 0
M  V30 5816 H 554.287 2.22372 -2.01223 0
M  V30 5817 H 551.84 1.13344 -1.07623 0
M  V30 5818 H 552.575 3.22323 0.357584 0
M  V30 5819 H 552.36 3.67854 -1.35743 0
M  V30 5820 H 553.85 4.14769 -0.485454 0
M  V30 5821 N 554.287 1.06798 1.15896 0
M  V30 5822 C 555.517 0.807522 1.90165 0
M  V30 5823 C 555.925 -0.642417 1.7796 0
M  V30 5824 O 555.268 -1.45193 1.12537 0
M  V30 5825 C 555.33 1.12939 3.41299 0
M  V30 5826 C 554.994 2.57879 3.7729 0
M  V30 5827 C 555.991 3.56118 3.78782 0
M  V30 5828 C 553.676 2.93311 4.07767 0
M  V30 5829 C 555.67 4.87827 4.10248 0
M  V30 5830 C 553.357 4.25219 4.38899 0
M  V30 5831 C 554.355 5.22287 4.4012 0
M  V30 5832 O 554.043 6.51826 4.70508 0
M  V30 5833 H 553.775 0.291946 0.609708 0
M  V30 5834 H 556.329 1.42627 1.47806 0
M  V30 5835 H 554.559 0.45359 3.84031 0
M  V30 5836 H 556.248 0.852363 3.9685 0
M  V30 5837 H 557.014 3.30086 3.55342 0
M  V30 5838 H 552.893 2.18409 4.05979 0
M  V30 5839 H 556.437 5.63586 4.11116 0
M  V30 5840 H 552.334 4.51006 4.61805 0
M  V30 5841 H 553.102 6.56893 4.88298 0
M  V30 5842 N 555.766 -1.3263 0.851289 0
M  V30 5843 C 557.012 -1.9766 0.453694 0
M  V30 5844 C 557.345 -1.67225 -0.987396 0
M  V30 5845 O 556.62 -0.958693 -1.69232 0
M  V30 5846 C 556.903 -3.5344 0.68936 0
M  V30 5847 C 556.756 -3.93517 2.17862 0
M  V30 5848 C 558.075 -4.39866 0.143555 0
M  V30 5849 H 555.194 -0.717989 0.166314 0
M  V30 5850 H 557.836 -1.57068 1.06909 0
M  V30 5851 H 555.986 -3.88147 0.165546 0
M  V30 5852 H 557.658 -3.69006 2.76826 0
M  V30 5853 H 555.901 -3.42798 2.65841 0
M  V30 5854 H 556.572 -5.02065 2.29422 0
M  V30 5855 H 559.048 -4.11875 0.591451 0
M  V30 5856 H 557.924 -5.47858 0.338043 0
M  V30 5857 H 558.185 -4.31696 -0.953466 0
M  V30 5858 N 557.244 -0.608902 -1.45362 0
M  V30 5859 C 558.154 0.110969 -2.34337 0
M  V30 5860 C 559.17 0.859007 -1.51318 0
M  V30 5861 O 560.346 0.816296 -1.84116 0
M  V30 5862 C 557.411 1.09494 -3.28956 0
M  V30 5863 C 556.472 0.348718 -4.27881 0
M  V30 5864 C 555.705 1.28582 -5.17979 0
M  V30 5865 O 555.928 2.52369 -5.11533 0
M  V30 5866 O 554.862 0.782172 -5.96796 0
M  V30 5867 H 558.688 -0.620258 -2.97299 0
M  V30 5868 H 556.273 -0.36916 -1.44767 0
M  V30 5869 H 558.155 1.66163 -3.87257 0
M  V30 5870 H 556.83 1.80717 -2.68557 0
M  V30 5871 H 555.737 -0.260465 -3.73192 0
M  V30 5872 H 557.07 -0.323049 -4.91139 0
M  V30 5873 N 558.722 1.53707 -0.348139 0
M  V30 5874 C 560.138 1.596 0.00361134 0
M  V30 5875 C 560.338 1.36394 1.4832 0
M  V30 5876 O 559.394 1.16046 2.24253 0
M  V30 5877 C 560.707 2.97512 -0.436682 0
M  V30 5878 C 562.255 3.10568 -0.389416 0
M  V30 5879 C 562.73 4.50866 -0.805249 0
M  V30 5880 N 564.221 4.56929 -0.759616 0
M  V30 5881 C 564.956 5.63643 -1.05327 0
M  V30 5882 N 564.452 6.78189 -1.41531 0
M  V30 5883 N 566.245 5.5354 -0.977207 0
M  V30 5884 H 558.396 1.67044 -1.31187 0
M  V30 5885 H 560.659 0.782559 -0.535075 0
M  V30 5886 H 560.365 3.19575 -1.46849 0
M  V30 5887 H 560.239 3.76742 0.185744 0
M  V30 5888 H 562.626 2.88226 0.633228 0
M  V30 5889 H 562.707 2.33387 -1.04711 0
M  V30 5890 H 562.351 4.73943 -1.82593 0
M  V30 5891 H 562.281 5.26452 -0.124989 0
M  V30 5892 H 564.772 3.74675 -0.49265 0
M  V30 5893 H 565.085 7.55541 -1.62411 0
M  V30 5894 H 563.43 6.79624 -1.45381 0
M  V30 5895 H 566.621 4.62932 -0.693675 0
M  V30 5896 H 566.794 6.36614 -1.2094 0
M  V30 5897 N 560.2 0.0768682 1.57412 0
M  V30 5898 C 561.133 -0.924685 2.08626 0
M  V30 5899 C 562.111 -1.28792 0.992542 0
M  V30 5900 O 563.295 -1.39634 1.26628 0
M  V30 5901 C 560.422 -2.23131 2.54814 0
M  V30 5902 C 559.468 -2.01928 3.75669 0
M  V30 5903 S 560.301 -1.27397 5.20125 0
M  V30 5904 C 561.457 -2.59329 5.69648 0
M  V30 5905 H 561.69 -0.488928 2.93252 0
M  V30 5906 H 559.223 -0.136014 1.538 0
M  V30 5907 H 561.181 -2.98226 2.82084 0
M  V30 5908 H 559.842 -2.63831 1.70447 0
M  V30 5909 H 559.035 -2.98639 4.05993 0
M  V30 5910 H 558.637 -1.34967 3.48798 0
M  V30 5911 H 560.929 -3.55394 5.76803 0
M  V30 5912 H 561.872 -2.33608 6.68456 0
M  V30 5913 H 562.28 -2.66767 4.9749 0
M  V30 5914 N 561.678 -1.56367 -0.196722 0
M  V30 5915 C 562.626 -1.95304 -1.2633 0
M  V30 5916 C 563.62 -0.838252 -1.47206 0
M  V30 5917 O 564.826 -1.02325 -1.48087 0
M  V30 5918 H 561.201 -0.621013 -0.424083 0
M  V30 5919 H 563.172 -2.84254 -0.907879 0
M  V30 5920 C 561.921 -2.3074 -2.60104 0
M  V30 5921 H 561.244 -3.16047 -2.44856 0
M  V30 5922 H 562.684 -2.61849 -3.33484 0
M  V30 5923 C 561.143 -1.14143 -3.16975 0
M  V30 5924 O 561.673 -0.415602 -3.99544 0
M  V30 5925 N 559.879 -0.91867 -2.75697 0
M  V30 5926 H 559.426 -1.51065 -2.08656 0
M  V30 5927 H 559.384 -0.140321 -3.14087 0
M  V30 5928 N 563.156 0.464375 -1.50603 0
M  V30 5929 C 564.386 1.23727 -1.65454 0
M  V30 5930 C 564.794 1.86119 -0.340032 0
M  V30 5931 O 564.137 1.70301 0.688706 0
M  V30 5932 C 564.199 2.38153 -2.69301 0
M  V30 5933 C 563.863 1.96345 -4.12671 0
M  V30 5934 C 564.86 1.48215 -4.98326 0
M  V30 5935 C 562.545 2.04861 -4.58625 0
M  V30 5936 C 564.539 1.09152 -6.27985 0
M  V30 5937 C 562.226 1.65409 -5.88288 0
M  V30 5938 C 563.224 1.17634 -6.72794 0
M  V30 5939 O 562.912 0.787312 -8.00035 0
M  V30 5940 H 562.644 0.380075 -0.559034 0
M  V30 5941 H 565.198 0.559919 -1.97621 0
M  V30 5942 H 563.428 3.09081 -2.32392 0
M  V30 5943 H 565.117 3.00099 -2.73304 0
M  V30 5944 H 565.883 1.41052 -4.64036 0
M  V30 5945 H 561.762 2.40996 -3.92991 0
M  V30 5946 H 565.306 0.717909 -6.93896 0
M  V30 5947 H 561.203 1.72233 -6.22098 0
M  V30 5948 H 561.971 0.915567 -8.13363 0
M  V30 5949 N 564.634 1.40294 0.718013 0
M  V30 5950 C 565.88 1.38645 1.48005 0
M  V30 5951 C 566.213 -0.0121202 1.94196 0
M  V30 5952 O 565.488 -0.980309 1.67989 0
M  V30 5953 C 565.771 2.37379 2.70782 0
M  V30 5954 C 565.624 3.8625 2.30501 0
M  V30 5955 C 566.943 2.33685 3.72933 0
M  V30 5956 H 564.062 0.504928 0.536858 0
M  V30 5957 H 566.704 1.71411 0.819649 0
M  V30 5958 H 564.854 2.09568 3.27129 0
M  V30 5959 H 566.526 4.24879 1.79655 0
M  V30 5960 H 564.769 4.02202 1.6253 0
M  V30 5961 H 565.44 4.50847 3.18498 0
M  V30 5962 H 567.916 2.58314 3.2621 0
M  V30 5963 H 566.792 3.0482 4.56482 0
M  V30 5964 H 567.053 1.34765 4.21059 0
M  V30 5965 N 566.112 -0.949982 1.2575 0
M  V30 5966 C 567.062 -2.03297 1.03221 0
M  V30 5967 C 568.046 -1.60867 -0.0324751 0
M  V30 5968 O 569.238 -1.76047 0.183423 0
M  V30 5969 C 566.367 -3.36938 0.657841 0
M  V30 5970 C 565.453 -3.85878 1.75952 0
M  V30 5971 N 565.844 -4.0756 2.99547 0
M  V30 5972 C 564.142 -4.14709 1.64111 0
M  V30 5973 C 564.843 -4.47961 3.71087 0
M  V30 5974 N 563.819 -4.5416 2.98731 0
M  V30 5975 H 567.621 -2.1806 1.97045 0
M  V30 5976 H 565.135 -1.13516 1.16138 0
M  V30 5977 H 567.132 -4.14155 0.477614 0
M  V30 5978 H 565.792 -3.2355 -0.273025 0
M  V30 5979 H 566.803 -3.94501 3.35544 0
M  V30 5980 H 563.48 -4.10158 0.779527 0
M  V30 5981 H 564.87 -4.73002 4.77199 0
M  V30 5982 N 567.59 -1.07411 -1.15328 0
M  V30 5983 C 569.006 -0.799759 -1.38116 0
M  V30 5984 C 569.206 0.59572 -1.92493 0
M  V30 5985 O 568.262 1.35433 -2.13106 0
M  V30 5986 C 569.575 -1.87407 -2.35158 0
M  V30 5987 C 571.123 -1.89889 -2.48819 0
M  V30 5988 C 571.598 -2.96406 -3.49153 0
M  V30 5989 N 573.089 -2.95512 -3.56689 0
M  V30 5990 C 573.824 -3.74575 -4.34144 0
M  V30 5991 N 573.32 -4.63488 -5.14928 0
M  V30 5992 N 575.113 -3.62919 -4.29239 0
M  V30 5993 H 567.264 -1.97411 -0.78374 0
M  V30 5994 H 569.527 -0.856113 -0.407154 0
M  V30 5995 H 569.233 -2.8768 -2.0232 0
M  V30 5996 H 569.107 -1.73471 -3.34944 0
M  V30 5997 H 571.494 -0.902677 -2.80955 0
M  V30 5998 H 571.575 -2.07904 -1.49029 0
M  V30 5999 H 571.219 -3.96227 -3.17752 0
M  V30 6000 H 571.149 -2.75638 -4.48699 0
M  V30 6001 H 573.64 -2.31061 -2.99031 0
M  V30 6002 H 573.953 -5.20445 -5.71276 0
M  V30 6003 H 572.298 -4.67537 -5.14232 0
M  V30 6004 H 575.489 -2.92833 -3.65194 0
M  V30 6005 H 575.662 -4.24777 -4.89355 0
M  V30 6006 N 569.068 1.32177 -0.85831 0
M  V30 6007 C 570.345 1.91781 -0.384624 0
M  V30 6008 C 570.725 1.78171 1.13217 0
M  V30 6009 O 570.073 1.18209 1.95548 0
M  V30 6010 C 570.283 3.38414 -0.853047 0
M  V30 6011 C 571.631 4.15542 -0.872359 0
M  V30 6012 O 572.655 3.47148 -0.797926 0
M  V30 6013 O 571.514 5.37678 -0.978009 0
M  V30 6014 H 568.608 0.819259 -0.112886 0
M  V30 6015 H 571.154 1.40923 -0.945453 0
M  V30 6016 H 569.926 3.4228 -1.89632 0
M  V30 6017 H 569.549 3.96683 -0.269874 0
M  V30 6018 N 570.547 0.616602 1.45037 0
M  V30 6019 C 571.477 -0.0840787 2.33349 0
M  V30 6020 C 572.458 -0.849641 1.4736 0
M  V30 6021 O 573.643 -0.818407 1.76113 0
M  V30 6022 C 570.773 -1.07604 3.3021 0
M  V30 6023 C 569.727 -0.423096 4.25904 0
M  V30 6024 C 569.053 -1.52394 5.12523 0
M  V30 6025 C 570.353 0.661457 5.18095 0
M  V30 6026 H 572.047 0.653333 2.92185 0
M  V30 6027 H 569.593 0.315634 1.40498 0
M  V30 6028 H 571.546 -1.57485 3.90866 0
M  V30 6029 H 570.27 -1.84416 2.69552 0
M  V30 6030 H 568.929 0.05493 3.66559 0
M  V30 6031 H 568.577 -2.28257 4.48227 0
M  V30 6032 H 568.277 -1.09251 5.77354 0
M  V30 6033 H 569.801 -2.02485 5.76049 0
M  V30 6034 H 571.215 0.246353 5.7277 0
M  V30 6035 H 569.612 1.01517 5.91451 0
M  V30 6036 H 570.682 1.53446 4.59981 0
M  V30 6037 N 572.025 -1.5352 0.356285 0
M  V30 6038 C 573.441 -1.59599 0.00485267 0
M  V30 6039 C 573.641 -1.37179 -1.47595 0
M  V30 6040 O 572.697 -1.17234 -2.23635 0
M  V30 6041 C 574.01 -2.97277 0.452454 0
M  V30 6042 C 575.558 -3.10357 0.405881 0
M  V30 6043 C 576.033 -4.50432 0.829148 0
M  V30 6044 N 577.524 -4.5652 0.783838 0
M  V30 6045 C 578.259 -5.63077 1.08315 0
M  V30 6046 N 577.755 -6.77429 1.45126 0
M  V30 6047 N 579.548 -5.53014 1.00655 0
M  V30 6048 H 571.699 -1.66346 1.32071 0
M  V30 6049 H 573.962 -0.77971 0.539218 0
M  V30 6050 H 573.668 -3.18792 1.48542 0
M  V30 6051 H 573.542 -3.76836 -0.165762 0
M  V30 6052 H 575.929 -2.88558 -0.617934 0
M  V30 6053 H 576.01 -2.32828 1.05947 0
M  V30 6054 H 575.654 -4.72968 1.85103 0
M  V30 6055 H 575.584 -5.26378 0.152906 0
M  V30 6056 H 578.075 -3.74408 0.512513 0
M  V30 6057 H 578.388 -7.54669 1.66415 0
M  V30 6058 H 576.733 -6.78844 1.48983 0
M  V30 6059 H 579.924 -4.62557 0.718215 0
M  V30 6060 H 580.097 -6.35964 1.24315 0
M  V30 6061 N 573.503 -0.0852151 -1.57369 0
M  V30 6062 C 574.466 0.8627 -2.12344 0
M  V30 6063 C 575.466 1.21746 -1.05046 0
M  V30 6064 O 576.656 1.14852 -1.30976 0
M  V30 6065 C 573.788 2.1618 -2.63589 0
M  V30 6066 H 574.981 0.385511 -2.97412 0
M  V30 6067 H 572.534 0.163663 -1.55441 0
M  V30 6068 H 573.269 2.68406 -1.82013 0
M  V30 6069 H 573.054 1.91723 -3.4203 0
M  V30 6070 H 574.544 2.84011 -3.06149 0
M  V30 6071 N 574.981 1.5647 0.188427 0
M  V30 6072 C 575.944 1.9421 1.21718 0
M  V30 6073 C 576.944 0.823901 1.38089 0
M  V30 6074 O 578.134 1.09122 1.35787 0
M  V30 6075 C 575.266 2.22197 2.58537 0
M  V30 6076 H 576.459 2.86252 0.894418 0
M  V30 6077 H 574.012 1.50263 0.430211 0
M  V30 6078 H 574.747 1.32814 2.95856 0
M  V30 6079 H 574.532 3.03688 2.48025 0
M  V30 6080 H 576.022 2.52376 3.3271 0
M  V30 6081 N 576.459 -0.456382 1.50847 0
M  V30 6082 C 577.407 -1.57318 1.71329 0
M  V30 6083 C 578.401 -1.59187 0.579287 0
M  V30 6084 O 579.607 -1.6316 0.76018 0
M  V30 6085 H 575.982 -0.5223 0.541024 0
M  V30 6086 H 577.953 -1.3721 2.64983 0
M  V30 6087 C 576.702 -2.95142 1.83811 0
M  V30 6088 H 576.025 -2.94428 2.70467 0
M  V30 6089 H 577.465 -3.72702 2.02161 0
M  V30 6090 C 575.924 -3.31636 0.593224 0
M  V30 6091 O 576.454 -4.00852 -0.260898 0
M  V30 6092 N 574.66 -2.87205 0.442902 0
M  V30 6093 H 574.207 -2.31051 1.13901 0
M  V30 6094 H 574.165 -3.11986 -0.38884 0
M  V30 6095 N 577.937 -1.40673 -0.710563 0
M  V30 6096 C 579.186 -1.38525 -1.46607 0
M  V30 6097 C 579.499 0.0077024 -1.95598 0
M  V30 6098 O 580.705 0.151792 -2.71075 0
M  V30 6099 C 579.161 -2.43489 -2.6503 0
M  V30 6100 C 578.769 -3.88619 -2.22888 0
M  V30 6101 C 580.513 -2.50456 -3.42742 0
M  V30 6102 C 578.42 -4.85168 -3.3818 0
M  V30 6103 H 577.35 -0.515092 -0.550632 0
M  V30 6104 H 580.001 -1.66431 -0.772846 0
M  V30 6105 H 578.383 -2.0869 -3.36548 0
M  V30 6106 H 579.557 -4.32588 -1.58758 0
M  V30 6107 H 577.872 -3.85174 -1.58208 0
M  V30 6108 H 580.469 -3.19776 -4.28541 0
M  V30 6109 H 580.812 -1.53665 -3.86902 0
M  V30 6110 H 581.345 -2.84271 -2.78271 0
M  V30 6111 H 578.084 -5.8331 -2.99047 0
M  V30 6112 H 577.604 -4.4586 -4.01209 0
M  V30 6113 H 579.283 -5.05225 -4.04174 0
M  V30 6114 N 579.415 0.9433 -1.26252 0
M  V30 6115 C 580.345 2.05902 -1.10122 0
M  V30 6116 C 581.326 1.70099 -0.00700552 0
M  V30 6117 O 582.511 1.93377 -0.178641 0
M  V30 6118 C 579.641 3.39516 -0.731175 0
M  V30 6119 C 578.595 3.89372 -1.77688 0
M  V30 6120 C 577.921 5.19613 -1.26122 0
M  V30 6121 C 579.221 4.14489 -3.17799 0
M  V30 6122 H 580.915 2.19655 -2.03451 0
M  V30 6123 H 578.461 1.05548 -0.979576 0
M  V30 6124 H 580.414 4.17031 -0.605215 0
M  V30 6125 H 579.138 3.25733 0.23782 0
M  V30 6126 H 577.797 3.14036 -1.89148 0
M  V30 6127 H 577.445 5.02208 -0.282128 0
M  V30 6128 H 577.145 5.53939 -1.96023 0
M  V30 6129 H 578.669 5.99713 -1.14789 0
M  V30 6130 H 580.083 4.82625 -3.09428 0
M  V30 6131 H 578.48 4.60094 -3.85271 0
M  V30 6132 H 579.55 3.20347 -3.64014 0
M  V30 6133 N 580.893 1.08022 1.14757 0
M  V30 6134 C 582.139 0.808705 1.85978 0
M  V30 6135 C 582.472 -0.663764 1.82504 0
M  V30 6136 O 581.747 -1.48765 1.25296 0
M  V30 6137 C 582.03 1.32623 3.34788 0
M  V30 6138 C 581.883 2.86375 3.46856 0
M  V30 6139 C 583.202 0.948291 4.29762 0
M  V30 6140 H 580.321 0.295244 0.675278 0
M  V30 6141 H 582.963 1.33917 1.34783 0
M  V30 6142 H 581.113 0.875002 3.78518 0
M  V30 6143 H 582.785 3.39839 3.11941 0
M  V30 6144 H 581.028 3.24232 2.88194 0
M  V30 6145 H 581.699 3.17658 4.51439 0
M  V30 6146 H 584.175 1.33722 3.94028 0
M  V30 6147 H 583.051 1.33765 5.32352 0
M  V30 6148 H 583.312 -0.145094 4.41862 0
M  V30 6149 N 582.371 -1.3172 0.865308 0
M  V30 6150 C 583.619 -1.96487 0.472995 0
M  V30 6151 C 583.94 -1.68761 -0.976975 0
M  V30 6152 O 583.21 -1.00051 -1.68424 0
M  V30 6153 H 581.79 -0.726947 0.171922 0
M  V30 6154 H 584.452 -1.60612 1.10407 0
M  V30 6155 H 583.548 -3.0574 0.62687 0
M  V30 6156 N 583.85 -0.624285 -1.44708 0
M  V30 6157 C 584.76 0.0861083 -2.34442 0
M  V30 6158 C 585.776 0.84291 -1.5222 0
M  V30 6159 O 586.952 0.796723 -1.84971 0
M  V30 6160 C 584.017 1.05999 -3.30099 0
M  V30 6161 C 583.077 0.303316 -4.28227 0
M  V30 6162 C 582.311 1.23081 -5.19314 0
M  V30 6163 O 582.534 2.46929 -5.14181 0
M  V30 6164 O 581.468 0.71883 -5.97592 0
M  V30 6165 H 585.293 -0.651756 -2.96624 0
M  V30 6166 H 582.879 -0.384493 -1.44368 0
M  V30 6167 H 584.76 1.62046 -3.88997 0
M  V30 6168 H 583.436 1.77859 -2.70459 0
M  V30 6169 H 582.343 -0.300033 -3.72895 0
M  V30 6170 H 583.676 -0.375123 -4.90768 0
M  V30 6171 N 585.328 1.53329 -0.364422 0
M  V30 6172 C 586.276 2.27212 0.497737 0
M  V30 6173 C 587.27 1.30146 1.08437 0
M  V30 6174 O 588.476 1.47778 1.0277 0
M  V30 6175 H 584.851 0.730329 0.179232 0
M  V30 6176 H 586.822 2.98037 -0.147182 0
M  V30 6177 C 585.571 3.07333 1.6261 0
M  V30 6178 H 584.894 3.81866 1.184 0
M  V30 6179 H 586.334 3.62209 2.20409 0
M  V30 6180 C 584.793 2.18102 2.56775 0
M  V30 6181 O 585.323 1.79104 3.59562 0
M  V30 6182 N 583.529 1.82759 2.25937 0
M  V30 6183 H 583.076 2.14671 1.42387 0
M  V30 6184 H 583.034 1.23342 2.89196 0
M  V30 6185 N 586.806 0.0935595 1.57322 0
M  V30 6186 C 587.736 -0.863062 2.16964 0
M  V30 6187 C 588.717 -1.29528 1.10256 0
M  V30 6188 O 589.902 -1.36245 1.38387 0
M  V30 6189 C 587.032 -2.12276 2.74875 0
M  V30 6190 C 585.986 -1.82921 3.86942 0
M  V30 6191 C 585.312 -3.15707 4.31548 0
M  V30 6192 C 586.612 -1.11737 5.10208 0
M  V30 6193 H 588.306 -0.366145 2.97153 0
M  V30 6194 H 585.852 -0.174673 1.42937 0
M  V30 6195 H 587.805 -2.79634 3.1525 0
M  V30 6196 H 586.529 -2.64248 1.91938 0
M  V30 6197 H 585.188 -1.17961 3.47103 0
M  V30 6198 H 584.836 -3.65563 3.45504 0
M  V30 6199 H 584.536 -2.96849 5.07104 0
M  V30 6200 H 586.06 -3.84226 4.74555 0
M  V30 6201 H 587.474 -1.69203 5.47762 0
M  V30 6202 H 585.871 -1.03064 5.91183 0
M  V30 6203 H 586.941 -0.0998818 4.84797 0
M  V30 6204 N 588.284 -1.56567 -0.180126 0
M  V30 6205 C 589.53 -1.81761 -0.899497 0
M  V30 6206 C 589.863 -0.670015 -1.82276 0
M  V30 6207 O 589.138 0.328575 -1.91705 0
M  V30 6208 C 589.421 -3.17296 -1.7028 0
M  V30 6209 C 589.274 -4.4257 -0.803255 0
M  V30 6210 C 590.593 -3.49678 -2.67233 0
M  V30 6211 H 587.712 -0.661192 -0.325567 0
M  V30 6212 H 590.354 -1.89272 -0.16612 0
M  V30 6213 H 588.504 -3.11023 -2.32802 0
M  V30 6214 H 590.176 -4.60902 -0.191585 0
M  V30 6215 H 588.419 -4.33658 -0.110796 0
M  V30 6216 H 589.09 -5.33935 -1.40064 0
M  V30 6217 H 591.566 -3.56347 -2.14839 0
M  V30 6218 H 590.442 -4.45605 -3.20511 0
M  V30 6219 H 590.703 -2.73932 -3.47007 0
M  V30 6220 N 589.762 0.448376 -1.51087 0
M  V30 6221 C 591.002 1.20832 -1.64861 0
M  V30 6222 C 591.366 1.88748 -0.351873 0
M  V30 6223 O 592.567 2.66307 -0.365265 0
M  V30 6224 C 590.838 2.20674 -2.81137 0
M  V30 6225 S 592.397 3.05303 -3.15176 0
M  V30 6226 H 589.215 0.40992 -0.580936 0
M  V30 6227 H 591.817 0.501624 -1.88955 0
M  V30 6228 H 590.521 1.69399 -3.73808 0
M  V30 6229 H 590.052 2.9594 -2.59198 0
M  V30 6230 H 592.067 4.22162 -2.60756 0
M  V30 6231 N 591.24 1.41047 0.703093 0
M  V30 6232 C 592.187 1.42302 1.81711 0
M  V30 6233 C 593.157 0.278336 1.63751 0
M  V30 6234 O 594.342 0.478266 1.84709 0
M  V30 6235 C 591.482 1.30362 3.19531 0
M  V30 6236 C 590.595 2.54638 3.48975 0
M  V30 6237 C 589.73 2.35047 4.76368 0
M  V30 6238 C 588.769 3.54837 4.98756 0
M  V30 6239 N 587.906 3.34363 6.1737 0
M  V30 6240 H 592.746 2.37516 1.79973 0
M  V30 6241 H 590.283 1.1795 0.878983 0
M  V30 6242 H 592.241 1.21443 3.99134 0
M  V30 6243 H 590.871 0.387602 3.20464 0
M  V30 6244 H 589.923 2.74037 2.63833 0
M  V30 6245 H 591.235 3.43766 3.61423 0
M  V30 6246 H 590.389 2.23552 5.64012 0
M  V30 6247 H 589.128 1.43363 4.66153 0
M  V30 6248 H 588.133 3.66795 4.09563 0
M  V30 6249 H 589.358 4.47464 5.10835 0
M  V30 6250 H 587.304 2.45373 6.08382 0
M  V30 6251 H 587.221 4.17063 6.30551 0
M  V30 6252 H 588.489 3.26626 7.07768 0
M  V30 6253 N 592.718 -0.936591 1.26751 0
M  V30 6254 C 593.964 -1.6858 1.12733 0
M  V30 6255 C 594.297 -1.91414 -0.327745 0
M  V30 6256 O 593.572 -1.49812 -1.24043 0
M  V30 6257 C 593.855 -3.05779 1.90187 0
M  V30 6258 C 593.708 -2.90242 3.43627 0
M  V30 6259 C 595.027 -4.0597 1.69931 0
M  V30 6260 H 592.146 -0.61182 0.410908 0
M  V30 6261 H 594.788 -1.08747 1.55801 0
M  V30 6262 H 592.938 -3.56853 1.53584 0
M  V30 6263 H 594.61 -2.46354 3.9001 0
M  V30 6264 H 592.853 -2.2577 3.70419 0
M  V30 6265 H 593.524 -3.87572 3.93055 0
M  V30 6266 H 596 -3.63874 2.0183 0
M  V30 6267 H 594.876 -4.99974 2.26534 0
M  V30 6268 H 595.137 -4.37369 0.64502 0
M  V30 6269 N 594.196 -1.08629 -1.14182 0
M  V30 6270 C 595.159 -0.722027 -2.1753 0
M  V30 6271 C 596.159 0.244305 -1.58933 0
M  V30 6272 O 597.349 0.0235545 -1.74184 0
M  V30 6273 C 594.481 -0.0663966 -3.40835 0
M  V30 6274 H 595.674 -1.63719 -2.51269 0
M  V30 6275 H 593.227 -0.884442 -1.28869 0
M  V30 6276 H 593.962 0.860389 -3.12678 0
M  V30 6277 H 593.747 -0.761598 -3.84632 0
M  V30 6278 H 595.237 0.173346 -4.1724 0
M  V30 6279 N 595.674 1.31259 -0.872281 0
M  V30 6280 C 596.951 1.91362 -0.404943 0
M  V30 6281 C 597.331 1.79362 1.11321 0
M  V30 6282 O 596.679 1.20277 1.94283 0
M  V30 6283 C 596.889 3.3749 -0.888893 0
M  V30 6284 C 598.237 4.14593 -0.916384 0
M  V30 6285 O 599.261 3.46282 -0.834701 0
M  V30 6286 O 598.12 5.3661 -1.03498 0
M  V30 6287 H 595.214 0.818016 -0.121569 0
M  V30 6288 H 597.76 1.39912 -0.960346 0
M  V30 6289 H 596.532 3.40249 -1.93251 0
M  V30 6290 H 596.155 3.96375 -0.311932 0
M  V30 6291 N 597.152 0.631951 1.44375 0
M  V30 6292 C 598.399 0.136767 2.02038 0
M  V30 6293 C 598.727 -1.24168 1.49709 0
M  V30 6294 O 597.982 -1.83809 0.671763 0
M  V30 6295 C 598.281 0.0735861 3.57324 0
M  V30 6296 C 597.947 1.39092 4.28911 0
M  V30 6297 C 596.609 1.75171 4.48184 0
M  V30 6298 C 598.961 2.26042 4.69632 0
M  V30 6299 C 596.289 2.97907 5.05439 0
M  V30 6300 C 598.641 3.4805 5.28246 0
M  V30 6301 C 597.305 3.84351 5.45738 0
M  V30 6302 H 596.575 0.0500466 0.739308 0
M  V30 6303 H 599.222 0.818429 1.7313 0
M  V30 6304 H 597.527 -0.691449 3.8565 0
M  V30 6305 H 599.224 -0.326091 3.99672 0
M  V30 6306 H 595.814 1.10015 4.1424 0
M  V30 6307 H 599.998 1.99463 4.54454 0
M  V30 6308 H 595.254 3.26108 5.17169 0
M  V30 6309 H 599.428 4.15658 5.5875 0
M  V30 6310 H 597.055 4.79538 5.8987 0
M  V30 6311 N 598.631 -1.53133 0.372548 0
M  V30 6312 C 599.879 -2.00958 -0.214534 0
M  V30 6313 C 600.2 -1.26135 -1.48711 0
M  V30 6314 O 599.47 -0.376597 -1.92246 0
M  V30 6315 H 598.05 -0.742456 -0.0822664 0
M  V30 6316 H 600.712 -1.88367 0.500385 0
M  V30 6317 H 599.808 -3.09031 -0.436605 0
M  V30 6318 N 600.109 -0.101901 -1.5727 0
M  V30 6319 C 601.039 0.851544 -2.17419 0
M  V30 6320 C 602.02 1.28942 -1.10941 0
M  V30 6321 O 603.205 1.35509 -1.39107 0
M  V30 6322 C 600.335 2.10816 -2.75996 0
M  V30 6323 C 599.289 1.80867 -3.87906 0
M  V30 6324 C 598.615 3.13413 -4.33216 0
M  V30 6325 C 599.915 1.0903 -5.10793 0
M  V30 6326 H 601.609 0.350381 -2.97343 0
M  V30 6327 H 599.155 0.16709 -1.43027 0
M  V30 6328 H 601.108 2.77959 -3.16729 0
M  V30 6329 H 599.832 2.63227 -1.93337 0
M  V30 6330 H 598.491 1.16119 -3.47724 0
M  V30 6331 H 598.139 3.63725 -3.47438 0
M  V30 6332 H 597.839 2.94155 -5.08671 0
M  V30 6333 H 599.363 3.81704 -4.76586 0
M  V30 6334 H 600.777 1.66295 -5.48652 0
M  V30 6335 H 599.174 0.99927 -5.91722 0
M  V30 6336 H 600.244 0.0741704 -4.84843 0
M  V30 6337 N 601.587 1.56661 0.17182 0
M  V30 6338 C 602.55 1.9549 1.19651 0
M  V30 6339 C 603.55 0.838501 1.37207 0
M  V30 6340 O 604.74 1.10556 1.34622 0
M  V30 6341 C 601.872 2.24927 2.56166 0
M  V30 6342 H 603.065 2.87184 0.864007 0
M  V30 6343 H 600.618 1.50711 0.41425 0
M  V30 6344 H 601.353 1.35944 2.94431 0
M  V30 6345 H 601.138 3.06301 2.4479 0
M  V30 6346 H 602.628 2.55891 3.30014 0
M  V30 6347 N 603.065 -0.440357 1.51323 0
M  V30 6348 C 604.481 -0.7766 1.39431 0
M  V30 6349 C 604.681 -1.95838 0.474296 0
M  V30 6350 O 603.737 -2.52398 -0.0716692 0
M  V30 6351 C 605.05 -1.05981 2.81405 0
M  V30 6352 C 606.598 -1.16442 2.90534 0
M  V30 6353 C 607.073 -1.48058 4.33408 0
M  V30 6354 N 608.564 -1.54988 4.36501 0
M  V30 6355 C 609.299 -1.81017 5.44078 0
M  V30 6356 N 608.795 -2.04858 6.61819 0
M  V30 6357 N 610.588 -1.82774 5.31554 0
M  V30 6358 H 602.739 0.338006 2.09693 0
M  V30 6359 H 605.002 0.0888072 0.943831 0
M  V30 6360 H 604.708 -0.264173 3.50706 0
M  V30 6361 H 604.582 -1.98822 3.20546 0
M  V30 6362 H 606.969 -1.95068 2.21432 0
M  V30 6363 H 607.05 -0.215088 2.54894 0
M  V30 6364 H 606.694 -0.699605 5.03059 0
M  V30 6365 H 606.624 -2.44192 4.66559 0
M  V30 6366 H 609.115 -1.38479 3.51613 0
M  V30 6367 H 609.428 -2.2408 7.396 0
M  V30 6368 H 607.773 -2.02187 6.6494 0
M  V30 6369 H 610.964 -1.63665 4.38556 0
M  V30 6370 H 611.137 -2.02722 6.15474 0
M  V30 6371 N 604.543 -1.41418 -0.695603 0
M  V30 6372 C 605.473 -1.46035 -1.82197 0
M  V30 6373 C 606.454 -0.319025 -1.67082 0
M  V30 6374 O 607.639 -0.530462 -1.86815 0
M  V30 6375 C 604.769 -1.34179 -3.20333 0
M  V30 6376 C 603.723 -2.46123 -3.50154 0
M  V30 6377 C 603.049 -2.19332 -4.87645 0
M  V30 6378 C 604.349 -3.88463 -3.49133 0
M  V30 6379 H 606.043 -2.40303 -1.78591 0
M  V30 6380 H 603.589 -1.15663 -0.857797 0
M  V30 6381 H 605.542 -1.36021 -3.98844 0
M  V30 6382 H 604.266 -0.363952 -3.24566 0
M  V30 6383 H 602.925 -2.43563 -2.73994 0
M  V30 6384 H 602.573 -1.19891 -4.88503 0
M  V30 6385 H 602.273 -2.94344 -5.08562 0
M  V30 6386 H 603.797 -2.22889 -5.68465 0
M  V30 6387 H 605.211 -3.92738 -4.17648 0
M  V30 6388 H 603.608 -4.63158 -3.81582 0
M  V30 6389 H 604.678 -4.16617 -2.48109 0
M  V30 6390 N 606.021 0.929856 -1.27246 0
M  V30 6391 C 607.27 1.67182 -1.12842 0
M  V30 6392 C 607.583 1.9287 0.325666 0
M  V30 6393 O 608.789 2.64999 0.590572 0
M  V30 6394 C 607.245 3.01097 -1.97151 0
M  V30 6395 C 606.853 2.83115 -3.47203 0
M  V30 6396 C 608.597 3.78907 -1.91389 0
M  V30 6397 C 606.504 4.12573 -4.23719 0
M  V30 6398 H 605.434 0.627064 -0.418697 0
M  V30 6399 H 608.085 1.0332 -1.51649 0
M  V30 6400 H 606.467 3.66004 -1.51186 0
M  V30 6401 H 607.641 2.26989 -4.01015 0
M  V30 6402 H 605.956 2.18736 -3.54321 0
M  V30 6403 H 608.553 4.74837 -2.45834 0
M  V30 6404 H 608.896 4.0674 -0.887047 0
M  V30 6405 H 609.429 3.20794 -2.35237 0
M  V30 6406 H 606.168 3.8992 -5.26918 0
M  V30 6407 H 605.688 4.68371 -3.74685 0
M  V30 6408 H 607.367 4.8095 -4.32777 0
M  V30 6409 N 607.499 1.09233 1.13605 0
M  V30 6410 C 608.409 0.741939 2.22559 0
M  V30 6411 C 609.425 -0.255236 1.72118 0
M  V30 6412 O 610.601 -0.0970747 2.01166 0
M  V30 6413 C 607.666 0.165595 3.46304 0
M  V30 6414 C 606.727 1.21846 4.11645 0
M  V30 6415 C 605.96 0.669526 5.29484 0
M  V30 6416 O 606.183 -0.508228 5.68131 0
M  V30 6417 O 605.117 1.42361 5.84822 0
M  V30 6418 H 608.943 1.65107 2.54899 0
M  V30 6419 H 606.528 0.866584 1.21699 0
M  V30 6420 H 608.41 -0.152592 4.21124 0
M  V30 6421 H 607.085 -0.716573 3.15669 0
M  V30 6422 H 605.992 1.58931 3.38662 0
M  V30 6423 H 607.325 2.07321 4.46407 0
M  V30 6424 N 608.977 -1.30795 0.87923 0
M  V30 6425 C 610.254 -1.91145 0.415086 0
M  V30 6426 C 610.634 -1.7995 -1.10368 0
M  V30 6427 O 609.982 -1.21305 -1.93642 0
M  V30 6428 C 610.192 -3.37014 0.906778 0
M  V30 6429 C 611.54 -4.14101 0.938358 0
M  V30 6430 O 612.564 -3.45834 0.853053 0
M  V30 6431 O 611.423 -5.36054 1.06342 0
M  V30 6432 H 608.517 -0.81736 0.125905 0
M  V30 6433 H 611.063 -1.39401 0.967753 0
M  V30 6434 H 609.835 -3.3922 1.95053 0
M  V30 6435 H 609.458 -3.96204 0.332948 0
M  V30 6436 N 610.455 -0.639598 -1.44038 0
M  V30 6437 C 611.403 0.0723409 -2.32487 0
M  V30 6438 C 612.397 0.827129 -1.47834 0
M  V30 6439 O 613.603 0.73907 -1.64127 0
M  V30 6440 H 609.978 0.0421696 -0.750817 0
M  V30 6441 H 611.949 -0.691593 -2.90275 0
M  V30 6442 C 610.698 1.03452 -3.31953 0
M  V30 6443 H 610.021 0.46315 -3.97108 0
M  V30 6444 H 611.461 1.502 -3.96505 0
M  V30 6445 C 609.92 2.12392 -2.61518 0
M  V30 6446 O 610.45 3.2059 -2.42044 0
M  V30 6447 N 608.656 1.88563 -2.21116 0
M  V30 6448 H 608.203 1.00577 -2.37154 0
M  V30 6449 H 608.161 2.61651 -1.74316 0
M  V30 6450 N 611.933 1.52934 -0.380664 0
M  V30 6451 C 612.843 2.29921 0.466192 0
M  V30 6452 C 613.859 1.36488 1.07922 0
M  V30 6453 O 615.035 1.69553 1.0869 0
M  V30 6454 C 612.1 3.08468 1.58266 0
M  V30 6455 C 611.161 4.17595 0.995627 0
M  V30 6456 C 610.394 4.92387 2.05889 0
M  V30 6457 O 610.617 4.67184 3.27254 0
M  V30 6458 O 609.551 5.77949 1.68102 0
M  V30 6459 H 613.377 3.03274 -0.160735 0
M  V30 6460 H 610.962 1.48698 -0.144617 0
M  V30 6461 H 612.844 3.57469 2.23145 0
M  V30 6462 H 611.519 2.37937 2.19471 0
M  V30 6463 H 610.426 3.72811 0.310332 0
M  V30 6464 H 611.759 4.90336 0.427918 0
M  V30 6465 N 613.412 0.11024 1.57214 0
M  V30 6466 C 614.642 -0.557025 1.98949 0
M  V30 6467 C 615.05 -1.61317 0.988606 0
M  V30 6468 O 614.393 -1.83679 -0.0279159 0
M  V30 6469 C 614.455 -1.24956 3.37085 0
M  V30 6470 C 614.119 -0.342398 4.55716 0
M  V30 6471 C 615.116 0.415511 5.18237 0
M  V30 6472 C 612.801 -0.256029 5.01647 0
M  V30 6473 C 614.795 1.24761 6.25071 0
M  V30 6474 C 612.482 0.579713 6.08344 0
M  V30 6475 C 613.48 1.33017 6.69922 0
M  V30 6476 O 613.168 2.15205 7.74559 0
M  V30 6477 H 612.9 -0.152792 0.658506 0
M  V30 6478 H 615.454 0.19076 2.04512 0
M  V30 6479 H 613.684 -2.04424 3.2825 0
M  V30 6480 H 615.373 -1.81286 3.63167 0
M  V30 6481 H 616.139 0.358605 4.83672 0
M  V30 6482 H 612.018 -0.829831 4.5347 0
M  V30 6483 H 615.562 1.83386 6.73064 0
M  V30 6484 H 611.459 0.638044 6.42339 0
M  V30 6485 H 612.227 2.08052 7.91617 0
M  V30 6486 N 614.89 -1.56749 -0.16351 0
M  V30 6487 C 616.118 -1.86577 -0.894233 0
M  V30 6488 C 616.533 -0.696543 -1.75481 0
M  V30 6489 O 615.89 0.334161 -1.79415 0
M  V30 6490 C 615.941 -3.15508 -1.76456 0
M  V30 6491 O 615.662 -4.27926 -0.938685 0
M  V30 6492 C 617.163 -3.58737 -2.60428 0
M  V30 6493 H 614.383 -0.618829 -0.259405 0
M  V30 6494 H 616.927 -2.03863 -0.161259 0
M  V30 6495 H 615.082 -3.00025 -2.45079 0
M  V30 6496 H 615.496 -5.01546 -1.53465 0
M  V30 6497 H 616.97 -4.51832 -3.17099 0
M  V30 6498 H 617.447 -2.83229 -3.35675 0
M  V30 6499 H 618.053 -3.76858 -1.97125 0
M  V30 6500 N 616.368 0.432326 -1.51554 0
M  V30 6501 C 617.331 1.50765 -1.72634 0
M  V30 6502 C 618.331 1.49334 -0.596314 0
M  V30 6503 O 619.521 1.51268 -0.863925 0
M  V30 6504 C 616.653 2.90284 -1.7874 0
M  V30 6505 H 617.846 1.33377 -2.68609 0
M  V30 6506 H 615.399 0.661329 -1.4162 0
M  V30 6507 H 616.134 3.13071 -0.845977 0
M  V30 6508 H 615.919 2.92727 -2.6087 0
M  V30 6509 H 617.409 3.68282 -1.96871 0
M  V30 6510 N 617.846 1.41785 0.688094 0
M  V30 6511 C 619.262 1.24419 0.999608 0
M  V30 6512 C 619.462 0.138868 2.01021 0
M  V30 6513 O 618.518 -0.494283 2.47615 0
M  V30 6514 C 619.831 2.59625 1.51709 0
M  V30 6515 C 621.379 2.66869 1.63554 0
M  V30 6516 C 621.854 4.0241 2.18702 0
M  V30 6517 N 623.345 4.04295 2.26053 0
M  V30 6518 C 624.08 5.05977 2.69768 0
M  V30 6519 N 623.576 6.18047 3.13033 0
M  V30 6520 N 625.369 4.93336 2.69398 0
M  V30 6521 H 617.52 2.12392 0.0187427 0
M  V30 6522 H 619.783 0.945347 0.0708673 0
M  V30 6523 H 619.489 3.41297 0.849059 0
M  V30 6524 H 619.363 2.82628 2.49803 0
M  V30 6525 H 621.75 1.8555 2.29467 0
M  V30 6526 H 621.831 2.47668 0.639857 0
M  V30 6527 H 621.475 4.8418 1.53402 0
M  V30 6528 H 621.405 4.18955 3.19037 0
M  V30 6529 H 623.896 3.23383 1.9553 0
M  V30 6530 H 624.209 6.91498 3.45038 0
M  V30 6531 H 622.554 6.21572 3.10923 0
M  V30 6532 H 625.745 4.04865 2.34952 0
M  V30 6533 H 625.918 5.72717 3.03148 0
M  V30 6534 N 619.324 -0.923095 1.27737 0
M  V30 6535 C 620.256 -2.02871 1.06658 0
M  V30 6536 C 621.269 -1.62786 0.0212095 0
M  V30 6537 O 622.458 -1.76548 0.263267 0
M  V30 6538 C 619.558 -3.33603 0.59682 0
M  V30 6539 C 618.731 -4.02354 1.71551 0
M  V30 6540 C 617.79 -5.11364 1.24071 0
M  V30 6541 O 616.816 -5.35075 1.94123 0
M  V30 6542 N 618.018 -5.80416 0.0988444 0
M  V30 6543 H 620.783 -2.21515 2.01869 0
M  V30 6544 H 618.344 -1.09378 1.19365 0
M  V30 6545 H 620.336 -4.03845 0.262984 0
M  V30 6546 H 618.906 -3.11499 -0.262187 0
M  V30 6547 H 618.126 -3.25786 2.2194 0
M  V30 6548 H 619.414 -4.45035 2.46619 0
M  V30 6549 H 618.812 -5.63611 -0.485743 0
M  V30 6550 H 617.369 -6.51563 -0.17578 0
M  V30 6551 N 620.802 -1.09834 -1.13024 0
M  V30 6552 C 622.05 -0.835297 -1.8403 0
M  V30 6553 C 622.371 0.640944 -1.84165 0
M  V30 6554 O 621.641 1.46517 -1.30037 0
M  V30 6555 H 620.221 -0.306018 -0.681441 0
M  V30 6556 H 622.883 -1.38734 -1.36891 0
M  V30 6557 H 621.979 -1.19258 -2.88416 0
M  V30 6558 N 622.28 1.30327 -0.886154 0
M  V30 6559 C 623.243 2.26376 -0.358687 0
M  V30 6560 C 624.243 1.52845 0.499498 0
M  V30 6561 O 625.433 1.71483 0.306485 0
M  V30 6562 C 622.565 3.37379 0.488726 0
M  V30 6563 H 623.758 2.74547 -1.20681 0
M  V30 6564 H 621.311 1.41536 -0.663113 0
M  V30 6565 H 622.046 2.94526 1.35739 0
M  V30 6566 H 621.831 3.91897 -0.126003 0
M  V30 6567 H 623.321 4.08868 0.84952 0
M  V30 6568 N 623.758 0.647228 1.43697 0
M  V30 6569 C 624.705 -0.0480092 2.3075 0
M  V30 6570 C 625.675 -0.820705 1.44408 0
M  V30 6571 O 626.86 -0.798515 1.73287 0
M  V30 6572 C 624 -1.01259 3.2991 0
M  V30 6573 C 623.113 -0.236629 4.31351 0
M  V30 6574 C 622.248 -1.19447 5.17596 0
M  V30 6575 C 621.287 -0.408595 6.10735 0
M  V30 6576 N 620.424 -1.31772 6.89623 0
M  V30 6577 H 625.264 0.700238 2.89656 0
M  V30 6578 H 622.801 0.357082 1.427 0
M  V30 6579 H 624.759 -1.58538 3.85903 0
M  V30 6580 H 623.389 -1.72778 2.72667 0
M  V30 6581 H 622.441 0.452353 3.77701 0
M  V30 6582 H 623.753 0.374731 4.9739 0
M  V30 6583 H 622.907 -1.83809 5.78186 0
M  V30 6584 H 621.646 -1.83975 4.51669 0
M  V30 6585 H 620.651 0.24841 5.49239 0
M  V30 6586 H 621.876 0.232188 6.78703 0
M  V30 6587 H 619.822 -1.94991 6.2635 0
M  V30 6588 H 619.739 -0.760779 7.52162 0
M  V30 6589 H 621.007 -1.94967 7.54724 0
M  V30 6590 N 625.236 -1.5273 0.388769 0
M  V30 6591 C 626.483 -2.01573 -0.19359 0
M  V30 6592 C 626.811 -1.27525 -1.46859 0
M  V30 6593 O 626.066 -0.363926 -1.92286 0
M  V30 6594 C 626.365 -3.53765 -0.508445 0
M  V30 6595 C 626.031 -4.4582 0.674947 0
M  V30 6596 C 624.693 -4.70703 0.999596 0
M  V30 6597 C 627.045 -5.00138 1.46666 0
M  V30 6598 C 624.373 -5.47155 2.11751 0
M  V30 6599 C 626.725 -5.77812 2.57518 0
M  V30 6600 C 625.389 -6.00975 2.90492 0
M  V30 6601 H 624.659 -0.737606 -0.0708397 0
M  V30 6602 H 627.306 -1.84134 0.526006 0
M  V30 6603 H 625.611 -3.69274 -1.30936 0
M  V30 6604 H 627.308 -3.8905 -0.971664 0
M  V30 6605 H 623.898 -4.26616 0.411906 0
M  V30 6606 H 628.082 -4.8084 1.22909 0
M  V30 6607 H 623.338 -5.63314 2.3767 0
M  V30 6608 H 627.512 -6.18904 3.19267 0
M  V30 6609 H 625.139 -6.59998 3.77236 0
M  V30 6610 N 626.714 -0.118576 -1.57153 0
M  V30 6611 C 628.125 0.40687 -1.82213 0
M  V30 6612 C 628.476 1.66636 -1.03571 0
M  V30 6613 O 627.601 2.14682 -0.272171 0
M  V30 6614 C 628.196 0.744949 -3.30509 0
M  V30 6615 C 626.755 1.21503 -3.5625 0
M  V30 6616 C 625.902 0.223511 -2.76398 0
M  V30 6617 H 628.853 -0.343712 -1.54933 0
M  V30 6618 H 628.874 1.6024 -3.45114 0
M  V30 6619 H 628.386 -0.171911 -3.87719 0
M  V30 6620 H 626.487 2.1488 -3.04396 0
M  V30 6621 H 626.6 1.16065 -4.64829 0
M  V30 6622 H 624.964 0.71046 -2.44591 0
M  V30 6623 H 625.747 -0.686439 -3.36367 0
M  V30 6624 N 628.193 1.56834 0.155195 0
M  V30 6625 C 629.442 1.82088 0.867567 0
M  V30 6626 C 629.755 0.69849 1.82703 0
M  V30 6627 O 630.961 0.836407 2.58295 0
M  V30 6628 C 629.417 3.22707 1.59336 0
M  V30 6629 C 629.025 4.42859 0.676719 0
M  V30 6630 C 630.769 3.57242 2.293 0
M  V30 6631 C 628.676 5.74501 1.40367 0
M  V30 6632 H 627.606 0.679057 0.327715 0
M  V30 6633 H 630.257 1.83105 0.120351 0
M  V30 6634 H 628.639 3.16054 2.38591 0
M  V30 6635 H 629.813 4.60731 -0.0800196 0
M  V30 6636 H 628.128 4.16311 0.0859129 0
M  V30 6637 H 630.725 4.52847 2.84312 0
M  V30 6638 H 631.068 2.82901 3.05406 0
M  V30 6639 H 631.601 3.6552 1.56972 0
M  V30 6640 H 628.34 6.51915 0.684623 0
M  V30 6641 H 627.86 5.60579 2.13332 0
M  V30 6642 H 629.539 6.17016 1.94681 0
M  V30 6643 N 629.671 -0.424282 1.51781 0
M  V30 6644 C 630.618 -1.51591 1.74037 0
M  V30 6645 C 631.588 -1.55556 0.582358 0
M  V30 6646 O 632.773 -1.72364 0.818245 0
M  V30 6647 C 629.913 -2.89188 1.8832 0
M  V30 6648 C 629.026 -2.9465 3.1592 0
M  V30 6649 C 628.161 -4.23452 3.20721 0
M  V30 6650 C 627.2 -4.22831 4.42584 0
M  V30 6651 N 626.337 -5.43178 4.44862 0
M  V30 6652 H 631.177 -1.31917 2.67212 0
M  V30 6653 H 628.714 -0.640599 1.32419 0
M  V30 6654 H 630.672 -3.69044 1.94583 0
M  V30 6655 H 629.302 -3.07392 0.985402 0
M  V30 6656 H 628.354 -2.07378 3.18902 0
M  V30 6657 H 629.666 -2.90055 4.05795 0
M  V30 6658 H 628.82 -5.1169 3.25973 0
M  V30 6659 H 627.559 -4.30722 2.28757 0
M  V30 6660 H 626.564 -3.32984 4.37495 0
M  V30 6661 H 627.789 -4.17213 5.35826 0
M  V30 6662 H 625.735 -5.51145 3.55775 0
M  V30 6663 H 625.652 -5.40515 5.28563 0
M  V30 6664 H 626.92 -6.33412 4.54324 0
M  V30 6665 N 631.149 -1.42148 -0.680565 0
M  V30 6666 C 632.395 -1.4352 -1.44131 0
M  V30 6667 C 632.75 -0.0486244 -1.92339 0
M  V30 6668 O 632.043 0.92819 -1.67616 0
M  V30 6669 C 632.237 -2.38945 -2.65782 0
M  V30 6670 C 632.066 -3.86743 -2.29477 0
M  V30 6671 C 630.836 -4.5532 -2.19115 0
M  V30 6672 C 633.034 -4.77321 -1.91491 0
M  V30 6673 N 631.016 -5.88174 -1.75853 0
M  V30 6674 C 632.387 -5.99238 -1.59103 0
M  V30 6675 C 634.442 -4.64829 -1.78432 0
M  V30 6676 C 633.145 -7.10053 -1.14968 0
M  V30 6677 C 635.171 -5.75621 -1.35702 0
M  V30 6678 C 634.533 -6.96645 -1.04234 0
M  V30 6679 H 630.632 -0.580363 -0.524121 0
M  V30 6680 H 633.216 -1.78132 -0.785939 0
M  V30 6681 H 631.387 -2.06403 -3.29017 0
M  V30 6682 H 633.119 -2.30935 -3.32342 0
M  V30 6683 H 629.874 -4.09456 -2.37998 0
M  V30 6684 H 630.298 -6.58625 -1.56661 0
M  V30 6685 H 634.94 -3.71745 -2.01409 0
M  V30 6686 H 632.658 -8.0299 -0.907365 0
M  V30 6687 H 636.244 -5.67964 -1.26126 0
M  V30 6688 H 635.124 -7.80918 -0.716707 0
M  V30 6689 N 632.627 0.916307 -1.28225 0
M  V30 6690 C 633.855 1.69901 -1.18073 0
M  V30 6691 C 634.27 1.86988 0.260968 0
M  V30 6692 O 633.627 1.39505 1.17663 0
M  V30 6693 C 633.678 3.09254 -1.87201 0
M  V30 6694 O 633.399 2.92959 -3.2574 0
M  V30 6695 C 634.9 4.0362 -1.83319 0
M  V30 6696 H 632.12 0.531181 -0.409985 0
M  V30 6697 H 634.664 1.14703 -1.69303 0
M  V30 6698 H 632.819 3.61277 -1.39848 0
M  V30 6699 H 633.233 3.81139 -3.60324 0
M  V30 6700 H 634.707 4.98873 -2.36282 0
M  V30 6701 H 635.184 4.3176 -0.805007 0
M  V30 6702 H 635.79 3.57524 -2.3034 0
M  V30 6703 N 634.105 1.10431 1.1244 0
M  V30 6704 C 635.068 0.756542 2.16354 0
M  V30 6705 C 636.068 -0.21899 1.59302 0
M  V30 6706 O 637.258 0.00415969 1.742 0
M  V30 6707 C 634.39 0.120612 3.40687 0
M  V30 6708 H 635.583 1.67696 2.48632 0
M  V30 6709 H 633.136 0.904832 1.27446 0
M  V30 6710 H 633.871 -0.810536 3.14008 0
M  V30 6711 H 633.656 0.822693 3.83372 0
M  V30 6712 H 635.146 -0.106945 4.17463 0
M  V30 6713 N 635.583 -1.29855 0.893053 0
M  V30 6714 C 636.994 -1.77946 0.564998 0
M  V30 6715 C 637.345 -1.73339 -0.919134 0
M  V30 6716 O 636.47 -1.3152 -1.71847 0
M  V30 6717 C 637.065 -3.23118 1.01883 0
M  V30 6718 C 635.624 -3.69013 0.742051 0
M  V30 6719 C 634.771 -2.50121 1.19727 0
M  V30 6720 H 637.722 -1.16611 1.07646 0
M  V30 6721 H 637.743 -3.78875 0.351249 0
M  V30 6722 H 637.255 -3.26439 2.09903 0
M  V30 6723 H 635.356 -3.71173 -0.325816 0
M  V30 6724 H 635.469 -4.60117 1.33527 0
M  V30 6725 H 633.833 -2.47128 0.616418 0
M  V30 6726 H 634.616 -2.56174 2.28538 0
M  V30 6727 N 637.061 -0.65484 -1.43351 0
M  V30 6728 C 637.971 0.0363603 -2.34572 0
M  V30 6729 C 638.987 0.810432 -1.53974 0
M  V30 6730 O 640.163 0.757308 -1.86619 0
M  V30 6731 C 637.228 0.989733 -3.32273 0
M  V30 6732 C 636.289 0.212414 -4.28774 0
M  V30 6733 C 635.522 1.12038 -5.21808 0
M  V30 6734 O 635.745 2.35967 -5.19303 0
M  V30 6735 O 634.679 0.59191 -5.98982 0
M  V30 6736 H 638.505 -0.714527 -2.95175 0
M  V30 6737 H 636.09 -0.415029 -1.4352 0
M  V30 6738 H 637.972 1.53759 -3.92347 0
M  V30 6739 H 636.647 1.72082 -2.74171 0
M  V30 6740 H 635.554 -0.379062 -3.72175 0
M  V30 6741 H 636.887 -0.479138 -4.89862 0
M  V30 6742 N 638.539 1.52521 -0.396863 0
M  V30 6743 C 639.502 2.2527 0.422604 0
M  V30 6744 C 640.502 1.27184 0.983913 0
M  V30 6745 O 641.692 1.51222 0.864723 0
M  V30 6746 C 638.824 3.01356 1.59365 0
M  V30 6747 H 640.017 2.99133 -0.214416 0
M  V30 6748 H 637.57 1.55587 -0.149128 0
M  V30 6749 H 638.305 2.31813 2.26789 0
M  V30 6750 H 638.09 3.73357 1.19779 0
M  V30 6751 H 639.58 3.56571 2.17363 0
M  V30 6752 N 640.017 0.126909 1.57088 0
M  V30 6753 C 640.98 -0.806097 2.14557 0
M  V30 6754 C 641.98 -1.18918 1.08236 0
M  V30 6755 O 643.17 -1.11339 1.33975 0
M  V30 6756 C 640.302 -2.09116 2.69227 0
M  V30 6757 H 641.495 -0.306522 2.98329 0
M  V30 6758 H 639.048 -0.122393 1.5582 0
M  V30 6759 H 639.783 -2.63486 1.89065 0
M  V30 6760 H 639.568 -1.82588 3.46993 0
M  V30 6761 H 641.058 -2.75794 3.13572 0
M  V30 6762 N 641.495 -1.56914 -0.146875 0
M  V30 6763 C 642.425 -2.01308 -1.1831 0
M  V30 6764 C 643.406 -0.892664 -1.44795 0
M  V30 6765 O 644.591 -1.16048 -1.55713 0
M  V30 6766 C 641.721 -2.3938 -2.51624 0
M  V30 6767 C 640.675 -3.54608 -2.3966 0
M  V30 6768 C 640.001 -3.78493 -3.77686 0
M  V30 6769 C 641.301 -4.87269 -1.88058 0
M  V30 6770 H 642.995 -2.88123 -0.813964 0
M  V30 6771 H 640.541 -1.38615 -0.3901 0
M  V30 6772 H 642.494 -2.69037 -3.24341 0
M  V30 6773 H 641.218 -1.49502 -2.90373 0
M  V30 6774 H 639.877 -3.25116 -1.69396 0
M  V30 6775 H 639.525 -2.85866 -4.13871 0
M  V30 6776 H 639.225 -4.56039 -3.70543 0
M  V30 6777 H 640.749 -4.10576 -4.51951 0
M  V30 6778 H 642.163 -5.15644 -2.50568 0
M  V30 6779 H 640.56 -5.68622 -1.91805 0
M  V30 6780 H 641.63 -4.77634 -0.836277 0
M  V30 6781 N 642.974 0.416227 -1.52004 0
M  V30 6782 C 644.204 1.18401 -1.69307 0
M  V30 6783 C 644.612 1.84943 -0.399072 0
M  V30 6784 O 643.955 1.72406 0.634177 0
M  V30 6785 C 644.017 2.29465 -2.76742 0
M  V30 6786 C 643.681 1.83117 -4.18709 0
M  V30 6787 C 644.678 1.32286 -5.02789 0
M  V30 6788 C 642.363 1.90167 -4.64911 0
M  V30 6789 C 644.357 0.891178 -6.31139 0
M  V30 6790 C 642.044 1.4661 -5.93253 0
M  V30 6791 C 643.042 0.961696 -6.76196 0
M  V30 6792 O 642.73 0.532388 -8.02135 0
M  V30 6793 H 642.462 0.362098 -0.570843 0
M  V30 6794 H 645.016 0.496764 -1.99302 0
M  V30 6795 H 643.246 3.01531 -2.42107 0
M  V30 6796 H 644.935 2.91252 -2.82713 0
M  V30 6797 H 645.701 1.26218 -4.68288 0
M  V30 6798 H 641.58 2.28371 -4.00459 0
M  V30 6799 H 645.124 0.496788 -6.95829 0
M  V30 6800 H 641.021 1.52355 -6.27263 0
M  V30 6801 H 641.789 0.656339 -8.15864 0
M  V30 6802 N 644.452 1.42507 0.673017 0
M  V30 6803 C 645.7 1.42789 1.43023 0
M  V30 6804 C 646.021 0.0459738 1.94946 0
M  V30 6805 O 645.291 -0.915765 1.73178 0
M  V30 6806 H 643.871 0.525657 0.530748 0
M  V30 6807 H 646.533 1.77944 0.795113 0
M  V30 6808 H 645.629 2.12872 2.28237 0
M  V30 6809 N 645.93 -0.909495 1.28709 0
M  V30 6810 C 647.346 -1.18862 1.06508 0
M  V30 6811 C 647.546 -2.00604 -0.189864 0
M  V30 6812 O 646.602 -2.36281 -0.890355 0
M  V30 6813 C 647.915 -1.91908 2.31499 0
M  V30 6814 C 649.463 -2.04773 2.36721 0
M  V30 6815 C 649.938 -2.81228 3.6149 0
M  V30 6816 N 651.429 -2.88787 3.62155 0
M  V30 6817 C 652.164 -3.48455 4.55375 0
M  V30 6818 N 651.66 -4.09369 5.58918 0
M  V30 6819 N 653.453 -3.46035 4.42963 0
M  V30 6820 H 645.604 -0.363867 2.0926 0
M  V30 6821 H 647.867 -0.223649 0.921241 0
M  V30 6822 H 647.573 -1.39275 3.22948 0
M  V30 6823 H 647.447 -2.92436 2.38245 0
M  V30 6824 H 649.834 -2.56585 1.45767 0
M  V30 6825 H 649.915 -1.03408 2.33967 0
M  V30 6826 H 649.559 -2.30094 4.5279 0
M  V30 6827 H 649.489 -3.82917 3.61499 0
M  V30 6828 H 651.98 -2.45514 2.87283 0
M  V30 6829 H 652.293 -4.52891 6.26187 0
M  V30 6830 H 650.638 -4.0786 5.62739 0
M  V30 6831 H 653.829 -2.9766 3.6127 0
M  V30 6832 H 654.002 -3.92244 5.15799 0
M  V30 6833 N 647.408 -1.11026 -1.11852 0
M  V30 6834 C 648.655 -0.85646 -1.83497 0
M  V30 6835 C 648.983 0.617938 -1.84423 0
M  V30 6836 O 648.238 1.47194 -1.28966 0
M  V30 6837 C 648.537 -1.35777 -3.30604 0
M  V30 6838 C 648.203 -2.84465 -3.49843 0
M  V30 6839 C 646.865 -3.25068 -3.54802 0
M  V30 6840 C 649.217 -3.80251 -3.56453 0
M  V30 6841 C 646.545 -4.60194 -3.63921 0
M  V30 6842 C 648.897 -5.15188 -3.67102 0
M  V30 6843 C 647.561 -5.55356 -3.70319 0
M  V30 6844 H 646.831 -0.313401 -0.671462 0
M  V30 6845 H 649.478 -1.38792 -1.31943 0
M  V30 6846 H 647.783 -0.746455 -3.84624 0
M  V30 6847 H 649.48 -1.13779 -3.8452 0
M  V30 6848 H 646.07 -2.52054 -3.46651 0
M  V30 6849 H 650.254 -3.49986 -3.51886 0
M  V30 6850 H 645.51 -4.90728 -3.64686 0
M  V30 6851 H 649.684 -5.89248 -3.71159 0
M  V30 6852 H 647.311 -6.60054 -3.77138 0
M  V30 6853 N 648.886 1.2938 -0.899927 0
M  V30 6854 C 650.114 1.99691 -0.541386 0
M  V30 6855 C 650.529 1.67355 0.873936 0
M  V30 6856 O 649.886 0.918728 1.57688 0
M  V30 6857 C 649.937 3.54168 -0.72438 0
M  V30 6858 O 649.658 3.85359 -2.08399 0
M  V30 6859 C 651.159 4.41746 -0.370819 0
M  V30 6860 H 648.379 0.638037 -0.207726 0
M  V30 6861 H 650.923 1.6491 -1.20934 0
M  V30 6862 H 649.078 3.87261 -0.103607 0
M  V30 6863 H 649.492 4.80032 -2.11352 0
M  V30 6864 H 650.966 5.49256 -0.549693 0
M  V30 6865 H 651.443 4.33712 0.692148 0
M  V30 6866 H 652.049 4.14125 -0.968543 0
M  V30 6867 N 650.364 0.662433 1.43002 0
M  V30 6868 C 651.613 0.176873 2.00923 0
M  V30 6869 C 651.926 -1.21954 1.52927 0
M  V30 6870 O 653.132 -1.80081 2.03182 0
M  V30 6871 C 651.588 0.265379 3.5892 0
M  V30 6872 C 651.196 1.66507 4.15908 0
M  V30 6873 C 652.94 -0.162103 4.2419 0
M  V30 6874 C 650.847 1.707 5.66229 0
M  V30 6875 H 649.777 0.0623627 0.751417 0
M  V30 6876 H 652.428 0.825813 1.63868 0
M  V30 6877 H 650.81 -0.451235 3.93421 0
M  V30 6878 H 651.984 2.40777 3.92891 0
M  V30 6879 H 650.299 2.03932 3.63044 0
M  V30 6880 H 652.896 -0.150745 5.34487 0
M  V30 6881 H 653.239 -1.19519 3.98774 0
M  V30 6882 H 653.772 0.503075 3.94606 0
M  V30 6883 H 650.511 2.7195 5.96426 0
M  V30 6884 H 650.031 1.00768 5.91275 0
M  V30 6885 H 651.71 1.45487 6.3043 0
M  V30 6886 N 651.842 -1.52309 0.404946 0
M  V30 6887 C 652.789 -2.26898 -0.422597 0
M  V30 6888 C 653.759 -1.2914 -1.04461 0
M  V30 6889 O 654.944 -1.57996 -1.06967 0
M  V30 6890 C 652.084 -3.09053 -1.53559 0
M  V30 6891 C 651.197 -4.21762 -0.934908 0
M  V30 6892 C 650.332 -4.91283 -2.02025 0
M  V30 6893 C 649.371 -5.95962 -1.39628 0
M  V30 6894 N 648.508 -6.59017 -2.42159 0
M  V30 6895 H 653.348 -2.97188 0.219903 0
M  V30 6896 H 650.885 -1.46607 0.120282 0
M  V30 6897 H 652.843 -3.54987 -2.19181 0
M  V30 6898 H 651.473 -2.40942 -2.14818 0
M  V30 6899 H 650.525 -3.80029 -0.167854 0
M  V30 6900 H 651.837 -4.96864 -0.439073 0
M  V30 6901 H 650.991 -5.40601 -2.75383 0
M  V30 6902 H 649.73 -4.15741 -2.54973 0
M  V30 6903 H 648.735 -5.45968 -0.648023 0
M  V30 6904 H 649.96 -6.73445 -0.874553 0
M  V30 6905 H 647.906 -5.86306 -2.94247 0
M  V30 6906 H 647.823 -7.2978 -1.97376 0
M  V30 6907 H 649.091 -7.12974 -3.15099 0
M  V30 6908 N 653.32 -0.135238 -1.57019 0
M  V30 6909 C 654.545 0.529343 -2.00531 0
M  V30 6910 C 654.97 1.58391 -1.01459 0
M  V30 6911 O 654.328 1.81296 0.0113986 0
M  V30 6912 C 654.376 1.11748 -3.42848 0
M  V30 6913 O 653.48 2.23267 -3.46736 0
M  V30 6914 H 652.821 0.130669 -0.651016 0
M  V30 6915 H 655.351 -0.228503 -2.0332 0
M  V30 6916 H 655.361 1.44905 -3.81401 0
M  V30 6917 H 654.036 0.345147 -4.14465 0
M  V30 6918 H 652.613 1.91428 -3.20015 0
M  V30 6919 N 654.798 1.5699 0.138552 0
M  V30 6920 C 656.075 1.74741 0.87891 0
M  V30 6921 C 656.455 0.705522 1.98961 0
M  V30 6922 O 655.803 -0.274066 2.2685 0
M  V30 6923 C 656.013 3.1909 1.4136 0
M  V30 6924 C 657.361 3.81023 1.87368 0
M  V30 6925 O 658.385 3.22571 1.51084 0
M  V30 6926 O 657.244 4.83722 2.54312 0
M  V30 6927 H 654.338 0.714781 0.415953 0
M  V30 6928 H 656.884 1.69248 0.123817 0
M  V30 6929 H 655.656 3.86424 0.61579 0
M  V30 6930 H 655.279 3.29043 2.23196 0
M  V30 6931 N 656.276 -0.40816 1.52223 0
M  V30 6932 C 657.522 -1.15673 1.66576 0
M  V30 6933 C 657.855 -1.90141 0.394996 0
M  V30 6934 O 657.13 -1.84798 -0.606613 0
M  V30 6935 C 657.413 -2.15042 2.88841 0
M  V30 6936 C 657.266 -1.44465 4.25969 0
M  V30 6937 C 658.585 -3.15699 3.0663 0
M  V30 6938 H 655.704 -0.41916 0.606196 0
M  V30 6939 H 658.346 -0.442348 1.84779 0
M  V30 6940 H 656.496 -2.75964 2.73452 0
M  V30 6941 H 658.168 -0.866544 4.53088 0
M  V30 6942 H 656.411 -0.746612 4.27327 0
M  V30 6943 H 657.082 -2.16976 5.07568 0
M  V30 6944 H 659.558 -2.64854 3.20923 0
M  V30 6945 H 658.434 -3.82491 3.9369 0
M  V30 6946 H 658.695 -3.83481 2.19987 0
M  V30 6947 N 657.755 -1.42862 -0.66545 0
M  V30 6948 C 659.001 -1.4504 -1.426 0
M  V30 6949 C 659.356 -0.0690217 -1.92276 0
M  V30 6950 O 658.649 0.91036 -1.68591 0
M  V30 6951 C 658.843 -2.4175 -2.63233 0
M  V30 6952 C 658.672 -3.89155 -2.25362 0
M  V30 6953 C 657.442 -4.57619 -2.14273 0
M  V30 6954 C 659.64 -4.79326 -1.86417 0
M  V30 6955 N 657.622 -5.90006 -1.69604 0
M  V30 6956 C 658.993 -6.00892 -1.52738 0
M  V30 6957 C 661.048 -4.66696 -1.73492 0
M  V30 6958 C 659.751 -7.11232 -1.0743 0
M  V30 6959 C 661.777 -5.77027 -1.29589 0
M  V30 6960 C 661.139 -6.97712 -0.968393 0
M  V30 6961 H 657.238 -0.585889 -0.517936 0
M  V30 6962 H 659.822 -1.78956 -0.767002 0
M  V30 6963 H 657.993 -2.09881 -3.26809 0
M  V30 6964 H 659.725 -2.34447 -3.29874 0
M  V30 6965 H 656.48 -4.11957 -2.33641 0
M  V30 6966 H 656.904 -6.60249 -1.49666 0
M  V30 6967 H 661.546 -3.7386 -1.97455 0
M  V30 6968 H 659.264 -8.03907 -0.822147 0
M  V30 6969 H 662.85 -5.6927 -1.20095 0
M  V30 6970 H 661.73 -7.81634 -0.63384 0
M  V30 6971 N 659.233 0.902656 -1.29189 0
M  V30 6972 C 660.458 1.69167 -1.19989 0
M  V30 6973 C 660.883 1.86607 0.236495 0
M  V30 6974 O 660.241 1.38425 1.17082 0
M  V30 6975 C 660.289 3.05532 -1.91527 0
M  V30 6976 O 659.393 3.93621 -1.2303 0
M  V30 6977 H 658.734 0.517584 -0.415936 0
M  V30 6978 H 661.264 1.12785 -1.70706 0
M  V30 6979 H 661.274 3.55693 -1.99866 0
M  V30 6980 H 659.949 2.92156 -2.96003 0
M  V30 6981 H 658.526 3.52055 -1.22928 0
M  V30 6982 N 660.711 1.11618 1.11262 0
M  V30 6983 C 661.958 0.86618 1.8304 0
M  V30 6984 C 662.286 -0.608149 1.84748 0
M  V30 6985 O 661.541 -1.46508 1.29745 0
M  V30 6986 C 661.84 1.37529 3.2988 0
M  V30 6987 C 661.506 2.86317 3.4833 0
M  V30 6988 C 660.168 3.26945 3.53073 0
M  V30 6989 C 662.52 3.82136 3.54431 0
M  V30 6990 C 659.848 4.62117 3.61475 0
M  V30 6991 C 662.2 5.17128 3.64365 0
M  V30 6992 C 660.864 5.57312 3.67369 0
M  V30 6993 H 660.134 0.316958 0.66979 0
M  V30 6994 H 662.781 1.3949 1.31205 0
M  V30 6995 H 661.086 0.766842 3.84222 0
M  V30 6996 H 662.783 1.15817 3.83911 0
M  V30 6997 H 659.373 2.53889 3.45309 0
M  V30 6998 H 663.557 3.51847 3.50025 0
M  V30 6999 H 658.813 4.92655 3.62079 0
M  V30 7000 H 662.987 5.91208 3.68029 0
M  V30 7001 H 660.614 6.62045 3.73632 0
M  V30 7002 N 662.189 -1.289 0.906776 0
M  V30 7003 C 663.437 -1.94883 0.535266 0
M  V30 7004 C 663.758 -1.71784 -0.922791 0
M  V30 7005 O 663.028 -1.05359 -1.65156 0
M  V30 7006 H 661.608 -0.721109 0.194962 0
M  V30 7007 H 664.27 -1.57018 1.15461 0
M  V30 7008 H 663.366 -3.03591 0.723821 0
M  V30 7009 N 663.667 -0.670007 -1.42649 0
M  V30 7010 C 664.916 -0.187526 -2.00826 0
M  V30 7011 C 665.229 1.21142 -1.53571 0
M  V30 7012 O 666.435 1.79001 -2.04134 0
M  V30 7013 C 664.891 -0.284409 -3.58774 0
M  V30 7014 C 664.499 -1.6871 -4.15019 0
M  V30 7015 C 666.243 0.139605 -4.2427 0
M  V30 7016 C 664.15 -1.73701 -5.65316 0
M  V30 7017 H 663.08 -0.0663468 -0.751075 0
M  V30 7018 H 665.731 -0.834492 -1.63427 0
M  V30 7019 H 664.113 0.430364 -3.93655 0
M  V30 7020 H 665.287 -2.42857 -3.91608 0
M  V30 7021 H 663.602 -2.05855 -3.61957 0
M  V30 7022 H 666.199 0.122398 -5.3456 0
M  V30 7023 H 666.542 1.17403 -3.99402 0
M  V30 7024 H 667.075 -0.523995 -3.94334 0
M  V30 7025 H 663.814 -2.75109 -5.94975 0
M  V30 7026 H 663.334 -1.03903 -5.90732 0
M  V30 7027 H 665.013 -1.48829 -6.2965 0
M  V30 7028 N 665.145 1.52092 -0.413018 0
M  V30 7029 C 666.075 2.30021 0.401567 0
M  V30 7030 C 667.056 1.34395 1.04269 0
M  V30 7031 O 668.241 1.63304 1.05097 0
M  V30 7032 C 665.371 3.12447 1.51638 0
M  V30 7033 C 664.325 4.16153 1.00005 0
M  V30 7034 C 663.651 4.86948 2.20875 0
M  V30 7035 C 664.951 5.22275 0.0513757 0
M  V30 7036 H 666.645 2.98365 -0.248704 0
M  V30 7037 H 664.191 1.4349 -0.121052 0
M  V30 7038 H 666.144 3.65733 2.09326 0
M  V30 7039 H 664.868 2.41879 2.19458 0
M  V30 7040 H 663.527 3.63882 0.445549 0
M  V30 7041 H 663.175 4.12905 2.8726 0
M  V30 7042 H 662.875 5.57057 1.86978 0
M  V30 7043 H 664.399 5.43048 2.79162 0
M  V30 7044 H 665.813 5.70778 0.537176 0
M  V30 7045 H 664.21 5.9977 -0.198977 0
M  V30 7046 H 665.28 4.76611 -0.892736 0
M  V30 7047 N 666.623 0.143563 1.56945 0
M  V30 7048 C 667.553 -0.7936 2.196 0
M  V30 7049 C 668.534 -1.25955 1.14321 0
M  V30 7050 O 669.719 -1.31773 1.42651 0
M  V30 7051 C 666.849 -2.03424 2.81489 0
M  V30 7052 C 665.803 -1.70519 3.92565 0
M  V30 7053 C 665.129 -3.01817 4.41373 0
M  V30 7054 C 666.429 -0.95449 5.13504 0
M  V30 7055 H 668.123 -0.271423 2.98167 0
M  V30 7056 H 665.669 -0.12911 1.4342 0
M  V30 7057 H 667.622 -2.69463 3.23987 0
M  V30 7058 H 666.346 -2.58008 2.00248 0
M  V30 7059 H 665.005 -1.06859 3.5068 0
M  V30 7060 H 664.653 -3.54386 3.56959 0
M  V30 7061 H 664.353 -2.80565 5.16292 0
M  V30 7062 H 665.877 -3.68934 4.86539 0
M  V30 7063 H 667.291 -1.5169 5.52868 0
M  V30 7064 H 665.688 -0.842035 5.94163 0
M  V30 7065 H 666.758 0.0544033 4.84869 0
M  V30 7066 N 668.101 -1.57061 -0.130224 0
M  V30 7067 C 669.329 -1.88432 -0.854456 0
M  V30 7068 C 669.744 -0.733608 -1.73964 0
M  V30 7069 O 669.101 0.296029 -1.80083 0
M  V30 7070 C 669.152 -3.1918 -1.69724 0
M  V30 7071 O 668.873 -4.2982 -0.847705 0
M  V30 7072 C 670.374 -3.6418 -2.5276 0
M  V30 7073 H 667.594 -0.624193 -0.246221 0
M  V30 7074 H 670.138 -2.04159 -0.11798 0
M  V30 7075 H 668.293 -3.05156 -2.3866 0
M  V30 7076 H 668.707 -5.04689 -1.42792 0
M  V30 7077 H 670.181 -4.58457 -3.07443 0
M  V30 7078 H 670.658 -2.90285 -3.29592 0
M  V30 7079 H 671.264 -3.80954 -1.89087 0
M  V30 7080 N 669.579 0.400081 -1.52437 0
M  V30 7081 C 670.489 1.51253 -1.79331 0
M  V30 7082 C 671.505 1.60188 -0.679396 0
M  V30 7083 O 672.681 1.76733 -0.965791 0
M  V30 7084 C 669.746 2.869 -1.94652 0
M  V30 7085 C 668.807 2.87777 -3.18564 0
M  V30 7086 C 668.04 4.16954 -3.33145 0
M  V30 7087 O 668.263 5.11329 -2.52783 0
M  V30 7088 O 667.197 4.2487 -4.26343 0
M  V30 7089 H 671.023 1.31461 -2.73773 0
M  V30 7090 H 668.608 0.586834 -1.37392 0
M  V30 7091 H 670.49 3.67336 -2.065 0
M  V30 7092 H 669.165 3.06741 -1.034 0
M  V30 7093 H 668.072 2.06162 -3.12167 0
M  V30 7094 H 669.405 2.72886 -4.09627 0
M  V30 7095 N 671.057 1.43213 0.657864 0
M  V30 7096 C 671.987 1.50815 1.78262 0
M  V30 7097 C 672.968 0.363211 1.66177 0
M  V30 7098 O 674.153 0.579806 1.85343 0
M  V30 7099 C 671.283 1.42625 3.16663 0
M  V30 7100 C 670.237 2.5532 3.43505 0
M  V30 7101 C 669.563 2.32184 4.81658 0
M  V30 7102 C 670.863 3.97583 3.38711 0
M  V30 7103 H 672.557 2.44954 1.72157 0
M  V30 7104 H 670.103 1.17896 0.82683 0
M  V30 7105 H 672.056 1.46548 3.95097 0
M  V30 7106 H 670.78 0.449877 3.23487 0
M  V30 7107 H 669.439 2.50742 2.6744 0
M  V30 7108 H 669.087 1.32801 4.85153 0
M  V30 7109 H 668.787 3.07724 5.00579 0
M  V30 7110 H 670.311 2.37883 5.62356 0
M  V30 7111 H 671.725 4.03673 4.07089 0
M  V30 7112 H 670.122 4.73112 3.69168 0
M  V30 7113 H 671.192 4.23049 2.36976 0
M  V30 7114 N 672.536 -0.895792 1.29666 0
M  V30 7115 C 673.764 -1.68001 1.20761 0
M  V30 7116 C 674.179 -1.87379 -0.231187 0
M  V30 7117 O 673.536 -1.41359 -1.15429 0
M  V30 7118 C 673.587 -3.06236 1.92098 0
M  V30 7119 O 673.308 -2.8774 3.30359 0
M  V30 7120 C 674.809 -4.00652 1.89717 0
M  V30 7121 H 672.029 -0.524591 0.418384 0
M  V30 7122 H 674.573 -1.11995 1.71106 0
M  V30 7123 H 672.728 -3.59007 1.45578 0
M  V30 7124 H 673.142 -3.75359 3.66342 0
M  V30 7125 H 674.616 -4.95051 2.44189 0
M  V30 7126 H 675.093 -4.30424 0.873595 0
M  V30 7127 H 675.699 -3.53815 2.35998 0
M  V30 7128 N 674.014 -1.12206 -1.10668 0
M  V30 7129 C 675.242 -0.898635 -1.86366 0
M  V30 7130 C 675.657 0.551991 -1.80551 0
M  V30 7131 O 675.014 1.38152 -1.19249 0
M  V30 7132 C 675.065 -1.36199 -3.34861 0
M  V30 7133 O 674.786 -2.75576 -3.40573 0
M  V30 7134 C 676.287 -1.17515 -4.2744 0
M  V30 7135 H 673.507 -0.321281 -0.589084 0
M  V30 7136 H 676.051 -1.49142 -1.39918 0
M  V30 7137 H 674.206 -0.81249 -3.78784 0
M  V30 7138 H 674.62 -2.95851 -4.33096 0
M  V30 7139 H 676.094 -1.54827 -5.29842 0
M  V30 7140 H 676.571 -0.115486 -4.39048 0
M  V30 7141 H 677.177 -1.71203 -3.89319 0
M  V30 7142 N 675.492 1.28418 -0.913599 0
M  V30 7143 C 676.439 2.27301 -0.400373 0
M  V30 7144 C 677.409 1.57582 0.52509 0
M  V30 7145 O 678.594 1.85482 0.447318 0
M  V30 7146 C 675.734 3.43284 0.35361 0
M  V30 7147 C 674.847 4.27752 -0.604341 0
M  V30 7148 C 673.982 5.30934 0.168075 0
M  V30 7149 C 673.021 6.07065 -0.783499 0
M  V30 7150 N 672.158 7.02086 -0.0446112 0
M  V30 7151 H 676.998 2.70579 -1.24865 0
M  V30 7152 H 674.535 1.33067 -0.627028 0
M  V30 7153 H 676.493 4.09322 0.806945 0
M  V30 7154 H 675.123 3.00997 1.16623 0
M  V30 7155 H 674.175 3.61759 -1.17621 0
M  V30 7156 H 675.487 4.80682 -1.33216 0
M  V30 7157 H 674.641 6.02855 0.681979 0
M  V30 7158 H 673.38 4.78771 0.928947 0
M  V30 7159 H 672.385 5.33995 -1.30878 0
M  V30 7160 H 673.61 6.61317 -1.54392 0
M  V30 7161 H 671.556 6.52273 0.698272 0
M  V30 7162 H 671.473 7.52637 -0.712258 0
M  V30 7163 H 672.741 7.78205 0.449102 0
M  V30 7164 N 676.97 0.677563 1.42291 0
M  V30 7165 C 678.218 0.200578 2.01102 0
M  V30 7166 C 678.539 -1.19803 1.53858 0
M  V30 7167 O 677.809 -1.80496 0.761439 0
M  V30 7168 H 676.389 0.0711634 0.743603 0
M  V30 7169 H 679.051 0.874691 1.7417 0
M  V30 7170 H 678.147 0.204 3.11433 0
M  V30 7171 N 678.448 -1.51871 0.421078 0
M  V30 7172 C 679.864 -1.59435 0.0725398 0
M  V30 7173 C 680.064 -1.43315 -1.41644 0
M  V30 7174 O 679.12 -1.26614 -2.18461 0
M  V30 7175 C 680.433 -2.9509 0.578132 0
M  V30 7176 C 681.981 -3.08356 0.537149 0
M  V30 7177 C 682.456 -4.4651 1.01945 0
M  V30 7178 N 683.947 -4.52784 0.976758 0
M  V30 7179 C 684.682 -5.57976 1.32099 0
M  V30 7180 N 684.178 -6.70664 1.73727 0
M  V30 7181 N 685.971 -5.48248 1.2402 0
M  V30 7182 H 678.122 -1.60595 1.39007 0
M  V30 7183 H 680.385 -0.756138 0.571803 0
M  V30 7184 H 680.091 -3.12205 1.61929 0
M  V30 7185 H 679.965 -3.772 -0.00578374 0
M  V30 7186 H 682.352 -2.90919 -0.494991 0
M  V30 7187 H 682.433 -2.28125 1.15727 0
M  V30 7188 H 682.077 -4.64692 2.04997 0
M  V30 7189 H 682.007 -5.25256 0.376023 0
M  V30 7190 H 684.498 -3.71898 0.670851 0
M  V30 7191 H 684.811 -7.46932 1.98274 0
M  V30 7192 H 683.156 -6.71914 1.77641 0
M  V30 7193 H 686.347 -4.59095 0.913756 0
M  V30 7194 H 686.52 -6.30119 1.51176 0
M  V30 7195 N 679.926 -0.151884 -1.56866 0
M  V30 7196 C 681.172 0.498742 -1.96572 0
M  V30 7197 C 681.505 1.64194 -1.03702 0
M  V30 7198 O 680.78 1.94334 -0.0803432 0
M  V30 7199 C 681.063 1.00027 -3.45929 0
M  V30 7200 C 680.916 -0.141767 -4.49577 0
M  V30 7201 C 682.235 1.88044 -3.97904 0
M  V30 7202 H 679.354 0.17982 -0.714726 0
M  V30 7203 H 681.996 -0.234097 -1.88552 0
M  V30 7204 H 680.146 1.62476 -3.52894 0
M  V30 7205 H 681.818 -0.778269 -4.54687 0
M  V30 7206 H 680.061 -0.80019 -4.26356 0
M  V30 7207 H 680.732 0.250947 -5.51429 0
M  V30 7208 H 683.208 1.35416 -3.93449 0
M  V30 7209 H 682.084 2.20043 -5.02864 0
M  V30 7210 H 682.345 2.81916 -3.40552 0
M  V30 7211 N 681.404 1.57128 0.121893 0
M  V30 7212 C 682.815 1.73902 0.679348 0
M  V30 7213 C 683.166 0.770135 1.80453 0
M  V30 7214 O 682.291 -0.0576083 2.16323 0
M  V30 7215 C 682.886 3.15328 1.2391 0
M  V30 7216 C 681.445 3.33618 1.74288 0
M  V30 7217 C 680.592 2.6978 0.641414 0
M  V30 7218 H 683.543 1.58359 -0.104 0
M  V30 7219 H 683.564 3.16718 2.10879 0
M  V30 7220 H 683.076 3.85821 0.419957 0
M  V30 7221 H 681.177 2.68162 2.58689 0
M  V30 7222 H 681.29 4.4176 1.85432 0
M  V30 7223 H 679.654 2.30935 1.0743 0
M  V30 7224 H 680.437 3.42895 -0.166707 0
M  V30 7225 N 682.882 -0.391992 1.52647 0
M  V30 7226 C 684.112 -1.15692 1.71169 0
M  V30 7227 C 684.52 -1.84285 0.428444 0
M  V30 7228 O 683.863 -1.73393 -0.606669 0
M  V30 7229 C 683.925 -2.25033 2.80357 0
M  V30 7230 C 683.589 -1.76433 4.21569 0
M  V30 7231 C 684.586 -1.2427 5.0483 0
M  V30 7232 C 682.271 -1.82746 4.67877 0
M  V30 7233 C 684.265 -0.790657 6.32477 0
M  V30 7234 C 681.952 -1.37153 5.9551 0
M  V30 7235 C 682.95 -0.853997 6.7764 0
M  V30 7236 O 682.638 -0.404708 8.02881 0
M  V30 7237 H 682.37 -0.35297 0.576531 0
M  V30 7238 H 684.924 -0.464994 2.00067 0
M  V30 7239 H 683.154 -2.97641 2.46874 0
M  V30 7240 H 684.843 -2.86718 2.87311 0
M  V30 7241 H 685.609 -1.18752 4.70237 0
M  V30 7242 H 681.488 -2.21971 4.04042 0
M  V30 7243 H 685.032 -0.386024 6.96531 0
M  V30 7244 H 680.929 -1.42356 6.29607 0
M  V30 7245 H 681.697 -0.526459 8.16805 0
M  V30 7246 N 684.36 -1.4356 -0.65026 0
M  V30 7247 C 685.771 -1.40324 -1.2315 0
M  V30 7248 C 686.122 -0.108812 -1.95898 0
M  V30 7249 O 685.247 0.79163 -2.01401 0
M  V30 7250 C 685.842 -2.54195 -2.23987 0
M  V30 7251 C 684.401 -2.54215 -2.77582 0
M  V30 7252 C 683.548 -2.31752 -1.5227 0
M  V30 7253 H 686.499 -1.52418 -0.442095 0
M  V30 7254 H 686.52 -2.25854 -3.0622 0
M  V30 7255 H 686.032 -3.48392 -1.71011 0
M  V30 7256 H 684.133 -1.63907 -3.34612 0
M  V30 7257 H 684.246 -3.52081 -3.24925 0
M  V30 7258 H 682.61 -1.80476 -1.79723 0
M  V30 7259 H 683.393 -3.28037 -1.01225 0
M  V30 7260 N 685.838 0.888903 -1.30139 0
M  V30 7261 C 687.086 1.63713 -1.18501 0
M  V30 7262 C 687.407 1.9324 0.261399 0
M  V30 7263 O 686.677 1.56608 1.17689 0
M  V30 7264 H 685.257 0.606861 -0.435579 0
M  V30 7265 H 687.919 1.06525 -1.63213 0
M  V30 7266 H 687.015 2.58894 -1.743 0
M  V30 7267 N 687.317 1.12792 1.10072 0
M  V30 7268 C 688.25 0.742921 2.15768 0
M  V30 7269 C 689.228 -0.267714 1.60381 0
M  V30 7270 O 690.412 -0.160782 1.87813 0
M  V30 7271 C 687.539 0.100244 3.38552 0
M  V30 7272 C 686.585 1.07831 4.12644 0
M  V30 7273 S 687.418 2.60765 4.6772 0
M  V30 7274 C 688.574 1.97838 5.9381 0
M  V30 7275 H 688.807 1.63822 2.48092 0
M  V30 7276 H 686.34 0.947385 1.21918 0
M  V30 7277 H 688.298 -0.264175 4.09649 0
M  V30 7278 H 686.959 -0.772223 3.04459 0
M  V30 7279 H 686.152 0.576325 5.00694 0
M  V30 7280 H 685.754 1.38586 3.47376 0
M  V30 7281 H 688.046 1.32341 6.64449 0
M  V30 7282 H 688.989 2.83943 6.48677 0
M  V30 7283 H 689.397 1.43267 5.46017 0
M  V30 7284 N 688.795 -1.27931 0.920396 0
M  V30 7285 C 690.043 -1.94304 0.555906 0
M  V30 7286 C 690.364 -1.72753 -0.904519 0
M  V30 7287 O 689.634 -1.07104 -1.64029 0
M  V30 7288 H 688.214 -0.719001 0.202599 0
M  V30 7289 H 690.876 -1.55785 1.1712 0
M  V30 7290 H 689.972 -3.02806 0.755981 0
M  V30 7291 N 690.273 -0.685099 -1.4193 0
M  V30 7292 C 691.221 -0.00165985 -2.326 0
M  V30 7293 C 692.215 0.779678 -1.50391 0
M  V30 7294 O 693.421 0.68648 -1.66395 0
M  V30 7295 H 689.796 0.0182616 -0.751778 0
M  V30 7296 H 691.767 -0.783592 -2.87928 0
M  V30 7297 C 690.516 0.928385 -3.35077 0
M  V30 7298 H 689.839 0.336578 -3.98381 0
M  V30 7299 H 691.279 1.37509 -4.01083 0
M  V30 7300 C 689.738 2.03964 -2.68142 0
M  V30 7301 O 690.268 3.12727 -2.5212 0
M  V30 7302 N 688.474 1.81433 -2.27003 0
M  V30 7303 H 688.021 0.929807 -2.40234 0
M  V30 7304 H 687.979 2.55973 -1.82552 0
M  V30 7305 N 691.751 1.51645 -0.429126 0
M  V30 7306 C 692.999 2.01616 0.139802 0
M  V30 7307 C 693.32 1.31568 1.43927 0
M  V30 7308 O 692.59 0.447688 1.90716 0
M  V30 7309 H 691.17 0.744998 0.054654 0
M  V30 7310 H 693.832 1.8638 -0.569952 0
M  V30 7311 H 692.928 3.10439 0.321609 0
M  V30 7312 N 693.229 0.160201 1.56784 0
M  V30 7313 C 694.139 -0.787167 2.21 0
M  V30 7314 C 695.155 -1.26167 1.19825 0
M  V30 7315 O 696.331 -1.31611 1.52448 0
M  V30 7316 C 693.396 -2.00364 2.8294 0
M  V30 7317 C 692.457 -1.5771 3.99282 0
M  V30 7318 C 691.69 -2.73558 4.58259 0
M  V30 7319 O 691.913 -3.90129 4.16119 0
M  V30 7320 O 690.847 -2.48271 5.48311 0
M  V30 7321 H 694.673 -0.270462 3.02493 0
M  V30 7322 H 692.258 -0.0674666 1.49248 0
M  V30 7323 H 694.14 -2.71529 3.22257 0
M  V30 7324 H 692.815 -2.50961 2.04451 0
M  V30 7325 H 691.722 -0.835274 3.64656 0
M  V30 7326 H 693.055 -1.11815 4.79331 0
M  V30 7327 N 694.707 -1.5719 -0.113559 0
M  V30 7328 C 695.953 -1.85412 -0.821597 0
M  V30 7329 C 696.286 -0.746722 -1.7927 0
M  V30 7330 O 695.561 0.246971 -1.92926 0
M  V30 7331 C 695.844 -3.24233 -1.56669 0
M  V30 7332 C 695.697 -4.45578 -0.614823 0
M  V30 7333 C 697.016 -3.60697 -2.52161 0
M  V30 7334 H 694.135 -0.674406 -0.29723 0
M  V30 7335 H 696.777 -1.89807 -0.085694 0
M  V30 7336 H 694.927 -3.20617 -2.19401 0
M  V30 7337 H 696.599 -4.613 0.00407137 0
M  V30 7338 H 694.842 -4.33738 0.0732332 0
M  V30 7339 H 695.513 -5.39395 -1.17292 0
M  V30 7340 H 697.989 -3.65139 -1.99532 0
M  V30 7341 H 696.865 -4.58798 -3.01323 0
M  V30 7342 H 697.126 -2.88403 -3.35076 0
M  V30 7343 N 696.185 0.383891 -1.52853 0
M  V30 7344 C 697.115 1.47559 -1.80965 0
M  V30 7345 C 698.096 1.5669 -0.661986 0
M  V30 7346 O 699.281 1.71556 -0.910072 0
M  V30 7347 C 696.411 2.85114 -1.98312 0
M  V30 7348 C 695.365 2.9082 -3.14019 0
M  V30 7349 C 694.691 4.30873 -3.16627 0
M  V30 7350 C 695.991 2.60001 -4.52986 0
M  V30 7351 H 697.685 1.24283 -2.72386 0
M  V30 7352 H 695.231 0.596445 -1.31067 0
M  V30 7353 H 697.184 3.61496 -2.16561 0
M  V30 7354 H 695.908 3.09738 -1.03585 0
M  V30 7355 H 694.567 2.16886 -2.9556 0
M  V30 7356 H 694.215 4.52545 -2.19573 0
M  V30 7357 H 693.915 4.3561 -3.94357 0
M  V30 7358 H 695.439 5.09154 -3.37038 0
M  V30 7359 H 696.853 3.261 -4.71521 0
M  V30 7360 H 695.25 2.76081 -5.32822 0
M  V30 7361 H 696.32 1.5532 -4.59351 0
M  V30 7362 N 697.663 1.43903 0.642637 0
M  V30 7363 C 698.94 1.36556 1.40043 0
M  V30 7364 C 699.32 0.0185588 2.11092 0
M  V30 7365 O 698.668 -0.998438 2.05532 0
M  V30 7366 C 698.878 2.55596 2.37638 0
M  V30 7367 C 700.226 2.99153 3.01318 0
M  V30 7368 O 701.25 2.55719 2.47965 0
M  V30 7369 O 700.109 3.74427 3.98078 0
M  V30 7370 H 697.203 0.540189 0.626198 0
M  V30 7371 H 699.749 1.55971 0.668657 0
M  V30 7372 H 698.521 3.45256 1.84158 0
M  V30 7373 H 698.144 2.38334 3.18249 0
M  V30 7374 N 699.141 -0.881989 1.30609 0
M  V30 7375 C 700.557 -1.16576 1.09005 0
M  V30 7376 C 700.757 -2.00961 -0.14727 0
M  V30 7377 O 699.813 -2.38117 -0.840036 0
M  V30 7378 C 701.126 -1.86954 2.35518 0
M  V30 7379 C 702.674 -1.99706 2.41011 0
M  V30 7380 C 703.149 -2.73497 3.67374 0
M  V30 7381 N 704.64 -2.8104 3.68199 0
M  V30 7382 C 705.375 -3.38718 4.62664 0
M  V30 7383 N 704.871 -3.97421 5.67475 0
M  V30 7384 N 706.664 -3.36561 4.50203 0
M  V30 7385 H 698.815 -0.319398 2.09985 0
M  V30 7386 H 701.078 -0.204058 0.925778 0
M  V30 7387 H 700.784 -1.32393 3.2583 0
M  V30 7388 H 700.658 -2.87317 2.44395 0
M  V30 7389 H 703.045 -2.53436 1.51176 0
M  V30 7390 H 703.126 -0.984218 2.36108 0
M  V30 7391 H 702.77 -2.20438 4.57569 0
M  V30 7392 H 702.7 -3.75163 3.6954 0
M  V30 7393 H 705.191 -2.39365 2.92426 0
M  V30 7394 H 705.504 -4.39507 6.35652 0
M  V30 7395 H 703.849 -3.95832 5.71264 0
M  V30 7396 H 707.04 -2.8993 3.67503 0
M  V30 7397 H 707.213 -3.81215 5.24003 0
M  V30 7398 N 700.619 -1.13374 -1.09472 0
M  V30 7399 C 701.865 -0.896516 -1.81908 0
M  V30 7400 C 702.198 0.575933 -1.85463 0
M  V30 7401 O 701.473 1.42618 -1.32251 0
M  V30 7402 C 701.756 -1.48445 -3.28079 0
M  V30 7403 C 701.609 -3.02598 -3.32798 0
M  V30 7404 C 702.928 -1.15226 -4.24748 0
M  V30 7405 H 700.047 -0.327127 -0.660422 0
M  V30 7406 H 702.689 -1.40195 -1.2824 0
M  V30 7407 H 700.839 -1.0546 -3.73912 0
M  V30 7408 H 702.511 -3.54335 -2.95372 0
M  V30 7409 H 700.754 -3.37613 -2.72397 0
M  V30 7410 H 701.425 -3.38835 -4.3577 0
M  V30 7411 H 703.901 -1.52369 -3.87199 0
M  V30 7412 H 702.777 -1.59012 -5.25363 0
M  V30 7413 H 703.038 -0.0658891 -4.42051 0
M  V30 7414 N 702.098 1.27442 -0.927168 0
M  V30 7415 C 703.008 2.30599 -0.431448 0
M  V30 7416 C 704.024 1.67028 0.48761 0
M  V30 7417 O 705.2 1.97962 0.370546 0
M  V30 7418 C 702.265 3.45327 0.308292 0
M  V30 7419 C 701.326 4.24418 -0.645615 0
M  V30 7420 C 700.559 5.33667 0.0589164 0
M  V30 7421 O 700.782 5.5589 1.27838 0
M  V30 7422 O 699.716 5.98774 -0.612638 0
M  V30 7423 H 703.542 2.75036 -1.28797 0
M  V30 7424 H 701.127 1.32382 -0.692495 0
M  V30 7425 H 703.009 4.15107 0.725555 0
M  V30 7426 H 701.684 3.02945 1.14043 0
M  V30 7427 H 700.591 3.57174 -1.11255 0
M  V30 7428 H 701.924 4.70512 -1.44496 0
M  V30 7429 N 703.576 0.692616 1.41565 0
M  V30 7430 C 704.992 0.363878 1.55397 0
M  V30 7431 C 705.192 -1.1294 1.66874 0
M  V30 7432 O 704.248 -1.91517 1.64552 0
M  V30 7433 C 705.561 1.10982 2.7947 0
M  V30 7434 C 707.109 1.09387 2.93263 0
M  V30 7435 C 707.584 1.8215 4.20221 0
M  V30 7436 N 709.075 1.79105 4.27172 0
M  V30 7437 C 709.81 2.32247 5.2426 0
M  V30 7438 N 709.306 2.93847 6.27396 0
M  V30 7439 N 711.099 2.22519 5.1618 0
M  V30 7440 H 703.25 1.66116 1.3236 0
M  V30 7441 H 705.513 0.700848 0.63837 0
M  V30 7442 H 705.219 2.1647 2.77188 0
M  V30 7443 H 705.093 0.686492 3.709 0
M  V30 7444 H 707.48 0.0472638 2.95062 0
M  V30 7445 H 707.561 1.55623 2.03015 0
M  V30 7446 H 707.205 2.86789 4.19183 0
M  V30 7447 H 707.135 1.33351 5.09436 0
M  V30 7448 H 709.626 1.34191 3.53272 0
M  V30 7449 H 709.939 3.31972 6.97864 0
M  V30 7450 H 708.284 2.97924 6.27906 0
M  V30 7451 H 711.475 1.7407 4.34531 0
M  V30 7452 H 711.648 2.64239 5.91677 0
M  V30 7453 N 705.054 -1.51416 0.437162 0
M  V30 7454 C 706.302 -2.01687 -0.129108 0
M  V30 7455 C 706.623 -1.32329 -1.43227 0
M  V30 7456 O 705.893 -0.457796 -1.90476 0
M  V30 7457 H 704.473 -0.745277 -0.0507023 0
M  V30 7458 H 707.135 -1.86075 0.579828 0
M  V30 7459 H 706.231 -3.10605 -0.305141 0
M  V30 7460 N 706.532 -0.168513 -1.56696 0
M  V30 7461 C 707.762 0.482802 -2.0088 0
M  V30 7462 C 708.17 1.57537 -1.0478 0
M  V30 7463 O 707.513 1.83656 -0.0402746 0
M  V30 7464 C 707.575 1.1236 -3.4149 0
M  V30 7465 C 707.239 0.173027 -4.56672 0
M  V30 7466 C 708.236 -0.607565 -5.16338 0
M  V30 7467 C 705.921 0.0696691 -5.02252 0
M  V30 7468 C 707.915 -1.47874 -6.2001 0
M  V30 7469 C 705.602 -0.805096 -6.05773 0
M  V30 7470 C 706.6 -1.57789 -6.64524 0
M  V30 7471 O 706.288 -2.43804 -7.66038 0
M  V30 7472 H 706.02 0.128246 -0.663723 0
M  V30 7473 H 708.574 -0.266532 -2.03663 0
M  V30 7474 H 706.804 1.921 -3.35611 0
M  V30 7475 H 708.493 1.67683 -3.69645 0
M  V30 7476 H 709.259 -0.53787 -4.82008 0
M  V30 7477 H 705.138 0.660957 -4.56237 0
M  V30 7478 H 708.682 -2.0824 -6.65794 0
M  V30 7479 H 704.579 -0.876005 -6.39528 0
M  V30 7480 H 705.347 -2.37289 -7.83349 0
M  V30 7481 N 708.01 1.57248 0.105221 0
M  V30 7482 C 709.426 1.52853 0.459153 0
M  V30 7483 C 709.626 0.883674 1.8109 0
M  V30 7484 O 708.682 0.471864 2.48052 0
M  V30 7485 C 709.995 2.97596 0.43096 0
M  V30 7486 C 711.543 3.08758 0.513536 0
M  V30 7487 C 712.018 4.55089 0.515593 0
M  V30 7488 N 713.509 4.59597 0.576639 0
M  V30 7489 C 714.244 5.70253 0.599904 0
M  V30 7490 N 713.74 6.90368 0.579985 0
M  V30 7491 N 715.533 5.58399 0.643953 0
M  V30 7492 H 707.684 1.97547 -0.780306 0
M  V30 7493 H 709.947 0.902758 -0.289363 0
M  V30 7494 H 709.653 3.48201 -0.494903 0
M  V30 7495 H 709.527 3.55756 1.2537 0
M  V30 7496 H 711.914 2.58148 1.42982 0
M  V30 7497 H 711.995 2.53568 -0.337148 0
M  V30 7498 H 711.639 5.06348 -0.396701 0
M  V30 7499 H 711.569 5.08105 1.38335 0
M  V30 7500 H 714.06 3.73144 0.597639 0
M  V30 7501 H 714.373 7.70462 0.600741 0
M  V30 7502 H 712.718 6.92843 0.547191 0
M  V30 7503 H 715.909 4.63467 0.656975 0
M  V30 7504 H 716.082 6.44644 0.658616 0
M  V30 7505 N 709.488 -0.375779 1.53054 0
M  V30 7506 C 710.421 -1.48187 1.7354 0
M  V30 7507 C 711.399 -1.5177 0.583495 0
M  V30 7508 O 712.583 -1.69976 0.81488 0
M  V30 7509 C 709.71 -2.86598 1.80497 0
M  V30 7510 C 708.756 -3.00784 3.02376 0
M  V30 7511 S 709.589 -2.70601 4.62099 0
M  V30 7512 C 710.745 -4.11181 4.71891 0
M  V30 7513 H 710.978 -1.30587 2.67085 0
M  V30 7514 H 708.511 -0.569485 1.43514 0
M  V30 7515 H 710.469 -3.66353 1.85192 0
M  V30 7516 H 709.13 -3.01514 0.880217 0
M  V30 7517 H 708.323 -4.02128 3.03824 0
M  V30 7518 H 707.925 -2.28939 2.95742 0
M  V30 7519 H 710.217 -5.0529 4.51319 0
M  V30 7520 H 711.16 -4.14742 5.73929 0
M  V30 7521 H 711.568 -3.97706 4.00612 0
M  V30 7522 N 710.966 -1.44241 -0.634997 0
M  V30 7523 C 712.377 -1.41622 -1.21655 0
M  V30 7524 C 712.728 -0.129584 -1.95772 0
M  V30 7525 O 711.853 0.770225 -2.02229 0
M  V30 7526 C 712.448 -2.56557 -2.21278 0
M  V30 7527 C 711.007 -2.57145 -2.7487 0
M  V30 7528 C 710.154 -2.33354 -1.49804 0
M  V30 7529 H 713.105 -1.52878 -0.425905 0
M  V30 7530 H 713.126 -2.29089 -3.03807 0
M  V30 7531 H 712.638 -3.50186 -1.67306 0
M  V30 7532 H 710.739 -1.67447 -3.32855 0
M  V30 7533 H 710.852 -3.55507 -3.21172 0
M  V30 7534 H 709.216 -1.82372 -1.77799 0
M  V30 7535 H 709.999 -3.29092 -0.977402 0
M  V30 7536 N 712.444 0.87505 -1.31075 0
M  V30 7537 C 713.684 1.64174 -1.21763 0
M  V30 7538 C 714.048 1.90713 0.221933 0
M  V30 7539 O 715.249 2.652 0.438458 0
M  V30 7540 C 713.52 2.93932 -2.0332 0
M  V30 7541 S 715.079 3.84841 -2.10815 0
M  V30 7542 H 711.897 0.563358 -0.433761 0
M  V30 7543 H 714.499 1.03788 -1.65675 0
M  V30 7544 H 713.203 2.72349 -3.07009 0
M  V30 7545 H 712.734 3.59345 -1.60108 0
M  V30 7546 H 714.749 4.80385 -1.24276 0
M  V30 7547 N 713.922 1.13953 1.08869 0
M  V30 7548 C 715.333 0.916649 1.62648 0
M  V30 7549 C 715.684 -0.545589 1.88462 0
M  V30 7550 O 714.809 -1.41351 1.63856 0
M  V30 7551 C 715.404 1.65751 2.95486 0
M  V30 7552 C 713.963 1.48034 3.46068 0
M  V30 7553 C 713.11 1.68305 2.20383 0
M  V30 7554 H 716.061 1.292 0.921572 0
M  V30 7555 H 716.082 1.11794 3.63707 0
M  V30 7556 H 715.594 2.72171 2.76667 0
M  V30 7557 H 713.695 0.439416 3.7 0
M  V30 7558 H 713.808 2.24719 4.23129 0
M  V30 7559 H 712.172 1.10833 2.29321 0
M  V30 7560 H 712.955 2.76057 2.04077 0
M  V30 7561 N 715.4 -1.26948 0.933913 0
M  V30 7562 C 716.811 -1.76058 0.621324 0
M  V30 7563 C 717.162 -1.76175 -0.863522 0
M  V30 7564 O 716.287 -1.36921 -1.67576 0
M  V30 7565 C 716.882 -3.19713 1.12111 0
M  V30 7566 C 715.441 -3.66465 0.859074 0
M  V30 7567 C 714.588 -2.46186 1.27624 0
M  V30 7568 H 717.539 -1.13127 1.11301 0
M  V30 7569 H 717.56 -3.77566 0.471608 0
M  V30 7570 H 717.072 -3.19596 2.20182 0
M  V30 7571 H 715.173 -3.72021 -0.207566 0
M  V30 7572 H 715.286 -4.55636 1.48098 0
M  V30 7573 H 713.65 -2.45042 0.694727 0
M  V30 7574 H 714.433 -2.48774 2.36572 0
M  V30 7575 N 716.879 -0.700114 -1.41195 0
M  V30 7576 C 717.789 -0.0382854 -2.34569 0
M  V30 7577 C 718.805 0.761036 -1.56474 0
M  V30 7578 O 719.981 0.697553 -1.88934 0
M  V30 7579 C 717.046 0.883522 -3.35253 0
M  V30 7580 C 716.107 0.0758957 -4.29233 0
M  V30 7581 C 715.34 0.9538 -5.25108 0
M  V30 7582 O 715.563 2.19326 -5.26547 0
M  V30 7583 O 714.497 0.401049 -6.00562 0
M  V30 7584 H 718.323 -0.808073 -2.92752 0
M  V30 7585 H 715.908 -0.460479 -1.42127 0
M  V30 7586 H 717.79 1.41199 -3.9704 0
M  V30 7587 H 716.465 1.63272 -2.79506 0
M  V30 7588 H 715.372 -0.497274 -3.7078 0
M  V30 7589 H 716.705 -0.634741 -4.8809 0
M  V30 7590 N 718.357 1.51182 -0.445186 0
M  V30 7591 C 719.597 2.04061 0.117717 0
M  V30 7592 C 719.961 1.32158 1.39278 0
M  V30 7593 O 721.162 1.75452 2.03642 0
M  V30 7594 C 719.433 3.55933 0.323445 0
M  V30 7595 S 720.992 4.30516 0.848627 0
M  V30 7596 H 717.81 0.710442 0.028165 0
M  V30 7597 H 720.412 1.85858 -0.606391 0
M  V30 7598 H 719.116 4.0583 -0.610764 0
M  V30 7599 H 718.647 3.78444 1.07441 0
M  V30 7600 H 720.662 4.48382 2.12528 0
M  V30 7601 N 719.835 0.176821 1.56605 0
M  V30 7602 C 721.246 -0.338963 1.83597 0
M  V30 7603 C 721.597 -1.62677 1.09684 0
M  V30 7604 O 720.722 -2.13524 0.351661 0
M  V30 7605 C 721.317 -0.62177 3.33046 0
M  V30 7606 C 719.876 -1.08198 3.60514 0
M  V30 7607 C 719.023 -0.120774 2.77037 0
M  V30 7608 H 721.974 0.400978 1.53551 0
M  V30 7609 H 721.995 -1.47321 3.50823 0
M  V30 7610 H 721.507 0.315692 3.86814 0
M  V30 7611 H 719.608 -2.03435 3.12162 0
M  V30 7612 H 719.721 -0.987329 4.68816 0
M  V30 7613 H 718.085 -0.619192 2.47059 0
M  V30 7614 H 718.868 0.810806 3.33588 0
M  V30 7615 N 721.313 -1.57302 -0.09688 0
M  V30 7616 C 722.223 -2.05258 -1.13606 0
M  V30 7617 C 723.239 -0.977137 -1.43972 0
M  V30 7618 O 724.415 -1.29018 -1.54649 0
M  V30 7619 C 721.48 -2.46593 -2.43706 0
M  V30 7620 C 720.541 -3.68322 -2.20538 0
M  V30 7621 C 719.774 -4.07676 -3.44435 0
M  V30 7622 O 719.997 -3.47141 -4.52603 0
M  V30 7623 O 718.931 -5.00641 -3.34129 0
M  V30 7624 H 722.757 -2.94069 -0.758752 0
M  V30 7625 H 720.342 -1.46164 -0.309263 0
M  V30 7626 H 722.224 -2.73814 -3.20318 0
M  V30 7627 H 720.899 -1.6092 -2.80867 0
M  V30 7628 H 719.806 -3.4622 -1.41713 0
M  V30 7629 H 721.139 -4.54769 -1.88271 0
M  V30 7630 N 722.791 0.367657 -1.53252 0
M  V30 7631 C 724.016 1.13566 -1.73544 0
M  V30 7632 C 724.441 1.82329 -0.462344 0
M  V30 7633 O 723.799 1.71655 0.583472 0
M  V30 7634 C 723.847 2.14322 -2.89997 0
M  V30 7635 O 722.951 3.21359 -2.58461 0
M  V30 7636 H 722.292 0.329614 -0.576412 0
M  V30 7637 H 724.822 0.425417 -2.00128 0
M  V30 7638 H 724.832 2.57958 -3.16104 0
M  V30 7639 H 723.507 1.63664 -3.82344 0
M  V30 7640 H 722.084 2.8271 -2.43165 0
M  V30 7641 N 724.269 1.44576 0.627338 0
M  V30 7642 C 725.199 1.54562 1.75022 0
M  V30 7643 C 726.18 0.398378 1.65369 0
M  V30 7644 O 727.365 0.61899 1.84071 0
M  V30 7645 C 724.495 1.49309 3.13567 0
M  V30 7646 C 723.449 2.62549 3.38012 0
M  V30 7647 C 722.775 2.42348 4.76625 0
M  V30 7648 C 724.075 4.04678 3.30202 0
M  V30 7649 H 725.769 2.4855 1.66922 0
M  V30 7650 H 723.315 1.19624 0.801636 0
M  V30 7651 H 725.268 1.54895 3.919 0
M  V30 7652 H 723.992 0.518392 3.2246 0
M  V30 7653 H 722.651 2.56358 2.62061 0
M  V30 7654 H 722.299 1.43062 4.82226 0
M  V30 7655 H 721.999 3.18273 4.93939 0
M  V30 7656 H 723.523 2.49758 5.57183 0
M  V30 7657 H 724.937 4.12217 3.98435 0
M  V30 7658 H 723.334 4.80836 3.5905 0
M  V30 7659 H 724.404 4.2798 2.27949 0
M  V30 7660 N 725.747 -0.868086 1.31537 0
M  V30 7661 C 726.697 -1.96321 1.1594 0
M  V30 7662 C 727.681 -1.60748 0.0698962 0
M  V30 7663 O 728.873 -1.74524 0.295011 0
M  V30 7664 C 726.002 -3.32073 0.870789 0
M  V30 7665 C 725.088 -3.73907 2.00136 0
M  V30 7666 N 725.479 -3.87685 3.24859 0
M  V30 7667 C 723.777 -4.03433 1.90152 0
M  V30 7668 C 724.478 -4.23454 3.98825 0
M  V30 7669 N 723.454 -4.34242 3.27009 0
M  V30 7670 H 727.256 -2.05088 2.10514 0
M  V30 7671 H 724.77 -1.059 1.23122 0
M  V30 7672 H 726.767 -4.10279 0.740034 0
M  V30 7673 H 725.427 -3.24631 -0.0667068 0
M  V30 7674 H 726.438 -3.72363 3.59953 0
M  V30 7675 H 723.115 -4.0437 1.03879 0
M  V30 7676 H 724.505 -4.41696 5.06314 0
M  V30 7677 N 727.225 -1.14528 -1.08264 0
M  V30 7678 C 728.502 -0.825185 -1.77342 0
M  V30 7679 C 728.882 0.681037 -1.99813 0
M  V30 7680 O 728.23 1.62234 -1.60912 0
M  V30 7681 C 728.44 -1.62556 -3.08831 0
M  V30 7682 C 729.788 -1.82585 -3.83338 0
M  V30 7683 O 730.812 -1.59254 -3.18617 0
M  V30 7684 O 729.671 -2.21598 -4.99556 0
M  V30 7685 H 726.765 -0.302531 -0.769678 0
M  V30 7686 H 729.311 -1.25056 -1.14713 0
M  V30 7687 H 728.083 -2.64862 -2.88035 0
M  V30 7688 H 727.706 -1.1959 -3.79189 0
M  V30 7689 N 728.703 1.26451 -0.940633 0
M  V30 7690 C 729.633 2.28773 -0.467479 0
M  V30 7691 C 730.614 1.63218 0.478955 0
M  V30 7692 O 731.799 1.90427 0.380929 0
M  V30 7693 C 728.929 3.46259 0.268656 0
M  V30 7694 C 727.883 4.23898 -0.591171 0
M  V30 7695 C 727.209 5.33993 0.274891 0
M  V30 7696 C 728.509 4.87974 -1.86223 0
M  V30 7697 H 730.203 2.68601 -1.32265 0
M  V30 7698 H 727.749 1.29123 -0.637436 0
M  V30 7699 H 729.702 4.16951 0.610696 0
M  V30 7700 H 728.426 3.05383 1.15796 0
M  V30 7701 H 727.085 3.54969 -0.916098 0
M  V30 7702 H 726.733 4.89358 1.16353 0
M  V30 7703 H 726.433 5.86849 -0.297006 0
M  V30 7704 H 727.957 6.07523 0.612213 0
M  V30 7705 H 729.371 5.50883 -1.58747 0
M  V30 7706 H 727.768 5.50945 -2.37866 0
M  V30 7707 H 728.838 4.10945 -2.57394 0
M  V30 7708 N 730.181 0.707592 1.40822 0
M  V30 7709 C 731.114 -0.000859377 2.282 0
M  V30 7710 C 732.092 -0.7758 1.42899 0
M  V30 7711 O 733.276 -0.76411 1.72318 0
M  V30 7712 C 730.403 -1.00861 3.23334 0
M  V30 7713 C 729.449 -0.32543 4.25257 0
M  V30 7714 S 730.282 0.940908 5.27169 0
M  V30 7715 C 731.438 -0.0649459 6.25866 0
M  V30 7716 H 731.671 0.740207 2.87938 0
M  V30 7717 H 729.204 0.498311 1.46138 0
M  V30 7718 H 731.162 -1.58485 3.78672 0
M  V30 7719 H 729.823 -1.72233 2.62668 0
M  V30 7720 H 729.016 -1.08697 4.92139 0
M  V30 7721 H 728.618 0.178044 3.73576 0
M  V30 7722 H 730.91 -0.914377 6.71301 0
M  V30 7723 H 731.853 0.570276 7.058 0
M  V30 7724 H 732.261 -0.425098 5.62897 0
M  V30 7725 N 731.66 -1.50943 0.453197 0
M  V30 7726 C 732.9 -2.0412 -0.106894 0
M  V30 7727 C 733.264 -1.32895 -1.38575 0
M  V30 7728 O 734.465 -1.76529 -2.02709 0
M  V30 7729 C 732.736 -3.561 -0.304565 0
M  V30 7730 S 734.295 -4.3096 -0.825784 0
M  V30 7731 H 731.113 -0.710581 -0.0243969 0
M  V30 7732 H 733.715 -1.85534 0.616239 0
M  V30 7733 H 732.419 -4.055 0.632277 0
M  V30 7734 H 731.95 -3.79009 -1.05433 0
M  V30 7735 H 733.965 -4.49503 -2.10147 0
M  V30 7736 N 733.138 -0.185124 -1.56509 0
M  V30 7737 C 734.07 0.771401 -2.15829 0
M  V30 7738 C 735.083 1.18392 -1.11747 0
M  V30 7739 O 736.272 1.12137 -1.38879 0
M  V30 7740 C 733.372 2.05169 -2.69739 0
M  V30 7741 C 732.545 1.80056 -3.98621 0
M  V30 7742 C 731.604 2.92435 -4.37456 0
M  V30 7743 O 730.63 2.62473 -5.05071 0
M  V30 7744 N 731.832 4.20554 -4.00143 0
M  V30 7745 H 734.597 0.264184 -2.98533 0
M  V30 7746 H 732.158 -0.00281069 -1.619 0
M  V30 7747 H 734.15 2.7947 -2.92709 0
M  V30 7748 H 732.72 2.47041 -1.91545 0
M  V30 7749 H 731.94 0.895862 -3.83885 0
M  V30 7750 H 733.228 1.60662 -4.82768 0
M  V30 7751 H 732.626 4.47753 -3.45736 0
M  V30 7752 H 731.183 4.91514 -4.28085 0
M  V30 7753 N 734.616 1.57351 0.0885366 0
M  V30 7754 C 735.856 1.88248 0.796362 0
M  V30 7755 C 736.22 0.776915 1.75579 0
M  V30 7756 O 737.421 0.968485 2.50747 0
M  V30 7757 C 735.692 3.24385 1.50031 0
M  V30 7758 S 737.251 3.76991 2.24551 0
M  V30 7759 H 734.069 0.659697 0.265181 0
M  V30 7760 H 736.671 1.95428 0.0531843 0
M  V30 7761 H 735.375 4.02764 0.788 0
M  V30 7762 H 734.906 3.20361 2.28325 0
M  V30 7763 H 736.921 3.50933 3.508 0
M  V30 7764 N 736.094 -0.359525 1.53444 0
M  V30 7765 C 737.34 -1.09958 1.71116 0
M  V30 7766 C 737.695 -1.8681 0.460414 0
M  V30 7767 O 736.988 -1.83635 -0.5467 0
M  V30 7768 C 737.182 -2.08287 2.90433 0
M  V30 7769 C 737.011 -1.41098 4.26991 0
M  V30 7770 C 735.781 -1.16255 4.91745 0
M  V30 7771 C 737.979 -0.845517 5.07302 0
M  V30 7772 N 735.961 -0.454798 6.12213 0
M  V30 7773 C 737.332 -0.267455 6.19423 0
M  V30 7774 C 739.387 -0.744797 4.92298 0
M  V30 7775 C 738.09 0.401511 7.18179 0
M  V30 7776 C 740.116 -0.0896013 5.91332 0
M  V30 7777 C 739.478 0.47756 7.02779 0
M  V30 7778 H 735.577 -0.387305 0.679352 0
M  V30 7779 H 738.161 -0.38519 1.90852 0
M  V30 7780 H 736.332 -2.77034 2.72226 0
M  V30 7781 H 738.064 -2.75015 2.96899 0
M  V30 7782 H 734.819 -1.44544 4.51003 0
M  V30 7783 H 735.243 -0.116108 6.769 0
M  V30 7784 H 739.885 -1.16905 4.06317 0
M  V30 7785 H 737.603 0.837694 8.03746 0
M  V30 7786 H 741.189 -0.0125162 5.81799 0
M  V30 7787 H 740.069 0.976522 7.78096 0
M  V30 7788 N 737.572 -1.44907 -0.619662 0
M  V30 7789 C 738.988 -1.29046 -0.939107 0
M  V30 7790 C 739.188 -0.23462 -2.00129 0
M  V30 7791 O 738.244 0.37558 -2.49691 0
M  V30 7792 C 739.557 -2.66567 -1.39149 0
M  V30 7793 C 741.105 -2.74368 -1.50635 0
M  V30 7794 C 741.58 -4.12386 -1.99253 0
M  V30 7795 N 743.071 -4.1462 -2.06506 0
M  V30 7796 C 743.806 -5.18272 -2.4532 0
M  V30 7797 N 743.302 -6.32278 -2.83189 0
M  V30 7798 N 745.095 -5.05628 -2.45554 0
M  V30 7799 H 737.246 -2.12239 0.0826135 0
M  V30 7800 H 739.509 -0.947652 -0.0256829 0
M  V30 7801 H 739.215 -3.4496 -0.685254 0
M  V30 7802 H 739.089 -2.94224 -2.36034 0
M  V30 7803 H 741.476 -1.96287 -2.20353 0
M  V30 7804 H 741.557 -2.50439 -0.520963 0
M  V30 7805 H 741.201 -4.90947 -1.30127 0
M  V30 7806 H 741.131 -4.33699 -2.98684 0
M  V30 7807 H 743.622 -3.32343 -1.79878 0
M  V30 7808 H 743.935 -7.07172 -3.11652 0
M  V30 7809 H 742.28 -6.35699 -2.80913 0
M  V30 7810 H 745.471 -4.15613 -2.15367 0
M  V30 7811 H 745.644 -5.86529 -2.75478 0
M  V30 7812 N 739.05 0.861098 -1.31996 0
M  V30 7813 C 740.466 1.14827 -1.10846 0
M  V30 7814 C 740.666 2.0117 0.11528 0
M  V30 7815 O 739.722 2.39423 0.802048 0
M  V30 7816 C 741.035 1.83183 -2.38462 0
M  V30 7817 C 742.583 1.95847 -2.44158 0
M  V30 7818 C 743.058 2.67617 -3.71679 0
M  V30 7819 N 744.549 2.75147 -3.72624 0
M  V30 7820 C 745.284 3.31314 -4.67994 0
M  V30 7821 N 744.78 3.88343 -5.73726 0
M  V30 7822 N 746.573 3.29356 -4.55501 0
M  V30 7823 H 738.724 0.285951 -2.10466 0
M  V30 7824 H 740.987 0.189303 -0.928907 0
M  V30 7825 H 740.693 1.27193 -3.27895 0
M  V30 7826 H 740.567 2.83393 -2.48935 0
M  V30 7827 H 742.954 2.50999 -1.55189 0
M  V30 7828 H 743.035 0.94653 -2.37644 0
M  V30 7829 H 742.679 2.13131 -4.61018 0
M  V30 7830 H 742.609 3.69237 -3.75462 0
M  V30 7831 H 745.1 2.34682 -2.96197 0
M  V30 7832 H 745.413 4.29338 -6.42564 0
M  V30 7833 H 743.758 3.86693 -5.77489 0
M  V30 7834 H 746.949 2.84047 -3.72069 0
M  V30 7835 H 747.122 3.7283 -5.30001 0
M  V30 7836 N 740.528 1.15101 1.07655 0
M  V30 7837 C 741.805 0.834578 1.76902 0
M  V30 7838 C 742.185 -0.670431 2.00171 0
M  V30 7839 O 741.533 -1.61378 1.6177 0
M  V30 7840 C 741.743 1.64191 3.07965 0
M  V30 7841 C 743.091 1.84615 3.82364 0
M  V30 7842 O 744.115 1.60941 3.17768 0
M  V30 7843 O 742.974 2.24244 4.98374 0
M  V30 7844 H 740.068 0.306608 0.768063 0
M  V30 7845 H 742.614 1.25663 1.14048 0
M  V30 7846 H 741.386 2.66386 2.86626 0
M  V30 7847 H 741.009 1.216 3.78549 0
M  V30 7848 N 742.006 -1.2595 0.947325 0
M  V30 7849 C 743.417 -1.75389 0.639963 0
M  V30 7850 C 743.768 -1.77081 -0.844788 0
M  V30 7851 O 742.893 -1.3869 -1.66114 0
M  V30 7852 C 743.488 -3.18506 1.15496 0
M  V30 7853 C 742.047 -3.65534 0.897894 0
M  V30 7854 C 741.194 -2.44818 1.30228 0
M  V30 7855 H 744.145 -1.1194 1.12495 0
M  V30 7856 H 744.166 -3.77045 0.511627 0
M  V30 7857 H 743.678 -3.17243 2.23559 0
M  V30 7858 H 741.779 -3.72221 -0.168096 0
M  V30 7859 H 741.892 -4.54039 1.52922 0
M  V30 7860 H 740.256 -2.44291 0.720678 0
M  V30 7861 H 741.039 -2.46251 2.39198 0
M  V30 7862 N 743.484 -0.715051 -1.40445 0
M  V30 7863 C 744.394 -0.0631624 -2.34515 0
M  V30 7864 C 745.41 0.744397 -1.57273 0
M  V30 7865 O 746.586 0.677475 -1.89663 0
M  V30 7866 C 743.651 0.847915 -3.36172 0
M  V30 7867 C 742.712 0.0303655 -4.29289 0
M  V30 7868 C 741.945 0.898051 -5.2609 0
M  V30 7869 O 742.168 2.13729 -5.28844 0
M  V30 7870 O 741.102 0.337328 -6.00954 0
M  V30 7871 H 744.928 -0.839078 -2.91879 0
M  V30 7872 H 742.513 -0.475527 -1.4163 0
M  V30 7873 H 744.395 1.3698 -3.98515 0
M  V30 7874 H 743.07 1.60299 -2.81222 0
M  V30 7875 H 741.977 -0.536573 -3.70232 0
M  V30 7876 H 743.31 -0.686474 -4.87389 0
M  V30 7877 N 744.962 1.50701 -0.461195 0
M  V30 7878 C 745.872 2.32069 0.343661 0
M  V30 7879 C 746.888 1.42016 1.00535 0
M  V30 7880 O 748.064 1.75077 0.995498 0
M  V30 7881 C 745.129 3.16424 1.41692 0
M  V30 7882 C 744.19 4.22286 0.772869 0
M  V30 7883 C 743.423 5.02609 1.79499 0
M  V30 7884 O 743.646 4.83874 3.0203 0
M  V30 7885 O 742.58 5.86047 1.3723 0
M  V30 7886 H 746.406 3.01996 -0.321268 0
M  V30 7887 H 743.991 1.47723 -0.223235 0
M  V30 7888 H 745.873 3.68795 2.03883 0
M  V30 7889 H 744.548 2.49236 2.0655 0
M  V30 7890 H 743.455 3.73931 0.112277 0
M  V30 7891 H 744.788 4.91915 0.167399 0
M  V30 7892 N 746.441 0.193421 1.56409 0
M  V30 7893 C 747.857 -0.162447 1.58771 0
M  V30 7894 C 748.057 -1.6116 1.20954 0
M  V30 7895 O 747.113 -2.3469 0.931497 0
M  V30 7896 C 748.426 0.138391 3.00381 0
M  V30 7897 C 749.974 0.0783649 3.12902 0
M  V30 7898 C 750.449 0.352491 4.56642 0
M  V30 7899 N 751.94 0.30105 4.62221 0
M  V30 7900 C 752.675 0.487028 5.71328 0
M  V30 7901 N 752.171 0.733265 6.88909 0
M  V30 7902 N 753.964 0.4214 5.60518 0
M  V30 7903 H 746.115 1.13909 1.79272 0
M  V30 7904 H 748.378 0.454528 0.83193 0
M  V30 7905 H 748.084 1.14312 3.32604 0
M  V30 7906 H 747.958 -0.559804 3.73023 0
M  V30 7907 H 750.345 -0.916963 2.80492 0
M  V30 7908 H 750.426 0.809611 2.4265 0
M  V30 7909 H 750.07 1.34513 4.89764 0
M  V30 7910 H 750 -0.399624 5.25081 0
M  V30 7911 H 752.491 0.117279 3.77718 0
M  V30 7912 H 752.804 0.86403 7.67955 0
M  V30 7913 H 751.149 0.770138 6.9072 0
M  V30 7914 H 754.34 0.229461 4.67537 0
M  V30 7915 H 754.513 0.569758 6.4549 0
M  V30 7916 N 747.919 -1.57396 -0.0801906 0
M  V30 7917 C 749.33 -1.75642 -0.633002 0
M  V30 7918 C 749.681 -0.817708 -1.78348 0
M  V30 7919 O 748.806 0.000233743 -2.164 0
M  V30 7920 C 749.401 -3.18502 -1.15507 0
M  V30 7921 C 747.96 -3.38121 -1.65381 0
M  V30 7922 C 747.107 -2.71386 -0.569661 0
M  V30 7923 H 750.058 -1.58027 0.145949 0
M  V30 7924 H 750.079 -3.22198 -2.02408 0
M  V30 7925 H 749.591 -3.86799 -0.317515 0
M  V30 7926 H 747.692 -2.74926 -2.51488 0
M  V30 7927 H 747.805 -4.46521 -1.73654 0
M  V30 7928 H 746.169 -2.33702 -1.0127 0
M  V30 7929 H 746.952 -3.42332 0.257561 0
M  V30 7930 N 749.397 0.351382 -1.53633 0
M  V30 7931 C 750.625 1.11275 -1.74429 0
M  V30 7932 C 751.04 1.82602 -0.479798 0
M  V30 7933 O 750.397 1.74074 0.548125 0
M  V30 7934 C 750.448 2.13223 -2.91921 0
M  V30 7935 O 750.169 1.44798 -4.13479 0
M  V30 7936 C 751.67 3.01797 -3.24706 0
M  V30 7937 H 748.89 0.332153 -0.583023 0
M  V30 7938 H 751.434 0.405974 -2.0043 0
M  V30 7939 H 749.589 2.79477 -2.68274 0
M  V30 7940 H 750.003 2.12839 -4.79374 0
M  V30 7941 H 751.477 3.69282 -4.10286 0
M  V30 7942 H 751.954 3.67387 -2.40673 0
M  V30 7943 H 752.56 2.41141 -3.5033 0
M  V30 7944 N 750.875 1.45233 0.611969 0
M  V30 7945 C 752.122 1.49021 1.37109 0
M  V30 7946 C 752.45 0.130227 1.94064 0
M  V30 7947 O 751.705 -0.870551 1.75271 0
M  V30 7948 C 752.004 2.51353 2.54079 0
M  V30 7949 C 751.67 3.96178 2.15299 0
M  V30 7950 C 750.332 4.35614 2.04436 0
M  V30 7951 C 752.684 4.87275 1.84966 0
M  V30 7952 C 750.012 5.64047 1.61456 0
M  V30 7953 C 752.364 6.16115 1.43474 0
M  V30 7954 C 751.028 6.54486 1.31167 0
M  V30 7955 H 750.298 0.545307 0.501719 0
M  V30 7956 H 752.945 1.78555 0.692122 0
M  V30 7957 H 751.25 2.15372 3.27295 0
M  V30 7958 H 752.947 2.51523 3.12309 0
M  V30 7959 H 749.537 3.6499 2.24678 0
M  V30 7960 H 753.721 4.57548 1.92258 0
M  V30 7961 H 748.977 5.92575 1.50547 0
M  V30 7962 H 753.151 6.86149 1.19048 0
M  V30 7963 H 750.778 7.53904 0.97637 0
M  V30 7964 N 752.353 -0.854086 1.3245 0
M  V30 7965 C 753.263 -1.99503 1.23434 0
M  V30 7966 C 754.279 -1.73371 0.147828 0
M  V30 7967 O 755.455 -1.97998 0.368609 0
M  V30 7968 C 752.52 -3.33192 0.958328 0
M  V30 7969 C 751.581 -3.72542 2.13333 0
M  V30 7970 C 750.814 -4.99852 1.8704 0
M  V30 7971 O 751.037 -5.64573 0.813239 0
M  V30 7972 O 749.971 -5.36345 2.73161 0
M  V30 7973 H 753.797 -2.10046 2.1935 0
M  V30 7974 H 751.382 -0.984823 1.12346 0
M  V30 7975 H 753.264 -4.13327 0.820918 0
M  V30 7976 H 751.939 -3.23687 0.0293299 0
M  V30 7977 H 750.846 -2.92981 2.32622 0
M  V30 7978 H 752.179 -3.86694 3.04514 0
M  V30 7979 N 753.831 -1.1567 -1.07043 0
M  V30 7980 C 755.061 -0.956083 -1.83146 0
M  V30 7981 C 755.469 0.498969 -1.82502 0
M  V30 7982 O 754.812 1.35791 -1.23719 0
M  V30 7983 C 754.874 -1.39704 -3.31245 0
M  V30 7984 C 754.538 -2.87045 -3.55604 0
M  V30 7985 C 755.535 -3.85092 -3.49285 0
M  V30 7986 C 753.22 -3.24787 -3.8317 0
M  V30 7987 C 755.214 -5.18885 -3.70185 0
M  V30 7988 C 752.901 -4.58751 -4.03721 0
M  V30 7989 C 753.899 -5.55609 -3.97224 0
M  V30 7990 O 753.587 -6.87154 -4.17223 0
M  V30 7991 H 753.319 -0.339473 -0.58458 0
M  V30 7992 H 755.873 -1.53922 -1.36005 0
M  V30 7993 H 754.103 -0.757326 -3.79212 0
M  V30 7994 H 755.792 -1.16503 -3.88821 0
M  V30 7995 H 756.558 -3.5728 -3.27988 0
M  V30 7996 H 752.437 -2.49979 -3.87339 0
M  V30 7997 H 755.981 -5.94473 -3.6503 0
M  V30 7998 H 751.878 -4.86277 -4.24505 0
M  V30 7999 H 752.646 -6.93618 -4.34553 0
M  V30 8000 N 755.309 1.25446 -0.953992 0
M  V30 8001 C 756.239 2.28264 -0.491717 0
M  V30 8002 C 757.22 1.63717 0.461617 0
M  V30 8003 O 758.405 1.90821 0.36071 0
M  V30 8004 C 755.535 3.46525 0.231915 0
M  V30 8005 C 754.489 4.23247 -0.636098 0
M  V30 8006 C 753.815 5.34254 0.218238 0
M  V30 8007 C 755.115 4.85971 -1.91389 0
M  V30 8008 H 756.809 2.67183 -1.35106 0
M  V30 8009 H 754.355 1.2844 -0.651095 0
M  V30 8010 H 756.308 4.17576 0.566439 0
M  V30 8011 H 755.032 3.06594 1.12551 0
M  V30 8012 H 753.691 3.53978 -0.953696 0
M  V30 8013 H 753.339 4.90564 1.11156 0
M  V30 8014 H 753.039 5.86501 -0.359232 0
M  V30 8015 H 754.563 6.08138 0.547743 0
M  V30 8016 H 755.977 5.49168 -1.64581 0
M  V30 8017 H 754.374 5.48391 -2.43696 0
M  V30 8018 H 755.444 4.08192 -2.61738 0
M  V30 8019 N 756.787 0.722489 1.40064 0
M  V30 8020 C 757.719 0.0349057 2.29173 0
M  V30 8021 C 758.732 -0.716571 1.46182 0
M  V30 8022 O 759.921 -0.562806 1.69395 0
M  V30 8023 C 757.021 -0.974839 3.24577 0
M  V30 8024 C 756.194 -0.287471 4.36454 0
M  V30 8025 C 755.253 -1.20356 5.12251 0
M  V30 8026 O 754.279 -0.685753 5.65054 0
M  V30 8027 N 755.481 -2.53422 5.22262 0
M  V30 8028 H 758.246 0.800058 2.88824 0
M  V30 8029 H 755.807 0.57068 1.51509 0
M  V30 8030 H 757.799 -1.59002 3.72157 0
M  V30 8031 H 756.369 -1.6413 2.66046 0
M  V30 8032 H 755.589 0.508008 3.90913 0
M  V30 8033 H 756.877 0.189382 5.08447 0
M  V30 8034 H 756.275 -2.97981 4.80857 0
M  V30 8035 H 754.832 -3.10067 5.73325 0
M  V30 8036 N 758.265 -1.50454 0.469181 0
M  V30 8037 C 759.228 -2.2703 -0.314643 0
M  V30 8038 C 760.228 -1.31734 -0.922111 0
M  V30 8039 O 761.418 -1.55176 -0.791588 0
M  V30 8040 C 758.55 -3.08616 -1.44806 0
M  V30 8041 H 759.743 -2.97769 0.356892 0
M  V30 8042 H 757.296 -1.54698 0.223191 0
M  V30 8043 H 758.031 -2.42369 -2.1547 0
M  V30 8044 H 757.816 -3.78647 -1.01829 0
M  V30 8045 H 759.306 -3.66536 -2.00103 0
M  V30 8046 N 759.743 -0.201713 -1.56304 0
M  V30 8047 C 760.675 0.748466 -2.16635 0
M  V30 8048 C 761.688 1.172 -1.12996 0
M  V30 8049 O 762.877 1.10658 -1.40061 0
M  V30 8050 C 759.977 2.02296 -2.719 0
M  V30 8051 C 759.15 1.75818 -4.00508 0
M  V30 8052 C 758.209 2.87779 -4.40533 0
M  V30 8053 O 757.235 2.57101 -5.07826 0
M  V30 8054 N 758.437 4.16287 -4.04581 0
M  V30 8055 H 761.202 0.232505 -2.98797 0
M  V30 8056 H 758.763 -0.0199822 -1.61888 0
M  V30 8057 H 760.755 2.7635 -2.95657 0
M  V30 8058 H 759.325 2.44996 -1.94154 0
M  V30 8059 H 758.545 0.855095 -3.84814 0
M  V30 8060 H 759.833 1.55532 -4.84445 0
M  V30 8061 H 759.231 4.44061 -3.50466 0
M  V30 8062 H 757.788 4.86946 -4.33274 0
M  V30 8063 N 761.222 1.57436 0.0718424 0
M  V30 8064 C 762.152 2.06724 1.08571 0
M  V30 8065 C 763.133 0.960731 1.40371 0
M  V30 8066 O 764.318 1.23345 1.49999 0
M  V30 8067 C 761.448 2.51112 2.39916 0
M  V30 8068 C 760.402 3.65639 2.22469 0
M  V30 8069 C 759.728 3.96082 3.59198 0
M  V30 8070 C 761.028 4.95687 1.64596 0
M  V30 8071 H 762.722 2.91679 0.675569 0
M  V30 8072 H 760.268 1.40319 0.32352 0
M  V30 8073 H 762.221 2.84206 3.11135 0
M  V30 8074 H 760.945 1.63186 2.8291 0
M  V30 8075 H 759.604 3.32828 1.53691 0
M  V30 8076 H 759.252 3.05287 3.99761 0
M  V30 8077 H 758.952 4.73199 3.48362 0
M  V30 8078 H 760.476 4.31672 4.31847 0
M  V30 8079 H 761.89 5.27011 2.25681 0
M  V30 8080 H 760.287 5.77126 1.64457 0
M  V30 8081 H 761.357 4.8108 0.60744 0
M  V30 8082 N 762.7 -0.34323 1.53817 0
M  V30 8083 C 763.63 -1.42709 1.84814 0
M  V30 8084 C 764.611 -1.5488 0.703297 0
M  V30 8085 O 765.796 -1.69082 0.955237 0
M  V30 8086 C 762.926 -2.79756 2.05801 0
M  V30 8087 C 761.88 -2.82392 3.21619 0
M  V30 8088 C 761.206 -4.22326 3.2794 0
M  V30 8089 C 762.506 -2.479 4.59721 0
M  V30 8090 H 764.2 -1.17018 2.75585 0
M  V30 8091 H 761.746 -0.561485 1.32602 0
M  V30 8092 H 763.699 -3.55627 2.26069 0
M  V30 8093 H 762.423 -3.06883 1.11761 0
M  V30 8094 H 761.082 -2.08974 3.01207 0
M  V30 8095 H 760.73 -4.46564 2.31494 0
M  V30 8096 H 760.43 -4.25001 4.05768 0
M  V30 8097 H 761.954 -5.00039 3.50419 0
M  V30 8098 H 763.368 -3.13484 4.80001 0
M  V30 8099 H 761.765 -2.61857 5.39954 0
M  V30 8100 H 762.835 -1.43087 4.63308 0
M  V30 8101 N 764.178 -1.45556 -0.604258 0
M  V30 8102 C 765.589 -1.44171 -1.18624 0
M  V30 8103 C 765.94 -0.171081 -1.95453 0
M  V30 8104 O 765.065 0.727156 -2.03817 0
M  V30 8105 C 765.66 -2.61193 -2.15786 0
M  V30 8106 C 764.219 -2.62918 -2.69353 0
M  V30 8107 C 763.366 -2.36479 -1.4482 0
M  V30 8108 H 766.317 -1.53747 -0.393381 0
M  V30 8109 H 766.338 -2.35481 -2.98879 0
M  V30 8110 H 765.85 -3.53656 -1.59841 0
M  V30 8111 H 763.951 -1.7447 -3.29228 0
M  V30 8112 H 764.064 -3.6224 -3.13559 0
M  V30 8113 H 762.428 -1.86103 -1.73891 0
M  V30 8114 H 763.211 -3.31091 -0.907376 0
M  V30 8115 N 765.656 0.84705 -1.32902 0
M  V30 8116 C 766.619 1.9378 -1.224 0
M  V30 8117 C 767.619 1.60144 -0.145108 0
M  V30 8118 O 768.809 1.69638 -0.396058 0
M  V30 8119 C 765.941 3.29234 -0.884174 0
M  V30 8120 H 767.134 2.04518 -2.19345 0
M  V30 8121 H 764.687 1.03816 -1.16842 0
M  V30 8122 H 765.422 3.24193 0.0831277 0
M  V30 8123 H 765.207 3.55026 -1.6643 0
M  V30 8124 H 766.697 4.09162 -0.835226 0
M  V30 8125 N 767.134 1.16236 1.06428 0
M  V30 8126 C 768.374 0.95369 1.80787 0
M  V30 8127 C 768.738 -0.509495 1.85117 0
M  V30 8128 O 769.939 -0.836822 2.55442 0
M  V30 8129 C 768.21 1.56235 3.21443 0
M  V30 8130 S 769.769 1.49812 4.12434 0
M  V30 8131 H 766.587 0.343004 0.622792 0
M  V30 8132 H 769.189 1.47957 1.27785 0
M  V30 8133 H 767.893 2.62 3.15886 0
M  V30 8134 H 767.424 1.03574 3.79521 0
M  V30 8135 H 769.439 0.49745 4.937 0
M  V30 8136 N 768.612 -1.24939 0.960631 0
M  V30 8137 C 769.858 -1.93104 0.61958 0
M  V30 8138 C 770.191 -1.74991 -0.84212 0
M  V30 8139 O 769.466 -1.09867 -1.60498 0
M  V30 8140 C 769.749 -3.46326 0.986422 0
M  V30 8141 C 769.602 -3.73638 2.50429 0
M  V30 8142 C 770.921 -4.37067 0.515827 0
M  V30 8143 H 768.04 -0.701311 0.226566 0
M  V30 8144 H 770.682 -1.47442 1.19836 0
M  V30 8145 H 768.832 -3.85348 0.493907 0
M  V30 8146 H 770.504 -3.44217 3.07103 0
M  V30 8147 H 768.747 -3.19035 2.93937 0
M  V30 8148 H 769.418 -4.80815 2.71147 0
M  V30 8149 H 771.894 -4.05381 0.938389 0
M  V30 8150 H 770.77 -5.43022 0.80114 0
M  V30 8151 H 771.031 -4.38224 -0.584171 0
M  V30 8152 N 770.09 -0.729906 -1.39679 0
M  V30 8153 C 771.02 -0.101618 -2.33279 0
M  V30 8154 C 772.001 0.729854 -1.53646 0
M  V30 8155 O 773.186 0.67587 -1.82059 0
M  V30 8156 C 770.316 0.81024 -3.37716 0
M  V30 8157 C 769.27 0.0833126 -4.27919 0
M  V30 8158 C 768.596 1.11185 -5.23012 0
M  V30 8159 C 769.896 -1.07107 -5.112 0
M  V30 8160 H 771.59 -0.883452 -2.86069 0
M  V30 8161 H 769.136 -0.426283 -1.37546 0
M  V30 8162 H 771.089 1.25927 -4.02145 0
M  V30 8163 H 769.813 1.62413 -2.83354 0
M  V30 8164 H 768.472 -0.346043 -3.64963 0
M  V30 8165 H 768.12 1.91917 -4.64948 0
M  V30 8166 H 767.82 0.63026 -5.8421 0
M  V30 8167 H 769.344 1.56068 -5.90318 0
M  V30 8168 H 770.758 -0.700726 -5.69002 0
M  V30 8169 H 769.155 -1.48196 -5.81514 0
M  V30 8170 H 770.225 -1.89513 -4.46332 0
M  V30 8171 N 771.568 1.50203 -0.477153 0
M  V30 8172 C 772.478 2.32421 0.319027 0
M  V30 8173 C 773.494 1.43075 0.990233 0
M  V30 8174 O 774.67 1.76123 0.976873 0
M  V30 8175 C 771.735 3.17909 1.38328 0
M  V30 8176 C 770.796 4.23082 0.728036 0
M  V30 8177 C 770.029 5.04484 1.74158 0
M  V30 8178 O 770.252 4.8705 2.96881 0
M  V30 8179 O 769.186 5.8747 1.31006 0
M  V30 8180 H 773.012 3.01638 -0.353281 0
M  V30 8181 H 770.597 1.47478 -0.238891 0
M  V30 8182 H 772.479 3.70937 1.9996 0
M  V30 8183 H 771.154 2.51413 2.03895 0
M  V30 8184 H 770.061 3.7403 0.07261 0
M  V30 8185 H 771.394 4.92065 0.115216 0
M  V30 8186 N 773.046 0.209999 1.56195 0
M  V30 8187 C 774.292 -0.425442 1.98287 0
M  V30 8188 C 774.625 -1.60232 1.09724 0
M  V30 8189 O 773.9 -1.93902 0.152414 0
M  V30 8190 C 774.183 -0.871189 3.49403 0
M  V30 8191 C 774.036 0.308527 4.48741 0
M  V30 8192 C 775.355 -1.73146 4.04609 0
M  V30 8193 H 772.474 -0.153169 0.720908 0
M  V30 8194 H 775.116 0.303916 1.87554 0
M  V30 8195 H 773.266 -1.49266 3.58681 0
M  V30 8196 H 774.938 0.946487 4.51486 0
M  V30 8197 H 773.181 0.957878 4.23092 0
M  V30 8198 H 773.852 -0.0461143 5.51981 0
M  V30 8199 H 776.328 -1.2072 3.98203 0
M  V30 8200 H 775.204 -2.01228 5.10684 0
M  V30 8201 H 775.465 -2.69083 3.5078 0
M  V30 8202 N 774.524 -1.57472 -0.0634922 0
M  V30 8203 C 775.487 -2.03268 -1.059 0
M  V30 8204 C 776.487 -0.931028 -1.31105 0
M  V30 8205 O 777.677 -1.19567 -1.26686 0
M  V30 8206 C 774.809 -2.42039 -2.40062 0
M  V30 8207 H 776.002 -2.92454 -0.664119 0
M  V30 8208 H 773.555 -1.53206 -0.309444 0
M  V30 8209 H 774.29 -1.55904 -2.84367 0
M  V30 8210 H 774.075 -3.22437 -2.23108 0
M  V30 8211 H 775.565 -2.78017 -3.11603 0
M  V30 8212 N 776.003 0.335068 -1.53997 0
M  V30 8213 C 776.913 1.43511 -1.85585 0
M  V30 8214 C 777.929 1.57162 -0.746726 0
M  V30 8215 O 779.105 1.72477 -1.03988 0
M  V30 8216 C 776.17 2.78386 -2.06646 0
M  V30 8217 C 775.231 2.74007 -3.30483 0
M  V30 8218 C 774.464 4.02449 -3.50529 0
M  V30 8219 O 774.687 5.00147 -2.74242 0
M  V30 8220 O 773.621 4.06405 -4.4398 0
M  V30 8221 H 777.447 1.19731 -2.79102 0
M  V30 8222 H 775.032 0.528033 -1.39758 0
M  V30 8223 H 776.914 3.58247 -2.21894 0
M  V30 8224 H 775.589 3.0208 -1.16317 0
M  V30 8225 H 774.496 1.92736 -3.2063 0
M  V30 8226 H 775.829 2.55267 -4.20832 0
M  V30 8227 O 777.52 1.5417 0.481036 0
M  V30 8228 H 778.211 1.5692 1.1356 0
M  V30 END ATOM
M  V30 BEGIN BOND
M  V30 END BOND
M  V30 END CTAB
M  END
$$$$
