drugbank_target|P9WMC1 HTH-type transcriptional regulator EthR (DB02425; DB08469; DB08470; DB08471)
 OpenBabel12092120243D

  0  0  0     0  0            999 V3000
M  V30 BEGIN CTAB
M  V30 COUNTS 3322 3355 0 0 0
M  V30 BEGIN ATOM
M  V30 1 H -0.908 1.98254 -0.117106 0
M  V30 2 N 0 1.576 0 0
M  V30 3 C 0.933 2.03868 1.02534 0
M  V30 4 C 1.911 0.928543 1.3348 0
M  V30 5 O 3.095 1.19667 1.45644 0
M  V30 6 C 0.222 2.43627 2.35294 0
M  V30 7 C -0.732 3.65373 2.2001 0
M  V30 8 S 0.101 5.13292 1.52614 0
M  V30 9 C 1.257 5.56322 2.86805 0
M  V30 10 H 1.49 2.90518 0.631377 0
M  V30 11 H -0.977 1.52953 0.210867 0
M  V30 12 H 0.981 2.67203 3.11629 0
M  V30 13 H -0.358 1.57376 2.7183 0
M  V30 14 H -1.165 3.90944 3.18086 0
M  V30 15 H -1.563 3.418 1.51819 0
M  V30 16 H 0.729 5.58782 3.83104 0
M  V30 17 H 1.672 6.56266 2.65933 0
M  V30 18 H 2.08 4.83886 2.90714 0
M  V30 19 N 1.4781 -0.272755 1.55222 0
M  V30 20 C 2.7061 -1.02255 1.79865 0
M  V30 21 C 3.1211 -1.79924 0.572088 0
M  V30 22 O 2.4781 -1.76638 -0.458842 0
M  V30 23 C 2.5291 -1.98094 3.02392 0
M  V30 24 O 2.2501 -1.23572 4.20311 0
M  V30 25 C 3.7511 -2.84884 3.39641 0
M  V30 26 H 0.9711 -0.302057 0.599168 0
M  V30 27 H 3.5151 -0.303465 2.02236 0
M  V30 28 H 1.6701 -2.65465 2.82147 0
M  V30 29 H 2.0841 -1.88172 4.89583 0
M  V30 30 H 3.5581 -3.47927 4.28545 0
M  V30 31 H 4.0351 -3.54665 2.59055 0
M  V30 32 H 4.6411 -2.23003 3.62146 0
M  V30 33 N 2.9562 -1.48159 -0.537278 0
M  V30 34 C 4.1842 -1.59454 -1.31841 0
M  V30 35 C 4.5992 -0.252065 -1.8711 0
M  V30 36 O 3.9562 0.757621 -1.66031 0
M  V30 37 C 4.0072 -2.63546 -2.47439 0
M  V30 38 O 3.7282 -3.92583 -1.94449 0
M  V30 39 C 5.2292 -2.85212 -3.39366 0
M  V30 40 H 2.4492 -0.53785 -0.401196 0
M  V30 41 H 4.9932 -1.93932 -0.648891 0
M  V30 42 H 3.1482 -2.31946 -3.1029 0
M  V30 43 H 3.5622 -4.49629 -2.70063 0
M  V30 44 H 5.0362 -3.61863 -4.16844 0
M  V30 45 H 5.5132 -1.93765 -3.94147 0
M  V30 46 H 6.1192 -3.18086 -2.82314 0
M  V30 47 N 4.4343 0.785586 -1.36625 0
M  V30 48 C 5.6593 1.57963 -1.34397 0
M  V30 49 C 6.0843 1.87964 0.071526 0
M  V30 50 O 5.4423 1.48182 1.0446 0
M  V30 51 C 5.4903 2.87511 -2.17646 0
M  V30 52 O 4.5943 3.81281 -1.57158 0
M  V30 53 H 3.9353 0.479014 -0.459828 0
M  V30 54 H 6.4653 0.973411 -1.79961 0
M  V30 55 H 6.4753 3.36745 -2.30362 0
M  V30 56 H 5.1503 2.65002 -3.20541 0
M  V30 57 H 3.7273 3.39885 -1.53403 0
M  V30 58 N 5.9124 1.20967 1.01018 0
M  V30 59 C 6.8754 0.965918 2.07853 0
M  V30 60 C 7.8754 -0.0610545 1.60684 0
M  V30 61 O 9.0654 0.175681 1.73312 0
M  V30 62 C 6.1974 0.455513 3.37843 0
M  V30 63 H 7.3904 1.91365 2.3091 0
M  V30 64 H 4.9434 1.02594 1.17916 0
M  V30 65 H 5.6784 -0.497381 3.20463 0
M  V30 66 H 5.4634 1.19622 3.73407 0
M  V30 67 H 6.9534 0.304667 4.16487 0
M  V30 68 N 7.3905 -1.2043 1.01659 0
M  V30 69 C 8.3535 -2.21433 0.591616 0
M  V30 70 C 9.3535 -1.57203 -0.338226 0
M  V30 71 O 10.5435 -1.73737 -0.126918 0
M  V30 72 C 7.6755 -3.40628 -0.136058 0
M  V30 73 H 8.8685 -2.60545 1.48514 0
M  V30 74 H 6.4215 -1.33893 0.806379 0
M  V30 75 H 7.1565 -3.07019 -1.04449 0
M  V30 76 H 6.9415 -3.88475 0.531917 0
M  V30 77 H 8.4315 -4.15475 -0.420735 0
M  V30 78 N 8.8686 -0.792821 -1.36206 0
M  V30 79 C 10.0936 -0.377701 -2.03932 0
M  V30 80 C 10.5186 0.998947 -1.59382 0
M  V30 81 O 9.8766 1.64421 -0.763903 0
M  V30 82 C 9.9246 -0.453635 -3.57735 0
M  V30 83 O 9.0286 0.538151 -4.08874 0
M  V30 84 H 8.3696 -0.159855 -0.644471 0
M  V30 85 H 10.8996 -1.07488 -1.7409 0
M  V30 86 H 10.9096 -0.318464 -4.06755 0
M  V30 87 H 9.5846 -1.45784 -3.89512 0
M  V30 88 H 8.1616 0.364359 -3.71116 0
M  V30 89 N 10.3467 1.47872 -0.545128 0
M  V30 90 C 11.2787 2.27869 0.246621 0
M  V30 91 C 12.2917 1.36282 0.890561 0
M  V30 92 O 13.4807 1.61207 0.766449 0
M  V30 93 C 10.5807 3.10159 1.36582 0
M  V30 94 C 9.7537 4.29627 0.820954 0
M  V30 95 C 8.8127 4.93607 1.82314 0
M  V30 96 O 7.8387 5.52366 1.37406 0
M  V30 97 N 9.0407 4.87211 3.15603 0
M  V30 98 H 11.8057 2.96459 -0.439539 0
M  V30 99 H 9.3667 1.57367 -0.380421 0
M  V30 100 H 11.3587 3.49829 2.03474 0
M  V30 101 H 9.9287 2.43891 1.9554 0
M  V30 102 H 9.1487 3.94192 -0.0244032 0
M  V30 103 H 10.4367 5.06928 0.436063 0
M  V30 104 H 9.8347 4.40651 3.54744 0
M  V30 105 H 8.3917 5.30937 3.78087 0
M  V30 106 N 11.8248 0.280983 1.55075 0
M  V30 107 C 12.7878 -0.590896 2.21452 0
M  V30 108 C 13.7878 -1.07682 1.19421 0
M  V30 109 O 14.9778 -0.97605 1.44288 0
M  V30 110 C 12.1098 -1.81587 2.88511 0
M  V30 111 H 13.3028 -0.0112554 2.99898 0
M  V30 112 H 10.8558 0.0316438 1.56268 0
M  V30 113 H 11.5908 -2.43587 2.14093 0
M  V30 114 H 11.3758 -1.4753 3.63287 0
M  V30 115 H 12.8658 -2.43575 3.39206 0
M  V30 116 N 13.3029 -1.57598 0.00835791 0
M  V30 117 C 14.5279 -1.95617 -0.689103 0
M  V30 118 C 14.9529 -0.883753 -1.66046 0
M  V30 119 O 14.3109 0.157352 -1.80616 0
M  V30 120 C 14.3589 -3.32736 -1.38994 0
M  V30 121 O 13.4629 -3.27631 -2.50463 0
M  V30 122 H 12.8039 -0.638379 -0.182668 0
M  V30 123 H 15.3339 -2.045 0.064036 0
M  V30 124 H 15.3439 -3.68494 -1.75147 0
M  V30 125 H 14.0189 -4.1034 -0.677778 0
M  V30 126 H 12.5959 -3.03561 -2.16576 0
M  V30 127 N 14.781 0.264519 -1.55364 0
M  V30 128 C 15.711 1.33121 -1.91836 0
M  V30 129 C 16.692 1.51101 -0.781192 0
M  V30 130 O 17.877 1.64003 -1.04003 0
M  V30 131 C 15.007 2.68921 -2.19769 0
M  V30 132 C 13.961 2.65661 -3.35571 0
M  V30 133 C 13.287 4.05093 -3.49004 0
M  V30 134 C 14.587 2.24187 -4.71739 0
M  V30 135 H 16.281 1.02844 -2.81182 0
M  V30 136 H 13.827 0.493286 -1.35287 0
M  V30 137 H 15.78 3.43663 -2.43872 0
M  V30 138 H 14.504 3.00799 -1.27231 0
M  V30 139 H 13.163 1.93377 -3.1145 0
M  V30 140 H 12.811 4.34206 -2.53917 0
M  V30 141 H 12.511 4.03804 -4.26868 0
M  V30 142 H 14.035 4.81561 -3.75408 0
M  V30 143 H 15.449 2.88654 -4.9533 0
M  V30 144 H 13.846 2.34044 -5.52579 0
M  V30 145 H 14.916 1.19327 -4.69988 0
M  V30 146 N 16.2591 1.48442 0.529413 0
M  V30 147 C 17.6701 1.5002 1.11134 0
M  V30 148 C 18.0211 0.27031 1.94329 0
M  V30 149 O 17.1461 -0.622507 2.07253 0
M  V30 150 C 17.7411 2.71834 2.02217 0
M  V30 151 C 16.3001 2.76283 2.55627 0
M  V30 152 C 15.4471 2.43542 1.326 0
M  V30 153 H 18.3981 1.5555 0.314641 0
M  V30 154 H 18.4191 2.50384 2.8651 0
M  V30 155 H 17.9311 3.61331 1.41639 0
M  V30 156 H 16.0321 1.90995 3.19924 0
M  V30 157 H 16.1451 3.77725 2.94721 0
M  V30 158 H 14.5091 1.94709 1.64196 0
M  V30 159 H 15.2921 3.3528 0.737734 0
M  V30 160 N 17.7372 -0.778329 1.37039 0
M  V30 161 C 19.1532 -1.07796 1.17695 0
M  V30 162 C 19.3532 -2.01498 0.00860115 0
M  V30 163 O 18.4092 -2.43901 -0.653352 0
M  V30 164 C 19.7222 -1.68178 2.49272 0
M  V30 165 C 21.2702 -1.80467 2.55735 0
M  V30 166 C 21.7452 -2.44263 3.87427 0
M  V30 167 N 23.2362 -2.51721 3.88833 0
M  V30 168 C 23.9712 -3.01919 4.87476 0
M  V30 169 N 23.4672 -3.5234 5.96513 0
M  V30 170 N 25.2602 -3.00733 4.74885 0
M  V30 171 H 17.4112 -0.156032 2.11826 0
M  V30 172 H 19.6742 -0.131844 0.938787 0
M  V30 173 H 19.3802 -1.06796 3.35093 0
M  V30 174 H 19.2542 -2.67554 2.65885 0
M  V30 175 H 21.6412 -2.40984 1.70325 0
M  V30 176 H 21.7222 -0.798656 2.43013 0
M  V30 177 H 21.3662 -1.84388 4.73248 0
M  V30 178 H 21.2962 -3.45458 3.9745 0
M  V30 179 H 23.7872 -2.1603 3.10063 0
M  V30 180 H 24.1002 -3.89027 6.67741 0
M  V30 181 H 22.4452 -3.50462 6.00168 0
M  V30 182 H 25.6362 -2.60638 3.88826 0
M  V30 183 H 25.8092 -3.39545 5.51918 0
M  V30 184 N 19.2153 -1.21501 -1.00376 0
M  V30 185 C 20.4633 -1.03095 -1.73827 0
M  V30 186 C 20.7843 0.436341 -1.90055 0
M  V30 187 O 20.0543 1.31466 -1.45236 0
M  V30 188 H 18.6343 -0.378487 -0.644016 0
M  V30 189 H 21.2963 -1.52831 -1.20949 0
M  V30 190 H 20.3923 -1.49991 -2.73695 0
M  V30 191 N 20.6934 1.19889 -1.02296 0
M  V30 192 C 22.1094 1.41462 -0.738954 0
M  V30 193 C 22.3094 1.89721 0.678846 0
M  V30 194 O 21.3654 2.07016 1.4457 0
M  V30 195 C 22.6784 2.43083 -1.77005 0
M  V30 196 C 24.2264 2.5684 -1.78892 0
M  V30 197 C 24.7014 3.61709 -2.80945 0
M  V30 198 N 26.1924 3.69199 -2.79725 0
M  V30 199 C 26.9274 4.50019 -3.55345 0
M  V30 200 N 26.4234 5.34592 -4.40662 0
M  V30 201 N 28.2164 4.44612 -3.43914 0
M  V30 202 H 20.3674 0.868827 -1.93817 0
M  V30 203 H 22.6304 0.44399 -0.837602 0
M  V30 204 H 22.3364 2.14636 -2.78612 0
M  V30 205 H 22.2104 3.4217 -1.58744 0
M  V30 206 H 24.5974 2.84614 -0.779674 0
M  V30 207 H 24.6784 1.57927 -2.01228 0
M  V30 208 H 24.3224 3.34678 -3.82038 0
M  V30 209 H 24.2524 4.60259 -2.5587 0
M  V30 210 H 26.7434 3.08794 -2.17842 0
M  V30 211 H 27.0564 5.93363 -4.95116 0
M  V30 212 H 25.4014 5.34073 -4.44737 0
M  V30 213 H 28.5924 3.7758 -2.76679 0
M  V30 214 H 28.7654 5.0736 -4.031 0
M  V30 215 N 22.1715 0.800033 1.35784 0
M  V30 216 C 23.5875 0.482977 1.52117 0
M  V30 217 C 23.7875 -0.996948 1.75109 0
M  V30 218 O 22.8435 -1.78216 1.78872 0
M  V30 219 C 24.1565 1.32264 2.70049 0
M  V30 220 C 25.7045 1.31742 2.83924 0
M  V30 221 C 26.1795 2.14106 4.04874 0
M  V30 222 N 27.6705 2.11607 4.12039 0
M  V30 223 C 28.4055 2.72099 5.04727 0
M  V30 224 N 27.9015 3.41492 6.02789 0
M  V30 225 N 29.6945 2.61776 4.97423 0
M  V30 226 H 21.8455 1.75856 1.19115 0
M  V30 227 H 24.1085 0.748122 0.582252 0
M  V30 228 H 23.8145 2.37261 2.59616 0
M  V30 229 H 23.6885 0.971303 3.6448 0
M  V30 230 H 26.0755 0.275333 2.93813 0
M  V30 231 H 26.1565 1.70859 1.9037 0
M  V30 232 H 25.8005 3.18351 3.95746 0
M  V30 233 H 25.7305 1.72353 4.97596 0
M  V30 234 H 28.2215 1.61112 3.41835 0
M  V30 235 H 28.5345 3.84953 6.70098 0
M  V30 236 H 26.8795 3.45596 6.02983 0
M  V30 237 H 30.0705 2.07157 4.19766 0
M  V30 238 H 30.2435 3.0921 5.69468 0
M  V30 239 N 23.6496 -1.47581 0.552962 0
M  V30 240 C 24.8776 -2.06875 0.0320556 0
M  V30 241 C 25.2926 -1.40625 -1.25976 0
M  V30 242 O 24.6496 -0.501349 -1.75479 0
M  V30 243 C 24.7006 -3.61092 -0.17167 0
M  V30 244 O 24.4216 -4.24858 1.06899 0
M  V30 245 C 25.9226 -4.37242 -0.730344 0
M  V30 246 H 23.1426 -0.669561 0.043915 0
M  V30 247 H 25.6866 -1.89646 0.765163 0
M  V30 248 H 23.8416 -3.7785 -0.854894 0
M  V30 249 H 24.2556 -5.17334 0.864059 0
M  V30 250 H 25.7296 -5.45842 -0.822203 0
M  V30 251 H 26.2066 -4.03235 -1.74064 0
M  V30 252 H 26.8126 -4.25219 -0.0829543 0
M  V30 253 N 25.1277 -0.289203 -1.54924 0
M  V30 254 C 26.0907 0.579144 -2.21762 0
M  V30 255 C 27.0907 1.07047 -1.1999 0
M  V30 256 O 28.2807 0.968384 -1.44803 0
M  V30 257 C 25.4127 1.80055 -2.8947 0
M  V30 258 H 26.6057 -0.00464908 -2.999 0
M  V30 259 H 24.1587 -0.0399306 -1.56249 0
M  V30 260 H 24.8937 2.42449 -2.15381 0
M  V30 261 H 24.6787 1.45602 -3.64064 0
M  V30 262 H 26.1687 2.41773 -3.40493 0
M  V30 263 N 26.6058 1.57591 -0.0167156 0
M  V30 264 C 28.0218 1.55946 0.339557 0
M  V30 265 C 28.2218 1.02109 1.73713 0
M  V30 266 O 27.2778 0.662303 2.43659 0
M  V30 267 C 28.5908 3.00037 0.199499 0
M  V30 268 C 30.1388 3.11805 0.273193 0
M  V30 269 C 30.6138 4.57713 0.162068 0
M  V30 270 N 32.1048 4.6268 0.219444 0
M  V30 271 C 32.8398 5.73185 0.157054 0
M  V30 272 N 32.3358 6.92786 0.0442936 0
M  V30 273 N 34.1288 5.61707 0.21014 0
M  V30 274 H 26.2798 1.90921 -0.930758 0
M  V30 275 H 28.5428 0.877674 -0.358319 0
M  V30 276 H 28.2488 3.4333 -0.76273 0
M  V30 277 H 28.1228 3.64387 0.974786 0
M  V30 278 H 30.5098 2.68433 1.22587 0
M  V30 279 H 30.5908 2.50201 -0.532256 0
M  V30 280 H 30.2348 5.01763 -0.78714 0
M  V30 281 H 30.1648 5.17283 0.986222 0
M  V30 282 H 32.6558 3.76649 0.307246 0
M  V30 283 H 32.9688 7.728 0.00304069 0
M  V30 284 H 31.3138 6.94999 0.00968457 0
M  V30 285 H 34.5048 4.6716 0.296546 0
M  V30 286 H 34.6778 6.47807 0.158054 0
M  V30 287 N 28.0839 -0.256276 1.55502 0
M  V30 288 C 29.4949 -0.826068 1.67431 0
M  V30 289 C 29.8459 -1.86396 0.612446 0
M  V30 290 O 28.9709 -2.15031 -0.243025 0
M  V30 291 C 29.5659 -1.50512 3.03532 0
M  V30 292 C 28.1249 -2.02273 3.17431 0
M  V30 293 C 27.2719 -0.870548 2.63281 0
M  V30 294 H 30.2229 -0.0322728 1.58667 0
M  V30 295 H 30.2439 -2.37279 2.97454 0
M  V30 296 H 29.7559 -0.749484 3.80794 0
M  V30 297 H 27.8569 -2.80746 2.44974 0
M  V30 298 H 27.9699 -2.22655 4.24219 0
M  V30 299 H 26.3339 -1.26851 2.20864 0
M  V30 300 H 27.1169 -0.128149 3.43061 0
M  V30 301 N 29.562 -1.4872 -0.521534 0
M  V30 302 C 30.787 -1.61101 -1.30618 0
M  V30 303 C 31.212 -0.274611 -1.86085 0
M  V30 304 O 30.57 0.754937 -1.64834 0
M  V30 305 C 30.618 -2.66709 -2.4269 0
M  V30 306 O 29.722 -2.24456 -3.45967 0
M  V30 307 H 29.063 -0.539921 -0.386499 0
M  V30 308 H 31.593 -1.94767 -0.626645 0
M  V30 309 H 31.603 -2.88245 -2.88754 0
M  V30 310 H 30.278 -3.63727 -2.01682 0
M  V30 311 H 28.855 -2.13168 -3.05964 0
M  V30 312 N 31.0401 0.771051 -1.3745 0
M  V30 313 C 32.2881 1.52661 -1.32435 0
M  V30 314 C 32.6091 1.9479 0.0905024 0
M  V30 315 O 31.8791 1.66348 1.03466 0
M  V30 316 H 30.4591 0.566218 -0.487244 0
M  V30 317 H 33.1211 0.917636 -1.71946 0
M  V30 318 H 32.2171 2.42568 -1.96385 0
M  V30 319 N 32.5182 1.22032 0.997298 0
M  V30 320 C 33.7952 0.950823 1.70935 0
M  V30 321 C 34.1752 -0.535292 2.042 0
M  V30 322 O 33.5232 -1.50217 1.72183 0
M  V30 323 C 33.7332 1.84386 2.96315 0
M  V30 324 C 35.0812 2.09732 3.69185 0
M  V30 325 O 36.1052 1.81798 3.06314 0
M  V30 326 O 34.9642 2.57018 4.82291 0
M  V30 327 H 32.0582 0.357204 0.745878 0
M  V30 328 H 34.6042 1.32997 1.05404 0
M  V30 329 H 33.3762 2.84928 2.68201 0
M  V30 330 H 32.9992 1.46602 3.69586 0
M  V30 331 N 33.9963 -1.19345 1.0293 0
M  V30 332 C 35.2733 -1.84811 0.640642 0
M  V30 333 C 35.6533 -1.91855 -0.88062 0
M  V30 334 O 35.0013 -1.43587 -1.7775 0
M  V30 335 C 35.2113 -3.23755 1.30321 0
M  V30 336 C 36.5593 -3.99912 1.42673 0
M  V30 337 O 37.5833 -3.33155 1.26041 0
M  V30 338 O 36.4423 -5.19494 1.6967 0
M  V30 339 H 33.5363 -0.796443 0.222726 0
M  V30 340 H 36.0823 -1.26831 1.12748 0
M  V30 341 H 34.8543 -3.13466 2.34211 0
M  V30 342 H 34.4773 -3.89381 0.804261 0
M  V30 343 N 35.4744 -0.807222 -1.35358 0
M  V30 344 C 36.8904 -0.491038 -1.51858 0
M  V30 345 C 37.0904 0.987648 -1.75635 0
M  V30 346 O 36.1464 1.77265 -1.79815 0
M  V30 347 C 37.4594 -1.33695 -2.69344 0
M  V30 348 C 39.0074 -1.33246 -2.83222 0
M  V30 349 C 39.4824 -2.1625 -4.03733 0
M  V30 350 N 40.9734 -2.1379 -4.10911 0
M  V30 351 C 41.7084 -2.74772 -5.03277 0
M  V30 352 N 41.2044 -3.44684 -6.0097 0
M  V30 353 N 42.9974 -2.6441 -4.96028 0
M  V30 354 H 35.1484 -1.76485 -1.18181 0
M  V30 355 H 37.4114 -0.751199 -0.578276 0
M  V30 356 H 37.1174 -2.38634 -2.58354 0
M  V30 357 H 36.9914 -0.990618 -3.6396 0
M  V30 358 H 39.3784 -0.290911 -2.93663 0
M  V30 359 H 39.4594 -1.71866 -1.89461 0
M  V30 360 H 39.1034 -3.20445 -3.94052 0
M  V30 361 H 39.0334 -1.74989 -4.96675 0
M  V30 362 H 41.5244 -1.62923 -3.40976 0
M  V30 363 H 41.8374 -3.88501 -6.68047 0
M  V30 364 H 40.1824 -3.48788 -6.01142 0
M  V30 365 H 43.3734 -2.0938 -4.18662 0
M  V30 366 H 43.5464 -3.12225 -5.6782 0
M  V30 367 N 36.9525 1.47285 -0.560781 0
M  V30 368 C 37.8625 2.33846 0.187954 0
M  V30 369 C 38.8785 1.48412 0.908293 0
M  V30 370 O 40.0545 1.81332 0.876388 0
M  V30 371 C 37.1195 3.25178 1.2025 0
M  V30 372 C 36.1805 4.26504 0.489208 0
M  V30 373 C 35.4135 5.13472 1.45542 0
M  V30 374 O 35.6365 5.02959 2.6905 0
M  V30 375 O 34.5705 5.93902 0.977963 0
M  V30 376 H 38.3965 2.99177 -0.522177 0
M  V30 377 H 35.9815 1.45903 -0.321364 0
M  V30 378 H 37.8635 3.81584 1.78805 0
M  V30 379 H 36.5385 2.6247 1.89449 0
M  V30 380 H 35.4455 3.73847 -0.137627 0
M  V30 381 H 36.7785 4.91935 -0.161399 0
M  V30 382 N 38.4306 0.297415 1.54768 0
M  V30 383 C 39.3606 -0.573494 2.26348 0
M  V30 384 C 40.3416 -1.14085 1.26169 0
M  V30 385 O 41.5266 -1.17086 1.54934 0
M  V30 386 C 38.6566 -1.74716 3.00153 0
M  V30 387 C 37.6106 -1.31032 4.07449 0
M  V30 388 C 36.9366 -2.56887 4.68949 0
M  V30 389 C 38.2366 -0.444183 5.20408 0
M  V30 390 H 39.9306 0.0235131 2.99391 0
M  V30 391 H 37.4766 0.0127488 1.43994 0
M  V30 392 H 39.4296 -2.3625 3.48947 0
M  V30 393 H 38.1536 -2.37035 2.24682 0
M  V30 394 H 36.8126 -0.718066 3.59499 0
M  V30 395 H 36.4606 -3.17512 3.90122 0
M  V30 396 H 36.1606 -2.2836 5.41411 0
M  V30 397 H 37.6846 -3.19229 5.20505 0
M  V30 398 H 39.0986 -0.9651 5.65118 0
M  V30 399 H 37.4956 -0.252846 5.99567 0
M  V30 400 H 38.5656 0.531609 4.81977 0
M  V30 401 N 39.9087 -1.5758 0.0250728 0
M  V30 402 C 40.8717 -2.08896 -0.943139 0
M  V30 403 C 41.8717 -1.00321 -1.25668 0
M  V30 404 O 43.0617 -1.26495 -1.19769 0
M  V30 405 C 40.1937 -2.55143 -2.26086 0
M  V30 406 H 41.3867 -2.95723 -0.498775 0
M  V30 407 H 38.9397 -1.54703 -0.222888 0
M  V30 408 H 39.6747 -1.71633 -2.75159 0
M  V30 409 H 39.4597 -3.34461 -2.04641 0
M  V30 410 H 40.9497 -2.95083 -2.95492 0
M  V30 411 N 41.3868 0.248026 -1.55636 0
M  V30 412 C 42.6358 0.974134 -1.76617 0
M  V30 413 C 42.9488 1.86528 -0.588796 0
M  V30 414 O 44.1548 2.62805 -0.681594 0
M  V30 415 C 42.6108 1.78213 -3.12679 0
M  V30 416 C 42.2188 0.93843 -4.38061 0
M  V30 417 C 43.9628 2.50104 -3.42999 0
M  V30 418 C 41.8698 1.74225 -5.65155 0
M  V30 419 H 40.7998 0.36745 -0.658405 0
M  V30 420 H 43.4508 0.22884 -1.82067 0
M  V30 421 H 41.8328 2.56933 -3.01333 0
M  V30 422 H 43.0068 0.193635 -4.60393 0
M  V30 423 H 41.3218 0.332905 -4.15067 0
M  V30 424 H 43.9188 3.10694 -4.3517 0
M  V30 425 H 44.2618 3.21662 -2.64271 0
M  V30 426 H 44.7948 1.78395 -3.55556 0
M  V30 427 H 41.5338 1.07043 -6.46701 0
M  V30 428 H 41.0538 2.46235 -5.46926 0
M  V30 429 H 42.7328 2.30967 -6.0437 0
M  V30 430 N 42.8649 1.48995 0.513639 0
M  V30 431 C 43.7949 1.67636 1.62544 0
M  V30 432 C 44.7759 0.525087 1.61793 0
M  V30 433 O 45.9609 0.759502 1.78732 0
M  V30 434 C 43.0909 1.73114 3.01079 0
M  V30 435 C 42.0449 2.87905 3.16693 0
M  V30 436 C 41.3709 2.78486 4.56453 0
M  V30 437 C 42.6709 4.29005 2.97913 0
M  V30 438 H 44.3649 2.60716 1.47198 0
M  V30 439 H 41.9109 1.25465 0.706714 0
M  V30 440 H 43.8639 1.84742 3.78746 0
M  V30 441 H 42.5879 0.766241 3.17484 0
M  V30 442 H 41.2469 2.75859 2.41448 0
M  V30 443 H 40.8949 1.7993 4.69717 0
M  V30 444 H 40.5949 3.55523 4.67843 0
M  V30 445 H 42.1189 2.92104 5.36197 0
M  V30 446 H 43.5329 4.41798 3.65359 0
M  V30 447 H 41.9299 5.07166 3.20785 0
M  V30 448 H 42.9999 4.44329 1.94165 0
M  V30 449 N 44.343 -0.763751 1.37857 0
M  V30 450 C 45.306 -1.85889 1.34081 0
M  V30 451 C 46.306 -1.58949 0.243277 0
M  V30 452 O 47.496 -1.66882 0.499589 0
M  V30 453 C 44.628 -3.23176 1.08489 0
M  V30 454 H 45.821 -1.90648 2.31502 0
M  V30 455 H 43.374 -0.964367 1.23003 0
M  V30 456 H 44.109 -3.24091 0.116318 0
M  V30 457 H 43.894 -3.44124 1.8794 0
M  V30 458 H 45.384 -4.03254 1.08517 0
M  V30 459 N 45.8211 -1.22559 -0.990812 0
M  V30 460 C 47.0491 -1.07779 -1.76611 0
M  V30 461 C 47.4641 0.371513 -1.85109 0
M  V30 462 O 46.8211 1.25737 -1.32274 0
M  V30 463 C 46.8721 -1.68512 -3.19822 0
M  V30 464 O 46.5931 -3.07774 -3.1178 0
M  V30 465 C 48.0941 -1.59035 -4.13791 0
M  V30 466 H 45.3141 -0.377729 -0.554583 0
M  V30 467 H 47.8581 -1.62195 -1.24551 0
M  V30 468 H 46.0131 -1.18154 -3.68942 0
M  V30 469 H 46.4271 -3.37062 -4.01858 0
M  V30 470 H 47.9011 -2.0625 -5.1202 0
M  V30 471 H 48.3781 -0.547273 -4.35777 0
M  V30 472 H 48.9841 -2.08709 -3.70568 0
M  V30 473 N 47.2992 1.18797 -1.03562 0
M  V30 474 C 48.2622 2.20464 -0.626769 0
M  V30 475 C 49.2622 1.57721 0.313173 0
M  V30 476 O 50.4522 1.73917 0.0992615 0
M  V30 477 C 47.5842 3.40802 0.0818498 0
M  V30 478 H 48.7772 2.58149 -1.5264 0
M  V30 479 H 46.3302 1.32593 -0.827578 0
M  V30 480 H 47.0652 3.08642 0.995518 0
M  V30 481 H 46.8502 3.8758 -0.593652 0
M  V30 482 H 48.3402 4.16092 0.354584 0
M  V30 483 N 48.7773 0.814389 1.34928 0
M  V30 484 C 49.6873 0.231978 2.3345 0
M  V30 485 C 50.7033 -0.629139 1.62228 0
M  V30 486 O 51.8793 -0.539052 1.94052 0
M  V30 487 C 48.9443 -0.603482 3.41407 0
M  V30 488 C 48.0053 0.279037 4.28392 0
M  V30 489 C 47.2383 -0.516643 5.31193 0
M  V30 490 O 47.4613 -1.75068 5.4287 0
M  V30 491 O 46.3953 0.0965652 6.01823 0
M  V30 492 H 50.2213 1.04721 2.85074 0
M  V30 493 H 47.8063 0.576343 1.37836 0
M  V30 494 H 49.6883 -1.07908 4.0735 0
M  V30 495 H 48.3633 -1.39618 2.92042 0
M  V30 496 H 47.2703 0.801948 3.65403 0
M  V30 497 H 48.6033 1.03588 4.81176 0
M  V30 498 N 50.2554 -1.46986 0.568584 0
M  V30 499 C 51.2034 -2.31858 -0.185649 0
M  V30 500 C 52.1974 -1.43624 -0.898249 0
M  V30 501 O 53.4034 -1.60327 -0.818242 0
M  V30 502 H 49.7784 -0.747866 -0.0787399 0
M  V30 503 H 51.7494 -2.93303 0.549191 0
M  V30 504 C 50.4984 -3.26513 -1.19519 0
M  V30 505 H 49.8214 -3.94377 -0.656285 0
M  V30 506 H 51.2614 -3.88707 -1.6936 0
M  V30 507 C 49.7204 -2.50847 -2.24894 0
M  V30 508 O 50.2504 -2.26119 -3.32014 0
M  V30 509 N 48.4564 -2.11656 -1.99124 0
M  V30 510 H 48.0034 -2.31966 -1.12024 0
M  V30 511 H 47.9614 -1.61347 -2.69842 0
M  V30 512 N 51.7335 -0.305618 -1.54608 0
M  V30 513 C 52.6635 0.561482 -2.26649 0
M  V30 514 C 53.6445 1.13415 -1.26772 0
M  V30 515 O 54.8295 1.16262 -1.55553 0
M  V30 516 C 51.9595 1.73122 -3.01075 0
M  V30 517 C 50.9135 1.2887 -4.08138 0
M  V30 518 C 50.2395 2.54396 -4.70305 0
M  V30 519 C 51.5395 0.416578 -5.20636 0
M  V30 520 H 53.2335 -0.0393902 -2.99374 0
M  V30 521 H 50.7795 -0.020385 -1.43986 0
M  V30 522 H 52.7325 2.34396 -3.50195 0
M  V30 523 H 51.4565 2.3584 -2.25936 0
M  V30 524 H 50.1155 0.698991 -3.59875 0
M  V30 525 H 49.7635 3.15439 -3.918 0
M  V30 526 H 49.4635 2.25486 -5.42614 0
M  V30 527 H 50.9875 3.16464 -5.2219 0
M  V30 528 H 52.4015 0.935116 -5.65622 0
M  V30 529 H 50.7985 0.221046 -5.99693 0
M  V30 530 H 51.8685 -0.557162 -4.81688 0
M  V30 531 N 53.2116 1.57565 -0.0334293 0
M  V30 532 C 54.1416 2.13511 0.945265 0
M  V30 533 C 55.1226 1.05231 1.33643 0
M  V30 534 O 56.3076 1.33084 1.41429 0
M  V30 535 C 53.4376 2.6657 2.22616 0
M  V30 536 C 52.3916 3.79676 1.97561 0
M  V30 537 C 51.7176 4.1918 3.31952 0
M  V30 538 C 53.0176 5.0557 1.31135 0
M  V30 539 H 54.7116 2.95538 0.479325 0
M  V30 540 H 52.2576 1.42166 0.229115 0
M  V30 541 H 54.2106 3.04344 2.91466 0
M  V30 542 H 52.9346 1.8171 2.71384 0
M  V30 543 H 51.5936 3.42347 1.31127 0
M  V30 544 H 51.2416 3.31296 3.78487 0
M  V30 545 H 50.9416 4.95402 3.15992 0
M  V30 546 H 52.4656 4.59541 4.02063 0
M  V30 547 H 53.8796 5.40903 1.89992 0
M  V30 548 H 52.2766 5.86818 1.25559 0
M  V30 549 H 53.3466 4.84062 0.284894 0
M  V30 550 N 54.6897 -0.239769 1.55765 0
M  V30 551 C 55.5997 -1.31831 1.94056 0
M  V30 552 C 56.6157 -1.52275 0.841925 0
M  V30 553 O 57.7917 -1.65759 1.14394 0
M  V30 554 C 54.8567 -2.65156 2.23368 0
M  V30 555 C 53.9177 -2.53173 3.46701 0
M  V30 556 C 53.1507 -3.8014 3.74606 0
M  V30 557 O 53.3737 -4.82343 3.04469 0
M  V30 558 O 52.3077 -3.78344 4.68123 0
M  V30 559 H 56.1337 -1.02347 2.85935 0
M  V30 560 H 53.7187 -0.441123 1.42739 0
M  V30 561 H 55.6007 -3.43929 2.43497 0
M  V30 562 H 54.2757 -2.94358 1.34666 0
M  V30 563 H 53.1827 -1.72662 3.31871 0
M  V30 564 H 54.5157 -2.28915 4.35728 0
M  V30 565 N 56.1678 -1.49265 -0.50573 0
M  V30 566 C 57.4448 -1.49012 -1.26707 0
M  V30 567 C 57.8248 -0.215205 -2.1 0
M  V30 568 O 57.1728 0.802547 -2.13943 0
M  V30 569 C 57.3828 -2.7663 -2.12783 0
M  V30 570 C 58.7308 -3.25932 -2.72127 0
M  V30 571 O 59.7548 -2.77715 -2.23054 0
M  V30 572 O 58.6138 -4.09897 -3.61451 0
M  V30 573 H 55.7078 -0.596197 -0.57313 0
M  V30 574 H 58.2538 -1.61524 -0.52039 0
M  V30 575 H 57.0258 -3.60916 -1.5118 0
M  V30 576 H 56.6488 -2.66956 -2.94653 0
M  V30 577 N 57.6459 0.756429 -1.3826 0
M  V30 578 C 59.0619 1.0591 -1.19395 0
M  V30 579 C 59.2619 2.01459 -0.0406567 0
M  V30 580 O 58.3179 2.44909 0.614467 0
M  V30 581 C 59.6309 1.64191 -2.51916 0
M  V30 582 C 61.1789 1.76376 -2.58574 0
M  V30 583 C 61.6539 2.38069 -3.91264 0
M  V30 584 N 63.1449 2.45503 -3.92788 0
M  V30 585 C 63.8799 2.94126 -4.92217 0
M  V30 586 N 63.3759 3.42805 -6.02043 0
M  V30 587 N 65.1689 2.9314 -4.7961 0
M  V30 588 H 57.3199 0.122313 -2.12048 0
M  V30 589 H 59.5829 0.116892 -0.940766 0
M  V30 590 H 59.2889 1.01451 -3.3675 0
M  V30 591 H 59.1629 2.6329 -2.70108 0
M  V30 592 H 61.5499 2.38244 -1.74137 0
M  V30 593 H 61.6309 0.759894 -2.44252 0
M  V30 594 H 61.2749 1.76835 -4.76121 0
M  V30 595 H 61.2049 3.39091 -4.02895 0
M  V30 596 H 63.6959 2.1107 -3.13461 0
M  V30 597 H 64.0089 3.78354 -6.73846 0
M  V30 598 H 62.3539 3.4087 -6.05667 0
M  V30 599 H 65.5449 2.54419 -3.92923 0
M  V30 600 H 65.7179 3.30721 -5.5725 0
M  V30 601 N 59.124 1.23083 0.984299 0
M  V30 602 C 60.535 1.05609 1.5396 0
M  V30 603 C 60.886 -0.377793 1.92528 0
M  V30 604 O 60.011 -1.26398 1.75649 0
M  V30 605 C 60.606 1.91087 2.7977 0
M  V30 606 C 59.165 1.77885 3.31713 0
M  V30 607 C 58.312 1.87028 2.04733 0
M  V30 608 H 61.263 1.36802 0.804419 0
M  V30 609 H 61.284 1.43336 3.5247 0
M  V30 610 H 60.796 2.9544 2.51668 0
M  V30 611 H 58.897 0.762995 3.64704 0
M  V30 612 H 59.01 2.61047 4.01735 0
M  V30 613 H 57.374 1.30565 2.18689 0
M  V30 614 H 58.157 2.92929 1.79017 0
M  V30 615 N 60.6021 -1.18246 1.0419 0
M  V30 616 C 61.5321 -2.24127 0.654914 0
M  V30 617 C 62.5131 -1.66617 -0.342451 0
M  V30 618 O 63.6981 -1.92924 -0.222277 0
M  V30 619 C 60.8281 -3.47295 0.0183757 0
M  V30 620 C 59.7821 -4.17563 0.939414 0
M  V30 621 C 59.1081 -5.34438 0.167286 0
M  V30 622 C 60.4081 -4.70917 2.25908 0
M  V30 623 H 62.1021 -2.56753 1.54007 0
M  V30 624 H 59.6481 -1.23414 0.74195 0
M  V30 625 H 61.6011 -4.20572 -0.264082 0
M  V30 626 H 60.3251 -3.13907 -0.901664 0
M  V30 627 H 58.9841 -3.46186 1.20628 0
M  V30 628 H 58.6321 -4.97298 -0.7552 0
M  V30 629 H 58.3321 -5.82388 0.780901 0
M  V30 630 H 59.8561 -6.10504 -0.108125 0
M  V30 631 H 61.2701 -5.35882 2.03724 0
M  V30 632 H 59.6671 -5.29406 2.82577 0
M  V30 633 H 60.7371 -3.88272 2.9047 0
M  V30 634 N 62.0802 -0.821533 -1.34494 0
M  V30 635 C 63.0432 -0.247847 -2.27856 0
M  V30 636 C 64.0432 0.573453 -1.50227 0
M  V30 637 O 65.2332 0.389759 -1.69784 0
M  V30 638 C 62.3652 0.652698 -3.34593 0
M  V30 639 H 63.5582 -1.07146 -2.80107 0
M  V30 640 H 61.1112 -0.593291 -1.44602 0
M  V30 641 H 61.8462 1.49943 -2.87555 0
M  V30 642 H 61.6312 0.065292 -3.92046 0
M  V30 643 H 63.1212 1.04793 -4.04238 0
M  V30 644 N 63.5583 1.46682 -0.576371 0
M  V30 645 C 64.8353 1.95599 0.00703437 0
M  V30 646 C 65.2153 1.51904 1.46589 0
M  V30 647 O 64.5633 0.766755 2.15251 0
M  V30 648 C 64.7733 3.4864 -0.158404 0
M  V30 649 C 66.1213 4.24594 -0.0229439 0
M  V30 650 O 67.1453 3.56094 -0.0869173 0
M  V30 651 O 66.0043 5.46373 0.118015 0
M  V30 652 H 63.0983 0.825275 0.053384 0
M  V30 653 H 65.6443 1.56996 -0.644244 0
M  V30 654 H 64.4163 3.7331 -1.17282 0
M  V30 655 H 64.0393 3.94057 0.5296 0
M  V30 656 N 65.0364 0.313813 1.54444 0
M  V30 657 C 66.2854 -0.292519 1.99568 0
M  V30 658 C 66.5984 -1.54011 1.20582 0
M  V30 659 O 67.8044 -2.22183 1.56035 0
M  V30 660 C 66.2604 -0.571752 3.55329 0
M  V30 661 C 65.8684 0.658229 4.43138 0
M  V30 662 C 67.6124 -1.13857 4.08946 0
M  V30 663 C 65.5194 0.351439 5.90355 0
M  V30 664 H 64.4494 -0.113079 0.745472 0
M  V30 665 H 67.1004 0.424518 1.78522 0
M  V30 666 H 65.4824 -1.34872 3.72325 0
M  V30 667 H 66.6564 1.43403 4.37918 0
M  V30 668 H 64.9714 1.14458 4.0036 0
M  V30 669 H 67.5684 -1.38257 5.16516 0
M  V30 670 H 67.9114 -2.08489 3.6033 0
M  V30 671 H 68.4444 -0.423015 3.95544 0
M  V30 672 H 65.1834 1.26667 6.43145 0
M  V30 673 H 64.7034 -0.386842 5.98551 0
M  V30 674 H 66.3824 -0.0423134 6.46986 0
M  V30 675 N 66.5145 -1.57545 0.0417849 0
M  V30 676 C 67.7395 -1.97035 -0.647455 0
M  V30 677 C 68.1645 -0.918775 -1.64135 0
M  V30 678 O 67.5225 0.119006 -1.80909 0
M  V30 679 C 67.5705 -3.35609 -1.31905 0
M  V30 680 O 66.6745 -3.3287 -2.43457 0
M  V30 681 H 66.0155 -0.64211 -0.169086 0
M  V30 682 H 68.5455 -2.04318 0.107399 0
M  V30 683 H 68.5555 -3.72126 -1.67291 0
M  V30 684 H 67.2305 -4.11685 -0.590586 0
M  V30 685 H 65.8075 -3.08087 -2.10088 0
M  V30 686 N 67.9926 0.231505 -1.5589 0
M  V30 687 C 69.2386 0.95877 -1.78705 0
M  V30 688 C 69.5716 1.8438 -0.609725 0
M  V30 689 O 68.8466 1.90521 0.391426 0
M  V30 690 C 69.1296 1.8062 -3.11526 0
M  V30 691 C 68.9826 0.948328 -4.39689 0
M  V30 692 C 70.3016 2.78585 -3.40703 0
M  V30 693 H 67.4206 0.347129 -0.650131 0
M  V30 694 H 70.0626 0.228259 -1.88624 0
M  V30 695 H 68.2126 2.42902 -3.03201 0
M  V30 696 H 69.8846 0.343016 -4.60023 0
M  V30 697 H 68.1276 0.253314 -4.3306 0
M  V30 698 H 68.7986 1.57543 -5.29041 0
M  V30 699 H 71.2746 2.26439 -3.49091 0
M  V30 700 H 70.1506 3.34988 -4.34826 0
M  V30 701 H 70.4116 3.55825 -2.62375 0
M  V30 702 N 69.4707 1.49531 0.497807 0
M  V30 703 C 70.7477 1.49682 1.25915 0
M  V30 704 C 71.1277 0.226339 2.09883 0
M  V30 705 O 70.4757 -0.791189 2.14365 0
M  V30 706 C 70.6857 2.77755 2.11313 0
M  V30 707 C 72.0337 3.27371 2.70395 0
M  V30 708 O 73.0577 2.78894 2.21578 0
M  V30 709 O 71.9167 4.11808 3.59272 0
M  V30 710 H 69.0107 0.599228 0.56996 0
M  V30 711 H 71.5567 1.61798 0.511816 0
M  V30 712 H 70.3287 3.61713 1.49264 0
M  V30 713 H 69.9517 2.68515 2.93233 0
M  V30 714 N 70.9488 -0.749086 1.3866 0
M  V30 715 C 72.2258 -1.4992 1.25632 0
M  V30 716 C 72.6058 -2.10633 -0.140317 0
M  V30 717 O 71.9538 -1.97437 -1.15025 0
M  V30 718 C 72.1638 -2.56195 2.36992 0
M  V30 719 C 73.5118 -3.22972 2.75634 0
M  V30 720 O 74.5358 -2.66502 2.36337 0
M  V30 721 O 73.3948 -4.25122 3.43415 0
M  V30 722 H 70.4888 -0.665067 0.491544 0
M  V30 723 H 73.0348 -0.784113 1.50498 0
M  V30 724 H 71.8068 -2.09612 3.30422 0
M  V30 725 H 71.4298 -3.35279 2.13714 0
M  V30 726 N 72.4269 -1.23603 -0.977757 0
M  V30 727 C 73.3569 -1.04401 -2.0886 0
M  V30 728 C 74.3379 0.0399052 -1.70053 0
M  V30 729 O 75.5229 -0.125246 -1.93796 0
M  V30 730 C 72.6529 -0.637269 -3.41403 0
M  V30 731 C 71.6069 -1.66883 -3.94124 0
M  V30 732 C 70.9329 -1.11745 -5.22893 0
M  V30 733 C 72.2329 -3.06247 -4.23096 0
M  V30 734 H 73.9269 -1.97316 -2.25182 0
M  V30 735 H 71.4729 -0.950096 -1.08209 0
M  V30 736 H 73.4259 -0.48998 -4.18542 0
M  V30 737 H 72.1499 0.327557 -3.24953 0
M  V30 738 H 70.8089 -1.80416 -3.19133 0
M  V30 739 H 70.4569 -0.143527 -5.02795 0
M  V30 740 H 70.1569 -1.80672 -5.59134 0
M  V30 741 H 71.6809 -0.982067 -6.02651 0
M  V30 742 H 73.0949 -2.96001 -4.90975 0
M  V30 743 H 71.4919 -3.72436 -4.70544 0
M  V30 744 H 72.5619 -3.55041 -3.30263 0
M  V30 745 N 73.905 1.17692 -1.04816 0
M  V30 746 C 74.868 2.19787 -0.650117 0
M  V30 747 C 75.868 1.58044 0.296427 0
M  V30 748 O 77.058 1.74012 0.0808097 0
M  V30 749 C 74.19 3.40869 0.0456987 0
M  V30 750 H 75.383 2.56516 -1.5537 0
M  V30 751 H 72.936 1.31708 -0.841594 0
M  V30 752 H 73.671 3.09681 0.962726 0
M  V30 753 H 73.456 3.86928 -0.634727 0
M  V30 754 H 74.946 4.16445 0.310432 0
M  V30 755 N 75.3831 0.828654 1.34056 0
M  V30 756 C 76.3301 0.252567 2.29414 0
M  V30 757 C 77.3001 -0.62588 1.53857 0
M  V30 758 O 78.4851 -0.566312 1.82202 0
M  V30 759 C 75.6251 -0.574831 3.40279 0
M  V30 760 C 74.7381 0.326499 4.30764 0
M  V30 761 C 73.8731 -0.511016 5.28736 0
M  V30 762 C 72.9121 0.389342 6.1086 0
M  V30 763 N 72.0491 -0.409439 7.00905 0
M  V30 764 H 76.8891 1.07108 2.78086 0
M  V30 765 H 74.4261 0.539677 1.36843 0
M  V30 766 H 76.3841 -1.06992 4.03248 0
M  V30 767 H 75.0141 -1.35841 2.92826 0
M  V30 768 H 74.0661 0.939837 3.68607 0
M  V30 769 H 75.3781 1.01857 4.88289 0
M  V30 770 H 74.5321 -1.07035 5.97184 0
M  V30 771 H 73.2711 -1.23657 4.71763 0
M  V30 772 H 72.2761 0.960769 5.4134 0
M  V30 773 H 73.5011 1.1131 6.69916 0
M  V30 774 H 71.4471 -1.11856 6.46393 0
M  V30 775 H 71.3641 0.224126 7.55668 0
M  V30 776 H 72.6321 -0.951336 7.73673 0
M  V30 777 N 76.8612 -1.46375 0.584142 0
M  V30 778 C 78.1092 -2.01978 0.0701287 0
M  V30 779 C 78.4302 -1.4579 -1.295 0
M  V30 780 O 77.7002 -0.64314 -1.85042 0
M  V30 781 H 76.2802 -0.746648 0.0229345 0
M  V30 782 H 78.9422 -1.79461 0.760245 0
M  V30 783 H 78.0382 -3.121 0.0022064 0
M  V30 784 N 78.3393 -0.321999 -1.54275 0
M  V30 785 C 79.3023 0.531975 -2.22941 0
M  V30 786 C 80.3023 1.04478 -1.22234 0
M  V30 787 O 81.4923 0.937452 -1.46825 0
M  V30 788 C 78.6243 1.73874 -2.93224 0
M  V30 789 H 79.8173 -0.0682612 -2.99822 0
M  V30 790 H 77.3703 -0.0730644 -1.56129 0
M  V30 791 H 78.1053 2.37825 -2.20476 0
M  V30 792 H 77.8903 1.37847 -3.6707 0
M  V30 793 H 79.3803 2.34496 -3.45545 0
M  V30 794 N 79.8174 1.5752 -0.0501392 0
M  V30 795 C 81.0654 1.9227 0.622642 0
M  V30 796 C 81.3864 0.929083 1.71444 0
M  V30 797 O 80.6564 -0.0262186 1.95882 0
M  V30 798 H 79.2364 0.709739 0.232981 0
M  V30 799 H 81.8984 1.94628 -0.102898 0
M  V30 800 H 80.9944 2.93479 1.06191 0
M  V30 801 N 81.2955 -0.223234 1.56011 0
M  V30 802 C 82.5445 -0.945912 1.78144 0
M  V30 803 C 82.8575 -1.85567 0.618396 0
M  V30 804 O 84.0635 -2.61688 0.723318 0
M  V30 805 C 82.5195 -1.73216 3.15475 0
M  V30 806 C 82.1275 -0.868619 4.39499 0
M  V30 807 C 83.8715 -2.44615 3.46935 0
M  V30 808 C 81.7785 -1.65212 5.67855 0
M  V30 809 H 80.7085 -0.356929 0.664167 0
M  V30 810 H 83.3595 -0.199845 1.82409 0
M  V30 811 H 81.7415 -2.52107 3.05382 0
M  V30 812 H 82.9155 -0.120366 4.60643 0
M  V30 813 H 81.2305 -0.26683 4.15544 0
M  V30 814 H 83.8275 -3.03732 4.40058 0
M  V30 815 H 84.1705 -3.17417 2.69355 0
M  V30 816 H 84.7035 -1.72715 3.58349 0
M  V30 817 H 81.4425 -0.967407 6.48322 0
M  V30 818 H 80.9625 -2.37503 5.50774 0
M  V30 819 H 82.6415 -2.21322 6.07968 0
M  V30 820 N 82.7736 -1.49793 -0.48987 0
M  V30 821 C 83.9986 -1.63836 -1.27172 0
M  V30 822 C 84.4236 -0.31402 -1.8546 0
M  V30 823 O 83.7816 0.719803 -1.66399 0
M  V30 824 C 83.8296 -2.71797 -2.36978 0
M  V30 825 O 82.9336 -2.31744 -3.41128 0
M  V30 826 H 82.2746 -0.547997 -0.37496 0
M  V30 827 H 84.8046 -1.96053 -0.585191 0
M  V30 828 H 84.8146 -2.94305 -2.82575 0
M  V30 829 H 83.4896 -3.67923 -1.93921 0
M  V30 830 H 82.0666 -2.1961 -3.01373 0
M  V30 831 N 84.2517 0.741722 -1.39055 0
M  V30 832 C 85.6677 1.04638 -1.20512 0
M  V30 833 C 85.8677 2.01405 -0.0620218 0
M  V30 834 O 84.9237 2.45547 0.588457 0
M  V30 835 C 86.2367 1.6151 -2.53643 0
M  V30 836 C 87.7847 1.73623 -2.6043 0
M  V30 837 C 88.2597 2.33906 -3.93767 0
M  V30 838 N 89.7507 2.41323 -3.9537 0
M  V30 839 C 90.4857 2.88888 -4.95309 0
M  V30 840 N 89.9817 3.36401 -6.05645 0
M  V30 841 N 91.7747 2.88037 -4.82692 0
M  V30 842 H 83.9257 0.0998155 -2.12165 0
M  V30 843 H 86.1887 0.106907 -0.941953 0
M  V30 844 H 85.8947 0.978739 -3.37807 0
M  V30 845 H 85.7687 2.60411 -2.72885 0
M  V30 846 H 88.1557 2.36384 -1.76655 0
M  V30 847 H 88.2367 0.733945 -2.45045 0
M  V30 848 H 87.8807 1.71776 -4.7797 0
M  V30 849 H 87.8107 3.34799 -4.06469 0
M  V30 850 H 90.3017 2.07734 -3.15682 0
M  V30 851 H 90.6147 3.71186 -6.77821 0
M  V30 852 H 88.9597 3.34427 -6.09248 0
M  V30 853 H 92.1507 2.50237 -3.95599 0
M  V30 854 H 92.3237 3.24792 -5.60726 0
M  V30 855 N 85.7298 1.2412 0.971189 0
M  V30 856 C 87.1408 1.07236 1.52831 0
M  V30 857 C 87.4918 -0.357352 1.92918 0
M  V30 858 O 86.6168 -1.24528 1.76979 0
M  V30 859 C 87.2118 1.94043 2.77728 0
M  V30 860 C 85.7708 1.81394 3.29808 0
M  V30 861 C 84.9178 1.89189 2.02738 0
M  V30 862 H 87.8688 1.37648 0.789864 0
M  V30 863 H 87.8898 1.47066 3.5093 0
M  V30 864 H 87.4018 2.98093 2.4852 0
M  V30 865 H 85.5028 0.801634 3.63874 0
M  V30 866 H 85.6158 2.65294 3.98944 0
M  V30 867 H 83.9798 1.32877 2.17292 0
M  V30 868 H 84.7628 2.94812 1.759 0
M  V30 869 N 87.2079 -1.17134 1.05439 0
M  V30 870 C 88.4359 -1.91372 0.786414 0
M  V30 871 C 88.8509 -1.76955 -0.658202 0
M  V30 872 O 88.2079 -1.10838 -1.44987 0
M  V30 873 C 88.2589 -3.42356 1.1608 0
M  V30 874 O 87.9799 -3.56332 2.54871 0
M  V30 875 C 89.4809 -4.33663 0.919322 0
M  V30 876 H 86.7009 -0.607118 0.285743 0
M  V30 877 H 89.2449 -1.48525 1.40572 0
M  V30 878 H 87.3999 -3.82939 0.586191 0
M  V30 879 H 87.8139 -4.49896 2.69618 0
M  V30 880 H 89.2879 -5.38099 1.231 0
M  V30 881 H 89.7649 -4.38959 -0.145359 0
M  V30 882 H 90.3709 -3.98796 1.47789 0
M  V30 883 N 88.686 -0.835752 -1.33615 0
M  V30 884 C 89.933 -0.429959 -1.97883 0
M  V30 885 C 90.261 1.01006 -1.66217 0
M  V30 886 O 89.516 1.72047 -0.93265 0
M  V30 887 C 89.815 -0.593925 -3.52431 0
M  V30 888 C 89.481 -2.00158 -4.04039 0
M  V30 889 C 88.143 -2.38662 -4.17844 0
M  V30 890 C 90.495 -2.92117 -4.31644 0
M  V30 891 C 87.823 -3.68435 -4.56588 0
M  V30 892 C 90.175 -4.21368 -4.71838 0
M  V30 893 C 88.839 -4.59833 -4.83849 0
M  V30 894 H 88.109 -0.157333 -0.724104 0
M  V30 895 H 90.756 -1.06217 -1.59343 0
M  V30 896 H 89.061 0.121619 -3.91611 0
M  V30 897 H 90.758 -0.260282 -4.00154 0
M  V30 898 H 87.348 -1.69252 -3.93766 0
M  V30 899 H 91.532 -2.63608 -4.20505 0
M  V30 900 H 86.788 -3.98046 -4.64079 0
M  V30 901 H 90.962 -4.92703 -4.92155 0
M  V30 902 H 88.589 -5.60438 -5.13627 0
M  V30 903 N 90.1641 1.46063 -0.591896 0
M  V30 904 C 91.3941 2.06418 -0.0867676 0
M  V30 905 C 91.8021 1.43975 1.22751 0
M  V30 906 O 91.1451 0.542531 1.75506 0
M  V30 907 C 91.2071 3.59213 0.143725 0
M  V30 908 C 90.8711 4.439 -1.08635 0
M  V30 909 C 91.8681 4.79864 -2.00067 0
M  V30 910 C 89.5531 4.84896 -1.31077 0
M  V30 911 C 91.5471 5.55661 -3.12282 0
M  V30 912 C 89.2341 5.6045 -2.43596 0
M  V30 913 C 90.2321 5.95747 -3.34027 0
M  V30 914 O 89.9201 6.69772 -4.4459 0
M  V30 915 H 89.6521 0.673443 -0.0587447 0
M  V30 916 H 92.2061 1.88539 -0.814994 0
M  V30 917 H 90.4361 3.75433 0.926668 0
M  V30 918 H 92.1251 4.01463 0.5985 0
M  V30 919 H 92.8911 4.48763 -1.83947 0
M  V30 920 H 88.7701 4.56867 -0.61594 0
M  V30 921 H 92.3141 5.8313 -3.82891 0
M  V30 922 H 88.2111 5.90965 -2.59674 0
M  V30 923 H 88.9791 6.88207 -4.43073 0
M  V30 924 N 91.6422 0.330177 1.54103 0
M  V30 925 C 92.8892 -0.270405 2.00686 0
M  V30 926 C 93.2172 -1.51621 1.21825 0
M  V30 927 O 92.4722 -1.93536 0.29025 0
M  V30 928 C 92.7712 -0.643134 3.51566 0
M  V30 929 C 92.4372 0.504251 4.48072 0
M  V30 930 C 91.0992 0.819163 4.74176 0
M  V30 931 C 93.4512 1.27465 5.05373 0
M  V30 932 C 90.7792 1.90708 5.5484 0
M  V30 933 C 93.1312 2.35271 5.87223 0
M  V30 934 C 91.7952 2.67336 6.11627 0
M  V30 935 H 91.0652 -0.0989482 0.734364 0
M  V30 936 H 93.7122 0.455324 1.86008 0
M  V30 937 H 92.0172 -1.44938 3.64006 0
M  V30 938 H 93.7142 -1.11949 3.85056 0
M  V30 939 H 90.3042 0.248733 4.27878 0
M  V30 940 H 94.4882 1.04462 4.85182 0
M  V30 941 H 89.7442 2.15991 5.71977 0
M  V30 942 H 93.9182 2.95405 6.30641 0
M  V30 943 H 91.5452 3.51763 6.73919 0
M  V30 944 N 93.1203 -1.57491 0.0584922 0
M  V30 945 C 94.3503 -1.9701 -0.622134 0
M  V30 946 C 94.7583 -0.935034 -1.6448 0
M  V30 947 O 94.1013 0.0882904 -1.83488 0
M  V30 948 C 94.1633 -3.32794 -1.35972 0
M  V30 949 C 93.8273 -4.54343 -0.492043 0
M  V30 950 C 94.8243 -5.19323 0.244901 0
M  V30 951 C 92.5093 -5.00534 -0.420821 0
M  V30 952 C 94.5033 -6.28835 1.04143 0
M  V30 953 C 92.1903 -6.09921 0.379389 0
M  V30 954 C 93.1883 -6.73933 1.10919 0
M  V30 955 O 92.8763 -7.81216 1.89623 0
M  V30 956 H 92.6083 -0.653127 -0.174359 0
M  V30 957 H 95.1623 -2.05029 0.123418 0
M  V30 958 H 93.3923 -3.21351 -2.15105 0
M  V30 959 H 95.0813 -3.5701 -1.93129 0
M  V30 960 H 95.8473 -4.8459 0.19939 0
M  V30 961 H 91.7263 -4.50496 -0.978474 0
M  V30 962 H 95.2703 -6.7873 1.61157 0
M  V30 963 H 91.1673 -6.44089 0.426512 0
M  V30 964 H 91.9353 -7.98029 1.81913 0
M  V30 965 N 94.5984 0.214957 -1.56127 0
M  V30 966 C 95.8454 0.938372 -1.79446 0
M  V30 967 C 96.1734 1.8407 -0.628378 0
M  V30 968 O 95.4284 1.91837 0.386925 0
M  V30 969 C 95.7274 1.80314 -3.0858 0
M  V30 970 C 95.3934 1.05349 -4.3842 0
M  V30 971 C 94.0554 0.846435 -4.73697 0
M  V30 972 C 96.4074 0.524588 -5.18553 0
M  V30 973 C 93.7354 0.098683 -5.86617 0
M  V30 974 C 96.0874 -0.209853 -6.32252 0
M  V30 975 C 94.7514 -0.428102 -6.66126 0
M  V30 976 H 94.0214 0.343375 -0.656639 0
M  V30 977 H 96.6684 0.206077 -1.90388 0
M  V30 978 H 94.9734 2.6035 -2.92789 0
M  V30 979 H 96.6704 2.36513 -3.23825 0
M  V30 980 H 93.2604 1.22486 -4.10725 0
M  V30 981 H 97.4444 0.672008 -4.91729 0
M  V30 982 H 92.7004 -0.0805753 -6.11347 0
M  V30 983 H 96.8744 -0.627157 -6.9357 0
M  V30 984 H 94.5014 -1.00944 -7.53468 0
M  V30 985 N 96.0765 1.50051 0.48192 0
M  V30 986 C 97.4875 1.5348 1.06305 0
M  V30 987 C 97.8385 0.331997 1.93371 0
M  V30 988 O 96.9635 -0.556256 2.09129 0
M  V30 989 C 97.5585 2.7813 1.93466 0
M  V30 990 C 96.1175 2.84275 2.46707 0
M  V30 991 C 95.2645 2.47637 1.24785 0
M  V30 992 H 98.2155 1.56472 0.264995 0
M  V30 993 H 98.2365 2.59372 2.78399 0
M  V30 994 H 97.7485 3.65654 1.30072 0
M  V30 995 H 95.8495 2.01077 3.13686 0
M  V30 996 H 95.9625 3.8691 2.82555 0
M  V30 997 H 94.3265 1.99835 1.57918 0
M  V30 998 H 95.1095 3.37457 0.630694 0
M  V30 999 N 97.5546 -0.734337 1.39446 0
M  V30 1000 C 98.7796 -1.52866 1.40167 0
M  V30 1001 C 99.2046 -1.881 -0.00171513 0
M  V30 1002 O 98.5626 -1.51957 -0.988879 0
M  V30 1003 C 98.6106 -2.79235 2.28167 0
M  V30 1004 O 97.7146 -3.75185 1.71201 0
M  V30 1005 H 97.0556 -0.461618 0.477289 0
M  V30 1006 H 99.5856 -0.905949 1.8345 0
M  V30 1007 H 99.5956 -3.27963 2.42702 0
M  V30 1008 H 98.2706 -2.52923 3.30156 0
M  V30 1009 H 96.8476 -3.33958 1.65912 0
M  V30 1010 N 99.0327 -1.24633 -0.964593 0
M  V30 1011 C 99.9797 -1.04144 -2.05968 0
M  V30 1012 C 100.95 0.046262 -1.66036 0
M  V30 1013 O 102.135 -0.108972 -1.90489 0
M  V30 1014 C 99.2747 -0.65563 -3.38815 0
M  V30 1015 C 98.3877 -1.81714 -3.91923 0
M  V30 1016 C 97.5227 -1.37662 -5.13052 0
M  V30 1017 C 96.5617 -2.50788 -5.58365 0
M  V30 1018 N 95.6987 -2.07582 -6.70712 0
M  V30 1019 H 100.539 -1.9787 -2.22827 0
M  V30 1020 H 98.0757 -0.9855 -1.09208 0
M  V30 1021 H 100.034 -0.412954 -4.15151 0
M  V30 1022 H 98.6637 0.244627 -3.21872 0
M  V30 1023 H 97.7157 -2.1734 -3.12198 0
M  V30 1024 H 99.0277 -2.66705 -4.21509 0
M  V30 1025 H 98.1817 -1.093 -5.96773 0
M  V30 1026 H 96.9207 -0.497293 -4.85158 0
M  V30 1027 H 95.9257 -2.79906 -4.73215 0
M  V30 1028 H 97.1507 -3.39283 -5.88272 0
M  V30 1029 H 95.0967 -1.22051 -6.44546 0
M  V30 1030 H 95.0137 -2.86125 -6.99763 0
M  V30 1031 H 96.2817 -1.82369 -7.57867 0
M  V30 1032 N 100.511 1.16574 -1.06058 0
M  V30 1033 C 101.421 2.2452 -0.680282 0
M  V30 1034 C 102.437 1.71348 0.302604 0
M  V30 1035 O 103.613 2.00822 0.152513 0
M  V30 1036 C 100.678 3.46629 -0.0700315 0
M  V30 1037 C 99.7388 4.14849 -1.10448 0
M  V30 1038 C 98.9718 5.31129 -0.523256 0
M  V30 1039 O 99.1948 5.66514 0.664709 0
M  V30 1040 O 98.1288 5.88526 -1.26179 0
M  V30 1041 H 101.955 2.59355 -1.58015 0
M  V30 1042 H 99.5398 1.24043 -0.832694 0
M  V30 1043 H 101.422 4.20543 0.268667 0
M  V30 1044 H 100.097 3.13573 0.803353 0
M  V30 1045 H 99.0038 3.42916 -1.49532 0
M  V30 1046 H 100.337 4.51954 -1.94931 0
M  V30 1047 N 101.989 0.842826 1.3317 0
M  V30 1048 C 102.952 0.284065 2.27433 0
M  V30 1049 C 103.952 -0.54948 1.5112 0
M  V30 1050 O 105.142 -0.362699 1.70382 0
M  V30 1051 C 102.274 -0.599384 3.35589 0
M  V30 1052 H 103.467 1.11589 2.78366 0
M  V30 1053 H 101.02 0.616221 1.4364 0
M  V30 1054 H 101.755 -1.45349 2.89904 0
M  V30 1055 H 101.54 -0.00291266 3.921 0
M  V30 1056 H 103.03 -0.983488 4.05854 0
M  V30 1057 N 103.467 -1.45747 0.599634 0
M  V30 1058 C 104.713 -2.02592 0.0918643 0
M  V30 1059 C 105.046 -1.46806 -1.27128 0
M  V30 1060 O 104.321 -0.639658 -1.83681 0
M  V30 1061 C 104.604 -3.60073 0.0443398 0
M  V30 1062 C 104.457 -4.26208 1.43759 0
M  V30 1063 C 105.776 -4.35309 -0.647608 0
M  V30 1064 H 102.895 -0.736175 0.034857 0
M  V30 1065 H 105.537 -1.73694 0.770081 0
M  V30 1066 H 103.687 -3.84823 -0.533224 0
M  V30 1067 H 105.359 -4.12668 2.06162 0
M  V30 1068 H 103.602 -3.84916 2.00056 0
M  V30 1069 H 104.273 -5.35069 1.35665 0
M  V30 1070 H 106.749 -4.15805 -0.156776 0
M  V30 1071 H 105.625 -5.45038 -0.649942 0
M  V30 1072 H 105.886 -4.07598 -1.71219 0
M  V30 1073 N 104.945 -0.338344 -1.53925 0
M  V30 1074 C 105.875 0.51328 -2.27789 0
M  V30 1075 C 106.856 1.107 -1.29149 0
M  V30 1076 O 108.041 1.12937 -1.57984 0
M  V30 1077 C 105.171 1.66697 -3.04679 0
M  V30 1078 C 104.125 1.20183 -4.1078 0
M  V30 1079 C 103.451 2.44363 -4.75595 0
M  V30 1080 C 104.751 0.30605 -5.21403 0
M  V30 1081 H 106.445 -0.102883 -2.99223 0
M  V30 1082 H 103.991 -0.0509219 -1.4391 0
M  V30 1083 H 105.944 2.26915 -3.55088 0
M  V30 1084 H 104.668 2.30995 -2.30887 0
M  V30 1085 H 103.327 0.622499 -3.61276 0
M  V30 1086 H 102.975 3.07057 -3.98403 0
M  V30 1087 H 102.675 2.13925 -5.47275 0
M  V30 1088 H 104.199 3.05317 -5.28786 0
M  V30 1089 H 105.613 0.814929 -5.67478 0
M  V30 1090 H 104.01 0.0937929 -6.00027 0
M  V30 1091 H 105.08 -0.65921 -4.80398 0
M  V30 1092 N 106.423 1.57458 -0.0668435 0
M  V30 1093 C 107.353 2.15468 0.899764 0
M  V30 1094 C 108.334 1.08042 1.31381 0
M  V30 1095 O 109.519 1.36054 1.38574 0
M  V30 1096 C 106.649 2.71232 2.16911 0
M  V30 1097 C 105.603 3.83781 1.89463 0
M  V30 1098 C 104.929 4.26127 3.22986 0
M  V30 1099 C 106.229 5.08238 1.20381 0
M  V30 1100 H 107.923 2.96488 0.416529 0
M  V30 1101 H 105.469 1.4262 0.198908 0
M  V30 1102 H 107.422 3.10458 2.84945 0
M  V30 1103 H 106.146 1.87426 2.67468 0
M  V30 1104 H 104.805 3.45051 1.23836 0
M  V30 1105 H 104.453 3.39249 3.71374 0
M  V30 1106 H 104.153 5.01993 3.05413 0
M  V30 1107 H 105.677 4.67966 3.92225 0
M  V30 1108 H 107.091 5.44811 1.78475 0
M  V30 1109 H 105.488 5.89349 1.13083 0
M  V30 1110 H 106.558 4.84558 0.182153 0
M  V30 1111 N 107.901 -0.206675 1.56239 0
M  V30 1112 C 109.129 -0.945345 1.8404 0
M  V30 1113 C 109.544 -1.77336 0.647885 0
M  V30 1114 O 108.901 -1.78425 -0.383511 0
M  V30 1115 C 108.952 -1.8509 3.10522 0
M  V30 1116 O 108.673 -1.05634 4.25174 0
M  V30 1117 C 110.174 -2.70222 3.51418 0
M  V30 1118 H 107.394 -0.276372 0.61144 0
M  V30 1119 H 109.938 -0.217417 2.03341 0
M  V30 1120 H 108.093 -2.53259 2.93153 0
M  V30 1121 H 108.507 -1.67238 4.97124 0
M  V30 1122 H 109.981 -3.29438 4.42916 0
M  V30 1123 H 110.458 -3.43358 2.73864 0
M  V30 1124 H 111.064 -2.07443 3.71278 0
M  V30 1125 N 109.379 -1.50304 -0.473955 0
M  V30 1126 C 110.309 -1.71886 -1.58042 0
M  V30 1127 C 111.29 -0.567799 -1.60344 0
M  V30 1128 O 112.475 -0.806623 -1.76656 0
M  V30 1129 C 109.605 -1.81036 -2.96384 0
M  V30 1130 C 108.559 -2.962 -3.08949 0
M  V30 1131 C 107.885 -2.9049 -4.48909 0
M  V30 1132 C 109.185 -4.36752 -2.86434 0
M  V30 1133 H 110.879 -2.64527 -1.40234 0
M  V30 1134 H 108.425 -1.27295 -0.673201 0
M  V30 1135 H 110.378 -1.94719 -3.73714 0
M  V30 1136 H 109.102 -0.850147 -3.15341 0
M  V30 1137 H 107.761 -2.82164 -2.3405 0
M  V30 1138 H 107.409 -1.92321 -4.64781 0
M  V30 1139 H 107.109 -3.67802 -4.58253 0
M  V30 1140 H 108.633 -3.06218 -5.28264 0
M  V30 1141 H 110.047 -4.5133 -3.53517 0
M  V30 1142 H 108.444 -5.15493 -3.07225 0
M  V30 1143 H 109.514 -4.49321 -1.82316 0
M  V30 1144 N 110.857 0.726932 -1.39834 0
M  V30 1145 C 111.787 1.85405 -1.41941 0
M  V30 1146 C 112.768 1.67751 -0.281728 0
M  V30 1147 O 113.953 1.8795 -0.488717 0
M  V30 1148 C 111.083 3.23243 -1.2701 0
M  V30 1149 C 110.037 3.55549 -2.38262 0
M  V30 1150 C 109.363 4.9241 -2.08415 0
M  V30 1151 C 110.663 3.577 -3.80589 0
M  V30 1152 H 112.357 1.83899 -2.36266 0
M  V30 1153 H 109.903 0.883349 -1.13723 0
M  V30 1154 H 111.856 4.01775 -1.27103 0
M  V30 1155 H 110.58 3.25296 -0.291564 0
M  V30 1156 H 109.239 2.79351 -2.37399 0
M  V30 1157 H 108.887 4.91052 -1.0898 0
M  V30 1158 H 108.587 5.14992 -2.82943 0
M  V30 1159 H 110.111 5.73289 -2.10171 0
M  V30 1160 H 111.525 4.26293 -3.83337 0
M  V30 1161 H 109.922 3.91804 -4.54543 0
M  V30 1162 H 110.992 2.57328 -4.10987 0
M  V30 1163 N 112.336 1.25143 0.95797 0
M  V30 1164 C 113.613 1.00472 1.67823 0
M  V30 1165 C 113.993 -0.470056 2.058 0
M  V30 1166 O 113.341 -1.44663 1.76875 0
M  V30 1167 C 113.551 1.9372 2.90299 0
M  V30 1168 C 114.899 2.21371 3.62326 0
M  V30 1169 O 115.923 1.91451 3.00375 0
M  V30 1170 O 114.782 2.72231 4.7387 0
M  V30 1171 H 111.876 0.380752 0.734137 0
M  V30 1172 H 114.422 1.36283 1.01119 0
M  V30 1173 H 113.194 2.93316 2.59001 0
M  V30 1174 H 112.817 1.58286 3.64735 0
M  V30 1175 N 113.814 -1.1601 1.06675 0
M  V30 1176 C 115.23 -1.38622 0.790948 0
M  V30 1177 C 115.43 -1.92109 -0.607965 0
M  V30 1178 O 114.486 -2.12239 -1.36787 0
M  V30 1179 C 115.799 -2.36347 1.85905 0
M  V30 1180 C 117.347 -2.50023 1.88301 0
M  V30 1181 C 117.822 -3.51033 2.94176 0
M  V30 1182 N 119.313 -3.58563 2.93235 0
M  V30 1183 C 120.048 -4.36521 3.71803 0
M  V30 1184 N 119.544 -5.17869 4.602 0
M  V30 1185 N 121.337 -4.31541 3.60178 0
M  V30 1186 H 113.488 -0.796294 1.96908 0
M  V30 1187 H 115.751 -0.412597 0.853503 0
M  V30 1188 H 115.457 -2.04147 2.86386 0
M  V30 1189 H 115.331 -3.36042 1.71334 0
M  V30 1190 H 117.718 -2.81524 0.884769 0
M  V30 1191 H 117.799 -1.5035 2.06951 0
M  V30 1192 H 117.443 -3.20268 3.94196 0
M  V30 1193 H 117.373 -4.50445 2.72776 0
M  V30 1194 H 119.864 -3.00496 2.29152 0
M  V30 1195 H 120.177 -5.74578 5.16797 0
M  V30 1196 H 118.522 -5.17199 4.64253 0
M  V30 1197 H 121.713 -3.67051 2.90502 0
M  V30 1198 H 121.886 -4.9205 4.21653 0
M  V30 1199 N 115.292 -0.849877 -1.32721 0
M  V30 1200 C 116.538 -0.451591 -1.97708 0
M  V30 1201 C 116.871 0.989175 -1.6712 0
M  V30 1202 O 116.146 1.69334 -0.956891 0
M  V30 1203 C 116.429 -0.685598 -3.53513 0
M  V30 1204 C 116.282 -2.17444 -3.93749 0
M  V30 1205 C 117.601 -0.138874 -4.39881 0
M  V30 1206 H 114.72 -0.16555 -0.718166 0
M  V30 1207 H 117.362 -1.06742 -1.57182 0
M  V30 1208 H 115.512 -0.161416 -3.88165 0
M  V30 1209 H 117.184 -2.76433 -3.693 0
M  V30 1210 H 115.427 -2.65476 -3.43081 0
M  V30 1211 H 116.098 -2.28888 -5.02309 0
M  V30 1212 H 118.574 -0.587068 -4.11938 0
M  V30 1213 H 117.45 -0.332213 -5.47894 0
M  V30 1214 H 117.711 0.95806 -4.31594 0
M  V30 1215 N 116.77 1.45427 -0.607355 0
M  V30 1216 C 118.016 2.0254 -0.102607 0
M  V30 1217 C 118.349 1.47478 1.26348 0
M  V30 1218 O 117.624 0.64939 1.83339 0
M  V30 1219 C 117.907 3.60044 -0.0634347 0
M  V30 1220 C 117.76 4.2544 -1.46017 0
M  V30 1221 C 119.079 4.35646 0.624514 0
M  V30 1222 H 116.198 0.73598 -0.0387607 0
M  V30 1223 H 118.84 1.73284 -0.779282 0
M  V30 1224 H 116.99 3.85101 0.512808 0
M  V30 1225 H 118.662 4.11569 -2.08347 0
M  V30 1226 H 116.905 3.83849 -2.02094 0
M  V30 1227 H 117.576 5.34342 -1.385 0
M  V30 1228 H 120.052 4.15882 0.134723 0
M  V30 1229 H 118.928 5.45376 0.621028 0
M  V30 1230 H 119.189 4.08501 1.69055 0
M  V30 1231 N 118.248 0.346503 1.53744 0
M  V30 1232 C 119.196 -0.52422 2.26616 0
M  V30 1233 C 120.19 -1.09948 1.28871 0
M  V30 1234 O 121.396 -1.04488 1.46568 0
M  V30 1235 H 117.771 -0.187743 0.728187 0
M  V30 1236 H 119.742 0.11239 2.98188 0
M  V30 1237 C 118.491 -1.66186 3.05414 0
M  V30 1238 H 117.814 -1.22848 3.80458 0
M  V30 1239 H 119.254 -2.24622 3.59612 0
M  V30 1240 C 117.713 -2.59302 2.1509 0
M  V30 1241 O 118.243 -3.61628 1.74895 0
M  V30 1242 N 116.449 -2.28055 1.8011 0
M  V30 1243 H 115.996 -1.44883 2.12994 0
M  V30 1244 H 115.954 -2.90615 1.19958 0
M  V30 1245 N 119.726 -1.57421 0.075193 0
M  V30 1246 C 120.658 -2.09904 -0.920483 0
M  V30 1247 C 121.671 -1.03191 -1.25918 0
M  V30 1248 O 122.86 -1.30695 -1.21577 0
M  V30 1249 C 119.96 -2.54726 -2.23534 0
M  V30 1250 C 119.133 -3.8505 -2.07498 0
M  V30 1251 C 118.192 -4.15929 -3.22319 0
M  V30 1252 O 117.218 -4.85474 -2.9716 0
M  V30 1253 N 118.42 -3.69745 -4.47514 0
M  V30 1254 H 121.185 -2.95954 -0.472359 0
M  V30 1255 H 118.746 -1.61523 -0.110444 0
M  V30 1256 H 120.738 -2.72443 -2.9926 0
M  V30 1257 H 119.308 -1.73795 -2.59835 0
M  V30 1258 H 118.528 -3.76679 -1.16219 0
M  V30 1259 H 119.816 -4.70348 -1.94038 0
M  V30 1260 H 119.214 -3.13569 -4.7084 0
M  V30 1261 H 117.771 -3.92655 -5.20255 0
M  V30 1262 N 121.204 0.198386 -1.56346 0
M  V30 1263 C 122.167 1.22952 -1.93431 0
M  V30 1264 C 123.167 1.38611 -0.815092 0
M  V30 1265 O 124.357 1.36479 -1.08255 0
M  V30 1266 C 121.489 2.59946 -2.20546 0
M  V30 1267 H 122.682 0.912626 -2.85677 0
M  V30 1268 H 120.235 0.43977 -1.49986 0
M  V30 1269 H 120.97 2.96696 -1.30927 0
M  V30 1270 H 120.755 2.49953 -3.02102 0
M  V30 1271 H 122.245 3.3431 -2.50253 0
M  V30 1272 N 122.682 1.50554 0.465978 0
M  V30 1273 C 123.959 1.5232 1.22712 0
M  V30 1274 C 124.339 0.270807 2.09356 0
M  V30 1275 O 123.687 -0.745541 2.15995 0
M  V30 1276 C 123.897 2.82175 2.05374 0
M  V30 1277 C 125.245 3.33033 2.6339 0
M  V30 1278 O 126.269 2.83531 2.15612 0
M  V30 1279 O 125.128 4.19336 3.50456 0
M  V30 1280 H 122.222 0.611183 0.557122 0
M  V30 1281 H 124.768 1.62847 0.477381 0
M  V30 1282 H 123.54 3.64797 1.41558 0
M  V30 1283 H 123.163 2.74675 2.87471 0
M  V30 1284 N 124.16 -0.719506 1.40217 0
M  V30 1285 C 125.093 -1.84298 1.34571 0
M  V30 1286 C 126.071 -1.61149 0.216741 0
M  V30 1287 O 127.255 -1.84212 0.399756 0
M  V30 1288 C 124.382 -3.20568 1.09335 0
M  V30 1289 C 123.428 -3.62551 2.24631 0
M  V30 1290 S 124.261 -3.7012 3.87004 0
M  V30 1291 C 125.417 -5.09154 3.64024 0
M  V30 1292 H 125.65 -1.88807 2.2965 0
M  V30 1293 H 123.183 -0.885901 1.26456 0
M  V30 1294 H 125.141 -3.99246 0.954602 0
M  V30 1295 H 123.802 -3.13696 0.159164 0
M  V30 1296 H 122.995 -4.61483 2.02606 0
M  V30 1297 H 122.597 -2.91119 2.34789 0
M  V30 1298 H 124.889 -5.95955 3.22248 0
M  V30 1299 H 125.832 -5.36213 4.62473 0
M  V30 1300 H 126.24 -4.79562 2.97793 0
M  V30 1301 N 125.638 -1.25649 -0.95132 0
M  V30 1302 C 126.601 -1.06399 -2.03007 0
M  V30 1303 C 127.601 -0.0156794 -1.60792 0
M  V30 1304 O 128.791 -0.25817 -1.72276 0
M  V30 1305 C 125.923 -0.616184 -3.35285 0
M  V30 1306 H 127.116 -2.02164 -2.21517 0
M  V30 1307 H 124.669 -1.08103 -1.12887 0
M  V30 1308 H 125.404 0.343917 -3.22471 0
M  V30 1309 H 125.189 -1.37301 -3.67275 0
M  V30 1310 H 126.679 -0.503032 -4.14559 0
M  V30 1311 N 127.117 1.15442 -1.07289 0
M  V30 1312 C 128.047 2.22312 -0.714107 0
M  V30 1313 C 129.028 1.67467 0.298155 0
M  V30 1314 O 130.213 1.93445 0.171048 0
M  V30 1315 C 127.343 3.47124 -0.110448 0
M  V30 1316 C 126.297 4.14926 -1.04979 0
M  V30 1317 C 125.623 5.33807 -0.308924 0
M  V30 1318 C 126.923 4.64762 -2.38314 0
M  V30 1319 H 128.617 2.5258 -1.6076 0
M  V30 1320 H 126.163 1.21404 -0.77441 0
M  V30 1321 H 128.116 4.21124 0.152482 0
M  V30 1322 H 126.84 3.16187 0.81812 0
M  V30 1323 H 125.499 3.42866 -1.29764 0
M  V30 1324 H 125.147 4.99126 0.623084 0
M  V30 1325 H 124.847 5.80113 -0.935036 0
M  V30 1326 H 126.371 6.10576 -0.0537771 0
M  V30 1327 H 127.785 5.30292 -2.1786 0
M  V30 1328 H 126.182 5.21728 -2.96514 0
M  V30 1329 H 127.252 3.80434 -3.00663 0
M  V30 1330 N 128.595 0.856903 1.32268 0
M  V30 1331 C 129.527 0.260412 2.27716 0
M  V30 1332 C 130.54 -0.569137 1.52528 0
M  V30 1333 O 131.729 -0.39326 1.74114 0
M  V30 1334 C 128.829 -0.650477 3.32599 0
M  V30 1335 C 128.002 0.14372 4.37164 0
M  V30 1336 C 127.061 -0.69328 5.21613 0
M  V30 1337 O 126.087 -0.12599 5.69061 0
M  V30 1338 N 127.289 -2.00761 5.44679 0
M  V30 1339 H 130.054 1.08059 2.79541 0
M  V30 1340 H 127.615 0.717103 1.45152 0
M  V30 1341 H 129.607 -1.21581 3.86005 0
M  V30 1342 H 128.177 -1.37133 2.80915 0
M  V30 1343 H 127.397 0.890486 3.8401 0
M  V30 1344 H 128.685 0.68915 5.04111 0
M  V30 1345 H 128.083 -2.49181 5.07863 0
M  V30 1346 H 126.64 -2.52103 6.01072 0
M  V30 1347 N 130.073 -1.45103 0.615059 0
M  V30 1348 C 131.301 -2.06553 0.11977 0
M  V30 1349 C 131.716 -1.45842 -1.19898 0
M  V30 1350 O 131.073 -0.575325 -1.73194 0
M  V30 1351 C 131.124 -3.61495 -0.018364 0
M  V30 1352 O 130.845 -4.19942 1.24822 0
M  V30 1353 C 132.346 -4.39947 -0.544237 0
M  V30 1354 H 129.566 -0.667096 0.0722739 0
M  V30 1355 H 132.11 -1.8623 0.84491 0
M  V30 1356 H 130.265 -3.81135 -0.693865 0
M  V30 1357 H 130.679 -5.13204 1.0827 0
M  V30 1358 H 132.153 -5.48838 -0.589953 0
M  V30 1359 H 132.63 -4.10255 -1.56805 0
M  V30 1360 H 133.236 -4.25188 0.0974703 0
M  V30 1361 N 131.551 -0.354651 -1.53558 0
M  V30 1362 C 132.481 0.489091 -2.2832 0
M  V30 1363 C 133.462 1.09324 -1.30316 0
M  V30 1364 O 134.647 1.11255 -1.59173 0
M  V30 1365 C 131.777 1.63456 -3.0643 0
M  V30 1366 C 130.731 1.1582 -4.12031 0
M  V30 1367 C 130.057 2.39305 -4.7816 0
M  V30 1368 C 131.357 0.250731 -5.21698 0
M  V30 1369 H 133.051 -0.134614 -2.99097 0
M  V30 1370 H 130.597 -0.0661826 -1.43848 0
M  V30 1371 H 132.55 2.23136 -3.57475 0
M  V30 1372 H 131.274 2.28533 -2.33325 0
M  V30 1373 H 129.933 0.584146 -3.61916 0
M  V30 1374 H 129.581 3.02814 -4.01637 0
M  V30 1375 H 129.281 2.08109 -5.49513 0
M  V30 1376 H 130.805 2.99691 -5.31994 0
M  V30 1377 H 132.219 0.754695 -5.68311 0
M  V30 1378 H 130.616 0.0301468 -6.00092 0
M  V30 1379 H 131.686 -0.710125 -4.79672 0
M  V30 1380 N 133.029 1.57378 -0.0835403 0
M  V30 1381 C 133.992 2.12252 0.864959 0
M  V30 1382 C 134.992 1.04916 1.21858 0
M  V30 1383 O 136.182 1.30853 1.14991 0
M  V30 1384 C 133.314 2.63358 2.16461 0
M  V30 1385 H 134.507 2.97371 0.388676 0
M  V30 1386 H 132.06 1.55423 0.165317 0
M  V30 1387 H 132.795 1.81727 2.686 0
M  V30 1388 H 132.58 3.41826 1.92087 0
M  V30 1389 H 134.07 3.05847 2.84337 0
M  V30 1390 N 134.507 -0.190092 1.56449 0
M  V30 1391 C 135.417 -1.25591 1.98152 0
M  V30 1392 C 136.433 -1.49519 0.889944 0
M  V30 1393 O 137.609 -1.62036 1.19609 0
M  V30 1394 C 134.674 -2.57916 2.3169 0
M  V30 1395 C 133.735 -2.42015 3.5458 0
M  V30 1396 C 132.968 -3.6803 3.8651 0
M  V30 1397 O 133.191 -4.72413 3.1966 0
M  V30 1398 O 132.125 -3.6326 4.79923 0
M  V30 1399 H 135.951 -0.931988 2.89046 0
M  V30 1400 H 133.536 -0.395488 1.4407 0
M  V30 1401 H 135.418 -3.36008 2.54316 0
M  V30 1402 H 134.093 -2.89925 1.43963 0
M  V30 1403 H 133 -1.62017 3.37196 0
M  V30 1404 H 134.333 -2.14937 4.4279 0
M  V30 1405 N 135.985 -1.50799 -0.457987 0
M  V30 1406 C 136.933 -1.71162 -1.575 0
M  V30 1407 C 137.927 -0.577592 -1.59249 0
M  V30 1408 O 139.133 -0.758443 -1.63241 0
M  V30 1409 H 135.508 -0.540468 -0.522875 0
M  V30 1410 H 137.479 -2.64837 -1.37492 0
M  V30 1411 C 136.228 -1.83496 -2.95338 0
M  V30 1412 H 135.551 -2.70153 -2.94716 0
M  V30 1413 H 136.991 -2.01765 -3.72917 0
M  V30 1414 C 135.45 -0.589694 -3.31699 0
M  V30 1415 O 135.98 0.265163 -4.00824 0
M  V30 1416 N 134.186 -0.439845 -2.87252 0
M  V30 1417 H 133.733 -1.13655 -2.31172 0
M  V30 1418 H 133.691 0.392159 -3.11945 0
M  V30 1419 N 137.463 0.71206 -1.40597 0
M  V30 1420 C 138.874 1.29135 -1.34837 0
M  V30 1421 C 139.225 1.96186 -0.0235395 0
M  V30 1422 O 138.35 1.97768 0.878444 0
M  V30 1423 C 138.945 2.34827 -2.44217 0
M  V30 1424 C 137.504 2.88371 -2.41907 0
M  V30 1425 C 136.651 1.62202 -2.24913 0
M  V30 1426 H 139.602 0.507944 -1.50352 0
M  V30 1427 H 139.623 3.15749 -2.12327 0
M  V30 1428 H 139.135 1.85996 -3.40627 0
M  V30 1429 H 137.236 3.41422 -1.49204 0
M  V30 1430 H 137.349 3.39925 -3.37621 0
M  V30 1431 H 135.713 1.874 -1.72492 0
M  V30 1432 H 136.496 1.15391 -3.23326 0
M  V30 1433 N 138.941 1.26152 0.944643 0
M  V30 1434 C 139.904 1.07474 2.0244 0
M  V30 1435 C 140.904 0.0242064 1.60782 0
M  V30 1436 O 142.094 0.267302 1.72137 0
M  V30 1437 C 139.226 0.633956 3.34953 0
M  V30 1438 H 140.419 2.03336 2.20442 0
M  V30 1439 H 137.972 1.087 1.12312 0
M  V30 1440 H 138.707 -0.326811 3.22649 0
M  V30 1441 H 138.492 1.39247 3.66542 0
M  V30 1442 H 139.982 0.52501 4.14287 0
M  V30 1443 N 140.419 -1.14872 1.07899 0
M  V30 1444 C 141.696 -1.81928 0.71845 0
M  V30 1445 C 142.076 -1.95417 -0.798455 0
M  V30 1446 O 141.424 -1.50997 -1.715 0
M  V30 1447 C 141.634 -3.17937 1.43935 0
M  V30 1448 C 142.982 -3.93501 1.59506 0
M  V30 1449 O 144.006 -3.27509 1.40058 0
M  V30 1450 O 142.865 -5.1183 1.91551 0
M  V30 1451 H 139.959 -0.78628 0.256305 0
M  V30 1452 H 142.505 -1.21934 1.18026 0
M  V30 1453 H 141.277 -3.0325 2.47295 0
M  V30 1454 H 140.9 -3.85619 0.968687 0
M  V30 1455 N 141.898 -0.863906 -1.31812 0
M  V30 1456 C 143.126 -0.486111 -2.01108 0
M  V30 1457 C 143.541 0.919755 -1.64882 0
M  V30 1458 O 142.898 1.60162 -0.874893 0
M  V30 1459 C 142.949 -0.626435 -3.56031 0
M  V30 1460 O 142.67 -1.97693 -3.90959 0
M  V30 1461 C 144.171 -0.248857 -4.42601 0
M  V30 1462 H 141.391 -0.190052 -0.643523 0
M  V30 1463 H 143.935 -1.1634 -1.68182 0
M  V30 1464 H 142.09 0.00322717 -3.874 0
M  V30 1465 H 142.504 -1.98034 -4.85678 0
M  V30 1466 H 143.978 -0.398016 -5.50563 0
M  V30 1467 H 144.455 0.811489 -4.31638 0
M  V30 1468 H 145.061 -0.853971 -4.16638 0
M  V30 1469 N 143.376 1.44774 -0.622745 0
M  V30 1470 C 144.653 1.95522 -0.0551974 0
M  V30 1471 C 145.033 1.5649 1.41683 0
M  V30 1472 O 144.381 0.834848 2.12703 0
M  V30 1473 C 144.591 3.4796 -0.269242 0
M  V30 1474 C 145.939 4.24306 -0.158014 0
M  V30 1475 O 146.963 3.55637 -0.200162 0
M  V30 1476 O 145.822 5.46471 -0.0558693 0
M  V30 1477 H 142.916 0.826556 0.0271015 0
M  V30 1478 H 145.462 1.54866 -0.693864 0
M  V30 1479 H 144.234 3.6939 -1.29099 0
M  V30 1480 H 143.857 3.95543 0.403966 0
M  V30 1481 N 144.854 0.36279 1.53368 0
M  V30 1482 C 146.27 0.0116182 1.59596 0
M  V30 1483 C 146.47 -1.47012 1.37803 0
M  V30 1484 O 145.526 -2.23136 1.18181 0
M  V30 1485 C 146.839 0.465052 2.97082 0
M  V30 1486 C 148.387 0.419033 3.10182 0
M  V30 1487 C 148.862 0.848235 4.50077 0
M  V30 1488 N 150.353 0.803183 4.56183 0
M  V30 1489 C 151.088 1.107 5.62613 0
M  V30 1490 N 150.584 1.47996 6.76808 0
M  V30 1491 N 152.377 1.02998 5.52583 0
M  V30 1492 H 144.528 1.32775 1.65785 0
M  V30 1493 H 146.791 0.542518 0.777417 0
M  V30 1494 H 146.497 1.49892 3.18159 0
M  V30 1495 H 146.371 -0.149786 3.76902 0
M  V30 1496 H 148.758 -0.605696 2.88817 0
M  V30 1497 H 148.839 1.06933 2.32377 0
M  V30 1498 H 148.483 1.87107 4.7218 0
M  V30 1499 H 148.413 0.175218 5.26308 0
M  V30 1500 H 150.904 0.52838 3.74188 0
M  V30 1501 H 151.217 1.69613 7.53957 0
M  V30 1502 H 149.562 1.51859 6.78206 0
M  V30 1503 H 152.753 0.737817 4.62249 0
M  V30 1504 H 152.926 1.2701 6.35431 0
M  V30 1505 N 146.332 -1.57332 0.0918853 0
M  V30 1506 C 147.242 -2.17368 -0.882505 0
M  V30 1507 C 148.258 -1.14226 -1.31257 0
M  V30 1508 O 149.434 -1.46582 -1.38115 0
M  V30 1509 C 146.499 -2.73962 -2.12476 0
M  V30 1510 C 145.56 -3.92048 -1.7492 0
M  V30 1511 C 144.793 -4.45933 -2.93223 0
M  V30 1512 O 145.016 -3.98764 -4.07852 0
M  V30 1513 O 143.95 -5.36999 -2.71875 0
M  V30 1514 H 147.776 -3.01031 -0.40172 0
M  V30 1515 H 145.361 -1.48813 -0.132291 0
M  V30 1516 H 147.243 -3.10147 -2.85283 0
M  V30 1517 H 145.918 -1.93347 -2.59613 0
M  V30 1518 H 144.825 -3.6068 -0.993025 0
M  V30 1519 H 146.158 -4.74017 -1.32548 0
M  V30 1520 N 147.81 0.181792 -1.56548 0
M  V30 1521 C 148.758 1.24461 -1.965 0
M  V30 1522 C 149.752 1.464 -0.852261 0
M  V30 1523 O 150.958 1.47103 -1.03733 0
M  V30 1524 H 147.333 0.418138 -0.625031 0
M  V30 1525 H 149.304 0.880714 -2.85107 0
M  V30 1526 C 148.053 2.57891 -2.33212 0
M  V30 1527 H 147.376 2.41829 -3.18369 0
M  V30 1528 H 148.816 3.3097 -2.65019 0
M  V30 1529 C 147.275 3.15871 -1.17163 0
M  V30 1530 O 147.805 3.9913 -0.453708 0
M  V30 1531 N 146.011 2.74808 -0.944936 0
M  V30 1532 H 145.558 2.07205 -1.53049 0
M  V30 1533 H 145.516 3.13939 -0.170286 0
M  V30 1534 N 149.288 1.51039 0.449983 0
M  V30 1535 C 150.221 1.66105 1.56474 0
M  V30 1536 C 151.199 0.508776 1.54435 0
M  V30 1537 O 152.383 0.731005 1.73749 0
M  V30 1538 C 149.51 1.66304 2.9506 0
M  V30 1539 C 148.556 2.87346 3.15174 0
M  V30 1540 S 149.389 4.4835 2.92818 0
M  V30 1541 C 150.545 4.51274 4.33708 0
M  V30 1542 H 150.778 2.60397 1.43459 0
M  V30 1543 H 148.311 1.40565 0.638805 0
M  V30 1544 H 150.269 1.67103 3.74949 0
M  V30 1545 H 148.93 0.732108 3.05449 0
M  V30 1546 H 148.123 2.83849 4.16468 0
M  V30 1547 H 147.725 2.84223 2.43091 0
M  V30 1548 H 150.017 4.26136 5.26701 0
M  V30 1549 H 150.96 5.53017 4.42242 0
M  V30 1550 H 151.368 3.80738 4.16772 0
M  V30 1551 N 150.766 -0.704594 1.40972 0
M  V30 1552 C 152.012 -1.46546 1.41053 0
M  V30 1553 C 152.367 -1.92393 0.0159714 0
M  V30 1554 O 151.66 -1.66017 -0.956506 0
M  V30 1555 C 151.854 -2.698 2.34399 0
M  V30 1556 C 151.683 -2.36008 3.82793 0
M  V30 1557 C 150.453 -2.26812 4.51536 0
M  V30 1558 C 152.651 -1.99565 4.74003 0
M  V30 1559 N 150.633 -1.8581 5.85105 0
M  V30 1560 C 152.004 -1.69251 5.96451 0
M  V30 1561 C 154.059 -1.86296 4.61734 0
M  V30 1562 C 152.762 -1.27003 7.07999 0
M  V30 1563 C 154.788 -1.45452 5.73234 0
M  V30 1564 C 154.15 -1.16043 6.94776 0
M  V30 1565 H 150.249 -0.533896 0.571383 0
M  V30 1566 H 152.833 -0.816061 1.76773 0
M  V30 1567 H 151.004 -3.32473 2.00789 0
M  V30 1568 H 152.736 -3.36214 2.25261 0
M  V30 1569 H 149.491 -2.44913 4.05357 0
M  V30 1570 H 149.915 -1.67817 6.55871 0
M  V30 1571 H 154.557 -2.0769 3.68273 0
M  V30 1572 H 152.275 -1.04353 8.01334 0
M  V30 1573 H 155.861 -1.35748 5.65742 0
M  V30 1574 H 154.741 -0.84915 7.79589 0
M  V30 1575 N 152.244 -1.26651 -0.937939 0
M  V30 1576 C 153.66 -1.03834 -1.21205 0
M  V30 1577 C 153.86 0.234502 -2.00131 0
M  V30 1578 O 152.916 0.942767 -2.3424 0
M  V30 1579 C 154.229 -2.27167 -1.97017 0
M  V30 1580 C 155.777 -2.32101 -2.09996 0
M  V30 1581 C 156.252 -3.55136 -2.8921 0
M  V30 1582 N 157.743 -3.55632 -2.96783 0
M  V30 1583 C 158.478 -4.475 -3.58512 0
M  V30 1584 N 157.974 -5.4966 -4.21717 0
M  V30 1585 N 159.767 -4.35145 -3.55816 0
M  V30 1586 H 151.918 -2.08398 -0.410391 0
M  V30 1587 H 154.181 -0.916031 -0.244114 0
M  V30 1588 H 153.887 -3.19765 -1.46434 0
M  V30 1589 H 153.761 -2.31672 -2.97671 0
M  V30 1590 H 156.148 -1.40015 -2.59769 0
M  V30 1591 H 156.229 -2.31605 -1.08594 0
M  V30 1592 H 155.873 -4.47553 -2.40123 0
M  V30 1593 H 155.803 -3.5288 -3.90875 0
M  V30 1594 H 158.294 -2.81743 -2.51852 0
M  V30 1595 H 158.607 -6.15943 -4.66727 0
M  V30 1596 H 156.952 -5.53514 -4.20294 0
M  V30 1597 H 160.143 -3.5455 -3.05634 0
M  V30 1598 H 160.316 -5.06934 -4.03636 0
M  V30 1599 N 153.722 1.14298 -1.08507 0
M  V30 1600 C 154.95 1.89219 -0.836876 0
M  V30 1601 C 155.365 1.78638 0.611054 0
M  V30 1602 O 154.722 1.14643 1.41998 0
M  V30 1603 C 154.773 3.39158 -1.25116 0
M  V30 1604 O 154.494 3.49449 -2.64229 0
M  V30 1605 C 155.995 4.31073 -1.03398 0
M  V30 1606 H 153.215 0.599328 -0.301739 0
M  V30 1607 H 155.759 1.44746 -1.44461 0
M  V30 1608 H 153.914 3.81251 -0.687514 0
M  V30 1609 H 154.328 4.42589 -2.81452 0
M  V30 1610 H 155.802 5.34646 -1.37323 0
M  V30 1611 H 156.279 4.3919 0.0289259 0
M  V30 1612 H 156.885 3.94738 -1.58311 0
M  V30 1613 N 155.201 0.870884 1.31352 0
M  V30 1614 C 156.449 0.48132 1.96285 0
M  V30 1615 C 156.77 -0.969813 1.69173 0
M  V30 1616 O 156.04 -1.67998 1.00764 0
M  V30 1617 H 154.62 0.175002 0.726212 0
M  V30 1618 H 157.282 1.11087 1.60143 0
M  V30 1619 H 156.378 0.639825 3.05471 0
M  V30 1620 N 156.679 -1.44442 0.630414 0
M  V30 1621 C 157.928 -2.01267 0.132073 0
M  V30 1622 C 158.241 -1.50172 -1.25331 0
M  V30 1623 O 159.447 -1.9912 -1.84562 0
M  V30 1624 C 157.903 -3.59422 0.185362 0
M  V30 1625 C 157.511 -4.19514 1.57201 0
M  V30 1626 C 159.255 -4.23724 -0.256553 0
M  V30 1627 C 157.162 -5.69891 1.58045 0
M  V30 1628 H 156.092 -0.752619 0.0456092 0
M  V30 1629 H 158.743 -1.65666 0.789106 0
M  V30 1630 H 157.125 -3.92318 -0.538759 0
M  V30 1631 H 158.299 -3.98156 2.31966 0
M  V30 1632 H 156.614 -3.67496 1.95795 0
M  V30 1633 H 159.211 -5.34019 -0.269767 0
M  V30 1634 H 159.554 -3.96013 -1.28372 0
M  V30 1635 H 160.087 -3.95629 0.41505 0
M  V30 1636 H 156.826 -6.02336 2.58597 0
M  V30 1637 H 156.346 -5.93373 0.875725 0
M  V30 1638 H 158.025 -6.33515 1.31408 0
M  V30 1639 N 158.157 -0.370918 -1.53173 0
M  V30 1640 C 159.105 0.488101 -2.27421 0
M  V30 1641 C 160.099 1.07884 -1.30604 0
M  V30 1642 O 161.305 1.02143 -1.48212 0
M  V30 1643 H 157.68 0.176134 -0.731082 0
M  V30 1644 H 159.651 -0.159815 -2.97972 0
M  V30 1645 C 158.4 1.61306 -3.08019 0
M  V30 1646 H 157.723 1.1678 -3.82364 0
M  V30 1647 H 159.163 2.18872 -3.63141 0
M  V30 1648 C 157.622 2.55848 -2.19188 0
M  V30 1649 O 158.152 3.58799 -1.80626 0
M  V30 1650 N 156.358 2.2516 -1.83715 0
M  V30 1651 H 155.905 1.41476 -2.15273 0
M  V30 1652 H 155.863 2.8867 -1.24567 0
M  V30 1653 N 159.635 1.57281 -0.100228 0
M  V30 1654 C 160.881 1.94826 0.563101 0
M  V30 1655 C 161.214 0.982475 1.67514 0
M  V30 1656 O 160.489 0.0164069 1.94493 0
M  V30 1657 C 160.772 3.42453 1.11346 0
M  V30 1658 C 160.625 4.498 0.00612081 0
M  V30 1659 C 161.944 3.91506 2.01024 0
M  V30 1660 H 159.063 0.708428 0.203221 0
M  V30 1661 H 161.705 1.8922 -0.171979 0
M  V30 1662 H 159.855 3.47361 1.7399 0
M  V30 1663 H 161.527 4.57 -0.628357 0
M  V30 1664 H 159.77 4.28756 -0.659581 0
M  V30 1665 H 160.441 5.50306 0.432109 0
M  V30 1666 H 162.917 3.88784 1.48278 0
M  V30 1667 H 161.793 4.95358 2.36457 0
M  V30 1668 H 162.054 3.31099 2.92961 0
M  V30 1669 N 161.113 -0.173488 1.56642 0
M  V30 1670 C 162.36 -0.890465 1.81871 0
M  V30 1671 C 162.688 -1.82339 0.67696 0
M  V30 1672 O 161.943 -1.92795 -0.335926 0
M  V30 1673 C 162.242 -1.72069 3.13252 0
M  V30 1674 C 161.908 -0.936878 4.41059 0
M  V30 1675 C 160.57 -0.720545 4.75775 0
M  V30 1676 C 162.922 -0.386919 5.19762 0
M  V30 1677 C 160.25 0.0568829 5.86672 0
M  V30 1678 C 162.602 0.37741 6.31473 0
M  V30 1679 C 161.266 0.604563 6.64757 0
M  V30 1680 H 160.536 -0.325844 0.665512 0
M  V30 1681 H 163.183 -0.155527 1.90867 0
M  V30 1682 H 161.488 -2.52496 2.99588 0
M  V30 1683 H 163.185 -2.27844 3.29982 0
M  V30 1684 H 159.775 -1.11553 4.13828 0
M  V30 1685 H 163.959 -0.541398 4.93338 0
M  V30 1686 H 159.215 0.242635 6.10918 0
M  V30 1687 H 163.389 0.810825 6.91664 0
M  V30 1688 H 161.016 1.20885 7.50527 0
M  V30 1689 N 162.591 -1.51276 -0.441967 0
M  V30 1690 C 163.838 -1.63715 -1.19179 0
M  V30 1691 C 164.166 -0.351175 -1.91303 0
M  V30 1692 O 163.421 0.664524 -1.84072 0
M  V30 1693 C 163.72 -2.78746 -2.23686 0
M  V30 1694 C 163.386 -4.18189 -1.68607 0
M  V30 1695 C 162.048 -4.56125 -1.53308 0
M  V30 1696 C 164.4 -5.05222 -1.28062 0
M  V30 1697 C 161.728 -5.78804 -0.959317 0
M  V30 1698 C 164.08 -6.28476 -0.721162 0
M  V30 1699 C 162.744 -6.65188 -0.55504 0
M  V30 1700 H 162.014 -0.599076 -0.436106 0
M  V30 1701 H 164.661 -1.85296 -0.48351 0
M  V30 1702 H 162.966 -2.51369 -3.00535 0
M  V30 1703 H 164.663 -2.8557 -2.81515 0
M  V30 1704 H 161.253 -3.88277 -1.8149 0
M  V30 1705 H 165.437 -4.76524 -1.38704 0
M  V30 1706 H 160.693 -6.05899 -0.81833 0
M  V30 1707 H 164.867 -6.95259 -0.398458 0
M  V30 1708 H 162.494 -7.60123 -0.108311 0
M  V30 1709 N 164.069 0.697108 -1.41344 0
M  V30 1710 C 164.979 1.84088 -1.45427 0
M  V30 1711 C 165.995 1.70545 -0.34501 0
M  V30 1712 O 167.171 1.92488 -0.592492 0
M  V30 1713 C 164.236 3.20056 -1.33286 0
M  V30 1714 C 163.297 3.45718 -2.54514 0
M  V30 1715 C 162.53 4.75199 -2.42944 0
M  V30 1716 O 162.753 5.51579 -1.45318 0
M  V30 1717 O 161.687 5.0161 -3.32672 0
M  V30 1718 H 165.513 1.836 -2.41919 0
M  V30 1719 H 163.098 0.849966 -1.22866 0
M  V30 1720 H 164.98 4.01236 -1.28794 0
M  V30 1721 H 163.655 3.2123 -0.39909 0
M  V30 1722 H 162.562 2.64474 -2.64583 0
M  V30 1723 H 163.895 3.49356 -3.46715 0
M  V30 1724 N 165.547 1.27147 0.931209 0
M  V30 1725 C 166.775 1.16082 1.71267 0
M  V30 1726 C 167.19 -0.282772 1.8667 0
M  V30 1727 O 166.547 -1.19283 1.38122 0
M  V30 1728 C 166.598 1.8358 3.11417 0
M  V30 1729 O 166.319 3.22299 2.96741 0
M  V30 1730 C 167.82 1.78597 4.05732 0
M  V30 1731 H 165.04 0.403758 0.535929 0
M  V30 1732 H 167.584 1.67953 1.16671 0
M  V30 1733 H 165.739 1.35623 3.62885 0
M  V30 1734 H 166.153 3.55851 3.85319 0
M  V30 1735 H 167.627 2.30444 5.01597 0
M  V30 1736 H 168.104 0.754564 4.3267 0
M  V30 1737 H 168.71 2.26152 3.60188 0
M  V30 1738 N 167.025 -1.13721 1.09112 0
M  V30 1739 C 168.272 -1.84924 0.825192 0
M  V30 1740 C 168.6 -1.83347 -0.649151 0
M  V30 1741 O 167.855 -1.26449 -1.49362 0
M  V30 1742 C 168.154 -3.32861 1.30146 0
M  V30 1743 C 167.82 -3.54621 2.78486 0
M  V30 1744 C 166.482 -3.60268 3.18999 0
M  V30 1745 C 168.834 -3.62855 3.74146 0
M  V30 1746 C 166.162 -3.71679 4.53951 0
M  V30 1747 C 168.514 -3.75793 5.08883 0
M  V30 1748 C 167.178 -3.79692 5.4899 0
M  V30 1749 H 166.448 -0.676684 0.301959 0
M  V30 1750 H 169.095 -1.3428 1.36533 0
M  V30 1751 H 167.4 -3.85835 0.681064 0
M  V30 1752 H 169.097 -3.86395 1.07236 0
M  V30 1753 H 165.687 -3.50879 2.46134 0
M  V30 1754 H 169.871 -3.57775 3.43963 0
M  V30 1755 H 165.127 -3.72963 4.84467 0
M  V30 1756 H 169.301 -3.81107 5.82864 0
M  V30 1757 H 166.928 -3.88287 6.53558 0
M  V30 1758 N 168.503 -0.877838 -1.30888 0
M  V30 1759 C 169.751 -0.491723 -1.96027 0
M  V30 1760 C 170.072 0.960827 -1.69685 0
M  V30 1761 O 169.342 1.67462 -1.01654 0
M  V30 1762 H 167.922 -0.17885 -0.725273 0
M  V30 1763 H 170.584 -1.11935 -1.59551 0
M  V30 1764 H 169.68 -0.656016 -3.05128 0
M  V30 1765 N 169.982 1.44106 -0.638065 0
M  V30 1766 C 171.207 2.0685 -0.150916 0
M  V30 1767 C 171.632 1.47417 1.16833 0
M  V30 1768 O 170.99 0.578264 1.71831 0
M  V30 1769 C 171.038 3.60555 -0.05708 0
M  V30 1770 O 170.142 4.00465 0.984972 0
M  V30 1771 H 169.483 0.658151 -0.0879399 0
M  V30 1772 H 172.013 1.84865 -0.876707 0
M  V30 1773 H 172.023 4.07789 0.131232 0
M  V30 1774 H 170.698 4.03193 -1.02021 0
M  V30 1775 H 169.275 3.64849 0.770672 0
M  V30 1776 N 171.46 0.379036 1.52974 0
M  V30 1777 C 172.41 -0.477772 2.22938 0
M  V30 1778 C 173.394 -1.03792 1.22948 0
M  V30 1779 O 174.586 -0.965725 1.48333 0
M  V30 1780 C 171.715 -1.60994 3.03209 0
M  V30 1781 C 170.801 -1.06203 4.10587 0
M  V30 1782 N 171.192 -0.238214 5.05239 0
M  V30 1783 C 169.49 -1.33554 4.25534 0
M  V30 1784 C 170.191 0.0633235 5.81666 0
M  V30 1785 N 169.167 -0.537901 5.40932 0
M  V30 1786 H 172.969 0.158295 2.93473 0
M  V30 1787 H 170.483 0.187778 1.61311 0
M  V30 1788 H 172.48 -2.23607 3.5186 0
M  V30 1789 H 171.14 -2.24893 2.34207 0
M  V30 1790 H 172.151 0.123695 5.17752 0
M  V30 1791 H 168.828 -1.97632 3.6776 0
M  V30 1792 H 170.218 0.730161 6.67921 0
M  V30 1793 N 172.938 -1.57226 0.108567 0
M  V30 1794 C 173.885 -2.14756 -0.845481 0
M  V30 1795 C 174.855 -1.06971 -1.27068 0
M  V30 1796 O 176.04 -1.34827 -1.35005 0
M  V30 1797 C 173.18 -2.74298 -2.09415 0
M  V30 1798 C 172.293 -3.96358 -1.71826 0
M  V30 1799 C 171.428 -4.44021 -2.9158 0
M  V30 1800 C 170.467 -5.58637 -2.50181 0
M  V30 1801 N 169.604 -6.01091 -3.62814 0
M  V30 1802 H 174.444 -2.95961 -0.348035 0
M  V30 1803 H 171.981 -1.46226 -0.160106 0
M  V30 1804 H 173.939 -3.06945 -2.82561 0
M  V30 1805 H 172.569 -1.95801 -2.56636 0
M  V30 1806 H 171.621 -3.69939 -0.885947 0
M  V30 1807 H 172.933 -4.79504 -1.37394 0
M  V30 1808 H 172.087 -4.78522 -3.72963 0
M  V30 1809 H 170.826 -3.59803 -3.29231 0
M  V30 1810 H 169.831 -5.23751 -1.67228 0
M  V30 1811 H 171.056 -6.44613 -2.13659 0
M  V30 1812 H 169.002 -5.19817 -4.00158 0
M  V30 1813 H 168.919 -6.79066 -3.32273 0
M  V30 1814 H 170.187 -6.40227 -4.44668 0
M  V30 1815 N 174.416 0.165178 -1.56732 0
M  V30 1816 C 175.379 1.18822 -1.95995 0
M  V30 1817 C 176.379 1.3685 -0.84431 0
M  V30 1818 O 177.569 1.34152 -1.11126 0
M  V30 1819 C 174.701 2.5521 -2.26011 0
M  V30 1820 H 175.894 0.851825 -2.87548 0
M  V30 1821 H 173.447 0.407857 -1.50885 0
M  V30 1822 H 174.182 2.93852 -1.37191 0
M  V30 1823 H 173.967 2.43489 -3.07336 0
M  V30 1824 H 175.457 3.28927 -2.57288 0
M  V30 1825 N 175.894 1.51508 0.433938 0
M  V30 1826 C 177.14 1.64588 1.18484 0
M  V30 1827 C 177.473 0.362666 1.90784 0
M  V30 1828 O 176.748 -0.637892 1.83742 0
M  V30 1829 C 177.031 2.85149 2.19913 0
M  V30 1830 C 176.884 4.23456 1.51674 0
M  V30 1831 C 178.203 3.01227 3.20858 0
M  V30 1832 H 175.322 0.598994 0.429389 0
M  V30 1833 H 177.964 1.84002 0.473647 0
M  V30 1834 H 176.114 2.68729 2.80566 0
M  V30 1835 H 177.786 4.51552 0.943322 0
M  V30 1836 H 176.029 4.25998 0.819035 0
M  V30 1837 H 176.7 5.03812 2.2556 0
M  V30 1838 H 179.176 3.16382 2.70263 0
M  V30 1839 H 178.052 3.87141 3.89118 0
M  V30 1840 H 178.313 2.13447 3.8716 0
M  V30 1841 N 177.372 -0.689602 1.41712 0
M  V30 1842 C 178.6 -1.47827 1.44758 0
M  V30 1843 C 179.015 -1.88721 0.0545703 0
M  V30 1844 O 178.372 -1.57176 -0.927463 0
M  V30 1845 C 178.423 -2.73698 2.3616 0
M  V30 1846 O 178.144 -2.34524 3.7004 0
M  V30 1847 C 179.645 -3.67389 2.48072 0
M  V30 1848 H 176.865 -0.455357 0.49284 0
M  V30 1849 H 179.409 -0.848574 1.86063 0
M  V30 1850 H 177.564 -3.32891 1.98148 0
M  V30 1851 H 177.978 -3.15701 4.18847 0
M  V30 1852 H 179.452 -4.52475 3.16181 0
M  V30 1853 H 179.929 -4.12284 1.51388 0
M  V30 1854 H 180.535 -3.14097 2.86746 0
M  V30 1855 N 178.85 -1.27639 -0.924453 0
M  V30 1856 C 180.266 -1.05113 -1.20097 0
M  V30 1857 C 180.466 0.213262 -2.00368 0
M  V30 1858 O 179.522 0.91787 -2.35226 0
M  V30 1859 C 180.835 -2.29244 -1.94596 0
M  V30 1860 C 182.383 -2.34315 -2.07522 0
M  V30 1861 C 182.858 -3.58183 -2.85427 0
M  V30 1862 N 184.349 -3.5876 -2.92994 0
M  V30 1863 C 185.084 -4.51277 -3.53746 0
M  V30 1864 N 184.58 -5.54102 -4.15863 0
M  V30 1865 N 186.373 -4.38894 -3.51181 0
M  V30 1866 H 178.524 -2.08821 -0.388264 0
M  V30 1867 H 180.787 -0.918568 -0.234385 0
M  V30 1868 H 180.493 -3.21301 -1.43034 0
M  V30 1869 H 180.367 -2.34816 -2.95197 0
M  V30 1870 H 182.754 -1.42762 -2.58269 0
M  V30 1871 H 182.835 -2.32744 -1.06131 0
M  V30 1872 H 182.479 -4.50074 -2.35363 0
M  V30 1873 H 182.409 -3.57006 -3.8711 0
M  V30 1874 H 184.9 -2.84398 -2.4885 0
M  V30 1875 H 185.213 -6.20859 -4.60168 0
M  V30 1876 H 183.558 -5.57941 -4.144 0
M  V30 1877 H 186.749 -3.57772 -3.01856 0
M  V30 1878 H 186.922 -5.11186 -3.98237 0
M  V30 1879 N 180.328 1.1314 -1.09713 0
M  V30 1880 C 181.291 2.16831 -0.742751 0
M  V30 1881 C 182.291 1.59159 0.229129 0
M  V30 1882 O 183.481 1.74199 0.00693237 0
M  V30 1883 C 180.613 3.40756 -0.0989168 0
M  V30 1884 H 181.806 2.49695 -1.66109 0
M  V30 1885 H 179.359 1.2802 -0.896699 0
M  V30 1886 H 180.094 3.13485 0.830514 0
M  V30 1887 H 179.879 3.83888 -0.798265 0
M  V30 1888 H 181.369 4.17386 0.133524 0
M  V30 1889 N 181.806 0.884767 1.30421 0
M  V30 1890 C 183.054 0.502112 1.95763 0
M  V30 1891 C 183.375 -0.951815 1.70192 0
M  V30 1892 O 182.645 -1.6692 1.0254 0
M  V30 1893 H 181.225 0.182694 0.724315 0
M  V30 1894 H 183.887 1.1278 1.58955 0
M  V30 1895 H 182.983 0.672188 3.04775 0
M  V30 1896 N 183.284 -1.43765 0.645699 0
M  V30 1897 C 184.216 -2.29027 -0.0890605 0
M  V30 1898 C 185.229 -1.42093 -0.794563 0
M  V30 1899 O 186.418 -1.66104 -0.653575 0
M  V30 1900 C 183.518 -3.18831 -1.14891 0
M  V30 1901 C 182.691 -4.34261 -0.523043 0
M  V30 1902 C 181.75 -5.04994 -1.47878 0
M  V30 1903 O 180.776 -5.6052 -0.990277 0
M  V30 1904 N 181.978 -5.07795 -2.81291 0
M  V30 1905 H 184.743 -2.92727 0.64272 0
M  V30 1906 H 182.304 -1.54373 0.487924 0
M  V30 1907 H 184.296 -3.63015 -1.78892 0
M  V30 1908 H 182.866 -2.56782 -1.78275 0
M  V30 1909 H 182.086 -3.93088 0.295896 0
M  V30 1910 H 183.374 -5.08728 -0.0858147 0
M  V30 1911 H 182.772 -4.64042 -3.23546 0
M  V30 1912 H 181.329 -5.55721 -3.40614 0
M  V30 1913 N 184.763 -0.387143 -1.52771 0
M  V30 1914 C 185.726 0.436939 -2.24997 0
M  V30 1915 C 186.726 0.991991 -1.26555 0
M  V30 1916 O 187.916 0.874335 -1.50669 0
M  V30 1917 C 185.048 1.61281 -3.00335 0
M  V30 1918 H 186.241 -0.195365 -2.99263 0
M  V30 1919 H 183.794 -0.139218 -1.55679 0
M  V30 1920 H 184.529 2.2826 -2.30364 0
M  V30 1921 H 184.314 1.22154 -3.72587 0
M  V30 1922 H 185.804 2.19629 -3.5518 0
M  V30 1923 N 186.241 1.57166 -0.116904 0
M  V30 1924 C 187.204 2.14039 0.819742 0
M  V30 1925 C 188.204 1.07477 1.19605 0
M  V30 1926 O 189.394 1.33263 1.1219 0
M  V30 1927 C 186.526 2.67891 2.10826 0
M  V30 1928 H 187.719 2.98128 0.325511 0
M  V30 1929 H 185.272 1.55739 0.132312 0
M  V30 1930 H 186.007 1.87384 2.64685 0
M  V30 1931 H 185.792 3.45823 1.84793 0
M  V30 1932 H 187.282 3.11809 2.77785 0
M  V30 1933 N 187.719 -0.156864 1.56817 0
M  V30 1934 C 189.135 -0.50916 1.5126 0
M  V30 1935 C 189.335 -1.83897 0.823658 0
M  V30 1936 O 188.391 -2.49469 0.390055 0
M  V30 1937 C 189.704 -0.52857 2.96018 0
M  V30 1938 C 191.252 -0.614771 3.06903 0
M  V30 1939 C 191.727 -0.664938 4.53147 0
M  V30 1940 N 193.218 -0.727433 4.57452 0
M  V30 1941 C 193.953 -0.787067 5.67973 0
M  V30 1942 N 193.449 -0.806649 6.88088 0
M  V30 1943 N 195.242 -0.827195 5.5598 0
M  V30 1944 H 187.393 0.714935 2.00006 0
M  V30 1945 H 189.656 0.259526 0.911784 0
M  V30 1946 H 189.362 0.380154 3.49639 0
M  V30 1947 H 189.236 -1.36998 3.51442 0
M  V30 1948 H 191.623 -1.51392 2.53307 0
M  V30 1949 H 191.704 0.253597 2.5454 0
M  V30 1950 H 191.348 0.230011 5.07379 0
M  V30 1951 H 191.278 -1.54966 5.03282 0
M  V30 1952 H 193.769 -0.719998 3.70978 0
M  V30 1953 H 194.082 -0.853727 7.6807 0
M  V30 1954 H 192.427 -0.774687 6.90669 0
M  V30 1955 H 195.618 -0.808998 4.61056 0
M  V30 1956 H 195.791 -0.870206 6.4213 0
M  V30 1957 N 189.197 -1.51736 -0.425897 0
M  V30 1958 C 190.16 -1.73271 -1.50032 0
M  V30 1959 C 191.16 -0.602639 -1.4908 0
M  V30 1960 O 192.35 -0.87033 -1.509 0
M  V30 1961 C 189.482 -1.79969 -2.89523 0
M  V30 1962 H 190.675 -2.69172 -1.32237 0
M  V30 1963 H 188.228 -1.41899 -0.65532 0
M  V30 1964 H 188.963 -0.859241 -3.1271 0
M  V30 1965 H 188.748 -2.62109 -2.91619 0
M  V30 1966 H 190.238 -1.9843 -3.67444 0
M  V30 1967 N 190.675 0.682077 -1.42076 0
M  V30 1968 C 191.903 1.47057 -1.4554 0
M  V30 1969 C 192.318 1.8869 -0.0645779 0
M  V30 1970 O 191.675 1.57666 0.919115 0
M  V30 1971 C 191.726 2.72442 -2.37609 0
M  V30 1972 O 191.447 2.32559 -3.71279 0
M  V30 1973 C 192.948 3.66069 -2.50017 0
M  V30 1974 H 190.168 0.452737 -0.495248 0
M  V30 1975 H 192.712 0.838695 -1.8651 0
M  V30 1976 H 190.867 3.31835 -1.9991 0
M  V30 1977 H 191.281 3.13475 -4.20516 0
M  V30 1978 H 192.755 4.50792 -3.18576 0
M  V30 1979 H 193.232 4.11476 -1.53572 0
M  V30 1980 H 193.838 3.12572 -2.88407 0
M  V30 1981 N 192.153 1.28127 0.917671 0
M  V30 1982 C 193.378 1.18007 1.70555 0
M  V30 1983 C 193.803 -0.258257 1.86319 0
M  V30 1984 O 193.161 -1.1869 1.37049 0
M  V30 1985 C 193.209 1.87948 3.07746 0
M  V30 1986 O 192.313 1.18427 3.9503 0
M  V30 1987 H 191.654 0.409867 0.522403 0
M  V30 1988 H 194.184 1.69379 1.1477 0
M  V30 1989 H 194.194 1.95701 3.58001 0
M  V30 1990 H 192.869 2.92573 2.95591 0
M  V30 1991 H 191.446 1.18811 3.53466 0
M  V30 1992 N 193.631 -1.12557 1.10312 0
M  V30 1993 C 194.877 -1.84311 0.846011 0
M  V30 1994 C 195.21 -1.83805 -0.626859 0
M  V30 1995 O 194.485 -1.28268 -1.46211 0
M  V30 1996 C 194.768 -3.32048 1.39341 0
M  V30 1997 C 194.621 -3.41016 2.93305 0
M  V30 1998 C 195.94 -4.27764 1.03468 0
M  V30 1999 H 193.059 -0.669192 0.30879 0
M  V30 2000 H 195.701 -1.32057 1.36605 0
M  V30 2001 H 193.851 -3.76678 0.951087 0
M  V30 2002 H 195.523 -3.05031 3.46055 0
M  V30 2003 H 193.766 -2.81603 3.29973 0
M  V30 2004 H 194.437 -4.44948 3.26689 0
M  V30 2005 H 196.913 -3.91253 1.41633 0
M  V30 2006 H 195.789 -5.29549 1.44463 0
M  V30 2007 H 196.05 -4.42064 -0.0560404 0
M  V30 2008 N 195.109 -0.891671 -1.2995 0
M  V30 2009 C 196.019 -0.367691 -2.31701 0
M  V30 2010 C 197.035 0.533486 -1.6562 0
M  V30 2011 O 198.211 0.424997 -1.96865 0
M  V30 2012 C 195.276 0.403406 -3.44345 0
M  V30 2013 C 194.337 -0.528328 -4.26037 0
M  V30 2014 C 193.57 0.206063 -5.33302 0
M  V30 2015 O 193.793 1.43119 -5.52153 0
M  V30 2016 O 192.727 -0.447281 -6.00236 0
M  V30 2017 H 196.553 -1.21163 -2.78484 0
M  V30 2018 H 194.138 -0.655725 -1.34241 0
M  V30 2019 H 196.02 0.839753 -4.12948 0
M  V30 2020 H 194.695 1.22354 -2.99685 0
M  V30 2021 H 193.602 -1.01362 -3.60106 0
M  V30 2022 H 194.935 -1.31465 -4.74318 0
M  V30 2023 N 196.587 1.43421 -0.653314 0
M  V30 2024 C 197.833 2.02111 -0.166992 0
M  V30 2025 C 198.166 1.51423 1.21592 0
M  V30 2026 O 197.441 0.707389 1.8118 0
M  V30 2027 C 197.724 3.5966 -0.177948 0
M  V30 2028 C 197.577 4.20579 -1.59478 0
M  V30 2029 C 198.896 4.37413 0.4856 0
M  V30 2030 H 196.015 0.734374 -0.0621557 0
M  V30 2031 H 198.657 1.70717 -0.834016 0
M  V30 2032 H 196.807 3.86537 0.390032 0
M  V30 2033 H 198.479 4.04732 -2.21336 0
M  V30 2034 H 196.722 3.77226 -2.14204 0
M  V30 2035 H 197.393 5.29665 -1.5543 0
M  V30 2036 H 199.869 4.161 0.00234528 0
M  V30 2037 H 198.745 5.47075 0.447207 0
M  V30 2038 H 199.006 4.13672 1.55974 0
M  V30 2039 N 198.065 0.39524 1.52563 0
M  V30 2040 C 199.028 -0.425001 2.25225 0
M  V30 2041 C 200.028 -0.985266 1.27079 0
M  V30 2042 O 201.218 -0.866332 1.5113 0
M  V30 2043 C 198.35 -1.59686 3.01186 0
M  V30 2044 H 199.543 0.211233 2.99155 0
M  V30 2045 H 197.096 0.147472 1.55603 0
M  V30 2046 H 197.831 -2.27035 2.31572 0
M  V30 2047 H 197.616 -1.20176 3.73229 0
M  V30 2048 H 199.106 -2.17743 3.5634 0
M  V30 2049 N 199.544 -1.57102 0.125237 0
M  V30 2050 C 200.454 -2.19191 -0.8362 0
M  V30 2051 C 201.47 -1.16985 -1.28805 0
M  V30 2052 O 202.646 -1.49479 -1.34974 0
M  V30 2053 C 199.711 -2.78407 -2.06617 0
M  V30 2054 C 198.772 -3.9567 -1.66565 0
M  V30 2055 C 198.005 -4.52052 -2.83698 0
M  V30 2056 O 198.228 -4.07326 -3.99302 0
M  V30 2057 O 197.162 -5.42645 -2.60423 0
M  V30 2058 H 200.988 -3.01816 -0.337776 0
M  V30 2059 H 198.573 -1.4906 -0.100695 0
M  V30 2060 H 200.455 -3.16129 -2.7864 0
M  V30 2061 H 199.13 -1.9881 -2.55453 0
M  V30 2062 H 198.037 -3.62705 -0.916296 0
M  V30 2063 H 199.37 -4.76722 -1.22464 0
M  V30 2064 N 201.022 0.148545 -1.56898 0
M  V30 2065 C 201.952 1.18524 -2.01182 0
M  V30 2066 C 202.933 1.4489 -0.891123 0
M  V30 2067 O 204.118 1.55836 -1.15882 0
M  V30 2068 C 201.248 2.51879 -2.39112 0
M  V30 2069 C 200.202 2.40038 -3.54353 0
M  V30 2070 C 199.528 3.78089 -3.78091 0
M  V30 2071 C 200.828 1.88577 -4.87069 0
M  V30 2072 H 202.522 0.817029 -2.88036 0
M  V30 2073 H 200.068 0.391575 -1.38574 0
M  V30 2074 H 202.021 3.24627 -2.68692 0
M  V30 2075 H 200.745 2.90532 -1.49193 0
M  V30 2076 H 199.404 1.69742 -3.24936 0
M  V30 2077 H 199.052 4.14175 -2.85426 0
M  V30 2078 H 198.752 3.71028 -4.55645 0
M  V30 2079 H 200.276 4.52387 -4.10095 0
M  V30 2080 H 201.69 2.51117 -5.15377 0
M  V30 2081 H 200.087 1.9241 -5.68417 0
M  V30 2082 H 201.157 0.84136 -4.77545 0
M  V30 2083 N 202.5 1.5196 0.417844 0
M  V30 2084 C 203.746 1.66793 1.16411 0
M  V30 2085 C 204.101 0.388758 1.88432 0
M  V30 2086 O 203.394 -0.616409 1.81414 0
M  V30 2087 C 203.588 2.82269 2.19223 0
M  V30 2088 C 203.417 4.21293 1.57297 0
M  V30 2089 C 202.187 4.86948 1.34944 0
M  V30 2090 C 204.385 5.03704 1.03858 0
M  V30 2091 N 202.367 6.1003 0.688195 0
M  V30 2092 C 203.738 6.1795 0.503742 0
M  V30 2093 C 205.793 4.89095 0.932203 0
M  V30 2094 C 204.496 7.19188 -0.127034 0
M  V30 2095 C 206.522 5.90559 0.315293 0
M  V30 2096 C 205.884 7.0409 -0.208906 0
M  V30 2097 H 201.983 0.66407 0.412959 0
M  V30 2098 H 204.567 1.89242 0.457772 0
M  V30 2099 H 202.738 2.61451 2.87225 0
M  V30 2100 H 204.47 2.86183 2.86149 0
M  V30 2101 H 201.225 4.45156 1.61657 0
M  V30 2102 H 201.649 6.75964 0.374449 0
M  V30 2103 H 206.291 4.01557 1.32332 0
M  V30 2104 H 204.009 8.06359 -0.530231 0
M  V30 2105 H 207.595 5.81327 0.234625 0
M  V30 2106 H 206.475 7.81257 -0.67875 0
M  V30 2107 N 203.978 -0.674533 1.42435 0
M  V30 2108 C 205.203 -1.46784 1.46524 0
M  V30 2109 C 205.628 -1.87938 0.078066 0
M  V30 2110 O 204.986 -1.56014 -0.92354 0
M  V30 2111 C 205.034 -2.69307 2.39805 0
M  V30 2112 O 204.138 -3.67587 1.86959 0
M  V30 2113 H 203.479 -0.440959 0.496439 0
M  V30 2114 H 206.009 -0.827326 1.87127 0
M  V30 2115 H 206.019 -3.17374 2.56393 0
M  V30 2116 H 204.694 -2.38692 3.40586 0
M  V30 2117 H 203.271 -3.2662 1.79927 0
M  V30 2118 N 205.456 -1.28612 -0.910864 0
M  V30 2119 C 206.684 -1.18792 -1.69399 0
M  V30 2120 C 207.099 0.253039 -1.87097 0
M  V30 2121 O 206.456 1.17071 -1.40003 0
M  V30 2122 C 206.507 -1.88511 -3.08457 0
M  V30 2123 O 206.228 -3.26979 -2.91576 0
M  V30 2124 C 207.729 -1.85029 -4.02839 0
M  V30 2125 H 204.949 -0.412233 -0.529438 0
M  V30 2126 H 207.493 -1.69788 -1.13984 0
M  V30 2127 H 205.648 -1.41379 -3.60681 0
M  V30 2128 H 206.062 -3.61936 -3.79608 0
M  V30 2129 H 207.536 -2.38395 -4.97867 0
M  V30 2130 H 208.013 -0.823303 -4.31414 0
M  V30 2131 H 208.619 -2.31853 -3.56545 0
M  V30 2132 N 206.934 1.1197 -1.10907 0
M  V30 2133 C 208.181 1.83588 -0.854507 0
M  V30 2134 C 208.509 1.84357 0.6199 0
M  V30 2135 O 207.764 1.28809 1.47332 0
M  V30 2136 C 208.063 3.30749 -1.35425 0
M  V30 2137 C 207.729 3.50146 -2.84093 0
M  V30 2138 C 206.391 3.55148 -3.2469 0
M  V30 2139 C 208.743 3.56857 -3.79872 0
M  V30 2140 C 206.071 3.6441 -4.59806 0
M  V30 2141 C 208.423 3.6765 -5.14797 0
M  V30 2142 C 207.087 3.7091 -5.54961 0
M  V30 2143 H 206.357 0.671795 -0.312686 0
M  V30 2144 H 209.004 1.32091 -1.38652 0
M  V30 2145 H 207.309 3.84703 -0.742361 0
M  V30 2146 H 209.006 3.8464 -1.1337 0
M  V30 2147 H 205.596 3.46919 -2.51685 0
M  V30 2148 H 209.78 3.52258 -3.49611 0
M  V30 2149 H 205.036 3.65208 -4.9034 0
M  V30 2150 H 209.21 3.71786 -5.88853 0
M  V30 2151 H 206.837 3.7784 -6.59652 0
M  V30 2152 N 208.412 0.89855 1.29475 0
M  V30 2153 C 209.345 0.319981 2.25945 0
M  V30 2154 C 210.323 -0.567189 1.52387 0
M  V30 2155 O 211.507 -0.514254 1.8135 0
M  V30 2156 C 208.634 -0.544013 3.34303 0
M  V30 2157 C 207.68 0.275682 4.25608 0
M  V30 2158 S 208.513 1.67272 5.08704 0
M  V30 2159 C 209.669 0.815621 6.20563 0
M  V30 2160 H 209.902 1.13767 2.74671 0
M  V30 2161 H 207.435 0.69882 1.3768 0
M  V30 2162 H 209.393 -1.03673 3.97193 0
M  V30 2163 H 208.054 -1.33593 2.84274 0
M  V30 2164 H 207.247 -0.384263 5.02533 0
M  V30 2165 H 206.849 0.701496 3.67362 0
M  V30 2166 H 209.141 0.0385042 6.77489 0
M  V30 2167 H 210.084 1.55691 6.90772 0
M  V30 2168 H 210.492 0.370516 5.63283 0
M  V30 2169 N 209.89 -1.43072 0.660911 0
M  V30 2170 C 210.822 -2.29108 -0.0647641 0
M  V30 2171 C 211.835 -1.42928 -0.779448 0
M  V30 2172 O 213.024 -1.66788 -0.635921 0
M  V30 2173 C 210.124 -3.20032 -1.11503 0
M  V30 2174 C 209.297 -4.34792 -0.476955 0
M  V30 2175 C 208.356 -5.06534 -1.42513 0
M  V30 2176 O 207.382 -5.61538 -0.930771 0
M  V30 2177 N 208.584 -5.1075 -2.75889 0
M  V30 2178 H 211.349 -2.92029 0.673731 0
M  V30 2179 H 208.91 -1.53846 0.50427 0
M  V30 2180 H 210.902 -3.64892 -1.75032 0
M  V30 2181 H 209.472 -2.58658 -1.75541 0
M  V30 2182 H 208.692 -3.92752 0.337572 0
M  V30 2183 H 209.98 -5.0879 -0.0318525 0
M  V30 2184 H 209.378 -4.67447 -3.18606 0
M  V30 2185 H 207.935 -5.59302 -3.347 0
M  V30 2186 N 211.368 -0.403325 -1.52352 0
M  V30 2187 C 212.315 0.425011 -2.26853 0
M  V30 2188 C 213.285 1.04598 -1.29029 0
M  V30 2189 O 214.47 1.07135 -1.57882 0
M  V30 2190 C 211.61 1.53888 -3.08889 0
M  V30 2191 C 210.723 0.939396 -4.21663 0
M  V30 2192 C 209.858 2.02547 -4.91068 0
M  V30 2193 C 208.897 1.40263 -5.95813 0
M  V30 2194 N 208.034 2.4286 -6.58759 0
M  V30 2195 H 212.874 -0.21674 -2.97211 0
M  V30 2196 H 210.411 -0.118722 -1.4662 0
M  V30 2197 H 212.369 2.19558 -3.54753 0
M  V30 2198 H 210.999 2.15074 -2.40714 0
M  V30 2199 H 210.051 0.171898 -3.80011 0
M  V30 2200 H 211.363 0.44436 -4.96817 0
M  V30 2201 H 210.517 2.75958 -5.40308 0
M  V30 2202 H 209.256 2.55415 -4.15469 0
M  V30 2203 H 208.261 0.653833 -5.45898 0
M  V30 2204 H 209.486 0.881719 -6.73352 0
M  V30 2205 H 207.432 2.94871 -5.85992 0
M  V30 2206 H 207.349 1.98152 -7.2957 0
M  V30 2207 H 208.617 3.15858 -7.12639 0
M  V30 2208 N 212.846 1.57033 -0.133567 0
M  V30 2209 C 214.092 1.96764 0.515326 0
M  V30 2210 C 214.447 1.01653 1.63353 0
M  V30 2211 O 213.74 0.0491374 1.91537 0
M  V30 2212 C 213.934 3.40674 1.08057 0
M  V30 2213 C 213.763 4.49696 0.0186522 0
M  V30 2214 C 212.533 5.03567 -0.418174 0
M  V30 2215 C 214.731 5.08536 -0.767809 0
M  V30 2216 N 212.713 5.9618 -1.46434 0
M  V30 2217 C 214.084 5.97231 -1.6648 0
M  V30 2218 C 216.139 4.9115 -0.817087 0
M  V30 2219 C 214.842 6.70401 -2.60681 0
M  V30 2220 C 216.868 5.65012 -1.74687 0
M  V30 2221 C 216.23 6.53403 -2.63141 0
M  V30 2222 H 212.329 0.765919 0.157771 0
M  V30 2223 H 214.913 1.93395 -0.22506 0
M  V30 2224 H 213.084 3.44662 1.79061 0
M  V30 2225 H 214.816 3.67495 1.69497 0
M  V30 2226 H 211.571 4.73594 -0.0229803 0
M  V30 2227 H 211.995 6.47191 -1.98678 0
M  V30 2228 H 216.637 4.22543 -0.147326 0
M  V30 2229 H 214.355 7.38245 -3.28664 0
M  V30 2230 H 217.941 5.53559 -1.79063 0
M  V30 2231 H 216.821 7.09556 -3.33917 0
M  V30 2232 N 214.325 -0.140222 1.56975 0
M  V30 2233 C 215.574 -0.850152 1.82908 0
M  V30 2234 C 215.887 -1.82028 0.715892 0
M  V30 2235 O 217.093 -2.57485 0.861016 0
M  V30 2236 C 215.549 -1.5625 3.24213 0
M  V30 2237 C 215.157 -0.63443 4.43485 0
M  V30 2238 C 216.901 -2.25881 3.59413 0
M  V30 2239 C 214.808 -1.34879 5.75814 0
M  V30 2240 H 213.738 -0.321221 0.682153 0
M  V30 2241 H 216.389 -0.102874 1.83211 0
M  V30 2242 H 214.771 -2.35565 3.18316 0
M  V30 2243 H 215.945 0.12398 4.60633 0
M  V30 2244 H 214.26 -0.0461836 4.16374 0
M  V30 2245 H 216.857 -2.79978 4.5554 0
M  V30 2246 H 217.2 -3.02693 2.85802 0
M  V30 2247 H 217.733 -1.53477 3.67001 0
M  V30 2248 H 214.472 -0.622385 6.52539 0
M  V30 2249 H 213.992 -2.07974 5.6259 0
M  V30 2250 H 215.671 -1.88784 6.18845 0
M  V30 2251 N 215.803 -1.52179 -0.40978 0
M  V30 2252 C 216.766 -1.74853 -1.48186 0
M  V30 2253 C 217.766 -0.618417 -1.48433 0
M  V30 2254 O 218.956 -0.886286 -1.49969 0
M  V30 2255 C 216.088 -1.8303 -2.87598 0
M  V30 2256 H 217.281 -2.70559 -1.29374 0
M  V30 2257 H 214.834 -1.42586 -0.640233 0
M  V30 2258 H 215.569 -0.89236 -3.11781 0
M  V30 2259 H 215.354 -2.65187 -2.88822 0
M  V30 2260 H 216.844 -2.02316 -3.65319 0
M  V30 2261 N 217.281 0.66697 -1.42791 0
M  V30 2262 C 218.511 1.45294 -1.46878 0
M  V30 2263 C 218.919 1.89027 -0.0809861 0
M  V30 2264 O 218.262 1.59219 0.916246 0
M  V30 2265 C 218.324 2.72908 -2.34012 0
M  V30 2266 C 217.988 2.51203 -3.81767 0
M  V30 2267 C 218.985 2.15302 -4.73224 0
M  V30 2268 C 216.67 2.65954 -4.26115 0
M  V30 2269 C 218.664 1.94431 -6.07022 0
M  V30 2270 C 216.351 2.44699 -5.59969 0
M  V30 2271 C 217.349 2.08992 -6.5024 0
M  V30 2272 O 217.037 1.87948 -7.81621 0
M  V30 2273 H 216.769 0.453306 -0.501487 0
M  V30 2274 H 219.323 0.826232 -1.88049 0
M  V30 2275 H 217.553 3.38089 -1.87703 0
M  V30 2276 H 219.242 3.34816 -2.29462 0
M  V30 2277 H 220.008 2.03495 -4.40244 0
M  V30 2278 H 215.887 2.92724 -3.56137 0
M  V30 2279 H 219.431 1.66484 -6.77443 0
M  V30 2280 H 215.328 2.56105 -5.9252 0
M  V30 2281 H 216.096 2.02483 -7.93059 0
M  V30 2282 N 218.759 1.29093 0.90403 0
M  V30 2283 C 219.987 1.19689 1.68766 0
M  V30 2284 C 220.402 -0.243113 1.87228 0
M  V30 2285 O 219.759 -1.16326 1.40621 0
M  V30 2286 C 219.81 1.90144 3.07453 0
M  V30 2287 O 219.531 3.2852 2.89838 0
M  V30 2288 C 221.032 1.87162 4.01852 0
M  V30 2289 H 218.252 0.415035 0.527244 0
M  V30 2290 H 220.796 1.7039 1.13082 0
M  V30 2291 H 218.951 1.43289 3.59926 0
M  V30 2292 H 219.365 3.63944 3.77684 0
M  V30 2293 H 220.839 2.41032 4.96596 0
M  V30 2294 H 221.316 0.84617 4.30972 0
M  V30 2295 H 221.922 2.33741 3.5531 0
M  V30 2296 N 220.237 -1.11381 1.11499 0
M  V30 2297 C 221.2 -2.15622 0.777153 0
M  V30 2298 C 222.2 -1.59504 -0.203779 0
M  V30 2299 O 223.39 -1.74188 0.020782 0
M  V30 2300 C 220.522 -3.40556 0.153116 0
M  V30 2301 H 221.715 -2.47021 1.70061 0
M  V30 2302 H 219.268 -1.26577 0.916952 0
M  V30 2303 H 220.003 -3.14767 -0.780536 0
M  V30 2304 H 219.788 -3.8257 0.859238 0
M  V30 2305 H 221.278 -4.17546 -0.0671044 0
M  V30 2306 N 221.715 -0.905404 -1.28997 0
M  V30 2307 C 222.678 -0.392253 -2.25819 0
M  V30 2308 C 223.678 0.476753 -1.5357 0
M  V30 2309 O 224.868 0.280994 -1.71919 0
M  V30 2310 C 222 0.438588 -3.38067 0
M  V30 2311 H 223.193 -1.24743 -2.72725 0
M  V30 2312 H 220.746 -0.684051 -1.40536 0
M  V30 2313 H 221.481 1.31352 -2.96508 0
M  V30 2314 H 221.266 -0.184167 -3.91667 0
M  V30 2315 H 222.756 0.78873 -4.10084 0
M  V30 2316 N 223.193 1.4272 -0.668489 0
M  V30 2317 C 224.439 2.01923 -0.188419 0
M  V30 2318 C 224.772 1.52704 1.19979 0
M  V30 2319 O 224.047 0.726566 1.8042 0
M  V30 2320 C 224.33 3.59451 -0.216085 0
M  V30 2321 C 224.183 4.18864 -1.6393 0
M  V30 2322 C 225.502 4.37903 0.439179 0
M  V30 2323 H 222.621 0.733674 -0.0699412 0
M  V30 2324 H 225.263 1.69822 -0.852076 0
M  V30 2325 H 223.413 3.86929 0.349012 0
M  V30 2326 H 225.085 4.02362 -2.25616 0
M  V30 2327 H 223.328 3.74933 -2.18193 0
M  V30 2328 H 223.999 5.27987 -1.61039 0
M  V30 2329 H 226.475 4.16079 -0.0417878 0
M  V30 2330 H 225.351 5.47519 0.389157 0
M  V30 2331 H 225.612 4.15303 1.51577 0
M  V30 2332 N 224.671 0.411399 1.52136 0
M  V30 2333 C 225.92 -0.165009 2.01024 0
M  V30 2334 C 226.233 -1.4603 1.30133 0
M  V30 2335 O 227.439 -2.1181 1.69849 0
M  V30 2336 C 225.895 -0.344618 3.58246 0
M  V30 2337 C 225.503 0.938716 4.38055 0
M  V30 2338 C 227.247 -0.876195 4.15359 0
M  V30 2339 C 225.154 0.726172 5.86925 0
M  V30 2340 H 224.084 -0.0654407 0.751155 0
M  V30 2341 H 226.735 0.537192 1.75461 0
M  V30 2342 H 225.117 -1.10921 3.80148 0
M  V30 2343 H 226.291 1.70963 4.27912 0
M  V30 2344 H 224.606 1.39688 3.92271 0
M  V30 2345 H 227.203 -1.05128 5.24263 0
M  V30 2346 H 227.546 -1.85152 3.7286 0
M  V30 2347 H 228.079 -0.170607 3.97434 0
M  V30 2348 H 224.818 1.67312 6.33788 0
M  V30 2349 H 224.338 -0.00540283 5.998 0
M  V30 2350 H 226.017 0.369231 6.45946 0
M  V30 2351 N 226.149 -1.5696 0.141893 0
M  V30 2352 C 227.426 -1.87553 -0.555281 0
M  V30 2353 C 227.806 -1.04699 -1.83306 0
M  V30 2354 O 227.154 -0.132346 -2.28116 0
M  V30 2355 C 227.364 -3.39093 -0.825664 0
M  V30 2356 C 228.712 -4.08199 -1.16869 0
M  V30 2357 O 229.736 -3.44242 -0.915185 0
M  V30 2358 O 228.595 -5.21139 -1.6455 0
M  V30 2359 H 225.689 -0.777188 -0.282679 0
M  V30 2360 H 228.235 -1.68763 0.17812 0
M  V30 2361 H 227.007 -3.91221 0.0788633 0
M  V30 2362 H 226.63 -3.63393 -1.61343 0
M  V30 2363 N 227.627 0.131896 -1.57047 0
M  V30 2364 C 228.59 1.14638 -1.98471 0
M  V30 2365 C 229.59 1.35029 -0.873148 0
M  V30 2366 O 230.78 1.31764 -1.13946 0
M  V30 2367 C 227.912 2.50358 -2.31373 0
M  V30 2368 H 229.105 0.79064 -2.8929 0
M  V30 2369 H 226.658 0.375761 -1.51716 0
M  V30 2370 H 227.393 2.90876 -1.43393 0
M  V30 2371 H 227.178 2.36915 -3.12432 0
M  V30 2372 H 228.668 3.23395 -2.64207 0
M  V30 2373 N 229.106 1.52395 0.401703 0
M  V30 2374 C 230.016 1.7917 1.51444 0
M  V30 2375 C 231.032 0.677691 1.6026 0
M  V30 2376 O 232.208 0.963909 1.76835 0
M  V30 2377 C 229.273 1.94347 2.87107 0
M  V30 2378 C 228.334 3.18257 2.88116 0
M  V30 2379 C 227.567 3.32701 4.17308 0
M  V30 2380 O 227.79 2.52238 5.11598 0
M  V30 2381 O 226.724 4.25891 4.25324 0
M  V30 2382 H 230.55 2.73633 1.31752 0
M  V30 2383 H 228.135 1.3733 0.588296 0
M  V30 2384 H 230.017 2.06109 3.67555 0
M  V30 2385 H 228.692 1.03073 3.06851 0
M  V30 2386 H 227.599 3.11947 2.06494 0
M  V30 2387 H 228.932 4.09336 2.73322 0
M  V30 2388 N 230.584 -0.659388 1.43143 0
M  V30 2389 C 232 -0.974337 1.26407 0
M  V30 2390 C 232.2 -2.007 0.179341 0
M  V30 2391 O 231.256 -2.4856 -0.444295 0
M  V30 2392 C 232.569 -1.46447 2.62628 0
M  V30 2393 C 234.117 -1.58144 2.7011 0
M  V30 2394 C 234.592 -2.1055 4.06734 0
M  V30 2395 N 236.083 -2.17861 4.08767 0
M  V30 2396 C 236.818 -2.59519 5.1131 0
M  V30 2397 N 236.314 -3.00518 6.24228 0
M  V30 2398 N 238.107 -2.59404 4.98664 0
M  V30 2399 H 230.258 0.0240528 2.12386 0
M  V30 2400 H 232.521 -0.0518065 0.946583 0
M  V30 2401 H 232.227 -0.780123 3.42939 0
M  V30 2402 H 232.101 -2.44058 2.87603 0
M  V30 2403 H 234.488 -2.25682 1.90136 0
M  V30 2404 H 234.569 -0.589828 2.48907 0
M  V30 2405 H 234.213 -1.43616 4.87172 0
M  V30 2406 H 234.143 -3.10531 4.25298 0
M  V30 2407 H 236.634 -1.88975 3.27257 0
M  V30 2408 H 236.947 -3.31036 6.98309 0
M  V30 2409 H 235.292 -2.98337 6.2771 0
M  V30 2410 H 238.483 -2.26747 4.09516 0
M  V30 2411 H 238.656 -2.91548 5.78709 0
M  V30 2412 N 232.062 -1.29571 -0.897171 0
M  V30 2413 C 233.339 -1.08365 -1.62839 0
M  V30 2414 C 233.719 0.371331 -2.07808 0
M  V30 2415 O 233.067 1.3606 -1.83576 0
M  V30 2416 C 233.277 -2.0735 -2.80726 0
M  V30 2417 C 234.625 -2.38406 -3.51351 0
M  V30 2418 O 235.649 -2.05564 -2.90898 0
M  V30 2419 O 234.508 -2.9453 -4.60341 0
M  V30 2420 H 231.602 -0.415345 -0.715134 0
M  V30 2421 H 234.148 -1.40952 -0.945018 0
M  V30 2422 H 232.92 -3.05339 -2.44711 0
M  V30 2423 H 232.543 -1.75507 -3.56767 0
M  V30 2424 N 233.54 1.10788 -1.12088 0
M  V30 2425 C 234.956 1.34691 -0.856186 0
M  V30 2426 C 235.156 1.94791 0.515615 0
M  V30 2427 O 234.212 2.18524 1.26505 0
M  V30 2428 C 235.525 2.27208 -1.9697 0
M  V30 2429 C 237.073 2.40755 -2.00016 0
M  V30 2430 C 237.548 3.36598 -3.1059 0
M  V30 2431 N 239.039 3.44164 -3.10008 0
M  V30 2432 C 239.774 4.18284 -3.92206 0
M  V30 2433 N 239.27 4.95322 -4.84384 0
M  V30 2434 N 241.063 4.13865 -3.80357 0
M  V30 2435 H 233.214 0.70144 -2.00483 0
M  V30 2436 H 235.477 0.371405 -0.872217 0
M  V30 2437 H 235.183 1.90251 -2.958 0
M  V30 2438 H 235.057 3.27485 -1.87172 0
M  V30 2439 H 237.444 2.76982 -1.01808 0
M  V30 2440 H 237.525 1.40305 -2.13888 0
M  V30 2441 H 237.169 3.01096 -4.09028 0
M  V30 2442 H 237.099 4.36918 -2.93956 0
M  V30 2443 H 239.59 2.8922 -2.43228 0
M  V30 2444 H 239.903 5.49267 -5.43623 0
M  V30 2445 H 238.248 4.94459 -4.884 0
M  V30 2446 H 241.439 3.52773 -3.07683 0
M  V30 2447 H 241.612 4.71372 -4.44649 0
M  V30 2448 N 235.018 0.912232 1.28515 0
M  V30 2449 C 236.266 0.543523 1.94654 0
M  V30 2450 C 236.587 -0.9155 1.72173 0
M  V30 2451 O 235.857 -1.64708 1.06058 0
M  V30 2452 H 234.437 0.198017 0.720277 0
M  V30 2453 H 237.099 1.16126 1.56527 0
M  V30 2454 H 236.195 0.736684 3.03281 0
M  V30 2455 N 236.496 -1.42363 0.676048 0
M  V30 2456 C 237.459 -2.29199 0.00766941 0
M  V30 2457 C 238.459 -1.43389 -0.727745 0
M  V30 2458 O 239.649 -1.64764 -0.56556 0
M  V30 2459 C 236.781 -3.2591 -0.999785 0
M  V30 2460 H 237.974 -2.89794 0.771988 0
M  V30 2461 H 235.527 -1.50024 0.438468 0
M  V30 2462 H 236.262 -2.70256 -1.79255 0
M  V30 2463 H 236.047 -3.89202 -0.475829 0
M  V30 2464 H 237.537 -3.91028 -1.46583 0
M  V30 2465 N 237.974 -0.419461 -1.51915 0
M  V30 2466 C 238.937 0.389116 -2.25873 0
M  V30 2467 C 239.937 0.964924 -1.28631 0
M  V30 2468 O 241.127 0.842179 -1.52489 0
M  V30 2469 C 238.259 1.54874 -3.03689 0
M  V30 2470 H 239.452 -0.258799 -2.98781 0
M  V30 2471 H 237.005 -0.172209 -1.55348 0
M  V30 2472 H 237.74 2.23323 -2.35154 0
M  V30 2473 H 237.525 1.14223 -3.75094 0
M  V30 2474 H 239.015 2.12046 -3.59759 0
M  V30 2475 N 239.452 1.56882 -0.150215 0
M  V30 2476 C 240.863 1.82995 0.370076 0
M  V30 2477 C 241.214 1.06907 1.64515 0
M  V30 2478 O 240.339 0.315369 2.1409 0
M  V30 2479 C 240.934 3.31942 0.678208 0
M  V30 2480 C 239.493 3.58625 1.14301 0
M  V30 2481 C 238.64 2.76792 0.167778 0
M  V30 2482 H 241.591 1.54209 -0.374858 0
M  V30 2483 H 241.612 3.48272 1.53254 0
M  V30 2484 H 241.124 3.87294 -0.249991 0
M  V30 2485 H 239.225 3.08664 2.08704 0
M  V30 2486 H 239.338 4.67073 1.06676 0
M  V30 2487 H 237.702 2.45972 0.661037 0
M  V30 2488 H 238.485 3.34916 -0.754069 0
M  V30 2489 N 240.93 -0.123565 1.57115 0
M  V30 2490 C 242.346 -0.476961 1.52306 0
M  V30 2491 C 242.546 -1.82109 0.86248 0
M  V30 2492 O 241.602 -2.48586 0.442884 0
M  V30 2493 C 242.915 -0.465661 2.97073 0
M  V30 2494 C 244.463 -0.549534 3.08138 0
M  V30 2495 C 244.938 -0.568669 4.54456 0
M  V30 2496 N 246.429 -0.630237 4.58892 0
M  V30 2497 C 247.164 -0.666415 5.69514 0
M  V30 2498 N 246.66 -0.660514 6.89644 0
M  V30 2499 N 248.453 -0.709077 5.5761 0
M  V30 2500 H 240.604 0.757198 1.98445 0
M  V30 2501 H 242.867 0.278808 0.906074 0
M  V30 2502 H 242.573 0.454232 3.48754 0
M  V30 2503 H 242.447 -1.29513 3.54269 0
M  V30 2504 H 244.834 -1.45985 2.56461 0
M  V30 2505 H 244.915 0.307532 2.53945 0
M  V30 2506 H 244.559 0.337581 5.06777 0
M  V30 2507 H 244.489 -1.44256 5.06456 0
M  V30 2508 H 246.98 -0.641146 3.72421 0
M  V30 2509 H 247.293 -0.690616 7.69708 0
M  V30 2510 H 245.638 -0.628012 6.92157 0
M  V30 2511 H 248.829 -0.711019 4.62668 0
M  V30 2512 H 249.002 -0.733804 6.43832 0
M  V30 2513 N 242.408 -1.52605 -0.393616 0
M  V30 2514 C 243.636 -1.71294 -1.16043 0
M  V30 2515 C 244.051 -0.429259 -1.83855 0
M  V30 2516 O 243.408 0.595921 -1.72496 0
M  V30 2517 C 243.459 -2.8593 -2.21193 0
M  V30 2518 O 243.18 -4.09329 -1.56146 0
M  V30 2519 C 244.681 -3.16259 -3.10636 0
M  V30 2520 H 241.901 -0.573641 -0.348104 0
M  V30 2521 H 244.445 -1.99234 -0.461092 0
M  V30 2522 H 242.6 -2.60465 -2.86769 0
M  V30 2523 H 243.014 -4.73323 -2.25978 0
M  V30 2524 H 244.488 -3.99946 -3.80456 0
M  V30 2525 H 244.965 -2.3045 -3.73884 0
M  V30 2526 H 245.571 -3.43547 -2.50711 0
M  V30 2527 N 243.887 0.651787 -1.4349 0
M  V30 2528 C 244.817 1.77621 -1.51569 0
M  V30 2529 C 245.798 1.66022 -0.370253 0
M  V30 2530 O 246.983 1.85095 -0.587658 0
M  V30 2531 C 244.113 3.16056 -1.43966 0
M  V30 2532 C 243.067 3.4242 -2.56774 0
M  V30 2533 C 242.393 4.8067 -2.34223 0
M  V30 2534 C 243.693 3.37023 -3.99015 0
M  V30 2535 H 245.387 1.71117 -2.45681 0
M  V30 2536 H 242.933 0.821825 -1.18246 0
M  V30 2537 H 244.886 3.94472 -1.48221 0
M  V30 2538 H 243.61 3.23293 -0.463586 0
M  V30 2539 H 242.269 2.66375 -2.51873 0
M  V30 2540 H 241.917 4.84585 -1.34856 0
M  V30 2541 H 241.617 4.9927 -3.09844 0
M  V30 2542 H 243.141 5.61342 -2.40265 0
M  V30 2543 H 244.555 4.05374 -4.05395 0
M  V30 2544 H 242.952 3.67159 -4.74673 0
M  V30 2545 H 244.022 2.3518 -4.2405 0
M  V30 2546 N 245.365 1.30045 0.890287 0
M  V30 2547 C 246.776 1.16738 1.45702 0
M  V30 2548 C 247.127 -0.233939 1.948 0
M  V30 2549 O 246.252 -1.13021 1.84541 0
M  V30 2550 C 246.847 2.11313 2.64825 0
M  V30 2551 C 245.406 2.02001 3.17604 0
M  V30 2552 C 244.553 2.01699 1.90296 0
M  V30 2553 H 247.504 1.42392 0.700726 0
M  V30 2554 H 247.525 1.69086 3.40867 0
M  V30 2555 H 247.037 3.13294 2.2906 0
M  V30 2556 H 245.138 1.03142 3.5804 0
M  V30 2557 H 245.251 2.90128 3.81264 0
M  V30 2558 H 243.615 1.46427 2.08402 0
M  V30 2559 H 244.398 3.05402 1.56795 0
M  V30 2560 N 246.843 -1.10192 1.12674 0
M  V30 2561 C 247.806 -2.14786 0.799979 0
M  V30 2562 C 248.806 -1.59711 -0.18685 0
M  V30 2563 O 249.996 -1.74156 0.0392558 0
M  V30 2564 C 247.128 -3.40374 0.189228 0
M  V30 2565 H 248.321 -2.45203 1.72671 0
M  V30 2566 H 245.874 -1.25597 0.930326 0
M  V30 2567 H 246.609 -3.15577 -0.747107 0
M  V30 2568 H 246.394 -3.81637 0.899766 0
M  V30 2569 H 247.884 -4.17594 -0.0228143 0
M  V30 2570 N 248.321 -0.919034 -1.28029 0
M  V30 2571 C 249.271 -0.382574 -2.24767 0
M  V30 2572 C 250.255 0.508286 -1.52661 0
M  V30 2573 O 251.447 0.347145 -1.73562 0
M  V30 2574 C 248.576 0.371432 -3.41285 0
M  V30 2575 C 247.662 -0.535449 -4.20706 0
M  V30 2576 N 248.053 -1.65141 -4.78082 0
M  V30 2577 C 246.351 -0.336824 -4.44726 0
M  V30 2578 C 247.052 -2.21475 -5.37888 0
M  V30 2579 N 246.028 -1.50537 -5.22341 0
M  V30 2580 H 249.83 -1.23477 -2.66703 0
M  V30 2581 H 247.344 -0.772299 -1.42861 0
M  V30 2582 H 249.341 0.772638 -4.09678 0
M  V30 2583 H 248.001 1.22066 -3.00882 0
M  V30 2584 H 249.012 -2.03392 -4.7629 0
M  V30 2585 H 245.689 0.47246 -4.14818 0
M  V30 2586 H 247.079 -3.15379 -5.93284 0
M  V30 2587 N 249.799 1.42003 -0.683588 0
M  V30 2588 C 250.709 2.34597 -0.0109075 0
M  V30 2589 C 251.725 1.55576 0.779245 0
M  V30 2590 O 252.901 1.88107 0.719555 0
M  V30 2591 C 249.966 3.34199 0.922588 0
M  V30 2592 C 249.027 4.29115 0.125984 0
M  V30 2593 C 248.26 5.23959 1.01502 0
M  V30 2594 O 248.483 5.23952 2.25456 0
M  V30 2595 O 247.417 6.00053 0.47111 0
M  V30 2596 H 251.243 2.93675 -0.773853 0
M  V30 2597 H 248.828 1.42654 -0.443861 0
M  V30 2598 H 250.71 3.95365 1.45823 0
M  V30 2599 H 249.385 2.77582 1.66523 0
M  V30 2600 H 248.292 3.71335 -0.453969 0
M  V30 2601 H 249.625 4.88798 -0.577736 0
M  V30 2602 N 251.277 0.427512 1.51691 0
M  V30 2603 C 252.207 -0.3796 2.30394 0
M  V30 2604 C 253.188 -1.02982 1.35384 0
M  V30 2605 O 254.373 -1.03534 1.643 0
M  V30 2606 C 251.503 -1.48649 3.1388 0
M  V30 2607 C 250.457 -0.960294 4.17088 0
M  V30 2608 C 249.783 -2.16219 4.89033 0
M  V30 2609 C 251.083 -0.00153679 5.223 0
M  V30 2610 H 252.777 0.277164 2.98114 0
M  V30 2611 H 250.323 0.134739 1.43368 0
M  V30 2612 H 252.276 -2.05826 3.67714 0
M  V30 2613 H 251 -2.1714 2.43962 0
M  V30 2614 H 249.659 -0.410806 3.64291 0
M  V30 2615 H 249.307 -2.83307 4.15628 0
M  V30 2616 H 249.007 -1.81654 5.58816 0
M  V30 2617 H 250.531 -2.73968 5.45687 0
M  V30 2618 H 251.945 -0.482687 5.71264 0
M  V30 2619 H 250.342 0.256199 5.99553 0
M  V30 2620 H 251.412 0.938174 4.75738 0
M  V30 2621 N 252.755 -1.56801 0.158532 0
M  V30 2622 C 253.718 -2.16138 -0.762705 0
M  V30 2623 C 254.718 -1.1061 -1.16713 0
M  V30 2624 O 255.908 -1.36191 -1.08617 0
M  V30 2625 C 253.04 -2.73386 -2.03649 0
M  V30 2626 H 254.233 -2.98886 -0.246354 0
M  V30 2627 H 251.786 -1.56035 -0.0909744 0
M  V30 2628 H 252.521 -1.94335 -2.59623 0
M  V30 2629 H 252.306 -3.50601 -1.75559 0
M  V30 2630 H 253.796 -3.19065 -2.6942 0
M  V30 2631 N 254.233 0.115231 -1.57178 0
M  V30 2632 C 255.461 0.836437 -1.89239 0
M  V30 2633 C 255.876 1.73256 -0.750175 0
M  V30 2634 O 255.233 1.80357 0.278832 0
M  V30 2635 C 255.284 1.66671 -3.20785 0
M  V30 2636 O 255.005 0.806652 -4.3061 0
M  V30 2637 C 256.506 2.49274 -3.66575 0
M  V30 2638 H 253.726 0.240253 -0.626514 0
M  V30 2639 H 256.27 0.0984932 -2.04263 0
M  V30 2640 H 254.425 2.35737 -3.0742 0
M  V30 2641 H 254.839 1.37969 -5.06028 0
M  V30 2642 H 256.313 3.03055 -4.6137 0
M  V30 2643 H 256.79 3.26807 -2.93417 0
M  V30 2644 H 257.396 1.85443 -3.82741 0
M  V30 2645 N 255.711 1.52812 0.385517 0
M  V30 2646 C 256.674 1.77188 1.45386 0
M  V30 2647 C 257.674 0.641953 1.4743 0
M  V30 2648 O 258.864 0.910033 1.4854 0
M  V30 2649 C 255.996 1.87582 2.8465 0
M  V30 2650 H 257.189 2.72583 1.25054 0
M  V30 2651 H 254.742 1.43586 0.617467 0
M  V30 2652 H 255.477 0.941849 3.10322 0
M  V30 2653 H 255.262 2.69748 2.84567 0
M  V30 2654 H 256.752 2.08102 3.62054 0
M  V30 2655 N 257.189 -0.644168 1.43834 0
M  V30 2656 C 258.119 -1.76814 1.52509 0
M  V30 2657 C 259.1 -1.65823 0.379052 0
M  V30 2658 O 260.285 -1.84781 0.597466 0
M  V30 2659 C 257.415 -3.15288 1.4564 0
M  V30 2660 C 256.369 -3.41053 2.58586 0
M  V30 2661 C 255.695 -4.79421 2.36769 0
M  V30 2662 C 256.995 -3.34902 4.00797 0
M  V30 2663 H 258.689 -1.69812 2.46586 0
M  V30 2664 H 256.235 -0.815542 1.1868 0
M  V30 2665 H 258.188 -3.93681 1.50311 0
M  V30 2666 H 256.912 -3.23043 0.480725 0
M  V30 2667 H 255.571 -2.65035 2.53282 0
M  V30 2668 H 255.219 -4.83863 1.37424 0
M  V30 2669 H 254.919 -4.9762 3.12487 0
M  V30 2670 H 256.443 -5.6006 2.43238 0
M  V30 2671 H 257.857 -4.03218 4.07539 0
M  V30 2672 H 256.254 -3.64637 4.76613 0
M  V30 2673 H 257.324 -2.32928 4.25291 0
M  V30 2674 N 258.668 -1.30515 -0.883378 0
M  V30 2675 C 259.616 -1.16941 -2.01066 0
M  V30 2676 C 260.61 -0.0809148 -1.69207 0
M  V30 2677 O 261.816 -0.241877 -1.78367 0
M  V30 2678 H 258.191 -0.361705 -0.659298 0
M  V30 2679 H 260.162 -2.12344 -2.09649 0
M  V30 2680 C 258.911 -0.879694 -3.36388 0
M  V30 2681 H 258.234 -1.70936 -3.61415 0
M  V30 2682 H 259.674 -0.82483 -4.159 0
M  V30 2683 C 258.133 0.417409 -3.34304 0
M  V30 2684 O 258.663 1.43843 -3.75063 0
M  V30 2685 N 256.869 0.429141 -2.87414 0
M  V30 2686 H 256.416 -0.402222 -2.5444 0
M  V30 2687 H 256.374 1.29696 -2.86403 0
M  V30 2688 N 260.146 1.09593 -1.13257 0
M  V30 2689 C 261.076 2.18214 -0.830946 0
M  V30 2690 C 262.057 1.68812 0.208966 0
M  V30 2691 O 263.242 1.9408 0.0682666 0
M  V30 2692 C 260.372 3.46051 -0.294296 0
M  V30 2693 C 259.326 4.08778 -1.26826 0
M  V30 2694 C 258.652 5.31419 -0.591449 0
M  V30 2695 C 259.952 4.51476 -2.62615 0
M  V30 2696 H 261.646 2.43703 -1.73923 0
M  V30 2697 H 259.192 1.17128 -0.837675 0
M  V30 2698 H 261.145 4.2134 -0.0709606 0
M  V30 2699 H 259.869 3.20079 0.649366 0
M  V30 2700 H 258.528 3.35505 -1.47756 0
M  V30 2701 H 258.176 5.01727 0.357633 0
M  V30 2702 H 257.876 5.74341 -1.24123 0
M  V30 2703 H 259.4 6.09433 -0.377355 0
M  V30 2704 H 260.814 5.17999 -2.45663 0
M  V30 2705 H 259.211 5.05277 -3.23752 0
M  V30 2706 H 260.281 3.63962 -3.20406 0
M  V30 2707 N 261.624 0.925811 1.2754 0
M  V30 2708 C 262.557 0.367836 2.25216 0
M  V30 2709 C 263.535 -0.534738 1.53556 0
M  V30 2710 O 264.719 -0.475672 1.824 0
M  V30 2711 C 261.846 -0.47298 3.35381 0
M  V30 2712 C 260.892 0.365898 4.24928 0
M  V30 2713 S 261.725 1.78025 5.05042 0
M  V30 2714 C 262.881 0.947068 6.18693 0
M  V30 2715 H 263.114 1.19568 2.72196 0
M  V30 2716 H 260.647 0.727867 1.36167 0
M  V30 2717 H 262.605 -0.952242 3.99303 0
M  V30 2718 H 261.266 -1.27533 2.87044 0
M  V30 2719 H 260.459 -0.277582 5.03235 0
M  V30 2720 H 260.061 0.779261 3.65792 0
M  V30 2721 H 262.353 0.182201 6.77255 0
M  V30 2722 H 263.296 1.70309 6.87314 0
M  V30 2723 H 263.704 0.489913 5.6237 0
M  V30 2724 N 263.102 -1.41638 0.69111 0
M  V30 2725 C 264.05 -2.32597 0.0115199 0
M  V30 2726 C 265.044 -1.5072 -0.773296 0
M  V30 2727 O 266.25 -1.66685 -0.67942 0
M  V30 2728 H 262.625 -0.751849 -0.0150746 0
M  V30 2729 H 264.596 -2.87593 0.795791 0
M  V30 2730 C 263.345 -3.35467 -0.914172 0
M  V30 2731 H 262.668 -3.9852 -0.319687 0
M  V30 2732 H 264.108 -4.01662 -1.35808 0
M  V30 2733 C 262.567 -2.69004 -2.02826 0
M  V30 2734 O 263.097 -2.53444 -3.11655 0
M  V30 2735 N 261.303 -2.2777 -1.80469 0
M  V30 2736 H 260.85 -2.40626 -0.919615 0
M  V30 2737 H 260.808 -1.83635 -2.55197 0
M  V30 2738 N 264.58 -0.43555 -1.51462 0
M  V30 2739 C 265.49 0.383001 -2.31453 0
M  V30 2740 C 266.506 1.02931 -1.4029 0
M  V30 2741 O 267.682 1.02507 -1.73362 0
M  V30 2742 C 264.747 1.47043 -3.13973 0
M  V30 2743 C 263.808 0.844433 -4.20913 0
M  V30 2744 C 263.041 1.88004 -4.9949 0
M  V30 2745 O 263.264 3.10199 -4.78678 0
M  V30 2746 O 262.198 1.47157 -5.83634 0
M  V30 2747 H 266.024 -0.269964 -3.02498 0
M  V30 2748 H 263.609 -0.19813 -1.4808 0
M  V30 2749 H 265.491 2.10113 -3.65281 0
M  V30 2750 H 264.166 2.10751 -2.45695 0
M  V30 2751 H 263.073 0.175729 -3.73687 0
M  V30 2752 H 264.406 0.250869 -4.9156 0
M  V30 2753 N 266.058 1.56714 -0.166846 0
M  V30 2754 C 267.474 1.58473 0.189372 0
M  V30 2755 C 267.674 1.18201 1.63189 0
M  V30 2756 O 266.73 0.891528 2.36237 0
M  V30 2757 C 268.043 3.00573 -0.0873872 0
M  V30 2758 C 269.591 3.1299 -0.0252443 0
M  V30 2759 C 270.066 4.57174 -0.274934 0
M  V30 2760 N 271.557 4.62665 -0.222553 0
M  V30 2761 C 272.292 5.72072 -0.389985 0
M  V30 2762 N 271.788 6.90054 -0.616229 0
M  V30 2763 N 273.581 5.61153 -0.326202 0
M  V30 2764 H 265.732 1.8118 -1.10849 0
M  V30 2765 H 267.995 0.839525 -0.440342 0
M  V30 2766 H 267.701 3.34497 -1.0865 0
M  V30 2767 H 267.575 3.72019 0.623037 0
M  V30 2768 H 269.962 2.78895 0.96444 0
M  V30 2769 H 270.043 2.43989 -0.768309 0
M  V30 2770 H 269.687 4.91976 -1.26181 0
M  V30 2771 H 269.617 5.24328 0.48869 0
M  V30 2772 H 272.108 3.77863 -0.0531512 0
M  V30 2773 H 272.421 7.69311 -0.733559 0
M  V30 2774 H 270.766 6.91927 -0.652791 0
M  V30 2775 H 273.957 4.67859 -0.150072 0
M  V30 2776 H 274.13 6.46364 -0.460116 0
M  V30 2777 N 267.536 -0.106894 1.57237 0
M  V30 2778 C 268.764 -0.826389 1.8968 0
M  V30 2779 C 269.179 -1.72856 0.759353 0
M  V30 2780 O 268.536 -1.80503 -0.269263 0
M  V30 2781 C 268.587 -1.64967 3.21665 0
M  V30 2782 O 268.308 -0.783804 4.31031 0
M  V30 2783 C 269.809 -2.47326 3.67892 0
M  V30 2784 H 267.029 -0.236927 0.627779 0
M  V30 2785 H 269.573 -0.0876593 2.04312 0
M  V30 2786 H 267.728 -2.34103 3.08666 0
M  V30 2787 H 268.142 -1.35284 5.06753 0
M  V30 2788 H 269.616 -3.00604 4.6297 0
M  V30 2789 H 270.093 -3.25247 2.95146 0
M  V30 2790 H 270.699 -1.83411 3.83719 0
M  V30 2791 N 269.014 -1.53014 -0.377408 0
M  V30 2792 C 269.944 -1.81589 -1.46791 0
M  V30 2793 C 270.925 -0.668622 -1.56408 0
M  V30 2794 O 272.11 -0.917337 -1.71168 0
M  V30 2795 C 269.24 -1.99519 -2.8427 0
M  V30 2796 C 268.194 -3.15249 -2.89486 0
M  V30 2797 C 267.52 -3.18451 -4.29527 0
M  V30 2798 C 268.82 -4.54084 -2.58079 0
M  V30 2799 H 270.514 -2.7291 -1.23127 0
M  V30 2800 H 268.06 -1.31319 -0.590883 0
M  V30 2801 H 270.013 -2.18092 -3.60575 0
M  V30 2802 H 268.737 -1.04897 -3.09296 0
M  V30 2803 H 267.396 -2.96477 -2.15631 0
M  V30 2804 H 267.044 -2.2149 -4.5161 0
M  V30 2805 H 266.744 -3.962 -4.33934 0
M  V30 2806 H 268.268 -3.39193 -5.07721 0
M  V30 2807 H 269.682 -4.72899 -3.24098 0
M  V30 2808 H 268.079 -5.33987 -2.7382 0
M  V30 2809 H 269.149 -4.60006 -1.53372 0
M  V30 2810 N 270.492 0.636531 -1.44174 0
M  V30 2811 C 271.739 1.39619 -1.46672 0
M  V30 2812 C 272.067 1.94257 -0.0972691 0
M  V30 2813 O 271.322 1.73768 0.900175 0
M  V30 2814 C 271.621 2.58309 -2.47005 0
M  V30 2815 C 271.287 2.21992 -3.92467 0
M  V30 2816 C 269.949 2.118 -4.32081 0
M  V30 2817 C 272.301 1.9321 -4.84065 0
M  V30 2818 C 269.629 1.71007 -5.61225 0
M  V30 2819 C 271.981 1.53911 -6.13591 0
M  V30 2820 C 270.645 1.42257 -6.52165 0
M  V30 2821 H 269.915 0.510902 -0.536712 0
M  V30 2822 H 272.562 0.722328 -1.77355 0
M  V30 2823 H 270.867 3.30903 -2.09786 0
M  V30 2824 H 272.564 3.16533 -2.46186 0
M  V30 2825 H 269.154 2.30841 -3.61124 0
M  V30 2826 H 273.338 1.99997 -4.54219 0
M  V30 2827 H 268.594 1.60583 -5.89935 0
M  V30 2828 H 272.768 1.30677 -6.8403 0
M  V30 2829 H 270.395 1.10419 -7.52138 0
M  V30 2830 N 271.97 1.30982 0.876444 0
M  V30 2831 C 272.933 1.18054 1.96459 0
M  V30 2832 C 273.933 0.109399 1.60427 0
M  V30 2833 O 275.123 0.358173 1.70478 0
M  V30 2834 C 272.255 0.810616 3.31122 0
M  V30 2835 H 273.448 2.14735 2.09354 0
M  V30 2836 H 271.001 1.145 1.06392 0
M  V30 2837 H 271.736 -0.155322 3.23928 0
M  V30 2838 H 271.521 1.58481 3.58645 0
M  V30 2839 H 273.011 0.743876 4.10921 0
M  V30 2840 N 273.449 -1.08991 1.13837 0
M  V30 2841 C 274.674 -1.85551 0.926585 0
M  V30 2842 C 275.099 -1.80782 -0.519566 0
M  V30 2843 O 274.457 -1.18855 -1.36906 0
M  V30 2844 C 274.505 -3.31266 1.42462 0
M  V30 2845 O 273.609 -4.07822 0.612789 0
M  V30 2846 H 272.95 -0.575192 0.331738 0
M  V30 2847 H 275.48 -1.37604 1.51414 0
M  V30 2848 H 275.49 -3.82112 1.43019 0
M  V30 2849 H 274.165 -3.34052 2.47754 0
M  V30 2850 H 272.742 -3.66731 0.675463 0
M  V30 2851 N 274.927 -0.932562 -1.27047 0
M  V30 2852 C 276.174 -0.575559 -1.94148 0
M  V30 2853 C 276.502 0.883984 -1.73251 0
M  V30 2854 O 275.757 1.64655 -1.0577 0
M  V30 2855 C 276.056 -0.853713 -3.47054 0
M  V30 2856 C 275.722 -2.29577 -3.88079 0
M  V30 2857 C 274.384 -2.68999 -3.9899 0
M  V30 2858 C 276.736 -3.23331 -4.08787 0
M  V30 2859 C 274.064 -4.01289 -4.28 0
M  V30 2860 C 276.416 -4.55207 -4.39282 0
M  V30 2861 C 275.08 -4.94457 -4.48407 0
M  V30 2862 H 274.35 -0.210612 -0.710439 0
M  V30 2863 H 276.997 -1.17744 -1.51025 0
M  V30 2864 H 275.302 -0.169204 -3.91434 0
M  V30 2865 H 276.999 -0.55639 -3.97121 0
M  V30 2866 H 273.589 -1.97994 -3.80127 0
M  V30 2867 H 277.773 -2.94074 -3.99793 0
M  V30 2868 H 273.029 -4.31374 -4.33275 0
M  V30 2869 H 277.203 -5.27852 -4.54252 0
M  V30 2870 H 274.83 -5.96994 -4.7064 0
M  V30 2871 N 276.405 1.4127 -0.698611 0
M  V30 2872 C 277.368 2.29158 -0.044132 0
M  V30 2873 C 278.368 1.44529 0.704841 0
M  V30 2874 O 279.558 1.65643 0.539276 0
M  V30 2875 C 276.69 3.27459 0.947809 0
M  V30 2876 H 277.883 2.88529 -0.817994 0
M  V30 2877 H 275.436 1.49307 -0.46228 0
M  V30 2878 H 276.171 2.73073 1.74933 0
M  V30 2879 H 275.956 3.8991 0.41385 0
M  V30 2880 H 277.446 3.93311 1.40344 0
M  V30 2881 N 277.883 0.443576 1.51229 0
M  V30 2882 C 279.131 -0.120557 2.0174 0
M  V30 2883 C 279.452 -1.42665 1.32935 0
M  V30 2884 O 278.722 -1.9028 0.465866 0
M  V30 2885 H 277.302 -0.0475426 0.745486 0
M  V30 2886 H 279.964 0.587711 1.85828 0
M  V30 2887 H 279.06 -0.291972 3.10731 0
M  V30 2888 N 279.361 -1.56624 0.175154 0
M  V30 2889 C 280.271 -2.21741 -0.766042 0
M  V30 2890 C 281.287 -1.21023 -1.25018 0
M  V30 2891 O 282.463 -1.53697 -1.3015 0
M  V30 2892 C 279.528 -2.84839 -1.97655 0
M  V30 2893 C 278.589 -4.00769 -1.53892 0
M  V30 2894 C 277.822 -4.60849 -2.69173 0
M  V30 2895 O 278.045 -4.19823 -3.86141 0
M  V30 2896 O 276.979 -5.50655 -2.43028 0
M  V30 2897 H 280.805 -3.02738 -0.241585 0
M  V30 2898 H 278.39 -1.49305 -0.053222 0
M  V30 2899 H 280.272 -3.24834 -2.68442 0
M  V30 2900 H 278.947 -2.06836 -2.48999 0
M  V30 2901 H 277.854 -3.65436 -0.80044 0
M  V30 2902 H 279.187 -4.80376 -1.07236 0
M  V30 2903 N 280.839 0.0985539 -1.57292 0
M  V30 2904 C 281.771 1.14595 -1.98496 0
M  V30 2905 C 282.784 1.36512 -0.887031 0
M  V30 2906 O 283.973 1.35225 -1.16518 0
M  V30 2907 C 281.073 2.50216 -2.28572 0
M  V30 2908 C 280.246 2.48624 -3.59868 0
M  V30 2909 C 279.305 3.66146 -3.7792 0
M  V30 2910 O 278.331 3.48795 -4.49812 0
M  V30 2911 N 279.533 4.85496 -3.18235 0
M  V30 2912 H 282.298 0.795277 -2.88956 0
M  V30 2913 H 279.859 0.287579 -1.59325 0
M  V30 2914 H 281.851 3.27432 -2.37845 0
M  V30 2915 H 280.421 2.77387 -1.44136 0
M  V30 2916 H 279.641 1.56978 -3.61596 0
M  V30 2917 H 280.929 2.44635 -4.46129 0
M  V30 2918 H 280.327 5.02497 -2.59833 0
M  V30 2919 H 278.884 5.60317 -3.32999 0
M  V30 2920 N 282.317 1.53212 0.369288 0
M  V30 2921 C 283.728 1.60943 0.946276 0
M  V30 2922 C 284.079 0.47452 1.90375 0
M  V30 2923 O 283.204 -0.399597 2.12679 0
M  V30 2924 C 283.799 2.91715 1.72302 0
M  V30 2925 C 282.358 3.01792 2.24941 0
M  V30 2926 C 281.505 2.56211 1.06072 0
M  V30 2927 H 284.456 1.58007 0.148198 0
M  V30 2928 H 284.477 2.79309 2.58393 0
M  V30 2929 H 283.989 3.74295 1.0259 0
M  V30 2930 H 282.09 2.23791 2.97906 0
M  V30 2931 H 282.203 4.06803 2.53077 0
M  V30 2932 H 280.567 2.10998 1.4266 0
M  V30 2933 H 281.35 3.41206 0.378639 0
M  V30 2934 N 283.795 -0.628877 1.44509 0
M  V30 2935 C 285.02 -1.42048 1.5112 0
M  V30 2936 C 285.445 -1.87594 0.137818 0
M  V30 2937 O 284.803 -1.58873 -0.873437 0
M  V30 2938 C 284.851 -2.61541 2.48251 0
M  V30 2939 O 283.955 -3.61453 1.98559 0
M  V30 2940 H 283.296 -0.424942 0.510216 0
M  V30 2941 H 285.826 -0.767374 1.89664 0
M  V30 2942 H 285.836 -3.09057 2.66361 0
M  V30 2943 H 284.511 -2.27736 3.48007 0
M  V30 2944 H 283.088 -3.20731 1.90227 0
M  V30 2945 N 285.273 -1.31445 -0.869486 0
M  V30 2946 C 286.519 -1.21337 -1.62496 0
M  V30 2947 C 286.852 0.227872 -1.92858 0
M  V30 2948 O 286.127 1.16094 -1.56053 0
M  V30 2949 C 286.41 -2.05814 -2.95487 0
M  V30 2950 C 286.263 -3.5824 -2.72 0
M  V30 2951 C 287.582 -1.9079 -3.96594 0
M  V30 2952 H 284.701 -0.442135 -0.589649 0
M  V30 2953 H 287.343 -1.6124 -1.00507 0
M  V30 2954 H 285.493 -1.71913 -3.48394 0
M  V30 2955 H 287.165 -4.0228 -2.25762 0
M  V30 2956 H 285.408 -3.81647 -2.06224 0
M  V30 2957 H 286.079 -4.12657 -3.66631 0
M  V30 2958 H 288.555 -2.20459 -3.52898 0
M  V30 2959 H 287.431 -2.52199 -4.87531 0
M  V30 2960 H 287.692 -0.871341 -4.33428 0
M  V30 2961 N 286.751 1.08385 -1.14413 0
M  V30 2962 C 288.162 1.62258 -0.923535 0
M  V30 2963 C 288.513 1.88691 0.537595 0
M  V30 2964 O 287.638 1.64454 1.40655 0
M  V30 2965 C 288.233 2.94781 -1.67002 0
M  V30 2966 C 286.792 3.45437 -1.495 0
M  V30 2967 C 285.939 2.19668 -1.69238 0
M  V30 2968 H 288.89 0.916086 -1.2959 0
M  V30 2969 H 288.911 3.63229 -1.13334 0
M  V30 2970 H 288.423 2.7551 -2.73342 0
M  V30 2971 H 286.524 3.6981 -0.455097 0
M  V30 2972 H 286.637 4.22173 -2.2651 0
M  V30 2973 H 285.001 2.28849 -1.11804 0
M  V30 2974 H 285.784 2.02905 -2.7692 0
M  V30 2975 N 288.23 0.939286 1.26551 0
M  V30 2976 C 289.14 0.453432 2.30176 0
M  V30 2977 C 290.156 -0.471649 1.67486 0
M  V30 2978 O 291.332 -0.35164 1.98306 0
M  V30 2979 C 288.397 -0.275326 3.45605 0
M  V30 2980 C 287.458 0.686084 4.23782 0
M  V30 2981 C 286.691 -0.00798994 5.33699 0
M  V30 2982 O 286.914 -1.22528 5.57085 0
M  V30 2983 O 285.848 0.669746 5.98162 0
M  V30 2984 H 289.674 1.31416 2.73795 0
M  V30 2985 H 287.259 0.705095 1.31715 0
M  V30 2986 H 289.141 -0.685911 4.1578 0
M  V30 2987 H 287.816 -1.11147 3.0402 0
M  V30 2988 H 286.723 1.14658 3.56096 0
M  V30 2989 H 288.056 1.48979 4.69112 0
M  V30 2990 N 289.708 -1.40897 0.706093 0
M  V30 2991 C 290.671 -2.29131 0.0562841 0
M  V30 2992 C 291.671 -1.44901 -0.697166 0
M  V30 2993 O 292.861 -1.65926 -0.530484 0
M  V30 2994 C 289.993 -3.27957 -0.93043 0
M  V30 2995 H 291.186 -2.88091 0.833284 0
M  V30 2996 H 288.739 -1.4906 0.470192 0
M  V30 2997 H 289.474 -2.73997 -1.73482 0
M  V30 2998 H 289.259 -3.90124 -0.393166 0
M  V30 2999 H 290.749 -3.94049 -1.38256 0
M  V30 3000 N 291.186 -0.45159 -1.50991 0
M  V30 3001 C 292.602 -0.104647 -1.59257 0
M  V30 3002 C 292.802 1.38728 -1.4614 0
M  V30 3003 O 291.858 2.15866 -1.30989 0
M  V30 3004 C 293.171 -0.637468 -2.93865 0
M  V30 3005 C 294.719 -0.599166 -3.07212 0
M  V30 3006 C 295.194 -1.1092 -4.44366 0
M  V30 3007 N 296.685 -1.06778 -4.50725 0
M  V30 3008 C 297.42 -1.43314 -5.55201 0
M  V30 3009 N 296.916 -1.87204 -6.67028 0
M  V30 3010 N 298.709 -1.3504 -5.45638 0
M  V30 3011 H 290.86 -1.42214 -1.57762 0
M  V30 3012 H 293.123 -0.586921 -0.744465 0
M  V30 3013 H 292.829 -1.68187 -3.08879 0
M  V30 3014 H 292.703 -0.0702139 -3.77135 0
M  V30 3015 H 295.09 0.436277 -2.91857 0
M  V30 3016 H 295.171 -1.20299 -2.25747 0
M  V30 3017 H 294.815 -2.14318 -4.60467 0
M  V30 3018 H 294.745 -0.481773 -5.24392 0
M  V30 3019 H 297.236 -0.745643 -3.70471 0
M  V30 3020 H 297.549 -2.13282 -7.42786 0
M  V30 3021 H 295.894 -1.91142 -6.68199 0
M  V30 3022 H 299.085 -1.00607 -4.57161 0
M  V30 3023 H 299.258 -1.63841 -6.26945 0
M  V30 3024 N 292.664 1.56529 -0.183458 0
M  V30 3025 C 293.91 1.97537 0.459036 0
M  V30 3026 C 294.243 1.06989 1.62071 0
M  V30 3027 O 293.518 0.11948 1.94133 0
M  V30 3028 C 293.801 3.47874 0.930368 0
M  V30 3029 C 293.654 4.492 -0.232317 0
M  V30 3030 C 294.973 4.01612 1.79989 0
M  V30 3031 H 292.092 0.718204 0.165383 0
M  V30 3032 H 294.734 1.88042 -0.272038 0
M  V30 3033 H 292.884 3.56095 1.55333 0
M  V30 3034 H 294.556 4.53027 -0.86972 0
M  V30 3035 H 292.799 4.24657 -0.885928 0
M  V30 3036 H 293.47 5.51823 0.139796 0
M  V30 3037 H 295.946 3.96097 1.27461 0
M  V30 3038 H 294.822 5.07195 2.09867 0
M  V30 3039 H 295.083 3.46163 2.74998 0
M  V30 3040 N 294.142 -0.090211 1.57342 0
M  V30 3041 C 295.072 -1.10976 2.05443 0
M  V30 3042 C 296.053 -1.41482 0.944284 0
M  V30 3043 O 297.238 -1.51428 1.21586 0
M  V30 3044 C 294.368 -2.42831 2.48295 0
M  V30 3045 C 293.322 -2.26721 3.63018 0
M  V30 3046 C 292.648 -3.63796 3.91863 0
M  V30 3047 C 293.948 -1.7037 4.93732 0
M  V30 3048 H 295.642 -0.709564 2.9087 0
M  V30 3049 H 293.188 -0.339874 1.39932 0
M  V30 3050 H 295.141 -3.14431 2.80555 0
M  V30 3051 H 293.865 -2.84795 1.59873 0
M  V30 3052 H 292.524 -1.57565 3.31012 0
M  V30 3053 H 292.172 -4.03297 3.00601 0
M  V30 3054 H 291.872 -3.53861 4.69101 0
M  V30 3055 H 293.396 -4.36855 4.26603 0
M  V30 3056 H 294.81 -2.31816 5.24342 0
M  V30 3057 H 293.207 -1.71181 5.75167 0
M  V30 3058 H 294.277 -0.663542 4.80339 0
M  V30 3059 N 295.62 -1.53406 -0.361157 0
M  V30 3060 C 296.897 -1.60411 -1.11927 0
M  V30 3061 C 297.277 -0.414385 -2.06993 0
M  V30 3062 O 296.625 0.594976 -2.20618 0
M  V30 3063 C 296.835 -2.95652 -1.85448 0
M  V30 3064 C 298.183 -3.50386 -2.39823 0
M  V30 3065 O 299.207 -2.97711 -1.95568 0
M  V30 3066 O 298.066 -4.42482 -3.20737 0
M  V30 3067 H 295.16 -0.64811 -0.513695 0
M  V30 3068 H 297.706 -1.65749 -0.364065 0
M  V30 3069 H 296.478 -3.73682 -1.16091 0
M  V30 3070 H 296.101 -2.93825 -2.67866 0
M  V30 3071 N 297.098 0.621204 -1.44841 0
M  V30 3072 C 298.326 1.40752 -1.51646 0
M  V30 3073 C 298.741 1.88246 -0.144549 0
M  V30 3074 O 298.098 1.61422 0.851416 0
M  V30 3075 C 298.149 2.62119 -2.4895 0
M  V30 3076 O 297.87 2.16602 -3.80808 0
M  V30 3077 C 299.371 3.55135 -2.65319 0
M  V30 3078 H 296.591 0.431325 -0.514004 0
M  V30 3079 H 299.135 0.758835 -1.899 0
M  V30 3080 H 297.29 3.23058 -2.13805 0
M  V30 3081 H 297.704 2.95358 -4.33433 0
M  V30 3082 H 299.178 4.36874 -3.37409 0
M  V30 3083 H 299.655 4.04592 -1.70886 0
M  V30 3084 H 300.261 3.00058 -3.01405 0
M  V30 3085 N 298.576 1.31904 0.862503 0
M  V30 3086 C 299.506 1.22782 1.98612 0
M  V30 3087 C 300.487 0.113362 1.69722 0
M  V30 3088 O 301.672 0.299218 1.91881 0
M  V30 3089 C 298.802 0.942058 3.34279 0
M  V30 3090 C 297.756 2.0169 3.77499 0
M  V30 3091 C 297.082 1.58369 5.10709 0
M  V30 3092 C 298.382 3.43096 3.93805 0
M  V30 3093 H 300.076 2.16788 2.06502 0
M  V30 3094 H 297.622 1.04366 0.992154 0
M  V30 3095 H 299.575 0.864818 4.1243 0
M  V30 3096 H 298.299 -0.0336603 3.26583 0
M  V30 3097 H 296.958 2.08416 3.01593 0
M  V30 3098 H 296.606 0.595628 4.99461 0
M  V30 3099 H 296.306 2.30279 5.40597 0
M  V30 3100 H 297.83 1.52067 5.91361 0
M  V30 3101 H 299.244 3.39003 4.62331 0
M  V30 3102 H 297.641 4.13288 4.35101 0
M  V30 3103 H 298.711 3.83334 2.96957 0
M  V30 3104 N 300.054 -1.07777 1.14986 0
M  V30 3105 C 301.3 -1.80557 0.923422 0
M  V30 3106 C 301.633 -1.86298 -0.548337 0
M  V30 3107 O 300.908 -1.34354 -1.40639 0
M  V30 3108 C 301.191 -3.25839 1.53299 0
M  V30 3109 C 301.044 -3.28269 3.07505 0
M  V30 3110 C 302.363 -4.22991 1.21518 0
M  V30 3111 H 299.482 -0.655493 0.336894 0
M  V30 3112 H 302.124 -1.26144 1.42083 0
M  V30 3113 H 300.274 -3.72306 1.10999 0
M  V30 3114 H 301.946 -2.90079 3.58681 0
M  V30 3115 H 300.189 -2.67355 3.4162 0
M  V30 3116 H 300.86 -4.30691 3.45266 0
M  V30 3117 H 303.336 -3.84894 1.581 0
M  V30 3118 H 302.212 -5.22945 1.66793 0
M  V30 3119 H 302.473 -4.41904 0.131505 0
M  V30 3120 N 301.532 -0.945985 -1.26051 0
M  V30 3121 C 302.482 -0.430164 -2.23905 0
M  V30 3122 C 303.466 0.47579 -1.53704 0
M  V30 3123 O 304.658 0.310252 -1.7426 0
M  V30 3124 C 301.787 0.298957 -3.41996 0
M  V30 3125 C 300.873 -0.624566 -4.19476 0
M  V30 3126 N 301.264 -1.75245 -4.74471 0
M  V30 3127 C 299.562 -0.431082 -4.43912 0
M  V30 3128 C 300.263 -2.32834 -5.3307 0
M  V30 3129 N 299.239 -1.61583 -5.1903 0
M  V30 3130 H 303.041 -1.29107 -2.64024 0
M  V30 3131 H 300.555 -0.802428 -1.41191 0
M  V30 3132 H 302.552 0.685565 -4.11225 0
M  V30 3133 H 301.212 1.15657 -3.03403 0
M  V30 3134 H 302.223 -2.13449 -4.71868 0
M  V30 3135 H 298.9 0.384364 -4.15727 0
M  V30 3136 H 300.29 -3.27893 -5.86461 0
M  V30 3137 N 303.011 1.40521 -0.713556 0
M  V30 3138 C 304.26 2.00155 -0.249192 0
M  V30 3139 C 304.573 1.57224 1.16362 0
M  V30 3140 O 305.779 2.09542 1.72639 0
M  V30 3141 C 304.235 3.5773 -0.3946 0
M  V30 3142 C 303.843 4.09635 -1.81392 0
M  V30 3143 C 305.587 4.24499 0.00907364 0
M  V30 3144 C 303.494 5.59707 -1.91003 0
M  V30 3145 H 302.424 0.74868 -0.0894114 0
M  V30 3146 H 305.075 1.60784 -0.884352 0
M  V30 3147 H 303.457 3.94792 0.30911 0
M  V30 3148 H 304.631 3.83955 -2.54785 0
M  V30 3149 H 302.946 3.55456 -2.16888 0
M  V30 3150 H 305.543 5.34683 -0.0420404 0
M  V30 3151 H 305.886 4.02824 1.05065 0
M  V30 3152 H 306.419 3.92536 -0.645007 0
M  V30 3153 H 303.158 5.86234 -2.93275 0
M  V30 3154 H 302.678 5.87258 -1.22019 0
M  V30 3155 H 304.357 6.24776 -1.6812 0
M  V30 3156 N 304.489 0.459591 1.5075 0
M  V30 3157 C 305.735 -0.091664 2.03193 0
M  V30 3158 C 306.09 -1.38432 1.3362 0
M  V30 3159 O 305.383 -1.86257 0.449322 0
M  V30 3160 C 305.577 -0.342866 3.55752 0
M  V30 3161 C 305.406 0.923888 4.40107 0
M  V30 3162 C 304.176 1.46388 4.83631 0
M  V30 3163 C 306.374 1.81617 4.81165 0
M  V30 3164 N 304.356 2.68086 5.52271 0
M  V30 3165 C 305.727 2.87907 5.49099 0
M  V30 3166 C 307.782 1.82793 4.63132 0
M  V30 3167 C 306.485 3.95347 6.0091 0
M  V30 3168 C 308.511 2.89182 5.15876 0
M  V30 3169 C 307.873 3.94191 5.83774 0
M  V30 3170 H 303.972 0.00619247 0.781975 0
M  V30 3171 H 306.556 0.625233 1.84388 0
M  V30 3172 H 304.727 -1.0288 3.74527 0
M  V30 3173 H 306.459 -0.887445 3.9485 0
M  V30 3174 H 303.214 1.01466 4.62603 0
M  V30 3175 H 303.638 3.29857 5.91205 0
M  V30 3176 H 308.28 1.0293 4.1008 0
M  V30 3177 H 305.998 4.76035 6.53006 0
M  V30 3178 H 309.584 2.91061 5.0376 0
M  V30 3179 H 308.464 4.75161 6.23853 0
M  V30 3180 N 305.967 -1.56429 0.191757 0
M  V30 3181 C 307.213 -1.97777 -0.448554 0
M  V30 3182 C 307.546 -1.07847 -1.61501 0
M  V30 3183 O 306.821 -0.129774 -1.94067 0
M  V30 3184 C 307.104 -3.48362 -0.911906 0
M  V30 3185 C 306.957 -4.4907 0.256136 0
M  V30 3186 C 308.276 -4.02561 -1.77857 0
M  V30 3187 H 305.395 -0.719071 -0.161572 0
M  V30 3188 H 308.037 -1.87896 0.282007 0
M  V30 3189 H 306.187 -3.56914 -1.53442 0
M  V30 3190 H 307.859 -4.5256 0.893733 0
M  V30 3191 H 306.102 -4.24181 0.908436 0
M  V30 3192 H 306.773 -5.51889 -0.11053 0
M  V30 3193 H 309.249 -3.96767 -1.25359 0
M  V30 3194 H 308.125 -5.08301 -2.07174 0
M  V30 3195 H 308.386 -3.47616 -2.73158 0
M  V30 3196 N 307.445 0.0818655 -1.57387 0
M  V30 3197 C 308.673 0.796108 -1.9097 0
M  V30 3198 C 309.088 1.71626 -0.786757 0
M  V30 3199 O 308.445 1.80908 0.240513 0
M  V30 3200 C 308.496 1.59829 -3.24248 0
M  V30 3201 O 308.217 0.715131 -4.32224 0
M  V30 3202 C 309.718 2.41442 -3.7178 0
M  V30 3203 H 306.938 0.22691 -0.631469 0
M  V30 3204 H 309.482 0.0551439 -2.04426 0
M  V30 3205 H 307.637 2.29163 -3.12351 0
M  V30 3206 H 308.051 1.27205 -5.08841 0
M  V30 3207 H 309.525 2.932 -4.67694 0
M  V30 3208 H 310.002 3.2051 -3.00283 0
M  V30 3209 H 310.608 1.77283 -3.86589 0
M  V30 3210 N 308.923 1.53595 0.353017 0
M  V30 3211 C 310.148 1.7462 1.11904 0
M  V30 3212 C 310.573 0.479721 1.8188 0
M  V30 3213 O 309.931 -0.567066 1.72204 0
M  V30 3214 C 309.979 2.92029 2.11545 0
M  V30 3215 O 309.083 2.61516 3.18878 0
M  V30 3216 H 308.424 0.579531 0.324099 0
M  V30 3217 H 310.954 2.00525 0.406301 0
M  V30 3218 H 310.964 3.18551 2.5493 0
M  V30 3219 H 309.639 3.83888 1.60008 0
M  V30 3220 H 308.216 2.45852 2.80377 0
M  V30 3221 N 310.401 -0.613514 1.45168 0
M  V30 3222 C 311.65 -1.36874 1.4815 0
M  V30 3223 C 311.963 -1.952 0.124982 0
M  V30 3224 O 313.169 -2.71481 0.0324176 0
M  V30 3225 C 311.625 -2.47905 2.60904 0
M  V30 3226 C 311.233 -1.96016 4.02842 0
M  V30 3227 C 312.977 -3.24965 2.73126 0
M  V30 3228 C 310.884 -3.04494 5.06988 0
M  V30 3229 H 309.814 -0.514428 0.551253 0
M  V30 3230 H 312.465 -0.658182 1.7129 0
M  V30 3231 H 310.847 -3.21618 2.31037 0
M  V30 3232 H 312.021 -1.29051 4.4236 0
M  V30 3233 H 310.336 -1.31719 3.95018 0
M  V30 3234 H 312.933 -4.05865 3.48106 0
M  V30 3235 H 313.276 -3.75588 1.79553 0
M  V30 3236 H 313.809 -2.5835 3.0249 0
M  V30 3237 H 310.548 -2.58795 6.0225 0
M  V30 3238 H 310.068 -3.70044 4.72046 0
M  V30 3239 H 311.747 -3.68976 5.31475 0
M  V30 3240 N 311.879 -1.3236 -0.855495 0
M  V30 3241 C 313.109 -1.25688 -1.6397 0
M  V30 3242 C 313.517 0.177592 -1.88365 0
M  V30 3243 O 312.86 1.12485 -1.45234 0
M  V30 3244 C 312.922 -1.94602 -3.02275 0
M  V30 3245 C 312.586 -3.43937 -3.00926 0
M  V30 3246 C 313.583 -4.39435 -2.77835 0
M  V30 3247 C 311.268 -3.85858 -3.21588 0
M  V30 3248 C 313.262 -5.74829 -2.75409 0
M  V30 3249 C 310.949 -5.21361 -3.18789 0
M  V30 3250 C 311.947 -6.15658 -2.95727 0
M  V30 3251 O 311.635 -7.48681 -2.928 0
M  V30 3252 H 311.367 -0.434972 -0.51747 0
M  V30 3253 H 313.921 -1.75023 -1.075 0
M  V30 3254 H 312.151 -1.39836 -3.60531 0
M  V30 3255 H 313.84 -1.81651 -3.62985 0
M  V30 3256 H 314.606 -4.08374 -2.6164 0
M  V30 3257 H 310.485 -3.12883 -3.38564 0
M  V30 3258 H 314.029 -6.48404 -2.57328 0
M  V30 3259 H 309.926 -5.52052 -3.34528 0
M  V30 3260 H 310.694 -7.5803 -3.0876 0
M  V30 3261 N 313.357 1.07166 -1.15556 0
M  V30 3262 C 314.605 1.79443 -0.929764 0
M  V30 3263 C 314.926 1.87246 0.544414 0
M  V30 3264 O 314.196 1.37473 1.39564 0
M  V30 3265 H 312.776 0.664625 -0.341003 0
M  V30 3266 H 315.438 1.29499 -1.45657 0
M  V30 3267 H 314.534 2.81832 -1.34079 0
M  V30 3268 N 314.835 0.952656 1.25548 0
M  V30 3269 C 315.745 0.47782 2.29682 0
M  V30 3270 C 316.761 -0.453859 1.67977 0
M  V30 3271 O 317.937 -0.330587 1.98668 0
M  V30 3272 C 315.002 -0.238655 3.45878 0
M  V30 3273 C 314.063 0.730994 4.23031 0
M  V30 3274 C 313.296 0.0486165 5.33678 0
M  V30 3275 O 313.519 -1.16612 5.58353 0
M  V30 3276 O 312.453 0.733152 5.97418 0
M  V30 3277 H 316.279 1.34312 2.72386 0
M  V30 3278 H 313.864 0.719026 1.30959 0
M  V30 3279 H 315.746 -0.641774 4.16484 0
M  V30 3280 H 314.421 -1.07916 3.05181 0
M  V30 3281 H 313.328 1.18428 3.5486 0
M  V30 3282 H 314.661 1.53946 4.67506 0
M  V30 3283 N 316.313 -1.40141 0.720998 0
M  V30 3284 C 317.261 -2.3252 0.0608547 0
M  V30 3285 C 318.255 -1.52326 -0.741152 0
M  V30 3286 O 319.461 -1.68089 -0.643911 0
M  V30 3287 H 315.836 -0.751999 0.000876664 0
M  V30 3288 H 317.807 -2.8584 0.856614 0
M  V30 3289 C 316.556 -3.37331 -0.842809 0
M  V30 3290 H 315.879 -3.99108 -0.235084 0
M  V30 3291 H 317.319 -4.04452 -1.27257 0
M  V30 3292 C 315.778 -2.73246 -1.97074 0
M  V30 3293 O 316.308 -2.59998 -3.06209 0
M  V30 3294 N 314.514 -2.31547 -1.75597 0
M  V30 3295 H 314.061 -2.42522 -0.868368 0
M  V30 3296 H 314.019 -1.89007 -2.51244 0
M  V30 3297 N 317.792 -0.46758 -1.50504 0
M  V30 3298 C 319.208 -0.121533 -1.59137 0
M  V30 3299 C 319.408 1.3717 -1.47603 0
M  V30 3300 O 318.464 2.14464 -1.33272 0
M  V30 3301 C 319.777 -0.6686 -2.93173 0
M  V30 3302 C 321.325 -0.631716 -3.06559 0
M  V30 3303 C 321.8 -1.15627 -4.43164 0
M  V30 3304 N 323.291 -1.11553 -4.49567 0
M  V30 3305 C 324.026 -1.49195 -5.5365 0
M  V30 3306 N 323.522 -1.94269 -6.65005 0
M  V30 3307 N 325.315 -1.4082 -5.44175 0
M  V30 3308 H 317.466 -1.4388 -1.56245 0
M  V30 3309 H 319.729 -0.594784 -0.738198 0
M  V30 3310 H 319.435 -1.71453 -3.07078 0
M  V30 3311 H 319.309 -0.11021 -3.77039 0
M  V30 3312 H 321.696 0.405297 -2.92304 0
M  V30 3313 H 321.777 -1.22687 -2.24458 0
M  V30 3314 H 321.421 -2.1919 -4.58168 0
M  V30 3315 H 321.351 -0.537365 -5.23851 0
M  V30 3316 H 323.842 -0.784895 -3.69659 0
M  V30 3317 H 324.155 -2.21148 -7.40482 0
M  V30 3318 H 322.5 -1.98219 -6.66134 0
M  V30 3319 H 325.691 -1.0545 -4.56068 0
M  V30 3320 H 325.864 -1.70481 -6.25172 0
M  V30 3321 O 319.309 1.5785 -0.341429 0
M  V30 3322 H 320 1.92508 0.21453 0
M  V30 END ATOM
M  V30 BEGIN BOND
M  V30 END BOND
M  V30 END CTAB
M  END
$$$$
