drugbank_target|P05106 Integrin beta-3 (DB00054; DB00063; DB00098; DB00451; DB00775; DB02709; DB04863; DB05787; DB06472; DB15598)
 OpenBabel12092119483D

  0  0  0     0  0            999 V3000
M  V30 BEGIN CTAB
M  V30 COUNTS 11958 12071 0 0 0
M  V30 BEGIN ATOM
M  V30 1 H -0.908 1.98254 -0.117106 0
M  V30 2 N 0 1.576 0 0
M  V30 3 C 0.933 2.03868 1.02534 0
M  V30 4 C 1.911 0.928543 1.3348 0
M  V30 5 O 3.095 1.19667 1.45644 0
M  V30 6 C 0.222 2.43627 2.35294 0
M  V30 7 C -0.732 3.65373 2.2001 0
M  V30 8 S 0.101 5.13292 1.52614 0
M  V30 9 C 1.257 5.56322 2.86805 0
M  V30 10 H 1.49 2.90518 0.631377 0
M  V30 11 H -0.977 1.52953 0.210867 0
M  V30 12 H 0.981 2.67203 3.11629 0
M  V30 13 H -0.358 1.57376 2.7183 0
M  V30 14 H -1.165 3.90944 3.18086 0
M  V30 15 H -1.563 3.418 1.51819 0
M  V30 16 H 0.729 5.58782 3.83104 0
M  V30 17 H 1.672 6.56266 2.65933 0
M  V30 18 H 2.08 4.83886 2.90714 0
M  V30 19 N 1.4781 -0.272755 1.55222 0
M  V30 20 C 2.8941 -0.619959 1.47067 0
M  V30 21 C 3.0941 -1.895 0.684978 0
M  V30 22 O 2.1501 -2.51675 0.203931 0
M  V30 23 C 3.4631 -0.746693 2.91282 0
M  V30 24 C 5.0111 -0.840731 3.01497 0
M  V30 25 C 5.4861 -0.99924 4.46967 0
M  V30 26 N 6.9771 -1.06476 4.50796 0
M  V30 27 C 7.7121 -1.20621 5.6057 0
M  V30 28 N 7.2081 -1.31483 6.80209 0
M  V30 29 N 9.0011 -1.23733 5.48312 0
M  V30 30 H 1.1521 0.564606 2.04758 0
M  V30 31 H 3.4151 0.191177 0.928523 0
M  V30 32 H 3.1211 0.119753 3.51496 0
M  V30 33 H 2.9951 -1.6269 3.40311 0
M  V30 34 H 5.3821 -1.69764 2.41379 0
M  V30 35 H 5.4631 0.0640874 2.5572 0
M  V30 36 H 5.1071 -0.146984 5.07687 0
M  V30 37 H 5.0371 -1.91871 4.90401 0
M  V30 38 H 7.5281 -0.993196 3.64615 0
M  V30 39 H 7.8411 -1.42111 7.59621 0
M  V30 40 H 6.1861 -1.28487 6.8302 0
M  V30 41 H 9.3771 -1.14877 4.53785 0
M  V30 42 H 9.5501 -1.34412 6.33906 0
M  V30 43 N 2.9562 -1.48159 -0.537278 0
M  V30 44 C 3.9192 -1.61665 -1.62472 0
M  V30 45 C 4.9192 -0.490395 -1.5314 0
M  V30 46 O 6.1092 -0.755998 -1.5694 0
M  V30 47 C 3.2412 -1.57997 -3.02076 0
M  V30 48 H 4.4342 -2.58621 -1.51839 0
M  V30 49 H 1.9872 -1.36647 -0.758771 0
M  V30 50 H 2.7222 -0.624913 -3.18222 0
M  V30 51 H 2.5072 -2.39755 -3.10258 0
M  V30 52 H 3.9972 -1.70627 -3.81151 0
M  V30 53 N 4.4343 0.785586 -1.36625 0
M  V30 54 C 5.8503 1.08419 -1.17122 0
M  V30 55 C 6.0503 2.015 0.00208491 0
M  V30 56 O 5.1063 2.43551 0.666278 0
M  V30 57 C 6.4193 1.69498 -2.48377 0
M  V30 58 C 7.9673 1.81821 -2.54775 0
M  V30 59 C 8.4423 2.46315 -3.86126 0
M  V30 60 N 9.9333 2.53779 -3.87492 0
M  V30 61 C 10.6683 3.045 -4.85868 0
M  V30 62 N 10.1643 3.55499 -5.94637 0
M  V30 63 N 11.9573 3.03247 -4.73284 0
M  V30 64 H 4.1083 0.167264 -2.1174 0
M  V30 65 H 6.3713 0.13682 -0.938075 0
M  V30 66 H 6.0773 1.08571 -3.34522 0
M  V30 67 H 5.9513 2.6896 -2.64462 0
M  V30 68 H 8.3383 2.41884 -1.69045 0
M  V30 69 H 8.4193 0.811532 -2.42586 0
M  V30 70 H 8.0633 1.86895 -4.72263 0
M  V30 71 H 7.9933 3.47561 -3.95612 0
M  V30 72 H 10.4843 2.17672 -3.08913 0
M  V30 73 H 10.7973 3.92562 -6.65669 0
M  V30 74 H 9.1423 3.5364 -5.98301 0
M  V30 75 H 12.3333 2.62696 -3.87438 0
M  V30 76 H 12.5063 3.42467 -5.50109 0
M  V30 77 N 5.9124 1.20967 1.01018 0
M  V30 78 C 7.3234 1.02319 1.56165 0
M  V30 79 C 7.6744 -0.418546 1.91684 0
M  V30 80 O 6.7994 -1.30096 1.72928 0
M  V30 81 C 7.3944 1.85109 2.8376 0
M  V30 82 C 5.9534 1.70809 3.35412 0
M  V30 83 C 5.1004 1.82643 2.08655 0
M  V30 84 H 8.0514 1.35065 0.833255 0
M  V30 85 H 8.0724 1.35827 3.55431 0
M  V30 86 H 7.5844 2.90035 2.57878 0
M  V30 87 H 5.6854 0.685464 3.66241 0
M  V30 88 H 5.7984 2.52467 4.07182 0
M  V30 89 H 4.1624 1.25896 2.21409 0
M  V30 90 H 4.9454 2.89066 1.85191 0
M  V30 91 N 7.3905 -1.2043 1.01659 0
M  V30 92 C 8.8065 -1.41852 0.731442 0
M  V30 93 C 9.0065 -1.89358 -0.688898 0
M  V30 94 O 8.0625 -2.06247 -1.45666 0
M  V30 95 C 9.3755 -2.44019 1.75714 0
M  V30 96 C 10.9235 -2.57785 1.77527 0
M  V30 97 C 11.3985 -3.63194 2.79023 0
M  V30 98 N 12.8895 -3.70678 2.77763 0
M  V30 99 C 13.6245 -4.51897 3.52954 0
M  V30 100 N 13.1205 -5.36921 4.37821 0
M  V30 101 N 14.9135 -4.4643 3.41551 0
M  V30 102 H 7.0645 -0.879093 1.93354 0
M  V30 103 H 9.3275 -0.448425 0.835236 0
M  V30 104 H 9.0335 -2.1611 2.77469 0
M  V30 105 H 8.9075 -3.43007 1.56927 0
M  V30 106 H 11.2945 -2.85023 0.764569 0
M  V30 107 H 11.3755 -1.58992 2.00387 0
M  V30 108 H 11.0195 -3.36699 3.80258 0
M  V30 109 H 10.9495 -4.61609 2.53425 0
M  V30 110 H 13.4405 -3.09944 2.16201 0
M  V30 111 H 13.7535 -5.95981 4.91962 0
M  V30 112 H 12.0985 -5.36424 4.41899 0
M  V30 113 H 15.2895 -3.79042 2.74672 0
M  V30 114 H 15.4625 -5.09491 4.00404 0
M  V30 115 N 8.8686 -0.792821 -1.36206 0
M  V30 116 C 10.2796 -0.429513 -1.81692 0
M  V30 117 C 10.6306 1.04695 -1.65932 0
M  V30 118 O 9.7556 1.81256 -1.18218 0
M  V30 119 C 10.3506 -0.772831 -3.29868 0
M  V30 120 C 8.9096 -0.462307 -3.7355 0
M  V30 121 C 8.0566 -1.00569 -2.5842 0
M  V30 122 H 11.0076 -0.985672 -1.24379 0
M  V30 123 H 11.0286 -0.0651928 -3.80444 0
M  V30 124 H 10.5406 -1.84747 -3.41307 0
M  V30 125 H 8.6416 0.604158 -3.67669 0
M  V30 126 H 8.7546 -0.985299 -4.68859 0
M  V30 127 H 7.1186 -0.428734 -2.51066 0
M  V30 128 H 7.9016 -2.08616 -2.72643 0
M  V30 129 N 10.3467 1.47872 -0.545128 0
M  V30 130 C 11.7627 1.5829 -0.204032 0
M  V30 131 C 11.9627 1.54529 1.29317 0
M  V30 132 O 11.0187 1.44232 2.07252 0
M  V30 133 C 12.3317 2.89304 -0.819987 0
M  V30 134 C 13.8797 3.02864 -0.790105 0
M  V30 135 C 14.3547 4.3656 -1.38491 0
M  V30 136 N 15.8457 4.43165 -1.34755 0
M  V30 137 C 16.5807 5.45153 -1.77753 0
M  V30 138 N 16.0767 6.54016 -2.2855 0
M  V30 139 N 17.8697 5.36125 -1.68897 0
M  V30 140 H 10.0207 1.4856 -1.51802 0
M  V30 141 H 12.2837 0.706305 -0.632327 0
M  V30 142 H 11.9897 2.97757 -1.87173 0
M  V30 143 H 11.8637 3.75957 -0.305915 0
M  V30 144 H 14.2507 2.94014 0.252913 0
M  V30 145 H 14.3317 2.17782 -1.34181 0
M  V30 146 H 13.9757 4.46164 -2.42693 0
M  V30 147 H 13.9057 5.20353 -0.808754 0
M  V30 148 H 16.3967 3.65083 -0.975855 0
M  V30 149 H 16.7097 7.27994 -2.59314 0
M  V30 150 H 15.0547 6.54938 -2.32553 0
M  V30 151 H 18.2457 4.49975 -1.28998 0
M  V30 152 H 18.4187 6.15472 -2.02726 0
M  V30 153 N 11.8248 0.280983 1.55075 0
M  V30 154 C 13.2358 -0.215629 1.85451 0
M  V30 155 C 13.5868 -1.54991 1.203 0
M  V30 156 O 12.7118 -2.10699 0.493435 0
M  V30 157 C 13.3068 -0.398026 3.36454 0
M  V30 158 C 11.8658 -0.838866 3.66933 0
M  V30 159 C 11.0128 0.064458 2.77225 0
M  V30 160 H 13.9638 0.502601 1.50531 0
M  V30 161 H 13.9848 -1.23569 3.59876 0
M  V30 162 H 13.4968 0.573241 3.83843 0
M  V30 163 H 11.5978 -1.8214 3.25048 0
M  V30 164 H 11.7108 -0.672123 4.74362 0
M  V30 165 H 10.0748 -0.452863 2.50642 0
M  V30 166 H 10.8578 1.03172 3.2743 0
M  V30 167 N 13.3029 -1.57598 0.00835791 0
M  V30 168 C 14.2329 -2.1198 -0.979113 0
M  V30 169 C 15.2139 -1.03091 -1.35301 0
M  V30 170 O 16.3989 -1.30818 -1.43528 0
M  V30 171 C 13.5289 -2.62995 -2.26828 0
M  V30 172 C 12.4829 -3.76485 -2.03576 0
M  V30 173 C 11.8089 -4.13846 -3.38579 0
M  V30 174 C 13.1089 -5.0342 -1.39161 0
M  V30 175 H 14.8029 -2.94738 -0.526281 0
M  V30 176 H 12.3489 -1.41783 -0.251704 0
M  V30 177 H 14.3019 -2.99669 -2.96271 0
M  V30 178 H 13.0259 -1.7737 -2.7424 0
M  V30 179 H 11.6849 -3.40217 -1.36557 0
M  V30 180 H 11.3329 -3.25232 -3.83709 0
M  V30 181 H 11.0329 -4.90312 -3.23834 0
M  V30 182 H 12.5569 -4.53086 -4.09323 0
M  V30 183 H 13.9709 -5.37812 -1.98573 0
M  V30 184 H 12.3679 -5.84746 -1.34878 0
M  V30 185 H 13.4379 -4.83548 -0.361868 0
M  V30 186 N 14.781 0.264519 -1.55364 0
M  V30 187 C 16.027 0.992314 -1.77552 0
M  V30 188 C 16.382 1.83626 -0.574379 0
M  V30 189 O 15.675 1.86648 0.432782 0
M  V30 190 C 15.869 1.9004 -3.02687 0
M  V30 191 C 15.698 1.14583 -4.34857 0
M  V30 192 C 14.468 0.858068 -4.97961 0
M  V30 193 C 16.666 0.532069 -5.1154 0
M  V30 194 N 14.648 0.0775974 -6.13851 0
M  V30 195 C 16.019 -0.113823 -6.19896 0
M  V30 196 C 18.074 0.440763 -4.95945 0
M  V30 197 C 16.777 -0.842231 -7.14352 0
M  V30 198 C 18.803 -0.274072 -5.90765 0
M  V30 199 C 18.165 -0.90867 -6.98515 0
M  V30 200 H 14.264 0.344811 -0.701875 0
M  V30 201 H 16.848 0.267141 -1.92859 0
M  V30 202 H 15.019 2.59775 -2.88741 0
M  V30 203 H 16.751 2.56243 -3.13243 0
M  V30 204 H 13.506 1.16547 -4.59036 0
M  V30 205 H 13.93 -0.300216 -6.76334 0
M  V30 206 H 18.572 0.917064 -4.12735 0
M  V30 207 H 16.29 -1.33019 -7.97077 0
M  V30 208 H 19.876 -0.345151 -5.80775 0
M  V30 209 H 18.756 -1.45299 -7.70622 0
M  V30 210 N 16.2591 1.48442 0.529413 0
M  V30 211 C 17.2221 1.62524 1.61612 0
M  V30 212 C 18.2221 0.498509 1.52877 0
M  V30 213 O 19.4121 0.76431 1.56537 0
M  V30 214 C 16.5441 1.59597 3.01233 0
M  V30 215 H 17.7371 2.59423 1.50465 0
M  V30 216 H 15.2901 1.37047 0.751514 0
M  V30 217 H 16.0251 0.641781 3.17886 0
M  V30 218 H 15.8101 2.41397 3.08982 0
M  V30 219 H 17.3001 1.72646 3.80241 0
M  V30 220 N 17.7372 -0.778329 1.37039 0
M  V30 221 C 18.9652 -1.56734 1.35063 0
M  V30 222 C 19.3802 -1.88686 -0.0655597 0
M  V30 223 O 18.7372 -1.5096 -1.02554 0
M  V30 224 C 18.7882 -2.88163 2.18276 0
M  V30 225 O 18.5092 -2.57583 3.54376 0
M  V30 226 C 20.0102 -3.82422 2.24206 0
M  V30 227 H 17.2302 -0.485778 0.462883 0
M  V30 228 H 19.7742 -0.965185 1.8029 0
M  V30 229 H 17.9292 -3.44818 1.76576 0
M  V30 230 H 18.3432 -3.41699 3.97922 0
M  V30 231 H 19.8172 -4.71667 2.86765 0
M  V30 232 H 20.2942 -4.21078 1.24861 0
M  V30 233 H 20.9002 -3.31697 2.6619 0
M  V30 234 N 19.2153 -1.21501 -1.00376 0
M  V30 235 C 20.4613 -1.03452 -1.74429 0
M  V30 236 C 20.7943 0.430764 -1.89362 0
M  V30 237 O 20.0693 1.31962 -1.42886 0
M  V30 238 C 20.3523 -1.73375 -3.15615 0
M  V30 239 C 20.2053 -3.27431 -3.08397 0
M  V30 240 C 21.5243 -1.47732 -4.14564 0
M  V30 241 H 18.6433 -0.377226 -0.633143 0
M  V30 242 H 21.2853 -1.49693 -1.17013 0
M  V30 243 H 19.4353 -1.34064 -3.64636 0
M  V30 244 H 21.1073 -3.76119 -2.67081 0
M  V30 245 H 19.3503 -3.5767 -2.45468 0
M  V30 246 H 20.0213 -3.71524 -4.08258 0
M  V30 247 H 22.4973 -1.8186 -3.74254 0
M  V30 248 H 21.3733 -1.99169 -5.11491 0
M  V30 249 H 21.6343 -0.407589 -4.40217 0
M  V30 250 N 20.6934 1.19889 -1.02296 0
M  V30 251 C 21.6234 2.25141 -0.619174 0
M  V30 252 C 22.6044 1.66051 0.368915 0
M  V30 253 O 23.7894 1.92546 0.252941 0
M  V30 254 C 20.9194 3.4728 0.0368783 0
M  V30 255 C 19.8734 4.19005 -0.872865 0
M  V30 256 C 19.1994 5.34637 -0.0822402 0
M  V30 257 C 20.4994 4.74452 -2.18387 0
M  V30 258 H 22.1934 2.59171 -1.49903 0
M  V30 259 H 19.7394 1.24579 -0.722222 0
M  V30 260 H 21.6924 4.20098 0.330958 0
M  V30 261 H 20.4164 3.12433 0.95149 0
M  V30 262 H 19.0754 3.48061 -1.15105 0
M  V30 263 H 18.7234 4.96034 0.83422 0
M  V30 264 H 18.4234 5.83557 -0.688149 0
M  V30 265 H 19.9474 6.10255 0.205238 0
M  V30 266 H 21.3614 5.39055 -1.95172 0
M  V30 267 H 19.7584 5.33834 -2.74119 0
M  V30 268 H 20.8284 3.92844 -2.84257 0
M  V30 269 N 22.1715 0.800033 1.35784 0
M  V30 270 C 23.1345 0.211565 2.28221 0
M  V30 271 C 24.1345 -0.59728 1.49296 0
M  V30 272 O 25.3245 -0.416721 1.69142 0
M  V30 273 C 22.4565 -0.705846 3.33513 0
M  V30 274 H 23.6495 1.02677 2.81776 0
M  V30 275 H 21.2025 0.570211 1.45528 0
M  V30 276 H 21.9375 -1.54498 2.85133 0
M  V30 277 H 21.7225 -0.127655 3.91892 0
M  V30 278 H 23.2125 -1.11211 4.02519 0
M  V30 279 N 23.6496 -1.47581 0.552962 0
M  V30 280 C 24.5796 -2.32762 -0.185451 0
M  V30 281 C 25.5606 -1.43527 -0.912905 0
M  V30 282 O 26.7456 -1.72388 -0.894201 0
M  V30 283 C 23.8756 -3.25219 -1.21859 0
M  V30 284 C 22.8296 -4.23661 -0.607864 0
M  V30 285 C 22.1556 -5.05413 -1.74533 0
M  V30 286 C 23.4556 -5.20481 0.435582 0
M  V30 287 H 25.1496 -2.94749 0.525684 0
M  V30 288 H 22.6956 -1.41738 0.254251 0
M  V30 289 H 24.6486 -3.8365 -1.7433 0
M  V30 290 H 23.3726 -2.61279 -1.95961 0
M  V30 291 H 22.0316 -3.66451 -0.104489 0
M  V30 292 H 21.6796 -4.3788 -2.47529 0
M  V30 293 H 21.3796 -5.72059 -1.34249 0
M  V30 294 H 22.9036 -5.66701 -2.27338 0
M  V30 295 H 24.3176 -5.733 -0.00290157 0
M  V30 296 H 22.7146 -5.95305 0.757067 0
M  V30 297 H 23.7846 -4.66217 1.33303 0
M  V30 298 N 25.1277 -0.289203 -1.54924 0
M  V30 299 C 26.3757 0.322879 -1.99504 0
M  V30 300 C 26.6967 1.55313 -1.1791 0
M  V30 301 O 25.9667 1.94001 -0.272097 0
M  V30 302 H 24.5467 0.122291 -0.736922 0
M  V30 303 H 27.2087 -0.397802 -1.90797 0
M  V30 304 H 26.3047 0.603061 -3.06218 0
M  V30 305 N 26.6058 1.57591 -0.0167156 0
M  V30 306 C 27.5688 2.08393 0.954204 0
M  V30 307 C 28.5688 0.996531 1.26198 0
M  V30 308 O 29.7588 1.25858 1.20438 0
M  V30 309 C 26.8908 2.5394 2.27436 0
M  V30 310 H 28.0838 2.95455 0.514451 0
M  V30 311 H 25.6368 1.54582 0.231089 0
M  V30 312 H 26.3718 1.70171 2.76066 0
M  V30 313 H 26.1568 3.33371 2.06412 0
M  V30 314 H 27.6468 2.93512 2.97053 0
M  V30 315 N 28.0839 -0.256276 1.55502 0
M  V30 316 C 29.0139 -1.32102 1.92539 0
M  V30 317 C 29.9949 -1.50684 0.789194 0
M  V30 318 O 31.1799 -1.63449 1.04872 0
M  V30 319 C 28.3099 -2.67752 2.21192 0
M  V30 320 C 27.2639 -2.63878 3.36975 0
M  V30 321 C 26.5899 -4.03236 3.51147 0
M  V30 322 C 27.8899 -2.21682 4.72921 0
M  V30 323 H 29.5839 -1.01351 2.81724 0
M  V30 324 H 27.1299 -0.486105 1.35547 0
M  V30 325 H 29.0829 -3.42365 2.45691 0
M  V30 326 H 27.8069 -3.0012 1.28824 0
M  V30 327 H 26.4659 -1.91722 3.12471 0
M  V30 328 H 26.1139 -4.32854 2.56216 0
M  V30 329 H 25.8139 -4.01535 4.29003 0
M  V30 330 H 27.3379 -4.79563 3.77957 0
M  V30 331 H 28.7519 -2.86023 4.96854 0
M  V30 332 H 27.1489 -2.3111 5.53812 0
M  V30 333 H 28.2189 -1.16833 4.70615 0
M  V30 334 N 29.562 -1.4872 -0.521534 0
M  V30 335 C 30.525 -1.63379 -1.60748 0
M  V30 336 C 31.525 -0.50661 -1.52611 0
M  V30 337 O 32.715 -0.772601 -1.5613 0
M  V30 338 C 29.847 -1.61192 -3.00383 0
M  V30 339 H 31.04 -2.60217 -1.49087 0
M  V30 340 H 28.593 -1.37444 -0.744235 0
M  V30 341 H 29.328 -0.65863 -3.17541 0
M  V30 342 H 29.113 -2.43032 -3.07698 0
M  V30 343 H 30.603 -1.7466 -3.7932 0
M  V30 344 N 31.0401 0.771051 -1.3745 0
M  V30 345 C 32.2881 1.52661 -1.32435 0
M  V30 346 C 32.6091 1.9479 0.0905024 0
M  V30 347 O 31.8791 1.66348 1.03466 0
M  V30 348 H 30.4591 0.566218 -0.487244 0
M  V30 349 H 33.1211 0.917636 -1.71946 0
M  V30 350 H 32.2171 2.42568 -1.96385 0
M  V30 351 N 32.5182 1.22032 0.997298 0
M  V30 352 C 33.7642 1.04376 1.73878 0
M  V30 353 C 34.0972 -0.420716 1.89588 0
M  V30 354 O 33.3722 -1.31202 1.43583 0
M  V30 355 C 33.6552 1.75047 3.14691 0
M  V30 356 C 33.5082 3.29062 3.06656 0
M  V30 357 C 34.8272 1.49928 4.13775 0
M  V30 358 H 31.9462 0.380578 0.631133 0
M  V30 359 H 34.5882 1.50312 1.16217 0
M  V30 360 H 32.7382 1.35996 3.63919 0
M  V30 361 H 34.4102 3.7753 2.65083 0
M  V30 362 H 32.6532 3.58967 2.43568 0
M  V30 363 H 33.3242 3.73683 4.06282 0
M  V30 364 H 35.8002 1.83842 3.73285 0
M  V30 365 H 34.6762 2.01878 5.10428 0
M  V30 366 H 34.9372 0.430929 4.39995 0
M  V30 367 N 33.9963 -1.19345 1.0293 0
M  V30 368 C 35.2443 -1.88665 0.724574 0
M  V30 369 C 35.5653 -1.80036 -0.749144 0
M  V30 370 O 34.8353 -1.2111 -1.53978 0
M  V30 371 H 33.4153 -0.698406 0.265025 0
M  V30 372 H 36.0773 -1.44885 1.30362 0
M  V30 373 H 35.1733 -2.94987 1.01926 0
M  V30 374 N 35.4744 -0.807222 -1.35358 0
M  V30 375 C 36.7204 -0.388463 -1.99045 0
M  V30 376 C 37.0534 1.04184 -1.63888 0
M  V30 377 O 36.3284 1.72292 -0.902535 0
M  V30 378 C 36.6114 -0.572783 -3.55515 0
M  V30 379 C 36.4644 -2.04807 -4.00468 0
M  V30 380 C 37.7834 0.00114064 -4.401 0
M  V30 381 H 34.9024 -0.142619 -0.723069 0
M  V30 382 H 37.5444 -1.01687 -1.60498 0
M  V30 383 H 35.6944 -0.0378425 -3.88482 0
M  V30 384 H 37.3664 -2.64544 -3.77908 0
M  V30 385 H 35.6094 -2.54427 -3.51353 0
M  V30 386 H 36.2804 -2.12792 -5.09337 0
M  V30 387 H 38.7564 -0.455716 -4.13597 0
M  V30 388 H 37.6324 -0.157737 -5.48673 0
M  V30 389 H 37.8934 1.09488 -4.28328 0
M  V30 390 N 36.9525 1.47285 -0.560781 0
M  V30 391 C 38.2005 2.02064 -0.0379868 0
M  V30 392 C 38.5215 1.43711 1.31803 0
M  V30 393 O 37.7915 0.61362 1.86042 0
M  V30 394 H 36.3715 0.746918 -0.0110531 0
M  V30 395 H 39.0335 1.80648 -0.731598 0
M  V30 396 H 38.1295 3.12064 0.0474463 0
M  V30 397 N 38.4306 0.297415 1.54768 0
M  V30 398 C 39.6786 -0.312295 1.99673 0
M  V30 399 C 39.9996 -1.54686 1.18732 0
M  V30 400 O 39.2696 -1.93854 0.282382 0
M  V30 401 H 37.8496 -0.118381 0.73756 0
M  V30 402 H 40.5116 0.407915 1.90583 0
M  V30 403 H 39.6076 -0.586813 3.06534 0
M  V30 404 N 39.9087 -1.5758 0.0250728 0
M  V30 405 C 41.3197 -1.79476 -0.514323 0
M  V30 406 C 41.6707 -0.934956 -1.72491 0
M  V30 407 O 40.7957 -0.144245 -2.15919 0
M  V30 408 C 41.3907 -3.25503 -0.939842 0
M  V30 409 C 39.9497 -3.48408 -1.42438 0
M  V30 410 C 39.0967 -2.74583 -0.387201 0
M  V30 411 H 42.0477 -1.567 0.25113 0
M  V30 412 H 42.0687 -3.34992 -1.80445 0
M  V30 413 H 41.5807 -3.88056 -0.0585628 0
M  V30 414 H 39.6817 -2.91103 -2.32572 0
M  V30 415 H 39.7947 -4.57119 -1.43455 0
M  V30 416 H 38.1587 -2.39942 -0.854409 0
M  V30 417 H 38.9417 -3.39849 0.485543 0
M  V30 418 N 41.3868 0.248026 -1.55636 0
M  V30 419 C 42.3348 1.32683 -1.91045 0
M  V30 420 C 43.3288 1.49883 -0.789401 0
M  V30 421 O 44.5348 1.51371 -0.974007 0
M  V30 422 H 40.9098 0.444272 -0.606734 0
M  V30 423 H 42.8808 1.00085 -2.81115 0
M  V30 424 C 41.6298 2.6755 -2.22064 0
M  V30 425 H 40.9528 2.55114 -3.07826 0
M  V30 426 H 42.3928 3.41912 -2.50743 0
M  V30 427 C 40.8518 3.20556 -1.0366 0
M  V30 428 O 41.3818 4.00695 -0.284016 0
M  V30 429 N 39.5878 2.78568 -0.82753 0
M  V30 430 H 39.1348 2.1351 -1.44123 0
M  V30 431 H 39.0928 3.14378 -0.0369803 0
M  V30 432 N 42.8649 1.48995 0.513639 0
M  V30 433 C 44.1139 1.57093 1.2651 0
M  V30 434 C 44.4269 0.257091 1.93903 0
M  V30 435 O 45.6329 0.216478 2.70636 0
M  V30 436 C 44.0889 2.77118 2.29638 0
M  V30 437 C 43.6969 4.15209 1.68241 0
M  V30 438 C 45.4409 2.94538 3.05692 0
M  V30 439 C 43.3479 5.26474 2.69406 0
M  V30 440 H 42.2779 0.584876 0.475854 0
M  V30 441 H 44.9289 1.7536 0.540487 0
M  V30 442 H 43.3109 2.52319 3.05207 0
M  V30 443 H 44.4849 4.50094 0.987505 0
M  V30 444 H 42.7999 4.03042 1.04623 0
M  V30 445 H 45.3969 3.74832 3.8132 0
M  V30 446 H 45.7399 2.04614 3.62545 0
M  V30 447 H 46.2729 3.19316 2.37238 0
M  V30 448 H 43.0119 6.18417 2.17351 0
M  V30 449 H 42.5319 4.96058 3.37175 0
M  V30 450 H 44.2109 5.55277 3.32078 0
M  V30 451 N 44.343 -0.763751 1.37857 0
M  V30 452 C 45.583 -1.53551 1.34913 0
M  V30 453 C 45.947 -1.91895 -0.0635882 0
M  V30 454 O 47.148 -2.67916 -0.217825 0
M  V30 455 C 45.419 -2.76126 2.26912 0
M  V30 456 S 46.978 -3.66105 2.41893 0
M  V30 457 H 43.796 -0.52559 0.478828 0
M  V30 458 H 46.398 -0.897435 1.73685 0
M  V30 459 H 45.102 -2.4605 3.28463 0
M  V30 460 H 44.633 -3.44887 1.89253 0
M  V30 461 H 46.648 -4.68473 1.63545 0
M  V30 462 N 45.8211 -1.22559 -0.990812 0
M  V30 463 C 47.0491 -1.07779 -1.76611 0
M  V30 464 C 47.4641 0.371513 -1.85109 0
M  V30 465 O 46.8211 1.25737 -1.32274 0
M  V30 466 C 46.8721 -1.68512 -3.19822 0
M  V30 467 O 46.5931 -3.07774 -3.1178 0
M  V30 468 C 48.0941 -1.59035 -4.13791 0
M  V30 469 H 45.3141 -0.377729 -0.554583 0
M  V30 470 H 47.8581 -1.62195 -1.24551 0
M  V30 471 H 46.0131 -1.18154 -3.68942 0
M  V30 472 H 46.4271 -3.37062 -4.01858 0
M  V30 473 H 47.9011 -2.0625 -5.1202 0
M  V30 474 H 48.3781 -0.547273 -4.35777 0
M  V30 475 H 48.9841 -2.08709 -3.70568 0
M  V30 476 N 47.2992 1.18797 -1.03562 0
M  V30 477 C 48.5272 1.92599 -0.755869 0
M  V30 478 C 48.9422 1.75886 0.686271 0
M  V30 479 O 48.2992 1.08517 1.46732 0
M  V30 480 C 48.3502 3.44159 -1.10619 0
M  V30 481 O 48.0712 3.60341 -2.4917 0
M  V30 482 C 49.5722 4.3507 -0.850214 0
M  V30 483 H 46.7922 0.611587 -0.276048 0
M  V30 484 H 49.3362 1.50742 -1.38192 0
M  V30 485 H 47.4912 3.83823 -0.525194 0
M  V30 486 H 47.9052 4.54128 -2.62427 0
M  V30 487 H 49.3792 5.39989 -1.14523 0
M  V30 488 H 49.8562 4.38673 0.215176 0
M  V30 489 H 50.4622 4.01097 -1.41426 0
M  V30 490 N 48.7773 0.814389 1.34928 0
M  V30 491 C 50.1933 0.499084 1.51596 0
M  V30 492 C 50.3933 -0.978319 1.76157 0
M  V30 493 O 49.4493 -1.76309 1.80752 0
M  V30 494 C 50.7623 1.35121 2.68631 0
M  V30 495 C 52.3103 1.34746 2.82511 0
M  V30 496 C 52.7853 2.18388 4.0258 0
M  V30 497 N 54.2763 2.15966 4.09772 0
M  V30 498 C 55.0113 2.77437 5.01813 0
M  V30 499 N 54.5073 3.47866 5.99134 0
M  V30 500 N 56.3003 2.67037 4.94619 0
M  V30 501 H 48.4513 1.7711 1.17243 0
M  V30 502 H 50.7143 0.754256 0.574284 0
M  V30 503 H 50.4203 2.40001 2.57085 0
M  V30 504 H 50.2943 1.00991 3.63429 0
M  V30 505 H 52.6813 0.30648 2.93504 0
M  V30 506 H 52.7623 1.72869 1.88547 0
M  V30 507 H 52.4063 3.2253 3.92347 0
M  V30 508 H 52.3363 1.77621 4.9574 0
M  V30 509 H 54.8273 1.64729 3.40107 0
M  V30 510 H 55.1403 3.92038 6.65977 0
M  V30 511 H 53.4853 3.51972 5.99284 0
M  V30 512 H 56.6763 2.11597 4.17546 0
M  V30 513 H 56.8493 3.15232 5.66156 0
M  V30 514 N 50.2554 -1.46986 0.568584 0
M  V30 515 C 51.5034 -2.02041 0.0487022 0
M  V30 516 C 51.8244 -1.44408 -1.31039 0
M  V30 517 O 51.0944 -0.623477 -1.85714 0
M  V30 518 H 49.6744 -0.746849 0.015014 0
M  V30 519 H 52.3364 -1.80257 0.741168 0
M  V30 520 H 51.4324 -3.12085 -0.0308961 0
M  V30 521 N 51.7335 -0.305618 -1.54608 0
M  V30 522 C 52.9795 0.302746 -2.00528 0
M  V30 523 C 53.3125 1.53184 -1.19367 0
M  V30 524 O 52.5875 1.92598 -0.271321 0
M  V30 525 C 52.8705 0.654756 -3.54097 0
M  V30 526 C 52.7235 -0.583793 -4.45995 0
M  V30 527 C 54.0425 1.47947 -4.14487 0
M  V30 528 H 51.1615 0.108564 -0.72896 0
M  V30 529 H 53.8035 -0.418634 -1.85331 0
M  V30 530 H 51.9535 1.26935 -3.67178 0
M  V30 531 H 53.6255 -1.22224 -4.44814 0
M  V30 532 H 51.8685 -1.21615 -4.16404 0
M  V30 533 H 52.5395 -0.293287 -5.5122 0
M  V30 534 H 55.0155 0.96013 -4.04871 0
M  V30 535 H 53.8915 1.69454 -5.22088 0
M  V30 536 H 54.1525 2.47011 -3.66658 0
M  V30 537 N 53.2116 1.57565 -0.0334293 0
M  V30 538 C 54.4366 1.96689 0.657895 0
M  V30 539 C 54.8616 0.910057 1.64619 0
M  V30 540 O 54.2196 -0.128598 1.80843 0
M  V30 541 C 54.2676 3.34905 1.33683 0
M  V30 542 O 53.3716 3.31574 2.45219 0
M  V30 543 H 52.7126 0.641205 0.172489 0
M  V30 544 H 55.2426 2.04372 -0.0965621 0
M  V30 545 H 55.2526 3.71234 1.69262 0
M  V30 546 H 53.9276 4.11366 0.612411 0
M  V30 547 H 52.5046 3.06968 2.11719 0
M  V30 548 N 54.6897 -0.239769 1.55765 0
M  V30 549 C 55.9147 -0.988373 1.82335 0
M  V30 550 C 56.3397 -1.77886 0.611421 0
M  V30 551 O 55.6977 -1.75889 -0.439639 0
M  V30 552 C 55.7457 -1.89627 3.06715 0
M  V30 553 O 54.8497 -2.98904 2.84131 0
M  V30 554 H 54.1907 -0.280858 0.601677 0
M  V30 555 H 56.7207 -0.258597 2.02959 0
M  V30 556 H 56.7307 -2.30957 3.36338 0
M  V30 557 H 55.4057 -1.31511 3.9456 0
M  V30 558 H 53.9827 -2.61651 2.65694 0
M  V30 559 N 56.1678 -1.49265 -0.50573 0
M  V30 560 C 57.4078 -1.60128 -1.27038 0
M  V30 561 C 57.7718 -0.279557 -1.89954 0
M  V30 562 O 58.9728 -0.263329 -2.67507 0
M  V30 563 C 57.2438 -2.72507 -2.31246 0
M  V30 564 S 58.8028 -3.0329 -3.17113 0
M  V30 565 H 55.6208 -0.564863 -0.4318 0
M  V30 566 H 58.2228 -1.86902 -0.573397 0
M  V30 567 H 56.9268 -3.67068 -1.83546 0
M  V30 568 H 56.4578 -2.4771 -3.05619 0
M  V30 569 H 58.4728 -2.44448 -4.31809 0
M  V30 570 N 57.6459 0.756429 -1.3826 0
M  V30 571 C 58.5779 1.87971 -1.31147 0
M  V30 572 C 59.5909 1.61248 -0.224239 0
M  V30 573 O 60.7799 1.71881 -0.481581 0
M  V30 574 C 57.8799 3.23545 -1.00857 0
M  V30 575 C 57.0529 3.77794 -2.20432 0
M  V30 576 C 56.1119 4.91877 -1.86931 0
M  V30 577 O 55.1379 5.06659 -2.59395 0
M  V30 578 N 56.3399 5.74643 -0.822568 0
M  V30 579 H 59.1049 1.94585 -2.2794 0
M  V30 580 H 56.6659 0.936234 -1.32084 0
M  V30 581 H 58.6579 3.97403 -0.765021 0
M  V30 582 H 57.2279 3.12335 -0.128687 0
M  V30 583 H 56.4479 2.95534 -2.6087 0
M  V30 584 H 57.7359 4.10771 -3.00241 0
M  V30 585 H 57.1339 5.65266 -0.221575 0
M  V30 586 H 55.6909 6.48661 -0.638899 0
M  V30 587 N 59.124 1.23083 0.984299 0
M  V30 588 C 60.056 0.96636 2.07832 0
M  V30 589 C 61.069 -0.0582135 1.62696 0
M  V30 590 O 62.258 0.176843 1.77622 0
M  V30 591 C 59.358 0.433397 3.36117 0
M  V30 592 C 58.531 1.51722 4.10243 0
M  V30 593 C 57.59 0.989821 5.16807 0
M  V30 594 O 56.616 1.67794 5.43906 0
M  V30 595 N 57.818 -0.184367 5.80207 0
M  V30 596 H 60.583 1.90824 2.31098 0
M  V30 597 H 58.144 1.13888 1.1507 0
M  V30 598 H 60.136 0.065699 4.04647 0
M  V30 599 H 58.706 -0.413806 3.09849 0
M  V30 600 H 57.926 2.05786 3.36223 0
M  V30 601 H 59.214 2.24619 4.56534 0
M  V30 602 H 58.612 -0.760062 5.60571 0
M  V30 603 H 57.169 -0.493366 6.4993 0
M  V30 604 N 60.6021 -1.18246 1.0419 0
M  V30 605 C 61.8421 -1.89948 0.754916 0
M  V30 606 C 62.2061 -1.78608 -0.70451 0
M  V30 607 O 63.4071 -2.4503 -1.10516 0
M  V30 608 C 61.6781 -3.36305 1.20969 0
M  V30 609 S 63.2371 -4.26088 1.04854 0
M  V30 610 H 60.0551 -0.655897 0.274446 0
M  V30 611 H 62.6571 -1.42873 1.33445 0
M  V30 612 H 61.3611 -3.42089 2.26722 0
M  V30 613 H 60.8921 -3.8842 0.624004 0
M  V30 614 H 62.9071 -4.96189 -0.0332896 0
M  V30 615 N 62.0802 -0.821533 -1.34494 0
M  V30 616 C 63.0102 -0.257138 -2.3208 0
M  V30 617 C 63.9912 0.625645 -1.58176 0
M  V30 618 O 65.1762 0.552811 -1.86166 0
M  V30 619 C 62.3062 0.582958 -3.42372 0
M  V30 620 C 61.2602 -0.202571 -4.2752 0
M  V30 621 C 60.5862 0.760179 -5.29269 0
M  V30 622 C 61.8862 -1.40998 -5.02908 0
M  V30 623 H 63.5802 -1.07247 -2.79532 0
M  V30 624 H 61.1262 -0.517163 -1.34393 0
M  V30 625 H 63.0792 0.987972 -4.09655 0
M  V30 626 H 61.8032 1.43133 -2.93565 0
M  V30 627 H 60.4622 -0.588936 -3.61838 0
M  V30 628 H 60.1102 1.60447 -4.76724 0
M  V30 629 H 59.8102 0.238809 -5.87115 0
M  V30 630 H 61.3342 1.16308 -5.9942 0
M  V30 631 H 62.7482 -1.07905 -5.63054 0
M  V30 632 H 61.1452 -1.86689 -5.70322 0
M  V30 633 H 62.2152 -2.1889 -4.32684 0
M  V30 634 N 63.5583 1.46682 -0.576371 0
M  V30 635 C 64.5213 2.28707 0.150239 0
M  V30 636 C 65.5213 1.38035 0.824794 0
M  V30 637 O 66.7113 1.60476 0.677719 0
M  V30 638 C 63.8433 3.18248 1.22192 0
M  V30 639 H 65.0363 2.94423 -0.570521 0
M  V30 640 H 62.5893 1.52688 -0.334078 0
M  V30 641 H 63.3243 2.57265 1.97447 0
M  V30 642 H 63.1093 3.85 0.742812 0
M  V30 643 H 64.5993 3.80001 1.73172 0
M  V30 644 N 65.0364 0.313813 1.54444 0
M  V30 645 C 66.2824 -0.292108 2.00685 0
M  V30 646 C 66.6154 -1.52548 1.20177 0
M  V30 647 O 65.8904 -1.92452 0.281531 0
M  V30 648 C 66.1734 -0.635968 3.5444 0
M  V30 649 C 66.0264 0.607437 4.4568 0
M  V30 650 C 67.3454 -1.45747 4.15266 0
M  V30 651 H 64.4644 -0.104697 0.729526 0
M  V30 652 H 67.1064 0.428457 1.85106 0
M  V30 653 H 65.2564 -1.24986 3.67846 0
M  V30 654 H 66.9284 1.24581 4.44159 0
M  V30 655 H 65.1714 1.23822 4.15753 0
M  V30 656 H 65.8424 0.322515 5.51057 0
M  V30 657 H 68.3184 -0.938645 4.05375 0
M  V30 658 H 67.1944 -1.66683 5.2298 0
M  V30 659 H 67.4554 -2.45063 3.67963 0
M  V30 660 N 66.5145 -1.57545 0.0417849 0
M  V30 661 C 67.7395 -1.97035 -0.647455 0
M  V30 662 C 68.1645 -0.918775 -1.64135 0
M  V30 663 O 67.5225 0.119006 -1.80909 0
M  V30 664 C 67.5705 -3.35609 -1.31905 0
M  V30 665 O 66.6745 -3.3287 -2.43457 0
M  V30 666 H 66.0155 -0.64211 -0.169086 0
M  V30 667 H 68.5455 -2.04318 0.107399 0
M  V30 668 H 68.5555 -3.72126 -1.67291 0
M  V30 669 H 67.2305 -4.11685 -0.590586 0
M  V30 670 H 65.8075 -3.08087 -2.10088 0
M  V30 671 N 67.9926 0.231505 -1.5589 0
M  V30 672 C 69.4036 0.799327 -1.68724 0
M  V30 673 C 69.7546 1.85398 -0.642022 0
M  V30 674 O 68.8796 2.1539 0.208784 0
M  V30 675 C 69.4746 1.45664 -3.05888 0
M  V30 676 C 68.0336 1.97197 -3.20609 0
M  V30 677 C 67.1806 0.828552 -2.64632 0
M  V30 678 H 70.1316 0.00702616 -1.58698 0
M  V30 679 H 70.1526 2.32517 -3.01191 0
M  V30 680 H 69.6646 0.688808 -3.81939 0
M  V30 681 H 67.7656 2.76813 -2.4941 0
M  V30 682 H 67.8786 2.15878 -4.27707 0
M  V30 683 H 66.2426 1.23321 -2.22854 0
M  V30 684 H 67.0256 0.0735544 -3.43221 0
M  V30 685 N 69.4707 1.49531 0.497807 0
M  V30 686 C 70.4037 1.61043 1.6168 0
M  V30 687 C 71.3817 0.459386 1.55976 0
M  V30 688 O 72.5657 0.675358 1.75986 0
M  V30 689 C 69.6927 1.56833 3.00202 0
M  V30 690 C 68.7387 2.77173 3.24156 0
M  V30 691 S 69.5717 4.38808 3.06933 0
M  V30 692 C 70.7277 4.37248 4.47845 0
M  V30 693 H 70.9607 2.55702 1.51671 0
M  V30 694 H 68.4937 1.38462 0.683201 0
M  V30 695 H 70.4517 1.55089 3.80076 0
M  V30 696 H 69.1127 0.634561 3.07623 0
M  V30 697 H 68.3057 2.70456 4.25288 0
M  V30 698 H 67.9077 2.76346 2.5201 0
M  V30 699 H 70.1997 4.09164 5.39992 0
M  V30 700 H 71.1427 5.38668 4.59612 0
M  V30 701 H 71.5507 3.67286 4.28674 0
M  V30 702 N 70.9488 -0.749086 1.3866 0
M  V30 703 C 72.1888 -1.52112 1.36534 0
M  V30 704 C 72.5528 -1.91951 -0.0432316 0
M  V30 705 O 73.7538 -2.68132 -0.189396 0
M  V30 706 C 72.0248 -2.73704 2.29828 0
M  V30 707 S 73.5838 -3.63519 2.45763 0
M  V30 708 H 70.4018 -0.520482 0.484375 0
M  V30 709 H 73.0038 -0.878963 1.74627 0
M  V30 710 H 71.7078 -2.42552 3.31054 0
M  V30 711 H 71.2388 -3.4286 1.929 0
M  V30 712 H 73.2538 -4.66712 1.68505 0
M  V30 713 N 72.4269 -1.23603 -0.977757 0
M  V30 714 C 73.3899 -1.02069 -2.05218 0
M  V30 715 C 74.3899 0.0184305 -1.60789 0
M  V30 716 O 75.5799 -0.221569 -1.72785 0
M  V30 717 C 72.7119 -0.544926 -3.36517 0
M  V30 718 H 73.9049 -1.9742 -2.25755 0
M  V30 719 H 71.4579 -1.05684 -1.15155 0
M  V30 720 H 72.1929 0.412241 -3.21669 0
M  V30 721 H 71.9779 -1.2948 -3.70105 0
M  V30 722 H 73.4679 -0.414985 -4.15533 0
M  V30 723 N 73.905 1.17692 -1.04816 0
M  V30 724 C 75.151 1.88389 -0.766892 0
M  V30 725 C 75.506 1.79282 0.698269 0
M  V30 726 O 74.799 1.18739 1.50372 0
M  V30 727 C 74.993 3.37462 -1.17703 0
M  V30 728 C 74.822 3.6108 -2.68051 0
M  V30 729 C 73.592 3.78018 -3.35307 0
M  V30 730 C 75.79 3.61039 -3.66273 0
M  V30 731 N 73.772 3.89444 -4.74559 0
M  V30 732 C 75.143 3.78269 -4.91235 0
M  V30 733 C 77.198 3.44168 -3.59796 0
M  V30 734 C 75.901 3.80376 -6.10497 0
M  V30 735 C 77.927 3.4756 -4.78493 0
M  V30 736 C 77.289 3.65295 -6.02278 0
M  V30 737 H 73.388 0.707651 -0.332798 0
M  V30 738 H 75.972 1.41314 -1.33934 0
M  V30 739 H 74.143 3.83214 -0.63257 0
M  V30 740 H 75.875 3.95759 -0.845989 0
M  V30 741 H 72.63 3.77714 -2.85708 0
M  V30 742 H 73.054 3.98962 -5.46954 0
M  V30 743 H 77.696 3.29396 -2.65062 0
M  V30 744 H 75.414 3.93933 -7.05579 0
M  V30 745 H 79 3.3577 -4.75131 0
M  V30 746 H 77.88 3.6782 -6.92588 0
M  V30 747 N 75.3831 0.828654 1.34056 0
M  V30 748 C 76.6231 0.425394 1.99924 0
M  V30 749 C 76.9871 -0.994294 1.64249 0
M  V30 750 O 78.1881 -1.50074 2.23005 0
M  V30 751 C 76.4591 0.628071 3.51838 0
M  V30 752 S 78.0181 0.318511 4.37642 0
M  V30 753 H 74.8361 0.160465 0.692656 0
M  V30 754 H 77.4381 1.07572 1.63244 0
M  V30 755 H 76.1421 1.66089 3.7529 0
M  V30 756 H 75.6731 -0.0367799 3.93383 0
M  V30 757 H 77.6881 -0.865632 4.88591 0
M  V30 758 N 76.8612 -1.46375 0.584142 0
M  V30 759 C 78.0862 -2.07268 0.0740405 0
M  V30 760 C 78.5112 -1.42979 -1.22223 0
M  V30 761 O 77.8692 -0.514092 -1.73859 0
M  V30 762 C 77.9172 -3.60518 -0.0767769 0
M  V30 763 O 77.0212 -3.96533 -1.13292 0
M  V30 764 H 76.3622 -0.660961 0.0634524 0
M  V30 765 H 78.8922 -1.87991 0.807492 0
M  V30 766 H 78.9022 -4.07021 -0.282489 0
M  V30 767 H 77.5772 -4.06702 0.86986 0
M  V30 768 H 76.1542 -3.61738 -0.905553 0
M  V30 769 N 78.3393 -0.321999 -1.54275 0
M  V30 770 C 79.6163 0.335232 -1.92706 0
M  V30 771 C 79.9963 1.70006 -1.25145 0
M  V30 772 O 79.3443 2.25067 -0.394596 0
M  V30 773 C 79.5543 0.429008 -3.46353 0
M  V30 774 C 80.9023 0.690029 -4.18956 0
M  V30 775 O 81.9263 0.511992 -3.52501 0
M  V30 776 O 80.7853 1.03338 -5.36641 0
M  V30 777 H 77.8793 0.191143 -0.804608 0
M  V30 778 H 80.4253 -0.3716 -1.65581 0
M  V30 779 H 79.1973 -0.529611 -3.87699 0
M  V30 780 H 78.8203 1.18348 -3.79578 0
M  V30 781 N 79.8174 1.5752 -0.0501392 0
M  V30 782 C 80.7274 2.14952 0.939827 0
M  V30 783 C 81.7434 1.10706 1.34239 0
M  V30 784 O 82.9194 1.42869 1.41952 0
M  V30 785 C 79.9844 2.68232 2.19665 0
M  V30 786 C 79.0454 3.87272 1.85253 0
M  V30 787 C 78.2784 4.38002 3.04943 0
M  V30 788 O 78.5014 3.87811 4.18281 0
M  V30 789 O 77.4354 5.29602 2.86017 0
M  V30 790 H 81.2614 2.9986 0.481392 0
M  V30 791 H 78.8464 1.4841 0.171699 0
M  V30 792 H 80.7284 3.02475 2.93406 0
M  V30 793 H 79.4034 1.86395 2.64648 0
M  V30 794 H 78.3104 3.5792 1.0883 0
M  V30 795 H 79.6434 4.70336 1.4507 0
M  V30 796 N 81.2955 -0.223234 1.56011 0
M  V30 797 C 82.2585 -1.26014 1.9145 0
M  V30 798 C 83.2585 -1.3989 0.792937 0
M  V30 799 O 84.4485 -1.38184 1.0607 0
M  V30 800 C 81.5805 -2.63422 2.16383 0
M  V30 801 H 82.7735 -0.95796 2.84189 0
M  V30 802 H 80.3265 -0.463576 1.49267 0
M  V30 803 H 81.0615 -2.98741 1.2619 0
M  V30 804 H 80.8465 -2.54728 2.98088 0
M  V30 805 H 82.3365 -3.38249 2.44903 0
M  V30 806 N 82.7736 -1.49793 -0.48987 0
M  V30 807 C 83.7036 -1.70201 -1.59856 0
M  V30 808 C 84.6846 -0.55076 -1.60937 0
M  V30 809 O 85.8696 -0.787841 -1.77501 0
M  V30 810 C 82.9996 -1.77882 -2.98287 0
M  V30 811 C 81.9536 -2.92907 -3.12073 0
M  V30 812 C 81.2796 -2.85712 -4.51965 0
M  V30 813 C 82.5796 -4.3369 -2.91051 0
M  V30 814 H 84.2736 -2.63025 -1.43032 0
M  V30 815 H 81.8196 -1.26574 -0.686664 0
M  V30 816 H 83.7726 -1.90744 -3.75759 0
M  V30 817 H 82.4966 -0.816653 -3.16225 0
M  V30 818 H 81.1556 -2.79665 -2.37029 0
M  V30 819 H 80.8036 -1.8738 -4.66795 0
M  V30 820 H 80.5036 -3.62921 -4.62128 0
M  V30 821 H 82.0276 -3.00598 -5.31482 0
M  V30 822 H 83.4416 -4.47555 -3.58284 0
M  V30 823 H 81.8386 -5.12205 -3.12675 0
M  V30 824 H 82.9086 -4.47362 -1.87071 0
M  V30 825 N 84.2517 0.741722 -1.39055 0
M  V30 826 C 85.6627 1.31966 -1.32068 0
M  V30 827 C 86.0137 1.96192 0.0180797 0
M  V30 828 O 85.1387 1.95861 0.920196 0
M  V30 829 C 85.7337 2.39954 -2.39181 0
M  V30 830 C 84.2927 2.93438 -2.35735 0
M  V30 831 C 83.4397 1.66936 -2.21422 0
M  V30 832 H 86.3907 0.539721 -1.4924 0
M  V30 833 H 86.4117 3.20182 -2.05581 0
M  V30 834 H 85.9237 1.9318 -3.36605 0
M  V30 835 H 84.0247 3.4451 -1.41929 0
M  V30 836 H 84.1377 3.4701 -3.30335 0
M  V30 837 H 82.5017 1.91016 -1.68478 0
M  V30 838 H 83.2847 1.22224 -3.20806 0
M  V30 839 N 85.7298 1.2412 0.971189 0
M  V30 840 C 86.6598 1.05508 2.08304 0
M  V30 841 C 87.6408 -0.0308864 1.70072 0
M  V30 842 O 88.8258 0.135521 1.93727 0
M  V30 843 C 85.9558 0.655365 3.4106 0
M  V30 844 C 84.9098 1.68971 3.93234 0
M  V30 845 C 84.2358 1.14516 5.22293 0
M  V30 846 C 85.5358 3.08487 4.21465 0
M  V30 847 H 87.2298 1.98507 2.24132 0
M  V30 848 H 84.7758 0.955821 1.07704 0
M  V30 849 H 86.7288 0.51217 4.18276 0
M  V30 850 H 85.4528 -0.31032 3.25122 0
M  V30 851 H 84.1118 1.82106 3.18171 0
M  V30 852 H 83.7598 0.170189 5.02712 0
M  V30 853 H 83.4598 1.83635 5.58168 0
M  V30 854 H 84.9838 1.01401 6.02121 0
M  V30 855 H 86.3978 2.98601 4.89398 0
M  V30 856 H 84.7948 3.74926 4.68562 0
M  V30 857 H 85.8648 3.56787 3.28376 0
M  V30 858 N 87.2079 -1.17134 1.05439 0
M  V30 859 C 88.4559 -1.87085 0.764429 0
M  V30 860 C 88.7769 -1.81584 -0.710787 0
M  V30 861 O 88.0469 -1.24349 -1.51374 0
M  V30 862 H 86.6269 -0.692627 0.279779 0
M  V30 863 H 89.2889 -1.42087 1.33406 0
M  V30 864 H 88.3849 -2.92759 1.0816 0
M  V30 865 N 88.686 -0.835752 -1.33615 0
M  V30 866 C 89.911 -0.442389 -2.02627 0
M  V30 867 C 90.336 0.947735 -1.62479 0
M  V30 868 O 89.694 1.61907 -0.815826 0
M  V30 869 C 89.742 -0.567216 -3.56111 0
M  V30 870 O 88.846 0.407799 -4.10379 0
M  V30 871 H 88.187 -0.180278 -0.639059 0
M  V30 872 H 90.717 -1.12972 -1.70583 0
M  V30 873 H 90.727 -0.447708 -4.05536 0
M  V30 874 H 89.402 -1.58103 -3.84677 0
M  V30 875 H 87.979 0.246107 -3.72087 0
M  V30 876 N 90.1641 1.46063 -0.591896 0
M  V30 877 C 91.5751 1.85944 -0.167822 0
M  V30 878 C 91.9261 1.49429 1.27143 0
M  V30 879 O 91.0511 0.913515 1.96173 0
M  V30 880 C 91.6461 3.37489 -0.297794 0
M  V30 881 C 90.2051 3.76332 0.0714732 0
M  V30 882 C 89.3521 2.7006 -0.629509 0
M  V30 883 H 92.3031 1.37087 -0.799555 0
M  V30 884 H 92.3241 3.77532 0.474349 0
M  V30 885 H 91.8361 3.64034 -1.3454 0
M  V30 886 H 89.9371 3.55405 1.11886 0
M  V30 887 H 90.0501 4.78088 -0.311245 0
M  V30 888 H 88.4141 2.54607 -0.0687867 0
M  V30 889 H 89.1971 2.99444 -1.67894 0
M  V30 890 N 91.6422 0.330177 1.54103 0
M  V30 891 C 93.0582 -0.0222371 1.59585 0
M  V30 892 C 93.2582 -1.49902 1.34654 0
M  V30 893 O 92.3142 -2.25592 1.13421 0
M  V30 894 C 93.6272 0.401932 2.98002 0
M  V30 895 C 95.1752 0.353145 3.11001 0
M  V30 896 C 95.6502 0.752576 4.51775 0
M  V30 897 N 97.1412 0.706239 4.57784 0
M  V30 898 C 97.8762 0.987417 5.64834 0
M  V30 899 N 97.3722 1.33607 6.79795 0
M  V30 900 N 99.1652 0.91254 5.54643 0
M  V30 901 H 91.3162 1.29228 1.68564 0
M  V30 902 H 93.5792 0.525906 0.78875 0
M  V30 903 H 93.2852 1.4311 3.21267 0
M  V30 904 H 93.1592 -0.229699 3.765 0
M  V30 905 H 95.5462 -0.666822 2.87467 0
M  V30 906 H 95.6272 1.0198 2.34593 0
M  V30 907 H 95.2712 1.77049 4.76042 0
M  V30 908 H 95.2012 0.0635409 5.26562 0
M  V30 909 H 97.6922 0.44889 3.75224 0
M  V30 910 H 98.0052 1.53582 7.57385 0
M  V30 911 H 96.3502 1.37439 6.81275 0
M  V30 912 H 99.5412 0.639601 4.6371 0
M  V30 913 H 99.7142 1.13503 6.37982 0
M  V30 914 N 93.1203 -1.57491 0.0584922 0
M  V30 915 C 94.3603 -1.94851 -0.617458 0
M  V30 916 C 94.7243 -0.937165 -1.67575 0
M  V30 917 O 95.9253 -1.19795 -2.40629 0
M  V30 918 C 94.1963 -3.36955 -1.19147 0
M  V30 919 S 95.7553 -3.96277 -1.8844 0
M  V30 920 H 92.5733 -0.681539 -0.202547 0
M  V30 921 H 95.1753 -1.95073 0.129176 0
M  V30 922 H 93.8793 -4.08355 -0.409215 0
M  V30 923 H 93.4103 -3.40245 -1.97476 0
M  V30 924 H 95.4253 -3.82099 -3.16568 0
M  V30 925 N 94.5984 0.214957 -1.56127 0
M  V30 926 C 95.8754 0.963093 -1.70247 0
M  V30 927 C 96.2554 2.02166 -0.60764 0
M  V30 928 O 95.6034 2.25244 0.384385 0
M  V30 929 C 95.8134 1.56756 -3.11815 0
M  V30 930 C 97.1614 2.0573 -3.7143 0
M  V30 931 O 98.1854 1.66637 -3.14818 0
M  V30 932 O 97.0444 2.77603 -4.70743 0
M  V30 933 H 94.1384 0.450321 -0.693643 0
M  V30 934 H 96.6844 0.206219 -1.68442 0
M  V30 935 H 95.4564 0.803533 -3.82961 0
M  V30 936 H 95.0794 2.3898 -3.17765 0
M  V30 937 N 96.0765 1.50051 0.48192 0
M  V30 938 C 97.0065 1.71046 1.58951 0
M  V30 939 C 97.9875 0.559288 1.60642 0
M  V30 940 O 99.1725 0.797243 1.77081 0
M  V30 941 C 96.3025 1.79462 2.97339 0
M  V30 942 C 95.2565 2.94558 3.10515 0
M  V30 943 C 94.5825 2.88105 4.50444 0
M  V30 944 C 95.8825 4.35227 2.88747 0
M  V30 945 H 97.5765 2.6378 1.41635 0
M  V30 946 H 95.1225 1.26936 0.679942 0
M  V30 947 H 97.0755 1.92734 3.74742 0
M  V30 948 H 95.7995 0.833412 3.15788 0
M  V30 949 H 94.4585 2.80918 2.35543 0
M  V30 950 H 94.1065 1.89853 4.65795 0
M  V30 951 H 93.8065 3.65366 4.60197 0
M  V30 952 H 95.3305 3.03412 5.29881 0
M  V30 953 H 96.7445 4.49449 3.55905 0
M  V30 954 H 95.1415 5.13856 3.09955 0
M  V30 955 H 96.2115 4.48347 1.84696 0
M  V30 956 N 97.5546 -0.734337 1.39446 0
M  V30 957 C 98.5016 -1.84835 1.38219 0
M  V30 958 C 99.4716 -1.64331 0.24179 0
M  V30 959 O 100.657 -1.85728 0.437002 0
M  V30 960 C 97.7966 -3.22355 1.23212 0
M  V30 961 C 96.9096 -3.5456 2.46801 0
M  V30 962 C 96.0446 -4.81485 2.24377 0
M  V30 963 C 95.0836 -5.06536 3.43639 0
M  V30 964 N 94.2206 -6.24665 3.20528 0
M  V30 965 H 99.0606 -1.85219 2.33448 0
M  V30 966 H 96.5976 -0.905039 1.15963 0
M  V30 967 H 98.5556 -4.0174 1.12522 0
M  V30 968 H 97.1856 -3.21248 0.316121 0
M  V30 969 H 96.2376 -2.69872 2.68092 0
M  V30 970 H 97.5496 -3.6899 3.3563 0
M  V30 971 H 96.7036 -5.68852 2.10933 0
M  V30 972 H 95.4426 -4.6923 1.32944 0
M  V30 973 H 94.4476 -4.17632 3.5758 0
M  V30 974 H 95.6726 -5.20676 4.35974 0
M  V30 975 H 93.6186 -6.13696 2.3176 0
M  V30 976 H 93.5356 -6.39685 4.02913 0
M  V30 977 H 94.8036 -7.14868 3.10779 0
M  V30 978 N 99.0327 -1.24633 -0.964593 0
M  V30 979 C 99.9427 -1.05859 -2.09359 0
M  V30 980 C 100.959 0.00148855 -1.74 0
M  V30 981 O 102.135 -0.197346 -2.00431 0
M  V30 982 C 99.1997 -0.668879 -3.40187 0
M  V30 983 C 98.2607 -1.80578 -3.89474 0
M  V30 984 C 97.4937 -1.43457 -5.14058 0
M  V30 985 O 97.7167 -0.325775 -5.69469 0
M  V30 986 O 96.6507 -2.2613 -5.57807 0
M  V30 987 H 100.477 -2.00516 -2.28094 0
M  V30 988 H 98.0617 -1.03481 -1.0776 0
M  V30 989 H 99.9437 -0.463211 -4.18846 0
M  V30 990 H 98.6187 0.248536 -3.22744 0
M  V30 991 H 97.5257 -2.06623 -3.11862 0
M  V30 992 H 98.8587 -2.70208 -4.11398 0
M  V30 993 N 100.511 1.16574 -1.06058 0
M  V30 994 C 101.459 2.22941 -0.663343 0
M  V30 995 C 102.453 1.66358 0.319593 0
M  V30 996 O 103.659 1.7905 0.184713 0
M  V30 997 H 100.034 0.725907 -0.196376 0
M  V30 998 H 102.005 2.53736 -1.57037 0
M  V30 999 C 100.754 3.47642 -0.0632808 0
M  V30 1000 H 100.077 3.91493 -0.810733 0
M  V30 1001 H 101.517 4.2363 0.177177 0
M  V30 1002 C 99.9758 3.1509 1.19248 0
M  V30 1003 O 100.506 3.30673 2.28075 0
M  V30 1004 N 98.7118 2.6924 1.09353 0
M  V30 1005 H 98.2588 2.5676 0.207912 0
M  V30 1006 H 98.2168 2.47833 1.93458 0
M  V30 1007 N 101.989 0.842826 1.3317 0
M  V30 1008 C 102.919 0.294028 2.31641 0
M  V30 1009 C 103.9 -0.600401 1.59151 0
M  V30 1010 O 105.085 -0.523124 1.87022 0
M  V30 1011 C 102.215 -0.528416 3.43257 0
M  V30 1012 C 101.169 0.27056 4.27144 0
M  V30 1013 C 100.495 -0.675881 5.30411 0
M  V30 1014 C 101.795 1.48981 5.00602 0
M  V30 1015 H 103.489 1.11681 2.77791 0
M  V30 1016 H 101.035 0.538478 1.33553 0
M  V30 1017 H 102.988 -0.922674 4.11175 0
M  V30 1018 H 101.712 -1.38445 2.95805 0
M  V30 1019 H 100.371 0.646427 3.60856 0
M  V30 1020 H 100.019 -1.52842 4.79216 0
M  V30 1021 H 99.7189 -0.145374 5.8742 0
M  V30 1022 H 101.243 -1.06757 6.01195 0
M  V30 1023 H 102.657 1.16849 5.61266 0
M  V30 1024 H 101.054 1.95739 5.6728 0
M  V30 1025 H 102.124 2.25746 4.29147 0
M  V30 1026 N 103.467 -1.45747 0.599634 0
M  V30 1027 C 104.397 -2.33235 -0.111306 0
M  V30 1028 C 105.378 -1.46359 -0.866781 0
M  V30 1029 O 106.563 -1.75146 -0.838904 0
M  V30 1030 C 103.693 -3.28932 -1.11451 0
M  V30 1031 C 102.647 -4.25381 -0.472772 0
M  V30 1032 C 101.973 -5.1071 -1.58365 0
M  V30 1033 C 103.273 -5.18831 0.600948 0
M  V30 1034 H 104.967 -2.92927 0.61919 0
M  V30 1035 H 102.513 -1.40857 0.299215 0
M  V30 1036 H 104.466 -3.89002 -1.62036 0
M  V30 1037 H 103.19 -2.67381 -1.8755 0
M  V30 1038 H 101.849 -3.66598 0.0121472 0
M  V30 1039 H 101.497 -4.45533 -2.33473 0
M  V30 1040 H 101.197 -5.7604 -1.15982 0
M  V30 1041 H 102.721 -5.73647 -2.09194 0
M  V30 1042 H 104.135 -5.73019 0.179491 0
M  V30 1043 H 102.532 -5.92595 0.946076 0
M  V30 1044 H 103.602 -4.6174 1.48068 0
M  V30 1045 N 104.945 -0.338344 -1.53925 0
M  V30 1046 C 105.892 0.520845 -2.24846 0
M  V30 1047 C 106.862 1.09976 -1.24477 0
M  V30 1048 O 108.047 1.13735 -1.53196 0
M  V30 1049 C 105.187 1.6685 -3.02084 0
M  V30 1050 C 104.3 1.11739 -4.17299 0
M  V30 1051 C 103.435 2.23193 -4.82036 0
M  V30 1052 C 102.474 1.65407 -5.89328 0
M  V30 1053 N 101.611 2.70582 -6.47866 0
M  V30 1054 H 106.451 -0.0904881 -2.97863 0
M  V30 1055 H 103.988 -0.0564282 -1.46992 0
M  V30 1056 H 105.946 2.34407 -3.45122 0
M  V30 1057 H 104.576 2.2509 -2.31375 0
M  V30 1058 H 103.628 0.332919 -3.7894 0
M  V30 1059 H 104.94 0.654677 -4.94485 0
M  V30 1060 H 104.094 2.98626 -5.28117 0
M  V30 1061 H 102.833 2.72807 -4.04262 0
M  V30 1062 H 101.838 0.884779 -5.42634 0
M  V30 1063 H 103.063 1.16652 -6.69006 0
M  V30 1064 H 101.009 3.1946 -5.72959 0
M  V30 1065 H 100.926 2.28917 -7.20509 0
M  V30 1066 H 102.194 3.45799 -6.98601 0
M  V30 1067 N 106.423 1.57458 -0.0668435 0
M  V30 1068 C 107.7 1.8469 0.644132 0
M  V30 1069 C 108.08 0.958343 1.88093 0
M  V30 1070 O 107.428 0.0233579 2.28488 0
M  V30 1071 C 107.638 3.34767 0.986509 0
M  V30 1072 C 108.986 4.02159 1.36212 0
M  V30 1073 O 110.01 3.39484 1.07839 0
M  V30 1074 O 108.869 5.12694 1.89227 0
M  V30 1075 H 105.963 0.762816 0.319437 0
M  V30 1076 H 108.509 1.6942 -0.0973986 0
M  V30 1077 H 107.281 3.91151 0.107883 0
M  V30 1078 H 106.904 3.55281 1.78497 0
M  V30 1079 N 107.901 -0.206675 1.56239 0
M  V30 1080 C 108.849 -1.27571 1.94495 0
M  V30 1081 C 109.843 -1.47737 0.828862 0
M  V30 1082 O 111.049 -1.48735 1.0138 0
M  V30 1083 H 107.424 -0.428029 0.6183 0
M  V30 1084 H 109.395 -0.925961 2.8367 0
M  V30 1085 C 108.144 -2.61568 2.29079 0
M  V30 1086 H 107.467 -2.46863 3.14482 0
M  V30 1087 H 108.907 -3.35144 2.5972 0
M  V30 1088 C 107.366 -3.17695 1.12123 0
M  V30 1089 O 107.896 -3.99801 0.390153 0
M  V30 1090 N 106.102 -2.76276 0.901097 0
M  V30 1091 H 105.649 -2.09613 1.49733 0
M  V30 1092 H 105.607 -3.1417 0.120319 0
M  V30 1093 N 109.379 -1.50304 -0.473955 0
M  V30 1094 C 110.619 -1.62786 -1.23612 0
M  V30 1095 C 110.983 -0.319786 -1.89318 0
M  V30 1096 O 112.184 -0.320012 -2.66888 0
M  V30 1097 C 110.455 -2.77351 -2.25414 0
M  V30 1098 S 112.014 -3.09948 -3.10608 0
M  V30 1099 H 108.832 -0.573895 -0.419721 0
M  V30 1100 H 111.434 -1.88076 -0.533623 0
M  V30 1101 H 110.138 -3.70879 -1.75719 0
M  V30 1102 H 109.669 -2.54137 -3.00296 0
M  V30 1103 H 111.684 -2.53553 -4.26527 0
M  V30 1104 N 110.857 0.726932 -1.39834 0
M  V30 1105 C 111.82 1.82269 -1.38962 0
M  V30 1106 C 112.82 1.58248 -0.285334 0
M  V30 1107 O 114.01 1.65499 -0.54366 0
M  V30 1108 C 111.142 3.20186 -1.17019 0
M  V30 1109 H 112.335 1.84443 -2.36476 0
M  V30 1110 H 109.888 0.931416 -1.25516 0
M  V30 1111 H 110.623 3.23669 -0.202204 0
M  V30 1112 H 110.408 3.3902 -1.96998 0
M  V30 1113 H 111.898 4.00235 -1.1917 0
M  V30 1114 N 112.336 1.25143 0.95797 0
M  V30 1115 C 113.747 1.08851 1.51685 0
M  V30 1116 C 114.098 -0.33687 1.93286 0
M  V30 1117 O 113.223 -1.22644 1.7829 0
M  V30 1118 C 113.818 1.96978 2.75654 0
M  V30 1119 C 112.377 1.84881 3.27866 0
M  V30 1120 C 111.524 1.91329 2.0072 0
M  V30 1121 H 114.475 1.38478 0.77522 0
M  V30 1122 H 114.496 1.5078 3.4935 0
M  V30 1123 H 114.008 3.00712 2.45345 0
M  V30 1124 H 112.109 0.840182 3.63004 0
M  V30 1125 H 112.222 2.6951 3.96107 0
M  V30 1126 H 110.586 1.35174 2.15871 0
M  V30 1127 H 111.369 2.96661 1.72764 0
M  V30 1128 N 113.814 -1.1601 1.06675 0
M  V30 1129 C 114.724 -2.24156 0.692179 0
M  V30 1130 C 115.74 -1.71507 -0.293513 0
M  V30 1131 O 116.916 -2.009 -0.141861 0
M  V30 1132 C 113.981 -3.46587 0.0884131 0
M  V30 1133 C 113.042 -4.14257 1.12646 0
M  V30 1134 C 112.275 -5.30844 0.551416 0
M  V30 1135 O 112.498 -5.66858 -0.634656 0
M  V30 1136 O 111.432 -5.87848 1.29298 0
M  V30 1137 H 115.258 -2.58513 1.59388 0
M  V30 1138 H 112.843 -1.23599 0.83926 0
M  V30 1139 H 114.725 -4.20679 -0.246361 0
M  V30 1140 H 113.4 -3.13994 -0.786712 0
M  V30 1141 H 112.307 -3.42118 1.51348 0
M  V30 1142 H 113.64 -4.50914 1.97325 0
M  V30 1143 N 115.292 -0.849877 -1.32721 0
M  V30 1144 C 116.517 -0.463856 -2.02146 0
M  V30 1145 C 116.942 0.930449 -1.63476 0
M  V30 1146 O 116.3 1.61033 -0.832952 0
M  V30 1147 C 116.348 -0.604955 -3.55489 0
M  V30 1148 O 115.452 0.36425 -4.10788 0
M  V30 1149 H 114.793 -0.187046 -0.637111 0
M  V30 1150 H 117.323 -1.14775 -1.69375 0
M  V30 1151 H 117.333 -0.490696 -4.05038 0
M  V30 1152 H 116.008 -1.62174 -3.82978 0
M  V30 1153 H 114.585 0.206628 -3.72327 0
M  V30 1154 N 116.77 1.45427 -0.607355 0
M  V30 1155 C 118.019 2.01452 -0.100036 0
M  V30 1156 C 118.332 1.48159 1.27704 0
M  V30 1157 O 119.538 1.96159 1.87707 0
M  V30 1158 C 117.994 3.59672 -0.128158 0
M  V30 1159 C 117.602 4.21962 -1.50507 0
M  V30 1160 C 119.346 4.23262 0.323932 0
M  V30 1161 C 117.253 5.72333 -1.48959 0
M  V30 1162 H 116.183 0.75325 -0.0336299 0
M  V30 1163 H 118.834 1.66901 -0.76265 0
M  V30 1164 H 117.216 3.91411 0.601105 0
M  V30 1165 H 118.39 4.01796 -2.25602 0
M  V30 1166 H 116.705 3.70565 -1.89923 0
M  V30 1167 H 119.302 5.33522 0.354691 0
M  V30 1168 H 119.645 3.93921 1.34656 0
M  V30 1169 H 120.178 3.96239 -0.352056 0
M  V30 1170 H 116.917 6.06373 -2.48981 0
M  V30 1171 H 116.437 5.94691 -0.781214 0
M  V30 1172 H 118.116 6.35525 -1.21313 0
M  V30 1173 N 118.248 0.346503 1.53744 0
M  V30 1174 C 119.158 -0.517293 2.28826 0
M  V30 1175 C 120.174 -1.10935 1.3405 0
M  V30 1176 O 121.35 -1.1244 1.6709 0
M  V30 1177 C 118.415 -1.65098 3.04866 0
M  V30 1178 C 117.476 -1.0884 4.15274 0
M  V30 1179 C 116.709 -2.16806 4.87679 0
M  V30 1180 O 116.932 -3.3758 4.59778 0
M  V30 1181 O 115.866 -1.80934 5.74061 0
M  V30 1182 H 119.692 0.0931396 3.03557 0
M  V30 1183 H 117.277 0.111458 1.48984 0
M  V30 1184 H 119.159 -2.31053 3.5241 0
M  V30 1185 H 117.834 -2.24717 2.32989 0
M  V30 1186 H 116.741 -0.3933 3.72027 0
M  V30 1187 H 118.074 -0.537036 4.89261 0
M  V30 1188 N 119.726 -1.57421 0.075193 0
M  V30 1189 C 120.973 -1.93618 -0.593146 0
M  V30 1190 C 121.301 -0.955484 -1.69413 0
M  V30 1191 O 120.556 0.0283251 -1.9568 0
M  V30 1192 C 120.855 -3.36428 -1.20626 0
M  V30 1193 C 120.521 -4.50307 -0.231078 0
M  V30 1194 C 119.183 -4.81186 0.0371936 0
M  V30 1195 C 121.535 -5.19374 0.435888 0
M  V30 1196 C 118.863 -5.78466 0.979461 0
M  V30 1197 C 121.215 -6.17665 1.3665 0
M  V30 1198 C 119.879 -6.46958 1.6432 0
M  V30 1199 H 119.149 -0.708499 -0.217047 0
M  V30 1200 H 121.796 -1.90937 0.146793 0
M  V30 1201 H 120.101 -3.35592 -2.02201 0
M  V30 1202 H 121.798 -3.61727 -1.73073 0
M  V30 1203 H 118.388 -4.26227 -0.450357 0
M  V30 1204 H 122.572 -4.95711 0.241748 0
M  V30 1205 H 117.828 -5.99487 1.20106 0
M  V30 1206 H 122.002 -6.70284 1.88924 0
M  V30 1207 H 119.629 -7.2215 2.37494 0
M  V30 1208 N 121.204 0.198386 -1.56346 0
M  V30 1209 C 122.615 0.763358 -1.70381 0
M  V30 1210 C 122.966 1.83995 -0.681203 0
M  V30 1211 O 122.091 2.15785 0.16305 0
M  V30 1212 C 122.686 1.39143 -3.08909 0
M  V30 1213 C 121.245 1.90352 -3.2472 0
M  V30 1214 C 120.392 0.772233 -2.6633 0
M  V30 1215 H 123.343 -0.0266377 -1.58678 0
M  V30 1216 H 123.364 2.26076 -3.06055 0
M  V30 1217 H 122.876 0.607638 -3.83314 0
M  V30 1218 H 120.977 2.71461 -2.55225 0
M  V30 1219 H 121.09 2.06757 -4.3219 0
M  V30 1220 H 119.454 1.18566 -2.2542 0
M  V30 1221 H 120.237 0.00073556 -3.433 0
M  V30 1222 N 122.682 1.50554 0.465978 0
M  V30 1223 C 123.928 1.62038 1.21949 0
M  V30 1224 C 124.261 0.322116 1.9151 0
M  V30 1225 O 123.536 -0.676723 1.82348 0
M  V30 1226 C 123.819 2.80421 2.25912 0
M  V30 1227 C 123.672 4.20144 1.60622 0
M  V30 1228 C 124.991 2.94354 3.27176 0
M  V30 1229 H 122.11 0.589752 0.441998 0
M  V30 1230 H 124.752 1.82956 0.51257 0
M  V30 1231 H 122.902 2.62717 2.86203 0
M  V30 1232 H 124.574 4.49449 1.03889 0
M  V30 1233 H 122.817 4.24165 0.909211 0
M  V30 1234 H 123.488 4.98914 2.36196 0
M  V30 1235 H 125.964 3.10578 2.76913 0
M  V30 1236 H 124.84 3.788 3.97242 0
M  V30 1237 H 125.101 2.05186 3.916 0
M  V30 1238 N 124.16 -0.719506 1.40217 0
M  V30 1239 C 125.385 -1.51371 1.4178 0
M  V30 1240 C 125.81 -1.88091 0.0182355 0
M  V30 1241 O 125.168 -1.52997 -0.972707 0
M  V30 1242 C 125.216 -2.768 2.31115 0
M  V30 1243 O 124.32 -3.73349 1.7517 0
M  V30 1244 H 123.661 -0.456529 0.482159 0
M  V30 1245 H 126.191 -0.88644 1.844 0
M  V30 1246 H 126.201 -3.25371 2.46167 0
M  V30 1247 H 124.876 -2.49407 3.3282 0
M  V30 1248 H 123.453 -3.32179 1.69444 0
M  V30 1249 N 125.638 -1.25649 -0.95132 0
M  V30 1250 C 126.548 -1.08073 -2.08224 0
M  V30 1251 C 127.564 -0.0169666 -1.73992 0
M  V30 1252 O 128.74 -0.218593 -2.0021 0
M  V30 1253 C 125.805 -0.704922 -3.39458 0
M  V30 1254 C 124.866 -1.84699 -3.87537 0
M  V30 1255 C 124.099 -1.48902 -5.12508 0
M  V30 1256 O 124.322 -0.386156 -5.69091 0
M  V30 1257 O 123.256 -2.32033 -5.55378 0
M  V30 1258 H 127.082 -2.02924 -2.25954 0
M  V30 1259 H 124.667 -1.04618 -1.06656 0
M  V30 1260 H 126.549 -0.507609 -4.18332 0
M  V30 1261 H 125.224 0.214291 -3.2299 0
M  V30 1262 H 124.131 -2.09919 -3.09653 0
M  V30 1263 H 125.464 -2.74557 -4.08509 0
M  V30 1264 N 127.117 1.15442 -1.07289 0
M  V30 1265 C 128.08 2.18358 -0.696591 0
M  V30 1266 C 129.08 1.58637 0.262837 0
M  V30 1267 O 130.27 1.74145 0.0438809 0
M  V30 1268 C 127.402 3.4089 -0.0266151 0
M  V30 1269 H 128.595 2.53162 -1.60776 0
M  V30 1270 H 126.148 1.29893 -0.869342 0
M  V30 1271 H 126.883 3.11653 0.896822 0
M  V30 1272 H 126.668 3.85495 -0.716657 0
M  V30 1273 H 128.158 4.17009 0.222028 0
M  V30 1274 N 128.595 0.856903 1.32268 0
M  V30 1275 C 130.011 0.547061 1.49931 0
M  V30 1276 C 130.211 -0.921781 1.7918 0
M  V30 1277 O 129.267 -1.70469 1.8627 0
M  V30 1278 C 130.58 1.43599 2.64196 0
M  V30 1279 C 132.128 1.43665 2.78081 0
M  V30 1280 C 132.603 2.31085 3.95428 0
M  V30 1281 N 134.094 2.28893 4.02694 0
M  V30 1282 C 134.829 2.93262 4.92732 0
M  V30 1283 N 134.325 3.66751 5.87763 0
M  V30 1284 N 136.118 2.82638 4.85873 0
M  V30 1285 H 128.269 1.8075 1.11549 0
M  V30 1286 H 130.532 0.772144 0.549997 0
M  V30 1287 H 130.238 2.48058 2.49319 0
M  V30 1288 H 130.112 1.12502 3.60032 0
M  V30 1289 H 132.499 0.399701 2.92381 0
M  V30 1290 H 132.58 1.7878 1.82952 0
M  V30 1291 H 132.224 3.34849 3.81888 0
M  V30 1292 H 132.154 1.93302 4.89839 0
M  V30 1293 H 134.645 1.75466 3.34694 0
M  V30 1294 H 134.958 4.13027 6.53168 0
M  V30 1295 H 133.303 3.70859 5.87783 0
M  V30 1296 H 136.494 2.24774 4.10602 0
M  V30 1297 H 136.667 3.33084 5.55841 0
M  V30 1298 N 130.073 -1.45103 0.615059 0
M  V30 1299 C 131.319 -2.02483 0.113347 0
M  V30 1300 C 131.652 -1.48146 -1.25564 0
M  V30 1301 O 130.927 -0.659104 -1.82992 0
M  V30 1302 C 131.21 -3.60005 0.0825278 0
M  V30 1303 C 131.063 -4.2466 1.48271 0
M  V30 1304 C 132.382 -4.35972 -0.601401 0
M  V30 1305 H 129.501 -0.735764 0.0426632 0
M  V30 1306 H 132.143 -1.72868 0.788461 0
M  V30 1307 H 130.293 -3.85367 -0.492378 0
M  V30 1308 H 131.965 -4.10458 2.10527 0
M  V30 1309 H 130.208 -3.82772 2.04127 0
M  V30 1310 H 130.879 -5.336 1.41332 0
M  V30 1311 H 133.355 -4.15947 -0.112666 0
M  V30 1312 H 132.231 -5.45697 -0.592097 0
M  V30 1313 H 132.492 -4.09391 -1.66887 0
M  V30 1314 N 131.551 -0.354651 -1.53558 0
M  V30 1315 C 132.481 0.489091 -2.2832 0
M  V30 1316 C 133.462 1.09324 -1.30316 0
M  V30 1317 O 134.647 1.11255 -1.59173 0
M  V30 1318 C 131.777 1.63456 -3.0643 0
M  V30 1319 C 130.731 1.1582 -4.12031 0
M  V30 1320 C 130.057 2.39305 -4.7816 0
M  V30 1321 C 131.357 0.250731 -5.21698 0
M  V30 1322 H 133.051 -0.134614 -2.99097 0
M  V30 1323 H 130.597 -0.0661826 -1.43848 0
M  V30 1324 H 132.55 2.23136 -3.57475 0
M  V30 1325 H 131.274 2.28533 -2.33325 0
M  V30 1326 H 129.933 0.584146 -3.61916 0
M  V30 1327 H 129.581 3.02814 -4.01637 0
M  V30 1328 H 129.281 2.08109 -5.49513 0
M  V30 1329 H 130.805 2.99691 -5.31994 0
M  V30 1330 H 132.219 0.754695 -5.68311 0
M  V30 1331 H 130.616 0.0301468 -6.00092 0
M  V30 1332 H 131.686 -0.710125 -4.79672 0
M  V30 1333 N 133.029 1.57378 -0.0835403 0
M  V30 1334 C 133.939 2.16897 0.894021 0
M  V30 1335 C 134.955 1.13528 1.31861 0
M  V30 1336 O 136.131 1.45848 1.3889 0
M  V30 1337 C 133.196 2.72831 2.13925 0
M  V30 1338 C 132.257 3.91115 1.76997 0
M  V30 1339 C 131.49 4.44371 2.95584 0
M  V30 1340 O 131.713 3.96596 4.09961 0
M  V30 1341 O 130.647 5.35549 2.74719 0
M  V30 1342 H 134.473 3.00814 0.417679 0
M  V30 1343 H 132.058 1.48741 0.140181 0
M  V30 1344 H 133.94 3.0863 2.86924 0
M  V30 1345 H 132.615 1.91967 2.60635 0
M  V30 1346 H 131.522 3.60148 1.01214 0
M  V30 1347 H 132.855 4.73307 1.3506 0
M  V30 1348 N 134.507 -0.190092 1.56449 0
M  V30 1349 C 135.784 -0.935886 1.71757 0
M  V30 1350 C 136.164 -2.01173 0.639726 0
M  V30 1351 O 135.512 -2.25827 -0.348502 0
M  V30 1352 C 135.722 -1.51775 3.1427 0
M  V30 1353 C 137.07 -1.99794 3.74656 0
M  V30 1354 O 138.094 -1.61607 3.1743 0
M  V30 1355 O 136.953 -2.70079 4.751 0
M  V30 1356 H 134.047 -0.439229 0.700719 0
M  V30 1357 H 136.593 -0.179395 1.68749 0
M  V30 1358 H 135.365 -0.742505 3.84191 0
M  V30 1359 H 134.988 -2.33894 3.21527 0
M  V30 1360 N 135.985 -1.50799 -0.457987 0
M  V30 1361 C 137.401 -1.38515 -0.792819 0
M  V30 1362 C 137.601 -0.451409 -1.96379 0
M  V30 1363 O 136.657 0.10112 -2.52297 0
M  V30 1364 C 137.97 -2.80149 -1.09258 0
M  V30 1365 C 139.518 -2.89156 -1.19825 0
M  V30 1366 C 139.993 -4.31651 -1.53106 0
M  V30 1367 N 141.484 -4.34662 -1.60072 0
M  V30 1368 C 142.219 -5.41928 -1.87354 0
M  V30 1369 N 141.715 -6.59384 -2.12568 0
M  V30 1370 N 143.508 -5.29385 -1.88965 0
M  V30 1371 H 135.659 -2.10073 0.313511 0
M  V30 1372 H 137.922 -0.944803 0.0777862 0
M  V30 1373 H 137.628 -3.50374 -0.305084 0
M  V30 1374 H 137.502 -3.18204 -2.02549 0
M  V30 1375 H 139.889 -2.19141 -1.97639 0
M  V30 1376 H 139.97 -2.54626 -0.244821 0
M  V30 1377 H 139.614 -5.02208 -0.758266 0
M  V30 1378 H 139.544 -4.63678 -2.49621 0
M  V30 1379 H 142.035 -3.49973 -1.42573 0
M  V30 1380 H 142.348 -7.36934 -2.32696 0
M  V30 1381 H 140.693 -6.62535 -2.09933 0
M  V30 1382 H 143.884 -4.36616 -1.68772 0
M  V30 1383 H 144.057 -6.13066 -2.09891 0
M  V30 1384 N 137.463 0.71206 -1.40597 0
M  V30 1385 C 138.874 1.29135 -1.34837 0
M  V30 1386 C 139.225 1.96186 -0.0235395 0
M  V30 1387 O 138.35 1.97768 0.878444 0
M  V30 1388 C 138.945 2.34827 -2.44217 0
M  V30 1389 C 137.504 2.88371 -2.41907 0
M  V30 1390 C 136.651 1.62202 -2.24913 0
M  V30 1391 H 139.602 0.507944 -1.50352 0
M  V30 1392 H 139.623 3.15749 -2.12327 0
M  V30 1393 H 139.135 1.85996 -3.40627 0
M  V30 1394 H 137.236 3.41422 -1.49204 0
M  V30 1395 H 137.349 3.39925 -3.37621 0
M  V30 1396 H 135.713 1.874 -1.72492 0
M  V30 1397 H 136.496 1.15391 -3.23326 0
M  V30 1398 N 138.941 1.26152 0.944643 0
M  V30 1399 C 139.871 1.09902 2.06019 0
M  V30 1400 C 140.852 0.00519538 1.70099 0
M  V30 1401 O 142.037 0.176583 1.93396 0
M  V30 1402 C 139.167 0.727562 3.39594 0
M  V30 1403 C 138.121 1.77274 3.89561 0
M  V30 1404 C 137.447 1.25569 5.19747 0
M  V30 1405 C 138.747 3.17357 4.14827 0
M  V30 1406 H 140.441 2.03217 2.19871 0
M  V30 1407 H 137.987 0.978452 1.05652 0
M  V30 1408 H 139.94 0.600777 4.17095 0
M  V30 1409 H 138.664 -0.241287 3.25707 0
M  V30 1410 H 137.323 1.88814 3.14237 0
M  V30 1411 H 136.971 0.276783 5.02238 0
M  V30 1412 H 136.671 1.95433 5.54148 0
M  V30 1413 H 138.195 1.1415 5.99835 0
M  V30 1414 H 139.609 3.08914 4.82954 0
M  V30 1415 H 138.006 3.84781 4.60504 0
M  V30 1416 H 139.076 3.63673 3.20734 0
M  V30 1417 N 140.419 -1.14872 1.07899 0
M  V30 1418 C 141.644 -1.90202 0.826926 0
M  V30 1419 C 142.069 -1.77774 -0.614664 0
M  V30 1420 O 141.427 -1.11431 -1.43013 0
M  V30 1421 C 141.475 -3.38352 1.24702 0
M  V30 1422 O 140.579 -4.10497 0.39575 0
M  V30 1423 H 139.92 -0.591968 0.300782 0
M  V30 1424 H 142.45 -1.45437 1.43907 0
M  V30 1425 H 142.46 -3.89156 1.22563 0
M  V30 1426 H 141.135 -3.46715 2.29698 0
M  V30 1427 H 139.712 -3.69796 0.480117 0
M  V30 1428 N 141.898 -0.863906 -1.31812 0
M  V30 1429 C 143.175 -0.39275 -1.91616 0
M  V30 1430 C 143.555 1.12461 -1.7865 0
M  V30 1431 O 142.903 1.95045 -1.19037 0
M  V30 1432 C 143.113 -0.867385 -3.38049 0
M  V30 1433 C 144.461 -0.889966 -4.15168 0
M  V30 1434 O 145.485 -0.812635 -3.46806 0
M  V30 1435 O 144.344 -1.00079 -5.37258 0
M  V30 1436 H 141.438 -0.116358 -0.818773 0
M  V30 1437 H 143.984 -0.951418 -1.40521 0
M  V30 1438 H 142.756 -1.91081 -3.41473 0
M  V30 1439 H 142.379 -0.286687 -3.96565 0
M  V30 1440 N 143.376 1.44774 -0.622745 0
M  V30 1441 C 144.323 2.30635 0.0871679 0
M  V30 1442 C 145.293 1.42994 0.845097 0
M  V30 1443 O 146.478 1.71907 0.827812 0
M  V30 1444 C 143.618 3.28144 1.06844 0
M  V30 1445 C 142.731 4.30888 0.309809 0
M  V30 1446 C 141.866 5.15494 1.28215 0
M  V30 1447 C 140.905 6.09953 0.512198 0
M  V30 1448 N 140.042 6.87287 1.43458 0
M  V30 1449 H 144.882 2.90803 -0.650974 0
M  V30 1450 H 142.419 1.43286 -0.33281 0
M  V30 1451 H 144.377 3.83157 1.65066 0
M  V30 1452 H 143.007 2.69695 1.77382 0
M  V30 1453 H 142.059 3.78414 -0.388181 0
M  V30 1454 H 143.371 4.97955 -0.290254 0
M  V30 1455 H 142.525 5.74983 1.93596 0
M  V30 1456 H 141.264 4.48481 1.91614 0
M  V30 1457 H 140.269 5.49581 -0.155151 0
M  V30 1458 H 141.494 6.78999 -0.116958 0
M  V30 1459 H 139.44 6.2295 2.05594 0
M  V30 1460 H 139.357 7.50763 0.888335 0
M  V30 1461 H 140.625 7.51306 2.07749 0
M  V30 1462 N 144.854 0.36279 1.53368 0
M  V30 1463 C 146.102 -0.227326 2.00817 0
M  V30 1464 C 146.423 -1.49511 1.25186 0
M  V30 1465 O 145.693 -1.92482 0.364348 0
M  V30 1466 H 144.273 -0.0869923 0.741917 0
M  V30 1467 H 146.935 0.488381 1.88682 0
M  V30 1468 H 146.031 -0.456273 3.08747 0
M  V30 1469 N 146.332 -1.57332 0.0918853 0
M  V30 1470 C 147.557 -1.98995 -0.584442 0
M  V30 1471 C 147.982 -0.970528 -1.61128 0
M  V30 1472 O 147.34 0.0613904 -1.81196 0
M  V30 1473 C 147.388 -3.39636 -1.21161 0
M  V30 1474 O 146.492 -3.40447 -2.32744 0
M  V30 1475 H 145.833 -0.647165 -0.148572 0
M  V30 1476 H 148.363 -2.03873 0.172347 0
M  V30 1477 H 148.373 -3.7726 -1.55367 0
M  V30 1478 H 147.048 -4.13356 -0.459313 0
M  V30 1479 H 145.625 -3.14614 -2.0018 0
M  V30 1480 N 147.81 0.181792 -1.56548 0
M  V30 1481 C 149.058 0.89832 -1.81038 0
M  V30 1482 C 149.379 1.83232 -0.667164 0
M  V30 1483 O 148.649 1.93372 0.313673 0
M  V30 1484 H 147.229 0.33471 -0.667816 0
M  V30 1485 H 149.891 0.184116 -1.94028 0
M  V30 1486 H 148.987 1.4815 -2.74696 0
M  V30 1487 N 149.288 1.51039 0.449983 0
M  V30 1488 C 150.565 1.53612 1.21089 0
M  V30 1489 C 150.945 0.292997 2.09057 0
M  V30 1490 O 150.293 -0.72259 2.16774 0
M  V30 1491 C 150.503 2.84337 2.0237 0
M  V30 1492 C 151.851 3.35807 2.59843 0
M  V30 1493 O 152.875 2.85802 2.12593 0
M  V30 1494 O 151.734 4.23029 3.45989 0
M  V30 1495 H 148.828 0.617057 0.550608 0
M  V30 1496 H 151.374 1.63344 0.460082 0
M  V30 1497 H 150.146 3.66278 1.37681 0
M  V30 1498 H 149.769 2.77708 2.84542 0
M  V30 1499 N 150.766 -0.704594 1.40972 0
M  V30 1500 C 151.991 -1.49858 1.43378 0
M  V30 1501 C 152.416 -1.88061 0.038184 0
M  V30 1502 O 151.774 -1.5402 -0.956425 0
M  V30 1503 C 151.822 -2.74333 2.34038 0
M  V30 1504 O 150.926 -3.7147 1.7912 0
M  V30 1505 H 150.267 -0.45139 0.486974 0
M  V30 1506 H 152.797 -0.866832 1.8533 0
M  V30 1507 H 152.807 -3.22741 2.49604 0
M  V30 1508 H 151.482 -2.45863 3.35446 0
M  V30 1509 H 150.059 -3.30363 1.72958 0
M  V30 1510 N 152.244 -1.26651 -0.937939 0
M  V30 1511 C 153.469 -1.15279 -1.72411 0
M  V30 1512 C 153.894 0.287866 -1.85884 0
M  V30 1513 O 153.252 1.20855 -1.35143 0
M  V30 1514 C 153.3 -1.83028 -3.10698 0
M  V30 1515 O 152.404 -1.12128 -3.96864 0
M  V30 1516 H 151.745 -0.401504 -0.528858 0
M  V30 1517 H 154.275 -1.67531 -1.1745 0
M  V30 1518 H 154.285 -1.89981 -3.6107 0
M  V30 1519 H 152.96 -2.87833 -3.00208 0
M  V30 1520 H 151.537 -1.13173 -3.55312 0
M  V30 1521 N 153.722 1.14298 -1.08507 0
M  V30 1522 C 154.654 2.1907 -0.673859 0
M  V30 1523 C 155.667 1.60381 0.279577 0
M  V30 1524 O 156.856 1.78374 0.0670754 0
M  V30 1525 C 153.956 3.38888 0.0290979 0
M  V30 1526 C 153.129 4.27103 -0.943494 0
M  V30 1527 C 152.188 5.25477 -0.275676 0
M  V30 1528 O 151.214 5.61709 -0.920401 0
M  V30 1529 N 152.416 5.7227 0.974013 0
M  V30 1530 H 155.181 2.54965 -1.57521 0
M  V30 1531 H 152.742 1.29528 -0.971287 0
M  V30 1532 H 154.734 4.01761 0.48683 0
M  V30 1533 H 153.304 3.01309 0.832555 0
M  V30 1534 H 152.524 3.61149 -1.58004 0
M  V30 1535 H 153.812 4.82905 -1.60251 0
M  V30 1536 H 153.21 5.44965 1.51755 0
M  V30 1537 H 151.767 6.37127 1.37522 0
M  V30 1538 N 155.201 0.870884 1.31352 0
M  V30 1539 C 156.447 0.482987 1.96965 0
M  V30 1540 C 156.78 -0.962462 1.68672 0
M  V30 1541 O 156.055 -1.6779 0.98371 0
M  V30 1542 C 156.338 0.741752 3.52378 0
M  V30 1543 C 156.191 2.2368 3.9024 0
M  V30 1544 C 157.51 0.208838 4.39604 0
M  V30 1545 H 154.629 0.176955 0.715441 0
M  V30 1546 H 157.271 1.09229 1.55464 0
M  V30 1547 H 155.421 0.223149 3.87859 0
M  V30 1548 H 157.093 2.82273 3.64856 0
M  V30 1549 H 155.336 2.70901 3.38814 0
M  V30 1550 H 156.007 2.3685 4.98604 0
M  V30 1551 H 158.483 0.652529 4.10952 0
M  V30 1552 H 157.359 0.419336 5.47296 0
M  V30 1553 H 157.62 -0.889275 4.33064 0
M  V30 1554 N 156.679 -1.44442 0.630414 0
M  V30 1555 C 157.907 -2.06414 0.141671 0
M  V30 1556 C 158.322 -1.47105 -1.18345 0
M  V30 1557 O 157.679 -0.593662 -1.72574 0
M  V30 1558 C 157.73 -3.61494 0.0199784 0
M  V30 1559 O 157.451 -4.18594 1.29269 0
M  V30 1560 C 158.952 -4.40499 -0.497544 0
M  V30 1561 H 156.172 -0.666292 0.0793452 0
M  V30 1562 H 158.716 -1.85323 0.864614 0
M  V30 1563 H 156.871 -3.8185 -0.653402 0
M  V30 1564 H 157.285 -5.12026 1.13707 0
M  V30 1565 H 158.759 -5.49433 -0.531708 0
M  V30 1566 H 159.236 -4.11895 -1.52445 0
M  V30 1567 H 159.842 -4.25061 0.142562 0
M  V30 1568 N 158.157 -0.370918 -1.53173 0
M  V30 1569 C 159.089 0.507823 -2.23503 0
M  V30 1570 C 160.102 1.04182 -1.251 0
M  V30 1571 O 161.291 0.947286 -1.5129 0
M  V30 1572 C 158.391 1.71447 -2.92334 0
M  V30 1573 C 157.564 1.31105 -4.17289 0
M  V30 1574 C 156.623 2.38035 -4.69282 0
M  V30 1575 O 155.649 2.00204 -5.32829 0
M  V30 1576 N 156.851 3.69697 -4.47554 0
M  V30 1577 H 159.616 -0.0946382 -2.99551 0
M  V30 1578 H 157.177 -0.196358 -1.60705 0
M  V30 1579 H 159.169 2.42469 -3.24023 0
M  V30 1580 H 157.739 2.22368 -2.19707 0
M  V30 1581 H 156.959 0.430462 -3.91843 0
M  V30 1582 H 158.247 1.0179 -4.98514 0
M  V30 1583 H 157.645 4.03205 -3.9679 0
M  V30 1584 H 156.202 4.36807 -4.8378 0
M  V30 1585 N 159.635 1.57281 -0.100228 0
M  V30 1586 C 160.881 1.94826 0.563101 0
M  V30 1587 C 161.214 0.982475 1.67514 0
M  V30 1588 O 160.489 0.0164069 1.94493 0
M  V30 1589 C 160.772 3.42453 1.11346 0
M  V30 1590 C 160.625 4.498 0.00612081 0
M  V30 1591 C 161.944 3.91506 2.01024 0
M  V30 1592 H 159.063 0.708428 0.203221 0
M  V30 1593 H 161.705 1.8922 -0.171979 0
M  V30 1594 H 159.855 3.47361 1.7399 0
M  V30 1595 H 161.527 4.57 -0.628357 0
M  V30 1596 H 159.77 4.28756 -0.659581 0
M  V30 1597 H 160.441 5.50306 0.432109 0
M  V30 1598 H 162.917 3.88784 1.48278 0
M  V30 1599 H 161.793 4.95358 2.36457 0
M  V30 1600 H 162.054 3.31099 2.92961 0
M  V30 1601 N 161.113 -0.173488 1.56642 0
M  V30 1602 C 162.338 -0.910149 1.86363 0
M  V30 1603 C 162.763 -1.75132 0.686318 0
M  V30 1604 O 162.121 -1.77595 -0.364643 0
M  V30 1605 C 162.169 -1.76447 3.14482 0
M  V30 1606 O 161.273 -2.86584 2.96553 0
M  V30 1607 H 160.614 -0.255086 0.613047 0
M  V30 1608 H 163.144 -0.172283 2.03873 0
M  V30 1609 H 163.154 -2.16483 3.45831 0
M  V30 1610 H 161.829 -1.14658 3.99783 0
M  V30 1611 H 160.406 -2.50146 2.76553 0
M  V30 1612 N 162.591 -1.51276 -0.441967 0
M  V30 1613 C 164.002 -1.56244 -1.02199 0
M  V30 1614 C 164.353 -0.383149 -1.92422 0
M  V30 1615 O 163.478 0.500613 -2.1053 0
M  V30 1616 C 164.073 -2.83162 -1.86024 0
M  V30 1617 C 162.632 -2.90716 -2.39084 0
M  V30 1618 C 161.779 -2.50858 -1.18175 0
M  V30 1619 H 164.73 -1.5712 -0.223416 0
M  V30 1620 H 164.751 -2.66663 -2.71425 0
M  V30 1621 H 164.263 -3.68974 -1.20331 0
M  V30 1622 H 162.364 -2.09323 -3.08244 0
M  V30 1623 H 162.477 -3.94266 -2.72198 0
M  V30 1624 H 160.841 -2.03951 -1.52565 0
M  V30 1625 H 161.624 -3.3901 -0.541001 0
M  V30 1626 N 164.069 0.697108 -1.41344 0
M  V30 1627 C 165.001 1.8224 -1.39001 0
M  V30 1628 C 166.014 1.60152 -0.292428 0
M  V30 1629 O 167.203 1.69684 -0.554048 0
M  V30 1630 C 164.303 3.18976 -1.14489 0
M  V30 1631 C 163.476 3.68105 -2.36258 0
M  V30 1632 C 162.535 4.83506 -2.07625 0
M  V30 1633 O 161.561 4.95201 -2.8065 0
M  V30 1634 N 162.763 5.70637 -1.06555 0
M  V30 1635 H 165.528 1.84742 -2.35988 0
M  V30 1636 H 163.089 0.87937 -1.35936 0
M  V30 1637 H 165.081 3.93801 -0.932885 0
M  V30 1638 H 163.651 3.11508 -0.261043 0
M  V30 1639 H 162.871 2.84204 -2.7317 0
M  V30 1640 H 164.159 3.97667 -3.17393 0
M  V30 1641 H 163.557 5.63817 -0.461125 0
M  V30 1642 H 162.114 6.45368 -0.913444 0
M  V30 1643 N 165.547 1.27147 0.931209 0
M  V30 1644 C 166.963 1.04475 1.20653 0
M  V30 1645 C 167.163 -0.223885 2.00252 0
M  V30 1646 O 166.219 -0.930332 2.34736 0
M  V30 1647 C 167.532 2.28209 1.95809 0
M  V30 1648 C 169.08 2.33211 2.08762 0
M  V30 1649 C 169.555 3.56665 2.87323 0
M  V30 1650 N 171.046 3.57201 2.94892 0
M  V30 1651 C 171.781 4.49395 3.56134 0
M  V30 1652 N 171.277 5.51889 4.18796 0
M  V30 1653 N 173.07 4.37026 3.53504 0
M  V30 1654 H 165.221 2.08612 0.399333 0
M  V30 1655 H 167.484 0.917312 0.239253 0
M  V30 1656 H 167.19 3.20538 1.44736 0
M  V30 1657 H 167.064 2.33247 2.96438 0
M  V30 1658 H 169.451 1.41391 2.59023 0
M  V30 1659 H 169.532 2.32178 1.07364 0
M  V30 1660 H 169.176 4.4882 2.37746 0
M  V30 1661 H 169.106 3.54948 3.88998 0
M  V30 1662 H 171.597 2.83074 2.50354 0
M  V30 1663 H 171.91 6.18409 4.63454 0
M  V30 1664 H 170.255 5.55735 4.17353 0
M  V30 1665 H 173.446 3.56166 3.03749 0
M  V30 1666 H 173.619 5.09067 4.00942 0
M  V30 1667 N 167.025 -1.13721 1.09112 0
M  V30 1668 C 168.274 -1.84275 0.82009 0
M  V30 1669 C 168.587 -1.84253 -0.656509 0
M  V30 1670 O 169.793 -2.50668 -1.04296 0
M  V30 1671 C 168.249 -3.30825 1.41714 0
M  V30 1672 C 167.857 -3.39244 2.92605 0
M  V30 1673 C 169.601 -4.06443 1.22492 0
M  V30 1674 C 167.508 -4.80047 3.45411 0
M  V30 1675 H 166.438 -0.690387 0.30312 0
M  V30 1676 H 169.089 -1.28146 1.31343 0
M  V30 1677 H 167.471 -3.86737 0.851498 0
M  V30 1678 H 168.645 -2.93344 3.55367 0
M  V30 1679 H 166.96 -2.77088 3.10823 0
M  V30 1680 H 169.557 -5.10387 1.59402 0
M  V30 1681 H 169.9 -4.15972 0.165299 0
M  V30 1682 H 170.433 -3.56852 1.75788 0
M  V30 1683 H 167.172 -4.75709 4.50978 0
M  V30 1684 H 166.692 -5.26455 2.87411 0
M  V30 1685 H 168.371 -5.48957 3.42425 0
M  V30 1686 N 168.503 -0.877838 -1.30888 0
M  V30 1687 C 169.466 -0.344265 -2.266 0
M  V30 1688 C 170.466 0.50922 -1.52524 0
M  V30 1689 O 171.656 0.317398 -1.71284 0
M  V30 1690 C 168.788 0.510198 -3.37061 0
M  V30 1691 H 169.981 -1.1893 -2.7531 0
M  V30 1692 H 167.534 -0.654088 -1.41956 0
M  V30 1693 H 168.269 1.37612 -2.93655 0
M  V30 1694 H 168.054 -0.101047 -3.9197 0
M  V30 1695 H 169.544 0.875537 -4.08319 0
M  V30 1696 N 169.982 1.44106 -0.638065 0
M  V30 1697 C 170.912 2.33448 0.0494287 0
M  V30 1698 C 171.893 1.48606 0.827672 0
M  V30 1699 O 173.078 1.77308 0.792173 0
M  V30 1700 C 170.208 3.31771 1.02691 0
M  V30 1701 C 169.162 4.26485 0.359823 0
M  V30 1702 C 168.488 5.14729 1.44769 0
M  V30 1703 C 169.788 5.17056 -0.738296 0
M  V30 1704 H 171.482 2.91183 -0.696636 0
M  V30 1705 H 169.028 1.40014 -0.336456 0
M  V30 1706 H 170.981 3.93161 1.51666 0
M  V30 1707 H 169.705 2.7226 1.80395 0
M  V30 1708 H 168.364 3.66437 -0.10934 0
M  V30 1709 H 168.012 4.51566 2.21578 0
M  V30 1710 H 167.712 5.78913 1.00668 0
M  V30 1711 H 169.236 5.78991 1.93911 0
M  V30 1712 H 170.65 5.72342 -0.331354 0
M  V30 1713 H 169.047 5.89879 -1.10286 0
M  V30 1714 H 170.117 4.57652 -1.60258 0
M  V30 1715 N 171.46 0.379036 1.52974 0
M  V30 1716 C 172.876 0.0285448 1.59574 0
M  V30 1717 C 173.076 -1.45542 1.39355 0
M  V30 1718 O 172.132 -2.2187 1.20541 0
M  V30 1719 C 173.445 0.496535 2.96572 0
M  V30 1720 C 174.993 0.451909 3.0972 0
M  V30 1721 C 175.468 0.895924 4.49152 0
M  V30 1722 N 176.959 0.851522 4.55306 0
M  V30 1723 C 177.694 1.16661 5.61407 0
M  V30 1724 N 177.19 1.55166 6.752 0
M  V30 1725 N 178.983 1.08853 5.51459 0
M  V30 1726 H 171.134 1.34525 1.64367 0
M  V30 1727 H 173.397 0.550733 0.771619 0
M  V30 1728 H 173.103 1.53258 3.16552 0
M  V30 1729 H 172.977 -0.109802 3.7704 0
M  V30 1730 H 175.364 -0.575029 2.89443 0
M  V30 1731 H 175.445 1.09392 2.3123 0
M  V30 1732 H 175.089 1.92104 4.70168 0
M  V30 1733 H 175.019 0.23103 5.26093 0
M  V30 1734 H 177.51 0.568038 3.73606 0
M  V30 1735 H 177.823 1.776 7.52116 0
M  V30 1736 H 176.168 1.59044 6.76557 0
M  V30 1737 H 179.359 0.786803 4.6144 0
M  V30 1738 H 179.532 1.33742 6.34048 0
M  V30 1739 N 172.938 -1.57226 0.108567 0
M  V30 1740 C 173.868 -2.17778 -0.84232 0
M  V30 1741 C 174.849 -1.11487 -1.2847 0
M  V30 1742 O 176.034 -1.39681 -1.34918 0
M  V30 1743 C 173.164 -2.76888 -2.09644 0
M  V30 1744 C 172.118 -3.88669 -1.79221 0
M  V30 1745 C 171.444 -4.34541 -3.11574 0
M  V30 1746 C 172.744 -5.11251 -1.06864 0
M  V30 1747 H 174.438 -2.97489 -0.337774 0
M  V30 1748 H 171.984 -1.43097 -0.161025 0
M  V30 1749 H 173.937 -3.17904 -2.76614 0
M  V30 1750 H 172.661 -1.94451 -2.62405 0
M  V30 1751 H 171.32 -3.48213 -1.14644 0
M  V30 1752 H 170.968 -3.48977 -3.62249 0
M  V30 1753 H 170.668 -5.09914 -2.91996 0
M  V30 1754 H 172.192 -4.782 -3.7968 0
M  V30 1755 H 173.606 -5.49352 -1.63968 0
M  V30 1756 H 172.003 -5.9214 -0.974178 0
M  V30 1757 H 173.073 -4.8487 -0.0536168 0
M  V30 1758 N 174.416 0.165178 -1.56732 0
M  V30 1759 C 175.832 0.517174 -1.50988 0
M  V30 1760 C 176.032 1.84331 -0.813894 0
M  V30 1761 O 175.088 2.49672 -0.37682 0
M  V30 1762 C 176.401 0.544261 -2.95733 0
M  V30 1763 C 177.949 0.631039 -3.06573 0
M  V30 1764 C 178.424 0.68896 -4.52788 0
M  V30 1765 N 179.915 0.751683 -4.5706 0
M  V30 1766 C 180.65 0.817177 -5.67547 0
M  V30 1767 N 180.146 0.843129 -6.8765 0
M  V30 1768 N 181.939 0.856668 -5.55534 0
M  V30 1769 H 174.09 -0.704318 -2.00382 0
M  V30 1770 H 176.353 -0.254687 -0.913148 0
M  V30 1771 H 176.059 -0.361607 -3.49836 0
M  V30 1772 H 175.933 1.3886 -3.5071 0
M  V30 1773 H 178.32 1.52733 -2.52501 0
M  V30 1774 H 178.401 -0.240095 -2.54671 0
M  V30 1775 H 178.045 -0.2031 -5.07494 0
M  V30 1776 H 177.975 1.57633 -5.02454 0
M  V30 1777 H 180.466 0.739661 -3.70591 0
M  V30 1778 H 180.779 0.894448 -7.67606 0
M  V30 1779 H 179.124 0.811304 -6.90248 0
M  V30 1780 H 182.315 0.833437 -4.60621 0
M  V30 1781 H 182.488 0.904247 -6.4166 0
M  V30 1782 N 175.894 1.51508 0.433938 0
M  V30 1783 C 177.305 1.56784 1.01369 0
M  V30 1784 C 177.656 0.393349 1.92217 0
M  V30 1785 O 176.781 -0.489441 2.10792 0
M  V30 1786 C 177.376 2.84144 1.8452 0
M  V30 1787 C 175.935 2.9198 2.37539 0
M  V30 1788 C 175.082 2.51482 1.16843 0
M  V30 1789 H 178.033 1.57236 0.215081 0
M  V30 1790 H 178.054 2.68098 2.70007 0
M  V30 1791 H 177.566 3.69607 1.18373 0
M  V30 1792 H 175.667 2.10955 3.0713 0
M  V30 1793 H 175.78 3.95704 2.70103 0
M  V30 1794 H 174.144 2.04758 1.51481 0
M  V30 1795 H 174.927 3.39293 0.523015 0
M  V30 1796 N 177.372 -0.689602 1.41712 0
M  V30 1797 C 178.649 -1.44457 1.31877 0
M  V30 1798 C 179.029 -2.11039 -0.0508537 0
M  V30 1799 O 178.377 -2.02138 -1.06547 0
M  V30 1800 C 178.587 -2.45913 2.47645 0
M  V30 1801 C 179.935 -3.10991 2.89084 0
M  V30 1802 O 180.959 -2.56238 2.47428 0
M  V30 1803 O 179.818 -4.10174 3.61137 0
M  V30 1804 H 176.912 -0.64362 0.519309 0
M  V30 1805 H 179.458 -0.719576 1.53689 0
M  V30 1806 H 178.23 -1.95409 3.39015 0
M  V30 1807 H 177.853 -3.25913 2.27742 0
M  V30 1808 N 178.85 -1.27639 -0.924453 0
M  V30 1809 C 180.127 -1.04887 -1.651 0
M  V30 1810 C 180.507 0.415327 -2.06974 0
M  V30 1811 O 179.855 1.39923 -1.80648 0
M  V30 1812 C 180.065 -2.01348 -2.85061 0
M  V30 1813 C 181.413 -2.30899 -3.56329 0
M  V30 1814 O 182.437 -1.99348 -2.95193 0
M  V30 1815 O 181.296 -2.84699 -4.66485 0
M  V30 1816 H 178.39 -0.400083 -0.723784 0
M  V30 1817 H 180.936 -1.38916 -0.974703 0
M  V30 1818 H 179.708 -3.0008 -2.51133 0
M  V30 1819 H 179.331 -1.679 -3.6041 0
M  V30 1820 N 180.328 1.1314 -1.09713 0
M  V30 1821 C 181.553 1.88862 -0.857081 0
M  V30 1822 C 181.978 1.78729 0.586304 0
M  V30 1823 O 181.336 1.13692 1.41222 0
M  V30 1824 C 181.384 3.36325 -1.30069 0
M  V30 1825 O 180.488 4.09815 -0.461007 0
M  V30 1826 H 179.829 0.587108 -0.310162 0
M  V30 1827 H 182.359 1.43129 -1.46203 0
M  V30 1828 H 182.369 3.87157 -1.28738 0
M  V30 1829 H 181.044 3.43017 -2.35185 0
M  V30 1830 H 179.621 3.68986 -0.538888 0
M  V30 1831 N 181.806 0.884767 1.30421 0
M  V30 1832 C 182.753 0.349642 2.28136 0
M  V30 1833 C 183.723 -0.560061 1.56373 0
M  V30 1834 O 184.908 -0.488524 1.8444 0
M  V30 1835 C 182.048 -0.42999 3.42411 0
M  V30 1836 C 181.161 0.508907 4.28992 0
M  V30 1837 C 180.296 -0.286301 5.30428 0
M  V30 1838 C 179.335 0.648079 6.08659 0
M  V30 1839 N 178.472 -0.111792 7.02011 0
M  V30 1840 H 183.312 1.18807 2.73293 0
M  V30 1841 H 180.849 0.597231 1.3443 0
M  V30 1842 H 182.807 -0.897923 4.07423 0
M  V30 1843 H 181.437 -1.23299 2.98324 0
M  V30 1844 H 180.489 1.09533 3.64289 0
M  V30 1845 H 181.801 1.22475 4.8353 0
M  V30 1846 H 180.955 -0.816098 6.01186 0
M  V30 1847 H 179.694 -1.03536 4.76583 0
M  V30 1848 H 178.699 1.18951 5.36778 0
M  V30 1849 H 179.924 1.39623 6.64592 0
M  V30 1850 H 177.87 -0.843395 6.50556 0
M  V30 1851 H 177.787 0.544429 7.54037 0
M  V30 1852 H 179.055 -0.622339 7.77012 0
M  V30 1853 N 183.284 -1.43765 0.645699 0
M  V30 1854 C 184.232 -2.32516 -0.0624849 0
M  V30 1855 C 185.226 -1.48183 -0.820855 0
M  V30 1856 O 186.432 -1.64439 -0.732106 0
M  V30 1857 H 182.807 -0.750989 -0.0389864 0
M  V30 1858 H 184.778 -2.89979 0.703892 0
M  V30 1859 C 183.527 -3.32389 -1.02044 0
M  V30 1860 H 182.85 -3.97301 -0.446312 0
M  V30 1861 H 184.29 -3.97138 -1.48517 0
M  V30 1862 C 182.749 -2.62416 -2.11281 0
M  V30 1863 O 183.279 -2.434 -3.19561 0
M  V30 1864 N 181.485 -2.21913 -1.87624 0
M  V30 1865 H 181.032 -2.37578 -0.995703 0
M  V30 1866 H 180.99 -1.75424 -2.6091 0
M  V30 1867 N 184.763 -0.387143 -1.52771 0
M  V30 1868 C 186.01 0.195735 -2.01552 0
M  V30 1869 C 186.338 1.46995 -1.27369 0
M  V30 1870 O 185.593 1.92325 -0.361879 0
M  V30 1871 C 185.892 0.512209 -3.53711 0
M  V30 1872 C 185.558 -0.670202 -4.45891 0
M  V30 1873 C 184.22 -0.994586 -4.70809 0
M  V30 1874 C 186.572 -1.46134 -5.00294 0
M  V30 1875 C 183.9 -2.11169 -5.4738 0
M  V30 1876 C 186.252 -2.56903 -5.78086 0
M  V30 1877 C 184.916 -2.89852 -6.01284 0
M  V30 1878 H 184.186 0.0716246 -0.73753 0
M  V30 1879 H 186.833 -0.524046 -1.8419 0
M  V30 1880 H 185.138 1.31329 -3.69134 0
M  V30 1881 H 186.835 0.975804 -3.88946 0
M  V30 1882 H 183.425 -0.407366 -4.2666 0
M  V30 1883 H 187.609 -1.22397 -4.80971 0
M  V30 1884 H 182.865 -2.3707 -5.63567 0
M  V30 1885 H 187.039 -3.18608 -6.19243 0
M  V30 1886 H 184.666 -3.76533 -6.60399 0
M  V30 1887 N 186.241 1.57166 -0.116904 0
M  V30 1888 C 187.466 1.999 0.55271 0
M  V30 1889 C 187.891 0.996039 1.59564 0
M  V30 1890 O 187.249 -0.032556 1.81271 0
M  V30 1891 C 187.297 3.4152 1.15742 0
M  V30 1892 O 186.401 3.44106 2.27299 0
M  V30 1893 H 185.742 0.649447 0.138258 0
M  V30 1894 H 188.272 2.03573 -0.204759 0
M  V30 1895 H 188.282 3.79684 1.49346 0
M  V30 1896 H 186.957 4.14034 0.393493 0
M  V30 1897 H 185.534 3.17759 1.9515 0
M  V30 1898 N 187.719 -0.156864 1.56817 0
M  V30 1899 C 188.968 -0.869504 1.81996 0
M  V30 1900 C 189.281 -1.82777 0.696545 0
M  V30 1901 O 190.487 -2.58384 0.833658 0
M  V30 1902 C 188.943 -1.59679 3.22538 0
M  V30 1903 C 188.551 -0.681431 4.42787 0
M  V30 1904 C 190.295 -2.2968 3.56997 0
M  V30 1905 C 188.202 -1.40978 5.74351 0
M  V30 1906 H 187.132 -0.328438 0.678708 0
M  V30 1907 H 189.783 -0.1223 1.83092 0
M  V30 1908 H 188.165 -2.38927 3.158 0
M  V30 1909 H 189.339 0.0751166 4.60739 0
M  V30 1910 H 187.654 -0.0903431 4.16302 0
M  V30 1911 H 190.251 -2.84794 4.52544 0
M  V30 1912 H 190.594 -3.05707 2.82576 0
M  V30 1913 H 191.127 -1.57361 3.65352 0
M  V30 1914 H 187.866 -0.691561 6.51842 0
M  V30 1915 H 187.386 -2.13929 5.60352 0
M  V30 1916 H 189.065 -1.95337 6.16808 0
M  V30 1917 N 189.197 -1.51736 -0.425897 0
M  V30 1918 C 190.129 -1.70083 -1.53638 0
M  V30 1919 C 191.142 -0.581349 -1.52066 0
M  V30 1920 O 192.331 -0.856017 -1.56635 0
M  V30 1921 C 189.431 -1.71078 -2.9255 0
M  V30 1922 C 188.604 -2.99795 -3.185 0
M  V30 1923 C 187.663 -2.92825 -4.37196 0
M  V30 1924 O 186.689 -3.66756 -4.35291 0
M  V30 1925 N 187.891 -2.0946 -5.41393 0
M  V30 1926 H 190.656 -2.65882 -1.383 0
M  V30 1927 H 188.217 -1.49765 -0.614988 0
M  V30 1928 H 190.209 -1.63969 -3.69995 0
M  V30 1929 H 188.779 -0.828242 -3.01428 0
M  V30 1930 H 187.999 -3.20684 -2.2925 0
M  V30 1931 H 189.287 -3.84977 -3.32671 0
M  V30 1932 H 188.685 -1.48792 -5.45781 0
M  V30 1933 H 187.242 -2.08221 -6.17647 0
M  V30 1934 N 190.675 0.682077 -1.42076 0
M  V30 1935 C 191.921 1.44428 -1.42367 0
M  V30 1936 C 192.254 1.94164 -0.0373056 0
M  V30 1937 O 191.529 1.70429 0.937239 0
M  V30 1938 C 191.812 2.64654 -2.44194 0
M  V30 1939 C 191.665 2.20596 -3.91991 0
M  V30 1940 C 192.984 3.66865 -2.431 0
M  V30 1941 H 190.103 0.523834 -0.518428 0
M  V30 1942 H 192.745 0.77576 -1.73442 0
M  V30 1943 H 190.895 3.2169 -2.17826 0
M  V30 1944 H 192.567 1.68783 -4.29313 0
M  V30 1945 H 190.81 1.52242 -4.06208 0
M  V30 1946 H 191.481 3.06921 -4.58807 0
M  V30 1947 H 193.957 3.19531 -2.66532 0
M  V30 1948 H 192.833 4.48577 -3.16339 0
M  V30 1949 H 193.094 4.17493 -1.45437 0
M  V30 1950 N 192.153 1.28127 0.917671 0
M  V30 1951 C 193.569 1.05749 1.19538 0
M  V30 1952 C 193.769 -0.202633 2.00479 0
M  V30 1953 O 192.825 -0.905382 2.3571 0
M  V30 1954 C 194.138 2.30273 1.93378 0
M  V30 1955 C 195.686 2.35412 2.06277 0
M  V30 1956 C 196.161 3.59692 2.83524 0
M  V30 1957 N 197.652 3.60309 2.91087 0
M  V30 1958 C 198.387 4.53147 3.51348 0
M  V30 1959 N 197.883 5.563 4.12919 0
M  V30 1960 N 199.676 4.40751 3.48849 0
M  V30 1961 H 191.827 2.09024 0.377184 0
M  V30 1962 H 194.09 0.919798 0.22951 0
M  V30 1963 H 193.796 3.22055 1.41328 0
M  V30 1964 H 193.67 2.36378 2.93947 0
M  V30 1965 H 196.057 1.4413 2.57508 0
M  V30 1966 H 196.138 2.33304 1.04895 0
M  V30 1967 H 195.782 4.51316 2.32973 0
M  V30 1968 H 195.712 3.59054 3.85211 0
M  V30 1969 H 198.203 2.85714 2.47338 0
M  V30 1970 H 198.516 6.2329 4.56869 0
M  V30 1971 H 196.861 5.60131 4.11435 0
M  V30 1972 H 200.052 3.59367 2.99955 0
M  V30 1973 H 200.225 5.13291 3.9552 0
M  V30 1974 N 193.631 -1.12557 1.10312 0
M  V30 1975 C 194.563 -2.17971 0.708625 0
M  V30 1976 C 195.576 -1.60806 -0.254027 0
M  V30 1977 O 196.765 -1.78458 -0.0386891 0
M  V30 1978 C 193.865 -3.38891 0.0248198 0
M  V30 1979 C 193.038 -4.25548 1.01132 0
M  V30 1980 C 192.097 -5.24972 0.35924 0
M  V30 1981 O 191.123 -5.60174 1.00965 0
M  V30 1982 N 192.325 -5.73747 -0.882847 0
M  V30 1983 H 195.09 -2.52427 1.61557 0
M  V30 1984 H 192.651 -1.27967 0.991771 0
M  V30 1985 H 194.643 -4.02485 -0.422852 0
M  V30 1986 H 193.213 -3.02596 -0.784514 0
M  V30 1987 H 192.433 -3.58589 1.6373 0
M  V30 1988 H 193.721 -4.80294 1.67914 0
M  V30 1989 H 193.119 -5.4731 -1.43065 0
M  V30 1990 H 191.676 -6.39234 -1.27369 0
M  V30 1991 N 195.109 -0.891671 -1.2995 0
M  V30 1992 C 196.355 -0.514261 -1.96171 0
M  V30 1993 C 196.688 0.935506 -1.70182 0
M  V30 1994 O 195.963 1.66204 -1.01028 0
M  V30 1995 C 196.246 -0.797719 -3.51153 0
M  V30 1996 C 196.099 -2.2986 -3.86632 0
M  V30 1997 C 197.418 -0.278749 -4.39216 0
M  V30 1998 H 194.537 -0.188314 -0.712535 0
M  V30 1999 H 197.179 -1.11689 -1.53706 0
M  V30 2000 H 195.329 -0.284826 -3.87455 0
M  V30 2001 H 197.001 -2.88042 -3.60319 0
M  V30 2002 H 195.244 -2.76257 -3.34462 0
M  V30 2003 H 195.915 -2.44753 -4.94773 0
M  V30 2004 H 198.391 -0.717825 -4.09862 0
M  V30 2005 H 197.267 -0.506353 -5.46559 0
M  V30 2006 H 197.528 0.820266 -4.34424 0
M  V30 2007 N 196.587 1.43421 -0.653314 0
M  V30 2008 C 197.497 2.34568 0.0388565 0
M  V30 2009 C 198.513 1.53888 0.81207 0
M  V30 2010 O 199.689 1.86539 0.759294 0
M  V30 2011 C 196.754 3.32167 0.993269 0
M  V30 2012 C 195.815 4.28751 0.216977 0
M  V30 2013 C 195.048 5.21688 1.12593 0
M  V30 2014 O 195.271 5.19052 2.36519 0
M  V30 2015 O 194.205 5.98919 0.598284 0
M  V30 2016 H 198.031 2.95251 -0.711386 0
M  V30 2017 H 195.616 1.43564 -0.413502 0
M  V30 2018 H 197.498 3.92183 1.54176 0
M  V30 2019 H 196.173 2.73987 1.72374 0
M  V30 2020 H 195.08 3.72215 -0.375101 0
M  V30 2021 H 196.413 4.89913 -0.473924 0
M  V30 2022 N 198.065 0.39524 1.52563 0
M  V30 2023 C 199.342 -0.242908 1.94086 0
M  V30 2024 C 199.722 -1.63841 1.33114 0
M  V30 2025 O 199.07 -2.22928 0.501529 0
M  V30 2026 C 199.28 -0.26327 3.48006 0
M  V30 2027 C 200.628 -0.489354 4.21771 0
M  V30 2028 O 201.652 -0.343226 3.54543 0
M  V30 2029 O 200.511 -0.776169 5.4096 0
M  V30 2030 H 197.605 -0.152536 0.812811 0
M  V30 2031 H 200.151 0.450178 1.6362 0
M  V30 2032 H 198.923 0.713985 3.84731 0
M  V30 2033 H 198.546 -1.00103 3.84792 0
M  V30 2034 N 199.544 -1.57102 0.125237 0
M  V30 2035 C 200.774 -1.99472 -0.538015 0
M  V30 2036 C 201.182 -1.00395 -1.60366 0
M  V30 2037 O 200.525 0.0103875 -1.83697 0
M  V30 2038 C 200.587 -3.38262 -1.21734 0
M  V30 2039 C 200.251 -4.56021 -0.298897 0
M  V30 2040 C 201.248 -5.17817 0.464943 0
M  V30 2041 C 198.933 -5.01869 -0.208149 0
M  V30 2042 C 200.927 -6.23852 1.3072 0
M  V30 2043 C 198.614 -6.07763 0.637736 0
M  V30 2044 C 199.612 -6.68622 1.39403 0
M  V30 2045 O 199.3 -7.7247 2.22586 0
M  V30 2046 H 199.032 -0.659934 -0.146501 0
M  V30 2047 H 201.586 -2.04321 0.210267 0
M  V30 2048 H 199.816 -3.30185 -2.01282 0
M  V30 2049 H 201.505 -3.6488 -1.77813 0
M  V30 2050 H 202.271 -4.83308 0.404741 0
M  V30 2051 H 198.15 -4.54241 -0.786522 0
M  V30 2052 H 201.694 -6.71284 1.898 0
M  V30 2053 H 197.591 -6.41701 0.699309 0
M  V30 2054 H 198.359 -7.89595 2.15596 0
M  V30 2055 N 201.022 0.148545 -1.56898 0
M  V30 2056 C 202.433 0.708766 -1.72723 0
M  V30 2057 C 202.784 1.81734 -0.739395 0
M  V30 2058 O 201.909 2.16194 0.0943169 0
M  V30 2059 C 202.504 1.29245 -3.13179 0
M  V30 2060 C 201.063 1.79925 -3.30611 0
M  V30 2061 C 200.21 0.687111 -2.68652 0
M  V30 2062 H 203.161 -0.0771063 -1.58513 0
M  V30 2063 H 203.182 2.16224 -3.13093 0
M  V30 2064 H 202.694 0.485382 -3.85053 0
M  V30 2065 H 200.795 2.63203 -2.63732 0
M  V30 2066 H 200.908 1.92903 -4.38549 0
M  V30 2067 H 199.272 1.11335 -2.29078 0
M  V30 2068 H 200.055 -0.108483 -3.43129 0
M  V30 2069 N 202.5 1.5196 0.417844 0
M  V30 2070 C 203.746 1.65836 1.16732 0
M  V30 2071 C 204.079 0.382881 1.90388 0
M  V30 2072 O 203.354 -0.618368 1.84408 0
M  V30 2073 C 203.637 2.87466 2.16876 0
M  V30 2074 C 203.49 4.25041 1.47174 0
M  V30 2075 C 204.809 3.04613 3.17646 0
M  V30 2076 H 201.928 0.603515 0.423011 0
M  V30 2077 H 204.57 1.84494 0.454105 0
M  V30 2078 H 202.72 2.71689 2.777 0
M  V30 2079 H 204.392 4.52527 0.895376 0
M  V30 2080 H 202.635 4.26843 0.773806 0
M  V30 2081 H 203.306 5.06176 2.20204 0
M  V30 2082 H 205.782 3.1923 2.66892 0
M  V30 2083 H 204.658 3.91247 3.8499 0
M  V30 2084 H 204.919 2.17541 3.84874 0
M  V30 2085 N 203.978 -0.674533 1.42435 0
M  V30 2086 C 205.255 -1.4305 1.33402 0
M  V30 2087 C 205.635 -2.11081 -0.0284674 0
M  V30 2088 O 204.983 -2.03257 -1.04397 0
M  V30 2089 C 205.193 -2.43272 2.50239 0
M  V30 2090 C 206.541 -3.07907 2.92367 0
M  V30 2091 O 207.565 -2.53599 2.50132 0
M  V30 2092 O 206.424 -4.0632 3.65467 0
M  V30 2093 H 203.518 -0.638076 0.526106 0
M  V30 2094 H 206.064 -0.703235 1.54443 0
M  V30 2095 H 204.836 -1.91803 3.41068 0
M  V30 2096 H 204.459 -3.23479 2.31186 0
M  V30 2097 N 205.456 -1.28612 -0.910864 0
M  V30 2098 C 206.705 -1.15311 -1.65488 0
M  V30 2099 C 207.018 0.296999 -1.93332 0
M  V30 2100 O 208.224 0.551168 -2.65847 0
M  V30 2101 C 206.68 -2.01599 -2.98137 0
M  V30 2102 C 206.288 -3.51367 -2.7793 0
M  V30 2103 C 208.032 -1.96993 -3.76024 0
M  V30 2104 C 205.939 -4.29797 -4.06237 0
M  V30 2105 H 204.869 -0.42796 -0.620779 0
M  V30 2106 H 207.52 -1.53166 -1.01057 0
M  V30 2107 H 205.902 -1.56603 -3.63719 0
M  V30 2108 H 207.076 -4.0434 -2.21011 0
M  V30 2109 H 205.391 -3.57529 -2.13452 0
M  V30 2110 H 207.988 -2.52856 -4.71135 0
M  V30 2111 H 208.331 -0.94733 -4.05378 0
M  V30 2112 H 208.864 -2.39973 -3.17266 0
M  V30 2113 H 205.603 -5.32648 -3.82055 0
M  V30 2114 H 205.123 -3.81596 -4.62757 0
M  V30 2115 H 206.802 -4.39869 -4.74473 0
M  V30 2116 N 206.934 1.1197 -1.10907 0
M  V30 2117 C 208.164 1.8713 -0.875553 0
M  V30 2118 C 208.572 1.8016 0.577843 0
M  V30 2119 O 207.915 1.17699 1.41042 0
M  V30 2120 C 207.977 3.37005 -1.2517 0
M  V30 2121 C 207.641 3.67748 -2.71313 0
M  V30 2122 C 208.638 3.65698 -3.69542 0
M  V30 2123 C 206.323 3.96928 -3.07821 0
M  V30 2124 C 208.317 3.92395 -5.023 0
M  V30 2125 C 206.004 4.23284 -4.40765 0
M  V30 2126 C 207.002 4.21005 -5.37814 0
M  V30 2127 O 206.69 4.46704 -6.68364 0
M  V30 2128 H 206.422 0.598786 -0.313737 0
M  V30 2129 H 208.976 1.42568 -1.47863 0
M  V30 2130 H 207.206 3.82146 -0.591741 0
M  V30 2131 H 208.895 3.93519 -0.994877 0
M  V30 2132 H 209.661 3.43211 -3.42682 0
M  V30 2133 H 205.54 3.97841 -2.32902 0
M  V30 2134 H 209.084 3.90531 -5.78041 0
M  V30 2135 H 204.981 4.45246 -4.67361 0
M  V30 2136 H 205.749 4.64299 -6.74069 0
M  V30 2137 N 208.412 0.89855 1.29475 0
M  V30 2138 C 209.642 0.538479 1.99459 0
M  V30 2139 C 210.05 -0.880922 1.67441 0
M  V30 2140 O 209.393 -1.59283 0.915127 0
M  V30 2141 C 209.455 0.649564 3.53583 0
M  V30 2142 C 209.119 2.03573 4.09154 0
M  V30 2143 C 210.116 3.00675 4.24135 0
M  V30 2144 C 207.801 2.3448 4.44212 0
M  V30 2145 C 209.795 4.26809 4.73405 0
M  V30 2146 C 207.482 3.60857 4.93179 0
M  V30 2147 C 208.48 4.56836 5.0773 0
M  V30 2148 O 208.168 5.80969 5.55635 0
M  V30 2149 H 207.9 0.205372 0.644048 0
M  V30 2150 H 210.454 1.20958 1.66007 0
M  V30 2151 H 208.684 -0.0785592 3.8662 0
M  V30 2152 H 210.373 0.29881 4.04799 0
M  V30 2153 H 211.139 2.78112 3.97339 0
M  V30 2154 H 207.018 1.60534 4.32145 0
M  V30 2155 H 210.562 5.0173 4.84678 0
M  V30 2156 H 206.459 3.83251 5.19412 0
M  V30 2157 H 207.227 5.83542 5.73952 0
M  V30 2158 N 209.89 -1.43072 0.660911 0
M  V30 2159 C 210.82 -2.33497 -0.0122829 0
M  V30 2160 C 211.801 -1.49903 -0.803925 0
M  V30 2161 O 212.986 -1.78546 -0.763864 0
M  V30 2162 C 210.116 -3.33363 -0.973994 0
M  V30 2163 C 209.07 -4.27003 -0.291928 0
M  V30 2164 C 208.396 -5.16967 -1.36562 0
M  V30 2165 C 209.696 -5.15816 0.820462 0
M  V30 2166 H 211.39 -2.90038 0.742873 0
M  V30 2167 H 208.936 -1.39461 0.358688 0
M  V30 2168 H 210.889 -3.95524 -1.45392 0
M  V30 2169 H 209.613 -2.75095 -1.7604 0
M  V30 2170 H 208.272 -3.66217 0.167623 0
M  V30 2171 H 207.92 -4.55034 -2.14366 0
M  V30 2172 H 207.62 -5.80441 -0.914454 0
M  V30 2173 H 209.144 -5.82003 -1.84675 0
M  V30 2174 H 210.558 -5.71742 0.422366 0
M  V30 2175 H 208.955 -5.8805 1.19656 0
M  V30 2176 H 210.025 -4.55045 1.67518 0
M  V30 2177 N 211.368 -0.403325 -1.52352 0
M  V30 2178 C 212.301 0.469463 -2.23319 0
M  V30 2179 C 213.279 1.05272 -1.23922 0
M  V30 2180 O 214.463 1.10169 -1.52954 0
M  V30 2181 C 211.59 1.6511 -2.9573 0
M  V30 2182 C 210.636 1.19178 -4.0951 0
M  V30 2183 S 211.469 0.161718 -5.35256 0
M  V30 2184 C 212.625 1.34882 -6.11194 0
M  V30 2185 H 212.858 -0.133134 -2.97002 0
M  V30 2186 H 210.391 -0.187588 -1.53256 0
M  V30 2187 H 212.349 2.3287 -3.38056 0
M  V30 2188 H 211.01 2.22503 -2.21701 0
M  V30 2189 H 210.203 2.07444 -4.59329 0
M  V30 2190 H 209.805 0.592911 -3.6927 0
M  V30 2191 H 212.097 2.27345 -6.38217 0
M  V30 2192 H 213.04 0.89128 -7.02468 0
M  V30 2193 H 213.448 1.57198 -5.42171 0
M  V30 2194 N 212.846 1.57033 -0.133567 0
M  V30 2195 C 214.123 1.87256 0.56522 0
M  V30 2196 C 214.503 1.03726 1.83859 0
M  V30 2197 O 213.851 0.120247 2.28183 0
M  V30 2198 C 214.061 3.3865 0.843636 0
M  V30 2199 C 215.409 4.07574 1.19032 0
M  V30 2200 O 216.433 3.43752 0.933429 0
M  V30 2201 O 215.292 5.20259 1.67312 0
M  V30 2202 H 212.386 0.775678 0.286796 0
M  V30 2203 H 214.932 1.68855 -0.169168 0
M  V30 2204 H 213.704 3.91257 -0.0581149 0
M  V30 2205 H 213.327 3.62532 1.63268 0
M  V30 2206 N 214.325 -0.140222 1.56975 0
M  V30 2207 C 215.255 -1.17456 2.01808 0
M  V30 2208 C 216.236 -1.44415 0.898794 0
M  V30 2209 O 217.421 -1.5522 1.16707 0
M  V30 2210 C 214.551 -2.50607 2.40444 0
M  V30 2211 C 213.505 -2.38155 3.55621 0
M  V30 2212 C 212.831 -3.76078 3.80091 0
M  V30 2213 C 214.131 -1.85991 4.88062 0
M  V30 2214 H 215.825 -0.801743 2.88466 0
M  V30 2215 H 213.371 -0.38422 1.38779 0
M  V30 2216 H 215.324 -3.23197 2.7041 0
M  V30 2217 H 214.048 -2.89737 1.50732 0
M  V30 2218 H 212.707 -1.68016 3.25832 0
M  V30 2219 H 212.355 -4.12656 2.87618 0
M  V30 2220 H 212.055 -3.68606 4.57606 0
M  V30 2221 H 213.579 -4.50206 4.12488 0
M  V30 2222 H 214.993 -2.4838 5.16701 0
M  V30 2223 H 213.39 -1.89393 5.6943 0
M  V30 2224 H 214.46 -0.816023 4.77984 0
M  V30 2225 N 215.803 -1.52179 -0.40978 0
M  V30 2226 C 217.028 -1.70347 -1.18308 0
M  V30 2227 C 217.453 -0.411887 -1.83535 0
M  V30 2228 O 216.811 0.630587 -1.6998 0
M  V30 2229 C 216.859 -2.83977 -2.22238 0
M  V30 2230 O 215.963 -2.495 -3.28365 0
M  V30 2231 H 215.304 -0.567103 -0.345384 0
M  V30 2232 H 217.834 -1.98879 -0.480445 0
M  V30 2233 H 217.844 -3.0887 -2.66577 0
M  V30 2234 H 216.519 -3.77685 -1.74146 0
M  V30 2235 H 215.096 -2.35277 -2.89308 0
M  V30 2236 N 217.281 0.66697 -1.42791 0
M  V30 2237 C 218.511 1.45294 -1.46878 0
M  V30 2238 C 218.919 1.89027 -0.0809861 0
M  V30 2239 O 218.262 1.59219 0.916246 0
M  V30 2240 C 218.324 2.72908 -2.34012 0
M  V30 2241 C 217.988 2.51203 -3.81767 0
M  V30 2242 C 218.985 2.15302 -4.73224 0
M  V30 2243 C 216.67 2.65954 -4.26115 0
M  V30 2244 C 218.664 1.94431 -6.07022 0
M  V30 2245 C 216.351 2.44699 -5.59969 0
M  V30 2246 C 217.349 2.08992 -6.5024 0
M  V30 2247 O 217.037 1.87948 -7.81621 0
M  V30 2248 H 216.769 0.453306 -0.501487 0
M  V30 2249 H 219.323 0.826232 -1.88049 0
M  V30 2250 H 217.553 3.38089 -1.87703 0
M  V30 2251 H 219.242 3.34816 -2.29462 0
M  V30 2252 H 220.008 2.03495 -4.40244 0
M  V30 2253 H 215.887 2.92724 -3.56137 0
M  V30 2254 H 219.431 1.66484 -6.77443 0
M  V30 2255 H 215.328 2.56105 -5.9252 0
M  V30 2256 H 216.096 2.02483 -7.93059 0
M  V30 2257 N 218.759 1.29093 0.90403 0
M  V30 2258 C 219.984 1.19809 1.69294 0
M  V30 2259 C 220.409 -0.238481 1.86582 0
M  V30 2260 O 219.767 -1.1723 1.383 0
M  V30 2261 C 219.815 1.91202 3.05736 0
M  V30 2262 O 218.919 1.22611 3.93752 0
M  V30 2263 H 218.26 0.415385 0.518027 0
M  V30 2264 H 220.79 1.70586 1.12967 0
M  V30 2265 H 220.8 1.99487 3.55906 0
M  V30 2266 H 219.475 2.95692 2.92471 0
M  V30 2267 H 218.052 1.22554 3.52186 0
M  V30 2268 N 220.237 -1.11381 1.11499 0
M  V30 2269 C 221.17 -2.16621 0.71769 0
M  V30 2270 C 222.148 -1.60058 -0.286413 0
M  V30 2271 O 223.332 -1.87613 -0.182689 0
M  V30 2272 C 220.459 -3.38646 0.0607265 0
M  V30 2273 C 219.505 -4.13874 1.03008 0
M  V30 2274 S 220.338 -4.70731 2.55289 0
M  V30 2275 C 221.494 -5.96079 1.90895 0
M  V30 2276 H 221.727 -2.49987 1.60915 0
M  V30 2277 H 219.26 -1.23015 0.933092 0
M  V30 2278 H 221.218 -4.09313 -0.311965 0
M  V30 2279 H 219.879 -3.03537 -0.807702 0
M  V30 2280 H 219.072 -5.01333 0.517853 0
M  V30 2281 H 218.674 -3.4897 1.34522 0
M  V30 2282 H 220.966 -6.65948 1.24577 0
M  V30 2283 H 221.909 -6.51946 2.76354 0
M  V30 2284 H 222.317 -5.47652 1.36885 0
M  V30 2285 N 221.715 -0.905404 -1.28997 0
M  V30 2286 C 222.662 -0.385892 -2.27551 0
M  V30 2287 C 223.632 0.535113 -1.57244 0
M  V30 2288 O 224.817 0.459119 -1.85194 0
M  V30 2289 C 221.957 0.375461 -3.43051 0
M  V30 2290 C 221.07 -0.577092 -4.28128 0
M  V30 2291 C 220.205 0.201879 -5.30816 0
M  V30 2292 C 219.244 -0.744829 -6.07551 0
M  V30 2293 N 218.381 9.42587e-05 -7.021 0
M  V30 2294 H 223.221 -1.23139 -2.71368 0
M  V30 2295 H 220.758 -0.618542 -1.33463 0
M  V30 2296 H 222.716 0.832992 -4.088 0
M  V30 2297 H 221.346 1.18537 -3.00248 0
M  V30 2298 H 220.398 -1.15315 -3.62501 0
M  V30 2299 H 221.71 -1.30152 -4.8152 0
M  V30 2300 H 220.864 0.720351 -6.02408 0
M  V30 2301 H 219.603 0.959413 -4.7817 0
M  V30 2302 H 218.608 -1.27475 -5.34818 0
M  V30 2303 H 219.833 -1.50178 -6.62286 0
M  V30 2304 H 217.779 0.739791 -6.51815 0
M  V30 2305 H 217.696 -0.664321 -7.53076 0
M  V30 2306 H 218.964 0.498644 -7.77903 0
M  V30 2307 N 223.193 1.4272 -0.668489 0
M  V30 2308 C 224.47 1.95248 -0.117373 0
M  V30 2309 C 224.85 1.60919 1.36632 0
M  V30 2310 O 224.198 0.902095 2.09939 0
M  V30 2311 C 224.408 3.46927 -0.379806 0
M  V30 2312 C 225.756 4.23588 -0.292923 0
M  V30 2313 O 226.78 3.5482 -0.313204 0
M  V30 2314 O 225.639 5.46017 -0.229697 0
M  V30 2315 H 222.733 0.827 0.00079152 0
M  V30 2316 H 225.279 1.52581 -0.742783 0
M  V30 2317 H 224.051 3.65096 -1.40786 0
M  V30 2318 H 223.674 3.96627 0.277923 0
M  V30 2319 N 224.671 0.411399 1.52136 0
M  V30 2320 C 225.948 -0.222308 1.94333 0
M  V30 2321 C 226.328 -1.6242 1.34844 0
M  V30 2322 O 225.676 -2.22384 0.525145 0
M  V30 2323 C 225.886 -0.226345 3.48265 0
M  V30 2324 C 227.234 -0.444592 4.22266 0
M  V30 2325 O 228.258 -0.305602 3.54887 0
M  V30 2326 O 227.117 -0.718749 5.41753 0
M  V30 2327 H 224.211 -0.143907 0.814383 0
M  V30 2328 H 226.757 0.467506 1.63133 0
M  V30 2329 H 225.529 0.75475 3.83952 0
M  V30 2330 H 225.152 -0.960163 3.85832 0
M  V30 2331 N 226.149 -1.5696 0.141893 0
M  V30 2332 C 227.079 -2.19516 -0.795936 0
M  V30 2333 C 228.06 -1.14187 -1.26077 0
M  V30 2334 O 229.245 -1.42511 -1.31925 0
M  V30 2335 C 226.375 -2.81272 -2.03723 0
M  V30 2336 C 225.329 -3.92384 -1.70936 0
M  V30 2337 C 224.655 -4.41052 -3.02287 0
M  V30 2338 C 225.955 -5.13403 -0.959954 0
M  V30 2339 H 227.649 -2.98138 -0.274596 0
M  V30 2340 H 225.195 -1.43406 -0.130636 0
M  V30 2341 H 227.148 -3.237 -2.69808 0
M  V30 2342 H 225.872 -1.99973 -2.58221 0
M  V30 2343 H 224.531 -3.50566 -1.07232 0
M  V30 2344 H 224.179 -3.56582 -3.54765 0
M  V30 2345 H 223.879 -5.15993 -2.81114 0
M  V30 2346 H 225.403 -4.86146 -3.69451 0
M  V30 2347 H 226.817 -5.52706 -1.52279 0
M  V30 2348 H 225.214 -5.94073 -0.848357 0
M  V30 2349 H 226.284 -4.84875 0.0492434 0
M  V30 2350 N 227.627 0.131896 -1.57047 0
M  V30 2351 C 228.873 0.838268 -1.85323 0
M  V30 2352 C 229.228 1.78098 -0.727937 0
M  V30 2353 O 228.521 1.89645 0.27304 0
M  V30 2354 C 228.715 1.63703 -3.17704 0
M  V30 2355 C 228.544 0.773167 -4.43004 0
M  V30 2356 C 227.314 0.432956 -5.03442 0
M  V30 2357 C 229.512 0.0966216 -5.14209 0
M  V30 2358 N 227.494 -0.442924 -6.123 0
M  V30 2359 C 228.865 -0.638778 -6.16701 0
M  V30 2360 C 230.92 0.018861 -4.97896 0
M  V30 2361 C 229.623 -1.44462 -7.04644 0
M  V30 2362 C 231.649 -0.773762 -5.86316 0
M  V30 2363 C 231.011 -1.4974 -6.883 0
M  V30 2364 H 227.11 0.284086 -0.728573 0
M  V30 2365 H 229.694 0.102731 -1.94429 0
M  V30 2366 H 227.865 2.3437 -3.09718 0
M  V30 2367 H 229.597 2.28774 -3.33833 0
M  V30 2368 H 226.352 0.772237 -4.67262 0
M  V30 2369 H 226.776 -0.872332 -6.71356 0
M  V30 2370 H 231.418 0.56397 -4.19022 0
M  V30 2371 H 229.136 -2.00093 -7.82936 0
M  V30 2372 H 232.722 -0.83612 -5.75761 0
M  V30 2373 H 231.602 -2.10087 -7.55535 0
M  V30 2374 N 229.106 1.52395 0.401703 0
M  V30 2375 C 230.331 1.70972 1.17403 0
M  V30 2376 C 230.756 0.421615 1.83314 0
M  V30 2377 O 230.114 -0.621564 1.70312 0
M  V30 2378 C 230.162 2.85151 2.20728 0
M  V30 2379 O 229.266 2.51238 3.27037 0
M  V30 2380 H 228.607 0.568927 0.342372 0
M  V30 2381 H 231.137 1.99131 0.469891 0
M  V30 2382 H 231.147 3.10279 2.64936 0
M  V30 2383 H 229.822 3.78603 1.7214 0
M  V30 2384 H 228.399 2.36808 2.88057 0
M  V30 2385 N 230.584 -0.659388 1.43143 0
M  V30 2386 C 231.833 -1.41518 1.43721 0
M  V30 2387 C 232.146 -1.95499 0.0628176 0
M  V30 2388 O 233.352 -2.71446 -0.0539683 0
M  V30 2389 C 231.808 -2.5608 2.52885 0
M  V30 2390 C 231.416 -2.08733 3.96402 0
M  V30 2391 C 233.16 -3.3349 2.62649 0
M  V30 2392 C 231.067 -3.20469 4.97045 0
M  V30 2393 H 229.997 -0.531705 0.534608 0
M  V30 2394 H 232.648 -0.712343 1.69109 0
M  V30 2395 H 231.03 -3.28805 2.20688 0
M  V30 2396 H 232.204 -1.43059 4.3803 0
M  V30 2397 H 230.519 -1.44219 3.90627 0
M  V30 2398 H 233.116 -4.16734 3.35017 0
M  V30 2399 H 233.459 -3.8111 1.67513 0
M  V30 2400 H 233.992 -2.67842 2.94118 0
M  V30 2401 H 230.731 -2.77824 5.93712 0
M  V30 2402 H 230.251 -3.84874 4.60034 0
M  V30 2403 H 231.93 -3.85698 5.19467 0
M  V30 2404 N 232.062 -1.29571 -0.897171 0
M  V30 2405 C 232.994 -1.10724 -2.00681 0
M  V30 2406 C 234.007 -0.0540026 -1.6271 0
M  V30 2407 O 235.196 -0.298783 -1.75982 0
M  V30 2408 C 232.296 -0.663912 -3.32333 0
M  V30 2409 C 231.469 -1.79622 -3.98816 0
M  V30 2410 C 230.528 -1.34349 -5.0876 0
M  V30 2411 O 229.554 -2.04864 -5.31055 0
M  V30 2412 N 230.756 -0.215764 -5.80099 0
M  V30 2413 H 233.521 -2.06291 -2.17403 0
M  V30 2414 H 231.082 -1.21544 -1.06951 0
M  V30 2415 H 233.074 -0.344295 -4.03233 0
M  V30 2416 H 231.644 0.199375 -3.11964 0
M  V30 2417 H 230.864 -2.28459 -3.21248 0
M  V30 2418 H 232.152 -2.55535 -4.39976 0
M  V30 2419 H 231.55 0.372091 -5.64475 0
M  V30 2420 H 230.107 0.0444707 -6.51785 0
M  V30 2421 N 233.54 1.10788 -1.12088 0
M  V30 2422 C 234.488 2.19111 -0.780587 0
M  V30 2423 C 235.482 1.67818 0.230961 0
M  V30 2424 O 236.688 1.79777 0.0895427 0
M  V30 2425 H 233.063 0.714477 -0.234578 0
M  V30 2426 H 235.034 2.45055 -1.70266 0
M  V30 2427 C 233.783 3.46818 -0.24747 0
M  V30 2428 H 233.106 3.86646 -1.01712 0
M  V30 2429 H 234.546 4.23973 -0.0476291 0
M  V30 2430 C 233.005 3.20968 1.02378 0
M  V30 2431 O 233.535 3.42298 2.10226 0
M  V30 2432 N 231.741 2.74658 0.949271 0
M  V30 2433 H 231.288 2.57501 0.0715173 0
M  V30 2434 H 231.246 2.57739 1.80049 0
M  V30 2435 N 235.018 0.912232 1.28515 0
M  V30 2436 C 235.948 0.416403 2.29757 0
M  V30 2437 C 236.929 -0.515194 1.6211 0
M  V30 2438 O 238.114 -0.423253 1.89532 0
M  V30 2439 C 235.244 -0.34572 3.45575 0
M  V30 2440 C 234.198 0.496599 4.25109 0
M  V30 2441 C 233.524 -0.393771 5.33248 0
M  V30 2442 C 234.824 1.75307 4.92001 0
M  V30 2443 H 236.518 1.26249 2.7148 0
M  V30 2444 H 234.064 0.608515 1.30511 0
M  V30 2445 H 236.017 -0.703422 4.15488 0
M  V30 2446 H 234.741 -1.2257 3.02728 0
M  V30 2447 H 233.4 0.8368 3.56922 0
M  V30 2448 H 233.048 -1.27225 4.86644 0
M  V30 2449 H 232.748 0.166209 5.87365 0
M  V30 2450 H 234.272 -0.747389 6.06009 0
M  V30 2451 H 235.686 1.46437 5.54283 0
M  V30 2452 H 234.083 2.25534 5.56106 0
M  V30 2453 H 235.153 2.48176 4.16577 0
M  V30 2454 N 236.496 -1.42363 0.676048 0
M  V30 2455 C 237.744 -2.01123 0.198437 0
M  V30 2456 C 238.065 -1.53731 -1.19966 0
M  V30 2457 O 237.335 -0.759518 -1.80577 0
M  V30 2458 H 235.915 -0.743678 0.0703721 0
M  V30 2459 H 238.577 -1.74263 0.872837 0
M  V30 2460 H 237.673 -3.11454 0.200686 0
M  V30 2461 N 237.974 -0.419461 -1.51915 0
M  V30 2462 C 239.202 0.152136 -2.0634 0
M  V30 2463 C 239.617 1.37988 -1.28859 0
M  V30 2464 O 238.974 1.79243 -0.343232 0
M  V30 2465 C 239.025 0.492266 -3.58133 0
M  V30 2466 O 238.746 -0.686736 -4.32684 0
M  V30 2467 C 240.247 1.11648 -4.2901 0
M  V30 2468 H 237.467 0.0158325 -0.670813 0
M  V30 2469 H 240.011 -0.593394 -1.95702 0
M  V30 2470 H 238.166 1.18769 -3.68745 0
M  V30 2471 H 238.58 -0.400341 -5.2297 0
M  V30 2472 H 240.054 1.3046 -5.36362 0
M  V30 2473 H 240.531 2.09251 -3.86148 0
M  V30 2474 H 241.137 0.460958 -4.22795 0
M  V30 2475 N 239.452 1.56882 -0.150215 0
M  V30 2476 C 240.399 2.16922 0.788244 0
M  V30 2477 C 241.369 1.10303 1.24187 0
M  V30 2478 O 242.554 1.38359 1.31383 0
M  V30 2479 C 239.694 2.79754 2.02068 0
M  V30 2480 C 238.807 4.00775 1.61257 0
M  V30 2481 C 237.942 4.51595 2.79705 0
M  V30 2482 C 236.981 5.65074 2.35282 0
M  V30 2483 N 236.118 6.10499 3.4675 0
M  V30 2484 H 240.958 2.96779 0.269444 0
M  V30 2485 H 238.495 1.46599 0.12128 0
M  V30 2486 H 240.453 3.14329 2.74323 0
M  V30 2487 H 239.083 2.02536 2.51354 0
M  V30 2488 H 238.135 3.72158 0.787553 0
M  V30 2489 H 239.447 4.82978 1.24633 0
M  V30 2490 H 238.601 4.88242 3.60145 0
M  V30 2491 H 237.34 3.68406 3.19576 0
M  V30 2492 H 236.345 5.28 1.53283 0
M  V30 2493 H 237.57 6.50052 1.96493 0
M  V30 2494 H 235.516 5.30243 3.86236 0
M  V30 2495 H 235.433 6.87637 3.14152 0
M  V30 2496 H 236.701 6.51791 4.27537 0
M  V30 2497 N 240.93 -0.123565 1.57115 0
M  V30 2498 C 241.86 -1.15309 2.03042 0
M  V30 2499 C 242.841 -1.43454 0.914061 0
M  V30 2500 O 244.026 -1.53973 1.18347 0
M  V30 2501 C 241.156 -2.48043 2.43089 0
M  V30 2502 C 240.11 -2.3437 3.58127 0
M  V30 2503 C 239.436 -3.72026 3.84059 0
M  V30 2504 C 240.736 -1.80804 4.90007 0
M  V30 2505 H 242.43 -0.771102 2.893 0
M  V30 2506 H 239.976 -0.369479 1.39179 0
M  V30 2507 H 241.929 -3.20311 2.73823 0
M  V30 2508 H 240.653 -2.88122 1.53796 0
M  V30 2509 H 239.312 -1.64551 3.27595 0
M  V30 2510 H 238.96 -4.09582 2.91979 0
M  V30 2511 H 238.66 -3.63732 4.6149 0
M  V30 2512 H 240.184 -4.45806 4.1724 0
M  V30 2513 H 241.598 -2.42886 5.19307 0
M  V30 2514 H 239.995 -1.83343 5.71407 0
M  V30 2515 H 241.065 -0.76528 4.78823 0
M  V30 2516 N 242.408 -1.52605 -0.393616 0
M  V30 2517 C 243.371 -1.76415 -1.46323 0
M  V30 2518 C 244.371 -0.634126 -1.47768 0
M  V30 2519 O 245.561 -0.902142 -1.4902 0
M  V30 2520 C 242.693 -1.8607 -2.85641 0
M  V30 2521 H 243.886 -2.71916 -1.26498 0
M  V30 2522 H 241.439 -1.43257 -0.625073 0
M  V30 2523 H 242.174 -0.925378 -3.10817 0
M  V30 2524 H 241.959 -2.68235 -2.85993 0
M  V30 2525 H 243.449 -2.06179 -3.63153 0
M  V30 2526 N 243.887 0.651787 -1.4349 0
M  V30 2527 C 245.115 1.43937 -1.48626 0
M  V30 2528 C 245.53 1.8851 -0.104587 0
M  V30 2529 O 244.887 1.5958 0.885464 0
M  V30 2530 C 244.938 2.6734 -2.43334 0
M  V30 2531 O 244.659 2.24631 -3.76128 0
M  V30 2532 C 246.16 3.60683 -2.57726 0
M  V30 2533 H 243.38 0.44213 -0.504739 0
M  V30 2534 H 245.924 0.798944 -1.88248 0
M  V30 2535 H 244.079 3.2752 -2.06904 0
M  V30 2536 H 244.493 3.04485 -4.2707 0
M  V30 2537 H 245.967 4.43933 -3.28067 0
M  V30 2538 H 246.444 4.08126 -1.62265 0
M  V30 2539 H 247.05 3.06384 -2.94973 0
M  V30 2540 N 245.365 1.30045 0.890287 0
M  V30 2541 C 246.297 1.11786 2.00091 0
M  V30 2542 C 247.31 0.0626307 1.62679 0
M  V30 2543 O 248.499 0.308112 1.75821 0
M  V30 2544 C 245.599 0.681527 3.31977 0
M  V30 2545 C 244.772 1.81735 3.97858 0
M  V30 2546 C 243.831 1.37045 5.08041 0
M  V30 2547 O 242.857 2.07677 5.29961 0
M  V30 2548 N 244.059 0.246525 5.79976 0
M  V30 2549 H 246.824 2.07441 2.16306 0
M  V30 2550 H 244.385 1.2211 1.06305 0
M  V30 2551 H 246.377 0.365675 4.03045 0
M  V30 2552 H 244.947 -0.182828 3.12065 0
M  V30 2553 H 244.167 2.30159 3.20032 0
M  V30 2554 H 245.455 2.57865 4.38615 0
M  V30 2555 H 244.853 -0.34215 5.64664 0
M  V30 2556 H 243.41 -0.00990438 6.51799 0
M  V30 2557 N 246.843 -1.10192 1.12674 0
M  V30 2558 C 247.776 -2.15847 0.740625 0
M  V30 2559 C 248.754 -1.60352 -0.269421 0
M  V30 2560 O 249.938 -1.87796 -0.16278 0
M  V30 2561 C 247.065 -3.38562 0.096641 0
M  V30 2562 C 246.111 -4.12758 1.07391 0
M  V30 2563 S 246.944 -4.67997 2.60267 0
M  V30 2564 C 248.1 -5.94021 1.97206 0
M  V30 2565 H 248.333 -2.48266 1.63558 0
M  V30 2566 H 245.866 -1.22019 0.946087 0
M  V30 2567 H 247.824 -4.09621 -0.268535 0
M  V30 2568 H 246.485 -3.04377 -0.775462 0
M  V30 2569 H 245.678 -5.00755 0.570997 0
M  V30 2570 H 245.28 -3.47523 1.38216 0
M  V30 2571 H 247.572 -6.64589 1.31634 0
M  V30 2572 H 248.515 -6.48979 2.83253 0
M  V30 2573 H 248.923 -5.46169 1.42686 0
M  V30 2574 N 248.321 -0.919034 -1.28029 0
M  V30 2575 C 249.737 -0.617972 -1.4715 0
M  V30 2576 C 249.937 0.835242 -1.83374 0
M  V30 2577 O 248.993 1.61388 -1.94191 0
M  V30 2578 C 250.306 -1.56041 -2.57044 0
M  V30 2579 C 251.854 -1.56769 -2.7091 0
M  V30 2580 C 252.329 -2.49688 -3.83953 0
M  V30 2581 N 253.82 -2.47845 -3.91314 0
M  V30 2582 C 254.555 -3.16437 -4.78179 0
M  V30 2583 N 254.051 -3.94376 -5.69596 0
M  V30 2584 N 255.844 -3.05498 -4.71834 0
M  V30 2585 H 247.995 -1.85866 -1.02798 0
M  V30 2586 H 250.258 -0.797506 -0.512531 0
M  V30 2587 H 249.964 -2.59671 -2.372 0
M  V30 2588 H 249.838 -1.29551 -3.54255 0
M  V30 2589 H 252.225 -0.538745 -2.90141 0
M  V30 2590 H 252.306 -1.87305 -1.74214 0
M  V30 2591 H 251.95 -3.52688 -3.65477 0
M  V30 2592 H 251.88 -2.16453 -4.80058 0
M  V30 2593 H 254.371 -1.91234 -3.25941 0
M  V30 2594 H 254.684 -4.43721 -6.32718 0
M  V30 2595 H 253.029 -3.98481 -5.69419 0
M  V30 2596 H 256.22 -2.44108 -3.99411 0
M  V30 2597 H 256.393 -3.59225 -5.39316 0
M  V30 2598 N 249.799 1.42003 -0.683588 0
M  V30 2599 C 250.746 2.30798 -0.0107309 0
M  V30 2600 C 251.716 1.4645 0.783688 0
M  V30 2601 O 252.901 1.75263 0.754156 0
M  V30 2602 C 250.041 3.3238 0.928306 0
M  V30 2603 C 249.154 4.31814 0.126776 0
M  V30 2604 C 248.289 5.20468 1.06236 0
M  V30 2605 C 247.328 6.11577 0.253035 0
M  V30 2606 N 246.465 6.92754 1.14179 0
M  V30 2607 H 251.305 2.8778 -0.773727 0
M  V30 2608 H 248.842 1.41745 -0.393283 0
M  V30 2609 H 250.8 3.89813 1.48666 0
M  V30 2610 H 249.43 2.76976 1.65783 0
M  V30 2611 H 248.482 3.76427 -0.54833 0
M  V30 2612 H 249.794 4.96276 -0.501192 0
M  V30 2613 H 248.948 5.82677 1.69035 0
M  V30 2614 H 247.687 4.56204 1.7242 0
M  V30 2615 H 246.692 5.48428 -0.388108 0
M  V30 2616 H 247.917 6.77892 -0.404839 0
M  V30 2617 H 245.863 6.3111 1.78987 0
M  V30 2618 H 245.78 7.53855 0.569111 0
M  V30 2619 H 247.048 7.59441 1.75697 0
M  V30 2620 N 251.277 0.427512 1.51691 0
M  V30 2621 C 252.207 -0.3796 2.30394 0
M  V30 2622 C 253.188 -1.02982 1.35384 0
M  V30 2623 O 254.373 -1.03534 1.643 0
M  V30 2624 C 251.503 -1.48649 3.1388 0
M  V30 2625 C 250.457 -0.960294 4.17088 0
M  V30 2626 C 249.783 -2.16219 4.89033 0
M  V30 2627 C 251.083 -0.00153679 5.223 0
M  V30 2628 H 252.777 0.277164 2.98114 0
M  V30 2629 H 250.323 0.134739 1.43368 0
M  V30 2630 H 252.276 -2.05826 3.67714 0
M  V30 2631 H 251 -2.1714 2.43962 0
M  V30 2632 H 249.659 -0.410806 3.64291 0
M  V30 2633 H 249.307 -2.83307 4.15628 0
M  V30 2634 H 249.007 -1.81654 5.58816 0
M  V30 2635 H 250.531 -2.73968 5.45687 0
M  V30 2636 H 251.945 -0.482687 5.71264 0
M  V30 2637 H 250.342 0.256199 5.99553 0
M  V30 2638 H 251.412 0.938174 4.75738 0
M  V30 2639 N 252.755 -1.56801 0.158532 0
M  V30 2640 C 253.983 -2.00859 -0.496303 0
M  V30 2641 C 254.398 -1.03871 -1.57659 0
M  V30 2642 O 253.755 -0.0375165 -1.82461 0
M  V30 2643 C 253.806 -3.4479 -1.08638 0
M  V30 2644 O 253.527 -4.38072 -0.0492322 0
M  V30 2645 C 255.028 -4.04185 -1.8207 0
M  V30 2646 H 252.248 -0.65864 -0.128199 0
M  V30 2647 H 254.792 -2.02885 0.256506 0
M  V30 2648 H 252.947 -3.43579 -1.78975 0
M  V30 2649 H 253.361 -5.2227 -0.483102 0
M  V30 2650 H 254.835 -5.06857 -2.18633 0
M  V30 2651 H 255.312 -3.45549 -2.71095 0
M  V30 2652 H 255.918 -4.0906 -1.16405 0
M  V30 2653 N 254.233 0.115231 -1.57178 0
M  V30 2654 C 255.458 0.840354 -1.89612 0
M  V30 2655 C 255.883 1.72464 -0.750845 0
M  V30 2656 O 255.241 1.78826 0.298478 0
M  V30 2657 C 255.289 1.64654 -3.20814 0
M  V30 2658 O 254.393 2.7538 -3.06985 0
M  V30 2659 H 253.734 0.232158 -0.622092 0
M  V30 2660 H 256.264 0.0964977 -2.04372 0
M  V30 2661 H 256.274 2.03499 -3.53627 0
M  V30 2662 H 254.949 0.997416 -4.03763 0
M  V30 2663 H 253.526 2.3971 -2.85646 0
M  V30 2664 N 255.711 1.52812 0.385517 0
M  V30 2665 C 256.659 1.78482 1.49155 0
M  V30 2666 C 257.653 0.652914 1.56312 0
M  V30 2667 O 258.859 0.835464 1.59436 0
M  V30 2668 H 255.234 0.5648 0.496493 0
M  V30 2669 H 257.205 2.71095 1.24699 0
M  V30 2670 C 255.954 1.97378 2.86247 0
M  V30 2671 H 255.277 2.83907 2.81491 0
M  V30 2672 H 256.717 2.19327 3.62866 0
M  V30 2673 C 255.176 0.74728 3.28508 0
M  V30 2674 O 255.706 -0.0736232 4.01633 0
M  V30 2675 N 253.912 0.576396 2.84826 0
M  V30 2676 H 253.459 1.24555 2.25486 0
M  V30 2677 H 253.417 -0.24288 3.1346 0
M  V30 2678 N 257.189 -0.644168 1.43834 0
M  V30 2679 C 258.119 -1.76814 1.52509 0
M  V30 2680 C 259.1 -1.65823 0.379052 0
M  V30 2681 O 260.285 -1.84781 0.597466 0
M  V30 2682 C 257.415 -3.15288 1.4564 0
M  V30 2683 C 256.369 -3.41053 2.58586 0
M  V30 2684 C 255.695 -4.79421 2.36769 0
M  V30 2685 C 256.995 -3.34902 4.00797 0
M  V30 2686 H 258.689 -1.69812 2.46586 0
M  V30 2687 H 256.235 -0.815542 1.1868 0
M  V30 2688 H 258.188 -3.93681 1.50311 0
M  V30 2689 H 256.912 -3.23043 0.480725 0
M  V30 2690 H 255.571 -2.65035 2.53282 0
M  V30 2691 H 255.219 -4.83863 1.37424 0
M  V30 2692 H 254.919 -4.9762 3.12487 0
M  V30 2693 H 256.443 -5.6006 2.43238 0
M  V30 2694 H 257.857 -4.03218 4.07539 0
M  V30 2695 H 256.254 -3.64637 4.76613 0
M  V30 2696 H 257.324 -2.32928 4.25291 0
M  V30 2697 N 258.668 -1.30515 -0.883378 0
M  V30 2698 C 260.084 -1.08881 -1.16692 0
M  V30 2699 C 260.284 0.149409 -2.00945 0
M  V30 2700 O 259.34 0.84257 -2.38027 0
M  V30 2701 C 260.653 -2.35319 -1.87204 0
M  V30 2702 C 262.201 -2.40799 -1.99962 0
M  V30 2703 C 262.676 -3.67083 -2.73887 0
M  V30 2704 N 264.167 -3.679 -2.81432 0
M  V30 2705 C 264.902 -4.62303 -3.3921 0
M  V30 2706 N 264.398 -5.67052 -3.98025 0
M  V30 2707 N 266.191 -4.49845 -3.3704 0
M  V30 2708 H 258.342 -2.09951 -0.321633 0
M  V30 2709 H 260.605 -0.92556 -0.205043 0
M  V30 2710 H 260.311 -3.25689 -1.3274 0
M  V30 2711 H 260.185 -2.44089 -2.87577 0
M  V30 2712 H 262.572 -1.50907 -2.53597 0
M  V30 2713 H 262.653 -2.36003 -0.98673 0
M  V30 2714 H 262.297 -4.57334 -2.20925 0
M  V30 2715 H 262.227 -3.69141 -3.75556 0
M  V30 2716 H 264.718 -2.92171 -2.39676 0
M  V30 2717 H 265.031 -6.35184 -4.40183 0
M  V30 2718 H 263.376 -5.70842 -3.96439 0
M  V30 2719 H 266.567 -3.67194 -2.90321 0
M  V30 2720 H 266.74 -5.23597 -3.81772 0
M  V30 2721 N 260.146 1.09593 -1.13257 0
M  V30 2722 C 261.395 1.81105 -0.887917 0
M  V30 2723 C 261.708 1.86563 0.587672 0
M  V30 2724 O 262.914 2.54367 0.949204 0
M  V30 2725 C 261.37 3.25338 -1.53895 0
M  V30 2726 C 260.978 3.28151 -3.04994 0
M  V30 2727 C 262.722 4.01617 -1.37492 0
M  V30 2728 C 260.629 4.66897 -3.6299 0
M  V30 2729 H 259.559 0.678661 -0.328534 0
M  V30 2730 H 262.21 1.23183 -1.36008 0
M  V30 2731 H 260.592 3.8331 -0.994446 0
M  V30 2732 H 261.766 2.79953 -3.66009 0
M  V30 2733 H 260.081 2.65361 -3.20893 0
M  V30 2734 H 262.678 5.04119 -1.78235 0
M  V30 2735 H 263.021 4.15072 -0.31957 0
M  V30 2736 H 263.554 3.50082 -1.88912 0
M  V30 2737 H 260.293 4.58643 -4.68323 0
M  V30 2738 H 259.813 5.15426 -3.06752 0
M  V30 2739 H 261.492 5.3587 -3.62563 0
M  V30 2740 N 261.624 0.925811 1.2754 0
M  V30 2741 C 262.872 0.564138 1.94067 0
M  V30 2742 C 263.193 -0.897188 1.73134 0
M  V30 2743 O 262.463 -1.63573 1.07799 0
M  V30 2744 H 261.043 0.205645 0.718136 0
M  V30 2745 H 263.705 1.1778 1.55287 0
M  V30 2746 H 262.801 0.76881 3.02483 0
M  V30 2747 N 263.102 -1.41638 0.69111 0
M  V30 2748 C 264.349 -2.01299 0.220193 0
M  V30 2749 C 264.677 -1.54715 -1.17871 0
M  V30 2750 O 263.932 -0.747193 -1.80874 0
M  V30 2751 C 264.231 -3.56714 0.221277 0
M  V30 2752 C 263.897 -4.22792 1.56709 0
M  V30 2753 C 262.559 -4.40557 1.93554 0
M  V30 2754 C 264.911 -4.59883 2.45268 0
M  V30 2755 C 262.239 -4.92688 3.18552 0
M  V30 2756 C 264.591 -5.13403 3.69595 0
M  V30 2757 C 263.255 -5.29379 4.06589 0
M  V30 2758 H 262.525 -0.736606 0.0805743 0
M  V30 2759 H 265.172 -1.69598 0.889319 0
M  V30 2760 H 263.477 -3.8818 -0.531391 0
M  V30 2761 H 265.174 -4.00678 -0.160547 0
M  V30 2762 H 261.764 -4.09336 1.2705 0
M  V30 2763 H 265.948 -4.45817 2.18084 0
M  V30 2764 H 261.204 -5.03242 3.47214 0
M  V30 2765 H 265.378 -5.41084 4.38407 0
M  V30 2766 H 263.005 -5.69537 5.03519 0
M  V30 2767 N 264.58 -0.43555 -1.51462 0
M  V30 2768 C 265.828 0.131254 -2.01673 0
M  V30 2769 C 266.149 1.43368 -1.32177 0
M  V30 2770 O 265.419 1.90524 -0.455769 0
M  V30 2771 H 263.999 0.0514954 -0.745223 0
M  V30 2772 H 266.661 -0.577847 -1.86137 0
M  V30 2773 H 265.757 0.308446 -3.10572 0
M  V30 2774 N 266.058 1.56714 -0.166846 0
M  V30 2775 C 267.021 2.16539 0.751232 0
M  V30 2776 C 268.021 1.11228 1.16125 0
M  V30 2777 O 269.211 1.36765 1.07894 0
M  V30 2778 C 266.343 2.74462 2.02196 0
M  V30 2779 H 267.536 2.99013 0.230499 0
M  V30 2780 H 265.089 1.56081 0.0826982 0
M  V30 2781 H 265.824 1.95709 2.58589 0
M  V30 2782 H 265.609 3.51527 1.73698 0
M  V30 2783 H 267.099 3.20489 2.67725 0
M  V30 2784 N 267.536 -0.106894 1.57237 0
M  V30 2785 C 268.783 -0.812526 1.85484 0
M  V30 2786 C 269.111 -1.79304 0.753687 0
M  V30 2787 O 268.366 -1.94047 -0.253853 0
M  V30 2788 C 268.665 -1.58628 3.20268 0
M  V30 2789 C 268.331 -0.748967 4.44636 0
M  V30 2790 C 266.993 -0.518104 4.78403 0
M  V30 2791 C 269.345 -0.166122 5.20935 0
M  V30 2792 C 266.673 0.305659 5.85903 0
M  V30 2793 C 269.025 0.644899 6.29304 0
M  V30 2794 C 267.689 0.885965 6.61594 0
M  V30 2795 H 266.959 -0.297324 0.678734 0
M  V30 2796 H 269.606 -0.0744332 1.91355 0
M  V30 2797 H 267.911 -2.39562 3.10028 0
M  V30 2798 H 269.608 -2.13643 3.39349 0
M  V30 2799 H 266.198 -0.939006 4.18187 0
M  V30 2800 H 270.382 -0.33167 4.95191 0
M  V30 2801 H 265.638 0.501528 6.0934 0
M  V30 2802 H 269.812 1.10345 6.87602 0
M  V30 2803 H 267.439 1.52609 7.44725 0
M  V30 2804 N 269.014 -1.53014 -0.377408 0
M  V30 2805 C 270.26 -1.68872 -1.12294 0
M  V30 2806 C 270.593 -0.433224 -1.89306 0
M  V30 2807 O 269.868 0.569258 -1.85983 0
M  V30 2808 C 270.151 -2.93115 -2.09179 0
M  V30 2809 C 270.004 -4.28794 -1.35853 0
M  V30 2810 C 271.323 -3.12928 -3.09458 0
M  V30 2811 H 268.442 -0.614518 -0.406862 0
M  V30 2812 H 271.084 -1.85633 -0.40503 0
M  V30 2813 H 269.234 -2.78956 -2.70399 0
M  V30 2814 H 270.906 -4.54742 -0.775082 0
M  V30 2815 H 269.149 -4.28744 -0.660364 0
M  V30 2816 H 269.82 -5.11837 -2.06706 0
M  V30 2817 H 272.296 -3.26194 -2.58334 0
M  V30 2818 H 271.172 -4.01316 -3.74482 0
M  V30 2819 H 271.433 -2.27669 -3.78971 0
M  V30 2820 N 270.492 0.636531 -1.44174 0
M  V30 2821 C 271.769 1.39463 -1.37148 0
M  V30 2822 C 272.149 2.11082 -0.027507 0
M  V30 2823 O 271.497 2.05954 0.989716 0
M  V30 2824 C 271.707 2.36552 -2.56601 0
M  V30 2825 C 273.055 3.00048 -3.00427 0
M  V30 2826 O 274.079 2.46878 -2.56767 0
M  V30 2827 O 272.938 3.96488 -3.76111 0
M  V30 2828 H 270.032 0.623903 -0.542839 0
M  V30 2829 H 272.578 0.662039 -1.56253 0
M  V30 2830 H 271.35 1.82692 -3.46034 0
M  V30 2831 H 270.973 3.17236 -2.39681 0
M  V30 2832 N 271.97 1.30982 0.876444 0
M  V30 2833 C 272.917 1.18085 1.98304 0
M  V30 2834 C 273.887 0.0682263 1.6596 0
M  V30 2835 O 275.072 0.239937 1.89285 0
M  V30 2836 C 272.212 0.887475 3.33493 0
M  V30 2837 C 271.325 2.08281 3.78475 0
M  V30 2838 C 270.46 1.72678 5.0235 0
M  V30 2839 C 269.499 2.88657 5.39762 0
M  V30 2840 N 268.636 2.53292 6.54819 0
M  V30 2841 H 273.476 2.1275 2.08666 0
M  V30 2842 H 271.013 1.05839 1.02159 0
M  V30 2843 H 272.971 0.697961 4.1132 0
M  V30 2844 H 271.601 -0.022315 3.22792 0
M  V30 2845 H 270.653 2.3833 2.96484 0
M  V30 2846 H 271.965 2.95108 4.02135 0
M  V30 2847 H 271.119 1.50151 5.87826 0
M  V30 2848 H 269.858 0.830327 4.8058 0
M  V30 2849 H 268.863 3.1184 4.52809 0
M  V30 2850 H 270.088 3.79002 5.63502 0
M  V30 2851 H 268.034 1.66163 6.34607 0
M  V30 2852 H 267.951 3.3365 6.7839 0
M  V30 2853 H 269.219 2.34143 7.43503 0
M  V30 2854 N 273.449 -1.08991 1.13837 0
M  V30 2855 C 274.86 -1.62746 0.914917 0
M  V30 2856 C 275.211 -1.88403 -0.547594 0
M  V30 2857 O 274.336 -1.63706 -1.41525 0
M  V30 2858 C 274.931 -2.95662 1.65437 0
M  V30 2859 C 273.49 -3.46225 1.47666 0
M  V30 2860 C 272.637 -2.20562 1.6807 0
M  V30 2861 H 275.588 -0.922946 1.29102 0
M  V30 2862 H 275.609 -3.63825 1.11407 0
M  V30 2863 H 275.121 -2.76956 2.71877 0
M  V30 2864 H 273.222 -3.70046 0.435478 0
M  V30 2865 H 273.335 -4.23368 2.24268 0
M  V30 2866 H 271.699 -2.29439 1.10589 0
M  V30 2867 H 272.482 -2.0437 2.7584 0
M  V30 2868 N 274.927 -0.932562 -1.27047 0
M  V30 2869 C 276.173 -0.576412 -1.94436 0
M  V30 2870 C 276.506 0.880891 -1.73072 0
M  V30 2871 O 275.781 1.62905 -1.06264 0
M  V30 2872 C 276.064 -0.909031 -3.48437 0
M  V30 2873 C 275.917 -2.42044 -3.79123 0
M  V30 2874 C 277.236 -0.418341 -4.38107 0
M  V30 2875 H 274.355 -0.210888 -0.706184 0
M  V30 2876 H 276.997 -1.16522 -1.50075 0
M  V30 2877 H 275.147 -0.407947 -3.86352 0
M  V30 2878 H 276.819 -2.99359 -3.50973 0
M  V30 2879 H 275.062 -2.86758 -3.25503 0
M  V30 2880 H 275.733 -2.6037 -4.86736 0
M  V30 2881 H 278.209 -0.847856 -4.0737 0
M  V30 2882 H 277.085 -0.679981 -5.44672 0
M  V30 2883 H 277.346 0.681642 -4.36814 0
M  V30 2884 N 276.405 1.4127 -0.698611 0
M  V30 2885 C 277.63 2.06024 -0.238512 0
M  V30 2886 C 278.055 1.5224 1.10475 0
M  V30 2887 O 277.413 0.650623 1.69223 0
M  V30 2888 C 277.461 3.59988 -0.209952 0
M  V30 2889 O 276.565 4.04282 0.814235 0
M  V30 2890 H 275.906 0.653829 -0.115775 0
M  V30 2891 H 278.436 1.8098 -0.954326 0
M  V30 2892 H 278.446 4.07979 -0.0418436 0
M  V30 2893 H 277.121 3.98503 -1.1903 0
M  V30 2894 H 275.698 3.6779 0.615234 0
M  V30 2895 N 277.883 0.443576 1.51229 0
M  V30 2896 C 279.294 -0.0180867 1.86691 0
M  V30 2897 C 279.645 -1.41384 1.36033 0
M  V30 2898 O 278.77 -2.04291 0.713722 0
M  V30 2899 C 279.365 -0.039597 3.38777 0
M  V30 2900 C 277.924 -0.445692 3.73752 0
M  V30 2901 C 277.071 0.357584 2.74985 0
M  V30 2902 H 280.022 0.659138 1.44364 0
M  V30 2903 H 280.043 -0.847761 3.70936 0
M  V30 2904 H 279.555 0.976382 3.75617 0
M  V30 2905 H 277.656 -1.46704 3.42503 0
M  V30 2906 H 277.769 -0.166155 4.78812 0
M  V30 2907 H 276.133 -0.184973 2.54027 0
M  V30 2908 H 276.916 1.37256 3.14668 0
M  V30 2909 N 279.361 -1.56624 0.175154 0
M  V30 2910 C 280.591 -2.01082 -0.474283 0
M  V30 2911 C 280.999 -1.05447 -1.57091 0
M  V30 2912 O 280.342 -0.0480595 -1.83637 0
M  V30 2913 C 280.404 -3.41963 -1.10911 0
M  V30 2914 C 280.068 -4.56742 -0.153666 0
M  V30 2915 C 281.065 -5.16076 0.629448 0
M  V30 2916 C 278.75 -5.02277 -0.0483776 0
M  V30 2917 C 280.744 -6.19377 1.50501 0
M  V30 2918 C 278.431 -6.05427 0.830768 0
M  V30 2919 C 279.429 -6.63849 1.60605 0
M  V30 2920 O 279.117 -7.64998 2.47049 0
M  V30 2921 H 278.849 -0.664261 -0.125432 0
M  V30 2922 H 281.403 -2.03549 0.275163 0
M  V30 2923 H 279.633 -3.36422 -1.90676 0
M  V30 2924 H 281.322 -3.70352 -1.66114 0
M  V30 2925 H 282.088 -4.81776 0.558297 0
M  V30 2926 H 277.967 -4.56513 -0.641611 0
M  V30 2927 H 281.511 -6.64906 2.1106 0
M  V30 2928 H 277.408 -6.39151 0.903107 0
M  V30 2929 H 278.176 -7.82336 2.40607 0
M  V30 2930 N 280.839 0.0985539 -1.57292 0
M  V30 2931 C 281.772 1.15082 -1.97057 0
M  V30 2932 C 282.75 1.39025 -0.843255 0
M  V30 2933 O 283.934 1.52842 -1.10325 0
M  V30 2934 C 281.061 2.50069 -2.28437 0
M  V30 2935 C 280.107 2.42428 -3.509 0
M  V30 2936 S 280.94 1.84414 -5.02744 0
M  V30 2937 C 282.096 3.21032 -5.37298 0
M  V30 2938 H 282.329 0.811815 -2.86002 0
M  V30 2939 H 279.862 0.306102 -1.51335 0
M  V30 2940 H 281.82 3.27729 -2.47192 0
M  V30 2941 H 280.481 2.8114 -1.40069 0
M  V30 2942 H 279.674 3.41911 -3.70288 0
M  V30 2943 H 279.276 1.72896 -3.31637 0
M  V30 2944 H 281.568 4.17297 -5.33731 0
M  V30 2945 H 282.511 3.06452 -6.38352 0
M  V30 2946 H 282.919 3.20404 -4.64759 0
M  V30 2947 N 282.317 1.53212 0.369288 0
M  V30 2948 C 283.547 1.72868 1.13139 0
M  V30 2949 C 283.955 0.455754 1.83629 0
M  V30 2950 O 283.298 -0.580861 1.74275 0
M  V30 2951 C 283.36 2.83667 2.20847 0
M  V30 2952 C 283.024 4.24142 1.70155 0
M  V30 2953 C 284.021 5.06619 1.16763 0
M  V30 2954 C 281.706 4.70539 1.7578 0
M  V30 2955 C 283.7 6.33581 0.696678 0
M  V30 2956 C 281.387 5.97481 1.28297 0
M  V30 2957 C 282.385 6.78833 0.753307 0
M  V30 2958 O 282.073 8.03393 0.285475 0
M  V30 2959 H 281.805 0.581707 0.344373 0
M  V30 2960 H 284.359 2.00736 0.435243 0
M  V30 2961 H 282.589 2.51265 2.93944 0
M  V30 2962 H 284.278 2.91536 2.82421 0
M  V30 2963 H 285.044 4.71948 1.11758 0
M  V30 2964 H 280.923 4.07293 2.15949 0
M  V30 2965 H 284.467 6.97027 0.282581 0
M  V30 2966 H 280.364 6.31651 1.32994 0
M  V30 2967 H 281.132 8.17497 0.405145 0
M  V30 2968 N 283.795 -0.628877 1.44509 0
M  V30 2969 C 285.044 -1.38437 1.4669 0
M  V30 2970 C 285.357 -1.95322 0.104272 0
M  V30 2971 O 286.563 -2.715 0.00362163 0
M  V30 2972 C 285.019 -2.50659 2.5826 0
M  V30 2973 C 284.627 -2.00277 4.0074 0
M  V30 2974 C 286.371 -3.27844 2.69664 0
M  V30 2975 C 284.278 -3.09854 5.0373 0
M  V30 2976 H 283.208 -0.520245 0.545766 0
M  V30 2977 H 285.859 -0.676313 1.70582 0
M  V30 2978 H 284.241 -3.2405 2.27612 0
M  V30 2979 H 285.415 -1.33736 4.40966 0
M  V30 2980 H 283.73 -1.35901 3.93599 0
M  V30 2981 H 286.327 -4.09534 3.43781 0
M  V30 2982 H 286.67 -3.77471 1.75559 0
M  V30 2983 H 287.203 -2.61543 2.99733 0
M  V30 2984 H 283.942 -2.65168 5.99472 0
M  V30 2985 H 283.462 -3.7503 4.68095 0
M  V30 2986 H 285.141 -3.74592 5.27532 0
M  V30 2987 N 285.273 -1.31445 -0.869486 0
M  V30 2988 C 286.498 -1.24256 -1.66058 0
M  V30 2989 C 286.923 0.188928 -1.87149 0
M  V30 2990 O 286.281 1.13522 -1.4136 0
M  V30 2991 C 286.329 -1.9924 -3.00559 0
M  V30 2992 O 285.433 -1.33007 -3.90362 0
M  V30 2993 H 284.774 -0.428973 -0.506831 0
M  V30 2994 H 287.304 -1.73521 -1.08404 0
M  V30 2995 H 287.314 -2.08854 -3.50491 0
M  V30 2996 H 285.989 -3.03342 -2.84528 0
M  V30 2997 H 284.566 -1.31848 -3.48813 0
M  V30 2998 N 286.751 1.08385 -1.14413 0
M  V30 2999 C 288.162 1.62258 -0.923535 0
M  V30 3000 C 288.513 1.88691 0.537595 0
M  V30 3001 O 287.638 1.64454 1.40655 0
M  V30 3002 C 288.233 2.94781 -1.67002 0
M  V30 3003 C 286.792 3.45437 -1.495 0
M  V30 3004 C 285.939 2.19668 -1.69238 0
M  V30 3005 H 288.89 0.916086 -1.2959 0
M  V30 3006 H 288.911 3.63229 -1.13334 0
M  V30 3007 H 288.423 2.7551 -2.73342 0
M  V30 3008 H 286.524 3.6981 -0.455097 0
M  V30 3009 H 286.637 4.22173 -2.2651 0
M  V30 3010 H 285.001 2.28849 -1.11804 0
M  V30 3011 H 285.784 2.02905 -2.7692 0
M  V30 3012 N 288.23 0.939286 1.26551 0
M  V30 3013 C 289.641 0.628782 1.75793 0
M  V30 3014 C 289.992 -0.856046 1.7654 0
M  V30 3015 O 289.117 -1.66994 1.3763 0
M  V30 3016 C 289.712 1.13465 3.19235 0
M  V30 3017 C 288.271 0.874601 3.66098 0
M  V30 3018 C 287.418 1.28667 2.45642 0
M  V30 3019 H 290.369 1.1178 1.12654 0
M  V30 3020 H 290.39 0.487609 3.77363 0
M  V30 3021 H 289.902 2.21535 3.1866 0
M  V30 3022 H 288.003 -0.191793 3.72106 0
M  V30 3023 H 288.116 1.50028 4.55004 0
M  V30 3024 H 286.48 0.705109 2.44745 0
M  V30 3025 H 287.263 2.37625 2.47769 0
M  V30 3026 N 289.708 -1.40897 0.706093 0
M  V30 3027 C 290.618 -2.3455 0.0482286 0
M  V30 3028 C 291.634 -1.56796 -0.754396 0
M  V30 3029 O 292.81 -1.89228 -0.689538 0
M  V30 3030 C 289.875 -3.35625 -0.869303 0
M  V30 3031 C 288.936 -4.29261 -0.0576994 0
M  V30 3032 C 288.169 -5.25508 -0.931531 0
M  V30 3033 O 288.392 -5.27472 -2.17092 0
M  V30 3034 O 287.326 -6.00727 -0.375587 0
M  V30 3035 H 291.152 -2.92407 0.820476 0
M  V30 3036 H 288.737 -1.4193 0.4665 0
M  V30 3037 H 290.619 -3.97635 -1.39514 0
M  V30 3038 H 289.294 -2.80196 -1.62086 0
M  V30 3039 H 288.201 -3.70566 0.512988 0
M  V30 3040 H 289.534 -4.87817 0.655426 0
M  V30 3041 N 291.186 -0.45159 -1.50991 0
M  V30 3042 C 292.149 0.341117 -2.26647 0
M  V30 3043 C 293.149 0.937422 -1.30649 0
M  V30 3044 O 294.339 0.809644 -1.54241 0
M  V30 3045 C 291.471 1.48398 -3.06905 0
M  V30 3046 H 292.664 -0.322117 -2.98165 0
M  V30 3047 H 290.217 -0.205122 -1.54948 0
M  V30 3048 H 290.952 2.18284 -2.39838 0
M  V30 3049 H 290.737 1.06241 -3.77432 0
M  V30 3050 H 292.227 2.04367 -3.64176 0
M  V30 3051 N 292.664 1.56529 -0.183458 0
M  V30 3052 C 293.594 2.21549 0.737456 0
M  V30 3053 C 294.575 1.17489 1.23005 0
M  V30 3054 O 295.76 1.45959 1.281 0
M  V30 3055 C 292.89 2.86575 1.96194 0
M  V30 3056 C 291.844 3.96778 1.60473 0
M  V30 3057 C 291.17 4.48911 2.90487 0
M  V30 3058 C 292.47 5.15767 0.823497 0
M  V30 3059 H 294.164 2.98761 0.195453 0
M  V30 3060 H 291.71 1.43702 0.0925686 0
M  V30 3061 H 293.663 3.30739 2.61131 0
M  V30 3062 H 292.387 2.06749 2.52828 0
M  V30 3063 H 291.046 3.53286 0.978997 0
M  V30 3064 H 290.694 3.65862 3.45186 0
M  V30 3065 H 290.394 5.23265 2.67335 0
M  V30 3066 H 291.918 4.95771 3.56432 0
M  V30 3067 H 293.332 5.56549 1.37571 0
M  V30 3068 H 291.729 5.96114 0.690551 0
M  V30 3069 H 292.799 4.84574 -0.177782 0
M  V30 3070 N 294.142 -0.090211 1.57342 0
M  V30 3071 C 295.052 -1.12735 2.05738 0
M  V30 3072 C 296.068 -1.43557 0.983231 0
M  V30 3073 O 297.244 -1.54101 1.29672 0
M  V30 3074 C 294.309 -2.42659 2.47624 0
M  V30 3075 C 293.37 -2.18975 3.69254 0
M  V30 3076 C 292.603 -3.42704 4.09133 0
M  V30 3077 O 292.826 -4.51127 3.49057 0
M  V30 3078 O 291.76 -3.32003 5.02053 0
M  V30 3079 H 295.586 -0.746279 2.94388 0
M  V30 3080 H 293.171 -0.303064 1.46294 0
M  V30 3081 H 295.053 -3.19155 2.7517 0
M  V30 3082 H 293.728 -2.80182 1.62109 0
M  V30 3083 H 292.635 -1.40244 3.46818 0
M  V30 3084 H 293.968 -1.86342 4.55563 0
M  V30 3085 N 295.62 -1.53406 -0.361157 0
M  V30 3086 C 296.568 -1.80832 -1.46296 0
M  V30 3087 C 297.562 -0.677699 -1.55253 0
M  V30 3088 O 298.768 -0.860723 -1.58087 0
M  V30 3089 H 295.143 -0.572627 -0.487445 0
M  V30 3090 H 297.114 -2.73045 -1.20371 0
M  V30 3091 C 295.863 -2.01907 -2.8307 0
M  V30 3092 H 295.186 -2.88349 -2.76938 0
M  V30 3093 H 296.626 -2.25072 -3.59331 0
M  V30 3094 C 295.085 -0.799449 -3.27277 0
M  V30 3095 O 295.615 0.00971761 -4.01699 0
M  V30 3096 N 293.821 -0.621637 -2.83873 0
M  V30 3097 H 293.368 -1.28126 -2.23476 0
M  V30 3098 H 293.326 0.19298 -3.13807 0
M  V30 3099 N 297.098 0.621204 -1.44841 0
M  V30 3100 C 298.509 1.20298 -1.42777 0
M  V30 3101 C 298.86 1.95639 -0.148259 0
M  V30 3102 O 297.985 2.02955 0.750892 0
M  V30 3103 C 298.58 2.1882 -2.58657 0
M  V30 3104 C 297.139 2.72403 -2.59756 0
M  V30 3105 C 296.286 1.4757 -2.34773 0
M  V30 3106 H 299.237 0.411297 -1.53278 0
M  V30 3107 H 299.258 3.01607 -2.31977 0
M  V30 3108 H 298.77 1.63957 -3.51766 0
M  V30 3109 H 296.871 3.31242 -1.70615 0
M  V30 3110 H 296.984 3.17765 -3.58556 0
M  V30 3111 H 295.348 1.76051 -1.8406 0
M  V30 3112 H 296.131 0.945954 -3.3001 0
M  V30 3113 N 298.576 1.31904 0.862503 0
M  V30 3114 C 299.816 1.23324 1.63004 0
M  V30 3115 C 300.18 -0.203724 1.90916 0
M  V30 3116 O 301.381 -0.413132 2.65606 0
M  V30 3117 C 299.652 2.06116 2.91978 0
M  V30 3118 S 301.211 2.14478 3.82812 0
M  V30 3119 H 298.029 0.439117 0.559193 0
M  V30 3120 H 300.631 1.66658 1.02202 0
M  V30 3121 H 299.335 3.09593 2.69407 0
M  V30 3122 H 298.866 1.6353 3.57801 0
M  V30 3123 H 300.881 1.28855 4.79177 0
M  V30 3124 N 300.054 -1.07777 1.14986 0
M  V30 3125 C 301.284 -1.83752 0.944402 0
M  V30 3126 C 301.692 -1.8218 -0.51058 0
M  V30 3127 O 301.035 -1.22852 -1.36576 0
M  V30 3128 C 301.097 -3.32128 1.37592 0
M  V30 3129 C 300.761 -3.57425 2.84775 0
M  V30 3130 C 301.758 -3.5173 3.8286 0
M  V30 3131 C 299.443 -3.8523 3.2234 0
M  V30 3132 C 301.437 -3.73482 5.16517 0
M  V30 3133 C 299.124 -4.06634 4.56171 0
M  V30 3134 C 300.122 -4.00754 5.53069 0
M  V30 3135 O 299.81 -4.2159 6.84483 0
M  V30 3136 H 299.542 -0.58673 0.335744 0
M  V30 3137 H 302.096 -1.36982 1.53052 0
M  V30 3138 H 300.326 -3.79686 0.733165 0
M  V30 3139 H 302.015 -3.89555 1.14024 0
M  V30 3140 H 302.781 -3.30256 3.55184 0
M  V30 3141 H 298.66 -3.88923 2.47508 0
M  V30 3142 H 302.204 -3.68808 5.92137 0
M  V30 3143 H 298.101 -4.27593 4.83564 0
M  V30 3144 H 298.869 -4.38961 6.90837 0
M  V30 3145 N 301.532 -0.945985 -1.26051 0
M  V30 3146 C 302.809 -0.513816 -1.88731 0
M  V30 3147 C 303.189 1.00872 -1.8544 0
M  V30 3148 O 302.537 1.8708 -1.312 0
M  V30 3149 C 302.747 -1.08062 -3.31849 0
M  V30 3150 C 304.095 -1.1522 -4.08668 0
M  V30 3151 O 305.119 -1.03155 -3.40936 0
M  V30 3152 O 303.978 -1.34044 -5.29806 0
M  V30 3153 H 301.072 -0.168193 -0.809716 0
M  V30 3154 H 303.618 -1.03886 -1.34186 0
M  V30 3155 H 302.39 -2.1241 -3.2863 0
M  V30 3156 H 302.013 -0.538307 -3.93939 0
M  V30 3157 N 303.011 1.40521 -0.713556 0
M  V30 3158 C 303.944 2.28198 -0.00881422 0
M  V30 3159 C 304.922 1.43227 0.769735 0
M  V30 3160 O 306.106 1.72641 0.756799 0
M  V30 3161 C 303.233 3.23758 0.994899 0
M  V30 3162 C 302.279 4.25391 0.3074 0
M  V30 3163 S 303.112 5.26765 -0.963247 0
M  V30 3164 C 304.268 6.25888 0.0384143 0
M  V30 3165 H 304.501 2.87622 -0.752407 0
M  V30 3166 H 302.034 1.45925 -0.504502 0
M  V30 3167 H 303.992 3.79341 1.56879 0
M  V30 3168 H 302.653 2.63396 1.71118 0
M  V30 3169 H 301.846 4.92596 1.0661 0
M  V30 3170 H 301.448 3.73497 -0.193879 0
M  V30 3171 H 303.74 6.71683 0.885912 0
M  V30 3172 H 304.683 7.05552 -0.60019 0
M  V30 3173 H 305.091 5.63072 0.401233 0
M  V30 3174 N 304.489 0.459591 1.5075 0
M  V30 3175 C 305.436 -0.340524 2.28274 0
M  V30 3176 C 306.406 -0.997371 1.32822 0
M  V30 3177 O 307.591 -1.01202 1.61749 0
M  V30 3178 C 304.731 -1.42317 3.14388 0
M  V30 3179 C 303.844 -0.782251 4.24859 0
M  V30 3180 C 302.979 -1.84182 4.98247 0
M  V30 3181 C 302.018 -1.18053 6.00608 0
M  V30 3182 N 301.155 -2.18244 6.67319 0
M  V30 3183 H 305.995 0.326899 2.96202 0
M  V30 3184 H 303.532 0.173057 1.46078 0
M  V30 3185 H 305.49 -2.06241 3.62658 0
M  V30 3186 H 304.12 -2.05992 2.4853 0
M  V30 3187 H 303.172 -0.0307404 3.80388 0
M  V30 3188 H 304.484 -0.259663 4.98124 0
M  V30 3189 H 303.638 -2.55714 5.50177 0
M  V30 3190 H 302.377 -2.39819 4.24662 0
M  V30 3191 H 301.382 -0.450776 5.47949 0
M  V30 3192 H 302.607 -0.631202 6.7616 0
M  V30 3193 H 300.553 -2.72919 5.96533 0
M  V30 3194 H 300.47 -1.70938 7.36421 0
M  V30 3195 H 301.738 -2.89191 7.23871 0
M  V30 3196 N 305.967 -1.56429 0.191757 0
M  V30 3197 C 307.195 -2.01867 -0.453586 0
M  V30 3198 C 307.61 -1.07191 -1.5542 0
M  V30 3199 O 306.967 -0.0762108 -1.82341 0
M  V30 3200 C 307.018 -3.47017 -1.013 0
M  V30 3201 O 306.739 -4.38078 0.0437005 0
M  V30 3202 C 308.24 -4.07956 -1.73456 0
M  V30 3203 H 305.46 -0.661211 -0.114199 0
M  V30 3204 H 308.004 -2.02295 0.299483 0
M  V30 3205 H 306.159 -3.47298 -1.71647 0
M  V30 3206 H 306.573 -5.23178 -0.372212 0
M  V30 3207 H 308.047 -5.1138 -2.07833 0
M  V30 3208 H 308.524 -3.51222 -2.63704 0
M  V30 3209 H 309.13 -4.11437 -1.07702 0
M  V30 3210 N 307.445 0.0818655 -1.57387 0
M  V30 3211 C 308.673 0.796108 -1.9097 0
M  V30 3212 C 309.088 1.71626 -0.786757 0
M  V30 3213 O 308.445 1.80908 0.240513 0
M  V30 3214 C 308.496 1.59829 -3.24248 0
M  V30 3215 O 308.217 0.715131 -4.32224 0
M  V30 3216 C 309.718 2.41442 -3.7178 0
M  V30 3217 H 306.938 0.22691 -0.631469 0
M  V30 3218 H 309.482 0.0551439 -2.04426 0
M  V30 3219 H 307.637 2.29163 -3.12351 0
M  V30 3220 H 308.051 1.27205 -5.08841 0
M  V30 3221 H 309.525 2.932 -4.67694 0
M  V30 3222 H 310.002 3.2051 -3.00283 0
M  V30 3223 H 310.608 1.77283 -3.86589 0
M  V30 3224 N 308.923 1.53595 0.353017 0
M  V30 3225 C 310.163 1.72094 1.10286 0
M  V30 3226 C 310.527 0.469217 1.86178 0
M  V30 3227 O 311.728 0.531083 2.63501 0
M  V30 3228 C 309.999 2.94386 2.02661 0
M  V30 3229 S 311.558 3.33651 2.84996 0
M  V30 3230 H 308.376 0.605433 0.372789 0
M  V30 3231 H 310.978 1.91722 0.38248 0
M  V30 3232 H 309.682 3.83669 1.45691 0
M  V30 3233 H 309.213 2.77197 2.79152 0
M  V30 3234 H 311.228 2.86645 4.0503 0
M  V30 3235 N 310.401 -0.613514 1.45168 0
M  V30 3236 C 311.331 -1.7354 1.56225 0
M  V30 3237 C 312.312 -1.64981 0.41414 0
M  V30 3238 O 313.497 -1.83472 0.636526 0
M  V30 3239 C 310.627 -3.12128 1.52295 0
M  V30 3240 C 309.581 -3.35491 2.65762 0
M  V30 3241 C 308.907 -4.74291 2.46885 0
M  V30 3242 C 310.207 -3.26325 4.0781 0
M  V30 3243 H 311.901 -1.64543 2.50132 0
M  V30 3244 H 309.447 -0.790185 1.20383 0
M  V30 3245 H 311.4 -3.90404 1.58628 0
M  V30 3246 H 310.124 -3.2195 0.549139 0
M  V30 3247 H 308.783 -2.59603 2.58847 0
M  V30 3248 H 308.431 -4.80839 1.47657 0
M  V30 3249 H 308.131 -4.9088 3.22972 0
M  V30 3250 H 309.655 -5.54775 2.55063 0
M  V30 3251 H 311.069 -3.94483 4.16 0
M  V30 3252 H 309.466 -3.54445 4.8424 0
M  V30 3253 H 310.536 -2.23855 4.30136 0
M  V30 3254 N 311.879 -1.3236 -0.855495 0
M  V30 3255 C 313.29 -1.2056 -1.42556 0
M  V30 3256 C 313.641 0.182209 -1.95352 0
M  V30 3257 O 312.766 1.08088 -1.87472 0
M  V30 3258 C 313.361 -2.1826 -2.59129 0
M  V30 3259 C 311.92 -2.10351 -3.12137 0
M  V30 3260 C 311.067 -2.06674 -1.84882 0
M  V30 3261 H 314.018 -1.442 -0.662727 0
M  V30 3262 H 314.039 -1.78064 -3.36264 0
M  V30 3263 H 313.551 -3.19257 -2.20673 0
M  V30 3264 H 311.652 -1.12599 -3.55179 0
M  V30 3265 H 311.765 -3.00135 -3.73438 0
M  V30 3266 H 310.129 -1.51901 -2.04446 0
M  V30 3267 H 310.912 -3.09451 -1.48643 0
M  V30 3268 N 313.357 1.07166 -1.15556 0
M  V30 3269 C 314.29 2.13808 -0.797593 0
M  V30 3270 C 315.268 1.6101 0.226812 0
M  V30 3271 O 316.452 1.88161 0.112932 0
M  V30 3272 C 313.579 3.38187 -0.186371 0
M  V30 3273 C 312.625 4.09766 -1.18297 0
M  V30 3274 S 313.458 4.60932 -2.72584 0
M  V30 3275 C 314.614 5.88583 -2.12886 0
M  V30 3276 H 314.847 2.43843 -1.70083 0
M  V30 3277 H 312.38 1.19467 -0.978106 0
M  V30 3278 H 314.338 4.10189 0.159837 0
M  V30 3279 H 312.999 3.06326 0.694489 0
M  V30 3280 H 312.192 4.99065 -0.703562 0
M  V30 3281 H 311.794 3.43736 -1.47381 0
M  V30 3282 H 314.086 6.60866 -1.49208 0
M  V30 3283 H 315.029 6.41241 -3.0036 0
M  V30 3284 H 315.437 5.42194 -1.57116 0
M  V30 3285 N 314.835 0.952656 1.25548 0
M  V30 3286 C 316.082 0.606373 1.93208 0
M  V30 3287 C 316.41 -0.85631 1.74636 0
M  V30 3288 O 315.665 -1.62951 1.08376 0
M  V30 3289 C 315.964 0.908818 3.45652 0
M  V30 3290 C 315.63 2.35722 3.84378 0
M  V30 3291 C 314.292 2.75312 3.9466 0
M  V30 3292 C 316.644 3.29793 4.03591 0
M  V30 3293 C 313.972 4.08047 4.21562 0
M  V30 3294 C 316.324 4.62138 4.31985 0
M  V30 3295 C 314.988 5.01528 4.40484 0
M  V30 3296 H 314.258 0.221888 0.706998 0
M  V30 3297 H 316.905 1.20132 1.49133 0
M  V30 3298 H 315.21 0.231456 3.91116 0
M  V30 3299 H 316.907 0.619498 3.96186 0
M  V30 3300 H 313.497 2.04017 3.76928 0
M  V30 3301 H 317.681 3.00397 3.95064 0
M  V30 3302 H 312.937 4.38212 4.26357 0
M  V30 3303 H 317.111 5.35012 4.45797 0
M  V30 3304 H 314.738 6.04406 4.61083 0
M  V30 3305 N 316.313 -1.40141 0.720998 0
M  V30 3306 C 317.561 -2.0039 0.262323 0
M  V30 3307 C 317.882 -1.57469 -1.15015 0
M  V30 3308 O 317.152 -0.816582 -1.78069 0
M  V30 3309 H 315.732 -0.741063 0.093996 0
M  V30 3310 H 318.394 -1.71398 0.927835 0
M  V30 3311 H 317.49 -3.10658 0.299671 0
M  V30 3312 N 317.792 -0.46758 -1.50504 0
M  V30 3313 C 319.022 0.086288 -2.0642 0
M  V30 3314 C 319.43 1.34369 -1.33197 0
M  V30 3315 O 318.773 1.79431 -0.393747 0
M  V30 3316 C 318.835 0.443846 -3.5675 0
M  V30 3317 C 318.499 -0.711035 -4.51435 0
M  V30 3318 C 319.496 -1.59205 -4.94924 0
M  V30 3319 C 317.181 -0.900363 -4.94165 0
M  V30 3320 C 319.175 -2.64683 -5.79846 0
M  V30 3321 C 316.862 -1.95837 -5.7887 0
M  V30 3322 C 317.86 -2.82997 -6.21612 0
M  V30 3323 O 317.548 -3.86977 -7.0463 0
M  V30 3324 H 317.28 -0.00217814 -0.675996 0
M  V30 3325 H 319.834 -0.654346 -1.94698 0
M  V30 3326 H 318.064 1.23762 -3.6636 0
M  V30 3327 H 319.753 0.932386 -3.95046 0
M  V30 3328 H 320.519 -1.45745 -4.62583 0
M  V30 3329 H 316.398 -0.231427 -4.60419 0
M  V30 3330 H 319.942 -3.32745 -6.13128 0
M  V30 3331 H 315.839 -2.09305 -6.10624 0
M  V30 3332 H 316.607 -3.83923 -7.22873 0
M  V30 3333 N 319.27 1.56325 -0.20005 0
M  V30 3334 C 320.217 2.1932 0.718833 0
M  V30 3335 C 321.187 1.14198 1.20615 0
M  V30 3336 O 322.372 1.42469 1.26914 0
M  V30 3337 C 319.512 2.86041 1.93066 0
M  V30 3338 C 318.625 4.05702 1.48425 0
M  V30 3339 C 317.76 4.60266 2.65196 0
M  V30 3340 C 316.799 5.72273 2.17185 0
M  V30 3341 N 315.936 6.21221 3.27152 0
M  V30 3342 H 320.776 2.97486 0.17489 0
M  V30 3343 H 318.313 1.46911 0.0745794 0
M  V30 3344 H 320.271 3.22897 2.64184 0
M  V30 3345 H 318.901 2.1043 2.44783 0
M  V30 3346 H 317.953 3.74475 0.668755 0
M  V30 3347 H 319.265 4.86699 1.09204 0
M  V30 3348 H 318.419 4.99453 3.4443 0
M  V30 3349 H 317.158 3.78386 3.07693 0
M  V30 3350 H 316.163 5.3261 1.36407 0
M  V30 3351 H 317.388 6.55974 1.75713 0
M  V30 3352 H 315.334 5.42263 3.69171 0
M  V30 3353 H 315.251 6.97284 2.92116 0
M  V30 3354 H 316.519 6.65063 4.06585 0
M  V30 3355 N 320.748 -0.0735177 1.57428 0
M  V30 3356 C 321.698 -1.09442 2.00016 0
M  V30 3357 C 322.682 -1.34575 0.881947 0
M  V30 3358 O 323.874 -1.34905 1.14585 0
M  V30 3359 C 321.003 -2.40865 2.4462 0
M  V30 3360 C 320.089 -2.19014 3.63172 0
M  V30 3361 N 320.48 -1.67087 4.77405 0
M  V30 3362 C 318.778 -2.49494 3.69688 0
M  V30 3363 C 319.479 -1.6001 5.5926 0
M  V30 3364 N 318.455 -2.05999 5.03056 0
M  V30 3365 H 322.257 -0.686227 2.85776 0
M  V30 3366 H 319.771 -0.280617 1.59957 0
M  V30 3367 H 321.768 -3.14763 2.73368 0
M  V30 3368 H 320.428 -2.82403 1.60246 0
M  V30 3369 H 321.439 -1.35975 4.99731 0
M  V30 3370 H 318.116 -2.94409 2.96023 0
M  V30 3371 H 319.506 -1.2073 6.60964 0
M  V30 3372 N 322.226 -1.5378 -0.344866 0
M  V30 3373 C 323.472 -1.71216 -1.08687 0
M  V30 3374 C 323.805 -0.473281 -1.88345 0
M  V30 3375 O 323.08 0.52968 -1.87149 0
M  V30 3376 C 323.363 -2.97486 -2.02914 0
M  V30 3377 C 323.216 -4.31579 -1.26727 0
M  V30 3378 C 324.535 -3.19422 -3.0275 0
M  V30 3379 H 321.654 -0.62301 -0.393735 0
M  V30 3380 H 324.296 -1.8645 -0.365563 0
M  V30 3381 H 322.446 -2.84629 -2.64421 0
M  V30 3382 H 324.118 -4.56284 -0.67845 0
M  V30 3383 H 322.361 -4.30049 -0.569273 0
M  V30 3384 H 323.032 -5.16106 -1.95803 0
M  V30 3385 H 325.508 -3.316 -2.51357 0
M  V30 3386 H 324.384 -4.09169 -3.65885 0
M  V30 3387 H 324.645 -2.35656 -3.74057 0
M  V30 3388 N 323.704 0.605807 -1.45491 0
M  V30 3389 C 324.634 1.72709 -1.57143 0
M  V30 3390 C 325.615 1.6476 -0.422884 0
M  V30 3391 O 326.8 1.83132 -0.646247 0
M  V30 3392 C 323.93 3.11316 -1.53948 0
M  V30 3393 C 322.884 3.34077 -2.67537 0
M  V30 3394 C 322.21 4.72975 -2.49397 0
M  V30 3395 C 323.51 3.24158 -4.09535 0
M  V30 3396 H 325.204 1.63214 -2.51001 0
M  V30 3397 H 322.75 0.78379 -1.208 0
M  V30 3398 H 324.703 3.89557 -1.60696 0
M  V30 3399 H 323.427 3.21655 -0.566205 0
M  V30 3400 H 322.086 2.58227 -2.6022 0
M  V30 3401 H 321.734 4.8005 -1.50205 0
M  V30 3402 H 321.434 4.8916 -3.25571 0
M  V30 3403 H 322.958 5.53414 -2.58002 0
M  V30 3404 H 324.372 3.92271 -4.18086 0
M  V30 3405 H 322.769 3.51872 -4.86113 0
M  V30 3406 H 323.839 2.2157 -4.31317 0
M  V30 3407 N 325.182 1.32811 0.848464 0
M  V30 3408 C 326.41 1.26739 1.63538 0
M  V30 3409 C 326.825 -0.163484 1.88091 0
M  V30 3410 O 326.182 -1.10258 1.45429 0
M  V30 3411 C 326.233 2.03013 2.99112 0
M  V30 3412 O 325.954 3.40518 2.75643 0
M  V30 3413 C 327.455 2.04038 3.93552 0
M  V30 3414 H 324.675 0.437024 0.509167 0
M  V30 3415 H 327.219 1.75033 1.05753 0
M  V30 3416 H 325.374 1.58426 3.53525 0
M  V30 3417 H 325.788 3.79635 3.61908 0
M  V30 3418 H 327.262 2.61877 4.85926 0
M  V30 3419 H 327.739 1.0282 4.26995 0
M  V30 3420 H 328.345 2.486 3.45077 0
M  V30 3421 N 326.66 -1.06551 1.16123 0
M  V30 3422 C 327.59 -2.15935 0.88851 0
M  V30 3423 C 328.571 -1.69306 -0.164135 0
M  V30 3424 O 329.756 -1.94193 -0.0167857 0
M  V30 3425 C 326.886 -3.45149 0.385942 0
M  V30 3426 C 325.84 -4.05271 1.3762 0
M  V30 3427 C 325.166 -5.29664 0.732137 0
M  V30 3428 C 326.466 -4.44355 2.74493 0
M  V30 3429 H 328.16 -2.39006 1.80323 0
M  V30 3430 H 325.706 -1.14866 0.868435 0
M  V30 3431 H 327.659 -4.21004 0.182647 0
M  V30 3432 H 326.383 -3.21689 -0.564274 0
M  V30 3433 H 325.042 -3.3147 1.56599 0
M  V30 3434 H 324.69 -5.02499 -0.224483 0
M  V30 3435 H 324.39 -5.70848 1.39307 0
M  V30 3436 H 325.914 -6.08218 0.538802 0
M  V30 3437 H 327.328 -5.11303 2.59311 0
M  V30 3438 H 325.725 -4.96515 3.37035 0
M  V30 3439 H 326.795 -3.55339 3.29943 0
M  V30 3440 N 328.138 -0.959301 -1.25041 0
M  V30 3441 C 329.366 -0.633949 -1.96948 0
M  V30 3442 C 329.781 0.794916 -1.7125 0
M  V30 3443 O 329.138 1.53231 -0.991287 0
M  V30 3444 C 329.189 -0.888805 -3.50403 0
M  V30 3445 O 328.91 -2.26149 -3.75218 0
M  V30 3446 C 330.411 -0.576482 -4.39536 0
M  V30 3447 H 327.631 -0.237263 -0.627652 0
M  V30 3448 H 330.175 -1.28495 -1.59089 0
M  V30 3449 H 328.33 -0.284145 -3.86357 0
M  V30 3450 H 328.744 -2.33514 -4.6965 0
M  V30 3451 H 330.218 -0.805314 -5.46094 0
M  V30 3452 H 330.695 0.489075 -4.36468 0
M  V30 3453 H 331.301 -1.16067 -4.09156 0
M  V30 3454 N 329.616 1.39756 -0.72842 0
M  V30 3455 C 330.893 1.94574 -0.200079 0
M  V30 3456 C 331.273 1.66569 1.29684 0
M  V30 3457 O 330.621 0.990326 2.05924 0
M  V30 3458 C 330.831 3.45004 -0.526608 0
M  V30 3459 C 332.179 4.21965 -0.472318 0
M  V30 3460 O 333.203 3.53173 -0.463413 0
M  V30 3461 O 332.062 5.44552 -0.461075 0
M  V30 3462 H 329.156 0.826289 -0.0342851 0
M  V30 3463 H 331.702 1.49293 -0.806829 0
M  V30 3464 H 330.474 3.58796 -1.56144 0
M  V30 3465 H 330.097 3.97449 0.109449 0
M  V30 3466 N 331.094 0.475555 1.50254 0
M  V30 3467 C 332.026 -0.352649 2.26471 0
M  V30 3468 C 333.039 -0.953165 1.3198 0
M  V30 3469 O 334.228 -0.840815 1.57457 0
M  V30 3470 C 331.328 -1.50902 3.0345 0
M  V30 3471 C 330.501 -1.02047 4.25329 0
M  V30 3472 C 329.56 -2.05142 4.84565 0
M  V30 3473 O 328.586 -1.63023 5.45355 0
M  V30 3474 N 329.788 -3.37987 4.71959 0
M  V30 3475 H 332.553 0.300767 2.98187 0
M  V30 3476 H 330.114 0.306598 1.5897 0
M  V30 3477 H 332.106 -2.19572 3.39956 0
M  V30 3478 H 330.676 -2.06705 2.34504 0
M  V30 3479 H 329.896 -0.159507 3.93877 0
M  V30 3480 H 331.184 -0.672061 5.04342 0
M  V30 3481 H 330.582 -3.74913 4.23623 0
M  V30 3482 H 329.139 -4.02443 5.12721 0
M  V30 3483 N 332.573 -1.56217 0.208337 0
M  V30 3484 C 333.819 -1.98242 -0.427552 0
M  V30 3485 C 334.152 -1.09554 -1.60348 0
M  V30 3486 O 333.427 -0.15035 -1.93918 0
M  V30 3487 C 333.71 -3.4931 -0.874907 0
M  V30 3488 C 333.563 -4.48773 0.303751 0
M  V30 3489 C 334.882 -4.04424 -1.73577 0
M  V30 3490 H 332.001 -0.720744 -0.153936 0
M  V30 3491 H 334.643 -1.87586 0.30192 0
M  V30 3492 H 332.793 -3.58522 -1.49648 0
M  V30 3493 H 334.465 -4.51586 0.941682 0
M  V30 3494 H 332.708 -4.23194 0.953375 0
M  V30 3495 H 333.379 -5.51976 -0.0519883 0
M  V30 3496 H 335.855 -3.98075 -1.21143 0
M  V30 3497 H 334.731 -5.1047 -2.01771 0
M  V30 3498 H 334.992 -3.50494 -2.69456 0
M  V30 3499 N 334.051 0.0651679 -1.57465 0
M  V30 3500 C 335.279 0.775808 -1.91804 0
M  V30 3501 C 335.694 1.70782 -0.804916 0
M  V30 3502 O 335.051 1.81153 0.221311 0
M  V30 3503 C 335.102 1.56381 -3.25925 0
M  V30 3504 O 334.823 0.669248 -4.32958 0
M  V30 3505 C 336.324 2.37485 -3.7432 0
M  V30 3506 H 333.544 0.2202 -0.63384 0
M  V30 3507 H 336.088 0.0334587 -2.04473 0
M  V30 3508 H 334.243 2.25837 -3.14764 0
M  V30 3509 H 334.657 1.21801 -5.10162 0
M  V30 3510 H 336.131 2.88223 -4.70778 0
M  V30 3511 H 336.608 3.17307 -3.03666 0
M  V30 3512 H 337.214 1.73173 -3.88447 0
M  V30 3513 N 335.529 1.53961 0.336706 0
M  V30 3514 C 336.945 1.44378 0.680241 0
M  V30 3515 C 337.145 0.606034 1.9217 0
M  V30 3516 O 336.201 0.099688 2.52303 0
M  V30 3517 C 337.514 2.87945 0.8665 0
M  V30 3518 C 339.062 2.97763 0.964682 0
M  V30 3519 C 339.537 4.42453 1.18321 0
M  V30 3520 N 341.028 4.46008 1.25025 0
M  V30 3521 C 341.763 5.55102 1.43697 0
M  V30 3522 N 341.259 6.7419 1.59498 0
M  V30 3523 N 343.052 5.42727 1.463 0
M  V30 3524 H 335.203 2.06918 -0.479455 0
M  V30 3525 H 337.466 0.935634 -0.152619 0
M  V30 3526 H 337.172 3.51691 0.0256937 0
M  V30 3527 H 337.046 3.33293 1.76623 0
M  V30 3528 H 339.433 2.34153 1.796 0
M  V30 3529 H 339.514 2.55766 0.041708 0
M  V30 3530 H 339.158 5.06645 0.356788 0
M  V30 3531 H 339.088 4.82048 2.11985 0
M  V30 3532 H 341.579 3.60196 1.14312 0
M  V30 3533 H 341.892 7.53095 1.734 0
M  V30 3534 H 340.237 6.77123 1.56621 0
M  V30 3535 H 343.428 4.48647 1.33543 0
M  V30 3536 H 343.601 6.27806 1.6051 0
M  V30 3537 N 337.007 -0.598083 1.45811 0
M  V30 3538 C 338.254 -1.35681 1.50323 0
M  V30 3539 C 338.582 -1.9393 0.148739 0
M  V30 3540 O 337.837 -1.76094 -0.853787 0
M  V30 3541 C 338.136 -2.51669 2.53766 0
M  V30 3542 C 337.802 -2.11508 3.98215 0
M  V30 3543 C 336.464 -2.0027 4.37545 0
M  V30 3544 C 338.816 -1.80308 4.89018 0
M  V30 3545 C 336.144 -1.56067 5.65562 0
M  V30 3546 C 338.496 -1.37589 6.17456 0
M  V30 3547 C 337.16 -1.24916 6.55708 0
M  V30 3548 H 336.43 -0.496492 0.550069 0
M  V30 3549 H 339.077 -0.675052 1.79207 0
M  V30 3550 H 337.382 -3.25225 2.18486 0
M  V30 3551 H 339.079 -3.09895 2.54492 0
M  V30 3552 H 335.669 -2.21185 3.67117 0
M  V30 3553 H 339.853 -1.87884 4.59362 0
M  V30 3554 H 335.109 -1.44886 5.93985 0
M  V30 3555 H 339.283 -1.12495 6.87254 0
M  V30 3556 H 336.91 -0.904386 7.54801 0
M  V30 3557 N 338.485 -1.33259 -0.841409 0
M  V30 3558 C 339.433 -1.23279 -1.97244 0
M  V30 3559 C 340.427 -0.134706 -1.68864 0
M  V30 3560 O 341.633 -0.298501 -1.77508 0
M  V30 3561 H 338.008 -0.382497 -0.647457 0
M  V30 3562 H 339.979 -2.18906 -2.02787 0
M  V30 3563 C 338.728 -0.986268 -3.33419 0
M  V30 3564 H 338.051 -1.82347 -3.55794 0
M  V30 3565 H 339.491 -0.956728 -4.13065 0
M  V30 3566 C 337.95 0.310842 -3.35463 0
M  V30 3567 O 338.48 1.31838 -3.79449 0
M  V30 3568 N 336.686 0.337485 -2.88634 0
M  V30 3569 H 336.233 -0.482967 -2.53032 0
M  V30 3570 H 336.191 1.20518 -2.90384 0
M  V30 3571 N 339.963 1.05934 -1.16686 0
M  V30 3572 C 340.873 2.17014 -0.891183 0
M  V30 3573 C 341.889 1.73453 0.137907 0
M  V30 3574 O 343.065 2.01361 -0.039592 0
M  V30 3575 C 340.13 3.44384 -0.400099 0
M  V30 3576 C 339.191 4.02433 -1.49486 0
M  V30 3577 C 338.424 5.23723 -1.02711 0
M  V30 3578 O 338.647 5.7027 0.121716 0
M  V30 3579 O 337.581 5.7382 -1.81699 0
M  V30 3580 H 341.407 2.43113 -1.82015 0
M  V30 3581 H 338.992 1.15541 -0.947132 0
M  V30 3582 H 340.874 4.21189 -0.133392 0
M  V30 3583 H 339.549 3.19802 0.500817 0
M  V30 3584 H 338.456 3.27102 -1.81535 0
M  V30 3585 H 339.789 4.31317 -2.37121 0
M  V30 3586 N 341.441 0.965919 1.2453 0
M  V30 3587 C 342.351 0.502154 2.29163 0
M  V30 3588 C 343.367 -0.436017 1.68448 0
M  V30 3589 O 344.543 -0.309497 1.99008 0
M  V30 3590 C 341.608 -0.201956 3.46111 0
M  V30 3591 C 340.669 0.775821 4.22232 0
M  V30 3592 C 339.902 0.105217 5.33596 0
M  V30 3593 O 340.125 -1.10683 5.59558 0
M  V30 3594 O 339.059 0.796475 5.96607 0
M  V30 3595 H 342.885 1.37194 2.70946 0
M  V30 3596 H 340.47 0.732875 1.30189 0
M  V30 3597 H 342.352 -0.597564 4.17142 0
M  V30 3598 H 341.027 -1.04673 3.06309 0
M  V30 3599 H 339.934 1.22185 3.53584 0
M  V30 3600 H 341.267 1.58896 4.65846 0
M  V30 3601 N 342.919 -1.39368 0.735821 0
M  V30 3602 C 344.165 -2.00794 0.284544 0
M  V30 3603 C 344.498 -1.58255 -1.12557 0
M  V30 3604 O 343.773 -0.811819 -1.76748 0
M  V30 3605 C 344.056 -3.58011 0.387337 0
M  V30 3606 C 343.909 -4.10566 1.83728 0
M  V30 3607 C 345.228 -4.395 -0.22975 0
M  V30 3608 H 342.347 -0.729501 0.104866 0
M  V30 3609 H 344.989 -1.65564 0.93213 0
M  V30 3610 H 343.139 -3.88154 -0.164006 0
M  V30 3611 H 344.811 -3.91139 2.44556 0
M  V30 3612 H 343.054 -3.64095 2.35833 0
M  V30 3613 H 343.725 -5.19702 1.86047 0
M  V30 3614 H 346.201 -4.15406 0.240257 0
M  V30 3615 H 345.077 -5.48752 -0.127485 0
M  V30 3616 H 345.338 -4.22062 -1.3159 0
M  V30 3617 N 344.397 -0.483516 -1.5 0
M  V30 3618 C 345.344 0.304164 -2.28787 0
M  V30 3619 C 346.314 0.976114 -1.34392 0
M  V30 3620 O 347.499 0.986156 -1.63339 0
M  V30 3621 C 344.639 1.37298 -3.16612 0
M  V30 3622 C 343.752 0.714561 -4.26049 0
M  V30 3623 C 342.887 1.76232 -5.01114 0
M  V30 3624 C 341.926 1.08483 -6.0241 0
M  V30 3625 N 341.063 2.076 -6.70706 0
M  V30 3626 H 345.903 -0.373981 -2.95644 0
M  V30 3627 H 343.44 -0.196275 -1.45785 0
M  V30 3628 H 345.398 2.00445 -3.65893 0
M  V30 3629 H 344.028 2.02012 -2.51776 0
M  V30 3630 H 343.08 -0.0297798 -3.80388 0
M  V30 3631 H 344.392 0.180383 -4.98474 0
M  V30 3632 H 343.546 2.46929 -5.54176 0
M  V30 3633 H 342.285 2.33033 -4.28424 0
M  V30 3634 H 341.29 0.363545 -5.48597 0
M  V30 3635 H 342.515 0.523551 -6.77079 0
M  V30 3636 H 340.461 2.63394 -6.00799 0
M  V30 3637 H 340.378 1.59201 -7.39047 0
M  V30 3638 H 341.646 2.77639 -7.2838 0
M  V30 3639 N 345.875 1.56104 -0.216619 0
M  V30 3640 C 346.822 2.2007 0.695531 0
M  V30 3641 C 347.792 1.15471 1.19397 0
M  V30 3642 O 348.977 1.43807 1.25396 0
M  V30 3643 C 346.117 2.88073 1.90021 0
M  V30 3644 C 345.23 4.07253 1.44113 0
M  V30 3645 C 344.365 4.63052 2.603 0
M  V30 3646 C 343.404 5.74545 2.11103 0
M  V30 3647 N 342.541 6.24656 3.20545 0
M  V30 3648 H 347.381 2.97655 0.143327 0
M  V30 3649 H 344.918 1.46982 0.0589934 0
M  V30 3650 H 346.876 3.25681 2.60745 0
M  V30 3651 H 345.506 2.13015 2.42538 0
M  V30 3652 H 344.558 3.75164 0.628999 0
M  V30 3653 H 345.87 4.8783 1.04036 0
M  V30 3654 H 345.024 5.03078 3.39113 0
M  V30 3655 H 343.763 3.81628 3.03663 0
M  V30 3656 H 342.768 5.34027 1.3075 0
M  V30 3657 H 343.993 6.57801 1.68746 0
M  V30 3658 H 341.939 5.46148 3.63399 0
M  V30 3659 H 341.856 7.00343 2.84704 0
M  V30 3660 H 343.124 6.69338 3.99508 0
M  V30 3661 N 347.353 -0.0568162 1.57498 0
M  V30 3662 C 348.285 -1.09292 2.01464 0
M  V30 3663 C 349.298 -1.34112 0.922913 0
M  V30 3664 O 350.487 -1.32089 1.20062 0
M  V30 3665 C 347.587 -2.44068 2.35125 0
M  V30 3666 C 346.76 -2.38995 3.66333 0
M  V30 3667 C 345.819 -3.55997 3.87495 0
M  V30 3668 O 344.845 -3.36746 4.58901 0
M  V30 3669 N 346.047 -4.76888 3.30996 0
M  V30 3670 H 348.812 -0.718386 2.90963 0
M  V30 3671 H 346.373 -0.245235 1.60032 0
M  V30 3672 H 348.365 -3.21011 2.46443 0
M  V30 3673 H 346.935 -2.73468 1.5144 0
M  V30 3674 H 346.155 -1.47336 3.65631 0
M  V30 3675 H 347.443 -2.3272 4.52458 0
M  V30 3676 H 346.841 -4.95431 2.73065 0
M  V30 3677 H 345.398 -5.51291 3.47738 0
M  V30 3678 N 348.832 -1.54138 -0.328536 0
M  V30 3679 C 350.057 -1.76378 -1.09112 0
M  V30 3680 C 350.482 -0.508596 -1.81094 0
M  V30 3681 O 349.84 0.539598 -1.73084 0
M  V30 3682 C 349.888 -2.95358 -2.06872 0
M  V30 3683 O 348.992 -2.66556 -3.14677 0
M  V30 3684 H 348.333 -0.584614 -0.314838 0
M  V30 3685 H 350.863 -2.01146 -0.374348 0
M  V30 3686 H 350.873 -3.22566 -2.4983 0
M  V30 3687 H 349.548 -3.86385 -1.5388 0
M  V30 3688 H 348.125 -2.50282 -2.7643 0
M  V30 3689 N 350.31 0.590341 -1.46126 0
M  V30 3690 C 351.556 1.35082 -1.51264 0
M  V30 3691 C 351.889 1.93534 -0.160711 0
M  V30 3692 O 351.164 1.76045 0.826956 0
M  V30 3693 C 351.447 2.48588 -2.6053 0
M  V30 3694 C 351.3 1.95221 -4.05227 0
M  V30 3695 C 352.619 3.50662 -2.6594 0
M  V30 3696 H 349.738 0.489803 -0.550692 0
M  V30 3697 H 352.38 0.663887 -1.78024 0
M  V30 3698 H 350.53 3.07186 -2.37843 0
M  V30 3699 H 352.202 1.41139 -4.39178 0
M  V30 3700 H 350.445 1.26101 -4.15068 0
M  V30 3701 H 351.116 2.77121 -4.77397 0
M  V30 3702 H 353.592 3.01934 -2.86313 0
M  V30 3703 H 352.468 4.27551 -3.44226 0
M  V30 3704 H 352.729 4.07399 -1.71694 0
M  V30 3705 N 351.788 1.33704 0.83433 0
M  V30 3706 C 353.013 1.28615 1.62705 0
M  V30 3707 C 353.438 -0.139242 1.87584 0
M  V30 3708 O 352.796 -1.09734 1.4432 0
M  V30 3709 C 352.844 2.07139 2.95171 0
M  V30 3710 O 351.948 1.4331 3.86699 0
M  V30 3711 H 351.289 0.44226 0.49528 0
M  V30 3712 H 353.819 1.76335 1.03766 0
M  V30 3713 H 353.829 2.18073 3.44831 0
M  V30 3714 H 352.504 3.10779 2.76386 0
M  V30 3715 H 351.081 1.4105 3.45195 0
M  V30 3716 N 353.266 -1.05314 1.17247 0
M  V30 3717 C 354.682 -1.30452 0.919473 0
M  V30 3718 C 354.882 -1.9703 -0.42209 0
M  V30 3719 O 353.938 -2.24311 -1.15935 0
M  V30 3720 C 355.251 -2.17551 2.07586 0
M  V30 3721 C 356.799 -2.30937 2.11275 0
M  V30 3722 C 357.274 -3.21396 3.26296 0
M  V30 3723 N 358.765 -3.28981 3.26076 0
M  V30 3724 C 359.5 -3.99095 4.11716 0
M  V30 3725 N 358.996 -4.71648 5.07465 0
M  V30 3726 N 360.789 -3.95247 3.9967 0
M  V30 3727 H 352.94 -0.604988 2.03602 0
M  V30 3728 H 355.203 -0.329368 0.888944 0
M  V30 3729 H 354.909 -1.75921 3.0454 0
M  V30 3730 H 354.783 -3.18182 2.02584 0
M  V30 3731 H 357.17 -2.71809 1.14907 0
M  V30 3732 H 357.251 -1.2994 2.20339 0
M  V30 3733 H 356.895 -2.81238 4.22927 0
M  V30 3734 H 356.825 -4.22395 3.14467 0
M  V30 3735 H 359.316 -2.77286 2.5675 0
M  V30 3736 H 359.629 -5.22705 5.6921 0
M  V30 3737 H 357.974 -4.70594 5.11435 0
M  V30 3738 H 361.165 -3.37691 3.24164 0
M  V30 3739 H 361.338 -4.4962 4.66632 0
M  V30 3740 N 354.744 -0.972509 -1.24016 0
M  V30 3741 C 355.692 -0.498562 -2.27194 0
M  V30 3742 C 356.686 0.440372 -1.63576 0
M  V30 3743 O 357.892 0.315133 -1.7722 0
M  V30 3744 H 354.267 -0.142775 -0.738322 0
M  V30 3745 H 356.238 -1.38065 -2.64539 0
M  V30 3746 C 354.987 0.191072 -3.47175 0
M  V30 3747 H 354.31 -0.522318 -3.96373 0
M  V30 3748 H 355.75 0.486445 -4.212 0
M  V30 3749 C 354.209 1.41967 -3.05527 0
M  V30 3750 O 354.739 2.51642 -3.13112 0
M  V30 3751 N 352.945 1.28746 -2.60524 0
M  V30 3752 H 352.492 0.395089 -2.54552 0
M  V30 3753 H 352.45 2.11061 -2.33025 0
M  V30 3754 N 356.222 1.38976 -0.743202 0
M  V30 3755 C 357.638 1.53984 -0.419664 0
M  V30 3756 C 357.838 1.70837 1.0685 0
M  V30 3757 O 356.894 1.7135 1.8546 0
M  V30 3758 C 358.207 2.75287 -1.20985 0
M  V30 3759 C 359.755 2.89129 -1.19889 0
M  V30 3760 C 360.23 4.13381 -1.97181 0
M  V30 3761 N 361.721 4.20437 -1.94389 0
M  V30 3762 C 362.456 5.15547 -2.50996 0
M  V30 3763 N 361.952 6.16395 -3.16274 0
M  V30 3764 N 363.745 5.07822 -2.40984 0
M  V30 3765 H 355.896 1.26285 -1.7078 0
M  V30 3766 H 358.159 0.612689 -0.723406 0
M  V30 3767 H 357.865 2.69204 -2.26323 0
M  V30 3768 H 357.739 3.68184 -0.819759 0
M  V30 3769 H 360.126 2.947 -0.153606 0
M  V30 3770 H 360.207 1.97272 -1.62841 0
M  V30 3771 H 359.851 4.08572 -3.01714 0
M  V30 3772 H 359.781 5.04298 -1.51629 0
M  V30 3773 H 362.272 3.48205 -1.46839 0
M  V30 3774 H 362.585 6.85443 -3.56915 0
M  V30 3775 H 360.93 6.16758 -3.20367 0
M  V30 3776 H 364.121 4.27973 -1.89622 0
M  V30 3777 H 364.294 5.81767 -2.85397 0
M  V30 3778 N 357.7 0.491464 1.49741 0
M  V30 3779 C 358.977 -0.118984 1.95238 0
M  V30 3780 C 359.357 -1.55044 1.43264 0
M  V30 3781 O 358.705 -2.19287 0.642287 0
M  V30 3782 C 358.915 -0.0414187 3.48975 0
M  V30 3783 C 360.263 -0.220133 4.24029 0
M  V30 3784 O 361.287 -0.117055 3.56008 0
M  V30 3785 O 360.146 -0.430567 5.44801 0
M  V30 3786 H 357.24 -0.100536 0.820866 0
M  V30 3787 H 359.786 0.553322 1.60426 0
M  V30 3788 H 358.558 0.957214 3.79412 0
M  V30 3789 H 358.181 -0.754292 3.9038 0
M  V30 3790 N 359.178 -1.55987 0.224894 0
M  V30 3791 C 360.141 -2.19178 -0.670348 0
M  V30 3792 C 361.141 -1.15461 -1.11917 0
M  V30 3793 O 362.331 -1.40675 -1.02743 0
M  V30 3794 C 359.463 -2.81777 -1.9187 0
M  V30 3795 H 360.656 -2.99662 -0.119364 0
M  V30 3796 H 358.209 -1.5628 -0.0247128 0
M  V30 3797 H 358.944 -2.05172 -2.51147 0
M  V30 3798 H 358.729 -3.57732 -1.60531 0
M  V30 3799 H 360.219 -3.30205 -2.55645 0
M  V30 3800 N 360.656 0.0484629 -1.57525 0
M  V30 3801 C 362.067 0.597486 -1.76881 0
M  V30 3802 C 362.418 1.76664 -0.853475 0
M  V30 3803 O 361.543 2.16357 -0.0433656 0
M  V30 3804 C 362.138 1.09066 -3.20765 0
M  V30 3805 C 360.697 1.58535 -3.41385 0
M  V30 3806 C 359.844 0.514868 -2.72478 0
M  V30 3807 H 362.795 -0.177758 -1.57701 0
M  V30 3808 H 362.816 1.95875 -3.2621 0
M  V30 3809 H 362.328 0.239521 -3.8736 0
M  V30 3810 H 360.429 2.45898 -2.79937 0
M  V30 3811 H 360.542 1.64622 -4.49929 0
M  V30 3812 H 358.906 0.965407 -2.35695 0
M  V30 3813 H 359.689 -0.32648 -3.41744 0
M  V30 3814 N 362.134 1.5431 0.320358 0
M  V30 3815 C 363.044 1.86946 1.41734 0
M  V30 3816 C 364.06 0.761689 1.56443 0
M  V30 3817 O 365.236 1.05629 1.71477 0
M  V30 3818 C 362.301 2.09293 2.76401 0
M  V30 3819 C 361.362 3.33082 2.70841 0
M  V30 3820 C 360.595 3.54353 3.99086 0
M  V30 3821 O 360.818 2.79002 4.97508 0
M  V30 3822 O 359.752 4.47838 4.0215 0
M  V30 3823 H 363.578 2.80232 1.17062 0
M  V30 3824 H 361.163 1.40255 0.514673 0
M  V30 3825 H 363.045 2.25303 3.56113 0
M  V30 3826 H 361.72 1.19194 3.00956 0
M  V30 3827 H 360.627 3.22454 1.89668 0
M  V30 3828 H 361.96 4.23249 2.5124 0
M  V30 3829 N 363.613 -0.582584 1.46437 0
M  V30 3830 C 364.861 -1.33814 1.51453 0
M  V30 3831 C 365.182 -1.94277 0.167792 0
M  V30 3832 O 364.452 -1.78566 -0.805677 0
M  V30 3833 H 363.032 -0.496838 0.557818 0
M  V30 3834 H 365.694 -0.682281 1.82568 0
M  V30 3835 H 364.79 -2.14479 2.26728 0
M  V30 3836 N 365.091 -1.34144 -0.827227 0
M  V30 3837 C 366.339 -1.26009 -1.58007 0
M  V30 3838 C 366.66 0.170971 -1.94249 0
M  V30 3839 O 365.93 1.10256 -1.61927 0
M  V30 3840 H 364.51 -0.463414 -0.585881 0
M  V30 3841 H 367.172 -1.68005 -0.987951 0
M  V30 3842 H 366.268 -1.86187 -2.50481 0
M  V30 3843 N 366.569 1.04691 -1.17803 0
M  V30 3844 C 367.816 1.77782 -0.969532 0
M  V30 3845 C 368.144 1.87926 0.501401 0
M  V30 3846 O 367.399 1.37918 1.38842 0
M  V30 3847 C 367.698 3.21467 -1.56186 0
M  V30 3848 C 367.364 3.3137 -3.05786 0
M  V30 3849 C 366.026 3.3378 -3.46619 0
M  V30 3850 C 368.378 3.31976 -4.01797 0
M  V30 3851 C 365.706 3.34431 -4.82051 0
M  V30 3852 C 368.058 3.34167 -5.37136 0
M  V30 3853 C 366.722 3.34866 -5.77426 0
M  V30 3854 H 365.992 0.650549 -0.354777 0
M  V30 3855 H 368.639 1.23006 -1.46772 0
M  V30 3856 H 366.944 3.79203 -0.985515 0
M  V30 3857 H 368.641 3.76652 -1.37602 0
M  V30 3858 H 365.231 3.3021 -2.73238 0
M  V30 3859 H 369.415 3.29311 -3.71306 0
M  V30 3860 H 364.671 3.33285 -5.12573 0
M  V30 3861 H 368.845 3.33585 -6.11305 0
M  V30 3862 H 366.472 3.35124 -6.82346 0
M  V30 3863 N 368.047 0.979072 1.23499 0
M  V30 3864 C 369.324 0.563674 1.87302 0
M  V30 3865 C 369.704 -0.959199 1.88049 0
M  V30 3866 O 369.052 -1.83535 1.36114 0
M  V30 3867 C 369.262 1.16822 3.28867 0
M  V30 3868 C 370.61 1.26014 4.0547 0
M  V30 3869 O 371.634 1.12158 3.38082 0
M  V30 3870 O 370.493 1.48044 5.26066 0
M  V30 3871 H 367.587 0.189602 0.804972 0
M  V30 3872 H 370.133 1.07407 1.31384 0
M  V30 3873 H 368.905 2.21049 3.22883 0
M  V30 3874 H 368.528 0.642564 3.92373 0
M  V30 3875 N 369.525 -1.3858 0.750561 0
M  V30 3876 C 370.488 -2.28836 0.129152 0
M  V30 3877 C 371.488 -1.47045 -0.650714 0
M  V30 3878 O 372.678 -1.6753 -0.477428 0
M  V30 3879 C 369.81 -3.30751 -0.825622 0
M  V30 3880 H 371.003 -2.85294 0.924516 0
M  V30 3881 H 368.556 -1.47489 0.517376 0
M  V30 3882 H 369.291 -2.79378 -1.64677 0
M  V30 3883 H 369.076 -3.91177 -0.268852 0
M  V30 3884 H 370.566 -3.98249 -1.2565 0
M  V30 3885 N 371.003 -0.499398 -1.49478 0
M  V30 3886 C 372.252 0.0475259 -2.01644 0
M  V30 3887 C 372.565 1.38195 -1.38425 0
M  V30 3888 O 373.771 2.01547 -1.8191 0
M  V30 3889 C 372.227 0.135164 -3.59646 0
M  V30 3890 C 371.835 -1.19252 -4.31837 0
M  V30 3891 C 373.579 0.632538 -4.19761 0
M  V30 3892 C 371.486 -1.06713 -5.81693 0
M  V30 3893 H 370.416 0.0215349 -0.753692 0
M  V30 3894 H 373.067 -0.638577 -1.7203 0
M  V30 3895 H 371.449 0.885681 -3.85969 0
M  V30 3896 H 372.623 -1.9562 -4.17216 0
M  V30 3897 H 370.938 -1.62321 -3.83459 0
M  V30 3898 H 373.535 0.743833 -5.29501 0
M  V30 3899 H 373.878 1.63098 -3.83021 0
M  V30 3900 H 374.411 -0.0613987 -3.97753 0
M  V30 3901 H 371.15 -2.03979 -6.22955 0
M  V30 3902 H 370.67 -0.344307 -5.98811 0
M  V30 3903 H 372.349 -0.745208 -6.42694 0
M  V30 3904 N 372.481 1.55866 -0.233164 0
M  V30 3905 C 373.414 2.16794 0.712442 0
M  V30 3906 C 374.392 1.1158 1.18273 0
M  V30 3907 O 375.576 1.39897 1.26337 0
M  V30 3908 C 372.703 2.75757 1.96661 0
M  V30 3909 C 371.749 3.93902 1.63533 0
M  V30 3910 S 372.582 5.30223 0.74995 0
M  V30 3911 C 373.738 5.92631 2.01343 0
M  V30 3912 H 373.971 2.96662 0.194617 0
M  V30 3913 H 371.504 1.5439 -0.0177425 0
M  V30 3914 H 373.462 3.10367 2.68668 0
M  V30 3915 H 372.123 1.9586 2.45556 0
M  V30 3916 H 371.316 4.33702 2.56747 0
M  V30 3917 H 370.918 3.60499 0.995804 0
M  V30 3918 H 373.21 6.09312 2.96219 0
M  V30 3919 H 374.153 6.88388 1.65915 0
M  V30 3920 H 374.561 5.21571 2.15925 0
M  V30 3921 N 373.959 -0.0401083 1.57549 0
M  V30 3922 C 374.891 -1.07149 2.02612 0
M  V30 3923 C 375.904 -1.33126 0.937085 0
M  V30 3924 O 377.093 -1.30808 1.21456 0
M  V30 3925 C 374.193 -2.41561 2.37701 0
M  V30 3926 C 373.366 -2.35096 3.68848 0
M  V30 3927 C 372.425 -3.51867 3.91249 0
M  V30 3928 O 371.451 -3.3186 4.62447 0
M  V30 3929 N 372.653 -4.73351 3.36035 0
M  V30 3930 H 375.418 -0.687485 2.91708 0
M  V30 3931 H 372.979 -0.228248 1.60283 0
M  V30 3932 H 374.971 -3.18379 2.49833 0
M  V30 3933 H 373.541 -2.71846 1.54332 0
M  V30 3934 H 372.761 -1.4345 3.67173 0
M  V30 3935 H 374.049 -2.27908 4.54901 0
M  V30 3936 H 373.447 -4.92507 2.78304 0
M  V30 3937 H 372.004 -5.47572 3.53565 0
M  V30 3938 N 375.437 -1.54477 -0.31217 0
M  V30 3939 C 376.4 -1.83923 -1.36766 0
M  V30 3940 C 377.4 -0.711563 -1.44199 0
M  V30 3941 O 378.59 -0.979866 -1.44029 0
M  V30 3942 C 375.722 -2.0095 -2.75376 0
M  V30 3943 H 376.915 -2.78239 -1.11906 0
M  V30 3944 H 374.468 -1.46369 -0.548257 0
M  V30 3945 H 375.203 -1.08883 -3.05475 0
M  V30 3946 H 374.988 -2.83018 -2.71373 0
M  V30 3947 H 376.478 -2.2514 -3.51713 0
M  V30 3948 N 376.915 0.57481 -1.46744 0
M  V30 3949 C 378.143 1.35856 -1.56047 0
M  V30 3950 C 378.558 1.87691 -0.204365 0
M  V30 3951 O 377.915 1.64049 0.79963 0
M  V30 3952 C 377.966 2.54066 -2.57163 0
M  V30 3953 O 377.687 2.04377 -3.87507 0
M  V30 3954 C 379.188 3.46514 -2.76483 0
M  V30 3955 H 376.408 0.414754 -0.527466 0
M  V30 3956 H 378.952 0.698035 -1.92218 0
M  V30 3957 H 377.107 3.16092 -2.23974 0
M  V30 3958 H 377.521 2.81419 -4.4261 0
M  V30 3959 H 378.995 4.25919 -3.51137 0
M  V30 3960 H 379.472 3.98951 -1.83671 0
M  V30 3961 H 380.078 2.90318 -3.10799 0
M  V30 3962 N 378.394 1.34581 0.820102 0
M  V30 3963 C 379.64 1.27285 1.57881 0
M  V30 3964 C 379.973 -0.156137 1.93571 0
M  V30 3965 O 379.248 -1.10222 1.60254 0
M  V30 3966 C 379.531 2.16639 2.87645 0
M  V30 3967 C 379.384 3.68088 2.58517 0
M  V30 3968 C 380.703 2.05378 3.8924 0
M  V30 3969 H 377.822 0.463714 0.572833 0
M  V30 3970 H 380.464 1.64859 0.944539 0
M  V30 3971 H 378.614 1.84725 3.41773 0
M  V30 3972 H 380.286 4.10382 2.10676 0
M  V30 3973 H 378.529 3.89038 1.91917 0
M  V30 3974 H 379.2 4.2598 3.51063 0
M  V30 3975 H 381.676 2.33404 3.44473 0
M  V30 3976 H 380.552 2.7012 4.77835 0
M  V30 3977 H 380.813 1.0316 4.29896 0
M  V30 3978 N 379.872 -1.04064 1.18357 0
M  V30 3979 C 381.112 -1.78829 0.989921 0
M  V30 3980 C 381.476 -1.86106 -0.472095 0
M  V30 3981 O 382.677 -2.57076 -0.785187 0
M  V30 3982 C 380.948 -3.1823 1.6268 0
M  V30 3983 S 382.507 -4.09332 1.58091 0
M  V30 3984 H 379.325 -0.615754 0.355482 0
M  V30 3985 H 381.927 -1.24778 1.50501 0
M  V30 3986 H 380.631 -3.10543 2.68311 0
M  V30 3987 H 380.162 -3.77357 1.112 0
M  V30 3988 H 382.177 -4.92598 0.596817 0
M  V30 3989 N 381.35 -0.985608 -1.22978 0
M  V30 3990 C 382.627 -0.573599 -1.87001 0
M  V30 3991 C 383.007 0.949213 -1.88555 0
M  V30 3992 O 382.355 1.82811 -1.37086 0
M  V30 3993 C 382.565 -1.18564 -3.28243 0
M  V30 3994 C 383.913 -1.28163 -4.04796 0
M  V30 3995 O 384.937 -1.13949 -3.37482 0
M  V30 3996 O 383.796 -1.50832 -5.25273 0
M  V30 3997 H 380.89 -0.193868 -0.803955 0
M  V30 3998 H 383.436 -1.08102 -1.30813 0
M  V30 3999 H 382.208 -2.22758 -3.21706 0
M  V30 4000 H 381.831 -0.663363 -3.92027 0
M  V30 4001 N 382.828 1.3818 -0.7579 0
M  V30 4002 C 383.738 2.3421 -0.135247 0
M  V30 4003 C 384.754 1.59487 0.695683 0
M  V30 4004 O 385.93 1.91657 0.618832 0
M  V30 4005 C 382.995 3.3862 0.744139 0
M  V30 4006 C 382.056 4.2918 -0.101658 0
M  V30 4007 C 381.289 5.28603 0.735851 0
M  V30 4008 O 381.512 5.35166 1.97366 0
M  V30 4009 O 380.446 6.01707 0.152372 0
M  V30 4010 H 384.272 2.8916 -0.928436 0
M  V30 4011 H 381.857 1.40101 -0.518855 0
M  V30 4012 H 383.739 4.02539 1.2466 0
M  V30 4013 H 382.414 2.86019 1.51575 0
M  V30 4014 H 381.321 3.68407 -0.650167 0
M  V30 4015 H 382.654 4.85048 -0.836024 0
M  V30 4016 N 384.306 0.507319 1.49211 0
M  V30 4017 C 385.253 -0.267728 2.29242 0
M  V30 4018 C 386.223 -0.954609 1.35928 0
M  V30 4019 O 387.408 -0.960046 1.64887 0
M  V30 4020 C 384.548 -1.32243 3.18756 0
M  V30 4021 C 383.661 -0.64669 4.27132 0
M  V30 4022 C 382.796 -1.68238 5.03855 0
M  V30 4023 C 381.835 -0.98885 6.0406 0
M  V30 4024 N 380.972 -1.96903 6.73924 0
M  V30 4025 H 385.812 0.420968 2.95012 0
M  V30 4026 H 383.349 0.219443 1.45454 0
M  V30 4027 H 385.307 -1.94599 3.69036 0
M  V30 4028 H 383.937 -1.97981 2.54958 0
M  V30 4029 H 382.989 0.0902926 3.80293 0
M  V30 4030 H 384.301 -0.101058 4.98698 0
M  V30 4031 H 383.455 -2.38081 5.58034 0
M  V30 4032 H 382.194 -2.26187 4.32077 0
M  V30 4033 H 381.199 -0.276222 5.49106 0
M  V30 4034 H 382.424 -0.415767 6.77826 0
M  V30 4035 H 380.37 -2.53803 6.04913 0
M  V30 4036 H 380.287 -1.47423 7.41487 0
M  V30 4037 H 381.555 -2.66015 7.32705 0
M  V30 4038 N 385.784 -1.5574 0.241426 0
M  V30 4039 C 387.033 -1.97986 -0.385295 0
M  V30 4040 C 387.346 -1.13267 -1.59468 0
M  V30 4041 O 388.552 -1.45501 -2.2922 0
M  V30 4042 C 387.008 -3.52275 -0.736884 0
M  V30 4043 C 386.616 -4.45726 0.450796 0
M  V30 4044 C 388.36 -4.03189 -1.3281 0
M  V30 4045 C 386.267 -5.91352 0.0756662 0
M  V30 4046 H 385.197 -0.739386 -0.147731 0
M  V30 4047 H 387.848 -1.80308 0.340779 0
M  V30 4048 H 386.23 -3.65628 -1.52094 0
M  V30 4049 H 387.404 -4.44131 1.22819 0
M  V30 4050 H 385.719 -4.05264 0.956573 0
M  V30 4051 H 388.316 -5.09505 -1.62201 0
M  V30 4052 H 388.659 -3.50212 -2.25071 0
M  V30 4053 H 389.192 -3.93141 -0.607069 0
M  V30 4054 H 385.931 -6.48354 0.965272 0
M  V30 4055 H 385.451 -5.96095 -0.665635 0
M  V30 4056 H 387.13 -6.46084 -0.344075 0
M  V30 4057 N 387.262 0.0317525 -1.57568 0
M  V30 4058 C 388.51 0.721676 -1.88776 0
M  V30 4059 C 388.831 1.76039 -0.838772 0
M  V30 4060 O 388.101 1.95482 0.127935 0
M  V30 4061 H 386.681 0.269534 -0.696678 0
M  V30 4062 H 389.343 -0.00165879 -1.949 0
M  V30 4063 H 388.439 1.21293 -2.87566 0
M  V30 4064 N 388.74 1.54641 0.303973 0
M  V30 4065 C 389.986 1.74969 1.03718 0
M  V30 4066 C 390.341 0.527461 1.85029 0
M  V30 4067 O 389.634 -0.480143 1.85486 0
M  V30 4068 C 389.828 2.97753 1.97681 0
M  V30 4069 C 389.657 4.318 1.25613 0
M  V30 4070 C 388.427 4.95616 0.984518 0
M  V30 4071 C 390.625 5.10021 0.662081 0
M  V30 4072 N 388.607 6.13455 0.233794 0
M  V30 4073 C 389.978 6.19984 0.0439736 0
M  V30 4074 C 392.033 4.94663 0.566835 0
M  V30 4075 C 390.736 7.16264 -0.66016 0
M  V30 4076 C 392.762 5.91271 -0.123637 0
M  V30 4077 C 392.124 7.00601 -0.730608 0
M  V30 4078 H 388.223 0.692873 0.362562 0
M  V30 4079 H 390.807 1.92116 0.316135 0
M  V30 4080 H 388.978 2.82036 2.6704 0
M  V30 4081 H 390.71 3.06621 2.64132 0
M  V30 4082 H 387.465 4.55921 1.28191 0
M  V30 4083 H 387.889 6.76879 -0.127996 0
M  V30 4084 H 392.531 4.10267 1.02181 0
M  V30 4085 H 390.249 8.00204 -1.12691 0
M  V30 4086 H 393.835 5.81466 -0.197236 0
M  V30 4087 H 392.715 7.7407 -1.2564 0
M  V30 4088 N 390.218 -0.567019 1.47046 0
M  V30 4089 C 391.634 -0.891975 1.32348 0
M  V30 4090 C 391.834 -1.99154 0.306616 0
M  V30 4091 O 390.89 -2.50883 -0.28532 0
M  V30 4092 C 392.203 -1.29449 2.7141 0
M  V30 4093 C 393.751 -1.40646 2.79621 0
M  V30 4094 C 394.226 -1.84257 4.19301 0
M  V30 4095 N 395.717 -1.91424 4.21795 0
M  V30 4096 C 396.452 -2.26476 5.26779 0
M  V30 4097 N 395.948 -2.60211 6.42077 0
M  V30 4098 N 397.741 -2.27166 5.14152 0
M  V30 4099 H 389.892 0.159074 2.11803 0
M  V30 4100 H 392.155 0.00849752 0.947962 0
M  V30 4101 H 391.861 -0.560448 3.47206 0
M  V30 4102 H 391.735 -2.25273 3.02542 0
M  V30 4103 H 394.122 -2.13133 2.04104 0
M  V30 4104 H 394.203 -0.430339 2.52154 0
M  V30 4105 H 393.847 -1.12343 4.95319 0
M  V30 4106 H 393.777 -2.82855 4.44185 0
M  V30 4107 H 396.268 -1.6778 3.38612 0
M  V30 4108 H 396.581 -2.85956 7.17948 0
M  V30 4109 H 394.926 -2.57813 6.45413 0
M  V30 4110 H 398.117 -2.00244 4.23107 0
M  V30 4111 H 398.29 -2.54154 5.96079 0
M  V30 4112 N 391.696 -1.35014 -0.812953 0
M  V30 4113 C 392.644 -1.27435 -1.94585 0
M  V30 4114 C 393.638 -0.170494 -1.6854 0
M  V30 4115 O 394.844 -0.336085 -1.76835 0
M  V30 4116 H 391.219 -0.396144 -0.639198 0
M  V30 4117 H 393.19 -2.23158 -1.98098 0
M  V30 4118 C 391.939 -1.05677 -3.31252 0
M  V30 4119 H 391.262 -1.89853 -3.51846 0
M  V30 4120 H 392.702 -1.04413 -4.10943 0
M  V30 4121 C 391.161 0.239615 -3.36047 0
M  V30 4122 O 391.691 1.23759 -3.8216 0
M  V30 4123 N 389.897 0.276186 -2.89285 0
M  V30 4124 H 389.444 -0.53653 -2.51951 0
M  V30 4125 H 389.402 1.14332 -2.92875 0
M  V30 4126 N 393.175 1.03435 -1.18907 0
M  V30 4127 C 394.452 1.73778 -0.89781 0
M  V30 4128 C 394.832 2.02458 0.597832 0
M  V30 4129 O 394.18 1.67482 1.55441 0
M  V30 4130 C 394.39 3.01845 -1.75187 0
M  V30 4131 C 395.738 3.7546 -1.9828 0
M  V30 4132 O 396.762 3.11759 -1.72293 0
M  V30 4133 O 395.621 4.89966 -2.42065 0
M  V30 4134 H 392.715 0.75651 -0.334098 0
M  V30 4135 H 395.261 1.09444 -1.29693 0
M  V30 4136 H 394.033 2.76836 -2.76545 0
M  V30 4137 H 393.656 3.73919 -1.35167 0
M  V30 4138 N 394.653 0.992116 1.22453 0
M  V30 4139 C 395.616 0.546883 2.2258 0
M  V30 4140 C 396.616 -0.369829 1.56489 0
M  V30 4141 O 397.806 -0.161896 1.73446 0
M  V30 4142 C 394.938 -0.204659 3.40285 0
M  V30 4143 H 396.131 1.43234 2.63484 0
M  V30 4144 H 393.684 0.779239 1.3549 0
M  V30 4145 H 394.419 -1.10614 3.04853 0
M  V30 4146 H 394.204 0.45354 3.89468 0
M  V30 4147 H 395.694 -0.504358 4.14543 0
M  V30 4148 N 396.131 -1.37776 0.765217 0
M  V30 4149 C 397.356 -2.04651 0.336537 0
M  V30 4150 C 397.781 -1.57337 -1.03086 0
M  V30 4151 O 397.139 -0.730621 -1.65927 0
M  V30 4152 C 397.187 -3.58577 0.381468 0
M  V30 4153 O 396.291 -4.07706 -0.62042 0
M  V30 4154 H 395.632 -0.64756 0.146838 0
M  V30 4155 H 398.162 -1.76221 1.03959 0
M  V30 4156 H 398.172 -4.07314 0.236448 0
M  V30 4157 H 396.847 -3.9237 1.37907 0
M  V30 4158 H 395.424 -3.70306 -0.439056 0
M  V30 4159 N 397.609 -0.515225 -1.4894 0
M  V30 4160 C 398.559 0.275113 -2.26334 0
M  V30 4161 C 399.543 0.923007 -1.31793 0
M  V30 4162 O 400.735 0.828254 -1.56426 0
M  V30 4163 C 397.864 1.33041 -3.16473 0
M  V30 4164 C 396.95 0.688051 -4.18481 0
M  V30 4165 N 397.341 -0.217638 -5.05332 0
M  V30 4166 C 395.639 0.94699 -4.3583 0
M  V30 4167 C 396.34 -0.58676 -5.78733 0
M  V30 4168 N 395.316 0.0486966 -5.43578 0
M  V30 4169 H 399.118 -0.421876 -2.90856 0
M  V30 4170 H 396.632 -0.332249 -1.58965 0
M  V30 4171 H 398.629 1.9102 -3.70563 0
M  V30 4172 H 397.289 2.02894 -2.53504 0
M  V30 4173 H 398.3 -0.589343 -5.14536 0
M  V30 4174 H 394.977 1.63719 -3.8406 0
M  V30 4175 H 396.367 -1.32855 -6.58634 0
M  V30 4176 N 399.087 1.5561 -0.249682 0
M  V30 4177 C 400.017 2.24477 0.642826 0
M  V30 4178 C 400.998 1.22601 1.17911 0
M  V30 4179 O 402.183 1.5126 1.21795 0
M  V30 4180 C 399.313 2.94638 1.83863 0
M  V30 4181 C 398.267 4.03227 1.435 0
M  V30 4182 C 397.593 4.60828 2.71186 0
M  V30 4183 C 398.893 5.18796 0.604002 0
M  V30 4184 H 400.587 2.99321 0.0685625 0
M  V30 4185 H 398.133 1.43965 0.0315363 0
M  V30 4186 H 400.086 3.41517 2.46868 0
M  V30 4187 H 398.81 2.17287 2.43832 0
M  V30 4188 H 397.469 3.57121 0.828275 0
M  V30 4189 H 397.117 3.80174 3.29358 0
M  V30 4190 H 396.817 5.34132 2.44901 0
M  V30 4191 H 398.341 5.10442 3.35084 0
M  V30 4192 H 399.755 5.61883 1.13842 0
M  V30 4193 H 398.152 5.98506 0.437097 0
M  V30 4194 H 399.222 4.83384 -0.383147 0
M  V30 4195 N 400.565 -0.0233959 1.57583 0
M  V30 4196 C 401.495 -1.02162 2.09965 0
M  V30 4197 C 402.476 -1.3735 1.00344 0
M  V30 4198 O 403.661 -1.46135 1.27899 0
M  V30 4199 C 400.791 -2.32081 2.58371 0
M  V30 4200 C 399.745 -2.1112 3.72307 0
M  V30 4201 C 399.071 -3.46848 4.06941 0
M  V30 4202 C 400.371 -1.49276 5.00514 0
M  V30 4203 H 402.065 -0.585557 2.93618 0
M  V30 4204 H 399.611 -0.280218 1.41247 0
M  V30 4205 H 401.564 -3.02249 2.93639 0
M  V30 4206 H 400.288 -2.77758 1.71808 0
M  V30 4207 H 398.947 -1.43384 3.37397 0
M  V30 4208 H 398.595 -3.90184 3.17436 0
M  V30 4209 H 398.295 -3.33646 4.83688 0
M  V30 4210 H 399.819 -4.18369 4.44747 0
M  V30 4211 H 401.233 -2.09368 5.33702 0
M  V30 4212 H 399.63 -1.46632 5.8191 0
M  V30 4213 H 400.7 -0.459217 4.82721 0
M  V30 4214 N 402.043 -1.548 -0.295768 0
M  V30 4215 C 403.289 -1.74588 -1.03184 0
M  V30 4216 C 403.622 -0.532962 -1.86744 0
M  V30 4217 O 402.897 0.469872 -1.88739 0
M  V30 4218 C 403.18 -3.03791 -1.93347 0
M  V30 4219 C 403.033 -4.35392 -1.12933 0
M  V30 4220 C 404.352 -3.28892 -2.92435 0
M  V30 4221 H 401.471 -0.635221 -0.373715 0
M  V30 4222 H 404.113 -1.87519 -0.30606 0
M  V30 4223 H 402.263 -2.92898 -2.55232 0
M  V30 4224 H 403.935 -4.58211 -0.532943 0
M  V30 4225 H 402.178 -4.31642 -0.432168 0
M  V30 4226 H 402.849 -5.22074 -1.79284 0
M  V30 4227 H 405.325 -3.39429 -2.4068 0
M  V30 4228 H 404.201 -4.20603 -3.52682 0
M  V30 4229 H 404.462 -2.47437 -3.6637 0
M  V30 4230 N 403.521 0.559213 -1.47345 0
M  V30 4231 C 404.768 1.31648 -1.53867 0
M  V30 4232 C 405.096 1.93468 -0.200104 0
M  V30 4233 O 404.351 1.78295 0.806799 0
M  V30 4234 C 404.65 2.44853 -2.6035 0
M  V30 4235 C 404.316 2.00876 -4.03683 0
M  V30 4236 C 402.978 1.88599 -4.42701 0
M  V30 4237 C 405.33 1.67279 -4.93626 0
M  V30 4238 C 402.658 1.41017 -5.69501 0
M  V30 4239 C 405.01 1.21169 -6.20887 0
M  V30 4240 C 403.674 1.07487 -6.58789 0
M  V30 4241 H 402.944 0.481734 -0.56304 0
M  V30 4242 H 405.591 0.627301 -1.80934 0
M  V30 4243 H 403.896 3.19318 -2.27032 0
M  V30 4244 H 405.593 3.03039 -2.62619 0
M  V30 4245 H 402.183 2.11374 -3.72853 0
M  V30 4246 H 406.367 1.75638 -4.64182 0
M  V30 4247 H 401.623 1.29086 -5.97618 0
M  V30 4248 H 405.797 0.942345 -6.89995 0
M  V30 4249 H 403.424 0.703946 -7.56934 0
M  V30 4250 N 404.999 1.35443 0.805782 0
M  V30 4251 C 406.227 1.31878 1.59423 0
M  V30 4252 C 406.642 -0.103562 1.88516 0
M  V30 4253 O 405.999 -1.05575 1.48863 0
M  V30 4254 C 406.05 2.12426 2.92502 0
M  V30 4255 O 405.771 3.49115 2.6467 0
M  V30 4256 C 407.272 2.16455 3.86862 0
M  V30 4257 H 404.492 0.453002 0.495005 0
M  V30 4258 H 407.036 1.78309 1.00131 0
M  V30 4259 H 405.191 1.69593 3.48306 0
M  V30 4260 H 405.605 3.90957 3.49647 0
M  V30 4261 H 407.079 2.77204 4.77349 0
M  V30 4262 H 407.556 1.16352 4.23508 0
M  V30 4263 H 408.162 2.59453 3.36993 0
M  V30 4264 N 406.477 -1.02803 1.19454 0
M  V30 4265 C 407.705 -1.79841 1.02297 0
M  V30 4266 C 408.12 -1.83879 -0.428259 0
M  V30 4267 O 407.477 -1.28345 -1.29745 0
M  V30 4268 C 407.528 -3.24852 1.58598 0
M  V30 4269 O 407.249 -3.21097 2.98041 0
M  V30 4270 C 408.75 -4.18485 1.46236 0
M  V30 4271 H 405.97 -0.565936 0.360496 0
M  V30 4272 H 408.514 -1.2948 1.58288 0
M  V30 4273 H 406.669 -3.72401 1.06753 0
M  V30 4274 H 407.083 -4.12033 3.24545 0
M  V30 4275 H 408.557 -5.18121 1.90407 0
M  V30 4276 H 409.034 -4.37254 0.41301 0
M  V30 4277 H 409.64 -3.76811 1.97215 0
M  V30 4278 N 407.956 -0.998596 -1.21925 0
M  V30 4279 C 409.233 -0.593401 -1.86382 0
M  V30 4280 C 409.613 0.92916 -1.89552 0
M  V30 4281 O 408.961 1.81347 -1.39017 0
M  V30 4282 C 409.171 -1.22039 -3.26967 0
M  V30 4283 C 410.519 -1.32449 -4.03413 0
M  V30 4284 O 411.543 -1.17522 -3.36254 0
M  V30 4285 O 410.402 -1.56395 -5.23644 0
M  V30 4286 H 407.496 -0.202385 -0.801854 0
M  V30 4287 H 410.042 -1.09484 -1.29659 0
M  V30 4288 H 408.814 -2.26158 -3.19325 0
M  V30 4289 H 408.437 -0.704906 -3.91301 0
M  V30 4290 N 409.434 1.37368 -0.772513 0
M  V30 4291 C 410.397 2.28601 -0.165541 0
M  V30 4292 C 411.397 1.48062 0.627238 0
M  V30 4293 O 412.587 1.68268 0.450715 0
M  V30 4294 C 409.719 3.32023 0.772897 0
M  V30 4295 H 410.912 2.83787 -0.969787 0
M  V30 4296 H 408.465 1.46647 -0.540775 0
M  V30 4297 H 409.2 2.81962 1.60212 0
M  V30 4298 H 408.985 3.91555 0.206585 0
M  V30 4299 H 410.475 4.00197 1.19298 0
M  V30 4300 N 410.912 0.523116 1.48665 0
M  V30 4301 C 411.859 -0.243398 2.29513 0
M  V30 4302 C 412.829 -0.940139 1.36933 0
M  V30 4303 O 414.014 -0.942503 1.65896 0
M  V30 4304 C 411.154 -1.28855 3.20141 0
M  V30 4305 C 410.267 -0.60135 4.27794 0
M  V30 4306 C 409.402 -1.62884 5.05611 0
M  V30 4307 C 408.441 -0.924726 6.05075 0
M  V30 4308 N 407.578 -1.89744 6.75975 0
M  V30 4309 H 412.418 0.452234 2.94549 0
M  V30 4310 H 409.955 0.234858 1.45213 0
M  V30 4311 H 411.913 -1.90674 3.71079 0
M  V30 4312 H 410.543 -1.95266 2.57043 0
M  V30 4313 H 409.595 0.130623 3.80176 0
M  V30 4314 H 410.907 -0.0481585 4.98777 0
M  V30 4315 H 410.061 -2.32149 5.60528 0
M  V30 4316 H 408.8 -2.21592 4.34452 0
M  V30 4317 H 407.805 -0.217966 5.49368 0
M  V30 4318 H 409.03 -0.343851 6.78229 0
M  V30 4319 H 406.976 -2.47373 6.07571 0
M  V30 4320 H 406.893 -1.3955 7.43009 0
M  V30 4321 H 408.161 -2.58229 7.35485 0
M  V30 4322 N 412.39 -1.55475 0.257931 0
M  V30 4323 C 413.618 -2.03609 -0.367559 0
M  V30 4324 C 414.033 -1.13687 -1.50734 0
M  V30 4325 O 413.39 -0.153479 -1.81853 0
M  V30 4326 C 413.441 -3.51001 -0.864908 0
M  V30 4327 O 413.162 -4.37499 0.229465 0
M  V30 4328 C 414.663 -4.14946 -1.55997 0
M  V30 4329 H 411.883 -0.665459 -0.0860521 0
M  V30 4330 H 414.427 -2.00843 0.385014 0
M  V30 4331 H 412.582 -3.54266 -1.56762 0
M  V30 4332 H 412.996 -5.24286 -0.14998 0
M  V30 4333 H 414.47 -5.19735 -1.85956 0
M  V30 4334 H 414.947 -3.6209 -2.4857 0
M  V30 4335 H 415.553 -4.15635 -0.901543 0
M  V30 4336 N 413.868 0.0150385 -1.57593 0
M  V30 4337 C 414.818 1.01943 -2.0394 0
M  V30 4338 C 415.802 1.31209 -0.931286 0
M  V30 4339 O 416.994 1.30559 -1.19513 0
M  V30 4340 C 414.123 2.31621 -2.53391 0
M  V30 4341 C 413.209 2.05384 -3.7105 0
M  V30 4342 N 413.6 1.49253 -4.83278 0
M  V30 4343 C 411.898 2.35601 -3.78693 0
M  V30 4344 C 412.599 1.39143 -5.64813 0
M  V30 4345 N 411.575 1.87187 -5.10355 0
M  V30 4346 H 415.377 0.57969 -2.88126 0
M  V30 4347 H 412.891 0.221056 -1.60888 0
M  V30 4348 H 414.888 3.044 -2.84862 0
M  V30 4349 H 413.548 2.76261 -1.70616 0
M  V30 4350 H 414.559 1.17334 -5.04433 0
M  V30 4351 H 411.236 2.8322 -3.06746 0
M  V30 4352 H 412.626 0.961153 -6.6499 0
M  V30 4353 N 415.346 1.54954 0.287554 0
M  V30 4354 C 416.595 1.74081 1.01877 0
M  V30 4355 C 416.908 0.541135 1.87966 0
M  V30 4356 O 418.114 0.614491 2.64455 0
M  V30 4357 C 416.57 3.08042 1.86113 0
M  V30 4358 C 416.178 4.35531 1.04961 0
M  V30 4359 C 417.922 3.36523 2.58752 0
M  V30 4360 C 415.829 5.60538 1.88551 0
M  V30 4361 H 414.759 0.64884 0.384087 0
M  V30 4362 H 417.41 1.81426 0.275101 0
M  V30 4363 H 415.792 2.94696 2.64519 0
M  V30 4364 H 416.966 4.59751 0.31074 0
M  V30 4365 H 415.281 4.14085 0.43843 0
M  V30 4366 H 417.878 4.27122 3.21668 0
M  V30 4367 H 418.221 2.56 3.28283 0
M  V30 4368 H 418.754 3.50901 1.87386 0
M  V30 4369 H 415.493 6.43767 1.23466 0
M  V30 4370 H 415.013 5.40483 2.60074 0
M  V30 4371 H 416.692 5.98297 2.46273 0
M  V30 4372 N 416.824 -0.551391 1.4764 0
M  V30 4373 C 417.787 -1.64007 1.60107 0
M  V30 4374 C 418.787 -1.53601 0.47576 0
M  V30 4375 O 419.977 -1.57655 0.740988 0
M  V30 4376 C 417.109 -3.03569 1.55108 0
M  V30 4377 H 418.302 -1.543 2.57161 0
M  V30 4378 H 415.855 -0.771776 1.35917 0
M  V30 4379 H 416.59 -3.18804 0.594519 0
M  V30 4380 H 416.375 -3.12532 2.36783 0
M  V30 4381 H 417.865 -3.82762 1.66982 0
M  V30 4382 N 418.302 -1.35869 -0.798587 0
M  V30 4383 C 419.232 -1.32118 -1.92528 0
M  V30 4384 C 420.213 -0.194209 -1.68988 0
M  V30 4385 O 421.398 -0.390426 -1.90235 0
M  V30 4386 C 418.528 -1.10047 -3.29404 0
M  V30 4387 C 417.482 -2.19471 -3.67446 0
M  V30 4388 C 416.808 -1.82555 -5.02571 0
M  V30 4389 C 418.108 -3.61495 -3.76987 0
M  V30 4390 H 419.802 -2.26394 -1.95924 0
M  V30 4391 H 417.348 -1.08981 -0.94123 0
M  V30 4392 H 419.301 -1.06061 -4.07835 0
M  V30 4393 H 418.025 -0.122195 -3.26371 0
M  V30 4394 H 416.684 -2.22568 -2.91306 0
M  V30 4395 H 416.332 -0.833249 -4.9605 0
M  V30 4396 H 416.032 -2.5581 -5.28995 0
M  V30 4397 H 417.556 -1.80108 -5.83432 0
M  V30 4398 H 418.97 -3.60676 -4.4563 0
M  V30 4399 H 417.367 -4.33577 -4.14887 0
M  V30 4400 H 418.437 -3.97065 -2.78329 0
M  V30 4401 N 419.78 1.02168 -1.19998 0
M  V30 4402 C 421.057 1.72816 -0.916191 0
M  V30 4403 C 421.437 2.03081 0.576325 0
M  V30 4404 O 420.785 1.69122 1.53656 0
M  V30 4405 C 420.995 2.9997 -1.78378 0
M  V30 4406 C 422.343 3.73336 -2.02251 0
M  V30 4407 O 423.367 3.09914 -1.75589 0
M  V30 4408 O 422.226 4.87371 -2.47249 0
M  V30 4409 H 419.32 0.752924 -0.342103 0
M  V30 4410 H 421.866 1.08062 -1.30846 0
M  V30 4411 H 420.638 2.73888 -2.79466 0
M  V30 4412 H 420.261 3.72464 -1.39126 0
M  V30 4413 N 421.258 1.00505 1.21394 0
M  V30 4414 C 422.506 0.686415 1.90086 0
M  V30 4415 C 422.827 -0.785264 1.7849 0
M  V30 4416 O 422.097 -1.56387 1.17983 0
M  V30 4417 H 420.677 0.2509 0.703604 0
M  V30 4418 H 423.339 1.27417 1.47482 0
M  V30 4419 H 422.435 0.959621 2.96981 0
M  V30 4420 N 422.737 -1.36956 0.779787 0
M  V30 4421 C 424.153 -1.52817 0.460342 0
M  V30 4422 C 424.353 -1.7361 -1.02283 0
M  V30 4423 O 423.409 -1.76207 -1.80852 0
M  V30 4424 C 424.722 -2.71983 1.28241 0
M  V30 4425 C 426.27 -2.85849 1.27512 0
M  V30 4426 C 426.745 -4.08008 2.08072 0
M  V30 4427 N 428.236 -4.15135 2.05467 0
M  V30 4428 C 428.971 -5.08711 2.64577 0
M  V30 4429 N 428.467 -6.07792 3.32506 0
M  V30 4430 N 430.26 -5.01254 2.54363 0
M  V30 4431 H 422.411 -1.21713 1.74068 0
M  V30 4432 H 424.674 -0.593294 0.739396 0
M  V30 4433 H 424.38 -2.63109 2.33381 0
M  V30 4434 H 424.254 -3.65882 0.917088 0
M  V30 4435 H 426.641 -2.94189 0.231686 0
M  V30 4436 H 426.722 -1.92886 1.68014 0
M  V30 4437 H 426.366 -4.00429 3.12441 0
M  V30 4438 H 426.296 -5.001 1.64947 0
M  V30 4439 H 428.787 -3.44189 1.5602 0
M  V30 4440 H 429.1 -6.75739 3.74963 0
M  V30 4441 H 427.445 -6.08047 3.36606 0
M  V30 4442 H 430.636 -4.22795 2.00902 0
M  V30 4443 H 430.809 -5.73995 3.00722 0
M  V30 4444 N 424.215 -0.530993 -1.48385 0
M  V30 4445 C 425.145 0.219985 -2.32461 0
M  V30 4446 C 426.126 0.934111 -1.42156 0
M  V30 4447 O 427.311 0.919694 -1.71042 0
M  V30 4448 C 424.441 1.26674 -3.23375 0
M  V30 4449 C 423.395 0.67069 -4.22712 0
M  V30 4450 C 422.721 1.82017 -5.02766 0
M  V30 4451 C 424.021 -0.358268 -5.2107 0
M  V30 4452 H 425.715 -0.48187 -2.95497 0
M  V30 4453 H 423.261 -0.233182 -1.42099 0
M  V30 4454 H 425.214 1.80006 -3.81019 0
M  V30 4455 H 423.938 1.99818 -2.58341 0
M  V30 4456 H 422.597 0.158878 -3.66256 0
M  V30 4457 H 422.245 2.54002 -4.34157 0
M  V30 4458 H 421.945 1.42727 -5.70003 0
M  V30 4459 H 423.469 2.35725 -5.63264 0
M  V30 4460 H 424.883 0.0880081 -5.73232 0
M  V30 4461 H 423.28 -0.66861 -5.96364 0
M  V30 4462 H 424.35 -1.26367 -4.68145 0
M  V30 4463 N 425.693 1.55336 -0.266172 0
M  V30 4464 C 426.656 2.20878 0.612001 0
M  V30 4465 C 427.656 1.18388 1.08816 0
M  V30 4466 O 428.846 1.4335 0.989774 0
M  V30 4467 C 425.978 2.86765 1.84332 0
M  V30 4468 H 427.171 2.99873 0.0398718 0
M  V30 4469 H 424.724 1.56291 -0.0167309 0
M  V30 4470 H 425.459 2.11759 2.45619 0
M  V30 4471 H 425.244 3.61862 1.5099 0
M  V30 4472 H 426.734 3.36867 2.46801 0
M  V30 4473 N 427.171 -0.0066808 1.57599 0
M  V30 4474 C 428.419 -0.691552 1.899 0
M  V30 4475 C 428.74 -1.74682 0.866672 0
M  V30 4476 O 428.01 -1.95661 -0.0968189 0
M  V30 4477 H 426.59 -0.258416 0.700878 0
M  V30 4478 H 429.252 0.0326655 1.94873 0
M  V30 4479 H 428.348 -1.16702 2.8946 0
M  V30 4480 N 428.649 -1.55105 -0.279332 0
M  V30 4481 C 429.898 -1.74618 -1.00952 0
M  V30 4482 C 430.211 -0.551096 -1.87676 0
M  V30 4483 O 431.417 -0.628507 -2.64125 0
M  V30 4484 C 429.873 -3.09025 -1.84476 0
M  V30 4485 C 429.481 -4.36081 -1.0265 0
M  V30 4486 C 431.225 -3.37891 -2.56963 0
M  V30 4487 C 429.132 -5.6153 -1.85576 0
M  V30 4488 H 428.062 -0.650868 -0.38064 0
M  V30 4489 H 430.713 -1.81569 -0.265475 0
M  V30 4490 H 429.095 -2.96095 -2.62952 0
M  V30 4491 H 430.269 -4.59909 -0.286354 0
M  V30 4492 H 428.584 -4.14312 -0.416464 0
M  V30 4493 H 431.181 -4.28822 -3.19399 0
M  V30 4494 H 431.524 -2.57737 -3.26921 0
M  V30 4495 H 432.057 -3.5189 -1.85522 0
M  V30 4496 H 428.796 -6.44413 -1.2005 0
M  V30 4497 H 428.316 -5.41854 -2.57204 0
M  V30 4498 H 429.995 -5.99594 -2.43096 0
M  V30 4499 N 430.127 0.543554 -1.4793 0
M  V30 4500 C 431.373 1.30201 -1.55485 0
M  V30 4501 C 431.706 1.92925 -0.222201 0
M  V30 4502 O 430.981 1.78586 0.77053 0
M  V30 4503 C 431.264 2.40174 -2.68307 0
M  V30 4504 C 431.117 1.8223 -4.11233 0
M  V30 4505 C 432.436 3.42024 -2.76961 0
M  V30 4506 H 429.555 0.472036 -0.565996 0
M  V30 4507 H 432.197 0.606914 -1.80046 0
M  V30 4508 H 430.347 2.99463 -2.47495 0
M  V30 4509 H 432.019 1.27096 -4.43446 0
M  V30 4510 H 430.262 1.12832 -4.18869 0
M  V30 4511 H 430.933 2.61793 -4.85972 0
M  V30 4512 H 433.409 2.92672 -2.95774 0
M  V30 4513 H 432.285 4.16383 -3.57654 0
M  V30 4514 H 432.546 4.0173 -1.84568 0
M  V30 4515 N 431.605 1.3629 0.791371 0
M  V30 4516 C 432.537 1.26321 1.91248 0
M  V30 4517 C 433.55 0.18313 1.61767 0
M  V30 4518 O 434.739 0.437682 1.73051 0
M  V30 4519 C 431.839 0.925901 3.26007 0
M  V30 4520 C 431.012 2.10746 3.83281 0
M  V30 4521 C 430.071 1.74352 4.96475 0
M  V30 4522 O 429.097 2.46416 5.13096 0
M  V30 4523 N 430.299 0.676058 5.7655 0
M  V30 4524 H 433.064 2.22915 2.00323 0
M  V30 4525 H 430.625 1.29659 0.969546 0
M  V30 4526 H 432.617 0.663636 3.99222 0
M  V30 4527 H 431.187 0.0491581 3.12561 0
M  V30 4528 H 430.407 2.53264 3.02077 0
M  V30 4529 H 431.695 2.8969 4.18279 0
M  V30 4530 H 431.093 0.0776467 5.65647 0
M  V30 4531 H 429.65 0.473612 6.50077 0
M  V30 4532 N 433.083 -1.0153 1.20538 0
M  V30 4533 C 434.494 -1.56598 1.01657 0
M  V30 4534 C 434.845 -1.91505 -0.426668 0
M  V30 4535 O 433.97 -1.72375 -1.30827 0
M  V30 4536 C 434.565 -2.84542 1.83905 0
M  V30 4537 C 433.124 -3.36133 1.69386 0
M  V30 4538 C 432.271 -2.09427 1.81757 0
M  V30 4539 H 435.222 -0.838974 1.34711 0
M  V30 4540 H 435.243 -3.56004 1.34319 0
M  V30 4541 H 434.755 -2.59105 2.8894 0
M  V30 4542 H 432.856 -3.66528 0.669933 0
M  V30 4543 H 432.969 -4.08248 2.50739 0
M  V30 4544 H 431.333 -2.21941 1.24957 0
M  V30 4545 H 432.116 -1.86414 2.88279 0
M  V30 4546 N 434.561 -1.01147 -1.20859 0
M  V30 4547 C 435.509 -0.57059 -2.25493 0
M  V30 4548 C 436.503 0.388109 -1.64894 0
M  V30 4549 O 437.709 0.258592 -1.78133 0
M  V30 4550 H 434.084 -0.166191 -0.733406 0
M  V30 4551 H 436.055 -1.46411 -2.60012 0
M  V30 4552 C 434.804 0.0805241 -3.47607 0
M  V30 4553 H 434.127 -0.648156 -3.94511 0
M  V30 4554 H 435.567 0.352197 -4.22535 0
M  V30 4555 C 434.026 1.32175 -3.09889 0
M  V30 4556 O 434.556 2.41553 -3.20959 0
M  V30 4557 N 432.762 1.20392 -2.64488 0
M  V30 4558 H 432.309 0.313905 -2.5568 0
M  V30 4559 H 432.267 2.03541 -2.39621 0
M  V30 4560 N 436.039 1.36541 -0.78704 0
M  V30 4561 C 437.316 1.9355 -0.282424 0
M  V30 4562 C 437.696 1.71919 1.22503 0
M  V30 4563 O 437.044 1.07677 2.01539 0
M  V30 4564 C 437.254 3.4246 -0.672462 0
M  V30 4565 C 438.602 4.19582 -0.650863 0
M  V30 4566 O 439.626 3.50889 -0.612789 0
M  V30 4567 O 438.485 5.42106 -0.691623 0
M  V30 4568 H 435.579 0.824091 -0.0693 0
M  V30 4569 H 438.125 1.45736 -0.869423 0
M  V30 4570 H 436.897 3.51851 -1.71221 0
M  V30 4571 H 436.52 3.97556 -0.0592211 0
M  V30 4572 N 437.518 0.538854 1.48102 0
M  V30 4573 C 438.766 0.00798599 2.02098 0
M  V30 4574 C 439.087 -1.33922 1.41739 0
M  V30 4575 O 438.357 -1.86932 0.585934 0
M  V30 4576 H 436.937 -3.62179e-05 0.747 0
M  V30 4577 H 439.599 0.7047 1.81714 0
M  V30 4578 H 438.695 -0.0937672 3.11959 0
M  V30 4579 N 438.996 -1.55193 0.274407 0
M  V30 4580 C 439.928 -2.1989 -0.646595 0
M  V30 4581 C 440.941 -1.1834 -1.11801 0
M  V30 4582 O 442.13 -1.4507 -1.04004 0
M  V30 4583 C 439.23 -2.8104 -1.89393 0
M  V30 4584 C 438.403 -4.08274 -1.56943 0
M  V30 4585 C 437.462 -4.53478 -2.66916 0
M  V30 4586 O 436.488 -5.19267 -2.33132 0
M  V30 4587 N 437.69 -4.2356 -3.9696 0
M  V30 4588 H 440.455 -2.99556 -0.0928686 0
M  V30 4589 H 438.016 -1.61618 0.0954783 0
M  V30 4590 H 440.008 -3.08226 -2.62257 0
M  V30 4591 H 438.578 -2.05372 -2.35672 0
M  V30 4592 H 437.798 -3.88384 -0.674655 0
M  V30 4593 H 439.086 -4.91173 -1.32764 0
M  V30 4594 H 438.484 -3.70799 -4.27229 0
M  V30 4595 H 437.041 -4.55518 -4.66205 0
M  V30 4596 N 440.474 -0.00167713 -1.576 0
M  V30 4597 C 441.714 0.687302 -1.92498 0
M  V30 4598 C 442.078 1.70844 -0.876144 0
M  V30 4599 O 443.279 2.44792 -1.11043 0
M  V30 4600 C 441.55 1.31217 -3.32441 0
M  V30 4601 S 443.109 2.02604 -3.89226 0
M  V30 4602 H 439.927 0.226985 -0.673794 0
M  V30 4603 H 442.529 -0.0587666 -1.95412 0
M  V30 4604 H 441.233 0.556164 -4.06614 0
M  V30 4605 H 440.764 2.09613 -3.32905 0
M  V30 4606 H 442.779 3.30137 -3.70438 0
M  V30 4607 N 441.952 1.55251 0.271103 0
M  V30 4608 C 442.902 1.84649 1.33749 0
M  V30 4609 C 443.886 0.705529 1.44607 0
M  V30 4610 O 445.078 0.966916 1.48256 0
M  V30 4611 C 442.207 2.12354 2.69742 0
M  V30 4612 C 441.293 3.32714 2.62988 0
M  V30 4613 N 441.684 4.52575 2.25853 0
M  V30 4614 C 439.982 3.35341 2.94045 0
M  V30 4615 C 440.683 5.34669 2.29136 0
M  V30 4616 N 439.659 4.73123 2.67685 0
M  V30 4617 H 443.461 2.74865 1.0405 0
M  V30 4618 H 440.975 1.55152 0.479738 0
M  V30 4619 H 442.972 2.31572 3.4667 0
M  V30 4620 H 441.632 1.23422 3.00328 0
M  V30 4621 H 442.643 4.78639 1.978 0
M  V30 4622 H 439.32 2.56608 3.2933 0
M  V30 4623 H 440.71 6.40509 2.02971 0
M  V30 4624 N 443.43 -0.535701 1.48216 0
M  V30 4625 C 444.676 -1.29375 1.56173 0
M  V30 4626 C 445.009 -1.92804 0.232429 0
M  V30 4627 O 444.284 -1.78992 -0.761048 0
M  V30 4628 C 444.567 -2.38747 2.69577 0
M  V30 4629 C 444.42 -1.80046 4.12193 0
M  V30 4630 C 445.739 -3.40551 2.78771 0
M  V30 4631 H 442.858 -0.469027 0.568491 0
M  V30 4632 H 445.5 -0.597358 1.80365 0
M  V30 4633 H 443.65 -2.98147 2.4908 0
M  V30 4634 H 445.322 -1.24742 4.44114 0
M  V30 4635 H 443.565 -1.10609 4.19462 0
M  V30 4636 H 444.236 -2.59212 4.87353 0
M  V30 4637 H 446.712 -2.91099 2.97322 0
M  V30 4638 H 445.588 -4.1448 3.59857 0
M  V30 4639 H 445.849 -4.00746 1.86696 0
M  V30 4640 N 444.908 -1.36708 -0.784132 0
M  V30 4641 C 446.156 -1.30972 -1.53918 0
M  V30 4642 C 446.477 0.109086 -1.94695 0
M  V30 4643 O 445.747 1.05048 -1.65353 0
M  V30 4644 H 444.327 -0.481819 -0.570841 0
M  V30 4645 H 446.989 -1.71063 -0.934002 0
M  V30 4646 H 446.085 -1.94061 -2.44431 0
M  V30 4647 N 446.386 1.0089 -1.21074 0
M  V30 4648 C 447.611 1.78727 -1.05221 0
M  V30 4649 C 448.036 1.83932 0.393795 0
M  V30 4650 O 447.394 1.28004 1.28393 0
M  V30 4651 C 447.442 3.20665 -1.64944 0
M  V30 4652 O 446.546 4.02632 -0.892273 0
M  V30 4653 H 445.887 0.550973 -0.370574 0
M  V30 4654 H 448.417 1.26847 -1.60534 0
M  V30 4655 H 448.427 3.71352 -1.69002 0
M  V30 4656 H 447.102 3.16191 -2.70177 0
M  V30 4657 H 445.679 3.61207 -0.926492 0
M  V30 4658 N 447.864 1.01787 1.20321 0
M  V30 4659 C 449.141 0.622978 1.85414 0
M  V30 4660 C 449.521 -0.898887 1.91006 0
M  V30 4661 O 448.869 -1.79112 1.41884 0
M  V30 4662 C 449.079 1.27226 3.24984 0
M  V30 4663 C 450.427 1.3885 4.01255 0
M  V30 4664 O 451.451 1.22857 3.34342 0
M  V30 4665 O 450.31 1.64705 5.2109 0
M  V30 4666 H 447.404 0.215116 0.798533 0
M  V30 4667 H 449.95 1.11533 1.27901 0
M  V30 4668 H 448.722 2.31209 3.15687 0
M  V30 4669 H 448.345 0.767069 3.90131 0
M  V30 4670 N 449.342 -1.36122 0.79427 0
M  V30 4671 C 450.29 -2.31871 0.184023 0
M  V30 4672 C 451.284 -1.56041 -0.659365 0
M  V30 4673 O 452.49 -1.71266 -0.553906 0
M  V30 4674 H 448.865 -0.750896 0.0407373 0
M  V30 4675 H 450.836 -2.80898 1.00693 0
M  V30 4676 C 449.585 -3.41324 -0.662813 0
M  V30 4677 H 448.908 -3.99793 -0.0231944 0
M  V30 4678 H 450.348 -4.10629 -1.05639 0
M  V30 4679 C 448.807 -2.83308 -1.82313 0
M  V30 4680 O 449.337 -2.75863 -2.91997 0
M  V30 4681 N 447.543 -2.40529 -1.63077 0
M  V30 4682 H 447.09 -2.46785 -0.738591 0
M  V30 4683 H 447.048 -2.02059 -2.40872 0
M  V30 4684 N 450.82 -0.546701 -1.47814 0
M  V30 4685 C 451.77 0.227042 -2.26867 0
M  V30 4686 C 452.754 0.894844 -1.33721 0
M  V30 4687 O 453.946 0.794887 -1.58147 0
M  V30 4688 C 451.075 1.26299 -3.19223 0
M  V30 4689 C 450.161 0.59913 -4.19847 0
M  V30 4690 N 450.552 -0.324777 -5.04756 0
M  V30 4691 C 448.85 0.854331 -4.37741 0
M  V30 4692 C 449.551 -0.709386 -5.77358 0
M  V30 4693 N 448.527 -0.0666153 -5.43559 0
M  V30 4694 H 452.329 -0.483476 -2.89896 0
M  V30 4695 H 449.843 -0.365893 -1.58224 0
M  V30 4696 H 451.84 1.83116 -3.74532 0
M  V30 4697 H 450.5 1.97471 -2.57751 0
M  V30 4698 H 451.511 -0.698351 -5.1317 0
M  V30 4699 H 448.188 1.55536 -3.87447 0
M  V30 4700 H 449.578 -1.46796 -6.55668 0
M  V30 4701 N 452.299 1.55045 -0.282633 0
M  V30 4702 C 453.529 2.03872 0.334635 0
M  V30 4703 C 453.937 1.16018 1.49454 0
M  V30 4704 O 453.28 0.174449 1.8287 0
M  V30 4705 C 453.342 3.48791 0.870905 0
M  V30 4706 C 453.006 4.56715 -0.161338 0
M  V30 4707 C 454.003 5.10513 -0.983466 0
M  V30 4708 C 451.688 5.01417 -0.297745 0
M  V30 4709 C 453.682 6.07538 -1.92811 0
M  V30 4710 C 451.369 5.98265 -1.24586 0
M  V30 4711 C 452.367 6.51208 -2.05954 0
M  V30 4712 O 452.055 7.46162 -2.99162 0
M  V30 4713 H 451.787 0.671324 0.0793742 0
M  V30 4714 H 454.341 2.01169 -0.41473 0
M  V30 4715 H 452.571 3.48758 1.67047 0
M  V30 4716 H 454.26 3.80916 1.40207 0
M  V30 4717 H 455.026 4.76785 -0.888856 0
M  V30 4718 H 450.905 4.59849 0.325604 0
M  V30 4719 H 454.449 6.48787 -2.56363 0
M  V30 4720 H 450.346 6.31412 -1.34126 0
M  V30 4721 H 451.114 7.63903 -2.93929 0
M  V30 4722 N 453.777 0.010035 1.57597 0
M  V30 4723 C 455.002 -0.687021 1.95691 0
M  V30 4724 C 455.427 -1.65952 0.885519 0
M  V30 4725 O 454.785 -1.80633 -0.15543 0
M  V30 4726 C 454.833 -1.3864 3.32884 0
M  V30 4727 O 453.937 -2.50115 3.27897 0
M  V30 4728 H 453.278 -0.181989 0.638573 0
M  V30 4729 H 455.808 0.0662122 2.04493 0
M  V30 4730 H 455.818 -1.74754 3.6868 0
M  V30 4731 H 454.493 -0.673411 4.10412 0
M  V30 4732 H 453.07 -2.16253 3.03791 0
M  V30 4733 N 455.255 -1.55392 -0.262866 0
M  V30 4734 C 456.218 -1.88181 -1.30846 0
M  V30 4735 C 457.218 -0.757079 -1.41862 0
M  V30 4736 O 458.408 -1.02519 -1.40838 0
M  V30 4737 C 455.54 -2.09609 -2.68844 0
M  V30 4738 H 456.733 -2.81659 -1.02997 0
M  V30 4739 H 454.286 -1.48039 -0.501414 0
M  V30 4740 H 455.021 -1.18547 -3.01856 0
M  V30 4741 H 454.806 -2.91508 -2.62231 0
M  V30 4742 H 456.296 -2.36215 -3.44372 0
M  V30 4743 N 456.733 0.527833 -1.48498 0
M  V30 4744 C 457.958 1.313 -1.60546 0
M  V30 4745 C 458.383 1.86199 -0.26672 0
M  V30 4746 O 457.741 1.64513 0.761918 0
M  V30 4747 C 457.789 2.43818 -2.65678 0
M  V30 4748 O 456.893 3.46916 -2.22987 0
M  V30 4749 H 456.234 0.388784 -0.538277 0
M  V30 4750 H 458.764 0.634896 -1.945 0
M  V30 4751 H 458.774 2.89973 -2.87018 0
M  V30 4752 H 457.449 2.03222 -3.62869 0
M  V30 4753 H 456.026 3.06864 -2.11869 0
M  V30 4754 N 458.211 1.37122 0.776871 0
M  V30 4755 C 459.439 1.3523 1.5659 0
M  V30 4756 C 459.854 -0.0635518 1.88693 0
M  V30 4757 O 459.211 -1.02394 1.51069 0
M  V30 4758 C 459.262 2.18583 2.8793 0
M  V30 4759 O 458.983 3.5465 2.57206 0
M  V30 4760 C 460.484 2.24612 3.82183 0
M  V30 4761 H 457.704 0.4634 0.485285 0
M  V30 4762 H 460.248 1.80392 0.963266 0
M  V30 4763 H 458.403 1.76943 3.4463 0
M  V30 4764 H 458.817 3.98286 3.41275 0
M  V30 4765 H 460.291 2.87267 4.71361 0
M  V30 4766 H 460.768 1.25309 4.20944 0
M  V30 4767 H 461.374 2.66543 3.31414 0
M  V30 4768 N 459.689 -1.00246 1.21608 0
M  V30 4769 C 460.917 -1.77631 1.06089 0
M  V30 4770 C 461.332 -1.84746 -0.38916 0
M  V30 4771 O 460.689 -1.31068 -1.26994 0
M  V30 4772 C 460.74 -3.21415 1.65453 0
M  V30 4773 O 460.461 -3.14703 3.04785 0
M  V30 4774 C 461.962 -4.15289 1.55079 0
M  V30 4775 H 459.182 -0.558162 0.37242 0
M  V30 4776 H 461.726 -1.26093 1.60999 0
M  V30 4777 H 459.881 -3.70053 1.14629 0
M  V30 4778 H 460.295 -4.05056 3.33212 0
M  V30 4779 H 461.769 -5.13965 2.01355 0
M  V30 4780 H 462.246 -4.36279 0.505665 0
M  V30 4781 H 462.852 -3.72543 2.05163 0
M  V30 4782 N 461.167 -1.02423 -1.1978 0
M  V30 4783 C 462.1 -0.545641 -2.21581 0
M  V30 4784 C 463.078 0.411024 -1.57319 0
M  V30 4785 O 464.262 0.329223 -1.85603 0
M  V30 4786 C 461.389 0.204973 -3.38079 0
M  V30 4787 C 460.435 -0.70241 -4.20676 0
M  V30 4788 S 461.268 -2.17595 -4.89298 0
M  V30 4789 C 462.424 -1.43572 -6.09211 0
M  V30 4790 H 462.657 -1.4082 -2.61834 0
M  V30 4791 H 460.19 -0.833771 -1.29952 0
M  V30 4792 H 462.148 0.631924 -4.05607 0
M  V30 4793 H 460.809 1.0432 -2.9627 0
M  V30 4794 H 460.002 -0.123193 -5.03849 0
M  V30 4795 H 459.604 -1.06747 -3.58442 0
M  V30 4796 H 461.896 -0.719806 -6.73665 0
M  V30 4797 H 462.839 -2.24388 -6.71607 0
M  V30 4798 H 463.247 -0.935252 -5.56699 0
M  V30 4799 N 462.645 1.35699 -0.801477 0
M  V30 4800 C 463.922 1.9324 -0.302937 0
M  V30 4801 C 464.302 1.73209 1.20672 0
M  V30 4802 O 463.65 1.09809 2.00385 0
M  V30 4803 C 463.86 3.41728 -0.708747 0
M  V30 4804 C 465.208 4.18868 -0.695328 0
M  V30 4805 O 466.232 3.5022 -0.649971 0
M  V30 4806 O 465.091 5.41342 -0.749081 0
M  V30 4807 H 462.185 0.82331 -0.0780367 0
M  V30 4808 H 464.731 1.44806 -0.884832 0
M  V30 4809 H 463.503 3.50015 -1.74944 0
M  V30 4810 H 463.126 3.97471 -0.101384 0
M  V30 4811 N 464.123 0.554532 1.47522 0
M  V30 4812 C 465.353 0.0342074 2.06572 0
M  V30 4813 C 465.761 -1.26375 1.40805 0
M  V30 4814 O 465.104 -1.7683 0.49769 0
M  V30 4815 C 465.166 -0.235096 3.5873 0
M  V30 4816 C 464.83 0.973024 4.46521 0
M  V30 4817 C 465.827 1.8779 4.848 0
M  V30 4818 C 463.512 1.18694 4.88075 0
M  V30 4819 C 465.506 2.98039 5.63428 0
M  V30 4820 C 463.193 2.29254 5.66468 0
M  V30 4821 C 464.191 3.18757 6.04055 0
M  V30 4822 O 463.879 4.27401 6.8087 0
M  V30 4823 H 463.611 0.041587 0.67472 0
M  V30 4824 H 466.165 0.766748 1.90552 0
M  V30 4825 H 464.395 -1.02191 3.72953 0
M  V30 4826 H 466.084 -0.700477 3.9981 0
M  V30 4827 H 466.85 1.72467 4.53299 0
M  V30 4828 H 462.729 0.49947 4.58286 0
M  V30 4829 H 466.273 3.67926 5.92685 0
M  V30 4830 H 462.17 2.4455 5.97382 0
M  V30 4831 H 462.938 4.25415 6.9926 0
M  V30 4832 N 465.601 -1.54893 0.290851 0
M  V30 4833 C 467.012 -1.85584 -0.203816 0
M  V30 4834 C 467.363 -1.21285 -1.54222 0
M  V30 4835 O 466.488 -0.506841 -2.10381 0
M  V30 4836 C 467.083 -3.367 -0.376595 0
M  V30 4837 C 465.642 -3.6746 -0.815485 0
M  V30 4838 C 464.789 -2.77178 0.0821087 0
M  V30 4839 H 467.74 -1.50208 0.512175 0
M  V30 4840 H 467.761 -3.60656 -1.21275 0
M  V30 4841 H 467.273 -3.8347 0.59767 0
M  V30 4842 H 465.374 -3.26201 -1.80066 0
M  V30 4843 H 465.487 -4.7478 -0.641905 0
M  V30 4844 H 463.851 -2.50925 -0.436895 0
M  V30 4845 H 464.634 -3.26767 1.05254 0
M  V30 4846 N 467.08 -0.0183926 -1.57589 0
M  V30 4847 C 468.305 0.676634 -1.96052 0
M  V30 4848 C 468.73 1.6548 -0.894307 0
M  V30 4849 O 468.088 1.80712 0.145849 0
M  V30 4850 C 468.136 1.36872 -3.33614 0
M  V30 4851 O 467.24 2.48372 -3.29219 0
M  V30 4852 H 466.581 0.1786 -0.63953 0
M  V30 4853 H 469.111 -0.077056 -2.04455 0
M  V30 4854 H 469.121 1.72797 -3.69601 0
M  V30 4855 H 467.796 0.651636 -4.10763 0
M  V30 4856 H 466.373 2.14639 -3.04934 0
M  V30 4857 N 468.558 1.5553 0.254621 0
M  V30 4858 C 469.488 1.9268 1.31897 0
M  V30 4859 C 470.469 0.790797 1.506 0
M  V30 4860 O 471.654 1.05045 1.63337 0
M  V30 4861 C 468.784 2.21477 2.67517 0
M  V30 4862 C 467.738 3.37256 2.63519 0
M  V30 4863 C 467.064 3.51576 4.02862 0
M  V30 4864 C 468.364 4.73157 2.21179 0
M  V30 4865 H 470.058 2.81832 1.01051 0
M  V30 4866 H 467.604 1.35599 0.484662 0
M  V30 4867 H 469.557 2.46055 3.42104 0
M  V30 4868 H 468.281 1.29144 2.99982 0
M  V30 4869 H 466.94 3.12675 1.9139 0
M  V30 4870 H 466.588 2.56676 4.32581 0
M  V30 4871 H 466.288 4.2943 4.01078 0
M  V30 4872 H 467.812 3.78467 4.79161 0
M  V30 4873 H 469.226 4.97158 2.85494 0
M  V30 4874 H 467.623 5.54058 2.30521 0
M  V30 4875 H 468.693 4.70739 1.16332 0
M  V30 4876 N 470.036 -0.519951 1.48776 0
M  V30 4877 C 471.284 -1.2727 1.56993 0
M  V30 4878 C 471.605 -1.9339 0.25004 0
M  V30 4879 O 470.875 -1.81822 -0.729216 0
M  V30 4880 H 469.455 -0.472732 0.578389 0
M  V30 4881 H 472.117 -0.604234 1.85297 0
M  V30 4882 H 471.213 -2.04669 2.3562 0
M  V30 4883 N 471.514 -1.37532 -0.769588 0
M  V30 4884 C 472.444 -1.36172 -1.89682 0
M  V30 4885 C 473.425 -0.23001 -1.68538 0
M  V30 4886 O 474.61 -0.43069 -1.89364 0
M  V30 4887 C 471.74 -1.1701 -3.26995 0
M  V30 4888 C 470.694 -2.27216 -3.62708 0
M  V30 4889 C 470.02 -1.93174 -4.98586 0
M  V30 4890 C 471.32 -3.6941 -3.69234 0
M  V30 4891 H 473.014 -2.30499 -1.91078 0
M  V30 4892 H 470.56 -1.10953 -0.917902 0
M  V30 4893 H 472.513 -1.14688 -4.05493 0
M  V30 4894 H 471.237 -0.191395 -3.26039 0
M  V30 4895 H 469.896 -2.28697 -2.86519 0
M  V30 4896 H 469.544 -0.938281 -4.94171 0
M  V30 4897 H 469.244 -2.66973 -5.23449 0
M  V30 4898 H 470.768 -1.92443 -5.79481 0
M  V30 4899 H 472.182 -3.70047 -4.37879 0
M  V30 4900 H 470.579 -4.4228 -4.05597 0
M  V30 4901 H 471.649 -4.0288 -2.69844 0
M  V30 4902 N 472.992 0.995999 -1.22138 0
M  V30 4903 C 473.925 2.08302 -0.931952 0
M  V30 4904 C 474.903 1.62127 0.123956 0
M  V30 4905 O 476.087 1.88499 -0.00696004 0
M  V30 4906 C 473.214 3.36317 -0.401068 0
M  V30 4907 C 472.26 4.01413 -1.44117 0
M  V30 4908 S 473.093 4.42664 -3.01345 0
M  V30 4909 C 474.249 5.73853 -2.49887 0
M  V30 4910 H 474.482 2.32532 -1.85246 0
M  V30 4911 H 472.015 1.13005 -1.0521 0
M  V30 4912 H 473.973 4.10375 -0.101352 0
M  V30 4913 H 472.634 3.10123 0.498272 0
M  V30 4914 H 471.827 4.9358 -1.01952 0
M  V30 4915 H 471.429 3.33668 -1.68943 0
M  V30 4916 H 473.721 6.50039 -1.90934 0
M  V30 4917 H 474.664 6.20841 -3.40532 0
M  V30 4918 H 475.072 5.31105 -1.9128 0
M  V30 4919 N 474.47 1.03057 1.19235 0
M  V30 4920 C 475.698 0.747697 1.92917 0
M  V30 4921 C 476.113 -0.69372 1.75593 0
M  V30 4922 O 475.47 -1.47191 1.07894 0
M  V30 4923 C 475.521 1.09159 3.44625 0
M  V30 4924 O 475.242 2.47641 3.61394 0
M  V30 4925 C 476.743 0.831763 4.35427 0
M  V30 4926 H 473.963 0.273453 0.612751 0
M  V30 4927 H 476.507 1.37552 1.51327 0
M  V30 4928 H 474.662 0.508919 3.84043 0
M  V30 4929 H 475.076 2.60499 4.55237 0
M  V30 4930 H 476.55 1.12233 5.4047 0
M  V30 4931 H 477.027 -0.233769 4.38577 0
M  V30 4932 H 477.633 1.39725 4.01693 0
M  V30 4933 N 475.948 -1.35272 0.808662 0
M  V30 4934 C 476.858 -2.33546 0.222079 0
M  V30 4935 C 477.874 -1.6196 -0.636011 0
M  V30 4936 O 479.05 -1.93822 -0.547274 0
M  V30 4937 C 476.115 -3.41148 -0.61795 0
M  V30 4938 C 475.176 -4.28507 0.260875 0
M  V30 4939 C 474.409 -5.3097 -0.539156 0
M  V30 4940 O 474.632 -5.42123 -1.77367 0
M  V30 4941 O 473.566 -6.01858 0.0710526 0
M  V30 4942 H 477.392 -2.85515 1.03512 0
M  V30 4943 H 474.977 -1.38079 0.570495 0
M  V30 4944 H 476.859 -4.06889 -1.09634 0
M  V30 4945 H 475.534 -2.91447 -1.40855 0
M  V30 4946 H 474.441 -3.6574 0.786451 0
M  V30 4947 H 475.774 -4.81611 1.01547 0
M  V30 4948 N 477.426 -0.562348 -1.47226 0
M  V30 4949 C 478.373 0.182461 -2.30078 0
M  V30 4950 C 479.343 0.903503 -1.39377 0
M  V30 4951 O 480.528 0.898188 -1.68337 0
M  V30 4952 C 477.668 1.20322 -3.23445 0
M  V30 4953 C 476.781 0.487717 -4.29238 0
M  V30 4954 C 475.916 1.49422 -5.09752 0
M  V30 4955 C 474.955 0.763976 -6.07314 0
M  V30 4956 N 474.092 1.71755 -6.80768 0
M  V30 4957 H 478.932 -0.530169 -2.93246 0
M  V30 4958 H 476.469 -0.273276 -1.44539 0
M  V30 4959 H 478.427 1.80768 -3.76004 0
M  V30 4960 H 477.057 1.88382 -2.6213 0
M  V30 4961 H 476.109 -0.231374 -3.79696 0
M  V30 4962 H 477.421 -0.0841003 -4.98729 0
M  V30 4963 H 476.575 2.17206 -5.66486 0
M  V30 4964 H 475.314 2.09995 -4.40174 0
M  V30 4965 H 474.319 0.0722344 -5.49753 0
M  V30 4966 H 475.544 0.16391 -6.78902 0
M  V30 4967 H 473.49 2.31177 -6.13916 0
M  V30 4968 H 473.407 1.19802 -7.46447 0
M  V30 4969 H 474.675 2.38638 -7.42073 0
M  V30 4970 N 478.904 1.54736 -0.299062 0
M  V30 4971 C 479.834 2.26409 0.571085 0
M  V30 4972 C 480.815 1.2629 1.13951 0
M  V30 4973 O 482 1.55059 1.16921 0
M  V30 4974 C 479.13 3.00338 1.74396 0
M  V30 4975 C 478.084 4.07588 1.30599 0
M  V30 4976 C 477.41 4.69222 2.56387 0
M  V30 4977 C 478.71 5.20455 0.438645 0
M  V30 4978 H 480.404 2.99388 -0.0266991 0
M  V30 4979 H 477.95 1.43993 -0.0142812 0
M  V30 4980 H 479.903 3.49198 2.35878 0
M  V30 4981 H 478.627 2.24934 2.36796 0
M  V30 4982 H 477.286 3.59575 0.71424 0
M  V30 4983 H 476.934 3.9046 3.17097 0
M  V30 4984 H 476.634 5.41653 2.27784 0
M  V30 4985 H 478.158 5.20844 3.18675 0
M  V30 4986 H 479.572 5.65221 0.959085 0
M  V30 4987 H 477.969 5.99594 0.246466 0
M  V30 4988 H 479.039 4.8192 -0.536738 0
M  V30 4989 N 480.382 0.0267497 1.57577 0
M  V30 4990 C 481.607 -0.666227 1.96408 0
M  V30 4991 C 482.032 -1.65004 0.903071 0
M  V30 4992 O 481.39 -1.80787 -0.136263 0
M  V30 4993 C 481.438 -1.35101 3.34335 0
M  V30 4994 O 480.542 -2.46623 3.30531 0
M  V30 4995 H 479.883 -0.175206 0.640468 0
M  V30 4996 H 482.413 0.0878977 2.04411 0
M  V30 4997 H 482.423 -1.70834 3.70513 0
M  V30 4998 H 481.098 -0.629844 4.11103 0
M  V30 4999 H 479.675 -2.13019 3.06068 0
M  V30 5000 N 481.861 -1.55662 -0.24637 0
M  V30 5001 C 482.793 -1.86811 -1.32794 0
M  V30 5002 C 483.806 -0.754413 -1.44265 0
M  V30 5003 O 484.995 -1.03253 -1.45606 0
M  V30 5004 C 482.095 -2.0397 -2.70646 0
M  V30 5005 C 481.268 -3.34832 -2.81436 0
M  V30 5006 C 480.327 -3.41727 -4.00136 0
M  V30 5007 O 479.353 -4.14934 -3.89639 0
M  V30 5008 N 480.555 -2.71058 -5.1333 0
M  V30 5009 H 483.32 -2.80174 -1.06409 0
M  V30 5010 H 480.881 -1.55906 -0.43647 0
M  V30 5011 H 482.873 -2.05924 -3.48393 0
M  V30 5012 H 481.443 -1.1735 -2.89738 0
M  V30 5013 H 480.663 -3.4519 -1.90361 0
M  V30 5014 H 481.951 -4.21085 -2.85595 0
M  V30 5015 H 481.349 -2.11314 -5.2475 0
M  V30 5016 H 479.906 -2.78704 -5.89209 0
M  V30 5017 N 483.339 0.512053 -1.4905 0
M  V30 5018 C 484.286 1.6148 -1.64902 0
M  V30 5019 C 485.256 1.58687 -0.490673 0
M  V30 5020 O 486.441 1.76842 -0.71636 0
M  V30 5021 C 483.581 2.99676 -1.71139 0
M  V30 5022 C 482.694 3.12568 -2.98203 0
M  V30 5023 C 481.829 4.4143 -2.95487 0
M  V30 5024 C 480.868 4.47916 -4.17179 0
M  V30 5025 N 480.005 5.68191 -4.12437 0
M  V30 5026 H 484.845 1.47271 -2.59066 0
M  V30 5027 H 482.382 0.716713 -1.28459 0
M  V30 5028 H 484.34 3.79761 -1.72736 0
M  V30 5029 H 482.97 3.12614 -0.804508 0
M  V30 5030 H 482.022 2.25618 -3.06269 0
M  V30 5031 H 483.334 3.1322 -3.88194 0
M  V30 5032 H 482.488 5.29825 -2.95585 0
M  V30 5033 H 481.227 4.43326 -2.03256 0
M  V30 5034 H 480.232 3.57925 -4.17337 0
M  V30 5035 H 481.457 4.47744 -5.1059 0
M  V30 5036 H 479.403 5.7095 -3.23036 0
M  V30 5037 H 479.32 5.70413 -4.96151 0
M  V30 5038 H 480.588 6.58823 -4.16621 0
M  V30 5039 N 484.817 1.37938 0.762283 0
M  V30 5040 C 485.765 1.34569 1.89721 0
M  V30 5041 C 486.759 0.232929 1.67791 0
M  V30 5042 O 487.965 0.401485 1.75465 0
M  V30 5043 H 484.34 0.419594 0.624055 0
M  V30 5044 H 486.311 2.30357 1.8968 0
M  V30 5045 C 485.06 1.17898 3.27101 0
M  V30 5046 H 484.383 2.02781 3.44558 0
M  V30 5047 H 485.823 1.19593 4.06784 0
M  V30 5048 C 484.282 -0.114728 3.36705 0
M  V30 5049 O 484.812 -1.0949 3.8649 0
M  V30 5050 N 483.018 -0.16863 2.9011 0
M  V30 5051 H 482.565 0.62967 2.49786 0
M  V30 5052 H 482.523 -1.03383 2.96916 0
M  V30 5053 N 486.295 -0.989507 1.22664 0
M  V30 5054 C 487.544 -1.72375 1.04737 0
M  V30 5055 C 487.857 -1.91096 -0.417316 0
M  V30 5056 O 489.063 -2.6188 -0.716334 0
M  V30 5057 C 487.519 -3.10161 1.82561 0
M  V30 5058 C 487.127 -2.99358 3.333 0
M  V30 5059 C 488.871 -3.87607 1.73093 0
M  V30 5060 C 486.778 -4.32319 4.03552 0
M  V30 5061 H 485.708 -0.646326 0.388302 0
M  V30 5062 H 488.359 -1.10437 1.46546 0
M  V30 5063 H 486.741 -3.728 1.33552 0
M  V30 5064 H 487.915 -2.45863 3.89728 0
M  V30 5065 H 486.23 -2.35392 3.43481 0
M  V30 5066 H 488.827 -4.86025 2.22899 0
M  V30 5067 H 489.17 -4.10509 0.691976 0
M  V30 5068 H 489.703 -3.31652 2.19663 0
M  V30 5069 H 486.442 -4.14616 5.07714 0
M  V30 5070 H 485.962 -4.85714 3.51911 0
M  V30 5071 H 487.641 -5.01051 4.09337 0
M  V30 5072 N 487.773 -1.03688 -1.18687 0
M  V30 5073 C 488.721 -0.618292 -2.24232 0
M  V30 5074 C 489.715 0.353045 -1.6568 0
M  V30 5075 O 490.921 0.220749 -1.78641 0
M  V30 5076 H 487.296 -0.181711 -0.729716 0
M  V30 5077 H 489.267 -1.51893 -2.56848 0
M  V30 5078 C 488.016 0.00677342 -3.47699 0
M  V30 5079 H 487.339 -0.731692 -3.93047 0
M  V30 5080 H 488.779 0.262492 -4.23187 0
M  V30 5081 C 487.238 1.25572 -3.12623 0
M  V30 5082 O 487.768 2.34691 -3.26011 0
M  V30 5083 N 485.974 1.14755 -2.66982 0
M  V30 5084 H 485.521 0.259601 -2.56289 0
M  V30 5085 H 485.479 1.98412 -2.43885 0
M  V30 5086 N 489.251 1.34841 -0.815825 0
M  V30 5087 C 490.181 2.32187 -0.247298 0
M  V30 5088 C 491.162 1.5791 0.632344 0
M  V30 5089 O 492.347 1.8593 0.560698 0
M  V30 5090 C 489.477 3.42122 0.597466 0
M  V30 5091 C 488.431 4.27602 -0.184446 0
M  V30 5092 C 487.757 5.28942 0.782609 0
M  V30 5093 C 489.057 5.03502 -1.38865 0
M  V30 5094 H 490.751 2.79985 -1.06061 0
M  V30 5095 H 488.297 1.34611 -0.511461 0
M  V30 5096 H 490.25 4.09232 1.00533 0
M  V30 5097 H 488.974 2.92956 1.44376 0
M  V30 5098 H 487.633 3.62085 -0.573592 0
M  V30 5099 H 487.281 4.7604 1.62466 0
M  V30 5100 H 486.981 5.87008 0.263695 0
M  V30 5101 H 488.505 5.98922 1.18848 0
M  V30 5102 H 489.919 5.63506 -1.05518 0
M  V30 5103 H 488.316 5.71108 -1.8427 0
M  V30 5104 H 489.386 4.33608 -2.17054 0
M  V30 5105 N 490.729 0.570148 1.46925 0
M  V30 5106 C 491.978 0.0487352 2.01641 0
M  V30 5107 C 492.291 -1.31433 1.44861 0
M  V30 5108 O 493.497 -1.92638 1.91318 0
M  V30 5109 C 491.953 0.0365817 3.59881 0
M  V30 5110 C 491.561 1.39719 4.25655 0
M  V30 5111 C 493.305 -0.431545 4.22301 0
M  V30 5112 C 491.212 1.34345 5.75939 0
M  V30 5113 H 490.142 0.0144492 0.753862 0
M  V30 5114 H 492.793 0.719928 1.68788 0
M  V30 5115 H 491.175 -0.700522 3.89755 0
M  V30 5116 H 492.349 2.15303 4.07408 0
M  V30 5117 H 490.664 1.80431 3.75278 0
M  V30 5118 H 493.261 -0.490354 5.32447 0
M  V30 5119 H 493.604 -1.44638 3.90366 0
M  V30 5120 H 494.137 0.251102 3.97007 0
M  V30 5121 H 490.876 2.33469 6.12513 0
M  V30 5122 H 490.396 0.629615 5.96486 0
M  V30 5123 H 492.075 1.051 6.38407 0
M  V30 5124 N 492.207 -1.54576 0.307264 0
M  V30 5125 C 493.454 -2.00263 -0.300167 0
M  V30 5126 C 493.782 -1.19561 -1.53413 0
M  V30 5127 O 493.037 -0.261487 -1.93945 0
M  V30 5128 C 493.336 -3.50572 -0.695253 0
M  V30 5129 C 493.002 -4.48771 0.437679 0
M  V30 5130 C 491.664 -4.7534 0.748681 0
M  V30 5131 C 494.016 -5.0721 1.19949 0
M  V30 5132 C 491.344 -5.5761 1.8245 0
M  V30 5133 C 493.696 -5.90651 2.26527 0
M  V30 5134 C 492.36 -6.15528 2.58227 0
M  V30 5135 H 491.63 -0.732814 -0.109839 0
M  V30 5136 H 494.277 -1.86664 0.427661 0
M  V30 5137 H 492.582 -3.61814 -1.50326 0
M  V30 5138 H 494.279 -3.83352 -1.17653 0
M  V30 5139 H 490.869 -4.282 0.185187 0
M  V30 5140 H 495.053 -4.86679 0.972474 0
M  V30 5141 H 490.309 -5.75121 2.07476 0
M  V30 5142 H 494.483 -6.34957 2.86011 0
M  V30 5143 H 492.11 -6.79066 3.4172 0
M  V30 5144 N 493.685 -0.035106 -1.57561 0
M  V30 5145 C 494.648 0.929819 -2.09492 0
M  V30 5146 C 495.648 1.25026 -1.01119 0
M  V30 5147 O 496.838 1.18961 -1.27255 0
M  V30 5148 C 493.97 2.24457 -2.56577 0
M  V30 5149 H 495.163 0.479935 -2.96035 0
M  V30 5150 H 492.716 0.213033 -1.54841 0
M  V30 5151 H 493.451 2.74061 -1.73382 0
M  V30 5152 H 493.236 2.02508 -3.35757 0
M  V30 5153 H 494.726 2.93607 -2.96959 0
M  V30 5154 N 495.163 1.55791 0.238111 0
M  V30 5155 C 496.409 1.78297 0.966337 0
M  V30 5156 C 496.742 0.601903 1.84637 0
M  V30 5157 O 496.017 -0.399499 1.90353 0
M  V30 5158 C 496.3 3.10758 1.81939 0
M  V30 5159 C 496.153 4.39283 0.966958 0
M  V30 5160 C 497.472 3.39519 2.80027 0
M  V30 5161 H 494.591 0.648654 0.349882 0
M  V30 5162 H 497.233 1.88525 0.236253 0
M  V30 5163 H 495.383 3.02168 2.44185 0
M  V30 5164 H 497.055 4.59873 0.362514 0
M  V30 5165 H 495.298 4.32948 0.271669 0
M  V30 5166 H 495.969 5.28368 1.59784 0
M  V30 5167 H 498.445 3.48128 2.27917 0
M  V30 5168 H 497.321 4.33402 3.36829 0
M  V30 5169 H 497.582 2.60864 3.56934 0
M  V30 5170 N 496.642 -0.504142 1.49319 0
M  V30 5171 C 497.87 -1.28256 1.62351 0
M  V30 5172 C 498.285 -1.86502 0.293682 0
M  V30 5173 O 497.642 -1.67678 -0.720449 0
M  V30 5174 C 497.693 -2.41507 2.68992 0
M  V30 5175 O 497.414 -1.85656 3.96817 0
M  V30 5176 C 498.915 -3.32929 2.927 0
M  V30 5177 H 496.135 -0.389115 0.546654 0
M  V30 5178 H 498.679 -0.605531 1.95329 0
M  V30 5179 H 496.834 -3.05046 2.38801 0
M  V30 5180 H 497.248 -2.59981 4.55533 0
M  V30 5181 H 498.722 -4.0868 3.71058 0
M  V30 5182 H 499.199 -3.89733 2.02496 0
M  V30 5183 H 499.805 -2.75158 3.24296 0
M  V30 5184 N 498.12 -1.38341 -0.754957 0
M  V30 5185 C 499.03 -1.3769 -1.89944 0
M  V30 5186 C 500.046 -0.274194 -1.71826 0
M  V30 5187 O 501.222 -0.512391 -1.94773 0
M  V30 5188 C 498.287 -1.19938 -3.25293 0
M  V30 5189 C 497.348 -2.40001 -3.55946 0
M  V30 5190 C 496.581 -2.23087 -4.84838 0
M  V30 5191 O 496.804 -1.22386 -5.57116 0
M  V30 5192 O 495.738 -3.11646 -5.14937 0
M  V30 5193 H 499.564 -2.3412 -1.93446 0
M  V30 5194 H 497.149 -1.19246 -0.900044 0
M  V30 5195 H 499.031 -1.12093 -4.06218 0
M  V30 5196 H 497.706 -0.265919 -3.22606 0
M  V30 5197 H 496.613 -2.53421 -2.75188 0
M  V30 5198 H 497.946 -3.31973 -3.63394 0
M  V30 5199 N 499.598 0.982988 -1.23187 0
M  V30 5200 C 500.546 2.09616 -1.00817 0
M  V30 5201 C 501.54 1.6932 0.0519995 0
M  V30 5202 O 502.746 1.79715 -0.101284 0
M  V30 5203 H 499.121 0.685628 -0.308899 0
M  V30 5204 H 501.092 2.25652 -1.95253 0
M  V30 5205 C 499.841 3.42249 -0.613243 0
M  V30 5206 H 499.164 3.73705 -1.42073 0
M  V30 5207 H 500.604 4.21086 -0.496208 0
M  V30 5208 C 499.063 3.30002 0.678233 0
M  V30 5209 O 499.593 3.6263 1.72807 0
M  V30 5210 N 497.799 2.83164 0.653165 0
M  V30 5211 H 497.346 2.56811 -0.201492 0
M  V30 5212 H 497.304 2.75352 1.51752 0
M  V30 5213 N 501.076 1.04316 1.18135 0
M  V30 5214 C 502.322 0.749128 1.88457 0
M  V30 5215 C 502.655 -0.72149 1.803 0
M  V30 5216 O 501.93 -1.52676 1.205 0
M  V30 5217 C 502.213 1.21905 3.38838 0
M  V30 5218 C 502.066 2.75195 3.55792 0
M  V30 5219 C 503.385 0.811085 4.32561 0
M  V30 5220 H 500.504 0.273611 0.684329 0
M  V30 5221 H 503.146 1.29561 1.38975 0
M  V30 5222 H 501.296 0.754137 3.8111 0
M  V30 5223 H 502.968 3.29743 3.22595 0
M  V30 5224 H 501.211 3.14899 2.98364 0
M  V30 5225 H 501.882 3.03135 4.61317 0
M  V30 5226 H 504.358 1.21118 3.98082 0
M  V30 5227 H 503.234 1.16761 5.36338 0
M  V30 5228 H 503.495 -0.285596 4.41177 0
M  V30 5229 N 502.554 -1.34406 0.822964 0
M  V30 5230 C 503.8 -1.98578 0.411666 0
M  V30 5231 C 504.133 -1.65093 -1.02264 0
M  V30 5232 O 503.408 -0.92258 -1.71227 0
M  V30 5233 C 503.691 -3.54823 0.614235 0
M  V30 5234 C 503.544 -3.9805 2.09466 0
M  V30 5235 C 504.863 -4.40071 0.050221 0
M  V30 5236 H 501.982 -0.721355 0.151047 0
M  V30 5237 H 504.624 -1.59301 1.03554 0
M  V30 5238 H 502.774 -3.88411 0.0831774 0
M  V30 5239 H 504.446 -3.74795 2.68936 0
M  V30 5240 H 502.689 -3.4836 2.5851 0
M  V30 5241 H 503.36 -5.06819 2.18721 0
M  V30 5242 H 505.836 -4.13037 0.503953 0
M  V30 5243 H 504.712 -5.48452 0.221759 0
M  V30 5244 H 504.973 -4.29576 -1.04482 0
M  V30 5245 N 504.032 -0.577932 -1.46621 0
M  V30 5246 C 504.98 0.170882 -2.31971 0
M  V30 5247 C 505.974 0.889086 -1.44193 0
M  V30 5248 O 507.18 0.808017 -1.60845 0
M  V30 5249 H 503.555 0.0739763 -0.748353 0
M  V30 5250 H 505.526 -0.567856 -2.92947 0
M  V30 5251 C 504.275 1.17438 -3.27267 0
M  V30 5252 H 503.598 0.63116 -3.94787 0
M  V30 5253 H 505.038 1.66882 -3.89778 0
M  V30 5254 C 503.497 2.23292 -2.52274 0
M  V30 5255 O 504.027 3.30567 -2.28229 0
M  V30 5256 N 502.233 1.97772 -2.12919 0
M  V30 5257 H 501.78 1.10545 -2.32675 0
M  V30 5258 H 501.738 2.68809 -1.63062 0
M  V30 5259 N 505.51 1.54411 -0.315457 0
M  V30 5260 C 506.44 2.27002 0.547039 0
M  V30 5261 C 507.421 1.27492 1.12605 0
M  V30 5262 O 508.606 1.5629 1.15269 0
M  V30 5263 C 505.736 3.02171 1.71201 0
M  V30 5264 C 504.69 4.0895 1.26268 0
M  V30 5265 C 504.016 4.71915 2.51396 0
M  V30 5266 C 505.316 5.20891 0.383419 0
M  V30 5267 H 507.01 2.99343 -0.0584517 0
M  V30 5268 H 504.556 1.4397 -0.0295527 0
M  V30 5269 H 506.509 3.51681 2.32161 0
M  V30 5270 H 505.233 2.27433 2.34397 0
M  V30 5271 H 503.892 3.60312 0.676062 0
M  V30 5272 H 503.54 3.93801 3.12937 0
M  V30 5273 H 503.24 5.44039 2.22026 0
M  V30 5274 H 504.764 5.24195 3.13133 0
M  V30 5275 H 506.178 5.66206 0.899082 0
M  V30 5276 H 504.575 5.99821 0.182857 0
M  V30 5277 H 505.645 4.81324 -0.587821 0
M  V30 5278 N 506.988 0.0434614 1.5754 0
M  V30 5279 C 508.218 -0.640905 1.96408 0
M  V30 5280 C 508.626 -1.65365 0.919297 0
M  V30 5281 O 507.969 -1.83395 -0.105795 0
M  V30 5282 C 508.031 -1.39141 3.31482 0
M  V30 5283 C 507.695 -0.535375 4.53853 0
M  V30 5284 C 508.692 0.195335 5.19533 0
M  V30 5285 C 506.377 -0.468564 5.0011 0
M  V30 5286 C 508.371 0.981377 6.298 0
M  V30 5287 C 506.058 0.321171 6.10255 0
M  V30 5288 C 507.056 1.04484 6.74961 0
M  V30 5289 O 506.744 1.8216 7.8299 0
M  V30 5290 H 506.476 -0.180584 0.651433 0
M  V30 5291 H 509.03 0.103848 2.05137 0
M  V30 5292 H 507.26 -2.18162 3.19284 0
M  V30 5293 H 508.949 -1.96526 3.55151 0
M  V30 5294 H 509.715 0.15314 4.84758 0
M  V30 5295 H 505.594 -1.02142 4.49542 0
M  V30 5296 H 509.138 1.54674 6.80237 0
M  V30 5297 H 505.035 0.365032 6.44467 0
M  V30 5298 H 505.803 1.74289 7.99728 0
M  V30 5299 N 508.466 -1.55915 -0.229846 0
M  V30 5300 C 509.398 -1.88209 -1.30805 0
M  V30 5301 C 510.411 -0.769672 -1.43457 0
M  V30 5302 O 511.6 -1.04792 -1.44502 0
M  V30 5303 C 508.7 -2.06829 -2.68468 0
M  V30 5304 C 507.873 -3.37798 -2.77869 0
M  V30 5305 C 506.932 -3.45952 -3.96489 0
M  V30 5306 O 505.958 -4.19043 -3.85216 0
M  V30 5307 N 507.16 -2.76488 -5.10426 0
M  V30 5308 H 509.925 -2.81286 -1.03431 0
M  V30 5309 H 507.486 -1.5636 -0.41991 0
M  V30 5310 H 509.478 -2.09608 -3.46189 0
M  V30 5311 H 508.048 -1.20416 -2.88477 0
M  V30 5312 H 507.268 -3.4719 -1.86689 0
M  V30 5313 H 508.556 -4.24091 -2.81113 0
M  V30 5314 H 507.954 -2.16868 -5.2248 0
M  V30 5315 H 506.511 -2.84938 -5.8622 0
M  V30 5316 N 509.944 0.496216 -1.49584 0
M  V30 5317 C 510.892 1.61805 -1.67098 0
M  V30 5318 C 511.886 1.60667 -0.536877 0
M  V30 5319 O 513.092 1.65118 -0.716654 0
M  V30 5320 H 509.467 0.53646 -0.526986 0
M  V30 5321 H 511.438 1.44187 -2.61252 0
M  V30 5322 C 510.187 2.99912 -1.75921 0
M  V30 5323 H 509.51 3.01496 -2.62565 0
M  V30 5324 H 510.95 3.77931 -1.92209 0
M  V30 5325 C 509.409 3.33092 -0.505088 0
M  V30 5326 O 509.939 4.00019 0.367085 0
M  V30 5327 N 508.145 2.88278 -0.366599 0
M  V30 5328 H 507.692 2.33989 -1.07735 0
M  V30 5329 H 507.65 3.10846 0.47142 0
M  V30 5330 N 511.423 1.38739 0.74761 0
M  V30 5331 C 512.653 1.3832 1.53464 0
M  V30 5332 C 513.061 -0.0273464 1.8918 0
M  V30 5333 O 512.404 -1.00588 1.53713 0
M  V30 5334 C 512.466 2.18007 2.85855 0
M  V30 5335 C 512.13 3.66762 2.72644 0
M  V30 5336 C 513.127 4.60124 2.42037 0
M  V30 5337 C 510.812 4.10193 2.89909 0
M  V30 5338 C 512.806 5.94897 2.28859 0
M  V30 5339 C 510.493 5.45045 2.7635 0
M  V30 5340 C 511.491 6.37211 2.45869 0
M  V30 5341 O 511.179 7.69581 2.3238 0
M  V30 5342 H 510.911 0.474718 0.481268 0
M  V30 5343 H 513.465 1.83012 0.932518 0
M  V30 5344 H 511.695 1.68043 3.48279 0
M  V30 5345 H 513.384 2.09921 3.47402 0
M  V30 5346 H 514.15 4.27874 2.28361 0
M  V30 5347 H 510.029 3.38797 3.1263 0
M  V30 5348 H 513.573 6.66802 2.04989 0
M  V30 5349 H 509.47 5.76889 2.89601 0
M  V30 5350 H 510.238 7.80169 2.47546 0
M  V30 5351 N 512.901 -0.976442 1.23707 0
M  V30 5352 C 514.126 -1.75875 1.09922 0
M  V30 5353 C 514.551 -1.84911 -0.34489 0
M  V30 5354 O 513.909 -1.31363 -1.24954 0
M  V30 5355 C 513.957 -3.16179 1.73388 0
M  V30 5356 O 513.061 -4.00124 0.99871 0
M  V30 5357 H 512.402 -0.540954 0.385052 0
M  V30 5358 H 514.932 -1.22546 1.6384 0
M  V30 5359 H 514.942 -3.66741 1.78788 0
M  V30 5360 H 513.617 -3.08917 2.78466 0
M  V30 5361 H 512.194 -3.58624 1.02193 0
M  V30 5362 N 514.379 -1.04941 -1.1758 0
M  V30 5363 C 515.289 -0.658826 -2.25159 0
M  V30 5364 C 516.305 0.318941 -1.71052 0
M  V30 5365 O 517.481 0.171669 -2.00667 0
M  V30 5366 C 514.546 -0.0369522 -3.4668 0
M  V30 5367 C 513.607 -1.06484 -4.15884 0
M  V30 5368 C 512.84 -0.472551 -5.31604 0
M  V30 5369 O 513.063 0.718736 -5.65854 0
M  V30 5370 O 511.997 -1.20557 -5.89703 0
M  V30 5371 H 515.823 -1.55533 -2.60851 0
M  V30 5372 H 513.408 -0.820819 -1.24832 0
M  V30 5373 H 515.29 0.308784 -4.20267 0
M  V30 5374 H 513.965 0.833238 -3.12792 0
M  V30 5375 H 512.872 -1.46253 -3.44327 0
M  V30 5376 H 514.205 -1.9061 -4.53794 0
M  V30 5377 N 515.857 1.33968 -0.830081 0
M  V30 5378 C 516.787 2.31911 -0.271911 0
M  V30 5379 C 517.768 1.58571 0.61556 0
M  V30 5380 O 518.953 1.86514 0.540946 0
M  V30 5381 C 516.083 3.42737 0.561146 0
M  V30 5382 C 515.037 4.27383 -0.229789 0
M  V30 5383 C 514.363 5.29742 0.726463 0
M  V30 5384 C 515.663 5.02 -1.44197 0
M  V30 5385 H 517.357 2.78844 -1.09025 0
M  V30 5386 H 514.903 1.34061 -0.52571 0
M  V30 5387 H 516.856 4.10276 0.961867 0
M  V30 5388 H 515.58 2.94471 1.41261 0
M  V30 5389 H 514.239 3.61456 -0.611964 0
M  V30 5390 H 513.887 4.77736 1.57408 0
M  V30 5391 H 513.587 5.87255 0.20142 0
M  V30 5392 H 515.111 6.00149 1.12489 0
M  V30 5393 H 516.525 5.62355 -1.11488 0
M  V30 5394 H 514.922 5.69122 -1.90317 0
M  V30 5395 H 515.992 4.31281 -2.2164 0
M  V30 5396 N 517.335 0.585699 1.46312 0
M  V30 5397 C 518.584 0.0701192 2.01578 0
M  V30 5398 C 518.897 -1.29889 1.46247 0
M  V30 5399 O 520.103 -1.90598 1.93351 0
M  V30 5400 C 518.559 0.0747499 3.59822 0
M  V30 5401 C 518.167 1.44226 4.24149 0
M  V30 5402 C 519.911 -0.38673 4.22735 0
M  V30 5403 C 517.818 1.40446 5.74481 0
M  V30 5404 H 516.748 0.0224441 0.753666 0
M  V30 5405 H 519.399 0.737789 1.68015 0
M  V30 5406 H 517.781 -0.659144 3.90476 0
M  V30 5407 H 518.955 2.19612 4.05101 0
M  V30 5408 H 517.27 1.84401 3.73343 0
M  V30 5409 H 519.867 -0.433853 5.32937 0
M  V30 5410 H 520.21 -1.40489 3.91878 0
M  V30 5411 H 520.743 0.293195 3.96718 0
M  V30 5412 H 517.482 2.39952 6.10003 0
M  V30 5413 H 517.002 0.692845 5.95785 0
M  V30 5414 H 518.681 1.11865 6.37256 0
M  V30 5415 N 518.813 -1.54241 0.323641 0
M  V30 5416 C 520.224 -1.85975 -0.164405 0
M  V30 5417 C 520.575 -1.24529 -1.51615 0
M  V30 5418 O 519.7 -0.551351 -2.09258 0
M  V30 5419 C 520.295 -3.37424 -0.305091 0
M  V30 5420 C 518.854 -3.69107 -0.737358 0
M  V30 5421 C 518.001 -2.76942 0.140884 0
M  V30 5422 H 520.952 -1.49088 0.543922 0
M  V30 5423 H 520.973 -3.63147 -1.13598 0
M  V30 5424 H 520.485 -3.82116 0.678876 0
M  V30 5425 H 518.586 -3.29947 -1.73107 0
M  V30 5426 H 518.699 -4.76035 -0.541053 0
M  V30 5427 H 517.063 -2.51795 -0.383572 0
M  V30 5428 H 517.846 -3.24461 1.12162 0
M  V30 5429 N 520.291 -0.0518155 -1.57515 0
M  V30 5430 C 521.539 0.620595 -1.92336 0
M  V30 5431 C 521.86 1.71345 -0.930907 0
M  V30 5432 O 521.13 1.95885 0.0241341 0
M  V30 5433 H 519.71 0.232226 -0.709986 0
M  V30 5434 H 522.372 -0.104969 -1.94617 0
M  V30 5435 H 521.468 1.05879 -2.93592 0
M  V30 5436 N 521.769 1.56035 0.221574 0
M  V30 5437 C 522.997 1.8313 0.962864 0
M  V30 5438 C 523.412 0.630934 1.77946 0
M  V30 5439 O 522.769 -0.400519 1.78051 0
M  V30 5440 C 522.82 3.08742 1.88045 0
M  V30 5441 O 522.541 4.24147 1.09686 0
M  V30 5442 C 524.042 3.48824 2.73563 0
M  V30 5443 H 521.262 0.608775 0.282194 0
M  V30 5444 H 523.806 2.03124 0.23681 0
M  V30 5445 H 521.961 2.90723 2.56045 0
M  V30 5446 H 522.375 4.95505 1.71974 0
M  V30 5447 H 523.849 4.39752 3.3365 0
M  V30 5448 H 524.326 2.70575 3.45956 0
M  V30 5449 H 524.932 3.69282 2.10976 0
M  V30 5450 N 523.247 -0.488276 1.49845 0
M  V30 5451 C 524.475 -1.26527 1.63702 0
M  V30 5452 C 524.89 -1.8618 0.313447 0
M  V30 5453 O 524.247 -1.68432 -0.702624 0
M  V30 5454 C 524.298 -2.3864 2.71538 0
M  V30 5455 O 524.019 -1.81437 3.98763 0
M  V30 5456 C 525.52 -3.29805 2.96215 0
M  V30 5457 H 522.74 -0.383295 0.55075 0
M  V30 5458 H 525.284 -0.584779 1.95961 0
M  V30 5459 H 523.439 -3.02496 2.42023 0
M  V30 5460 H 523.853 -2.55135 4.58265 0
M  V30 5461 H 525.327 -4.04722 3.75372 0
M  V30 5462 H 525.804 -3.87563 2.06619 0
M  V30 5463 H 526.41 -2.71703 3.27196 0
M  V30 5464 N 524.725 -1.39134 -0.740242 0
M  V30 5465 C 525.971 -1.36273 -1.50192 0
M  V30 5466 C 526.304 0.0430136 -1.94152 0
M  V30 5467 O 525.579 1.00691 -1.66408 0
M  V30 5468 C 525.862 -2.33041 -2.74525 0
M  V30 5469 C 525.715 -3.82535 -2.36617 0
M  V30 5470 C 527.034 -2.27723 -3.76604 0
M  V30 5471 H 524.153 -0.496323 -0.544823 0
M  V30 5472 H 526.795 -1.70085 -0.846815 0
M  V30 5473 H 524.945 -2.04337 -3.30422 0
M  V30 5474 H 526.617 -4.21967 -1.86391 0
M  V30 5475 H 524.86 -3.99565 -1.68909 0
M  V30 5476 H 525.531 -4.45723 -3.2563 0
M  V30 5477 H 528.007 -2.53091 -3.30279 0
M  V30 5478 H 526.883 -2.97519 -4.61274 0
M  V30 5479 H 527.144 -1.28049 -4.2315 0
M  V30 5480 N 526.204 0.969867 -1.24223 0
M  V30 5481 C 527.452 1.70918 -1.0785 0
M  V30 5482 C 527.773 1.91186 0.383763 0
M  V30 5483 O 527.043 1.48806 1.27411 0
M  V30 5484 H 525.623 0.633334 -0.396103 0
M  V30 5485 H 528.285 1.16689 -1.56108 0
M  V30 5486 H 527.381 2.69455 -1.57482 0
M  V30 5487 N 527.682 1.05563 1.17022 0
M  V30 5488 C 528.928 0.769074 1.87652 0
M  V30 5489 C 529.261 -0.702326 1.81055 0
M  V30 5490 O 528.536 -1.5139 1.22112 0
M  V30 5491 C 528.819 1.25492 3.37526 0
M  V30 5492 C 528.672 2.78953 3.52853 0
M  V30 5493 C 529.991 0.856919 4.31677 0
M  V30 5494 H 527.11 0.280854 0.681388 0
M  V30 5495 H 529.752 1.31027 1.37593 0
M  V30 5496 H 527.902 0.794516 3.80289 0
M  V30 5497 H 529.574 3.33146 3.19079 0
M  V30 5498 H 527.817 3.18046 2.95007 0
M  V30 5499 H 528.488 3.08011 4.58076 0
M  V30 5500 H 530.964 1.25334 3.96775 0
M  V30 5501 H 529.84 1.22443 5.35069 0
M  V30 5502 H 530.101 -0.238787 4.41455 0
M  V30 5503 N 529.16 -1.33526 0.837174 0
M  V30 5504 C 530.09 -2.31764 0.284206 0
M  V30 5505 C 531.071 -1.58896 -0.607142 0
M  V30 5506 O 532.256 -1.86798 -0.531047 0
M  V30 5507 C 529.386 -3.43029 -0.542962 0
M  V30 5508 C 528.34 -4.27255 0.252451 0
M  V30 5509 C 527.666 -5.3012 -0.69836 0
M  V30 5510 C 528.966 -5.01229 1.46858 0
M  V30 5511 H 530.66 -2.78262 1.10502 0
M  V30 5512 H 528.206 -1.3378 0.532812 0
M  V30 5513 H 530.159 -4.1078 -0.940096 0
M  V30 5514 H 528.883 -2.95216 -1.39697 0
M  V30 5515 H 527.542 -3.61127 0.631124 0
M  V30 5516 H 527.19 -4.78564 -1.54872 0
M  V30 5517 H 526.89 -5.87353 -0.170274 0
M  V30 5518 H 528.414 -6.00737 -1.09305 0
M  V30 5519 H 529.828 -5.61756 1.14469 0
M  V30 5520 H 528.225 -5.68104 1.93333 0
M  V30 5521 H 529.295 -4.301 2.23924 0
M  V30 5522 N 530.638 -0.59345 -1.46 0
M  V30 5523 C 531.863 -0.0872365 -2.07216 0
M  V30 5524 C 532.288 1.2131 -1.43755 0
M  V30 5525 O 531.646 1.73528 -0.525152 0
M  V30 5526 C 531.694 0.0538197 -3.6056 0
M  V30 5527 O 530.798 1.10765 -3.97247 0
M  V30 5528 H 530.139 -0.0676598 -0.660544 0
M  V30 5529 H 532.669 -0.819445 -1.87473 0
M  V30 5530 H 532.679 0.256567 -4.07193 0
M  V30 5531 H 531.354 -0.895739 -4.0614 0
M  V30 5532 H 529.931 0.882501 -3.62307 0
M  V30 5533 N 532.116 1.54067 -0.331816 0
M  V30 5534 C 533.049 2.20886 0.573127 0
M  V30 5535 C 534.027 1.18876 1.10938 0
M  V30 5536 O 535.211 1.47649 1.17184 0
M  V30 5537 C 532.338 2.87706 1.78726 0
M  V30 5538 C 531.384 4.03505 1.38152 0
M  V30 5539 S 532.217 5.33919 0.41123 0
M  V30 5540 C 533.373 6.04236 1.63246 0
M  V30 5541 H 533.606 2.97299 0.00555737 0
M  V30 5542 H 531.139 1.53964 -0.115893 0
M  V30 5543 H 533.097 3.26825 2.48386 0
M  V30 5544 H 531.758 2.1108 2.32603 0
M  V30 5545 H 530.951 4.49152 2.28645 0
M  V30 5546 H 530.553 3.66102 0.764524 0
M  V30 5547 H 532.845 6.26917 2.56869 0
M  V30 5548 H 533.788 6.97546 1.218 0
M  V30 5549 H 534.196 5.34247 1.82318 0
M  V30 5550 N 533.594 0.0601682 1.57485 0
M  V30 5551 C 534.871 -0.651956 1.84415 0
M  V30 5552 C 535.251 -1.88498 0.950361 0
M  V30 5553 O 534.599 -2.28496 0.0136719 0
M  V30 5554 C 534.809 -1.00069 3.34346 0
M  V30 5555 C 536.157 -1.37915 4.01578 0
M  V30 5556 O 537.181 -1.09277 3.39024 0
M  V30 5557 O 536.04 -1.91399 5.11887 0
M  V30 5558 H 533.134 -0.322668 0.761455 0
M  V30 5559 H 535.68 0.0902159 1.6946 0
M  V30 5560 H 534.452 -0.124463 3.91102 0
M  V30 5561 H 534.075 -1.80001 3.54521 0
M  V30 5562 N 535.072 -1.5615 -0.213296 0
M  V30 5563 C 536.297 -1.83986 -0.957282 0
M  V30 5564 C 536.722 -0.641526 -1.76822 0
M  V30 5565 O 536.08 0.409722 -1.7661 0
M  V30 5566 C 536.128 -3.09889 -1.84393 0
M  V30 5567 O 535.232 -2.89163 -2.94038 0
M  V30 5568 H 534.573 -0.606357 -0.270605 0
M  V30 5569 H 537.103 -2.03369 -0.224111 0
M  V30 5570 H 537.113 -3.40209 -2.25215 0
M  V30 5571 H 535.788 -3.96735 -1.24795 0
M  V30 5572 H 534.365 -2.70097 -2.57103 0
M  V30 5573 N 536.55 0.480323 -1.50102 0
M  V30 5574 C 537.775 1.26126 -1.64642 0
M  V30 5575 C 538.2 1.85257 -0.325823 0
M  V30 5576 O 537.558 1.66854 0.709194 0
M  V30 5577 C 537.606 2.35243 -2.73301 0
M  V30 5578 O 536.71 3.39646 -2.33911 0
M  V30 5579 H 536.051 0.371463 -0.550374 0
M  V30 5580 H 538.581 0.572696 -1.96421 0
M  V30 5581 H 538.591 2.80695 -2.96098 0
M  V30 5582 H 537.266 1.91574 -3.6915 0
M  V30 5583 H 535.843 2.99969 -2.21525 0
M  V30 5584 N 538.028 1.39524 0.732853 0
M  V30 5585 C 538.976 1.38563 1.86824 0
M  V30 5586 C 539.97 0.268467 1.67259 0
M  V30 5587 O 541.176 0.438613 1.74574 0
M  V30 5588 H 537.551 0.432737 0.615014 0
M  V30 5589 H 539.522 2.34328 1.84751 0
M  V30 5590 C 538.271 1.2481 3.24527 0
M  V30 5591 H 537.594 2.10044 3.40179 0
M  V30 5592 H 539.034 1.28194 4.04156 0
M  V30 5593 C 537.493 -0.0432825 3.36872 0
M  V30 5594 O 538.023 -1.01268 3.88726 0
M  V30 5595 N 536.229 -0.107055 2.90403 0
M  V30 5596 H 535.776 0.682512 2.48394 0
M  V30 5597 H 535.734 -0.970618 2.99042 0
M  V30 5598 N 539.506 -0.963266 1.24736 0
M  V30 5599 C 540.752 -1.70933 1.09131 0
M  V30 5600 C 541.085 -1.90676 -0.368273 0
M  V30 5601 O 540.36 -1.47147 -1.27193 0
M  V30 5602 C 540.643 -3.09744 1.83658 0
M  V30 5603 C 540.496 -2.97465 3.37394 0
M  V30 5604 C 541.815 -4.09483 1.61282 0
M  V30 5605 H 538.934 -0.620398 0.397838 0
M  V30 5606 H 541.576 -1.12028 1.53459 0
M  V30 5607 H 539.726 -3.60031 1.4598 0
M  V30 5608 H 541.398 -2.54571 3.84696 0
M  V30 5609 H 539.641 -2.33576 3.65547 0
M  V30 5610 H 540.312 -3.95822 3.84745 0
M  V30 5611 H 542.788 -3.68073 1.94066 0
M  V30 5612 H 541.664 -5.04666 2.15878 0
M  V30 5613 H 541.925 -4.38639 0.552102 0
M  V30 5614 N 540.985 -1.06182 -1.16461 0
M  V30 5615 C 541.915 -0.692861 -2.22984 0
M  V30 5616 C 542.896 0.314122 -1.67174 0
M  V30 5617 O 544.081 0.189499 -1.93273 0
M  V30 5618 C 541.211 -0.07732 -3.47214 0
M  V30 5619 C 540.165 -1.01015 -4.15909 0
M  V30 5620 C 539.491 -0.257973 -5.34077 0
M  V30 5621 C 540.791 -2.33868 -4.67015 0
M  V30 5622 H 542.485 -1.58343 -2.54102 0
M  V30 5623 H 540.031 -0.76279 -1.22137 0
M  V30 5624 H 541.984 0.19266 -4.20959 0
M  V30 5625 H 540.708 0.848254 -3.15392 0
M  V30 5626 H 539.367 -1.26486 -3.44088 0
M  V30 5627 H 539.015 0.670684 -4.98509 0
M  V30 5628 H 538.715 -0.879638 -5.80979 0
M  V30 5629 H 540.239 0.00448788 -6.106 0
M  V30 5630 H 541.653 -2.1279 -5.32347 0
M  V30 5631 H 540.05 -2.91522 -5.24533 0
M  V30 5632 H 541.12 -2.97019 -3.83286 0
M  V30 5633 N 542.463 1.3308 -0.844243 0
M  V30 5634 C 543.395 2.27954 -0.238671 0
M  V30 5635 C 544.408 1.51978 0.583665 0
M  V30 5636 O 545.597 1.73731 0.409857 0
M  V30 5637 C 542.697 3.31963 0.682185 0
M  V30 5638 C 541.87 4.37281 -0.101998 0
M  V30 5639 C 540.929 5.20928 0.743022 0
M  V30 5640 O 539.955 5.68914 0.180285 0
M  V30 5641 N 541.157 5.42738 2.0595 0
M  V30 5642 H 543.922 2.8056 -1.05386 0
M  V30 5643 H 541.483 1.4583 -0.70322 0
M  V30 5644 H 543.475 3.84828 1.25259 0
M  V30 5645 H 542.045 2.79594 1.39808 0
M  V30 5646 H 541.265 3.84843 -0.853802 0
M  V30 5647 H 542.553 5.04746 -0.641015 0
M  V30 5648 H 541.951 5.05463 2.54016 0
M  V30 5649 H 540.508 5.98639 2.57827 0
M  V30 5650 N 543.941 0.601185 1.45683 0
M  V30 5651 C 544.871 -0.108824 2.33246 0
M  V30 5652 C 545.852 -0.865223 1.46451 0
M  V30 5653 O 547.037 -0.83704 1.75235 0
M  V30 5654 C 544.167 -1.11101 3.2905 0
M  V30 5655 C 543.121 -0.468244 4.25431 0
M  V30 5656 C 542.447 -1.57822 5.10878 0
M  V30 5657 C 543.747 0.606469 5.18767 0
M  V30 5658 H 545.441 0.622306 2.92861 0
M  V30 5659 H 542.987 0.300714 1.40825 0
M  V30 5660 H 544.94 -1.61622 3.89174 0
M  V30 5661 H 543.664 -1.87265 2.67581 0
M  V30 5662 H 542.323 0.0160484 3.66596 0
M  V30 5663 H 541.971 -2.32998 4.45781 0
M  V30 5664 H 541.671 -1.15369 5.76163 0
M  V30 5665 H 543.195 -2.08583 5.73869 0
M  V30 5666 H 544.609 0.185589 5.73 0
M  V30 5667 H 543.006 0.952381 5.92494 0
M  V30 5668 H 544.076 1.48559 4.61582 0
M  V30 5669 N 545.419 -1.53889 0.339982 0
M  V30 5670 C 546.668 -2.00035 -0.258604 0
M  V30 5671 C 546.981 -1.23179 -1.51942 0
M  V30 5672 O 548.187 -1.59784 -2.19503 0
M  V30 5673 C 546.643 -3.56249 -0.511359 0
M  V30 5674 C 546.251 -4.41957 0.733349 0
M  V30 5675 C 547.995 -4.1082 -1.069 0
M  V30 5676 C 545.902 -5.89673 0.451591 0
M  V30 5677 H 544.832 -0.747284 -0.10041 0
M  V30 5678 H 547.483 -1.77776 0.454758 0
M  V30 5679 H 545.865 -3.7456 -1.28533 0
M  V30 5680 H 547.039 -4.35421 1.50815 0
M  V30 5681 H 545.354 -3.9836 1.21237 0
M  V30 5682 H 547.951 -5.18789 -1.2947 0
M  V30 5683 H 548.294 -3.63817 -2.02343 0
M  V30 5684 H 548.827 -3.96205 -0.355817 0
M  V30 5685 H 545.566 -6.40903 1.37565 0
M  V30 5686 H 545.086 -5.99122 -0.285193 0
M  V30 5687 H 546.765 -6.46965 0.0675067 0
M  V30 5688 N 546.897 -0.0685191 -1.57451 0
M  V30 5689 C 548.143 0.602239 -1.93652 0
M  V30 5690 C 548.476 1.6946 -0.948526 0
M  V30 5691 O 547.751 1.94487 0.022782 0
M  V30 5692 C 548.034 1.18223 -3.4014 0
M  V30 5693 C 547.887 0.0967431 -4.49696 0
M  V30 5694 C 549.206 2.08872 -3.87377 0
M  V30 5695 H 546.325 0.217453 -0.70419 0
M  V30 5696 H 548.967 -0.133821 -1.89528 0
M  V30 5697 H 547.117 1.80953 -3.43785 0
M  V30 5698 H 548.789 -0.536155 -4.58174 0
M  V30 5699 H 547.032 -0.573063 -4.29998 0
M  V30 5700 H 547.703 0.542894 -5.49324 0
M  V30 5701 H 550.179 1.56081 -3.85717 0
M  V30 5702 H 549.055 2.46389 -4.90493 0
M  V30 5703 H 549.316 2.99572 -3.25129 0
M  V30 5704 N 548.375 1.56261 0.205012 0
M  V30 5705 C 549.652 1.70856 0.952233 0
M  V30 5706 C 550.032 0.620501 2.01775 0
M  V30 5707 O 549.38 -0.370035 2.25484 0
M  V30 5708 C 549.59 3.12807 1.54767 0
M  V30 5709 C 550.938 3.72733 2.0336 0
M  V30 5710 O 551.962 3.15873 1.64629 0
M  V30 5711 O 550.821 4.72501 2.746 0
M  V30 5712 H 547.915 0.696496 0.445895 0
M  V30 5713 H 550.461 1.6857 0.195489 0
M  V30 5714 H 549.233 3.83465 0.779132 0
M  V30 5715 H 548.856 3.1928 2.36951 0
M  V30 5716 N 549.853 -0.472356 1.50355 0
M  V30 5717 C 550.816 -1.5529 1.68576 0
M  V30 5718 C 551.816 -1.50863 0.556511 0
M  V30 5719 O 553.006 -1.53505 0.823516 0
M  V30 5720 C 550.138 -2.94921 1.70981 0
M  V30 5721 H 551.331 -1.40451 2.64978 0
M  V30 5722 H 548.884 -0.698645 1.39816 0
M  V30 5723 H 549.619 -3.15204 0.762675 0
M  V30 5724 H 549.404 -2.99541 2.53017 0
M  V30 5725 H 550.894 -3.73372 1.87037 0
M  V30 5726 N 551.331 -1.39911 -0.725443 0
M  V30 5727 C 552.561 -1.40744 -1.51244 0
M  V30 5728 C 552.969 -0.00275403 -1.892 0
M  V30 5729 O 552.312 0.981299 -1.55294 0
M  V30 5730 C 552.374 -2.22527 -2.82351 0
M  V30 5731 C 552.038 -3.71053 -2.66774 0
M  V30 5732 C 553.035 -4.63916 -2.34686 0
M  V30 5733 C 550.72 -4.14753 -2.83347 0
M  V30 5734 C 552.714 -5.98463 -2.19366 0
M  V30 5735 C 550.401 -5.49372 -2.67644 0
M  V30 5736 C 551.399 -6.41042 -2.357 0
M  V30 5737 O 551.087 -7.73181 -2.20107 0
M  V30 5738 H 550.819 -0.482314 -0.473655 0
M  V30 5739 H 553.373 -1.84472 -0.903284 0
M  V30 5740 H 551.603 -1.73563 -3.45562 0
M  V30 5741 H 553.292 -2.15421 -3.44018 0
M  V30 5742 H 554.058 -4.31453 -2.21525 0
M  V30 5743 H 549.937 -3.43728 -3.072 0
M  V30 5744 H 553.481 -6.69979 -1.94354 0
M  V30 5745 H 549.378 -5.81424 -2.80387 0
M  V30 5746 H 550.146 -7.84008 -2.35103 0
M  V30 5747 N 552.809 0.956637 -1.25245 0
M  V30 5748 C 554.057 1.69764 -1.09657 0
M  V30 5749 C 554.378 1.91583 0.363464 0
M  V30 5750 O 553.648 1.50149 1.25825 0
M  V30 5751 H 552.228 0.629097 -0.402798 0
M  V30 5752 H 554.89 1.15026 -1.57337 0
M  V30 5753 H 553.986 2.67769 -1.60331 0
M  V30 5754 N 554.287 1.06798 1.15896 0
M  V30 5755 C 555.234 0.683314 2.20453 0
M  V30 5756 C 556.204 -0.32255 1.62938 0
M  V30 5757 O 557.389 -0.210276 1.89638 0
M  V30 5758 C 554.529 0.0813266 3.45004 0
M  V30 5759 C 553.642 1.13799 4.16742 0
M  V30 5760 C 552.777 0.501598 5.28826 0
M  V30 5761 C 551.816 1.54144 5.92373 0
M  V30 5762 N 550.953 0.928038 6.9594 0
M  V30 5763 H 555.793 1.57932 2.52708 0
M  V30 5764 H 553.33 0.789544 1.24115 0
M  V30 5765 H 555.288 -0.285274 4.16224 0
M  V30 5766 H 553.918 -0.77806 3.13283 0
M  V30 5767 H 552.97 1.62223 3.44075 0
M  V30 5768 H 554.282 1.92664 4.60089 0
M  V30 5769 H 553.436 0.0823162 6.06644 0
M  V30 5770 H 552.175 -0.318883 4.86656 0
M  V30 5771 H 551.18 1.97056 5.13273 0
M  V30 5772 H 552.405 2.3641 6.36621 0
M  V30 5773 H 550.351 0.12836 6.55874 0
M  V30 5774 H 550.268 1.65401 7.37685 0
M  V30 5775 H 551.536 0.534071 7.77668 0
M  V30 5776 N 555.766 -1.3263 0.851289 0
M  V30 5777 C 557.015 -1.96633 0.449267 0
M  V30 5778 C 557.328 -1.68131 -0.999562 0
M  V30 5779 O 558.534 -2.25845 -1.50685 0
M  V30 5780 C 556.99 -3.51946 0.752446 0
M  V30 5781 C 556.598 -3.89311 2.21678 0
M  V30 5782 C 558.342 -4.22437 0.417983 0
M  V30 5783 C 556.249 -5.37655 2.46336 0
M  V30 5784 H 555.179 -0.735888 0.164269 0
M  V30 5785 H 557.83 -1.51073 1.0416 0
M  V30 5786 H 556.212 -3.95899 0.0895858 0
M  V30 5787 H 557.386 -3.56378 2.92115 0
M  V30 5788 H 555.701 -3.31836 2.51543 0
M  V30 5789 H 558.298 -5.31549 0.579674 0
M  V30 5790 H 558.641 -4.11349 -0.640115 0
M  V30 5791 H 559.174 -3.84057 1.03659 0
M  V30 5792 H 555.913 -5.5376 3.50757 0
M  V30 5793 H 555.433 -5.72005 1.80473 0
M  V30 5794 H 557.112 -6.04695 2.30115 0
M  V30 5795 N 557.244 -0.608902 -1.45362 0
M  V30 5796 C 558.66 -0.272659 -1.57254 0
M  V30 5797 C 558.86 1.22477 -1.60005 0
M  V30 5798 O 557.916 2.00785 -1.53106 0
M  V30 5799 C 559.229 -0.944991 -2.85465 0
M  V30 5800 C 560.777 -0.921033 -2.99142 0
M  V30 5801 C 561.252 -1.5734 -4.30126 0
M  V30 5802 N 562.743 -1.53895 -4.36887 0
M  V30 5803 C 563.478 -2.01286 -5.36909 0
M  V30 5804 N 562.974 -2.56768 -6.43461 0
M  V30 5805 N 564.767 -1.92046 -5.28275 0
M  V30 5806 H 556.918 -1.58117 -1.4182 0
M  V30 5807 H 559.181 -0.662437 -0.678146 0
M  V30 5808 H 558.887 -1.99941 -2.89338 0
M  V30 5809 H 558.761 -0.469079 -3.74272 0
M  V30 5810 H 561.148 0.124846 -2.94836 0
M  V30 5811 H 561.229 -1.43522 -2.11743 0
M  V30 5812 H 560.873 -2.61862 -4.35191 0
M  V30 5813 H 560.803 -1.03422 -5.16344 0
M  V30 5814 H 563.294 -1.13366 -3.60495 0
M  V30 5815 H 563.607 -2.9072 -7.16032 0
M  V30 5816 H 561.952 -2.60808 -6.44208 0
M  V30 5817 H 565.143 -1.48439 -4.43941 0
M  V30 5818 H 565.316 -2.29293 -6.06077 0
M  V30 5819 N 558.722 1.53707 -0.348139 0
M  V30 5820 C 559.947 2.05877 0.250883 0
M  V30 5821 C 560.372 1.22115 1.43072 0
M  V30 5822 O 559.73 0.235986 1.79758 0
M  V30 5823 C 559.778 3.54886 0.639416 0
M  V30 5824 O 558.882 3.73948 1.73888 0
M  V30 5825 H 558.223 0.662754 0.040653 0
M  V30 5826 H 560.753 1.98303 -0.503685 0
M  V30 5827 H 560.763 3.97601 0.915295 0
M  V30 5828 H 559.438 4.153 -0.223386 0
M  V30 5829 H 558.015 3.43134 1.45991 0
M  V30 5830 N 560.2 0.0768682 1.57412 0
M  V30 5831 C 561.147 -0.888577 2.13009 0
M  V30 5832 C 562.117 -1.29198 1.0439 0
M  V30 5833 O 563.302 -1.37694 1.3208 0
M  V30 5834 C 560.442 -2.14899 2.70023 0
M  V30 5835 C 559.555 -1.79777 3.92816 0
M  V30 5836 C 558.69 -3.00467 4.38056 0
M  V30 5837 C 557.729 -2.61385 5.53484 0
M  V30 5838 N 556.866 -3.74851 5.93659 0
M  V30 5839 H 561.706 -0.407593 2.95199 0
M  V30 5840 H 559.243 -0.189534 1.45874 0
M  V30 5841 H 561.201 -2.88688 3.0119 0
M  V30 5842 H 559.831 -2.60529 1.9059 0
M  V30 5843 H 558.883 -0.960301 3.68079 0
M  V30 5844 H 560.195 -1.47027 4.76639 0
M  V30 5845 H 559.349 -3.82529 4.7091 0
M  V30 5846 H 558.088 -3.36413 3.53097 0
M  V30 5847 H 557.093 -1.77746 5.20275 0
M  V30 5848 H 558.318 -2.26603 6.40178 0
M  V30 5849 H 556.264 -4.1055 5.11649 0
M  V30 5850 H 556.181 -3.45887 6.72234 0
M  V30 5851 H 557.449 -4.57477 6.31138 0
M  V30 5852 N 561.678 -1.56367 -0.196722 0
M  V30 5853 C 562.924 -1.80796 -0.918725 0
M  V30 5854 C 563.257 -0.650645 -1.82976 0
M  V30 5855 O 562.532 0.348889 -1.91345 0
M  V30 5856 C 562.815 -3.15472 -1.73636 0
M  V30 5857 C 562.668 -4.41693 -0.85015 0
M  V30 5858 C 563.987 -3.46824 -2.70927 0
M  V30 5859 H 561.106 -0.657702 -0.332561 0
M  V30 5860 H 563.748 -1.89086 -0.186186 0
M  V30 5861 H 561.898 -3.08536 -2.36088 0
M  V30 5862 H 563.57 -4.60673 -0.240459 0
M  V30 5863 H 561.813 -4.33517 -0.156785 0
M  V30 5864 H 562.484 -5.32419 -1.45719 0
M  V30 5865 H 564.96 -3.54049 -2.18607 0
M  V30 5866 H 563.836 -4.4218 -3.25219 0
M  V30 5867 H 564.097 -2.70236 -3.49893 0
M  V30 5868 N 563.156 0.464375 -1.50603 0
M  V30 5869 C 564.066 1.58723 -1.72754 0
M  V30 5870 C 565.082 1.62925 -0.610844 0
M  V30 5871 O 566.258 1.8067 -0.889963 0
M  V30 5872 C 563.323 2.94897 -1.82309 0
M  V30 5873 C 562.384 3.0103 -3.06071 0
M  V30 5874 C 561.617 4.30708 -3.1516 0
M  V30 5875 O 561.84 5.2159 -2.30868 0
M  V30 5876 O 560.774 4.42571 -4.0794 0
M  V30 5877 H 564.6 1.42954 -2.67951 0
M  V30 5878 H 562.185 0.644579 -1.3478 0
M  V30 5879 H 564.067 3.75764 -1.90735 0
M  V30 5880 H 562.742 3.10851 -0.902967 0
M  V30 5881 H 561.649 2.19217 -3.03142 0
M  V30 5882 H 562.982 2.90014 -3.97684 0
M  V30 5883 N 564.634 1.40294 0.718013 0
M  V30 5884 C 565.564 1.43118 1.84498 0
M  V30 5885 C 566.545 0.292403 1.67568 0
M  V30 5886 O 567.73 0.500675 1.87635 0
M  V30 5887 C 564.86 1.29065 3.22427 0
M  V30 5888 C 563.814 2.40521 3.54025 0
M  V30 5889 C 563.14 2.11546 4.91073 0
M  V30 5890 C 564.44 3.82859 3.55269 0
M  V30 5891 H 566.134 2.37432 1.82391 0
M  V30 5892 H 563.68 1.14283 0.87609 0
M  V30 5893 H 565.633 1.29658 4.00957 0
M  V30 5894 H 564.357 0.312271 3.25104 0
M  V30 5895 H 563.016 2.39173 2.77834 0
M  V30 5896 H 562.664 1.12104 4.90348 0
M  V30 5897 H 562.364 2.86216 5.1318 0
M  V30 5898 H 563.888 2.13817 5.71939 0
M  V30 5899 H 565.302 3.86044 4.23843 0
M  V30 5900 H 563.699 4.57029 3.88902 0
M  V30 5901 H 564.769 4.12617 2.54706 0
M  V30 5902 N 566.112 -0.949982 1.2575 0
M  V30 5903 C 567.022 -2.08109 1.08295 0
M  V30 5904 C 568.038 -1.7399 0.0188181 0
M  V30 5905 O 569.214 -2.00187 0.220724 0
M  V30 5906 C 566.279 -3.39383 0.708534 0
M  V30 5907 C 565.34 -3.8734 1.85111 0
M  V30 5908 C 564.573 -5.12349 1.49447 0
M  V30 5909 O 564.796 -5.6905 0.392212 0
M  V30 5910 O 563.73 -5.5513 2.32624 0
M  V30 5911 H 567.556 -2.25738 2.03165 0
M  V30 5912 H 565.141 -1.06545 1.04731 0
M  V30 5913 H 567.023 -4.18277 0.512061 0
M  V30 5914 H 565.698 -3.23013 -0.210854 0
M  V30 5915 H 564.605 -3.09429 2.10248 0
M  V30 5916 H 565.938 -4.08216 2.74991 0
M  V30 5917 N 567.59 -1.07411 -1.15328 0
M  V30 5918 C 568.836 -0.798831 -1.86404 0
M  V30 5919 C 569.169 0.673433 -1.8215 0
M  V30 5920 O 568.444 1.49428 -1.24505 0
M  V30 5921 C 568.727 -1.30846 -3.35487 0
M  V30 5922 C 568.58 -2.84532 -3.4837 0
M  V30 5923 C 569.899 -0.925486 -4.30259 0
M  V30 5924 H 567.018 -0.291659 -0.676834 0
M  V30 5925 H 569.66 -1.332 -1.35491 0
M  V30 5926 H 567.81 -0.854916 -3.78977 0
M  V30 5927 H 569.482 -3.3818 -3.13739 0
M  V30 5928 H 567.725 -3.22699 -2.8991 0
M  V30 5929 H 568.396 -3.15259 -4.53118 0
M  V30 5930 H 570.872 -1.3163 -3.94731 0
M  V30 5931 H 569.748 -1.3094 -5.33053 0
M  V30 5932 H 570.009 0.168525 -4.41779 0
M  V30 5933 N 569.068 1.32177 -0.85831 0
M  V30 5934 C 570.484 1.49873 -0.548656 0
M  V30 5935 C 570.684 1.79278 0.919874 0
M  V30 5936 O 569.74 1.86451 1.70271 0
M  V30 5937 C 571.053 2.64043 -1.4388 0
M  V30 5938 C 572.601 2.77928 -1.43961 0
M  V30 5939 C 573.076 3.95182 -2.31506 0
M  V30 5940 N 574.567 4.0245 -2.29321 0
M  V30 5941 C 575.302 4.9242 -2.93786 0
M  V30 5942 N 574.798 5.87373 -3.67376 0
M  V30 5943 N 576.591 4.85572 -2.83155 0
M  V30 5944 H 568.742 1.11357 -1.80868 0
M  V30 5945 H 571.005 0.549175 -0.772729 0
M  V30 5946 H 570.711 2.49055 -2.48324 0
M  V30 5947 H 570.585 3.59912 -1.12885 0
M  V30 5948 H 572.972 2.92338 -0.402813 0
M  V30 5949 H 573.053 1.82762 -1.78974 0
M  V30 5950 H 572.697 3.81531 -3.35256 0
M  V30 5951 H 572.627 4.89633 -1.93823 0
M  V30 5952 H 575.118 3.34507 -1.75822 0
M  V30 5953 H 575.431 6.52728 -4.13722 0
M  V30 5954 H 573.776 5.87388 -3.71484 0
M  V30 5955 H 576.967 4.10363 -2.25211 0
M  V30 5956 H 577.14 5.55486 -3.33676 0
M  V30 5957 N 570.547 0.616602 1.45037 0
M  V30 5958 C 571.824 0.0469086 1.95544 0
M  V30 5959 C 572.204 -1.42345 1.55888 0
M  V30 5960 O 571.552 -2.13055 0.825824 0
M  V30 5961 C 571.762 0.254489 3.48071 0
M  V30 5962 C 573.11 0.140025 4.24369 0
M  V30 5963 O 574.134 0.185084 3.55719 0
M  V30 5964 O 572.993 0.0327034 5.4649 0
M  V30 5965 H 570.087 -0.0306051 0.826433 0
M  V30 5966 H 572.633 0.687293 1.55159 0
M  V30 5967 H 571.405 1.27532 3.69934 0
M  V30 5968 H 571.028 -0.42073 3.95368 0
M  V30 5969 N 572.025 -1.5352 0.356285 0
M  V30 5970 C 572.955 -2.28372 -0.486661 0
M  V30 5971 C 573.936 -1.30432 -1.09185 0
M  V30 5972 O 575.121 -1.59291 -1.11085 0
M  V30 5973 C 572.251 -3.06604 -1.63129 0
M  V30 5974 C 571.205 -4.12154 -1.15381 0
M  V30 5975 C 570.531 -4.78415 -2.38796 0
M  V30 5976 C 571.831 -5.21724 -0.245179 0
M  V30 5977 H 573.525 -2.99083 0.137797 0
M  V30 5978 H 571.071 -1.43841 0.0677134 0
M  V30 5979 H 573.024 -3.57712 -2.22755 0
M  V30 5980 H 571.748 -2.33568 -2.28284 0
M  V30 5981 H 570.407 -3.61978 -0.580294 0
M  V30 5982 H 570.055 -4.01959 -3.02387 0
M  V30 5983 H 569.755 -5.49734 -2.07524 0
M  V30 5984 H 571.279 -5.32313 -2.99125 0
M  V30 5985 H 572.693 -5.68391 -0.748646 0
M  V30 5986 H 571.09 -6.00095 -0.0237608 0
M  V30 5987 H 572.16 -4.79596 0.715229 0
M  V30 5988 N 573.503 -0.0852151 -1.57369 0
M  V30 5989 C 574.914 0.445428 -1.81309 0
M  V30 5990 C 575.265 1.68795 -1.00013 0
M  V30 5991 O 574.39 2.15211 -0.226573 0
M  V30 5992 C 574.985 0.814887 -3.28854 0
M  V30 5993 C 573.544 1.29032 -3.53592 0
M  V30 5994 C 572.691 0.282089 -2.75861 0
M  V30 5995 H 575.642 -0.310771 -1.55627 0
M  V30 5996 H 575.663 1.67524 -3.41637 0
M  V30 5997 H 575.175 -0.0896309 -3.87996 0
M  V30 5998 H 573.276 2.21289 -2.9977 0
M  V30 5999 H 573.389 1.25898 -4.62262 0
M  V30 6000 H 571.753 0.762182 -2.43029 0
M  V30 6001 H 572.536 -0.614936 -3.37748 0
M  V30 6002 N 574.981 1.5647 0.188427 0
M  V30 6003 C 575.891 1.98285 1.2538 0
M  V30 6004 C 576.907 0.891535 1.49424 0
M  V30 6005 O 578.083 1.19782 1.61908 0
M  V30 6006 C 575.148 2.31965 2.57669 0
M  V30 6007 C 574.209 3.54838 2.41638 0
M  V30 6008 C 573.442 3.86901 3.67618 0
M  V30 6009 O 573.665 3.20163 4.72072 0
M  V30 6010 O 572.599 4.80309 3.62749 0
M  V30 6011 H 576.425 2.89145 0.928912 0
M  V30 6012 H 574.01 1.44112 0.393955 0
M  V30 6013 H 575.892 2.54673 3.35737 0
M  V30 6014 H 574.567 1.44271 2.89771 0
M  V30 6015 H 573.474 3.37369 1.61658 0
M  V30 6016 H 574.807 4.43019 2.14465 0
M  V30 6017 N 576.459 -0.456382 1.50847 0
M  V30 6018 C 577.369 -1.57805 1.73594 0
M  V30 6019 C 578.385 -1.62599 0.619476 0
M  V30 6020 O 579.561 -1.80195 0.899532 0
M  V30 6021 C 576.626 -2.93926 1.8387 0
M  V30 6022 C 575.687 -2.99402 3.07663 0
M  V30 6023 C 574.92 -4.29031 3.1744 0
M  V30 6024 O 575.143 -5.20358 2.33631 0
M  V30 6025 O 574.077 -4.40401 4.10281 0
M  V30 6026 H 577.903 -1.41531 2.68705 0
M  V30 6027 H 575.488 -0.637422 1.3512 0
M  V30 6028 H 577.37 -3.74747 1.92725 0
M  V30 6029 H 576.045 -3.10368 0.91944 0
M  V30 6030 H 574.952 -2.17606 3.043 0
M  V30 6031 H 576.285 -2.87901 3.99216 0
M  V30 6032 N 577.937 -1.40673 -0.710563 0
M  V30 6033 C 578.867 -1.44095 -1.83736 0
M  V30 6034 C 579.848 -0.301286 -1.67411 0
M  V30 6035 O 581.033 -0.510618 -1.87367 0
M  V30 6036 C 578.163 -1.30773 -3.21738 0
M  V30 6037 C 577.117 -2.42395 -3.52745 0
M  V30 6038 C 576.443 -2.14147 -4.89944 0
M  V30 6039 C 577.743 -3.84738 -3.53234 0
M  V30 6040 H 579.437 -2.38396 -1.81129 0
M  V30 6041 H 576.983 -1.14746 -0.870017 0
M  V30 6042 H 578.936 -1.31783 -4.00264 0
M  V30 6043 H 577.66 -0.329507 -3.24934 0
M  V30 6044 H 576.319 -2.40643 -2.76562 0
M  V30 6045 H 575.967 -1.14703 -4.89747 0
M  V30 6046 H 575.667 -2.88934 -5.11655 0
M  V30 6047 H 577.191 -2.16848 -5.70797 0
M  V30 6048 H 578.605 -3.88286 -4.2179 0
M  V30 6049 H 577.002 -4.59085 -3.86473 0
M  V30 6050 H 578.072 -4.13962 -2.52514 0
M  V30 6051 N 579.415 0.9433 -1.26252 0
M  V30 6052 C 580.64 1.72898 -1.14547 0
M  V30 6053 C 581.065 1.85761 0.295743 0
M  V30 6054 O 580.423 1.3463 1.21427 0
M  V30 6055 C 580.471 3.11471 -1.8171 0
M  V30 6056 O 579.575 3.97336 -1.10445 0
M  V30 6057 H 578.916 0.530555 -0.399259 0
M  V30 6058 H 581.446 1.18159 -1.67032 0
M  V30 6059 H 581.456 3.61872 -1.88449 0
M  V30 6060 H 580.131 3.01425 -2.86558 0
M  V30 6061 H 578.708 3.55788 -1.11666 0
M  V30 6062 N 580.893 1.08022 1.14757 0
M  V30 6063 C 581.823 0.728248 2.21853 0
M  V30 6064 C 582.804 -0.287486 1.67653 0
M  V30 6065 O 583.989 -0.158727 1.9355 0
M  V30 6066 C 581.119 0.132549 3.47047 0
M  V30 6067 C 580.073 1.07619 4.14249 0
M  V30 6068 C 579.399 0.342907 5.33599 0
M  V30 6069 C 580.699 2.41268 4.63235 0
M  V30 6070 H 582.393 1.62365 2.51551 0
M  V30 6071 H 579.939 0.782125 1.20908 0
M  V30 6072 H 581.892 -0.125665 4.21213 0
M  V30 6073 H 580.616 -0.797971 3.16702 0
M  V30 6074 H 579.275 1.31944 3.42033 0
M  V30 6075 H 578.923 -0.59129 4.99513 0
M  V30 6076 H 578.623 0.971955 5.79506 0
M  V30 6077 H 580.147 0.0926538 6.1053 0
M  V30 6078 H 581.561 2.21232 5.28894 0
M  V30 6079 H 579.958 2.9983 5.19829 0
M  V30 6080 H 581.028 3.03079 3.78512 0
M  V30 6081 N 582.371 -1.3172 0.865308 0
M  V30 6082 C 583.596 -2.01591 0.487415 0
M  V30 6083 C 584.021 -1.6455 -0.911307 0
M  V30 6084 O 583.379 -0.851689 -1.6005 0
M  V30 6085 C 583.427 -3.54759 0.646401 0
M  V30 6086 O 582.531 -4.11185 -0.316284 0
M  V30 6087 H 581.872 -0.634884 0.194468 0
M  V30 6088 H 584.402 -1.68024 1.16744 0
M  V30 6089 H 584.412 -4.04438 0.537932 0
M  V30 6090 H 583.087 -3.8106 1.66632 0
M  V30 6091 H 581.664 -3.72543 -0.163162 0
M  V30 6092 N 583.85 -0.624285 -1.44708 0
M  V30 6093 C 585.096 -0.126051 -2.02107 0
M  V30 6094 C 585.425 1.2496 -1.49048 0
M  V30 6095 O 584.68 1.84163 -0.662005 0
M  V30 6096 C 584.979 -0.0546353 -3.57358 0
M  V30 6097 C 584.644 -1.36815 -4.29642 0
M  V30 6098 C 583.307 -1.72792 -4.49106 0
M  V30 6099 C 585.659 -2.23549 -4.70824 0
M  V30 6100 C 582.986 -2.95222 -5.07012 0
M  V30 6101 C 585.339 -3.45243 -5.30085 0
M  V30 6102 C 584.003 -3.81452 -5.47769 0
M  V30 6103 H 583.273 -0.0461252 -0.739563 0
M  V30 6104 H 585.92 -0.809236 -1.73562 0
M  V30 6105 H 584.225 0.711891 -3.85278 0
M  V30 6106 H 585.922 0.347282 -3.99493 0
M  V30 6107 H 582.512 -1.07817 -4.14817 0
M  V30 6108 H 586.696 -1.9705 -4.55505 0
M  V30 6109 H 581.952 -3.23361 -5.18891 0
M  V30 6110 H 586.125 -4.12689 -5.60946 0
M  V30 6111 H 583.753 -4.76403 -5.92405 0
M  V30 6112 N 585.328 1.53329 -0.364422 0
M  V30 6113 C 586.276 2.27212 0.497737 0
M  V30 6114 C 587.27 1.30146 1.08437 0
M  V30 6115 O 588.476 1.47778 1.0277 0
M  V30 6116 H 584.851 0.730329 0.179232 0
M  V30 6117 H 586.822 2.98037 -0.147182 0
M  V30 6118 C 585.571 3.07333 1.6261 0
M  V30 6119 H 584.894 3.81866 1.184 0
M  V30 6120 H 586.334 3.62209 2.20409 0
M  V30 6121 C 584.793 2.18102 2.56775 0
M  V30 6122 O 585.323 1.79104 3.59562 0
M  V30 6123 N 583.529 1.82759 2.25937 0
M  V30 6124 H 583.076 2.14671 1.42387 0
M  V30 6125 H 583.034 1.23342 2.89196 0
M  V30 6126 N 586.806 0.0935595 1.57322 0
M  V30 6127 C 587.769 -0.851426 2.12799 0
M  V30 6128 C 588.769 -1.21187 1.0569 0
M  V30 6129 O 589.959 -1.14156 1.31583 0
M  V30 6130 C 587.091 -2.14779 2.64731 0
M  V30 6131 H 588.284 -0.369733 2.97612 0
M  V30 6132 H 585.837 -0.155417 1.55525 0
M  V30 6133 H 586.572 -2.67437 1.83434 0
M  V30 6134 H 586.357 -1.89907 3.43042 0
M  V30 6135 H 587.847 -2.82383 3.07651 0
M  V30 6136 N 588.284 -1.56567 -0.180126 0
M  V30 6137 C 589.512 -1.85618 -0.913972 0
M  V30 6138 C 589.927 -0.677892 -1.7621 0
M  V30 6139 O 589.284 0.353171 -1.7905 0
M  V30 6140 C 589.335 -3.13619 -1.79793 0
M  V30 6141 O 589.056 -4.26906 -0.98402 0
M  V30 6142 C 590.557 -3.55954 -2.64219 0
M  V30 6143 H 587.777 -0.616043 -0.265954 0
M  V30 6144 H 590.321 -2.03681 -0.182872 0
M  V30 6145 H 588.476 -2.97409 -2.48247 0
M  V30 6146 H 588.89 -4.9989 -1.58776 0
M  V30 6147 H 590.364 -4.48444 -3.21873 0
M  V30 6148 H 590.841 -2.79653 -3.38661 0
M  V30 6149 H 591.447 -3.74746 -2.01111 0
M  V30 6150 N 589.762 0.448376 -1.51087 0
M  V30 6151 C 591.002 1.20832 -1.64861 0
M  V30 6152 C 591.366 1.88748 -0.351873 0
M  V30 6153 O 592.567 2.66307 -0.365265 0
M  V30 6154 C 590.838 2.20674 -2.81137 0
M  V30 6155 S 592.397 3.05303 -3.15176 0
M  V30 6156 H 589.215 0.40992 -0.580936 0
M  V30 6157 H 591.817 0.501624 -1.88955 0
M  V30 6158 H 590.521 1.69399 -3.73808 0
M  V30 6159 H 590.052 2.9594 -2.59198 0
M  V30 6160 H 592.067 4.22162 -2.60756 0
M  V30 6161 N 591.24 1.41047 0.703093 0
M  V30 6162 C 592.17 1.45067 1.82969 0
M  V30 6163 C 593.151 0.31016 1.67248 0
M  V30 6164 O 594.336 0.520548 1.87093 0
M  V30 6165 C 591.466 1.32478 3.2104 0
M  V30 6166 C 590.42 2.44262 3.51454 0
M  V30 6167 C 589.746 2.16742 4.88801 0
M  V30 6168 C 591.046 3.86606 3.51189 0
M  V30 6169 H 592.74 2.39353 1.79863 0
M  V30 6170 H 590.286 1.15206 0.863919 0
M  V30 6171 H 592.239 1.33904 3.99559 0
M  V30 6172 H 590.963 0.346735 3.24754 0
M  V30 6173 H 589.622 2.42107 2.75282 0
M  V30 6174 H 589.27 1.17299 4.89132 0
M  V30 6175 H 588.97 2.91643 5.10116 0
M  V30 6176 H 590.494 2.19872 5.69639 0
M  V30 6177 H 591.908 3.90517 4.19725 0
M  V30 6178 H 590.305 4.61128 3.84033 0
M  V30 6179 H 591.375 4.15296 2.50315 0
M  V30 6180 N 592.718 -0.936591 1.26751 0
M  V30 6181 C 593.666 -2.0573 1.08527 0
M  V30 6182 C 594.66 -1.69397 0.0108784 0
M  V30 6183 O 595.866 -1.79215 0.167915 0
M  V30 6184 H 592.241 -0.673691 0.334133 0
M  V30 6185 H 594.212 -2.1825 2.03493 0
M  V30 6186 C 592.961 -3.39738 0.739845 0
M  V30 6187 H 592.284 -3.68174 1.55845 0
M  V30 6188 H 593.724 -4.18955 0.652149 0
M  V30 6189 C 592.183 -3.32292 -0.555288 0
M  V30 6190 O 592.713 -3.68794 -1.59229 0
M  V30 6191 N 590.919 -2.85394 -0.54762 0
M  V30 6192 H 590.466 -2.55886 0.296667 0
M  V30 6193 H 590.424 -2.80795 -1.41427 0
M  V30 6194 N 594.196 -1.08629 -1.14182 0
M  V30 6195 C 595.144 -0.71284 -2.21408 0
M  V30 6196 C 596.138 0.282457 -1.67029 0
M  V30 6197 O 597.344 0.144783 -1.79417 0
M  V30 6198 H 593.719 -0.212497 -0.721352 0
M  V30 6199 H 595.69 -1.6265 -2.50175 0
M  V30 6200 C 594.439 -0.140704 -3.47415 0
M  V30 6201 H 593.762 -0.897739 -3.8959 0
M  V30 6202 H 595.202 0.0827677 -4.23919 0
M  V30 6203 C 593.661 1.122 -3.17668 0
M  V30 6204 O 594.191 2.20652 -3.35672 0
M  V30 6205 N 592.397 1.03328 -2.71609 0
M  V30 6206 H 591.944 0.150666 -2.57159 0
M  V30 6207 H 591.902 1.8789 -2.52081 0
M  V30 6208 N 595.674 1.31259 -0.872281 0
M  V30 6209 C 596.584 2.32221 -0.333255 0
M  V30 6210 C 597.6 1.6481 0.558013 0
M  V30 6211 O 598.776 1.96212 0.454175 0
M  V30 6212 C 595.841 3.43708 0.454479 0
M  V30 6213 C 594.902 4.26774 -0.465024 0
M  V30 6214 C 594.135 5.32937 0.28521 0
M  V30 6215 O 594.358 5.49968 1.513 0
M  V30 6216 O 593.292 6.00834 -0.358126 0
M  V30 6217 H 597.118 2.80252 -1.17016 0
M  V30 6218 H 594.703 1.352 -0.635724 0
M  V30 6219 H 596.585 4.11656 0.900963 0
M  V30 6220 H 595.26 2.97836 1.26789 0
M  V30 6221 H 594.167 3.61571 -0.960055 0
M  V30 6222 H 595.5 4.76217 -1.2441 0
M  V30 6223 N 597.152 0.631951 1.44375 0
M  V30 6224 C 598.398 0.13697 2.02337 0
M  V30 6225 C 598.731 -1.23826 1.49602 0
M  V30 6226 O 598.006 -1.8221 0.680415 0
M  V30 6227 C 598.289 0.124536 3.59885 0
M  V30 6228 C 598.142 1.53217 4.229 0
M  V30 6229 C 599.461 -0.550481 4.36644 0
M  V30 6230 H 596.58 0.051247 0.735216 0
M  V30 6231 H 599.222 0.808581 1.71936 0
M  V30 6232 H 597.372 -0.44737 3.85916 0
M  V30 6233 H 599.044 2.15303 4.07973 0
M  V30 6234 H 597.287 2.0858 3.80364 0
M  V30 6235 H 597.958 1.4755 5.31914 0
M  V30 6236 H 600.434 -0.0641154 4.16051 0
M  V30 6237 H 599.31 -0.528371 5.46351 0
M  V30 6238 H 599.571 -1.62097 4.11311 0
M  V30 6239 N 598.631 -1.53133 0.372548 0
M  V30 6240 C 599.88 -2.00539 -0.216115 0
M  V30 6241 C 600.193 -1.26374 -1.49295 0
M  V30 6242 O 601.399 -1.64404 -2.16064 0
M  V30 6243 C 599.855 -3.57253 -0.435678 0
M  V30 6244 C 599.463 -4.40302 0.82693 0
M  V30 6245 C 601.207 -4.12995 -0.981618 0
M  V30 6246 C 599.114 -5.88583 0.576567 0
M  V30 6247 H 598.044 -0.749246 -0.084536 0
M  V30 6248 H 600.695 -1.76771 0.492364 0
M  V30 6249 H 599.077 -3.77202 -1.20559 0
M  V30 6250 H 600.251 -4.32124 1.60017 0
M  V30 6251 H 598.566 -3.95699 1.29659 0
M  V30 6252 H 601.163 -5.21418 -1.18436 0
M  V30 6253 H 601.506 -3.68027 -1.94581 0
M  V30 6254 H 602.039 -3.96871 -0.271696 0
M  V30 6255 H 598.778 -6.37841 1.51128 0
M  V30 6256 H 598.298 -5.99592 -0.158047 0
M  V30 6257 H 599.977 -6.46676 0.204722 0
M  V30 6258 N 600.109 -0.101901 -1.5727 0
M  V30 6259 C 601.52 0.426173 -1.81771 0
M  V30 6260 C 601.871 1.67725 -1.01797 0
M  V30 6261 O 600.996 2.14958 -0.249386 0
M  V30 6262 C 601.591 0.779962 -3.297 0
M  V30 6263 C 600.15 1.25275 -3.54941 0
M  V30 6264 C 599.297 0.252814 -2.76145 0
M  V30 6265 H 602.248 -0.32726 -1.55289 0
M  V30 6266 H 602.269 1.63891 -3.43395 0
M  V30 6267 H 601.781 -0.130778 -3.8788 0
M  V30 6268 H 599.882 2.18097 -3.021 0
M  V30 6269 H 599.995 1.20988 -4.63572 0
M  V30 6270 H 598.359 0.736362 -2.43823 0
M  V30 6271 H 599.142 -0.650724 -3.37076 0
M  V30 6272 N 601.587 1.56661 0.17182 0
M  V30 6273 C 602.835 1.81606 0.886774 0
M  V30 6274 C 603.156 0.678818 1.82803 0
M  V30 6275 O 602.426 -0.301354 1.93568 0
M  V30 6276 H 601.006 0.669934 0.330451 0
M  V30 6277 H 603.668 1.94142 0.171757 0
M  V30 6278 H 602.764 2.75634 1.46398 0
M  V30 6279 N 603.065 -0.440357 1.51323 0
M  V30 6280 C 603.995 -1.54174 1.75364 0
M  V30 6281 C 604.976 -1.59039 0.603375 0
M  V30 6282 O 606.161 -1.74815 0.845774 0
M  V30 6283 C 603.291 -2.92277 1.87593 0
M  V30 6284 C 602.245 -3.02274 3.03009 0
M  V30 6285 C 601.571 -4.42327 3.00418 0
M  V30 6286 C 602.871 -2.76634 4.43024 0
M  V30 6287 H 604.565 -1.34307 2.67585 0
M  V30 6288 H 602.111 -0.644678 1.28763 0
M  V30 6289 H 604.064 -3.69284 2.02995 0
M  V30 6290 H 602.788 -3.13369 0.920179 0
M  V30 6291 H 601.447 -2.27706 2.87307 0
M  V30 6292 H 601.095 -4.60382 2.02626 0
M  V30 6293 H 600.795 -4.49946 3.77918 0
M  V30 6294 H 602.319 -5.21312 3.17909 0
M  V30 6295 H 603.733 -3.43376 4.59093 0
M  V30 6296 H 602.13 -2.95666 5.22208 0
M  V30 6297 H 603.2 -1.72262 4.5327 0
M  V30 6298 N 604.543 -1.41418 -0.695603 0
M  V30 6299 C 605.49 -1.43264 -1.80954 0
M  V30 6300 C 606.46 -0.287016 -1.63601 0
M  V30 6301 O 607.645 -0.488054 -1.84452 0
M  V30 6302 C 604.785 -1.32054 -3.18835 0
M  V30 6303 C 603.898 -2.56485 -3.4762 0
M  V30 6304 C 603.033 -2.3757 -4.75115 0
M  V30 6305 C 602.072 -3.57477 -4.96867 0
M  V30 6306 N 601.209 -3.37632 -6.15588 0
M  V30 6307 H 606.049 -2.38467 -1.78711 0
M  V30 6308 H 603.586 -1.18415 -0.872715 0
M  V30 6309 H 605.544 -1.23558 -3.98484 0
M  V30 6310 H 604.174 -0.404592 -3.20254 0
M  V30 6311 H 603.226 -2.75432 -2.62376 0
M  V30 6312 H 604.538 -3.45678 -3.59594 0
M  V30 6313 H 603.692 -2.2654 -5.62818 0
M  V30 6314 H 602.431 -1.45834 -4.65386 0
M  V30 6315 H 601.436 -3.68961 -4.07612 0
M  V30 6316 H 602.661 -4.50167 -5.08455 0
M  V30 6317 H 600.607 -2.48596 -6.07072 0
M  V30 6318 H 600.524 -4.20401 -6.2833 0
M  V30 6319 H 601.792 -3.30375 -7.06026 0
M  V30 6320 N 606.021 0.929856 -1.27246 0
M  V30 6321 C 607.246 1.71674 -1.16374 0
M  V30 6322 C 607.671 1.86064 0.276024 0
M  V30 6323 O 607.029 1.3591 1.19992 0
M  V30 6324 C 607.077 3.09526 -1.85003 0
M  V30 6325 O 606.181 3.96142 -1.14653 0
M  V30 6326 H 605.522 0.52629 -0.404863 0
M  V30 6327 H 608.052 1.16381 -1.68276 0
M  V30 6328 H 608.062 3.59852 -1.92276 0
M  V30 6329 H 606.737 2.98369 -2.89739 0
M  V30 6330 H 605.314 3.54584 -1.15433 0
M  V30 6331 N 607.499 1.09233 1.13605 0
M  V30 6332 C 608.739 0.836786 1.86487 0
M  V30 6333 C 609.103 -0.626191 1.81502 0
M  V30 6334 O 610.304 -0.99758 2.49603 0
M  V30 6335 C 608.575 1.35476 3.30728 0
M  V30 6336 S 610.134 1.2328 4.21126 0
M  V30 6337 H 606.952 0.302702 0.643345 0
M  V30 6338 H 609.554 1.3953 1.36936 0
M  V30 6339 H 608.258 2.41381 3.31909 0
M  V30 6340 H 607.789 0.792286 3.85339 0
M  V30 6341 H 609.804 0.182468 4.95864 0
M  V30 6342 N 608.977 -1.30795 0.87923 0
M  V30 6343 C 609.91 -2.26396 0.286404 0
M  V30 6344 C 610.888 -1.51528 -0.589748 0
M  V30 6345 O 612.072 -1.80566 -0.541119 0
M  V30 6346 C 609.199 -3.33458 -0.593581 0
M  V30 6347 C 608.245 -4.2597 0.21247 0
M  V30 6348 S 609.078 -5.11132 1.59702 0
M  V30 6349 C 610.234 -6.21705 0.723408 0
M  V30 6350 H 610.467 -2.7633 1.09677 0
M  V30 6351 H 608 -1.38703 0.678305 0
M  V30 6352 H 609.958 -3.9561 -1.09557 0
M  V30 6353 H 608.619 -2.82259 -1.37799 0
M  V30 6354 H 607.812 -5.01907 -0.458822 0
M  V30 6355 H 607.414 -3.68363 0.646883 0
M  V30 6356 H 609.706 -6.77472 -0.0620739 0
M  V30 6357 H 610.649 -6.93007 1.4542 0
M  V30 6358 H 611.057 -5.63771 0.286855 0
M  V30 6359 N 610.455 -0.639598 -1.44038 0
M  V30 6360 C 611.703 -0.147188 -2.01563 0
M  V30 6361 C 612.024 1.2384 -1.50628 0
M  V30 6362 O 611.294 1.82452 -0.713316 0
M  V30 6363 H 609.874 -0.0514231 -0.745228 0
M  V30 6364 H 612.536 -0.828205 -1.76428 0
M  V30 6365 H 611.632 -0.121358 -3.11864 0
M  V30 6366 N 611.933 1.52934 -0.380664 0
M  V30 6367 C 612.863 2.29118 0.450268 0
M  V30 6368 C 613.844 1.32153 1.07096 0
M  V30 6369 O 615.029 1.61038 1.08537 0
M  V30 6370 C 612.159 3.09161 1.58231 0
M  V30 6371 C 611.113 4.13938 1.0881 0
M  V30 6372 C 610.439 4.82153 2.31155 0
M  V30 6373 C 611.739 5.22048 0.162146 0
M  V30 6374 H 613.433 2.98826 -0.185361 0
M  V30 6375 H 610.979 1.43715 -0.0905886 0
M  V30 6376 H 612.932 3.61211 2.17036 0
M  V30 6377 H 611.656 2.3717 2.2454 0
M  V30 6378 H 610.315 3.62855 0.522633 0
M  V30 6379 H 609.963 4.06719 2.95953 0
M  V30 6380 H 609.663 5.52966 1.98752 0
M  V30 6381 H 611.187 5.37004 2.90618 0
M  V30 6382 H 612.601 5.6951 0.658126 0
M  V30 6383 H 610.998 6.00057 -0.0717122 0
M  V30 6384 H 612.068 4.78398 -0.791438 0
M  V30 6385 N 613.412 0.11024 1.57214 0
M  V30 6386 C 614.359 -0.843195 2.14846 0
M  V30 6387 C 615.329 -1.26954 1.07107 0
M  V30 6388 O 616.514 -1.34861 1.34971 0
M  V30 6389 C 613.654 -2.09123 2.74521 0
M  V30 6390 C 612.767 -1.71404 3.96541 0
M  V30 6391 C 611.902 -2.91107 4.44331 0
M  V30 6392 C 610.941 -2.49586 5.58903 0
M  V30 6393 N 610.078 -3.62175 6.01477 0
M  V30 6394 H 614.918 -0.344886 2.95998 0
M  V30 6395 H 612.455 -0.15855 1.46243 0
M  V30 6396 H 614.413 -2.82234 3.07246 0
M  V30 6397 H 613.043 -2.56427 1.96074 0
M  V30 6398 H 612.095 -0.88201 3.70033 0
M  V30 6399 H 613.407 -1.36884 4.7965 0
M  V30 6400 H 612.561 -3.72454 4.78919 0
M  V30 6401 H 611.3 -3.28848 3.60153 0
M  V30 6402 H 610.305 -1.6667 5.23929 0
M  V30 6403 H 611.53 -2.12973 6.4484 0
M  V30 6404 H 609.476 -3.99605 5.20242 0
M  V30 6405 H 609.393 -3.3155 6.79419 0
M  V30 6406 H 610.661 -4.43987 6.407 0
M  V30 6407 N 614.89 -1.56749 -0.16351 0
M  V30 6408 C 616.139 -1.81626 -0.877211 0
M  V30 6409 C 616.452 -0.688791 -1.83071 0
M  V30 6410 O 617.658 -0.822697 -2.58735 0
M  V30 6411 C 616.114 -3.21858 -1.61045 0
M  V30 6412 C 615.722 -4.42494 -0.700195 0
M  V30 6413 C 617.466 -3.56021 -2.31192 0
M  V30 6414 C 615.373 -5.73748 -1.43412 0
M  V30 6415 H 614.303 -0.67731 -0.331312 0
M  V30 6416 H 616.954 -1.83039 -0.13006 0
M  V30 6417 H 615.336 -3.14784 -2.40264 0
M  V30 6418 H 616.51 -4.60766 0.0555849 0
M  V30 6419 H 614.825 -4.1626 -0.10799 0
M  V30 6420 H 617.422 -4.51333 -2.8671 0
M  V30 6421 H 617.765 -2.81277 -3.06902 0
M  V30 6422 H 618.298 -3.64682 -1.58909 0
M  V30 6423 H 615.037 -6.51543 -0.719186 0
M  V30 6424 H 614.557 -5.5944 -2.16302 0
M  V30 6425 H 616.236 -6.15975 -1.9795 0
M  V30 6426 N 616.368 0.432326 -1.51554 0
M  V30 6427 C 617.616 1.17901 -1.64146 0
M  V30 6428 C 617.937 1.91604 -0.362367 0
M  V30 6429 O 617.207 1.85764 0.621968 0
M  V30 6430 H 615.787 0.438206 -0.604966 0
M  V30 6431 H 618.449 0.495172 -1.88505 0
M  V30 6432 H 617.545 1.90584 -2.47152 0
M  V30 6433 N 617.846 1.41785 0.688094 0
M  V30 6434 C 619.123 1.32031 1.44316 0
M  V30 6435 C 619.503 -0.0486079 2.11044 0
M  V30 6436 O 618.851 -1.06332 2.02252 0
M  V30 6437 C 619.061 2.47906 2.45649 0
M  V30 6438 C 620.409 2.89415 3.10683 0
M  V30 6439 O 621.433 2.477 2.55975 0
M  V30 6440 O 620.292 3.61573 4.09789 0
M  V30 6441 H 617.386 0.519994 0.643067 0
M  V30 6442 H 619.932 1.53765 0.71794 0
M  V30 6443 H 618.704 3.39222 1.95048 0
M  V30 6444 H 618.327 2.28089 3.25671 0
M  V30 6445 N 619.324 -0.923095 1.27737 0
M  V30 6446 C 620.552 -1.70525 1.17171 0
M  V30 6447 C 620.967 -1.86847 -0.270881 0
M  V30 6448 O 620.324 -1.38879 -1.18401 0
M  V30 6449 C 620.375 -3.10242 1.85559 0
M  V30 6450 O 620.096 -2.94683 3.24182 0
M  V30 6451 C 621.597 -4.04586 1.81176 0
M  V30 6452 H 618.817 -0.533347 0.407163 0
M  V30 6453 H 621.361 -1.15599 1.68692 0
M  V30 6454 H 619.516 -3.62014 1.3793 0
M  V30 6455 H 619.93 -3.83045 3.58297 0
M  V30 6456 H 621.404 -5.00119 2.33633 0
M  V30 6457 H 621.881 -4.3218 0.782099 0
M  V30 6458 H 622.487 -3.58741 2.2844 0
M  V30 6459 N 620.802 -1.09834 -1.13024 0
M  V30 6460 C 622.048 -0.83819 -1.84668 0
M  V30 6461 C 622.381 0.634645 -1.83537 0
M  V30 6462 O 621.656 1.46753 -1.27647 0
M  V30 6463 C 621.939 -1.37933 -3.32636 0
M  V30 6464 C 621.792 -2.91857 -3.42257 0
M  V30 6465 C 623.111 -1.01654 -4.28199 0
M  V30 6466 H 620.23 -0.30595 -0.670495 0
M  V30 6467 H 622.872 -1.36044 -1.32635 0
M  V30 6468 H 621.022 -0.935111 -3.77078 0
M  V30 6469 H 622.694 -3.44759 -3.06495 0
M  V30 6470 H 620.937 -3.28776 -2.83 0
M  V30 6471 H 621.608 -3.24799 -4.46329 0
M  V30 6472 H 624.084 -1.39973 -3.9185 0
M  V30 6473 H 622.96 -1.42217 -5.30156 0
M  V30 6474 H 623.221 0.0747794 -4.42037 0
M  V30 6475 N 622.28 1.30327 -0.886154 0
M  V30 6476 C 623.505 2.0079 -0.519425 0
M  V30 6477 C 623.93 1.65979 0.885013 0
M  V30 6478 O 623.288 0.877043 1.58675 0
M  V30 6479 C 623.336 3.53686 -0.702758 0
M  V30 6480 O 622.44 4.11637 0.250828 0
M  V30 6481 H 621.781 0.63171 -0.204544 0
M  V30 6482 H 624.311 1.66145 -1.19402 0
M  V30 6483 H 624.321 4.03531 -0.602207 0
M  V30 6484 H 622.996 3.78361 -1.72673 0
M  V30 6485 H 621.573 3.72755 0.103873 0
M  V30 6486 N 623.758 0.647228 1.43697 0
M  V30 6487 C 625.005 0.158188 2.01881 0
M  V30 6488 C 625.333 -1.22573 1.51017 0
M  V30 6489 O 624.588 -1.83086 0.69122 0
M  V30 6490 C 624.887 0.111481 3.57226 0
M  V30 6491 C 624.553 1.43633 4.27411 0
M  V30 6492 C 623.215 1.79915 4.463 0
M  V30 6493 C 625.567 2.31011 4.67208 0
M  V30 6494 C 622.895 3.03251 5.02251 0
M  V30 6495 C 625.247 3.53633 5.24525 0
M  V30 6496 C 623.911 3.90118 5.41631 0
M  V30 6497 H 623.181 0.0578851 0.738736 0
M  V30 6498 H 625.828 0.836746 1.72252 0
M  V30 6499 H 624.133 -0.650507 3.86362 0
M  V30 6500 H 625.83 -0.283682 3.99995 0
M  V30 6501 H 622.42 1.14403 4.1305 0
M  V30 6502 H 626.604 2.04272 4.52313 0
M  V30 6503 H 621.86 3.31575 5.13681 0
M  V30 6504 H 626.034 4.21561 5.5431 0
M  V30 6505 H 623.661 4.85768 5.84751 0
M  V30 6506 N 625.236 -1.5273 0.388769 0
M  V30 6507 C 626.461 -2.0647 -0.19621 0
M  V30 6508 C 626.886 -1.25865 -1.39784 0
M  V30 6509 O 626.244 -0.283562 -1.79069 0
M  V30 6510 C 626.292 -3.56456 -0.5451 0
M  V30 6511 O 625.396 -3.78426 -1.63912 0
M  V30 6512 H 624.737 -0.663599 -0.023067 0
M  V30 6513 H 627.267 -1.96898 0.556084 0
M  V30 6514 H 627.277 -3.99888 -0.809557 0
M  V30 6515 H 625.952 -4.14561 0.333417 0
M  V30 6516 H 624.529 -3.46884 -1.36842 0
M  V30 6517 N 626.714 -0.118576 -1.57153 0
M  V30 6518 C 627.963 0.539339 -1.94355 0
M  V30 6519 C 628.276 1.67858 -1.00415 0
M  V30 6520 O 629.482 2.39922 -1.27081 0
M  V30 6521 C 627.938 1.01082 -3.45414 0
M  V30 6522 C 627.546 -0.0999402 -4.47889 0
M  V30 6523 C 629.29 1.64013 -3.91535 0
M  V30 6524 C 627.197 0.388212 -5.90124 0
M  V30 6525 H 626.127 0.205247 -0.725527 0
M  V30 6526 H 628.778 -0.19836 -1.82425 0
M  V30 6527 H 627.16 1.80292 -3.52577 0
M  V30 6528 H 628.334 -0.876189 -4.52393 0
M  V30 6529 H 626.649 -0.635885 -4.11516 0
M  V30 6530 H 629.246 2.01649 -4.95219 0
M  V30 6531 H 629.589 2.51836 -3.31488 0
M  V30 6532 H 630.122 0.913439 -3.87171 0
M  V30 6533 H 626.861 -0.453963 -6.53926 0
M  V30 6534 H 626.381 1.13095 -5.89041 0
M  V30 6535 H 628.06 0.849574 -6.41398 0
M  V30 6536 N 628.193 1.56834 0.155195 0
M  V30 6537 C 629.103 2.009 1.21146 0
M  V30 6538 C 630.119 0.923029 1.475 0
M  V30 6539 O 631.295 1.23189 1.59331 0
M  V30 6540 C 628.36 2.37378 2.52691 0
M  V30 6541 C 627.421 3.59883 2.34057 0
M  V30 6542 C 626.654 3.94612 3.59329 0
M  V30 6543 O 626.877 3.30104 4.65175 0
M  V30 6544 O 625.811 4.87895 3.52479 0
M  V30 6545 H 629.637 2.9105 0.867371 0
M  V30 6546 H 627.222 1.44916 0.363298 0
M  V30 6547 H 629.104 2.61737 3.3026 0
M  V30 6548 H 627.779 1.50385 2.86646 0
M  V30 6549 H 626.686 3.40722 1.54465 0
M  V30 6550 H 628.019 4.47468 2.0502 0
M  V30 6551 N 629.671 -0.424282 1.51781 0
M  V30 6552 C 630.634 -1.49848 1.73431 0
M  V30 6553 C 631.634 -1.49016 0.604225 0
M  V30 6554 O 632.824 -1.50808 0.871935 0
M  V30 6555 C 629.956 -2.89332 1.80277 0
M  V30 6556 H 631.149 -1.3195 2.69312 0
M  V30 6557 H 628.702 -0.653809 1.41968 0
M  V30 6558 H 629.437 -3.12618 0.862568 0
M  V30 6559 H 629.222 -2.9134 2.62419 0
M  V30 6560 H 630.712 -3.67233 1.98821 0
M  V30 6561 N 631.149 -1.42148 -0.680565 0
M  V30 6562 C 632.096 -1.45175 -1.79424 0
M  V30 6563 C 633.066 -0.304352 -1.63288 0
M  V30 6564 O 634.251 -0.507591 -1.83924 0
M  V30 6565 C 631.391 -1.35429 -3.17416 0
M  V30 6566 C 630.504 -2.60158 -3.4488 0
M  V30 6567 C 629.639 -2.42596 -4.72568 0
M  V30 6568 C 628.678 -3.62727 -4.93047 0
M  V30 6569 N 627.815 -3.44143 -6.11973 0
M  V30 6570 H 632.655 -2.40349 -1.76172 0
M  V30 6571 H 630.192 -1.19334 -0.860107 0
M  V30 6572 H 632.15 -1.27777 -3.97151 0
M  V30 6573 H 630.78 -0.438536 -3.19807 0
M  V30 6574 H 629.832 -2.78199 -2.5944 0
M  V30 6575 H 631.144 -3.49473 -3.55908 0
M  V30 6576 H 630.298 -2.32497 -5.60384 0
M  V30 6577 H 629.037 -1.50761 -4.63813 0
M  V30 6578 H 628.042 -3.73264 -4.03676 0
M  V30 6579 H 629.267 -4.55534 -5.03652 0
M  V30 6580 H 627.213 -2.5502 -6.04401 0
M  V30 6581 H 627.13 -4.27041 -6.23836 0
M  V30 6582 H 628.398 -3.37845 -7.02482 0
M  V30 6583 N 632.627 0.916307 -1.28225 0
M  V30 6584 C 633.873 1.66765 -1.154 0
M  V30 6585 C 634.206 1.91912 0.297251 0
M  V30 6586 O 633.481 1.51766 1.21644 0
M  V30 6587 C 633.764 3.02715 -1.95028 0
M  V30 6588 C 633.617 2.84738 -3.48201 0
M  V30 6589 C 634.936 4.03215 -1.76369 0
M  V30 6590 H 632.055 0.605205 -0.42059 0
M  V30 6591 H 634.697 1.06255 -1.57512 0
M  V30 6592 H 632.847 3.54365 -1.59242 0
M  V30 6593 H 634.519 2.40118 -3.9388 0
M  V30 6594 H 632.762 2.19848 -3.73964 0
M  V30 6595 H 633.433 3.8127 -3.99171 0
M  V30 6596 H 635.909 3.60617 -2.07593 0
M  V30 6597 H 634.785 4.96306 -2.34459 0
M  V30 6598 H 635.046 4.36288 -0.71452 0
M  V30 6599 N 634.105 1.10431 1.1244 0
M  V30 6600 C 635.521 0.836096 1.35947 0
M  V30 6601 C 635.721 -0.544475 1.94004 0
M  V30 6602 O 634.777 -1.29735 2.16622 0
M  V30 6603 C 636.09 1.93575 2.30107 0
M  V30 6604 C 637.638 1.9642 2.43697 0
M  V30 6605 C 638.113 3.05559 3.41171 0
M  V30 6606 N 639.604 3.04865 3.48728 0
M  V30 6607 C 640.339 3.85954 4.24061 0
M  V30 6608 N 639.835 4.76977 5.02458 0
M  V30 6609 N 641.628 3.74172 4.19466 0
M  V30 6610 H 633.779 1.9942 0.731124 0
M  V30 6611 H 636.042 0.866607 0.384312 0
M  V30 6612 H 635.748 2.92943 1.94621 0
M  V30 6613 H 635.622 1.8229 3.30227 0
M  V30 6614 H 638.009 0.97685 2.78463 0
M  V30 6615 H 638.09 2.11782 1.43465 0
M  V30 6616 H 637.734 4.04513 3.07135 0
M  V30 6617 H 637.664 2.87438 4.41234 0
M  V30 6618 H 640.155 2.38908 2.92799 0
M  V30 6619 H 640.468 5.35409 5.57277 0
M  V30 6620 H 638.813 4.81006 5.01655 0
M  V30 6621 H 642.004 3.02412 3.57302 0
M  V30 6622 H 642.177 4.37602 4.77921 0
M  V30 6623 N 635.583 -1.29855 0.893053 0
M  V30 6624 C 636.831 -1.9544 0.514566 0
M  V30 6625 C 637.152 -1.70795 -0.940959 0
M  V30 6626 O 636.422 -1.03601 -1.66264 0
M  V30 6627 H 635.002 -0.723137 0.187302 0
M  V30 6628 H 637.664 -1.58234 1.13789 0
M  V30 6629 H 636.76 -3.04341 0.691581 0
M  V30 6630 N 637.061 -0.65484 -1.43351 0
M  V30 6631 C 638.301 -0.172514 -2.03671 0
M  V30 6632 C 638.665 1.19154 -1.50553 0
M  V30 6633 O 639.866 1.76737 -2.02528 0
M  V30 6634 C 638.137 -0.183982 -3.56926 0
M  V30 6635 S 639.696 0.230262 -4.38195 0
M  V30 6636 H 636.514 -0.0727503 -0.707268 0
M  V30 6637 H 639.116 -0.863537 -1.75395 0
M  V30 6638 H 637.82 -1.17945 -3.93087 0
M  V30 6639 H 637.351 0.527527 -3.89847 0
M  V30 6640 H 639.366 1.46874 -4.73965 0
M  V30 6641 N 638.539 1.52521 -0.396863 0
M  V30 6642 C 639.95 1.86547 0.0754868 0
M  V30 6643 C 640.301 1.31621 1.45501 0
M  V30 6644 O 639.426 0.650563 2.0639 0
M  V30 6645 C 640.021 3.38495 0.143754 0
M  V30 6646 C 638.58 3.72205 0.560413 0
M  V30 6647 C 637.727 2.75954 -0.272856 0
M  V30 6648 H 640.678 1.46323 -0.614434 0
M  V30 6649 H 640.699 3.68153 0.961425 0
M  V30 6650 H 640.211 3.78442 -0.860415 0
M  V30 6651 H 638.312 3.3783 1.57167 0
M  V30 6652 H 638.425 4.78074 0.313314 0
M  V30 6653 H 636.789 2.53339 0.263 0
M  V30 6654 H 637.572 3.1874 -1.27515 0
M  V30 6655 N 640.017 0.126909 1.57088 0
M  V30 6656 C 640.949 -0.850973 2.12817 0
M  V30 6657 C 641.962 -1.22457 1.07276 0
M  V30 6658 O 643.151 -1.17215 1.34622 0
M  V30 6659 C 640.251 -2.15039 2.61938 0
M  V30 6660 C 639.424 -1.94726 3.91664 0
M  V30 6661 C 638.483 -3.0847 4.26301 0
M  V30 6662 O 637.509 -2.81038 4.94981 0
M  V30 6663 N 638.711 -4.35116 3.84259 0
M  V30 6664 H 641.476 -0.3748 2.97347 0
M  V30 6665 H 639.037 -0.0572793 1.61799 0
M  V30 6666 H 641.029 -2.90141 2.82135 0
M  V30 6667 H 639.599 -2.5398 1.82244 0
M  V30 6668 H 638.819 -1.03772 3.80296 0
M  V30 6669 H 640.107 -1.78469 4.76473 0
M  V30 6670 H 639.505 -4.60276 3.2888 0
M  V30 6671 H 638.062 -5.07064 4.09548 0
M  V30 6672 N 641.495 -1.56914 -0.146875 0
M  V30 6673 C 642.405 -2.0154 -1.20079 0
M  V30 6674 C 643.421 -0.930838 -1.47008 0
M  V30 6675 O 644.597 -1.24032 -1.58676 0
M  V30 6676 C 641.662 -2.38715 -2.51428 0
M  V30 6677 C 640.723 -3.6112 -2.32145 0
M  V30 6678 C 639.956 -3.96512 -3.57231 0
M  V30 6679 O 640.179 -3.32566 -4.63418 0
M  V30 6680 O 639.113 -4.89758 -3.49887 0
M  V30 6681 H 642.939 -2.91506 -0.851924 0
M  V30 6682 H 640.524 -1.45106 -0.355607 0
M  V30 6683 H 642.406 -2.63485 -3.28867 0
M  V30 6684 H 641.081 -1.51903 -2.85845 0
M  V30 6685 H 639.988 -3.41536 -1.52656 0
M  V30 6686 H 641.321 -4.48549 -2.02644 0
M  V30 6687 N 642.974 0.416227 -1.52004 0
M  V30 6688 C 643.921 1.50666 -1.74838 0
M  V30 6689 C 644.891 1.55245 -0.590599 0
M  V30 6690 O 646.076 1.71928 -0.827374 0
M  V30 6691 C 643.216 2.88185 -1.89851 0
M  V30 6692 C 642.329 2.92971 -3.17478 0
M  V30 6693 C 641.464 4.21745 -3.22962 0
M  V30 6694 C 640.503 4.20478 -4.4482 0
M  V30 6695 N 639.64 5.40811 -4.47736 0
M  V30 6696 H 644.48 1.30498 -2.67907 0
M  V30 6697 H 642.017 0.633568 -1.32757 0
M  V30 6698 H 643.975 3.68007 -1.96537 0
M  V30 6699 H 642.605 3.06865 -1.00169 0
M  V30 6700 H 641.657 2.05684 -3.19997 0
M  V30 6701 H 642.969 2.87899 -4.07328 0
M  V30 6702 H 642.123 5.09954 -3.28682 0
M  V30 6703 H 640.862 4.29503 -2.31038 0
M  V30 6704 H 639.867 3.30659 -4.39254 0
M  V30 6705 H 641.092 4.14366 -5.38031 0
M  V30 6706 H 639.038 5.4925 -3.58692 0
M  V30 6707 H 638.955 5.37705 -5.31422 0
M  V30 6708 H 640.223 6.30993 -4.57676 0
M  V30 6709 N 644.452 1.42507 0.673017 0
M  V30 6710 C 645.362 1.4853 1.81593 0
M  V30 6711 C 646.378 0.373907 1.69935 0
M  V30 6712 O 647.554 0.625078 1.91454 0
M  V30 6713 C 644.619 1.387 3.17747 0
M  V30 6714 C 643.68 2.60346 3.41348 0
M  V30 6715 C 642.913 2.50975 4.71007 0
M  V30 6716 O 643.136 1.54659 5.49033 0
M  V30 6717 O 642.07 3.41138 4.95892 0
M  V30 6718 H 645.896 2.45001 1.79467 0
M  V30 6719 H 643.481 1.2429 0.82899 0
M  V30 6720 H 645.363 1.35586 3.98992 0
M  V30 6721 H 644.038 0.453555 3.20507 0
M  V30 6722 H 642.945 2.69034 2.59945 0
M  V30 6723 H 644.278 3.52595 3.43421 0
M  V30 6724 N 645.93 -0.909495 1.28709 0
M  V30 6725 C 646.877 -2.01245 1.13 0
M  V30 6726 C 647.847 -1.6608 0.0259684 0
M  V30 6727 O 649.032 -1.89835 0.191687 0
M  V30 6728 C 646.172 -3.35644 0.802315 0
M  V30 6729 C 645.285 -3.83653 1.98582 0
M  V30 6730 C 644.42 -5.06582 1.59837 0
M  V30 6731 C 643.459 -5.46934 2.74827 0
M  V30 6732 N 642.596 -6.61053 2.36546 0
M  V30 6733 H 647.436 -2.14013 2.0737 0
M  V30 6734 H 644.973 -1.0482 1.03205 0
M  V30 6735 H 646.931 -4.12963 0.593057 0
M  V30 6736 H 645.561 -3.22631 -0.104457 0
M  V30 6737 H 644.613 -3.02454 2.30708 0
M  V30 6738 H 645.925 -4.09515 2.84779 0
M  V30 6739 H 645.079 -5.91457 1.35143 0
M  V30 6740 H 643.818 -4.82537 0.707753 0
M  V30 6741 H 642.823 -4.60599 3.00215 0
M  V30 6742 H 644.048 -5.72965 3.64538 0
M  V30 6743 H 641.994 -6.3863 1.49959 0
M  V30 6744 H 641.911 -6.86662 3.16277 0
M  V30 6745 H 643.179 -7.49221 2.15146 0
M  V30 6746 N 647.408 -1.11026 -1.11852 0
M  V30 6747 C 648.633 -0.879064 -1.87849 0
M  V30 6748 C 649.058 0.565406 -1.79401 0
M  V30 6749 O 648.416 1.39886 -1.15333 0
M  V30 6750 C 648.464 -1.33985 -3.34784 0
M  V30 6751 O 647.568 -0.508803 -4.09249 0
M  V30 6752 H 646.909 -0.316992 -0.583448 0
M  V30 6753 H 649.439 -1.47863 -1.41413 0
M  V30 6754 H 649.449 -1.33248 -3.85628 0
M  V30 6755 H 648.124 -2.39172 -3.40249 0
M  V30 6756 H 646.701 -0.581913 -3.68332 0
M  V30 6757 N 648.886 1.2938 -0.899927 0
M  V30 6758 C 650.133 1.9555 -0.525963 0
M  V30 6759 C 650.461 1.70945 0.927789 0
M  V30 6760 O 649.716 1.01545 1.67293 0
M  V30 6761 C 650.015 3.49114 -0.765113 0
M  V30 6762 C 649.681 3.93796 -2.19626 0
M  V30 6763 C 648.343 4.05707 -2.58758 0
M  V30 6764 C 650.695 4.16883 -3.12823 0
M  V30 6765 C 648.023 4.38074 -3.90267 0
M  V30 6766 C 650.375 4.50725 -4.4388 0
M  V30 6767 C 649.039 4.60845 -4.82885 0
M  V30 6768 H 648.309 0.715569 -0.192463 0
M  V30 6769 H 650.956 1.53972 -1.13863 0
M  V30 6770 H 649.261 3.91738 -0.069531 0
M  V30 6771 H 650.958 3.98409 -0.455144 0
M  V30 6772 H 647.548 3.85042 -1.88256 0
M  V30 6773 H 651.732 4.07147 -2.83804 0
M  V30 6774 H 646.988 4.44112 -4.20207 0
M  V30 6775 H 651.162 4.67538 -5.16121 0
M  V30 6776 H 648.789 4.85681 -5.84823 0
M  V30 6777 N 650.364 0.662433 1.43002 0
M  V30 6778 C 651.592 0.187615 2.06048 0
M  V30 6779 C 652.007 -1.15039 1.49705 0
M  V30 6780 O 651.364 -1.71209 0.631956 0
M  V30 6781 C 651.415 0.100498 3.6136 0
M  V30 6782 O 651.136 1.38562 4.15611 0
M  V30 6783 C 652.637 -0.399298 4.41498 0
M  V30 6784 H 649.857 0.0941675 0.664359 0
M  V30 6785 H 652.401 0.905681 1.83351 0
M  V30 6786 H 650.556 -0.568181 3.83211 0
M  V30 6787 H 650.97 1.25084 5.09366 0
M  V30 6788 H 652.444 -0.409187 5.50481 0
M  V30 6789 H 652.921 -1.43232 4.15188 0
M  V30 6790 H 653.527 0.23721 4.24638 0
M  V30 6791 N 651.842 -1.52309 0.404946 0
M  V30 6792 C 653.091 -2.00952 -0.173529 0
M  V30 6793 C 653.404 -1.29512 -1.46581 0
M  V30 6794 O 654.61 -1.6895 -2.12528 0
M  V30 6795 C 653.066 -3.58097 -0.359801 0
M  V30 6796 C 652.674 -4.38449 0.920138 0
M  V30 6797 C 654.418 -4.14984 -0.893794 0
M  V30 6798 C 652.325 -5.87227 0.701285 0
M  V30 6799 H 651.255 -0.750871 -0.0686244 0
M  V30 6800 H 653.906 -1.75687 0.529749 0
M  V30 6801 H 652.288 -3.79675 -1.12531 0
M  V30 6802 H 653.462 -4.28633 1.69147 0
M  V30 6803 H 651.777 -3.92859 1.38024 0
M  V30 6804 H 654.374 -5.23813 -1.0735 0
M  V30 6805 H 654.717 -3.72072 -1.8673 0
M  V30 6806 H 655.25 -3.97358 -0.187453 0
M  V30 6807 H 651.989 -6.34491 1.64624 0
M  V30 6808 H 651.509 -5.99792 -0.0308288 0
M  V30 6809 H 653.188 -6.46096 0.341846 0
M  V30 6810 N 653.32 -0.135238 -1.57019 0
M  V30 6811 C 654.267 0.808908 -2.1616 0
M  V30 6812 C 655.237 1.25234 -1.09113 0
M  V30 6813 O 656.422 1.32697 -1.37099 0
M  V30 6814 C 653.562 2.04729 -2.77813 0
M  V30 6815 C 652.675 1.65074 -3.99218 0
M  V30 6816 C 651.81 2.84002 -4.48906 0
M  V30 6817 C 650.849 2.40663 -5.62803 0
M  V30 6818 N 649.986 3.5256 -6.07162 0
M  V30 6819 H 654.826 0.297751 -2.96509 0
M  V30 6820 H 652.363 0.135264 -1.46477 0
M  V30 6821 H 654.321 2.7731 -3.11697 0
M  V30 6822 H 652.951 2.53275 -2.00128 0
M  V30 6823 H 652.003 0.823029 -3.7139 0
M  V30 6824 H 653.315 1.29236 -4.81767 0
M  V30 6825 H 652.469 3.64788 -4.84783 0
M  V30 6826 H 651.208 3.23076 -3.65339 0
M  V30 6827 H 650.213 1.58314 -5.26514 0
M  V30 6828 H 651.438 2.02687 -6.48147 0
M  V30 6829 H 649.384 3.91278 -5.26534 0
M  V30 6830 H 649.301 3.20699 -6.84608 0
M  V30 6831 H 650.569 4.33738 -6.47682 0
M  V30 6832 N 654.798 1.5699 0.138552 0
M  V30 6833 C 656.209 1.73171 0.697754 0
M  V30 6834 C 656.56 0.750952 1.8126 0
M  V30 6835 O 655.685 -0.080549 2.1625 0
M  V30 6836 C 656.28 3.13996 1.27248 0
M  V30 6837 C 654.839 3.3175 1.77816 0
M  V30 6838 C 653.986 2.69084 0.669991 0
M  V30 6839 H 656.937 1.5846 -0.0871979 0
M  V30 6840 H 656.958 3.14463 2.14227 0
M  V30 6841 H 656.47 3.85354 0.460855 0
M  V30 6842 H 654.571 2.65403 2.61519 0
M  V30 6843 H 654.684 4.39768 1.90107 0
M  V30 6844 H 653.048 2.29782 1.09874 0
M  V30 6845 H 653.831 3.43053 -0.130329 0
M  V30 6846 N 656.276 -0.40816 1.52223 0
M  V30 6847 C 657.522 -1.15673 1.66576 0
M  V30 6848 C 657.855 -1.90141 0.394996 0
M  V30 6849 O 657.13 -1.84798 -0.606613 0
M  V30 6850 C 657.413 -2.15042 2.88841 0
M  V30 6851 C 657.266 -1.44465 4.25969 0
M  V30 6852 C 658.585 -3.15699 3.0663 0
M  V30 6853 H 655.704 -0.41916 0.606196 0
M  V30 6854 H 658.346 -0.442348 1.84779 0
M  V30 6855 H 656.496 -2.75964 2.73452 0
M  V30 6856 H 658.168 -0.866544 4.53088 0
M  V30 6857 H 656.411 -0.746612 4.27327 0
M  V30 6858 H 657.082 -2.16976 5.07568 0
M  V30 6859 H 659.558 -2.64854 3.20923 0
M  V30 6860 H 658.434 -3.82491 3.9369 0
M  V30 6861 H 658.695 -3.83481 2.19987 0
M  V30 6862 N 657.755 -1.42862 -0.66545 0
M  V30 6863 C 659.003 -1.43546 -1.42264 0
M  V30 6864 C 659.324 -0.0563116 -1.94919 0
M  V30 6865 O 658.594 0.906568 -1.73661 0
M  V30 6866 H 657.174 -0.528464 -0.527953 0
M  V30 6867 H 659.836 -1.78363 -0.785665 0
M  V30 6868 H 658.932 -2.14079 -2.27105 0
M  V30 6869 N 659.233 0.902656 -1.29189 0
M  V30 6870 C 660.48 1.65287 -1.16989 0
M  V30 6871 C 660.808 1.92485 0.279232 0
M  V30 6872 O 660.063 1.53143 1.21843 0
M  V30 6873 C 660.362 3.011 -1.92545 0
M  V30 6874 C 660.028 2.93521 -3.42281 0
M  V30 6875 C 658.69 2.91161 -3.83117 0
M  V30 6876 C 661.042 2.82947 -4.3771 0
M  V30 6877 C 658.37 2.76043 -5.17704 0
M  V30 6878 C 660.722 2.69368 -5.72384 0
M  V30 6879 C 659.386 2.65373 -6.12482 0
M  V30 6880 H 658.656 0.604828 -0.428094 0
M  V30 6881 H 661.303 1.05084 -1.60092 0
M  V30 6882 H 659.608 3.65153 -1.42024 0
M  V30 6883 H 661.305 3.58073 -1.80512 0
M  V30 6884 H 657.895 2.96158 -3.09819 0
M  V30 6885 H 662.079 2.83849 -4.07116 0
M  V30 6886 H 657.335 2.71352 -5.47885 0
M  V30 6887 H 661.509 2.60156 -6.45981 0
M  V30 6888 H 659.136 2.53415 -7.16718 0
M  V30 6889 N 660.711 1.11618 1.11262 0
M  V30 6890 C 661.658 0.7762 2.17356 0
M  V30 6891 C 662.628 -0.253152 1.6416 0
M  V30 6892 O 663.813 -0.129655 1.90359 0
M  V30 6893 C 660.953 0.227581 3.44349 0
M  V30 6894 C 660.066 1.31372 4.1154 0
M  V30 6895 C 659.201 0.72544 5.26223 0
M  V30 6896 C 658.24 1.7913 5.85302 0
M  V30 6897 N 657.377 1.22237 6.91377 0
M  V30 6898 H 662.217 1.68508 2.45783 0
M  V30 6899 H 659.754 0.841475 1.20655 0
M  V30 6900 H 661.712 -0.108483 4.17059 0
M  V30 6901 H 660.342 -0.644486 3.16301 0
M  V30 6902 H 659.394 1.7667 3.36885 0
M  V30 6903 H 660.706 2.12005 4.51504 0
M  V30 6904 H 659.86 0.339541 6.05749 0
M  V30 6905 H 658.599 -0.112188 4.87571 0
M  V30 6906 H 657.604 2.18648 5.04453 0
M  V30 6907 H 658.829 2.63199 6.26022 0
M  V30 6908 H 656.775 0.406423 6.5474 0
M  V30 6909 H 656.692 1.9654 7.30006 0
M  V30 6910 H 657.96 0.863426 7.74703 0
M  V30 6911 N 662.189 -1.289 0.906776 0
M  V30 6912 C 663.466 -1.90221 0.455537 0
M  V30 6913 C 663.846 -1.82251 -1.06527 0
M  V30 6914 O 663.194 -1.25385 -1.91026 0
M  V30 6915 C 663.404 -3.35015 0.97806 0
M  V30 6916 C 664.752 -4.12018 1.02598 0
M  V30 6917 O 665.776 -3.43947 0.926218 0
M  V30 6918 O 664.635 -5.33677 1.17689 0
M  V30 6919 H 661.729 -0.814505 0.143214 0
M  V30 6920 H 664.275 -1.37317 0.997104 0
M  V30 6921 H 663.047 -3.35006 2.02204 0
M  V30 6922 H 662.67 -3.95408 0.416914 0
M  V30 6923 N 663.667 -0.670007 -1.42649 0
M  V30 6924 C 664.892 -0.196955 -2.06463 0
M  V30 6925 C 665.317 1.1352 -1.49983 0
M  V30 6926 O 664.675 1.705 -0.616397 0
M  V30 6927 C 664.723 -0.137381 -3.60338 0
M  V30 6928 O 663.827 0.895523 -4.02559 0
M  V30 6929 H 663.168 -0.102579 -0.656029 0
M  V30 6930 H 665.698 -0.917669 -1.82866 0
M  V30 6931 H 665.708 0.0403625 -4.0798 0
M  V30 6932 H 664.383 -1.10977 -4.0082 0
M  V30 6933 H 662.96 0.689209 -3.66476 0
M  V30 6934 N 665.145 1.52092 -0.413018 0
M  V30 6935 C 666.075 2.30021 0.401567 0
M  V30 6936 C 667.056 1.34395 1.04269 0
M  V30 6937 O 668.241 1.63304 1.05097 0
M  V30 6938 C 665.371 3.12447 1.51638 0
M  V30 6939 C 664.325 4.16153 1.00005 0
M  V30 6940 C 663.651 4.86948 2.20875 0
M  V30 6941 C 664.951 5.22275 0.0513757 0
M  V30 6942 H 666.645 2.98365 -0.248704 0
M  V30 6943 H 664.191 1.4349 -0.121052 0
M  V30 6944 H 666.144 3.65733 2.09326 0
M  V30 6945 H 664.868 2.41879 2.19458 0
M  V30 6946 H 663.527 3.63882 0.445549 0
M  V30 6947 H 663.175 4.12905 2.8726 0
M  V30 6948 H 662.875 5.57057 1.86978 0
M  V30 6949 H 664.399 5.43048 2.79162 0
M  V30 6950 H 665.813 5.70778 0.537176 0
M  V30 6951 H 664.21 5.9977 -0.198977 0
M  V30 6952 H 665.28 4.76611 -0.892736 0
M  V30 6953 N 666.623 0.143563 1.56945 0
M  V30 6954 C 667.872 -0.50835 1.95189 0
M  V30 6955 C 668.185 -1.66239 1.03073 0
M  V30 6956 O 669.391 -2.3787 1.30882 0
M  V30 6957 C 667.847 -0.955735 3.46978 0
M  V30 6958 C 667.455 0.171183 4.47673 0
M  V30 6959 C 669.199 -1.57763 3.94095 0
M  V30 6960 C 667.106 -0.294279 5.90667 0
M  V30 6961 H 666.036 -0.193679 0.728701 0
M  V30 6962 H 668.687 0.227357 1.82086 0
M  V30 6963 H 667.069 -1.7466 3.55401 0
M  V30 6964 H 668.243 0.948049 4.50942 0
M  V30 6965 H 666.558 0.701273 4.10452 0
M  V30 6966 H 669.155 -1.93745 4.98364 0
M  V30 6967 H 669.498 -2.46531 3.35452 0
M  V30 6968 H 670.031 -0.851728 3.88575 0
M  V30 6969 H 666.77 0.557939 6.53121 0
M  V30 6970 H 666.29 -1.0371 5.90766 0
M  V30 6971 H 667.969 -0.747426 6.42668 0
M  V30 6972 N 668.101 -1.57061 -0.130224 0
M  V30 6973 C 669.347 -1.8453 -0.841216 0
M  V30 6974 C 669.68 -0.727666 -1.80052 0
M  V30 6975 O 668.955 0.267419 -1.92653 0
M  V30 6976 C 669.238 -3.22553 -1.60099 0
M  V30 6977 C 669.091 -4.44901 -0.662048 0
M  V30 6978 C 670.41 -3.58003 -2.55973 0
M  V30 6979 H 667.529 -0.671215 -0.304366 0
M  V30 6980 H 670.171 -1.89705 -0.105821 0
M  V30 6981 H 668.321 -3.18272 -2.22789 0
M  V30 6982 H 669.993 -4.61278 -0.0448559 0
M  V30 6983 H 668.236 -4.33791 0.0272253 0
M  V30 6984 H 668.907 -5.3812 -1.23006 0
M  V30 6985 H 671.383 -3.63002 -2.03393 0
M  V30 6986 H 670.259 -4.55576 -3.06172 0
M  V30 6987 H 670.52 -2.84833 -3.38116 0
M  V30 6988 N 669.579 0.400081 -1.52437 0
M  V30 6989 C 670.511 1.50729 -1.72666 0
M  V30 6990 C 671.524 1.51058 -0.607075 0
M  V30 6991 O 672.713 1.5516 -0.88248 0
M  V30 6992 C 669.813 2.89604 -1.76019 0
M  V30 6993 C 668.986 3.13365 -3.05157 0
M  V30 6994 C 668.045 4.32163 -3.00203 0
M  V30 6995 O 667.071 4.29004 -3.74092 0
M  V30 6996 N 668.273 5.3776 -2.18619 0
M  V30 6997 H 671.038 1.33767 -2.68191 0
M  V30 6998 H 668.599 0.58948 -1.50787 0
M  V30 6999 H 670.591 3.67159 -1.70225 0
M  V30 7000 H 669.161 2.99979 -0.879284 0
M  V30 7001 H 668.381 2.23774 -3.24529 0
M  V30 7002 H 669.669 3.26089 -3.90568 0
M  V30 7003 H 669.067 5.43177 -1.58035 0
M  V30 7004 H 667.624 6.14023 -2.18674 0
M  V30 7005 N 671.057 1.43213 0.657864 0
M  V30 7006 C 672.303 1.44798 1.41991 0
M  V30 7007 C 672.636 0.070256 1.94073 0
M  V30 7008 O 671.911 -0.908177 1.71995 0
M  V30 7009 C 672.194 2.4865 2.60471 0
M  V30 7010 C 672.047 3.95679 2.13911 0
M  V30 7011 C 673.366 2.49292 3.62686 0
M  V30 7012 H 670.485 0.527244 0.514959 0
M  V30 7013 H 673.127 1.74733 0.74621 0
M  V30 7014 H 671.277 2.23254 3.17946 0
M  V30 7015 H 672.949 4.32116 1.61472 0
M  V30 7016 H 671.192 4.08733 1.45325 0
M  V30 7017 H 671.863 4.6395 2.99089 0
M  V30 7018 H 674.339 2.71917 3.14961 0
M  V30 7019 H 673.215 3.23907 4.43143 0
M  V30 7020 H 673.476 1.52502 4.14964 0
M  V30 7021 N 672.536 -0.895792 1.29666 0
M  V30 7022 C 673.764 -1.68001 1.20761 0
M  V30 7023 C 674.179 -1.87379 -0.231187 0
M  V30 7024 O 673.536 -1.41359 -1.15429 0
M  V30 7025 C 673.587 -3.06236 1.92098 0
M  V30 7026 O 673.308 -2.8774 3.30359 0
M  V30 7027 C 674.809 -4.00652 1.89717 0
M  V30 7028 H 672.029 -0.524591 0.418384 0
M  V30 7029 H 674.573 -1.11995 1.71106 0
M  V30 7030 H 672.728 -3.59007 1.45578 0
M  V30 7031 H 673.142 -3.75359 3.66342 0
M  V30 7032 H 674.616 -4.95051 2.44189 0
M  V30 7033 H 675.093 -4.30424 0.873595 0
M  V30 7034 H 675.699 -3.53815 2.35998 0
M  V30 7035 N 674.014 -1.12206 -1.10668 0
M  V30 7036 C 675.261 -0.875875 -1.82578 0
M  V30 7037 C 675.589 0.598342 -1.85068 0
M  V30 7038 O 674.844 1.45818 -1.3052 0
M  V30 7039 C 675.143 -1.39276 -3.29146 0
M  V30 7040 C 674.809 -2.8816 -3.46806 0
M  V30 7041 C 673.471 -3.28813 -3.51334 0
M  V30 7042 C 675.823 -3.8401 -3.52399 0
M  V30 7043 C 673.151 -4.64028 -3.59019 0
M  V30 7044 C 675.503 -5.19053 -3.61617 0
M  V30 7045 C 674.167 -5.59252 -3.64408 0
M  V30 7046 H 673.437 -0.320505 -0.6681 0
M  V30 7047 H 676.084 -1.40184 -1.30464 0
M  V30 7048 H 674.389 -0.787207 -3.8381 0
M  V30 7049 H 676.086 -1.17851 -3.83291 0
M  V30 7050 H 672.676 -2.55716 -3.43958 0
M  V30 7051 H 676.86 -3.53698 -3.48154 0
M  V30 7052 H 672.116 -4.94568 -3.59461 0
M  V30 7053 H 676.29 -5.93152 -3.64889 0
M  V30 7054 H 673.917 -6.64017 -3.70116 0
M  V30 7055 N 675.492 1.28418 -0.913599 0
M  V30 7056 C 676.769 1.89977 -0.465619 0
M  V30 7057 C 677.149 1.82813 1.05559 0
M  V30 7058 O 676.497 1.26397 1.90358 0
M  V30 7059 C 676.707 3.34492 -0.995813 0
M  V30 7060 C 678.055 4.11468 -1.04782 0
M  V30 7061 O 679.079 3.43451 -0.944445 0
M  V30 7062 O 677.938 5.33046 -1.20518 0
M  V30 7063 H 675.032 0.813734 -0.147532 0
M  V30 7064 H 677.578 1.36786 -1.00437 0
M  V30 7065 H 676.35 3.33929 -2.03978 0
M  V30 7066 H 675.973 3.95181 -0.437878 0
M  V30 7067 N 676.97 0.677563 1.42291 0
M  V30 7068 C 678.21 0.204894 2.0337 0
M  V30 7069 C 678.574 -1.16744 1.5243 0
M  V30 7070 O 679.775 -1.73492 2.05314 0
M  V30 7071 C 678.046 0.240742 3.56588 0
M  V30 7072 S 679.605 -0.16052 4.38506 0
M  V30 7073 H 676.423 0.0839932 0.706021 0
M  V30 7074 H 679.025 0.891332 1.73999 0
M  V30 7075 H 677.729 1.24184 3.91161 0
M  V30 7076 H 677.26 -0.465439 3.90637 0
M  V30 7077 H 679.275 -1.39315 4.76241 0
M  V30 7078 N 678.448 -1.51871 0.421078 0
M  V30 7079 C 679.725 -1.9447 -0.20993 0
M  V30 7080 C 680.105 -1.35875 -1.61558 0
M  V30 7081 O 679.453 -0.539294 -2.22045 0
M  V30 7082 C 679.663 -3.48402 -0.204165 0
M  V30 7083 C 681.011 -4.2254 -0.417696 0
M  V30 7084 O 682.035 -3.55074 -0.282999 0
M  V30 7085 O 680.894 -5.422 -0.684239 0
M  V30 7086 H 677.988 -0.815283 -0.138718 0
M  V30 7087 H 680.534 -1.62832 0.477884 0
M  V30 7088 H 679.306 -3.83464 0.779183 0
M  V30 7089 H 678.929 -3.86436 -0.935576 0
M  V30 7090 N 679.926 -0.151884 -1.56866 0
M  V30 7091 C 681.166 0.500695 -1.98173 0
M  V30 7092 C 681.53 1.61715 -1.03499 0
M  V30 7093 O 682.731 2.33093 -1.33869 0
M  V30 7094 C 681.002 0.989333 -3.43434 0
M  V30 7095 S 682.561 1.64583 -4.06765 0
M  V30 7096 H 679.379 0.16173 -0.692361 0
M  V30 7097 H 681.981 -0.244754 -1.93962 0
M  V30 7098 H 680.685 0.166072 -4.10064 0
M  V30 7099 H 680.216 1.76929 -3.51368 0
M  V30 7100 H 682.231 2.93326 -4.00218 0
M  V30 7101 N 681.404 1.57128 0.121893 0
M  V30 7102 C 682.367 1.99197 1.13372 0
M  V30 7103 C 683.367 0.881728 1.3447 0
M  V30 7104 O 684.557 1.14783 1.31036 0
M  V30 7105 C 681.689 2.32963 2.4888 0
M  V30 7106 H 682.882 2.89788 0.772204 0
M  V30 7107 H 680.435 1.51952 0.366093 0
M  V30 7108 H 681.17 1.45243 2.89957 0
M  V30 7109 H 680.955 3.13934 2.34921 0
M  V30 7110 H 682.445 2.66261 3.21706 0
M  V30 7111 N 682.882 -0.391992 1.52647 0
M  V30 7112 C 684.122 -1.1463 1.69232 0
M  V30 7113 C 684.486 -1.87312 0.421684 0
M  V30 7114 O 685.687 -2.64768 0.463852 0
M  V30 7115 C 683.958 -2.10088 2.89133 0
M  V30 7116 S 685.517 -2.93395 3.2629 0
M  V30 7117 H 682.335 -0.388076 0.59575 0
M  V30 7118 H 684.937 -0.431149 1.90687 0
M  V30 7119 H 683.641 -1.55408 3.79837 0
M  V30 7120 H 683.172 -2.86116 2.70003 0
M  V30 7121 H 685.187 -4.12193 2.76244 0
M  V30 7122 N 684.36 -1.4356 -0.65026 0
M  V30 7123 C 685.292 -1.44918 -1.77571 0
M  V30 7124 C 686.305 -0.344925 -1.59104 0
M  V30 7125 O 687.494 -0.609537 -1.6777 0
M  V30 7126 C 684.594 -1.24914 -3.15039 0
M  V30 7127 C 683.767 -2.48232 -3.60138 0
M  V30 7128 C 682.826 -2.23409 -4.76419 0
M  V30 7129 O 681.852 -2.9678 -4.85706 0
M  V30 7130 N 683.054 -1.25259 -5.66825 0
M  V30 7131 H 685.819 -2.41935 -1.76883 0
M  V30 7132 H 683.38 -1.38754 -0.834202 0
M  V30 7133 H 685.372 -1.06185 -3.90521 0
M  V30 7134 H 683.942 -0.363319 -3.10481 0
M  V30 7135 H 683.162 -2.82366 -2.75069 0
M  V30 7136 H 684.45 -3.30296 -3.87017 0
M  V30 7137 H 683.848 -0.646246 -5.61997 0
M  V30 7138 H 682.405 -1.12513 -6.42016 0
M  V30 7139 N 685.838 0.888903 -1.30139 0
M  V30 7140 C 686.801 1.97576 -1.16174 0
M  V30 7141 C 687.801 1.60525 -0.094086 0
M  V30 7142 O 688.991 1.70812 -0.341889 0
M  V30 7143 C 686.123 3.3188 -0.778983 0
M  V30 7144 H 687.316 2.11393 -2.12728 0
M  V30 7145 H 684.869 1.0748 -1.1348 0
M  V30 7146 H 685.604 3.23765 0.186225 0
M  V30 7147 H 685.389 3.60141 -1.55051 0
M  V30 7148 H 686.879 4.11612 -0.704631 0
M  V30 7149 N 687.317 1.12792 1.10072 0
M  V30 7150 C 688.249 0.757003 2.16338 0
M  V30 7151 C 689.262 -0.218144 1.61332 0
M  V30 7152 O 690.451 0.0010727 1.785 0
M  V30 7153 C 687.551 0.100303 3.38752 0
M  V30 7154 C 686.724 1.10586 4.2319 0
M  V30 7155 C 685.783 0.47609 5.24042 0
M  V30 7156 O 684.809 1.13418 5.57786 0
M  V30 7157 N 686.011 -0.754823 5.75572 0
M  V30 7158 H 688.776 1.6714 2.48766 0
M  V30 7159 H 686.337 1.02003 1.25726 0
M  V30 7160 H 688.329 -0.333092 4.03327 0
M  V30 7161 H 686.899 -0.716915 3.04268 0
M  V30 7162 H 686.119 1.71677 3.54853 0
M  V30 7163 H 687.407 1.78571 4.76435 0
M  V30 7164 H 686.805 -1.30838 5.50362 0
M  V30 7165 H 685.362 -1.13098 6.41913 0
M  V30 7166 N 688.795 -1.27931 0.920396 0
M  V30 7167 C 689.758 -2.25345 0.41858 0
M  V30 7168 C 690.758 -1.54116 -0.458798 0
M  V30 7169 O 691.948 -1.72235 -0.260912 0
M  V30 7170 C 689.08 -3.38556 -0.399104 0
M  V30 7171 H 690.273 -2.71251 1.27918 0
M  V30 7172 H 687.826 -1.39728 0.700406 0
M  V30 7173 H 688.561 -2.98021 -1.27882 0
M  V30 7174 H 688.346 -3.91426 0.229863 0
M  V30 7175 H 689.836 -4.10976 -0.740817 0
M  V30 7176 N 690.273 -0.685099 -1.4193 0
M  V30 7177 C 691.183 -0.013404 -2.34596 0
M  V30 7178 C 692.199 0.777589 -1.55658 0
M  V30 7179 O 693.375 0.717553 -1.88184 0
M  V30 7180 C 690.44 0.919031 -3.34297 0
M  V30 7181 C 689.501 0.121417 -4.29128 0
M  V30 7182 C 688.734 1.00944 -5.24067 0
M  V30 7183 O 688.957 2.24898 -5.24192 0
M  V30 7184 O 687.891 0.464724 -6.00103 0
M  V30 7185 H 691.717 -0.776978 -2.93593 0
M  V30 7186 H 689.302 -0.445379 -1.42607 0
M  V30 7187 H 691.184 1.45402 -3.9552 0
M  V30 7188 H 689.859 1.66228 -2.77759 0
M  V30 7189 H 688.766 -0.45792 -3.71287 0
M  V30 7190 H 690.099 -0.582937 -4.88736 0
M  V30 7191 N 691.751 1.51645 -0.429126 0
M  V30 7192 C 693.162 1.86665 0.0359003 0
M  V30 7193 C 693.513 1.34677 1.42676 0
M  V30 7194 O 692.638 0.694195 2.04963 0
M  V30 7195 C 693.233 3.38724 0.0719221 0
M  V30 7196 C 691.792 3.7331 0.481336 0
M  V30 7197 C 690.939 2.75313 -0.331329 0
M  V30 7198 H 693.89 1.44987 -0.645333 0
M  V30 7199 H 693.911 3.7011 0.883118 0
M  V30 7200 H 693.423 3.76532 -0.940495 0
M  V30 7201 H 691.524 3.41088 1.49966 0
M  V30 7202 H 691.637 4.78631 0.211837 0
M  V30 7203 H 690.001 2.53839 0.209204 0
M  V30 7204 H 690.784 3.15963 -1.34247 0
M  V30 7205 N 693.229 0.160201 1.56784 0
M  V30 7206 C 694.177 -0.791402 2.18723 0
M  V30 7207 C 695.171 -1.24567 1.14801 0
M  V30 7208 O 696.377 -1.21262 1.33025 0
M  V30 7209 H 692.752 -0.273458 0.700517 0
M  V30 7210 H 694.723 -0.244931 2.97393 0
M  V30 7211 C 693.472 -2.01509 2.83354 0
M  V30 7212 H 692.795 -1.67454 3.63041 0
M  V30 7213 H 694.235 -2.66006 3.30177 0
M  V30 7214 C 692.694 -2.83159 1.82545 0
M  V30 7215 O 693.224 -3.79944 1.30405 0
M  V30 7216 N 691.43 -2.47953 1.51552 0
M  V30 7217 H 690.977 -1.69309 1.94144 0
M  V30 7218 H 690.935 -3.02873 0.843519 0
M  V30 7219 N 694.707 -1.5719 -0.113559 0
M  V30 7220 C 695.932 -1.89702 -0.838336 0
M  V30 7221 C 696.357 -0.752679 -1.72384 0
M  V30 7222 O 695.715 0.296575 -1.78858 0
M  V30 7223 C 695.763 -3.20989 -1.64312 0
M  V30 7224 O 694.867 -3.07278 -2.75053 0
M  V30 7225 H 694.208 -0.622339 -0.231496 0
M  V30 7226 H 696.738 -2.04382 -0.0943228 0
M  V30 7227 H 696.748 -3.53843 -2.03123 0
M  V30 7228 H 695.423 -4.03869 -0.993119 0
M  V30 7229 H 694 -2.85901 -2.39406 0
M  V30 7230 N 696.185 0.383891 -1.52853 0
M  V30 7231 C 697.135 1.46892 -1.74375 0
M  V30 7232 C 698.119 1.49378 -0.597909 0
M  V30 7233 O 699.311 1.54929 -0.855929 0
M  V30 7234 C 696.44 2.84547 -1.92063 0
M  V30 7235 C 695.526 2.8661 -3.12594 0
M  V30 7236 N 695.917 2.58339 -4.3485 0
M  V30 7237 C 694.215 3.17777 -3.12944 0
M  V30 7238 C 694.916 2.67616 -5.16485 0
M  V30 7239 N 693.892 3.01561 -4.52285 0
M  V30 7240 H 697.694 1.23869 -2.66522 0
M  V30 7241 H 695.208 0.591895 -1.51229 0
M  V30 7242 H 697.205 3.62674 -2.05604 0
M  V30 7243 H 695.865 3.08549 -1.01133 0
M  V30 7244 H 696.876 2.32266 -4.62896 0
M  V30 7245 H 693.553 3.47211 -2.31842 0
M  V30 7246 H 694.943 2.4926 -6.23955 0
M  V30 7247 N 697.663 1.43903 0.642637 0
M  V30 7248 C 699.079 1.27536 0.959519 0
M  V30 7249 C 699.279 0.202751 2.00477 0
M  V30 7250 O 698.335 -0.415256 2.49062 0
M  V30 7251 C 699.648 2.6432 1.43372 0
M  V30 7252 C 701.196 2.71937 1.54981 0
M  V30 7253 C 701.671 4.09164 2.05789 0
M  V30 7254 N 703.162 4.11282 2.13076 0
M  V30 7255 C 703.897 5.14303 2.53534 0
M  V30 7256 N 703.393 6.27693 2.93212 0
M  V30 7257 N 705.186 5.01657 2.53567 0
M  V30 7258 H 697.337 2.12344 -0.0488376 0
M  V30 7259 H 699.6 0.947124 0.0407559 0
M  V30 7260 H 699.306 3.43826 0.740048 0
M  V30 7261 H 699.18 2.90432 2.40685 0
M  V30 7262 H 701.567 1.92757 2.23448 0
M  V30 7263 H 701.648 2.49578 0.560739 0
M  V30 7264 H 701.292 4.88815 1.37921 0
M  V30 7265 H 701.222 4.28893 3.05546 0
M  V30 7266 H 703.713 3.2944 1.85143 0
M  V30 7267 H 704.026 7.02125 3.22863 0
M  V30 7268 H 702.371 6.31149 2.90991 0
M  V30 7269 H 705.562 4.12134 2.21952 0
M  V30 7270 H 705.735 5.82072 2.84774 0
M  V30 7271 N 699.141 -0.881989 1.30609 0
M  V30 7272 C 700.381 -1.64817 1.20891 0
M  V30 7273 C 700.745 -1.90593 -0.232043 0
M  V30 7274 O 701.946 -2.64964 -0.452516 0
M  V30 7275 C 700.217 -2.95006 2.01758 0
M  V30 7276 S 701.776 -3.85953 2.08771 0
M  V30 7277 H 698.594 -0.565651 0.430767 0
M  V30 7278 H 701.196 -1.04665 1.65122 0
M  V30 7279 H 699.9 -2.73973 3.0556 0
M  V30 7280 H 699.431 -3.60189 1.582 0
M  V30 7281 H 701.446 -4.81037 1.21727 0
M  V30 7282 N 700.619 -1.13374 -1.09472 0
M  V30 7283 C 701.567 -0.806105 -2.18185 0
M  V30 7284 C 702.561 0.21136 -1.68076 0
M  V30 7285 O 703.767 0.0685558 -1.79869 0
M  V30 7286 H 700.142 -0.242901 -0.71169 0
M  V30 7287 H 702.113 -1.73115 -2.43051 0
M  V30 7288 C 700.862 -0.287928 -3.46506 0
M  V30 7289 H 700.185 -1.06217 -3.85432 0
M  V30 7290 H 701.625 -0.0971054 -4.23889 0
M  V30 7291 C 700.084 0.986256 -3.22141 0
M  V30 7292 O 700.614 2.06217 -3.44728 0
M  V30 7293 N 698.82 0.917153 -2.75747 0
M  V30 7294 H 698.367 0.0414609 -2.57567 0
M  V30 7295 H 698.325 1.77029 -2.59823 0
M  V30 7296 N 702.098 1.27442 -0.927168 0
M  V30 7297 C 703.046 2.28844 -0.416333 0
M  V30 7298 C 704.04 1.61882 0.499057 0
M  V30 7299 O 705.246 1.75969 0.378817 0
M  V30 7300 H 701.621 0.742989 -0.116065 0
M  V30 7301 H 703.592 2.69344 -1.28438 0
M  V30 7302 C 702.341 3.4626 0.316107 0
M  V30 7303 H 701.664 3.97999 -0.379082 0
M  V30 7304 H 703.104 4.19173 0.637975 0
M  V30 7305 C 701.563 3.00211 1.5289 0
M  V30 7306 O 702.093 3.03837 2.62766 0
M  V30 7307 N 700.299 2.55713 1.38054 0
M  V30 7308 H 699.846 2.52962 0.4866 0
M  V30 7309 H 699.804 2.25264 2.19325 0
M  V30 7310 N 703.576 0.692616 1.41565 0
M  V30 7311 C 704.824 0.221896 2.00878 0
M  V30 7312 C 705.145 -1.18164 1.5512 0
M  V30 7313 O 704.415 -1.79679 0.78054 0
M  V30 7314 H 702.995 0.0790463 0.742806 0
M  V30 7315 H 705.657 0.893115 1.73232 0
M  V30 7316 H 704.753 0.23702 3.11199 0
M  V30 7317 N 705.054 -1.51416 0.437162 0
M  V30 7318 C 706.002 -2.29328 -0.388765 0
M  V30 7319 C 706.996 -1.35171 -1.02104 0
M  V30 7320 O 708.202 -1.52513 -0.956024 0
M  V30 7321 H 704.577 -0.738048 -0.144183 0
M  V30 7322 H 706.548 -2.96995 0.289212 0
M  V30 7323 C 705.297 -3.14741 -1.47761 0
M  V30 7324 H 704.62 -3.8708 -1.00045 0
M  V30 7325 H 706.06 -3.72313 -2.02877 0
M  V30 7326 C 704.519 -2.30105 -2.46076 0
M  V30 7327 O 705.049 -1.96055 -3.50607 0
M  V30 7328 N 703.255 -1.93331 -2.1696 0
M  V30 7329 H 702.802 -2.2122 -1.31983 0
M  V30 7330 H 702.76 -1.36999 -2.82982 0
M  V30 7331 N 706.532 -0.168513 -1.56696 0
M  V30 7332 C 707.78 0.476216 -1.96409 0
M  V30 7333 C 708.101 1.63968 -1.05544 0
M  V30 7334 O 707.371 1.95525 -0.121235 0
M  V30 7335 H 705.951 0.178921 -0.725256 0
M  V30 7336 H 708.613 -0.249042 -1.93302 0
M  V30 7337 H 707.709 0.838094 -3.00637 0
M  V30 7338 N 708.01 1.57248 0.105221 0
M  V30 7339 C 709.238 1.89768 0.82437 0
M  V30 7340 C 709.653 0.761192 1.72775 0
M  V30 7341 O 709.01 -0.267342 1.80531 0
M  V30 7342 C 709.061 3.2184 1.64625 0
M  V30 7343 O 708.782 4.31115 0.779217 0
M  V30 7344 C 710.283 3.68155 2.46935 0
M  V30 7345 H 707.503 0.628031 0.236259 0
M  V30 7346 H 710.047 2.04321 0.085485 0
M  V30 7347 H 708.202 3.08915 2.33775 0
M  V30 7348 H 708.616 5.06897 1.34745 0
M  V30 7349 H 710.09 4.6329 3.00111 0
M  V30 7350 H 710.567 2.95492 3.24932 0
M  V30 7351 H 711.173 3.83914 1.83002 0
M  V30 7352 N 709.488 -0.375779 1.53054 0
M  V30 7353 C 710.735 -1.11948 1.68742 0
M  V30 7354 C 711.063 -1.89596 0.434015 0
M  V30 7355 O 710.318 -1.86787 -0.583867 0
M  V30 7356 C 710.617 -2.11356 2.88207 0
M  V30 7357 C 710.283 -1.50266 4.25124 0
M  V30 7358 C 708.945 -1.33333 4.62359 0
M  V30 7359 C 711.297 -1.05976 5.10312 0
M  V30 7360 C 708.625 -0.706765 5.82427 0
M  V30 7361 C 710.977 -0.447241 6.31017 0
M  V30 7362 C 709.641 -0.265314 6.66973 0
M  V30 7363 H 708.911 -0.409648 0.61747 0
M  V30 7364 H 711.558 -0.402492 1.87222 0
M  V30 7365 H 709.863 -2.89322 2.64197 0
M  V30 7366 H 711.56 -2.68833 2.97539 0
M  V30 7367 H 708.15 -1.64437 3.95801 0
M  V30 7368 H 712.334 -1.17855 4.82104 0
M  V30 7369 H 707.59 -0.554132 6.08884 0
M  V30 7370 H 711.764 -0.0958064 6.96334 0
M  V30 7371 H 709.391 0.222267 7.59875 0
M  V30 7372 N 710.966 -1.44241 -0.634997 0
M  V30 7373 C 711.876 -1.53293 -1.77591 0
M  V30 7374 C 712.892 -0.418831 -1.68884 0
M  V30 7375 O 714.068 -0.675619 -1.8973 0
M  V30 7376 C 711.133 -1.47075 -3.13958 0
M  V30 7377 C 710.194 -2.69304 -3.34326 0
M  V30 7378 C 709.427 -2.63374 -4.64187 0
M  V30 7379 O 709.65 -1.69161 -5.44739 0
M  V30 7380 O 708.584 -3.54166 -4.86673 0
M  V30 7381 H 712.41 -2.49673 -1.72908 0
M  V30 7382 H 709.995 -1.26445 -0.795745 0
M  V30 7383 H 711.877 -1.46117 -3.95257 0
M  V30 7384 H 710.552 -0.538373 -3.19192 0
M  V30 7385 H 709.459 -2.75831 -2.52721 0
M  V30 7386 H 710.792 -3.61576 -3.33951 0
M  V30 7387 N 712.444 0.87505 -1.31075 0
M  V30 7388 C 713.684 1.64174 -1.21763 0
M  V30 7389 C 714.048 1.90713 0.221933 0
M  V30 7390 O 715.249 2.652 0.438458 0
M  V30 7391 C 713.52 2.93932 -2.0332 0
M  V30 7392 S 715.079 3.84841 -2.10815 0
M  V30 7393 H 711.897 0.563358 -0.433761 0
M  V30 7394 H 714.499 1.03788 -1.65675 0
M  V30 7395 H 713.203 2.72349 -3.07009 0
M  V30 7396 H 712.734 3.59345 -1.60108 0
M  V30 7397 H 714.749 4.80385 -1.24276 0
M  V30 7398 N 713.922 1.13953 1.08869 0
M  V30 7399 C 715.17 0.903023 1.80803 0
M  V30 7400 C 715.491 -0.572151 1.86417 0
M  V30 7401 O 714.761 -1.41589 1.35386 0
M  V30 7402 H 713.341 0.331099 0.669614 0
M  V30 7403 H 716.003 1.43719 1.31647 0
M  V30 7404 H 715.099 1.29881 2.83791 0
M  V30 7405 N 715.4 -1.26948 0.933913 0
M  V30 7406 C 716.646 -1.94374 0.57848 0
M  V30 7407 C 716.979 -1.73166 -0.879048 0
M  V30 7408 O 716.254 -1.06438 -1.62792 0
M  V30 7409 C 716.537 -3.4834 0.912739 0
M  V30 7410 C 716.39 -3.78866 2.42448 0
M  V30 7411 C 717.709 -4.38062 0.423003 0
M  V30 7412 H 714.828 -0.705959 0.211639 0
M  V30 7413 H 717.47 -1.49951 1.16682 0
M  V30 7414 H 715.62 -3.86309 0.412058 0
M  V30 7415 H 717.292 -3.50654 2.99733 0
M  V30 7416 H 715.535 -3.25198 2.87104 0
M  V30 7417 H 716.206 -4.86458 2.60887 0
M  V30 7418 H 718.682 -4.0728 0.852191 0
M  V30 7419 H 717.558 -5.44599 0.685776 0
M  V30 7420 H 717.819 -4.36886 -0.676994 0
M  V30 7421 N 716.879 -0.700114 -1.41195 0
M  V30 7422 C 718.119 -0.237223 -2.03019 0
M  V30 7423 C 718.483 1.14304 -1.54268 0
M  V30 7424 O 719.684 1.70204 -2.08048 0
M  V30 7425 C 717.955 -0.297442 -3.5616 0
M  V30 7426 S 719.514 0.0907367 -4.38706 0
M  V30 7427 H 716.332 -0.0952147 -0.704596 0
M  V30 7428 H 718.934 -0.918901 -1.72559 0
M  V30 7429 H 717.638 -1.30391 -3.89135 0
M  V30 7430 H 717.169 0.403233 -3.91328 0
M  V30 7431 H 719.184 1.31721 -4.78397 0
M  V30 7432 N 718.357 1.51182 -0.445186 0
M  V30 7433 C 719.773 1.59299 -0.0978954 0
M  V30 7434 C 719.973 1.4555 1.39346 0
M  V30 7435 O 719.029 1.30073 2.16419 0
M  V30 7436 C 720.342 2.94133 -0.625005 0
M  V30 7437 C 721.89 3.07463 -0.586137 0
M  V30 7438 C 722.365 4.44832 -1.09035 0
M  V30 7439 N 723.856 4.51173 -1.04867 0
M  V30 7440 C 724.591 5.55804 -1.40959 0
M  V30 7441 N 724.087 6.67816 -1.84375 0
M  V30 7442 N 725.88 5.46205 -1.32726 0
M  V30 7443 H 718.031 1.58363 -1.41544 0
M  V30 7444 H 720.294 0.746946 -0.58376 0
M  V30 7445 H 720 3.09589 -1.66876 0
M  V30 7446 H 719.874 3.77161 -0.0542262 0
M  V30 7447 H 722.261 2.9167 0.448646 0
M  V30 7448 H 722.342 2.26255 -1.19341 0
M  V30 7449 H 721.986 4.61372 -2.12364 0
M  V30 7450 H 721.916 5.24591 -0.459539 0
M  V30 7451 H 724.407 3.70783 -0.729932 0
M  V30 7452 H 724.72 7.43683 -2.10131 0
M  V30 7453 H 723.065 6.69003 -1.88308 0
M  V30 7454 H 726.256 4.57583 -0.986678 0
M  V30 7455 H 726.429 6.27634 -1.61182 0
M  V30 7456 N 719.835 0.176821 1.56605 0
M  V30 7457 C 721.075 -0.469104 1.98944 0
M  V30 7458 C 721.439 -1.60048 1.06059 0
M  V30 7459 O 722.64 -2.30934 1.3756 0
M  V30 7460 C 720.911 -0.934571 3.44965 0
M  V30 7461 S 722.47 -1.58091 4.09332 0
M  V30 7462 H 719.288 -0.150695 0.694847 0
M  V30 7463 H 721.89 0.27558 1.93548 0
M  V30 7464 H 720.594 -0.100814 4.10276 0
M  V30 7465 H 720.125 -1.71316 3.54139 0
M  V30 7466 H 722.14 -2.86922 4.04834 0
M  V30 7467 N 721.313 -1.57302 -0.09688 0
M  V30 7468 C 722.561 -1.8563 -0.799117 0
M  V30 7469 C 722.882 -0.765263 -1.79356 0
M  V30 7470 O 722.152 0.208657 -1.94786 0
M  V30 7471 H 720.732 -0.684937 -0.298111 0
M  V30 7472 H 723.394 -1.9474 -0.0789341 0
M  V30 7473 H 722.49 -2.82305 -1.3308 0
M  V30 7474 N 722.791 0.367657 -1.53252 0
M  V30 7475 C 724.202 0.944563 -1.61043 0
M  V30 7476 C 724.553 1.90325 -0.476546 0
M  V30 7477 O 723.678 2.12721 0.397333 0
M  V30 7478 C 724.273 1.71992 -2.91898 0
M  V30 7479 C 722.832 2.2462 -3.02031 0
M  V30 7480 C 721.979 1.05799 -2.56324 0
M  V30 7481 H 724.93 0.146516 -1.58022 0
M  V30 7482 H 724.951 2.58095 -2.79584 0
M  V30 7483 H 724.463 1.02192 -3.74404 0
M  V30 7484 H 722.564 2.97668 -2.24108 0
M  V30 7485 H 722.677 2.52644 -4.07073 0
M  V30 7486 H 721.041 1.42435 -2.1115 0
M  V30 7487 H 721.824 0.375008 -3.41246 0
M  V30 7488 N 724.269 1.44576 0.627338 0
M  V30 7489 C 725.517 1.47267 1.38408 0
M  V30 7490 C 725.838 0.107971 1.94701 0
M  V30 7491 O 725.108 -0.860206 1.76004 0
M  V30 7492 H 723.688 0.542276 0.513756 0
M  V30 7493 H 726.35 1.80383 0.738099 0
M  V30 7494 H 725.446 2.20025 2.21349 0
M  V30 7495 N 725.747 -0.868086 1.31537 0
M  V30 7496 C 726.993 -1.62359 1.2252 0
M  V30 7497 C 727.348 -1.91204 -0.214169 0
M  V30 7498 O 726.641 -1.5339 -1.14813 0
M  V30 7499 C 726.835 -2.95889 2.0046 0
M  V30 7500 C 726.664 -2.80082 3.5183 0
M  V30 7501 C 725.434 -2.7917 4.21179 0
M  V30 7502 C 727.632 -2.54805 4.46743 0
M  V30 7503 N 725.614 -2.54433 5.58692 0
M  V30 7504 C 726.985 -2.39349 5.71937 0
M  V30 7505 C 729.04 -2.40165 4.36148 0
M  V30 7506 C 727.743 -2.1074 6.87736 0
M  V30 7507 C 729.769 -2.12945 5.51732 0
M  V30 7508 C 729.131 -1.98278 6.75918 0
M  V30 7509 H 725.23 -0.598381 0.503452 0
M  V30 7510 H 727.814 -1.02156 1.65748 0
M  V30 7511 H 725.985 -3.54095 1.59598 0
M  V30 7512 H 727.717 -3.60734 1.83447 0
M  V30 7513 H 724.472 -2.91621 3.73168 0
M  V30 7514 H 724.896 -2.45029 6.31102 0
M  V30 7515 H 729.538 -2.50231 3.408 0
M  V30 7516 H 727.256 -1.99412 7.8311 0
M  V30 7517 H 730.842 -2.02415 5.45454 0
M  V30 7518 H 729.722 -1.77514 7.63845 0
M  V30 7519 N 727.225 -1.14528 -1.08264 0
M  V30 7520 C 728.155 -0.856356 -2.1723 0
M  V30 7521 C 729.136 0.189251 -1.69044 0
M  V30 7522 O 730.321 0.0456119 -1.94146 0
M  V30 7523 C 727.451 -0.334662 -3.45684 0
M  V30 7524 C 726.405 -1.31588 -4.0727 0
M  V30 7525 C 725.731 -0.653428 -5.30692 0
M  V30 7526 C 727.031 -2.67866 -4.48381 0
M  V30 7527 H 728.725 -1.76755 -2.41657 0
M  V30 7528 H 726.271 -0.851287 -1.16143 0
M  V30 7529 H 728.224 -0.120128 -4.21229 0
M  V30 7530 H 726.948 0.611967 -3.20815 0
M  V30 7531 H 725.607 -1.51661 -3.33758 0
M  V30 7532 H 725.255 0.299054 -5.0211 0
M  V30 7533 H 724.955 -1.30817 -5.72853 0
M  V30 7534 H 726.479 -0.448453 -6.08951 0
M  V30 7535 H 727.893 -2.51692 -5.15096 0
M  V30 7536 H 726.29 -3.29627 -5.01464 0
M  V30 7537 H 727.36 -3.24632 -3.60198 0
M  V30 7538 N 728.703 1.26451 -0.940633 0
M  V30 7539 C 729.951 1.93395 -0.586748 0
M  V30 7540 C 730.272 1.7417 0.876921 0
M  V30 7541 O 729.542 1.097 1.62304 0
M  V30 7542 H 728.122 0.715687 -0.214012 0
M  V30 7543 H 730.784 1.53902 -1.19584 0
M  V30 7544 H 729.88 3.01565 -0.804059 0
M  V30 7545 N 730.181 0.707592 1.40822 0
M  V30 7546 C 731.406 0.251626 2.05868 0
M  V30 7547 C 731.831 -1.09503 1.5294 0
M  V30 7548 O 731.189 -1.68806 0.661385 0
M  V30 7549 C 731.237 0.23287 3.59847 0
M  V30 7550 O 730.341 -0.788477 4.04792 0
M  V30 7551 H 729.682 0.119936 0.653078 0
M  V30 7552 H 732.212 0.96583 1.80369 0
M  V30 7553 H 732.222 0.0678204 4.07944 0
M  V30 7554 H 730.897 1.21565 3.97737 0
M  V30 7555 H 729.474 -0.591802 3.68174 0
M  V30 7556 N 731.66 -1.50943 0.453197 0
M  V30 7557 C 732.592 -2.25922 -0.38623 0
M  V30 7558 C 733.605 -1.3055 -0.972652 0
M  V30 7559 O 734.794 -1.56191 -0.864097 0
M  V30 7560 C 731.894 -3.01176 -1.5539 0
M  V30 7561 C 731.067 -4.23768 -1.0835 0
M  V30 7562 C 730.126 -4.81466 -2.12313 0
M  V30 7563 O 729.152 -5.42875 -1.71101 0
M  V30 7564 N 730.354 -4.66889 -3.44956 0
M  V30 7565 H 733.119 -2.98601 0.256468 0
M  V30 7566 H 730.68 -1.59408 0.282965 0
M  V30 7567 H 732.672 -3.36659 -2.24594 0
M  V30 7568 H 731.242 -2.31409 -2.10163 0
M  V30 7569 H 730.462 -3.93597 -0.217961 0
M  V30 7570 H 731.75 -5.03289 -0.746857 0
M  V30 7571 H 731.148 -4.18011 -3.81161 0
M  V30 7572 H 729.705 -5.06691 -4.1001 0
M  V30 7573 N 733.138 -0.185124 -1.56509 0
M  V30 7574 C 734.378 0.458547 -1.9919 0
M  V30 7575 C 734.742 1.59484 -1.06906 0
M  V30 7576 O 735.943 2.30201 -1.38783 0
M  V30 7577 C 734.214 0.916263 -3.45455 0
M  V30 7578 S 735.773 1.55918 -4.10165 0
M  V30 7579 H 732.591 0.147008 -0.695636 0
M  V30 7580 H 735.193 -0.285841 -1.93399 0
M  V30 7581 H 733.897 0.0790543 -4.10324 0
M  V30 7582 H 733.428 1.69436 -3.55042 0
M  V30 7583 H 735.443 2.84771 -4.0635 0
M  V30 7584 N 734.616 1.57351 0.0885366 0
M  V30 7585 C 735.526 2.05858 1.12516 0
M  V30 7586 C 736.542 0.984758 1.43452 0
M  V30 7587 O 737.718 1.29836 1.53963 0
M  V30 7588 C 734.783 2.47882 2.42395 0
M  V30 7589 C 733.844 3.69487 2.18582 0
M  V30 7590 C 733.077 4.09497 3.42268 0
M  V30 7591 O 733.3 3.49536 4.50755 0
M  V30 7592 O 732.234 5.02406 3.31469 0
M  V30 7593 H 736.06 2.94467 0.743146 0
M  V30 7594 H 733.645 1.46326 0.301507 0
M  V30 7595 H 735.527 2.75509 3.18862 0
M  V30 7596 H 734.202 1.62408 2.8001 0
M  V30 7597 H 733.109 3.46967 1.39875 0
M  V30 7598 H 734.442 4.55761 1.85857 0
M  V30 7599 N 736.094 -0.359525 1.53444 0
M  V30 7600 C 737.334 -1.11014 1.71625 0
M  V30 7601 C 737.698 -1.86376 0.46132 0
M  V30 7602 O 738.899 -2.63724 0.519908 0
M  V30 7603 C 737.17 -2.03907 2.93524 0
M  V30 7604 S 738.729 -2.86408 3.3244 0
M  V30 7605 H 735.547 -0.375352 0.603847 0
M  V30 7606 H 738.149 -0.390604 1.91558 0
M  V30 7607 H 736.853 -1.47316 3.83048 0
M  V30 7608 H 736.384 -2.80324 2.76011 0
M  V30 7609 H 738.399 -4.06241 2.84926 0
M  V30 7610 N 737.572 -1.44907 -0.619662 0
M  V30 7611 C 738.797 -1.52021 -1.41083 0
M  V30 7612 C 739.222 -0.14976 -1.87503 0
M  V30 7613 O 738.58 0.863303 -1.59426 0
M  V30 7614 C 738.628 -2.49911 -2.59955 0
M  V30 7615 O 737.732 -2.00857 -3.60181 0
M  V30 7616 H 737.073 -0.512912 -0.421684 0
M  V30 7617 H 739.603 -1.90149 -0.755282 0
M  V30 7618 H 739.613 -2.68323 -3.07354 0
M  V30 7619 H 738.288 -3.4945 -2.25516 0
M  V30 7620 H 736.865 -1.92265 -3.19513 0
M  V30 7621 N 739.05 0.861098 -1.31996 0
M  V30 7622 C 739.96 2.00154 -1.22374 0
M  V30 7623 C 740.976 1.73447 -0.138631 0
M  V30 7624 O 742.152 1.98191 -0.358104 0
M  V30 7625 C 739.217 3.33696 -0.940645 0
M  V30 7626 C 738.278 3.73668 -2.11355 0
M  V30 7627 C 737.511 5.00837 -1.84386 0
M  V30 7628 O 737.734 5.64996 -0.783287 0
M  V30 7629 O 736.668 5.37787 -2.70313 0
M  V30 7630 H 740.494 2.11207 -2.18233 0
M  V30 7631 H 738.079 0.990768 -1.11822 0
M  V30 7632 H 739.961 4.13756 -0.798987 0
M  V30 7633 H 738.636 3.23698 -0.0121636 0
M  V30 7634 H 737.543 2.94211 -2.31065 0
M  V30 7635 H 738.876 3.88303 -3.02459 0
M  V30 7636 N 740.528 1.15101 1.07655 0
M  V30 7637 C 741.438 0.858869 2.18313 0
M  V30 7638 C 742.454 -0.163641 1.73229 0
M  V30 7639 O 743.63 0.00969541 2.01398 0
M  V30 7640 C 740.695 0.34893 3.4494 0
M  V30 7641 C 739.756 1.43495 4.04608 0
M  V30 7642 C 738.989 0.949253 5.2519 0
M  V30 7643 O 739.212 -0.20636 5.70027 0
M  V30 7644 O 738.146 1.73161 5.76454 0
M  V30 7645 H 741.972 1.78386 2.45788 0
M  V30 7646 H 739.557 0.929876 1.16934 0
M  V30 7647 H 741.439 0.070851 4.2134 0
M  V30 7648 H 740.114 -0.548237 3.19024 0
M  V30 7649 H 739.021 1.7666 3.29761 0
M  V30 7650 H 740.354 2.30692 4.3479 0
M  V30 7651 N 742.006 -1.2595 0.947325 0
M  V30 7652 C 743.283 -1.88676 0.515824 0
M  V30 7653 C 743.663 -1.85547 -1.00675 0
M  V30 7654 O 743.011 -1.31399 -1.8694 0
M  V30 7655 C 743.221 -3.31734 1.08415 0
M  V30 7656 C 744.569 -4.08545 1.15654 0
M  V30 7657 O 745.593 -3.40826 1.03517 0
M  V30 7658 O 744.452 -5.29663 1.34608 0
M  V30 7659 H 741.546 -0.809537 0.169055 0
M  V30 7660 H 744.092 -1.34075 1.04029 0
M  V30 7661 H 742.864 -3.28404 2.1276 0
M  V30 7662 H 742.487 -3.93882 0.542499 0
M  V30 7663 N 743.484 -0.715051 -1.40445 0
M  V30 7664 C 744.714 -0.263576 -2.04912 0
M  V30 7665 C 745.122 1.09943 -1.53978 0
M  V30 7666 O 744.465 1.70203 -0.691133 0
M  V30 7667 C 744.527 -0.165048 -3.59121 0
M  V30 7668 C 744.191 -1.46325 -4.32941 0
M  V30 7669 C 745.188 -2.40506 -4.60926 0
M  V30 7670 C 742.873 -1.72203 -4.7186 0
M  V30 7671 C 744.867 -3.58812 -5.26814 0
M  V30 7672 C 742.554 -2.9079 -5.3748 0
M  V30 7673 C 743.552 -3.83917 -5.64887 0
M  V30 7674 O 743.24 -5.00424 -6.29151 0
M  V30 7675 H 742.972 -0.116317 -0.665918 0
M  V30 7676 H 745.526 -0.973774 -1.8085 0
M  V30 7677 H 743.756 0.601088 -3.82 0
M  V30 7678 H 745.445 0.251794 -4.05118 0
M  V30 7679 H 746.211 -2.21778 -4.31323 0
M  V30 7680 H 742.09 -1.00571 -4.49896 0
M  V30 7681 H 745.634 -4.31517 -5.48123 0
M  V30 7682 H 741.531 -3.09428 -5.66502 0
M  V30 7683 H 742.299 -5.00494 -6.47648 0
M  V30 7684 N 744.962 1.50701 -0.461195 0
M  V30 7685 C 746.378 1.59187 -0.114786 0
M  V30 7686 C 746.578 1.4702 1.37794 0
M  V30 7687 O 745.634 1.32361 2.15027 0
M  V30 7688 C 746.947 2.93453 -0.656167 0
M  V30 7689 C 748.495 3.06824 -0.618715 0
M  V30 7690 C 748.97 4.4365 -1.13747 0
M  V30 7691 N 750.461 4.50035 -1.09646 0
M  V30 7692 C 751.196 5.54278 -1.46846 0
M  V30 7693 N 750.692 6.65822 -1.91448 0
M  V30 7694 N 752.485 5.44767 -1.38512 0
M  V30 7695 H 744.636 1.56853 -1.43216 0
M  V30 7696 H 746.899 0.740712 -0.59165 0
M  V30 7697 H 746.605 3.07802 -1.7015 0
M  V30 7698 H 746.479 3.77082 -0.0942261 0
M  V30 7699 H 748.866 2.92129 0.417685 0
M  V30 7700 H 748.947 2.24976 -1.21734 0
M  V30 7701 H 748.591 4.59093 -2.17245 0
M  V30 7702 H 748.521 5.24074 -0.515153 0
M  V30 7703 H 751.012 3.69988 -0.769217 0
M  V30 7704 H 751.325 7.41413 -2.18007 0
M  V30 7705 H 749.67 6.66968 -1.95393 0
M  V30 7706 H 752.861 4.56511 -1.03516 0
M  V30 7707 H 753.034 6.25889 -1.6783 0
M  V30 7708 N 746.441 0.193421 1.56409 0
M  V30 7709 C 747.852 -0.319471 1.83946 0
M  V30 7710 C 748.203 -1.61505 1.11403 0
M  V30 7711 O 747.328 -2.13139 0.374289 0
M  V30 7712 C 747.923 -0.586411 3.33686 0
M  V30 7713 C 746.482 -1.04368 3.61641 0
M  V30 7714 C 745.629 -0.0913834 2.77149 0
M  V30 7715 H 748.58 0.417242 1.53117 0
M  V30 7716 H 748.601 -1.43591 3.52366 0
M  V30 7717 H 748.113 0.356701 3.86457 0
M  V30 7718 H 746.214 -2.00113 3.14302 0
M  V30 7719 H 746.327 -0.937549 4.69837 0
M  V30 7720 H 744.691 -0.592954 2.47702 0
M  V30 7721 H 745.474 0.846142 3.32709 0
M  V30 7722 N 747.919 -1.57396 -0.0801906 0
M  V30 7723 C 749.144 -1.91437 -0.797909 0
M  V30 7724 C 749.569 -0.789075 -1.70749 0
M  V30 7725 O 748.927 0.25857 -1.79447 0
M  V30 7726 C 748.975 -3.24402 -1.57467 0
M  V30 7727 O 748.079 -3.13043 -2.68473 0
M  V30 7728 H 747.42 -0.627109 -0.218243 0
M  V30 7729 H 749.95 -2.04537 -0.050949 0
M  V30 7730 H 749.96 -3.58072 -1.95571 0
M  V30 7731 H 748.635 -4.05884 -0.907229 0
M  V30 7732 H 747.212 -2.90915 -2.33287 0
M  V30 7733 N 749.397 0.351382 -1.53633 0
M  V30 7734 C 750.329 1.45159 -1.77374 0
M  V30 7735 C 751.342 1.4905 -0.654826 0
M  V30 7736 O 752.531 1.52274 -0.931396 0
M  V30 7737 C 749.631 2.83858 -1.85143 0
M  V30 7738 C 748.804 3.03498 -3.14972 0
M  V30 7739 C 747.863 4.22393 -3.138 0
M  V30 7740 O 746.889 4.16885 -3.87551 0
M  V30 7741 N 748.091 5.30533 -2.35617 0
M  V30 7742 H 750.856 1.25167 -2.72311 0
M  V30 7743 H 748.417 0.54121 -1.52586 0
M  V30 7744 H 750.409 3.61557 -1.8182 0
M  V30 7745 H 748.979 2.9703 -0.974275 0
M  V30 7746 H 748.199 2.13336 -3.31484 0
M  V30 7747 H 749.487 3.13498 -4.00745 0
M  V30 7748 H 748.885 5.37875 -1.75235 0
M  V30 7749 H 747.442 6.06756 -2.38098 0
M  V30 7750 N 750.875 1.45233 0.611969 0
M  V30 7751 C 751.807 1.49575 1.73666 0
M  V30 7752 C 752.82 0.386987 1.58134 0
M  V30 7753 O 754.009 0.653804 1.66095 0
M  V30 7754 C 751.109 1.33223 3.11617 0
M  V30 7755 C 750.282 2.57694 3.5343 0
M  V30 7756 C 749.341 2.35962 4.70328 0
M  V30 7757 O 748.367 3.09553 4.77667 0
M  V30 7758 N 749.569 1.40243 5.63305 0
M  V30 7759 H 752.334 2.46539 1.70407 0
M  V30 7760 H 749.895 1.40917 0.79712 0
M  V30 7761 H 751.887 1.16502 3.87569 0
M  V30 7762 H 750.457 0.44551 3.09409 0
M  V30 7763 H 749.677 2.8956 2.67486 0
M  V30 7764 H 750.965 3.40441 3.78124 0
M  V30 7765 H 750.363 0.795023 5.60086 0
M  V30 7766 H 748.92 1.29496 6.38807 0
M  V30 7767 N 752.353 -0.854086 1.3245 0
M  V30 7768 C 753.63 -1.59188 1.1366 0
M  V30 7769 C 754.01 -2.08917 -0.302807 0
M  V30 7770 O 753.358 -1.8795 -1.29951 0
M  V30 7771 C 753.568 -2.73757 2.16467 0
M  V30 7772 C 754.916 -3.43323 2.49829 0
M  V30 7773 O 755.94 -2.83983 2.15017 0
M  V30 7774 O 754.799 -4.50409 3.09506 0
M  V30 7775 H 751.893 -0.701092 0.438633 0
M  V30 7776 H 754.439 -0.898165 1.43983 0
M  V30 7777 H 753.211 -2.3454 3.1322 0
M  V30 7778 H 752.834 -3.50804 1.87142 0
M  V30 7779 N 753.831 -1.1567 -1.07043 0
M  V30 7780 C 754.741 -0.870435 -2.17855 0
M  V30 7781 C 755.757 0.154452 -1.73313 0
M  V30 7782 O 756.933 -0.0203759 -2.0139 0
M  V30 7783 C 753.998 -0.367219 -3.4475 0
M  V30 7784 C 753.059 -1.45639 -4.03841 0
M  V30 7785 C 752.292 -0.977092 -5.2468 0
M  V30 7786 O 752.515 0.176127 -5.70128 0
M  V30 7787 O 751.449 -1.76215 -5.75527 0
M  V30 7788 H 755.275 -1.79687 -2.44839 0
M  V30 7789 H 752.86 -0.936064 -1.1644 0
M  V30 7790 H 754.742 -0.0931947 -4.21297 0
M  V30 7791 H 753.417 0.53131 -3.1931 0
M  V30 7792 H 752.324 -1.78406 -3.28819 0
M  V30 7793 H 753.657 -2.32995 -4.3356 0
M  V30 7794 N 755.309 1.25446 -0.953992 0
M  V30 7795 C 756.549 1.94894 -0.616087 0
M  V30 7796 C 756.913 1.73067 0.831374 0
M  V30 7797 O 758.114 2.3643 1.27884 0
M  V30 7798 C 756.385 3.44147 -0.964225 0
M  V30 7799 S 757.944 4.32536 -0.738798 0
M  V30 7800 H 754.762 0.673967 -0.226472 0
M  V30 7801 H 757.364 1.52117 -1.22803 0
M  V30 7802 H 756.068 3.57537 -2.01484 0
M  V30 7803 H 755.599 3.91906 -0.342507 0
M  V30 7804 H 757.614 4.94659 0.390732 0
M  V30 7805 N 756.787 0.722489 1.40064 0
M  V30 7806 C 758.012 0.273446 2.05589 0
M  V30 7807 C 758.437 -1.07875 1.54093 0
M  V30 7808 O 757.795 -1.68095 0.679252 0
M  V30 7809 C 757.843 0.271023 3.5958 0
M  V30 7810 O 756.947 -0.745499 4.05606 0
M  V30 7811 H 756.288 0.126856 0.65177 0
M  V30 7812 H 758.818 0.984906 1.79334 0
M  V30 7813 H 758.828 0.111084 4.07849 0
M  V30 7814 H 757.503 1.25776 3.96425 0
M  V30 7815 H 756.08 -0.552719 3.68781 0
M  V30 7816 N 758.265 -1.50454 0.469181 0
M  V30 7817 C 759.676 -1.86695 0.0136034 0
M  V30 7818 C 760.027 -1.38413 -1.39055 0
M  V30 7819 O 759.152 -0.748294 -2.03051 0
M  V30 7820 C 759.747 -3.38795 0.0179098 0
M  V30 7821 C 758.306 -3.74455 -0.382191 0
M  V30 7822 C 757.453 -2.74338 0.404207 0
M  V30 7823 H 760.404 -1.43225 0.683547 0
M  V30 7824 H 760.425 -3.72321 -0.78468 0
M  V30 7825 H 759.937 -3.73906 1.04 0
M  V30 7826 H 758.038 -3.44944 -1.4087 0
M  V30 7827 H 758.151 -4.79025 -0.084862 0
M  V30 7828 H 756.515 -2.54305 -0.141829 0
M  V30 7829 H 757.298 -3.12293 1.42577 0
M  V30 7830 N 759.743 -0.201713 -1.56304 0
M  V30 7831 C 761.159 0.154025 -1.58855 0
M  V30 7832 C 761.359 1.60516 -1.21807 0
M  V30 7833 O 760.415 2.34193 -0.94393 0
M  V30 7834 C 761.728 -0.154319 -3.00304 0
M  V30 7835 C 763.276 -0.0949578 -3.12856 0
M  V30 7836 C 763.751 -0.376703 -4.56448 0
M  V30 7837 N 765.242 -0.325558 -4.62054 0
M  V30 7838 C 765.977 -0.51732 -5.71062 0
M  V30 7839 N 765.473 -0.769789 -6.8851 0
M  V30 7840 N 767.266 -0.45112 -5.60287 0
M  V30 7841 H 759.417 -1.14858 -1.78666 0
M  V30 7842 H 761.68 -0.458934 -0.829508 0
M  V30 7843 H 761.386 -1.16074 -3.31994 0
M  V30 7844 H 761.26 0.540014 -3.73314 0
M  V30 7845 H 763.647 0.902075 -2.80974 0
M  V30 7846 H 763.728 -0.822468 -2.42217 0
M  V30 7847 H 763.372 -1.37108 -4.89044 0
M  V30 7848 H 763.302 0.371772 -5.25286 0
M  V30 7849 H 765.793 -0.137308 -3.7765 0
M  V30 7850 H 766.106 -0.904744 -7.67486 0
M  V30 7851 H 764.451 -0.806758 -6.90302 0
M  V30 7852 H 767.642 -0.254253 -4.67409 0
M  V30 7853 H 767.815 -0.603982 -6.45179 0
M  V30 7854 N 761.222 1.57436 0.0718424 0
M  V30 7855 C 762.132 2.07039 1.10326 0
M  V30 7856 C 763.148 0.999918 1.424 0
M  V30 7857 O 764.324 1.31462 1.52577 0
M  V30 7858 C 761.389 2.50439 2.39752 0
M  V30 7859 C 760.45 3.71784 2.14651 0
M  V30 7860 C 759.683 4.13104 3.37906 0
M  V30 7861 O 759.906 3.54298 4.47023 0
M  V30 7862 O 758.84 5.05894 3.26121 0
M  V30 7863 H 762.666 2.95239 0.711872 0
M  V30 7864 H 760.251 1.46638 0.28597 0
M  V30 7865 H 762.133 2.78876 3.15921 0
M  V30 7866 H 760.808 1.65368 2.78271 0
M  V30 7867 H 759.715 3.48431 1.36187 0
M  V30 7868 H 761.048 4.57707 1.81012 0
M  V30 7869 N 762.7 -0.34323 1.53817 0
M  V30 7870 C 763.948 -1.0813 1.70741 0
M  V30 7871 C 764.269 -1.89165 0.473461 0
M  V30 7872 O 763.539 -1.89075 -0.512605 0
M  V30 7873 H 762.119 -0.40219 0.629486 0
M  V30 7874 H 764.781 -0.384426 1.91071 0
M  V30 7875 H 763.877 -1.7585 2.57843 0
M  V30 7876 N 764.178 -1.45556 -0.604258 0
M  V30 7877 C 765.11 -1.50494 -1.72871 0
M  V30 7878 C 766.123 -0.395368 -1.57926 0
M  V30 7879 O 767.312 -0.662603 -1.65746 0
M  V30 7880 C 764.412 -1.34874 -3.10906 0
M  V30 7881 C 763.585 -2.59564 -3.52058 0
M  V30 7882 C 762.644 -2.38453 -4.6907 0
M  V30 7883 O 761.67 -3.12082 -4.76018 0
M  V30 7884 N 762.872 -1.43229 -5.62553 0
M  V30 7885 H 765.637 -2.4744 -1.69097 0
M  V30 7886 H 763.198 -1.41338 -0.789636 0
M  V30 7887 H 765.19 -1.18556 -3.86945 0
M  V30 7888 H 763.76 -0.461913 -3.09168 0
M  V30 7889 H 762.98 -2.90974 -2.65946 0
M  V30 7890 H 764.268 -3.42441 -3.76313 0
M  V30 7891 H 763.666 -0.824714 -5.59656 0
M  V30 7892 H 762.223 -1.32882 -6.38111 0
M  V30 7893 N 765.656 0.84705 -1.32902 0
M  V30 7894 C 767.067 1.41785 -1.21466 0
M  V30 7895 C 767.418 1.95464 0.169767 0
M  V30 7896 O 766.543 1.88157 1.06892 0
M  V30 7897 C 767.138 2.57734 -2.19906 0
M  V30 7898 C 765.697 3.10791 -2.12334 0
M  V30 7899 C 764.844 1.83562 -2.07847 0
M  V30 7900 H 767.795 0.653532 -1.44619 0
M  V30 7901 H 767.816 3.35123 -1.80202 0
M  V30 7902 H 767.328 2.18635 -3.20656 0
M  V30 7903 H 765.429 3.54455 -1.14858 0
M  V30 7904 H 765.542 3.71519 -3.02506 0
M  V30 7905 H 763.906 2.03475 -1.53199 0
M  V30 7906 H 764.689 1.4667 -3.10392 0
M  V30 7907 N 767.134 1.16236 1.06428 0
M  V30 7908 C 768.38 0.944431 1.79467 0
M  V30 7909 C 768.713 -0.526558 1.86925 0
M  V30 7910 O 767.988 -1.39061 1.35986 0
M  V30 7911 C 768.271 1.57092 3.24028 0
M  V30 7912 C 768.124 3.11315 3.24658 0
M  V30 7913 C 769.443 1.26447 4.21544 0
M  V30 7914 H 766.562 0.344521 0.651517 0
M  V30 7915 H 769.204 1.43545 1.24478 0
M  V30 7916 H 767.354 1.15337 3.70985 0
M  V30 7917 H 769.026 3.62042 2.85873 0
M  V30 7918 H 767.269 3.44716 2.6335 0
M  V30 7919 H 767.94 3.50269 4.26633 0
M  V30 7920 H 770.416 1.62581 3.83023 0
M  V30 7921 H 769.292 1.72885 5.20963 0
M  V30 7922 H 769.553 0.183068 4.41721 0
M  V30 7923 N 768.612 -1.24939 0.960631 0
M  V30 7924 C 769.852 -1.94565 0.626414 0
M  V30 7925 C 770.216 -1.73505 -0.822184 0
M  V30 7926 O 771.417 -2.37105 -1.26628 0
M  V30 7927 C 769.688 -3.43631 0.982462 0
M  V30 7928 S 771.247 -4.32138 0.761726 0
M  V30 7929 H 768.065 -0.672757 0.230043 0
M  V30 7930 H 770.667 -1.51464 1.23608 0
M  V30 7931 H 769.371 -3.56463 2.03377 0
M  V30 7932 H 768.902 -3.91719 0.363286 0
M  V30 7933 H 770.917 -4.94859 -0.364493 0
M  V30 7934 N 770.09 -0.729906 -1.39679 0
M  V30 7935 C 771.315 -0.284345 -2.05442 0
M  V30 7936 C 771.74 1.07056 -1.54663 0
M  V30 7937 O 771.098 1.67732 -0.688157 0
M  V30 7938 C 771.146 -0.290089 -3.59431 0
M  V30 7939 O 770.25 0.723978 -4.05995 0
M  V30 7940 H 769.591 -0.130311 -0.651088 0
M  V30 7941 H 772.121 -0.994403 -1.78809 0
M  V30 7942 H 772.131 -0.132712 -4.07784 0
M  V30 7943 H 770.806 -1.27877 -3.95753 0
M  V30 7944 H 769.383 0.533154 -3.69069 0
M  V30 7945 N 771.568 1.50203 -0.477153 0
M  V30 7946 C 772.5 2.26508 0.350239 0
M  V30 7947 C 773.513 1.32081 0.95176 0
M  V30 7948 O 774.702 1.57546 0.839139 0
M  V30 7949 C 771.802 3.0361 1.50579 0
M  V30 7950 C 770.975 4.25438 1.01595 0
M  V30 7951 C 770.034 4.84783 2.04626 0
M  V30 7952 O 769.06 5.45528 1.62442 0
M  V30 7953 N 770.262 4.72318 3.37485 0
M  V30 7954 H 773.027 2.98155 -0.30394 0
M  V30 7955 H 770.588 1.58938 -0.308289 0
M  V30 7956 H 772.58 3.4019 2.1921 0
M  V30 7957 H 771.15 2.34724 2.06455 0
M  V30 7958 H 770.37 3.93894 0.155316 0
M  V30 7959 H 771.658 5.04413 0.666694 0
M  V30 7960 H 771.056 4.24022 3.74462 0
M  V30 7961 H 769.613 5.13149 4.01897 0
M  V30 7962 N 773.046 0.209999 1.56195 0
M  V30 7963 C 774.462 -0.145598 1.58934 0
M  V30 7964 C 774.662 -1.59868 1.22656 0
M  V30 7965 O 773.718 -2.33689 0.956336 0
M  V30 7966 C 775.031 0.170243 3.00218 0
M  V30 7967 C 776.579 0.111548 3.12801 0
M  V30 7968 C 777.054 0.400904 4.56242 0
M  V30 7969 N 778.545 0.350058 4.61875 0
M  V30 7970 C 779.28 0.547598 5.70779 0
M  V30 7971 N 778.776 0.806291 6.88092 0
M  V30 7972 N 780.569 0.480827 5.6004 0
M  V30 7973 H 772.72 1.15804 1.78054 0
M  V30 7974 H 774.983 0.463326 0.827063 0
M  V30 7975 H 774.689 1.17833 3.31373 0
M  V30 7976 H 774.563 -0.520208 3.73596 0
M  V30 7977 H 776.95 -0.887162 2.81449 0
M  V30 7978 H 777.031 0.835302 2.41777 0
M  V30 7979 H 776.675 1.397 4.8831 0
M  V30 7980 H 776.605 -0.34391 5.25476 0
M  V30 7981 H 779.096 0.157334 3.77572 0
M  V30 7982 H 779.409 0.945433 7.66995 0
M  V30 7983 H 777.754 0.843355 6.89864 0
M  V30 7984 H 780.945 0.279037 4.67268 0
M  V30 7985 H 781.118 0.638189 6.4485 0
M  V30 7986 N 774.524 -1.57472 -0.0634922 0
M  V30 7987 C 775.772 -1.87283 -0.759563 0
M  V30 7988 C 776.093 -0.803135 -1.77693 0
M  V30 7989 O 775.363 0.167293 -1.95184 0
M  V30 7990 H 773.943 -0.691106 -0.283516 0
M  V30 7991 H 776.605 -1.94864 -0.0376091 0
M  V30 7992 H 775.701 -2.85064 -1.27062 0
M  V30 7993 N 776.003 0.335068 -1.53997 0
M  V30 7994 C 776.913 1.43511 -1.85585 0
M  V30 7995 C 777.929 1.57162 -0.746726 0
M  V30 7996 O 779.105 1.72477 -1.03988 0
M  V30 7997 C 776.17 2.78386 -2.06646 0
M  V30 7998 C 775.231 2.74007 -3.30483 0
M  V30 7999 C 774.464 4.02449 -3.50529 0
M  V30 8000 O 774.687 5.00147 -2.74242 0
M  V30 8001 O 773.621 4.06405 -4.4398 0
M  V30 8002 H 777.447 1.19731 -2.79102 0
M  V30 8003 H 775.032 0.528033 -1.39758 0
M  V30 8004 H 776.914 3.58247 -2.21894 0
M  V30 8005 H 775.589 3.0208 -1.16317 0
M  V30 8006 H 774.496 1.92736 -3.2063 0
M  V30 8007 H 775.829 2.55267 -4.20832 0
M  V30 8008 N 777.481 1.45874 0.596531 0
M  V30 8009 C 778.721 1.52015 1.36641 0
M  V30 8010 C 779.085 0.16226 1.91313 0
M  V30 8011 O 780.286 0.0983889 2.6862 0
M  V30 8012 C 778.557 2.57776 2.4756 0
M  V30 8013 S 780.116 2.83223 3.35157 0
M  V30 8014 H 776.934 0.537251 0.465706 0
M  V30 8015 H 779.536 1.83024 0.687205 0
M  V30 8016 H 778.24 3.55091 2.05764 0
M  V30 8017 H 777.771 2.28455 3.20269 0
M  V30 8018 H 779.786 2.17442 4.4602 0
M  V30 8019 N 778.959 -0.83999 1.33349 0
M  V30 8020 C 779.889 -1.965 1.26135 0
M  V30 8021 C 780.87 -1.69505 0.142152 0
M  V30 8022 O 782.055 -1.91346 0.331743 0
M  V30 8023 C 779.185 -3.32632 0.99866 0
M  V30 8024 C 778.139 -3.74021 2.08068 0
M  V30 8025 C 777.465 -5.07947 1.67014 0
M  V30 8026 C 778.765 -3.87925 3.49731 0
M  V30 8027 H 780.459 -2.02793 2.20262 0
M  V30 8028 H 778.005 -0.974297 1.06035 0
M  V30 8029 H 779.958 -4.10903 0.934696 0
M  V30 8030 H 778.682 -3.26593 0.0217759 0
M  V30 8031 H 777.341 -2.98012 2.13505 0
M  V30 8032 H 776.989 -4.98378 0.680316 0
M  V30 8033 H 776.689 -5.36611 2.39422 0
M  V30 8034 H 778.213 -5.88695 1.62082 0
M  V30 8035 H 779.627 -4.5651 3.46802 0
M  V30 8036 H 778.024 -4.28023 4.20614 0
M  V30 8037 H 779.094 -2.90407 3.88319 0
M  V30 8038 N 780.437 -1.16799 -1.0581 0
M  V30 8039 C 781.677 -0.963264 -1.80279 0
M  V30 8040 C 782.041 0.499671 -1.85384 0
M  V30 8041 O 783.242 0.823264 -2.55882 0
M  V30 8042 C 781.513 -1.57938 -3.20609 0
M  V30 8043 S 783.072 -1.51997 -4.11634 0
M  V30 8044 H 779.89 -0.346302 -0.620964 0
M  V30 8045 H 782.492 -1.48632 -1.26999 0
M  V30 8046 H 781.196 -2.63672 -3.14492 0
M  V30 8047 H 780.727 -1.05586 -3.78966 0
M  V30 8048 H 782.742 -0.523625 -4.93429 0
M  V30 8049 N 781.915 1.24427 -0.967243 0
M  V30 8050 C 783.163 1.92107 -0.627638 0
M  V30 8051 C 783.484 1.75991 0.83978 0
M  V30 8052 O 782.754 1.13118 1.59941 0
M  V30 8053 H 781.334 0.710986 -0.229145 0
M  V30 8054 H 783.996 1.51331 -1.22821 0
M  V30 8055 H 783.092 2.99791 -0.867844 0
M  V30 8056 N 783.393 0.737304 1.3929 0
M  V30 8057 C 784.325 0.0592106 2.29124 0
M  V30 8058 C 785.338 -0.701026 1.46934 0
M  V30 8059 O 786.527 -0.544808 1.69983 0
M  V30 8060 C 783.627 -0.940358 3.25592 0
M  V30 8061 C 782.8 -0.241163 4.36735 0
M  V30 8062 C 781.859 -1.14916 5.13498 0
M  V30 8063 O 780.885 -0.625783 5.6575 0
M  V30 8064 N 782.087 -2.47869 5.2492 0
M  V30 8065 H 784.852 0.830647 2.87959 0
M  V30 8066 H 782.413 0.586718 1.50895 0
M  V30 8067 H 784.405 -1.55046 3.73822 0
M  V30 8068 H 782.975 -1.61299 2.67771 0
M  V30 8069 H 782.195 0.549441 3.90352 0
M  V30 8070 H 783.483 0.243299 5.08218 0
M  V30 8071 H 782.881 -2.92864 4.83991 0
M  V30 8072 H 781.438 -3.03969 5.76581 0
M  V30 8073 N 784.871 -1.49948 0.485112 0
M  V30 8074 C 786.111 -2.04301 -0.0635728 0
M  V30 8075 C 786.475 -1.35804 -1.35725 0
M  V30 8076 O 787.676 -1.80789 -1.98919 0
M  V30 8077 C 785.947 -3.56666 -0.228962 0
M  V30 8078 S 787.506 -4.32614 -0.734185 0
M  V30 8079 H 784.324 -0.710939 -0.00931895 0
M  V30 8080 H 786.926 -1.84185 0.655455 0
M  V30 8081 H 785.63 -4.04068 0.718148 0
M  V30 8082 H 785.161 -3.8116 -0.973696 0
M  V30 8083 H 787.176 -4.53859 -2.00565 0
M  V30 8084 N 786.349 -0.21828 -1.56081 0
M  V30 8085 C 787.595 0.414921 -1.9851 0
M  V30 8086 C 787.928 1.59648 -1.10573 0
M  V30 8087 O 787.203 1.93818 -0.162695 0
M  V30 8088 C 787.486 0.852647 -3.4986 0
M  V30 8089 C 787.339 -0.33232 -4.48571 0
M  V30 8090 C 788.658 1.70998 -4.05521 0
M  V30 8091 H 785.777 0.149344 -0.72171 0
M  V30 8092 H 788.419 -0.313858 -1.8739 0
M  V30 8093 H 786.569 1.47362 -3.59467 0
M  V30 8094 H 788.241 -0.970418 -4.50977 0
M  V30 8095 H 786.484 -0.980302 -4.22578 0
M  V30 8096 H 787.155 0.0168407 -5.51997 0
M  V30 8097 H 789.631 1.18606 -3.98838 0
M  V30 8098 H 788.507 1.98517 -5.11744 0
M  V30 8099 H 788.768 2.67219 -3.52202 0
M  V30 8100 N 787.827 1.57504 0.0551401 0
M  V30 8101 C 789.067 1.89895 0.756252 0
M  V30 8102 C 789.431 0.813983 1.73892 0
M  V30 8103 O 790.632 1.02145 2.48636 0
M  V30 8104 C 788.903 3.27494 1.43116 0
M  V30 8105 S 790.462 3.81669 2.16504 0
M  V30 8106 H 787.28 0.665173 0.251129 0
M  V30 8107 H 789.882 1.95496 0.0117193 0
M  V30 8108 H 788.586 4.04345 0.702391 0
M  V30 8109 H 788.117 3.25132 2.21479 0
M  V30 8110 H 790.132 3.58295 3.43277 0
M  V30 8111 N 789.305 -0.326896 1.54172 0
M  V30 8112 C 790.255 -1.40319 1.79707 0
M  V30 8113 C 791.239 -1.47056 0.652938 0
M  V30 8114 O 792.431 -1.51645 0.91284 0
M  V30 8115 C 789.56 -2.77222 2.02491 0
M  V30 8116 C 788.646 -2.74811 3.23016 0
M  V30 8117 N 789.037 -2.42022 4.44138 0
M  V30 8118 C 787.335 -3.05943 3.24522 0
M  V30 8119 C 788.036 -2.48263 5.26061 0
M  V30 8120 N 787.012 -2.84567 4.63166 0
M  V30 8121 H 790.814 -1.13892 2.70935 0
M  V30 8122 H 788.328 -0.53536 1.53322 0
M  V30 8123 H 790.325 -3.54793 2.18923 0
M  V30 8124 H 788.985 -3.04582 1.12515 0
M  V30 8125 H 789.996 -2.14926 4.71197 0
M  V30 8126 H 786.673 -3.38367 2.44569 0
M  V30 8127 H 788.063 -2.2593 6.32776 0
M  V30 8128 N 790.784 -1.46188 -0.588786 0
M  V30 8129 C 792.009 -1.5498 -1.37826 0
M  V30 8130 C 792.434 -0.189498 -1.87143 0
M  V30 8131 O 791.792 0.829293 -1.61222 0
M  V30 8132 C 791.84 -2.55369 -2.54596 0
M  V30 8133 O 790.944 -2.08452 -3.55839 0
M  V30 8134 H 790.285 -0.521741 -0.41071 0
M  V30 8135 H 792.815 -1.91708 -0.714779 0
M  V30 8136 H 792.825 -2.74782 -3.01594 0
M  V30 8137 H 791.5 -3.54155 -2.18052 0
M  V30 8138 H 790.077 -1.98999 -3.15363 0
M  V30 8139 N 792.262 0.832906 -1.33792 0
M  V30 8140 C 793.487 1.62568 -1.28788 0
M  V30 8141 C 793.912 1.87599 0.137246 0
M  V30 8142 O 793.27 1.44436 1.0958 0
M  V30 8143 C 793.318 2.9495 -2.07453 0
M  V30 8144 O 792.422 3.86546 -1.43722 0
M  V30 8145 H 791.763 0.494809 -0.442787 0
M  V30 8146 H 794.293 1.03578 -1.76445 0
M  V30 8147 H 794.303 3.44599 -2.1844 0
M  V30 8148 H 792.978 2.76055 -3.11073 0
M  V30 8149 H 791.555 3.45044 -1.41417 0
M  V30 8150 N 793.74 1.17359 1.05189 0
M  V30 8151 C 795.017 0.871914 1.75091 0
M  V30 8152 C 795.397 -0.627821 2.01548 0
M  V30 8153 O 794.745 -1.5791 1.65156 0
M  V30 8154 C 794.955 1.70687 3.04413 0
M  V30 8155 C 796.303 1.92684 3.78362 0
M  V30 8156 O 797.327 1.67645 3.14282 0
M  V30 8157 O 796.186 2.34765 4.93505 0
M  V30 8158 H 793.28 0.322831 0.761386 0
M  V30 8159 H 795.826 1.28054 1.11357 0
M  V30 8160 H 794.598 2.72405 2.80911 0
M  V30 8161 H 794.221 1.29602 3.75884 0
M  V30 8162 N 795.218 -1.23913 0.973828 0
M  V30 8163 C 796.465 -1.92151 0.639079 0
M  V30 8164 C 796.793 -1.76064 -0.826545 0
M  V30 8165 O 796.048 -1.11126 -1.61088 0
M  V30 8166 C 796.347 -3.4406 0.967356 0
M  V30 8167 C 796.013 -3.80321 2.42212 0
M  V30 8168 C 794.675 -3.8993 2.81971 0
M  V30 8169 C 797.027 -3.97935 3.36596 0
M  V30 8170 C 794.355 -4.14575 4.15144 0
M  V30 8171 C 796.707 -4.24079 4.69404 0
M  V30 8172 C 795.371 -4.31908 5.08932 0
M  V30 8173 H 794.641 -0.70313 0.233856 0
M  V30 8174 H 797.288 -1.47072 1.22646 0
M  V30 8175 H 795.593 -3.90667 0.297807 0
M  V30 8176 H 797.29 -3.95077 0.686654 0
M  V30 8177 H 793.88 -3.73411 2.10385 0
M  V30 8178 H 798.064 -3.89908 3.07059 0
M  V30 8179 H 793.32 -4.18858 4.45385 0
M  V30 8180 H 797.494 -4.36652 5.42502 0
M  V30 8181 H 795.121 -4.50758 6.12145 0
M  V30 8182 N 796.696 -0.74468 -1.38897 0
M  V30 8183 C 797.944 -0.296298 -1.99916 0
M  V30 8184 C 798.265 1.12325 -1.59399 0
M  V30 8185 O 797.535 1.76658 -0.846689 0
M  V30 8186 H 796.115 -0.106561 -0.73936 0
M  V30 8187 H 798.777 -0.956793 -1.69798 0
M  V30 8188 H 797.873 -0.352356 -3.10105 0
M  V30 8189 N 798.174 1.49689 -0.493057 0
M  V30 8190 C 799.121 2.28976 0.28959 0
M  V30 8191 C 800.091 1.35011 0.967536 0
M  V30 8192 O 801.276 1.63964 0.975736 0
M  V30 8193 C 798.416 3.1748 1.35279 0
M  V30 8194 C 797.529 4.26496 0.687418 0
M  V30 8195 C 796.664 5.02226 1.73038 0
M  V30 8196 C 795.703 6.03089 1.04645 0
M  V30 8197 N 794.84 6.72014 2.03325 0
M  V30 8198 H 799.68 2.954 -0.392798 0
M  V30 8199 H 797.217 1.45657 -0.205554 0
M  V30 8200 H 799.175 3.67162 1.98111 0
M  V30 8201 H 797.805 2.53057 2.00405 0
M  V30 8202 H 796.857 3.80362 -0.0540001 0
M  V30 8203 H 798.169 4.98578 0.14864 0
M  V30 8204 H 797.323 5.55737 2.43395 0
M  V30 8205 H 796.062 4.29899 2.303 0
M  V30 8206 H 795.067 5.48817 0.328606 0
M  V30 8207 H 796.292 6.77398 0.480428 0
M  V30 8208 H 794.238 6.02464 2.59564 0
M  V30 8209 H 794.155 7.40046 1.54492 0
M  V30 8210 H 795.423 7.30133 2.72995 0
M  V30 8211 N 799.652 0.226554 1.55963 0
M  V30 8212 C 800.901 -0.40417 1.97609 0
M  V30 8213 C 801.214 -1.60541 1.1174 0
M  V30 8214 O 802.42 -2.30598 1.43307 0
M  V30 8215 C 800.876 -0.770466 3.51556 0
M  V30 8216 C 800.484 0.408244 4.46136 0
M  V30 8217 C 802.228 -1.36651 4.01904 0
M  V30 8218 C 800.135 0.0192347 5.91397 0
M  V30 8219 H 799.065 -0.15478 0.737943 0
M  V30 8220 H 801.716 0.323558 1.80625 0
M  V30 8221 H 800.098 -1.55575 3.6416 0
M  V30 8222 H 801.272 1.18575 4.45283 0
M  V30 8223 H 799.587 0.917859 4.06158 0
M  V30 8224 H 802.184 -1.67055 5.07934 0
M  V30 8225 H 802.527 -2.28403 3.48049 0
M  V30 8226 H 803.06 -0.644556 3.92543 0
M  V30 8227 H 799.799 0.90336 6.49245 0
M  V30 8228 H 799.319 -0.722485 5.95433 0
M  V30 8229 H 800.998 -0.405711 6.45727 0
M  V30 8230 N 801.13 -1.57531 -0.0467866 0
M  V30 8231 C 802.358 -1.92696 -0.753371 0
M  V30 8232 C 802.773 -0.824792 -1.69831 0
M  V30 8233 O 802.13 0.200155 -1.81399 0
M  V30 8234 C 802.181 -3.27728 -1.52566 0
M  V30 8235 O 801.902 -4.3371 -0.618674 0
M  V30 8236 C 803.403 -3.77066 -2.33101 0
M  V30 8237 H 800.623 -0.636367 -0.212788 0
M  V30 8238 H 803.167 -2.04498 -0.00959361 0
M  V30 8239 H 801.322 -3.17378 -2.22148 0
M  V30 8240 H 801.736 -5.11548 -1.15839 0
M  V30 8241 H 803.21 -4.74109 -2.82709 0
M  V30 8242 H 803.687 -3.07348 -3.13741 0
M  V30 8243 H 804.293 -3.90442 -1.68628 0
M  V30 8244 N 802.608 0.318715 -1.54344 0
M  V30 8245 C 803.856 1.054 -1.72439 0
M  V30 8246 C 804.177 1.88388 -0.503495 0
M  V30 8247 O 803.447 1.89866 0.48246 0
M  V30 8248 H 802.027 0.392124 -0.635805 0
M  V30 8249 H 804.689 0.35398 -1.91659 0
M  V30 8250 H 803.785 1.71726 -2.60608 0
M  V30 8251 N 804.086 1.46499 0.581025 0
M  V30 8252 C 805.033 1.5719 1.68997 0
M  V30 8253 C 806.003 0.416114 1.60803 0
M  V30 8254 O 807.188 0.633086 1.79991 0
M  V30 8255 C 804.328 1.56973 3.07333 0
M  V30 8256 C 803.441 2.83298 3.26139 0
M  V30 8257 C 802.576 2.74574 4.54734 0
M  V30 8258 C 801.615 3.9583 4.66889 0
M  V30 8259 N 800.752 3.85482 5.86811 0
M  V30 8260 H 805.592 2.51914 1.59196 0
M  V30 8261 H 803.129 1.24975 0.775857 0
M  V30 8262 H 805.087 1.54832 3.87405 0
M  V30 8263 H 803.717 0.657803 3.16027 0
M  V30 8264 H 802.769 2.95411 2.3966 0
M  V30 8265 H 804.081 3.7316 3.30988 0
M  V30 8266 H 803.235 2.70548 5.43036 0
M  V30 8267 H 801.974 1.82354 4.52325 0
M  V30 8268 H 800.979 4.00186 3.77003 0
M  V30 8269 H 802.204 4.89148 4.71075 0
M  V30 8270 H 800.15 2.96051 5.85397 0
M  V30 8271 H 800.067 4.69002 5.92936 0
M  V30 8272 H 801.335 3.85434 6.7754 0
M  V30 8273 N 805.565 -0.825799 1.34232 0
M  V30 8274 C 806.795 -1.61129 1.29309 0
M  V30 8275 C 807.203 -1.88714 -0.135589 0
M  V30 8276 O 806.546 -1.47703 -1.09222 0
M  V30 8277 C 806.608 -2.97866 2.01287 0
M  V30 8278 C 806.272 -2.9319 3.50555 0
M  V30 8279 C 807.269 -2.67978 4.45515 0
M  V30 8280 C 804.954 -3.12913 3.92926 0
M  V30 8281 C 806.948 -2.62536 5.80822 0
M  V30 8282 C 804.635 -3.07096 5.28333 0
M  V30 8283 C 805.633 -2.8194 6.22092 0
M  V30 8284 O 805.321 -2.7605 7.55018 0
M  V30 8285 H 805.053 -0.507652 0.446391 0
M  V30 8286 H 807.607 -1.03575 1.77374 0
M  V30 8287 H 805.837 -3.57327 1.47832 0
M  V30 8288 H 807.526 -3.58848 1.89691 0
M  V30 8289 H 808.292 -2.52478 4.14101 0
M  V30 8290 H 804.171 -3.3151 3.20347 0
M  V30 8291 H 807.715 -2.42821 6.53975 0
M  V30 8292 H 803.612 -3.22148 5.59367 0
M  V30 8293 H 804.38 -2.91798 7.6472 0
M  V30 8294 N 807.043 -1.17915 -1.04565 0
M  V30 8295 C 808.283 -0.982331 -1.79247 0
M  V30 8296 C 808.647 0.47998 -1.85904 0
M  V30 8297 O 809.848 0.796078 -2.56741 0
M  V30 8298 C 808.119 -1.61329 -3.18916 0
M  V30 8299 S 809.678 -1.56355 -4.09998 0
M  V30 8300 H 806.496 -0.352869 -0.617256 0
M  V30 8301 H 809.098 -1.49971 -1.25415 0
M  V30 8302 H 807.802 -2.66993 -3.11678 0
M  V30 8303 H 807.333 -1.09599 -3.77825 0
M  V30 8304 H 809.348 -0.57593 -4.92846 0
M  V30 8305 N 808.521 1.23394 -0.980386 0
M  V30 8306 C 809.431 2.28561 -0.528864 0
M  V30 8307 C 810.447 1.68946 0.416329 0
M  V30 8308 O 811.623 1.99355 0.286251 0
M  V30 8309 C 808.688 3.46323 0.16155 0
M  V30 8310 C 807.749 4.21297 -0.825044 0
M  V30 8311 C 806.982 5.33437 -0.167483 0
M  V30 8312 O 807.205 5.60812 1.04146 0
M  V30 8313 O 806.139 5.95637 -0.866047 0
M  V30 8314 H 809.965 2.69326 -1.40346 0
M  V30 8315 H 807.55 1.29325 -0.748019 0
M  V30 8316 H 809.432 4.17811 0.548841 0
M  V30 8317 H 808.107 3.0751 1.01092 0
M  V30 8318 H 807.014 3.52134 -1.26303 0
M  V30 8319 H 808.347 4.6396 -1.64322 0
M  V30 8320 N 809.999 0.752036 1.385 0
M  V30 8321 C 811.239 0.312408 2.01998 0
M  V30 8322 C 811.603 -1.085 1.58404 0
M  V30 8323 O 812.804 -1.62365 2.14222 0
M  V30 8324 C 811.075 0.429423 3.54811 0
M  V30 8325 S 812.634 0.0721487 4.38741 0
M  V30 8326 H 809.452 0.1213 0.700576 0
M  V30 8327 H 812.054 0.982312 1.69029 0
M  V30 8328 H 810.758 1.44743 3.84028 0
M  V30 8329 H 810.289 -0.257716 3.92555 0
M  V30 8330 H 812.304 -1.13875 4.82957 0
M  V30 8331 N 811.477 -1.49425 0.500989 0
M  V30 8332 C 812.754 -1.9531 -0.106551 0
M  V30 8333 C 813.134 -1.44248 -1.54129 0
M  V30 8334 O 812.482 -0.656237 -2.18874 0
M  V30 8335 C 812.692 -3.48995 -0.0191972 0
M  V30 8336 C 814.04 -4.24161 -0.193129 0
M  V30 8337 O 815.064 -3.56075 -0.0943843 0
M  V30 8338 O 813.923 -5.45064 -0.395869 0
M  V30 8339 H 811.017 -0.82149 -0.0953068 0
M  V30 8340 H 813.563 -1.6007 0.563526 0
M  V30 8341 H 812.335 -3.78794 0.981353 0
M  V30 8342 H 811.958 -3.90852 -0.72942 0
M  V30 8343 N 812.955 -0.234822 -1.55841 0
M  V30 8344 C 814.232 0.442961 -1.90518 0
M  V30 8345 C 814.612 1.76768 -1.15397 0
M  V30 8346 O 813.96 2.26928 -0.267534 0
M  V30 8347 C 814.17 0.622905 -3.43396 0
M  V30 8348 C 815.518 0.9243 -4.14417 0
M  V30 8349 O 816.542 0.709211 -3.49068 0
M  V30 8350 O 815.401 1.33323 -5.29988 0
M  V30 8351 H 812.495 0.236042 -0.792599 0
M  V30 8352 H 815.041 -0.277992 -1.67408 0
M  V30 8353 H 813.813 -0.310973 -3.90062 0
M  V30 8354 H 813.436 1.39485 -3.7233 0
M  V30 8355 N 814.433 1.57553 0.0384317 0
M  V30 8356 C 815.68 1.88841 0.731116 0
M  V30 8357 C 816.008 0.83093 1.75857 0
M  V30 8358 O 815.263 -0.169248 1.94967 0
M  V30 8359 C 815.562 3.26862 1.44554 0
M  V30 8360 C 815.228 4.47472 0.554946 0
M  V30 8361 C 813.89 4.80203 0.309621 0
M  V30 8362 C 816.242 5.21165 -0.0605204 0
M  V30 8363 C 813.57 5.8402 -0.560101 0
M  V30 8364 C 815.922 6.25905 -0.91789 0
M  V30 8365 C 814.586 6.57117 -1.17277 0
M  V30 8366 H 813.856 0.691018 0.267534 0
M  V30 8367 H 816.503 1.91498 -0.00883195 0
M  V30 8368 H 814.808 3.2015 2.25856 0
M  V30 8369 H 816.505 3.48316 1.98688 0
M  V30 8370 H 813.095 4.21874 0.756304 0
M  V30 8371 H 817.279 4.96164 0.116064 0
M  V30 8372 H 812.535 6.06583 -0.765974 0
M  V30 8373 H 816.709 6.82155 -1.40136 0
M  V30 8374 H 814.336 7.37385 -1.84843 0
M  V30 8375 N 815.911 -0.310526 1.54511 0
M  V30 8376 C 817.136 -1.07046 1.7764 0
M  V30 8377 C 817.561 -1.80488 0.529696 0
M  V30 8378 O 816.919 -1.73702 -0.519361 0
M  V30 8379 C 816.967 -2.03411 2.97752 0
M  V30 8380 O 816.071 -3.11545 2.7021 0
M  V30 8381 H 815.412 -0.307994 0.588248 0
M  V30 8382 H 817.942 -0.350848 2.01569 0
M  V30 8383 H 817.952 -2.46048 3.2546 0
M  V30 8384 H 816.627 -1.49361 3.88155 0
M  V30 8385 H 815.204 -2.7349 2.53491 0
M  V30 8386 N 817.389 -1.46805 -0.573248 0
M  V30 8387 C 818.629 -1.5417 -1.34205 0
M  V30 8388 C 818.993 -0.192675 -1.91031 0
M  V30 8389 O 820.194 -0.141111 -2.68429 0
M  V30 8390 C 818.465 -2.61682 -2.43428 0
M  V30 8391 S 820.024 -2.88519 -3.30609 0
M  V30 8392 H 816.842 -0.544592 -0.4571 0
M  V30 8393 H 819.444 -1.84094 -0.658001 0
M  V30 8394 H 818.148 -3.58319 -2.00088 0
M  V30 8395 H 817.679 -2.33521 -3.16594 0
M  V30 8396 H 819.694 -2.2451 -4.42504 0
M  V30 8397 N 818.867 0.818669 -1.34668 0
M  V30 8398 C 820.113 1.57746 -1.27453 0
M  V30 8399 C 820.446 1.93588 0.154077 0
M  V30 8400 O 819.721 1.60371 1.10051 0
M  V30 8401 C 820.004 2.87414 -2.16945 0
M  V30 8402 C 819.857 2.58125 -3.68363 0
M  V30 8403 C 821.176 3.89021 -2.05792 0
M  V30 8404 H 818.295 0.572339 -0.464324 0
M  V30 8405 H 820.937 0.942784 -1.64959 0
M  V30 8406 H 819.087 3.41576 -1.85089 0
M  V30 8407 H 820.759 2.10239 -4.10606 0
M  V30 8408 H 819.002 1.91503 -3.89242 0
M  V30 8409 H 819.673 3.5061 -4.26353 0
M  V30 8410 H 822.149 3.44224 -2.33771 0
M  V30 8411 H 821.025 4.77548 -2.70628 0
M  V30 8412 H 821.286 4.29786 -1.03618 0
M  V30 8413 N 820.346 1.18468 1.03938 0
M  V30 8414 C 821.762 0.934635 1.29371 0
M  V30 8415 C 821.962 -0.399067 1.97509 0
M  V30 8416 O 821.018 -1.13309 2.25648 0
M  V30 8417 C 822.331 2.10111 2.15114 0
M  V30 8418 C 823.879 2.13955 2.28456 0
M  V30 8419 C 824.354 3.30024 3.17566 0
M  V30 8420 N 825.845 3.29893 3.25153 0
M  V30 8421 C 826.58 4.16346 3.94263 0
M  V30 8422 N 826.076 5.12934 4.65693 0
M  V30 8423 N 827.869 4.04256 3.90556 0
M  V30 8424 H 820.02 2.04294 0.581185 0
M  V30 8425 H 822.283 0.892727 0.318971 0
M  V30 8426 H 821.989 3.06572 1.72355 0
M  V30 8427 H 821.863 2.06283 3.15796 0
M  V30 8428 H 824.25 1.18072 2.7045 0
M  V30 8429 H 824.331 2.2184 1.2736 0
M  V30 8430 H 823.975 4.26181 2.76283 0
M  V30 8431 H 823.905 3.19376 4.18697 0
M  V30 8432 H 826.396 2.59969 2.74271 0
M  V30 8433 H 826.709 5.75271 5.16026 0
M  V30 8434 H 825.054 5.16893 4.64593 0
M  V30 8435 H 828.245 3.28083 3.33885 0
M  V30 8436 H 828.418 4.71848 4.44144 0
M  V30 8437 N 821.824 -1.22873 0.986916 0
M  V30 8438 C 823.054 -1.95204 0.67668 0
M  V30 8439 C 823.462 -1.73193 -0.761641 0
M  V30 8440 O 822.805 -1.0243 -1.52492 0
M  V30 8441 C 822.867 -3.48173 0.895302 0
M  V30 8442 C 822.531 -3.93912 2.31695 0
M  V30 8443 C 823.528 -4.02064 3.29607 0
M  V30 8444 C 821.213 -4.26722 2.64978 0
M  V30 8445 C 823.207 -4.42391 4.58878 0
M  V30 8446 C 820.894 -4.66729 3.94471 0
M  V30 8447 C 821.892 -4.74531 4.91232 0
M  V30 8448 O 821.58 -5.13636 6.18412 0
M  V30 8449 H 821.312 -0.628105 0.24992 0
M  V30 8450 H 823.866 -1.5714 1.32274 0
M  V30 8451 H 822.096 -3.86223 0.192072 0
M  V30 8452 H 823.785 -4.01717 0.581233 0
M  V30 8453 H 824.551 -3.76912 3.05225 0
M  V30 8454 H 820.43 -4.19858 1.9037 0
M  V30 8455 H 823.974 -4.48395 5.34404 0
M  V30 8456 H 819.871 -4.91332 4.18645 0
M  V30 8457 H 820.639 -5.31728 6.2226 0
M  V30 8458 N 823.302 -0.75937 -1.38099 0
M  V30 8459 C 824.249 -0.135508 -2.30402 0
M  V30 8460 C 825.219 0.703356 -1.50473 0
M  V30 8461 O 826.404 0.658287 -1.79084 0
M  V30 8462 C 823.544 0.747228 -3.36913 0
M  V30 8463 C 822.657 -0.106893 -4.31868 0
M  V30 8464 C 821.792 0.779388 -5.25451 0
M  V30 8465 C 820.831 -0.0780179 -6.1205 0
M  V30 8466 N 819.968 0.765545 -6.97914 0
M  V30 8467 H 824.808 -0.9282 -2.83176 0
M  V30 8468 H 822.345 -0.46935 -1.39411 0
M  V30 8469 H 824.303 1.27371 -3.97281 0
M  V30 8470 H 822.933 1.50565 -2.85535 0
M  V30 8471 H 821.985 -0.751063 -3.72912 0
M  V30 8472 H 823.297 -0.768798 -4.9284 0
M  V30 8473 H 822.451 1.37282 -5.90964 0
M  V30 8474 H 821.19 1.47501 -4.6486 0
M  V30 8475 H 820.195 -0.684078 -5.45528 0
M  V30 8476 H 821.42 -0.770786 -6.74712 0
M  V30 8477 H 819.366 1.44601 -6.39864 0
M  V30 8478 H 819.283 0.160666 -7.55829 0
M  V30 8479 H 820.551 1.34377 -7.6783 0
M  V30 8480 N 824.78 1.49157 -0.508906 0
M  V30 8481 C 826.028 2.02073 0.0327335 0
M  V30 8482 C 826.349 1.39012 1.3675 0
M  V30 8483 O 825.619 0.548153 1.88075 0
M  V30 8484 H 824.199 0.746848 0.0150864 0
M  V30 8485 H 826.861 1.83097 -0.667946 0
M  V30 8486 H 825.957 3.11707 0.1566 0
M  V30 8487 N 826.258 0.243083 1.55714 0
M  V30 8488 C 827.168 -0.668913 2.24862 0
M  V30 8489 C 828.184 -1.19638 1.26344 0
M  V30 8490 O 829.36 -1.23345 1.5921 0
M  V30 8491 C 826.425 -1.85084 2.93163 0
M  V30 8492 C 825.486 -1.36323 4.07081 0
M  V30 8493 C 824.719 -2.48882 4.72116 0
M  V30 8494 O 824.942 -3.67523 4.36214 0
M  V30 8495 O 823.876 -2.18857 5.60701 0
M  V30 8496 H 827.702 -0.109737 3.03502 0
M  V30 8497 H 825.287 0.0117411 1.49395 0
M  V30 8498 H 827.169 -2.54065 3.36197 0
M  V30 8499 H 825.844 -2.39771 2.17466 0
M  V30 8500 H 824.751 -0.640804 3.68571 0
M  V30 8501 H 826.084 -0.86249 4.84584 0
M  V30 8502 N 827.736 -1.57571 -0.0300757 0
M  V30 8503 C 828.669 -2.01874 -1.06406 0
M  V30 8504 C 829.647 -0.902901 -1.35227 0
M  V30 8505 O 830.831 -1.16865 -1.47901 0
M  V30 8506 C 827.958 -2.39093 -2.39901 0
M  V30 8507 C 827.004 -3.61108 -2.26943 0
M  V30 8508 S 827.837 -5.10287 -1.62382 0
M  V30 8509 C 828.993 -5.50747 -2.97369 0
M  V30 8510 H 829.226 -2.89261 -0.686703 0
M  V30 8511 H 826.759 -1.52523 -0.240017 0
M  V30 8512 H 828.717 -2.61207 -3.16672 0
M  V30 8513 H 827.378 -1.52159 -2.74784 0
M  V30 8514 H 826.571 -3.84803 -3.25489 0
M  V30 8515 H 826.173 -3.3884 -1.58314 0
M  V30 8516 H 828.465 -5.51369 -3.93698 0
M  V30 8517 H 829.408 -6.51071 -2.78409 0
M  V30 8518 H 829.816 -4.7825 -2.99895 0
M  V30 8519 N 829.214 0.302327 -1.54673 0
M  V30 8520 C 830.454 1.04568 -1.75627 0
M  V30 8521 C 830.818 1.84535 -0.530175 0
M  V30 8522 O 832.019 2.61613 -0.61743 0
M  V30 8523 C 830.29 1.92873 -3.0089 0
M  V30 8524 S 831.849 2.73872 -3.4284 0
M  V30 8525 H 828.667 0.352682 -0.617362 0
M  V30 8526 H 831.269 0.319239 -1.92876 0
M  V30 8527 H 829.973 1.32998 -3.88252 0
M  V30 8528 H 829.504 2.69887 -2.86225 0
M  V30 8529 H 831.519 3.95386 -2.99807 0
M  V30 8530 N 830.692 1.47107 0.565454 0
M  V30 8531 C 831.917 1.57153 1.35343 0
M  V30 8532 C 832.342 0.219247 1.86818 0
M  V30 8533 O 831.7 -0.803539 1.62521 0
M  V30 8534 C 831.748 2.59387 2.50501 0
M  V30 8535 O 830.852 2.14086 3.52478 0
M  V30 8536 H 830.193 0.528209 0.402357 0
M  V30 8537 H 832.723 1.92821 0.684189 0
M  V30 8538 H 832.733 2.79546 2.97184 0
M  V30 8539 H 831.408 3.57579 2.12391 0
M  V30 8540 H 829.985 2.03991 3.12157 0
M  V30 8541 N 832.17 -0.811516 1.35101 0
M  V30 8542 C 833.418 -1.56525 1.27845 0
M  V30 8543 C 833.739 -1.94435 -0.14829 0
M  V30 8544 O 833.009 -1.63203 -1.08359 0
M  V30 8545 H 831.589 -0.580433 0.47022 0
M  V30 8546 H 834.251 -0.968277 1.69146 0
M  V30 8547 H 833.347 -2.48291 1.89097 0
M  V30 8548 N 833.648 -1.19017 -1.03309 0
M  V30 8549 C 834.598 -0.89194 -2.0983 0
M  V30 8550 C 835.582 0.14151 -1.60277 0
M  V30 8551 O 836.774 -0.0635946 -1.76886 0
M  V30 8552 C 833.903 -0.427793 -3.40624 0
M  V30 8553 C 832.989 -1.49374 -3.96923 0
M  V30 8554 N 833.38 -2.71213 -4.26939 0
M  V30 8555 C 831.678 -1.35605 -4.24885 0
M  V30 8556 C 832.379 -3.39849 -4.72099 0
M  V30 8557 N 831.355 -2.67239 -4.73375 0
M  V30 8558 H 835.157 -1.81801 -2.30923 0
M  V30 8559 H 832.671 -1.08171 -1.21131 0
M  V30 8560 H 834.668 -0.195608 -4.16441 0
M  V30 8561 H 833.328 0.491848 -3.20953 0
M  V30 8562 H 834.339 -3.08014 -4.16351 0
M  V30 8563 H 831.016 -0.499537 -4.14501 0
M  V30 8564 H 832.406 -4.44018 -5.04279 0
M  V30 8565 N 835.127 1.22348 -0.993418 0
M  V30 8566 C 836.375 1.90733 -0.668246 0
M  V30 8567 C 836.696 1.77732 0.802261 0
M  V30 8568 O 835.966 1.16486 1.57505 0
M  V30 8569 H 834.546 0.705966 -0.244174 0
M  V30 8570 H 837.208 1.48691 -1.26004 0
M  V30 8571 H 836.304 2.97883 -0.931239 0
M  V30 8572 N 836.605 0.766683 1.37694 0
M  V30 8573 C 837.537 0.107798 2.28946 0
M  V30 8574 C 838.55 -0.669701 1.48387 0
M  V30 8575 O 839.739 -0.508629 1.711 0
M  V30 8576 C 836.839 -0.871084 3.27514 0
M  V30 8577 C 836.012 -0.148471 4.37148 0
M  V30 8578 C 835.071 -1.03998 5.1582 0
M  V30 8579 O 834.097 -0.505639 5.6695 0
M  V30 8580 N 835.299 -2.36679 5.3006 0
M  V30 8581 H 838.064 0.89154 2.86132 0
M  V30 8582 H 835.625 0.618593 1.49616 0
M  V30 8583 H 837.617 -1.47081 3.77027 0
M  V30 8584 H 836.187 -1.55582 2.71133 0
M  V30 8585 H 835.407 0.632117 3.89099 0
M  V30 8586 H 836.695 0.351045 5.07588 0
M  V30 8587 H 836.093 -2.82532 4.90094 0
M  V30 8588 H 834.65 -2.9167 5.82899 0
M  V30 8589 N 838.083 -1.48885 0.516809 0
M  V30 8590 C 839.323 -2.0439 -0.0202232 0
M  V30 8591 C 839.687 -1.38652 -1.32814 0
M  V30 8592 O 840.888 -1.84968 -1.95039 0
M  V30 8593 C 839.159 -3.57071 -0.153257 0
M  V30 8594 S 840.718 -4.34074 -0.642256 0
M  V30 8595 H 837.536 -0.710977 0.00576322 0
M  V30 8596 H 840.138 -1.82753 0.694376 0
M  V30 8597 H 838.842 -4.02454 0.803695 0
M  V30 8598 H 838.373 -3.83139 -0.892627 0
M  V30 8599 H 840.388 -4.58011 -1.90893 0
M  V30 8600 N 839.561 -0.251338 -1.55583 0
M  V30 8601 C 840.786 0.379136 -2.03905 0
M  V30 8602 C 841.211 1.50428 -1.12929 0
M  V30 8603 O 840.569 1.80882 -0.123114 0
M  V30 8604 C 840.617 0.86009 -3.50193 0
M  V30 8605 O 839.721 1.96932 -3.62342 0
M  V30 8606 H 839.062 0.0820183 -0.658915 0
M  V30 8607 H 841.592 -0.378692 -2.01065 0
M  V30 8608 H 841.602 1.16214 -3.91099 0
M  V30 8609 H 840.277 0.0367559 -4.15884 0
M  V30 8610 H 838.854 1.67163 -3.33333 0
M  V30 8611 N 841.039 1.57585 0.0217189 0
M  V30 8612 C 842.279 1.91457 0.715803 0
M  V30 8613 C 842.643 0.850685 1.72126 0
M  V30 8614 O 843.844 1.07396 2.46413 0
M  V30 8615 C 842.115 3.30456 1.36138 0
M  V30 8616 S 843.674 3.86176 2.0836 0
M  V30 8617 H 840.492 0.67035 0.236963 0
M  V30 8618 H 843.094 1.95477 -0.0297511 0
M  V30 8619 H 841.798 4.05744 0.616465 0
M  V30 8620 H 841.329 3.29757 2.14532 0
M  V30 8621 H 843.344 3.65496 3.356 0
M  V30 8622 N 842.517 -0.29412 1.54831 0
M  V30 8623 C 843.765 -1.02643 1.74094 0
M  V30 8624 C 844.086 -1.87563 0.533402 0
M  V30 8625 O 843.356 -1.9061 -0.452192 0
M  V30 8626 H 841.936 -0.381959 0.641963 0
M  V30 8627 H 844.598 -0.323444 1.92197 0
M  V30 8628 H 843.694 -1.67558 2.63307 0
M  V30 8629 N 843.995 -1.47404 -0.557645 0
M  V30 8630 C 845.272 -1.44488 -1.31843 0
M  V30 8631 C 845.652 -0.1416 -2.10625 0
M  V30 8632 O 845 0.876908 -2.11004 0
M  V30 8633 C 845.21 -2.69016 -2.22331 0
M  V30 8634 C 846.558 -3.16212 -2.83364 0
M  V30 8635 O 847.582 -2.69741 -2.32634 0
M  V30 8636 O 846.441 -3.96999 -3.75571 0
M  V30 8637 H 843.535 -0.57578 -0.593639 0
M  V30 8638 H 846.081 -1.59605 -0.576584 0
M  V30 8639 H 844.853 -3.55406 -1.63715 0
M  V30 8640 H 844.476 -2.56484 -3.03812 0
M  V30 8641 N 845.473 0.80434 -1.35529 0
M  V30 8642 C 846.713 1.57489 -1.30295 0
M  V30 8643 C 847.077 1.91621 0.120528 0
M  V30 8644 O 848.278 2.67151 0.297265 0
M  V30 8645 C 846.549 2.82741 -2.18615 0
M  V30 8646 S 848.108 3.73125 -2.30918 0
M  V30 8647 H 844.926 0.539573 -0.463014 0
M  V30 8648 H 847.528 0.948601 -1.70944 0
M  V30 8649 H 846.232 2.55692 -3.21014 0
M  V30 8650 H 845.763 3.50353 -1.78931 0
M  V30 8651 H 847.778 4.73122 -1.49566 0
M  V30 8652 N 846.951 1.19563 1.02676 0
M  V30 8653 C 847.881 0.959024 2.12897 0
M  V30 8654 C 848.862 -0.108382 1.69754 0
M  V30 8655 O 850.047 0.0470698 1.94143 0
M  V30 8656 C 847.177 0.499211 3.43693 0
M  V30 8657 C 846.131 1.5087 4.00528 0
M  V30 8658 C 845.457 0.905884 5.2697 0
M  V30 8659 C 846.757 2.88954 4.3509 0
M  V30 8660 H 848.451 1.88084 2.32948 0
M  V30 8661 H 845.997 0.905731 1.11949 0
M  V30 8662 H 847.95 0.320965 4.20176 0
M  V30 8663 H 846.674 -0.458205 3.2337 0
M  V30 8664 H 845.333 1.67413 3.26142 0
M  V30 8665 H 844.981 -0.0591506 5.02965 0
M  V30 8666 H 844.681 1.58 5.65959 0
M  V30 8667 H 846.205 0.73848 6.06118 0
M  V30 8668 H 847.619 2.75981 5.02501 0
M  V30 8669 H 846.016 3.53177 4.85166 0
M  V30 8670 H 847.086 3.41447 3.44299 0
M  V30 8671 N 848.429 -1.21819 0.999893 0
M  V30 8672 C 849.669 -1.92473 0.687996 0
M  V30 8673 C 850.033 -1.76033 -0.766569 0
M  V30 8674 O 851.234 -2.41013 -1.19021 0
M  V30 8675 C 849.505 -3.40332 1.09129 0
M  V30 8676 S 851.064 -4.29496 0.898822 0
M  V30 8677 H 847.882 -0.665097 0.251329 0
M  V30 8678 H 850.484 -1.47454 1.28364 0
M  V30 8679 H 849.188 -3.49812 2.14615 0
M  V30 8680 H 848.719 -3.90365 0.487724 0
M  V30 8681 H 850.734 -4.95769 -0.206873 0
M  V30 8682 N 849.908 -0.773975 -1.37286 0
M  V30 8683 C 851.185 -0.263942 -1.93811 0
M  V30 8684 C 851.565 1.24138 -1.70743 0
M  V30 8685 O 850.913 2.02557 -1.05749 0
M  V30 8686 C 851.123 -0.639753 -3.43086 0
M  V30 8687 C 852.471 -0.610796 -4.20184 0
M  V30 8688 O 853.495 -0.579278 -3.51458 0
M  V30 8689 O 852.354 -0.639862 -5.42741 0
M  V30 8690 H 849.448 -0.0614331 -0.824715 0
M  V30 8691 H 851.994 -0.855477 -1.46559 0
M  V30 8692 H 850.766 -1.67856 -3.53469 0
M  V30 8693 H 850.389 -0.0212827 -3.97594 0
M  V30 8694 N 851.386 1.48609 -0.524698 0
M  V30 8695 C 852.611 2.07398 0.00952139 0
M  V30 8696 C 853.036 1.37939 1.27884 0
M  V30 8697 O 852.394 0.443633 1.75788 0
M  V30 8698 C 852.442 3.59916 0.221956 0
M  V30 8699 O 851.546 3.91647 1.29175 0
M  V30 8700 H 850.887 0.662981 -0.0367729 0
M  V30 8701 H 853.417 1.91092 -0.7311 0
M  V30 8702 H 853.427 4.05552 0.446236 0
M  V30 8703 H 852.102 4.09876 -0.705306 0
M  V30 8704 H 850.679 3.57796 1.05055 0
M  V30 8705 N 852.864 0.259585 1.55447 0
M  V30 8706 C 854.141 -0.412595 1.91199 0
M  V30 8707 C 854.521 -1.74909 1.18194 0
M  V30 8708 O 853.869 -2.26474 0.303603 0
M  V30 8709 C 854.079 -0.568195 3.44344 0
M  V30 8710 C 855.427 -0.858253 4.15836 0
M  V30 8711 O 856.451 -0.653588 3.50152 0
M  V30 8712 O 855.31 -1.24874 5.32042 0
M  V30 8713 H 852.404 -0.223403 0.796254 0
M  V30 8714 H 854.95 0.30459 1.66944 0
M  V30 8715 H 853.722 0.372989 3.89518 0
M  V30 8716 H 853.345 -1.33544 3.74502 0
M  V30 8717 N 854.342 -1.57594 -0.0133615 0
M  V30 8718 C 855.588 -1.91105 -0.696457 0
M  V30 8719 C 855.943 -0.859872 -1.72116 0
M  V30 8720 O 855.236 0.129579 -1.91161 0
M  V30 8721 C 855.43 -3.29121 -1.39336 0
M  V30 8722 C 855.259 -4.47565 -0.437666 0
M  V30 8723 C 854.029 -5.05272 -0.0529454 0
M  V30 8724 C 856.227 -5.13479 0.290537 0
M  V30 8725 N 854.209 -6.07232 0.902355 0
M  V30 8726 C 855.58 -6.10147 1.10097 0
M  V30 8727 C 857.635 -4.96627 0.355804 0
M  V30 8728 C 856.338 -6.91778 1.97069 0
M  V30 8729 C 858.364 -5.78833 1.21271 0
M  V30 8730 C 857.726 -6.75083 2.01102 0
M  V30 8731 H 853.825 -0.747882 -0.228464 0
M  V30 8732 H 856.409 -1.94651 0.0438462 0
M  V30 8733 H 854.58 -3.26474 -2.10403 0
M  V30 8734 H 856.312 -3.501 -2.03008 0
M  V30 8735 H 853.067 -4.71747 -0.418486 0
M  V30 8736 H 853.491 -6.6289 1.37498 0
M  V30 8737 H 858.133 -4.22077 -0.247105 0
M  V30 8738 H 855.851 -7.65662 2.58433 0
M  V30 8739 H 859.437 -5.67838 1.26694 0
M  V30 8740 H 858.317 -7.37587 2.66337 0
M  V30 8741 N 855.82 0.285905 -1.54985 0
M  V30 8742 C 857.048 1.03776 -1.78992 0
M  V30 8743 C 857.463 1.80402 -0.556814 0
M  V30 8744 O 856.82 1.76242 0.473801 0
M  V30 8745 C 856.871 2.0065 -3.00702 0
M  V30 8746 O 856.592 1.27131 -4.19249 0
M  V30 8747 C 858.093 2.87753 -3.37214 0
M  V30 8748 H 855.313 0.307126 -0.596586 0
M  V30 8749 H 857.857 0.3206 -2.01971 0
M  V30 8750 H 856.012 2.67847 -2.79887 0
M  V30 8751 H 856.426 1.92316 -4.8797 0
M  V30 8752 H 857.9 3.51548 -4.2558 0
M  V30 8753 H 858.377 3.56848 -2.56039 0
M  V30 8754 H 858.983 2.26065 -3.60242 0
M  V30 8755 N 857.298 1.47698 0.54982 0
M  V30 8756 C 858.546 1.54397 1.30407 0
M  V30 8757 C 858.867 0.211026 1.93855 0
M  V30 8758 O 858.137 -0.765701 1.80316 0
M  V30 8759 H 856.717 0.568747 0.484289 0
M  V30 8760 H 859.379 1.84042 0.641444 0
M  V30 8761 H 858.475 2.31449 2.09375 0
M  V30 8762 N 858.776 -0.797141 1.35954 0
M  V30 8763 C 860.006 -1.5835 1.32698 0
M  V30 8764 C 860.414 -1.88959 -0.0955298 0
M  V30 8765 O 859.757 -1.49987 -1.06064 0
M  V30 8766 C 859.819 -2.93529 2.0756 0
M  V30 8767 C 859.483 -2.85688 3.56695 0
M  V30 8768 C 860.48 -2.58467 4.51099 0
M  V30 8769 C 858.165 -3.04508 3.99475 0
M  V30 8770 C 860.159 -2.50157 5.8626 0
M  V30 8771 C 857.846 -2.9582 5.34728 0
M  V30 8772 C 858.844 -2.68681 6.27933 0
M  V30 8773 O 858.532 -2.59973 7.60703 0
M  V30 8774 H 858.264 -0.49807 0.457059 0
M  V30 8775 H 860.818 -0.997889 1.79531 0
M  V30 8776 H 859.048 -3.54111 1.55378 0
M  V30 8777 H 860.737 -3.54744 1.9726 0
M  V30 8778 H 861.503 -2.43638 4.19363 0
M  V30 8779 H 857.382 -3.24641 3.27306 0
M  V30 8780 H 860.926 -2.28894 6.58979 0
M  V30 8781 H 856.823 -3.10211 5.66074 0
M  V30 8782 H 857.591 -2.75511 7.70737 0
M  V30 8783 N 860.254 -1.20106 -1.0204 0
M  V30 8784 C 861.484 -1.0329 -1.78927 0
M  V30 8785 C 861.892 0.421115 -1.84454 0
M  V30 8786 O 861.235 1.30422 -1.29367 0
M  V30 8787 C 861.297 -1.53627 -3.25021 0
M  V30 8788 C 860.961 -3.01869 -3.4311 0
M  V30 8789 C 861.958 -3.9956 -3.32638 0
M  V30 8790 C 859.643 -3.40746 -3.6905 0
M  V30 8791 C 861.637 -5.34119 -3.47844 0
M  V30 8792 C 859.324 -4.75462 -3.839 0
M  V30 8793 C 860.322 -5.71957 -3.73302 0
M  V30 8794 O 860.01 -7.04231 -3.87703 0
M  V30 8795 H 859.742 -0.363962 -0.569656 0
M  V30 8796 H 862.296 -1.59551 -1.29354 0
M  V30 8797 H 860.526 -0.917481 -3.75658 0
M  V30 8798 H 862.215 -1.32889 -3.8353 0
M  V30 8799 H 862.981 -3.70869 -3.12539 0
M  V30 8800 H 858.86 -2.66182 -3.76388 0
M  V30 8801 H 862.404 -6.09421 -3.39488 0
M  V30 8802 H 858.301 -5.03844 -4.03499 0
M  V30 8803 H 859.069 -7.11425 -4.04744 0
M  V30 8804 N 861.732 1.21287 -1.00634 0
M  V30 8805 C 862.972 1.92106 -0.698194 0
M  V30 8806 C 863.336 1.76437 0.757222 0
M  V30 8807 O 864.537 2.41641 1.17741 0
M  V30 8808 C 862.808 3.39748 -1.10932 0
M  V30 8809 S 864.367 4.29013 -0.921586 0
M  V30 8810 H 861.185 0.663755 -0.254853 0
M  V30 8811 H 863.787 1.46772 -1.29145 0
M  V30 8812 H 862.491 3.48669 -2.16467 0
M  V30 8813 H 862.022 3.90101 -0.508419 0
M  V30 8814 H 864.037 4.95871 0.180578 0
M  V30 8815 N 863.21 0.781244 1.36873 0
M  V30 8816 C 864.158 0.161889 2.32036 0
M  V30 8817 C 865.152 -0.674225 1.55405 0
M  V30 8818 O 866.358 -0.570223 1.70729 0
M  V30 8819 H 862.733 0.0335702 0.75125 0
M  V30 8820 H 864.704 0.980078 2.81846 0
M  V30 8821 C 863.453 -0.695352 3.40676 0
M  V30 8822 H 862.776 -0.0613425 3.99753 0
M  V30 8823 H 864.216 -1.09553 4.09602 0
M  V30 8824 C 862.675 -1.85008 2.81556 0
M  V30 8825 O 863.205 -2.94616 2.73065 0
M  V30 8826 N 861.411 -1.65364 2.38962 0
M  V30 8827 H 860.958 -0.762106 2.46068 0
M  V30 8828 H 860.916 -2.42789 1.99752 0
M  V30 8829 N 864.689 -1.48329 0.532571 0
M  V30 8830 C 865.929 -2.044 0.00145618 0
M  V30 8831 C 866.293 -1.40053 -1.31336 0
M  V30 8832 O 867.494 -1.87026 -1.93066 0
M  V30 8833 C 865.765 -3.57214 -0.115376 0
M  V30 8834 S 867.324 -4.34731 -0.59618 0
M  V30 8835 H 864.142 -0.710876 0.0133038 0
M  V30 8836 H 866.744 -1.82006 0.71372 0
M  V30 8837 H 865.448 -4.01579 0.846335 0
M  V30 8838 H 864.979 -3.84065 -0.85194 0
M  V30 8839 H 866.994 -4.6001 -1.86025 0
M  V30 8840 N 866.167 -0.267825 -1.55308 0
M  V30 8841 C 867.395 0.354587 -2.03839 0
M  V30 8842 C 867.81 1.50007 -1.14644 0
M  V30 8843 O 867.167 1.81752 -0.165055 0
M  V30 8844 C 867.218 0.84254 -3.51544 0
M  V30 8845 O 866.939 -0.257318 -4.37344 0
M  V30 8846 C 868.44 1.53351 -4.15931 0
M  V30 8847 H 865.66 0.0818131 -0.665994 0
M  V30 8848 H 868.204 -0.397795 -2.00594 0
M  V30 8849 H 866.359 1.54503 -3.55257 0
M  V30 8850 H 866.773 0.116593 -5.2437 0
M  V30 8851 H 868.247 1.82643 -5.20908 0
M  V30 8852 H 868.724 2.4626 -3.63666 0
M  V30 8853 H 869.33 0.87506 -4.162 0
M  V30 8854 N 867.645 1.57599 0.00500368 0
M  V30 8855 C 868.873 1.94626 0.702016 0
M  V30 8856 C 869.288 0.86953 1.67585 0
M  V30 8857 O 868.645 -0.15199 1.81866 0
M  V30 8858 C 868.696 3.31658 1.43824 0
M  V30 8859 O 868.417 4.35197 0.503467 0
M  V30 8860 C 869.918 3.83114 2.23021 0
M  V30 8861 H 867.138 0.641785 0.195841 0
M  V30 8862 H 869.682 2.04451 -0.0446287 0
M  V30 8863 H 867.837 3.23156 2.13655 0
M  V30 8864 H 868.251 5.1444 1.02235 0
M  V30 8865 H 869.725 4.81438 2.7004 0
M  V30 8866 H 870.202 3.15559 3.05482 0
M  V30 8867 H 870.808 3.94775 1.58216 0
M  V30 8868 N 869.123 -0.277682 1.55134 0
M  V30 8869 C 870.539 -0.624625 1.46869 0
M  V30 8870 C 870.739 -1.89717 0.678958 0
M  V30 8871 O 869.795 -2.51739 0.195939 0
M  V30 8872 C 871.108 -0.755937 2.91043 0
M  V30 8873 C 872.656 -0.850299 3.01229 0
M  V30 8874 C 873.131 -1.01343 4.46647 0
M  V30 8875 N 874.622 -1.07906 4.50456 0
M  V30 8876 C 875.357 -1.224 5.60184 0
M  V30 8877 N 874.853 -1.33642 6.79788 0
M  V30 8878 N 876.646 -1.25473 5.47917 0
M  V30 8879 H 868.797 0.558102 2.04937 0
M  V30 8880 H 871.06 0.188228 0.929125 0
M  V30 8881 H 870.766 0.108593 3.51532 0
M  V30 8882 H 870.64 -1.6377 3.39793 0
M  V30 8883 H 873.027 -1.7053 2.40839 0
M  V30 8884 H 873.108 0.0559681 2.55739 0
M  V30 8885 H 872.752 -0.163102 5.07638 0
M  V30 8886 H 872.682 -1.93427 4.89789 0
M  V30 8887 H 875.173 -1.00477 3.64298 0
M  V30 8888 H 875.486 -1.44522 7.59166 0
M  V30 8889 H 873.831 -1.30655 6.82608 0
M  V30 8890 H 877.022 -1.16317 4.53418 0
M  V30 8891 H 877.195 -1.36424 6.33476 0
M  V30 8892 N 870.601 -1.47988 -0.541979 0
M  V30 8893 C 871.829 -1.59034 -1.32347 0
M  V30 8894 C 872.244 -0.246123 -1.87189 0
M  V30 8895 O 871.601 0.762889 -1.6579 0
M  V30 8896 C 871.652 -2.62759 -2.48274 0
M  V30 8897 O 871.373 -3.91963 -1.95695 0
M  V30 8898 C 872.874 -2.84133 -3.4027 0
M  V30 8899 H 870.094 -0.536574 -0.402901 0
M  V30 8900 H 872.638 -1.93725 -0.655045 0
M  V30 8901 H 870.793 -2.3096 -3.11025 0
M  V30 8902 H 871.207 -4.48769 -2.7149 0
M  V30 8903 H 872.681 -3.60538 -4.17991 0
M  V30 8904 H 873.158 -1.92512 -3.9476 0
M  V30 8905 H 873.764 -3.17188 -2.83322 0
M  V30 8906 N 872.079 0.78992 -1.36375 0
M  V30 8907 C 873.356 1.53584 -1.21126 0
M  V30 8908 C 873.736 2.10124 0.202785 0
M  V30 8909 O 873.084 1.93936 1.20835 0
M  V30 8910 C 873.294 2.63117 -2.29282 0
M  V30 8911 C 874.642 3.31013 -2.65924 0
M  V30 8912 O 875.666 2.734 -2.28321 0
M  V30 8913 O 874.525 4.35129 -3.30643 0
M  V30 8914 H 871.619 0.679366 -0.471583 0
M  V30 8915 H 874.165 0.828446 -1.48104 0
M  V30 8916 H 872.937 2.19329 -3.24053 0
M  V30 8917 H 872.56 3.41476 -2.03666 0
M  V30 8918 N 873.557 1.20646 1.01402 0
M  V30 8919 C 874.785 1.04389 1.78635 0
M  V30 8920 C 875.2 -0.406771 1.84366 0
M  V30 8921 O 874.557 -1.28239 1.2985 0
M  V30 8922 C 874.608 1.62378 3.22979 0
M  V30 8923 O 874.329 3.01768 3.17597 0
M  V30 8924 C 875.83 1.5111 4.1675 0
M  V30 8925 H 873.05 0.367077 0.56169 0
M  V30 8926 H 875.594 1.59789 1.27624 0
M  V30 8927 H 873.749 1.11092 3.7113 0
M  V30 8928 H 874.163 3.29331 4.08217 0
M  V30 8929 H 875.637 1.96441 5.15863 0
M  V30 8930 H 876.114 0.464011 4.36742 0
M  V30 8931 H 876.72 2.01599 3.74483 0
M  V30 8932 N 875.035 -1.20752 1.01276 0
M  V30 8933 C 876.275 -1.91733 0.708372 0
M  V30 8934 C 876.639 -1.76836 -0.747855 0
M  V30 8935 O 877.84 -2.42262 -1.16458 0
M  V30 8936 C 876.111 -3.39155 1.12732 0
M  V30 8937 S 877.67 -4.28518 0.944325 0
M  V30 8938 H 874.488 -0.662394 0.25837 0
M  V30 8939 H 877.09 -1.46085 1.29921 0
M  V30 8940 H 875.794 -3.47516 2.18313 0
M  V30 8941 H 875.325 -3.89826 0.5291 0
M  V30 8942 H 877.34 -4.9596 -0.154278 0
M  V30 8943 N 876.513 -0.788492 -1.36457 0
M  V30 8944 C 877.446 -0.132189 -2.27817 0
M  V30 8945 C 878.424 0.691166 -1.47179 0
M  V30 8946 O 879.608 0.662344 -1.7648 0
M  V30 8947 C 876.735 0.818386 -3.28664 0
M  V30 8948 C 875.781 0.0769392 -4.26431 0
M  V30 8949 S 876.614 -1.24666 -5.20786 0
M  V30 8950 C 877.77 -0.300063 -6.2518 0
M  V30 8951 H 878.003 -0.906824 -2.83132 0
M  V30 8952 H 875.536 -0.582666 -1.42984 0
M  V30 8953 H 877.494 1.36138 -3.87268 0
M  V30 8954 H 876.155 1.56626 -2.72263 0
M  V30 8955 H 875.348 0.79819 -4.97639 0
M  V30 8956 H 874.95 -0.395547 -3.71902 0
M  V30 8957 H 877.242 0.521434 -6.7549 0
M  V30 8958 H 878.185 -0.980808 -7.01274 0
M  V30 8959 H 878.593 0.0961898 -5.64418 0
M  V30 8960 N 877.991 1.48044 -0.54043 0
M  V30 8961 C 879.216 2.07396 -0.0124765 0
M  V30 8962 C 879.641 1.39288 1.26414 0
M  V30 8963 O 878.999 0.462252 1.75308 0
M  V30 8964 C 879.047 3.60131 0.18377 0
M  V30 8965 O 878.151 3.92995 1.25014 0
M  V30 8966 H 877.492 0.662554 -0.0438026 0
M  V30 8967 H 880.022 1.90306 -0.751327 0
M  V30 8968 H 880.032 4.06003 0.403197 0
M  V30 8969 H 878.707 4.09105 -0.74874 0
M  V30 8970 H 877.284 3.5889 1.01254 0
M  V30 8971 N 879.47 0.276058 1.55163 0
M  V30 8972 C 880.695 -0.346648 2.04483 0
M  V30 8973 C 881.12 -1.48613 1.15308 0
M  V30 8974 O 880.478 -1.80663 0.151875 0
M  V30 8975 C 880.526 -0.804268 3.51517 0
M  V30 8976 O 879.63 -1.91143 3.65429 0
M  V30 8977 H 878.971 -0.0715251 0.660136 0
M  V30 8978 H 881.501 0.410631 2.00437 0
M  V30 8979 H 881.511 -1.09977 3.92898 0
M  V30 8980 H 880.186 0.0294123 4.1589 0
M  V30 8981 H 878.763 -1.61839 3.3595 0
M  V30 8982 N 880.948 -1.576 0.00335426 0
M  V30 8983 C 881.896 -2.09759 -1.00517 0
M  V30 8984 C 882.89 -1.01833 -1.35375 0
M  V30 8985 O 884.096 -1.20294 -1.339 0
M  V30 8986 H 880.471 -0.669821 -0.341825 0
M  V30 8987 H 882.442 -2.93478 -0.539718 0
M  V30 8988 C 881.191 -2.6189 -2.28711 0
M  V30 8989 H 880.514 -3.44571 -2.02758 0
M  V30 8990 H 881.954 -3.02061 -2.97548 0
M  V30 8991 C 880.413 -1.53455 -2.99922 0
M  V30 8992 O 880.943 -0.919402 -3.91037 0
M  V30 8993 N 879.149 -1.2612 -2.61806 0
M  V30 8994 H 878.696 -1.76329 -1.87792 0
M  V30 8995 H 878.654 -0.537872 -3.09765 0
M  V30 8996 N 882.426 0.269451 -1.5528 0
M  V30 8997 C 883.674 0.998604 -1.75705 0
M  V30 8998 C 883.995 1.86691 -0.563175 0
M  V30 8999 O 883.265 1.91305 0.421811 0
M  V30 9000 H 881.845 0.371698 -0.647958 0
M  V30 9001 H 884.507 0.292826 -1.92688 0
M  V30 9002 H 883.603 1.63348 -2.6594 0
M  V30 9003 N 883.904 1.48273 0.534124 0
M  V30 9004 C 884.834 1.6538 1.64839 0
M  V30 9005 C 885.815 0.502741 1.62501 0
M  V30 9006 O 887 0.734799 1.79762 0
M  V30 9007 C 884.13 1.68949 3.03436 0
M  V30 9008 C 883.084 2.83513 3.20631 0
M  V30 9009 C 882.41 2.72169 4.60248 0
M  V30 9010 C 883.71 4.24858 3.03797 0
M  V30 9011 H 885.404 2.58663 1.50777 0
M  V30 9012 H 882.95 1.24479 0.723937 0
M  V30 9013 H 884.903 1.79505 3.81256 0
M  V30 9014 H 883.627 0.722415 3.1851 0
M  V30 9015 H 882.286 2.72505 2.45227 0
M  V30 9016 H 881.934 1.7344 4.72152 0
M  V30 9017 H 881.634 3.49042 4.72698 0
M  V30 9018 H 883.158 2.84687 5.40172 0
M  V30 9019 H 884.572 4.36721 3.71413 0
M  V30 9020 H 882.969 5.02697 3.27743 0
M  V30 9021 H 884.039 4.41611 2.0027 0
M  V30 9022 N 885.382 -0.782676 1.36792 0
M  V30 9023 C 886.312 -1.90973 1.34356 0
M  V30 9024 C 887.293 -1.6875 0.213917 0
M  V30 9025 O 888.478 -1.89766 0.412601 0
M  V30 9026 C 885.608 -3.28097 1.13884 0
M  V30 9027 C 884.562 -3.6486 2.23744 0
M  V30 9028 C 883.888 -5.00406 1.88408 0
M  V30 9029 C 885.188 -3.72742 3.6587 0
M  V30 9030 H 886.882 -1.93268 2.28665 0
M  V30 9031 H 884.428 -0.928447 1.10072 0
M  V30 9032 H 886.381 -4.06569 1.10813 0
M  V30 9033 H 885.105 -3.26206 0.160275 0
M  V30 9034 H 883.764 -2.88689 2.25952 0
M  V30 9035 H 883.412 -4.95044 0.891083 0
M  V30 9036 H 883.112 -5.25973 2.61966 0
M  V30 9037 H 884.636 -5.81291 1.86905 0
M  V30 9038 H 886.05 -4.4139 3.65852 0
M  V30 9039 H 884.447 -4.09798 4.38389 0
M  V30 9040 H 885.517 -2.73676 4.00287 0
M  V30 9041 N 886.86 -1.21182 -1.00761 0
M  V30 9042 C 888.1 -1.03886 -1.76031 0
M  V30 9043 C 888.464 0.420593 -1.87337 0
M  V30 9044 O 889.665 0.713994 -2.59144 0
M  V30 9045 C 887.936 -1.71394 -3.13622 0
M  V30 9046 S 889.495 -1.69319 -4.04816 0
M  V30 9047 H 886.313 -0.372327 -0.605717 0
M  V30 9048 H 888.915 -1.53885 -1.20581 0
M  V30 9049 H 887.619 -2.76773 -3.03026 0
M  V30 9050 H 887.15 -1.21564 -3.74147 0
M  V30 9051 H 889.165 -0.732434 -4.90765 0
M  V30 9052 N 888.338 1.20213 -1.01915 0
M  V30 9053 C 889.563 1.94163 -0.729076 0
M  V30 9054 C 889.988 1.74416 0.704323 0
M  V30 9055 O 889.346 1.0401 1.48498 0
M  V30 9056 C 889.394 3.44258 -1.07324 0
M  V30 9057 O 888.498 4.11979 -0.186367 0
M  V30 9058 H 887.839 0.606506 -0.270272 0
M  V30 9059 H 890.369 1.52571 -1.3632 0
M  V30 9060 H 890.379 3.94888 -1.02603 0
M  V30 9061 H 889.054 3.57954 -2.11759 0
M  V30 9062 H 887.631 3.7176 -0.291334 0
M  V30 9063 N 889.816 0.795718 1.36037 0
M  V30 9064 C 891.064 0.370291 1.98679 0
M  V30 9065 C 891.385 -1.06332 1.63458 0
M  V30 9066 O 890.655 -1.73394 0.911671 0
M  V30 9067 H 889.235 0.133928 0.734896 0
M  V30 9068 H 891.897 1.01915 1.6613 0
M  V30 9069 H 890.993 0.467207 3.08583 0
M  V30 9070 N 891.294 -1.47756 0.548274 0
M  V30 9071 C 892.71 -1.58247 0.207401 0
M  V30 9072 C 892.91 -1.54804 -1.28988 0
M  V30 9073 O 891.966 -1.44673 -2.06944 0
M  V30 9074 C 893.279 -2.89129 0.826142 0
M  V30 9075 C 894.827 -3.02695 0.79655 0
M  V30 9076 C 895.302 -4.36264 1.3942 0
M  V30 9077 N 896.793 -4.42877 1.35698 0
M  V30 9078 C 897.528 -5.44773 1.78913 0
M  V30 9079 N 897.024 -6.53528 2.29942 0
M  V30 9080 N 898.817 -5.35765 1.70038 0
M  V30 9081 H 890.968 -1.48236 1.52117 0
M  V30 9082 H 893.231 -0.704957 0.633829 0
M  V30 9083 H 892.937 -2.97358 1.87806 0
M  V30 9084 H 892.811 -3.75891 0.313916 0
M  V30 9085 H 895.198 -2.94067 -0.246655 0
M  V30 9086 H 895.279 -2.17496 1.34644 0
M  V30 9087 H 894.923 -4.45646 2.43642 0
M  V30 9088 H 894.853 -5.20179 0.819827 0
M  V30 9089 H 897.344 -3.64874 0.983623 0
M  V30 9090 H 897.657 -7.27441 2.60863 0
M  V30 9091 H 896.002 -6.54442 2.33947 0
M  V30 9092 H 899.193 -4.49699 1.29955 0
M  V30 9093 H 899.366 -6.1504 2.04035 0
M  V30 9094 N 892.772 -0.284283 -1.55015 0
M  V30 9095 C 894.02 0.329212 -1.99401 0
M  V30 9096 C 894.341 1.55687 -1.17416 0
M  V30 9097 O 893.611 1.94087 -0.265937 0
M  V30 9098 H 892.191 0.12463 -0.73653 0
M  V30 9099 H 894.853 -0.391743 -1.90922 0
M  V30 9100 H 893.949 0.61278 -3.06025 0
M  V30 9101 N 894.251 1.57596 -0.0117121 0
M  V30 9102 C 895.198 2.09153 0.975897 0
M  V30 9103 C 896.168 0.989579 1.33404 0
M  V30 9104 O 897.353 1.26273 1.43038 0
M  V30 9105 C 894.493 2.60906 2.2588 0
M  V30 9106 C 893.606 3.85046 1.95866 0
M  V30 9107 C 892.741 4.25257 3.18323 0
M  V30 9108 C 891.78 5.42202 2.84049 0
M  V30 9109 N 890.917 5.77651 3.99079 0
M  V30 9110 H 895.757 2.93261 0.52931 0
M  V30 9111 H 893.294 1.44965 0.249691 0
M  V30 9112 H 895.252 2.88995 3.00895 0
M  V30 9113 H 893.882 1.79654 2.68187 0
M  V30 9114 H 892.934 3.63794 1.11168 0
M  V30 9115 H 894.246 4.70151 1.66611 0
M  V30 9116 H 893.4 4.5469 4.01674 0
M  V30 9117 H 892.139 3.38884 3.50726 0
M  V30 9118 H 891.144 5.1248 1.99107 0
M  V30 9119 H 892.369 6.3026 2.52881 0
M  V30 9120 H 890.315 4.94235 4.31356 0
M  V30 9121 H 890.232 6.57356 3.73388 0
M  V30 9122 H 891.5 6.11681 4.83183 0
M  V30 9123 N 895.729 -0.261212 1.5542 0
M  V30 9124 C 896.969 -0.998748 1.78338 0
M  V30 9125 C 897.333 -1.83064 0.578914 0
M  V30 9126 O 898.534 -2.59884 0.686575 0
M  V30 9127 C 896.805 -1.84828 3.05898 0
M  V30 9128 S 898.364 -2.64686 3.49981 0
M  V30 9129 H 895.182 -0.33619 0.626496 0
M  V30 9130 H 897.784 -0.26799 1.93655 0
M  V30 9131 H 896.488 -1.22658 3.91642 0
M  V30 9132 H 896.019 -2.62203 2.9328 0
M  V30 9133 H 898.034 -3.87299 3.10184 0
M  V30 9134 N 897.207 -1.48554 -0.526253 0
M  V30 9135 C 898.117 -1.66044 -1.65731 0
M  V30 9136 C 899.133 -0.542951 -1.65312 0
M  V30 9137 O 900.309 -0.814495 -1.84195 0
M  V30 9138 C 897.374 -1.69959 -3.02184 0
M  V30 9139 C 896.435 -2.93362 -3.13428 0
M  V30 9140 C 895.668 -2.97081 -4.43372 0
M  V30 9141 O 895.891 -2.09103 -5.3069 0
M  V30 9142 O 894.825 -3.8929 -4.59061 0
M  V30 9143 H 898.651 -2.61811 -1.53912 0
M  V30 9144 H 896.236 -1.31999 -0.699759 0
M  V30 9145 H 898.118 -1.75033 -3.83329 0
M  V30 9146 H 896.793 -0.773658 -3.14319 0
M  V30 9147 H 895.7 -2.93818 -2.31564 0
M  V30 9148 H 897.033 -3.85352 -3.06211 0
M  V30 9149 N 898.685 0.775411 -1.37205 0
M  V30 9150 C 899.925 1.54689 -1.33606 0
M  V30 9151 C 900.289 1.91834 0.0798549 0
M  V30 9152 O 901.49 2.67722 0.240531 0
M  V30 9153 C 899.761 2.7804 -2.24563 0
M  V30 9154 S 901.32 3.68143 -2.38781 0
M  V30 9155 H 898.138 0.529631 -0.474355 0
M  V30 9156 H 900.74 0.912128 -1.72918 0
M  V30 9157 H 899.444 2.48825 -3.26365 0
M  V30 9158 H 898.975 3.46479 -1.86322 0
M  V30 9159 H 900.99 4.69843 -1.59568 0
M  V30 9160 N 900.163 1.21714 1.00117 0
M  V30 9161 C 901.411 1.03465 1.73607 0
M  V30 9162 C 901.732 -0.432295 1.90148 0
M  V30 9163 O 901.002 -1.31157 1.45515 0
M  V30 9164 H 899.582 0.379857 0.643209 0
M  V30 9165 H 902.244 1.53088 1.20624 0
M  V30 9166 H 901.34 1.50574 2.73375 0
M  V30 9167 N 901.641 -1.19671 1.02551 0
M  V30 9168 C 902.866 -1.93774 0.739363 0
M  V30 9169 C 903.291 -1.74787 -0.695064 0
M  V30 9170 O 902.649 -1.04796 -1.47944 0
M  V30 9171 C 902.697 -3.43684 1.09149 0
M  V30 9172 O 901.801 -4.11874 0.208213 0
M  V30 9173 H 901.142 -0.605064 0.273484 0
M  V30 9174 H 903.672 -1.51846 1.37128 0
M  V30 9175 H 903.682 -3.94339 1.04695 0
M  V30 9176 H 902.357 -3.56826 2.13654 0
M  V30 9177 H 900.934 -3.716 0.311045 0
M  V30 9178 N 903.119 -0.802921 -1.35613 0
M  V30 9179 C 904.359 -0.387163 -2.007 0
M  V30 9180 C 904.723 1.02546 -1.62322 0
M  V30 9181 O 905.924 1.54303 -2.201 0
M  V30 9182 C 904.195 -0.560813 -3.52973 0
M  V30 9183 S 905.754 -0.234935 -4.38171 0
M  V30 9184 H 902.572 -0.147218 -0.695592 0
M  V30 9185 H 905.174 -1.04437 -1.65267 0
M  V30 9186 H 903.878 -1.58897 -3.78391 0
M  V30 9187 H 903.409 0.111845 -3.93241 0
M  V30 9188 H 905.424 0.958715 -4.8685 0
M  V30 9189 N 904.597 1.47463 -0.556102 0
M  V30 9190 C 905.843 2.02775 -0.0316806 0
M  V30 9191 C 906.176 1.42967 1.3143 0
M  V30 9192 O 905.451 0.584847 1.85499 0
M  V30 9193 C 905.734 3.60046 0.0625742 0
M  V30 9194 C 905.587 4.30288 -1.31043 0
M  V30 9195 C 906.906 4.33195 0.776553 0
M  V30 9196 H 904.025 0.736886 -0.0129869 0
M  V30 9197 H 906.667 1.75904 -0.718177 0
M  V30 9198 H 904.817 3.83071 0.647231 0
M  V30 9199 H 906.489 4.18607 -1.9382 0
M  V30 9200 H 904.732 3.90685 -1.8854 0
M  V30 9201 H 905.403 5.38861 -1.1972 0
M  V30 9202 H 907.879 4.15156 0.280147 0
M  V30 9203 H 906.755 5.42869 0.81146 0
M  V30 9204 H 907.016 4.02336 1.83244 0
M  V30 9205 N 906.075 0.2925 1.54862 0
M  V30 9206 C 907.315 -0.32024 2.01876 0
M  V30 9207 C 907.679 -1.5174 1.17639 0
M  V30 9208 O 908.88 -2.20094 1.54312 0
M  V30 9209 C 907.151 -0.67611 3.50947 0
M  V30 9210 S 908.71 -1.27292 4.19931 0
M  V30 9211 H 905.528 -0.0987374 0.704111 0
M  V30 9212 H 908.13 0.41839 1.90971 0
M  V30 9213 H 906.834 0.203797 4.09894 0
M  V30 9214 H 906.365 -1.44575 3.65871 0
M  V30 9215 H 908.38 -2.56102 4.25002 0
M  V30 9216 N 907.553 -1.57587 0.0200696 0
M  V30 9217 C 908.802 -1.90602 -0.659822 0
M  V30 9218 C 909.115 -0.897216 -1.73808 0
M  V30 9219 O 910.321 -1.11829 -2.47399 0
M  V30 9220 C 908.777 -3.38416 -1.22484 0
M  V30 9221 C 908.385 -4.47637 -0.180339 0
M  V30 9222 C 910.129 -3.80513 -1.88176 0
M  V30 9223 C 908.036 -5.86542 -0.756482 0
M  V30 9224 H 906.966 -0.711272 -0.250216 0
M  V30 9225 H 909.617 -1.83308 0.0838942 0
M  V30 9226 H 907.999 -3.40613 -2.01987 0
M  V30 9227 H 909.173 -4.56987 0.591573 0
M  V30 9228 H 907.488 -4.14687 0.377302 0
M  V30 9229 H 910.085 -4.8164 -2.32222 0
M  V30 9230 H 910.428 -3.15091 -2.72073 0
M  V30 9231 H 910.961 -3.80701 -1.15377 0
M  V30 9232 H 907.7 -6.55485 0.0441468 0
M  V30 9233 H 907.22 -5.80816 -1.49709 0
M  V30 9234 H 908.899 -6.3483 -1.249 0
M  V30 9235 N 909.032 0.252966 -1.55557 0
M  V30 9236 C 909.964 1.33585 -1.86246 0
M  V30 9237 C 910.977 1.44584 -0.748291 0
M  V30 9238 O 912.166 1.46042 -1.02635 0
M  V30 9239 C 909.266 2.71509 -2.02821 0
M  V30 9240 C 908.439 2.82853 -3.33636 0
M  V30 9241 C 907.498 4.01581 -3.40028 0
M  V30 9242 O 906.524 3.91394 -4.13278 0
M  V30 9243 N 907.726 5.14474 -2.6888 0
M  V30 9244 H 910.491 1.07596 -2.7972 0
M  V30 9245 H 908.052 0.443075 -1.55719 0
M  V30 9246 H 910.044 3.49262 -2.04445 0
M  V30 9247 H 908.614 2.90232 -1.1612 0
M  V30 9248 H 907.834 1.91823 -3.4438 0
M  V30 9249 H 909.122 2.87378 -4.19871 0
M  V30 9250 H 908.52 5.25641 -2.09087 0
M  V30 9251 H 907.077 5.90385 -2.76204 0
M  V30 9252 N 910.51 1.48831 0.518367 0
M  V30 9253 C 911.921 1.50842 1.10016 0
M  V30 9254 C 912.272 0.284744 1.94123 0
M  V30 9255 O 911.397 -0.607088 2.0771 0
M  V30 9256 C 911.992 2.73329 2.00191 0
M  V30 9257 C 910.551 2.78175 2.53566 0
M  V30 9258 C 909.698 2.4452 1.30786 0
M  V30 9259 H 912.649 1.55779 0.303073 0
M  V30 9260 H 912.67 2.52506 2.84642 0
M  V30 9261 H 912.182 3.62374 1.3895 0
M  V30 9262 H 910.283 1.93368 3.18496 0
M  V30 9263 H 910.396 3.79905 2.91906 0
M  V30 9264 H 908.76 1.95924 1.62744 0
M  V30 9265 H 909.543 3.35819 0.712797 0
M  V30 9266 N 911.988 -0.768124 1.37614 0
M  V30 9267 C 913.236 -1.52379 1.3276 0
M  V30 9268 C 913.557 -1.94809 -0.0863564 0
M  V30 9269 O 912.827 -1.66568 -1.03112 0
M  V30 9270 H 911.407 -0.565179 0.488448 0
M  V30 9271 H 914.069 -0.913974 1.72141 0
M  V30 9272 H 913.165 -2.4215 1.96901 0
M  V30 9273 N 913.466 -1.22244 -0.994698 0
M  V30 9274 C 914.691 -1.07299 -1.77487 0
M  V30 9275 C 915.116 0.372302 -1.84379 0
M  V30 9276 O 914.474 1.2689 -1.29494 0
M  V30 9277 C 914.522 -1.68675 -3.18718 0
M  V30 9278 O 913.626 -0.939202 -4.01563 0
M  V30 9279 H 912.967 -0.376979 -0.546611 0
M  V30 9280 H 915.497 -1.62003 -1.24965 0
M  V30 9281 H 915.507 -1.73324 -3.69354 0
M  V30 9282 H 914.182 -2.73849 -3.13017 0
M  V30 9283 H 912.759 -0.968583 -3.60101 0
M  V30 9284 N 914.944 1.19125 -1.03184 0
M  V30 9285 C 916.174 1.92558 -0.748663 0
M  V30 9286 C 916.582 1.759 0.696837 0
M  V30 9287 O 915.925 1.08019 1.48585 0
M  V30 9288 C 915.987 3.4461 -1.02391 0
M  V30 9289 C 915.651 3.85041 -2.46155 0
M  V30 9290 C 916.648 3.89554 -3.44302 0
M  V30 9291 C 914.333 4.16594 -2.80633 0
M  V30 9292 C 916.327 4.25055 -4.74981 0
M  V30 9293 C 914.014 4.51767 -4.11521 0
M  V30 9294 C 915.012 4.55972 -5.08506 0
M  V30 9295 O 914.7 4.9033 -6.37049 0
M  V30 9296 H 914.432 0.618397 -0.273059 0
M  V30 9297 H 916.986 1.52122 -1.38015 0
M  V30 9298 H 915.216 3.85244 -0.335284 0
M  V30 9299 H 916.905 3.99283 -0.729927 0
M  V30 9300 H 917.671 3.65324 -3.19003 0
M  V30 9301 H 913.55 4.12503 -2.05821 0
M  V30 9302 H 917.094 4.28252 -5.50678 0
M  V30 9303 H 912.991 4.75455 -4.36592 0
M  V30 9304 H 913.759 5.08266 -6.41566 0
M  V30 9305 N 916.422 0.810101 1.35185 0
M  V30 9306 C 917.67 0.391343 1.98275 0
M  V30 9307 C 917.991 -1.04592 1.64577 0
M  V30 9308 O 917.261 -1.72417 0.93001 0
M  V30 9309 H 915.841 0.141715 0.733434 0
M  V30 9310 H 918.503 1.03672 1.6504 0
M  V30 9311 H 917.599 0.49991 3.0807 0
M  V30 9312 N 917.9 -1.47166 0.563914 0
M  V30 9313 C 919.177 -1.95586 -0.0236172 0
M  V30 9314 C 919.557 -1.50655 -1.47872 0
M  V30 9315 O 918.905 -0.748479 -2.15894 0
M  V30 9316 C 919.115 -3.48762 0.128841 0
M  V30 9317 C 920.463 -4.24598 -0.0130544 0
M  V30 9318 O 921.487 -3.56155 0.0567242 0
M  V30 9319 O 920.346 -5.46253 -0.164332 0
M  V30 9320 H 917.44 -0.824793 -0.0603789 0
M  V30 9321 H 919.986 -1.57536 0.63091 0
M  V30 9322 H 918.758 -3.74291 1.14113 0
M  V30 9323 H 918.381 -3.93594 -0.56299 0
M  V30 9324 N 919.378 -0.300708 -1.54705 0
M  V30 9325 C 920.606 0.31127 -2.04545 0
M  V30 9326 C 921.021 1.47542 -1.178 0
M  V30 9327 O 920.378 1.81361 -0.203571 0
M  V30 9328 C 920.429 0.767783 -3.53253 0
M  V30 9329 O 920.15 -0.350027 -4.36699 0
M  V30 9330 C 921.651 1.44494 -4.1909 0
M  V30 9331 H 918.871 0.067668 -0.667579 0
M  V30 9332 H 921.415 -0.440254 -1.99705 0
M  V30 9333 H 919.57 1.46933 -3.58454 0
M  V30 9334 H 919.984 0.00534038 -5.245 0
M  V30 9335 H 921.458 1.71553 -5.24665 0
M  V30 9336 H 921.935 2.3849 -3.68808 0
M  V30 9337 H 922.541 0.786581 -4.17963 0
M  V30 9338 N 920.856 1.57574 -0.0284266 0
M  V30 9339 C 922.096 1.93637 0.65453 0
M  V30 9340 C 922.46 0.905015 1.69332 0
M  V30 9341 O 923.661 1.15181 2.42872 0
M  V30 9342 C 921.932 3.3462 1.25555 0
M  V30 9343 S 923.491 3.92609 1.95968 0
M  V30 9344 H 920.309 0.67755 0.215516 0
M  V30 9345 H 922.911 1.95284 -0.0919257 0
M  V30 9346 H 921.615 4.07499 0.487069 0
M  V30 9347 H 921.146 3.36415 2.03933 0
M  V30 9348 H 923.161 3.75988 3.23802 0
M  V30 9349 N 922.334 -0.244713 1.55689 0
M  V30 9350 C 923.244 -1.32447 1.93636 0
M  V30 9351 C 924.26 -1.52541 0.837086 0
M  V30 9352 O 925.436 -1.66121 1.13867 0
M  V30 9353 C 922.501 -2.65864 2.22525 0
M  V30 9354 C 921.562 -2.54273 3.45896 0
M  V30 9355 C 920.795 -3.81327 3.73397 0
M  V30 9356 O 921.018 -4.83307 3.02936 0
M  V30 9357 O 919.952 -3.79829 4.66919 0
M  V30 9358 H 923.778 -1.03255 2.85608 0
M  V30 9359 H 921.363 -0.445652 1.42598 0
M  V30 9360 H 923.245 -3.447 2.42404 0
M  V30 9361 H 921.92 -2.94784 1.33731 0
M  V30 9362 H 920.827 -1.73715 3.31321 0
M  V30 9363 H 922.16 -2.30297 4.34999 0
M  V30 9364 N 923.813 -1.49104 -0.510467 0
M  V30 9365 C 924.76 -1.65074 -1.61305 0
M  V30 9366 C 925.73 -0.492362 -1.58635 0
M  V30 9367 O 926.915 -0.718241 -1.76765 0
M  V30 9368 C 924.055 -1.71457 -2.99493 0
M  V30 9369 C 923.168 -2.98536 -3.12251 0
M  V30 9370 C 922.303 -2.95957 -4.41116 0
M  V30 9371 C 921.342 -4.17655 -4.47471 0
M  V30 9372 N 920.479 -4.13041 -5.67751 0
M  V30 9373 H 925.319 -2.59222 -1.46996 0
M  V30 9374 H 922.856 -1.28535 -0.715346 0
M  V30 9375 H 924.814 -1.7314 -3.79577 0
M  V30 9376 H 923.444 -0.807834 -3.12528 0
M  V30 9377 H 922.496 -3.06509 -2.25292 0
M  V30 9378 H 923.808 -3.88527 -3.12807 0
M  V30 9379 H 922.962 -2.96149 -5.2951 0
M  V30 9380 H 921.701 -2.03728 -4.4311 0
M  V30 9381 H 920.706 -4.17717 -3.57481 0
M  V30 9382 H 921.931 -5.11066 -4.472 0
M  V30 9383 H 919.877 -3.23643 -5.70606 0
M  V30 9384 H 919.794 -4.96757 -5.69884 0
M  V30 9385 H 921.062 -4.17322 -6.58379 0
M  V30 9386 N 925.291 0.760815 -1.38019 0
M  V30 9387 C 926.531 1.53264 -1.35239 0
M  V30 9388 C 926.895 1.91908 0.0595038 0
M  V30 9389 O 928.096 2.67962 0.212122 0
M  V30 9390 C 926.367 2.75643 -2.27499 0
M  V30 9391 S 927.926 3.6559 -2.42672 0
M  V30 9392 H 924.744 0.52457 -0.479945 0
M  V30 9393 H 927.346 0.893737 -1.73875 0
M  V30 9394 H 926.05 2.4535 -3.28986 0
M  V30 9395 H 925.581 3.44483 -1.89987 0
M  V30 9396 H 927.596 4.68124 -1.64542 0
M  V30 9397 N 926.769 1.22769 0.988202 0
M  V30 9398 C 928.18 1.0512 1.54294 0
M  V30 9399 C 928.531 -0.383904 1.92407 0
M  V30 9400 O 927.656 -1.26955 1.75246 0
M  V30 9401 C 928.251 1.90198 2.80375 0
M  V30 9402 C 926.81 1.76831 3.32276 0
M  V30 9403 C 925.957 1.86377 2.05326 0
M  V30 9404 H 928.908 1.36546 0.808758 0
M  V30 9405 H 928.929 1.42216 3.52923 0
M  V30 9406 H 928.441 2.9464 2.52605 0
M  V30 9407 H 926.542 0.751412 3.64945 0
M  V30 9408 H 926.655 2.59771 4.02562 0
M  V30 9409 H 925.019 1.2987 2.19103 0
M  V30 9410 H 925.802 2.9236 1.79946 0
M  V30 9411 N 928.247 -1.18576 1.03814 0
M  V30 9412 C 929.475 -1.92437 0.759966 0
M  V30 9413 C 929.89 -1.76031 -0.682526 0
M  V30 9414 O 929.247 -1.08829 -1.46501 0
M  V30 9415 C 929.298 -3.43923 1.11351 0
M  V30 9416 O 929.019 -3.5981 2.49937 0
M  V30 9417 C 930.52 -4.34888 0.859472 0
M  V30 9418 H 927.74 -0.610998 0.277349 0
M  V30 9419 H 930.284 -1.50448 1.38512 0
M  V30 9420 H 928.439 -3.83711 0.533362 0
M  V30 9421 H 928.853 -4.53569 2.63393 0
M  V30 9422 H 930.327 -5.39744 1.15672 0
M  V30 9423 H 930.804 -4.38717 -0.205839 0
M  V30 9424 H 931.41 -4.00795 1.42279 0
M  V30 9425 N 929.725 -0.817259 -1.34754 0
M  V30 9426 C 930.965 -0.408429 -2.00278 0
M  V30 9427 C 931.329 1.00818 -1.634 0
M  V30 9428 O 932.53 1.51959 -2.21725 0
M  V30 9429 C 930.801 -0.598219 -3.52358 0
M  V30 9430 S 932.36 -0.281395 -4.37897 0
M  V30 9431 H 929.178 -0.154587 -0.693991 0
M  V30 9432 H 931.78 -1.06184 -1.6415 0
M  V30 9433 H 930.484 -1.62901 -3.76685 0
M  V30 9434 H 930.015 0.0701299 -3.93337 0
M  V30 9435 H 932.03 0.907024 -4.8784 0
M  V30 9436 N 931.203 1.46865 -0.571711 0
M  V30 9437 C 932.614 1.86158 -0.142181 0
M  V30 9438 C 932.965 1.47663 1.2919 0
M  V30 9439 O 932.09 0.886393 1.97413 0
M  V30 9440 C 932.685 3.37867 -0.251256 0
M  V30 9441 C 931.244 3.76198 0.123329 0
M  V30 9442 C 930.391 2.70902 -0.592232 0
M  V30 9443 H 933.342 1.38176 -0.780587 0
M  V30 9444 H 933.363 3.76842 0.526331 0
M  V30 9445 H 932.875 3.65853 -1.2951 0
M  V30 9446 H 930.976 3.53829 1.16773 0
M  V30 9447 H 931.089 4.78471 -0.24533 0
M  V30 9448 H 929.453 2.54678 -0.0336927 0
M  V30 9449 H 930.236 3.01729 -1.63751 0
M  V30 9450 N 932.681 0.308908 1.54543 0
M  V30 9451 C 933.958 -0.351558 1.92415 0
M  V30 9452 C 934.338 -1.71061 1.23699 0
M  V30 9453 O 933.686 -2.25394 0.3755 0
M  V30 9454 C 933.896 -0.458357 3.45977 0
M  V30 9455 C 935.244 -0.725524 4.18355 0
M  V30 9456 O 936.268 -0.541859 3.52054 0
M  V30 9457 O 935.127 -1.07884 5.35745 0
M  V30 9458 H 932.221 -0.197957 0.802958 0
M  V30 9459 H 934.767 0.357548 1.65891 0
M  V30 9460 H 933.539 0.496723 3.88134 0
M  V30 9461 H 933.162 -1.21562 3.78561 0
M  V30 9462 N 934.159 -1.57557 0.0367827 0
M  V30 9463 C 935.122 -2.09591 -0.927589 0
M  V30 9464 C 936.122 -1.01252 -1.24919 0
M  V30 9465 O 937.312 -1.27382 -1.18825 0
M  V30 9466 C 934.444 -2.56816 -2.24184 0
M  V30 9467 H 935.637 -2.96086 -0.476784 0
M  V30 9468 H 933.19 -1.54864 -0.211385 0
M  V30 9469 H 933.925 -1.73673 -2.73876 0
M  V30 9470 H 933.71 -3.35973 -2.0215 0
M  V30 9471 H 935.2 -2.97271 -2.93291 0
M  V30 9472 N 935.637 0.236453 -1.55816 0
M  V30 9473 C 936.877 0.970249 -1.79904 0
M  V30 9474 C 937.241 1.8212 -0.607965 0
M  V30 9475 O 938.442 2.58759 -0.727833 0
M  V30 9476 C 936.713 1.79938 -3.088 0
M  V30 9477 S 938.272 2.59084 -3.54148 0
M  V30 9478 H 935.09 0.32618 -0.631765 0
M  V30 9479 H 937.692 0.237147 -1.94056 0
M  V30 9480 H 936.396 1.16412 -3.93544 0
M  V30 9481 H 935.927 2.57504 -2.97414 0
M  V30 9482 H 937.942 3.82315 -3.16306 0
M  V30 9483 N 937.115 1.49373 0.502552 0
M  V30 9484 C 938.343 1.62488 1.28084 0
M  V30 9485 C 938.758 0.295667 1.86471 0
M  V30 9486 O 938.115 -0.718664 1.67754 0
M  V30 9487 C 938.166 2.69249 2.4122 0
M  V30 9488 O 937.887 3.97014 1.85234 0
M  V30 9489 C 939.388 2.93054 3.32617 0
M  V30 9490 H 936.608 0.547068 0.388533 0
M  V30 9491 H 939.152 1.95394 0.603452 0
M  V30 9492 H 937.307 2.39125 3.04792 0
M  V30 9493 H 937.721 4.55809 2.59496 0
M  V30 9494 H 939.195 3.71493 4.08285 0
M  V30 9495 H 939.672 2.02911 3.89517 0
M  V30 9496 H 940.278 3.24589 2.74813 0
M  V30 9497 N 938.594 -0.753485 1.38421 0
M  V30 9498 C 939.841 -1.51261 1.34634 0
M  V30 9499 C 940.169 -1.94396 -0.0635771 0
M  V30 9500 O 939.424 -1.65736 -1.04068 0
M  V30 9501 C 939.723 -2.77836 2.24816 0
M  V30 9502 C 939.389 -2.53662 3.72782 0
M  V30 9503 C 938.051 -2.46779 4.13103 0
M  V30 9504 C 940.403 -2.32548 4.66445 0
M  V30 9505 C 937.731 -2.16796 5.45176 0
M  V30 9506 C 940.083 -2.04085 5.98775 0
M  V30 9507 C 938.747 -1.95658 6.3818 0
M  V30 9508 H 938.017 -0.553503 0.492661 0
M  V30 9509 H 940.664 -0.866406 1.7078 0
M  V30 9510 H 938.969 -3.47106 1.81726 0
M  V30 9511 H 940.666 -3.35793 2.19189 0
M  V30 9512 H 937.256 -2.59891 3.40815 0
M  V30 9513 H 941.44 -2.36845 4.3614 0
M  V30 9514 H 936.696 -2.0878 5.74648 0
M  V30 9515 H 940.87 -1.86751 6.70893 0
M  V30 9516 H 938.497 -1.7219 7.40442 0
M  V30 9517 N 940.072 -1.23292 -0.981677 0
M  V30 9518 C 941.019 -1.01296 -2.07383 0
M  V30 9519 C 941.989 0.069139 -1.65956 0
M  V30 9520 O 943.174 -0.0827108 -1.90621 0
M  V30 9521 C 940.314 -0.608876 -3.39686 0
M  V30 9522 C 939.427 -1.76296 -3.9439 0
M  V30 9523 C 938.562 -1.30578 -5.14901 0
M  V30 9524 C 937.601 -2.4307 -5.61768 0
M  V30 9525 N 936.738 -1.98319 -6.73509 0
M  V30 9526 H 941.578 -1.9478 -2.25532 0
M  V30 9527 H 939.115 -0.970356 -1.10555 0
M  V30 9528 H 941.073 -0.355702 -4.15681 0
M  V30 9529 H 939.703 0.288961 -3.21504 0
M  V30 9530 H 938.755 -2.13017 -3.15163 0
M  V30 9531 H 940.067 -2.60871 -4.25145 0
M  V30 9532 H 939.221 -1.01066 -5.98223 0
M  V30 9533 H 937.96 -0.430386 -4.85797 0
M  V30 9534 H 936.965 -2.73358 -4.77028 0
M  V30 9535 H 938.19 -3.31144 -5.92892 0
M  V30 9536 H 936.136 -1.13157 -6.46167 0
M  V30 9537 H 936.053 -2.76454 -7.0364 0
M  V30 9538 H 937.321 -1.71907 -7.60308 0
M  V30 9539 N 941.55 1.18024 -1.04442 0
M  V30 9540 C 942.497 2.21785 -0.638759 0
M  V30 9541 C 943.467 1.62255 0.355312 0
M  V30 9542 O 944.652 1.89176 0.24844 0
M  V30 9543 C 941.792 3.45098 -0.0118002 0
M  V30 9544 C 940.905 4.1895 -1.05379 0
M  V30 9545 C 940.04 5.2973 -0.394951 0
M  V30 9546 C 939.079 5.95359 -1.42178 0
M  V30 9547 N 938.216 6.97668 -0.787635 0
M  V30 9548 H 943.056 2.55839 -1.52808 0
M  V30 9549 H 940.593 1.25681 -0.764378 0
M  V30 9550 H 942.551 4.15564 0.369075 0
M  V30 9551 H 941.181 3.11652 0.84102 0
M  V30 9552 H 940.233 3.47274 -1.55258 0
M  V30 9553 H 941.545 4.63877 -1.83355 0
M  V30 9554 H 940.699 6.06687 0.0399244 0
M  V30 9555 H 939.438 4.85915 0.416867 0
M  V30 9556 H 938.443 5.17139 -1.86675 0
M  V30 9557 H 939.668 6.41255 -2.23536 0
M  V30 9558 H 937.614 6.56 0.00380893 0
M  V30 9559 H 937.531 7.40867 -1.50505 0
M  V30 9560 H 938.799 7.78586 -0.377282 0
M  V30 9561 N 943.028 0.824394 1.34319 0
M  V30 9562 C 943.938 0.24932 2.33271 0
M  V30 9563 C 944.954 -0.617066 1.62691 0
M  V30 9564 O 946.13 -0.524616 1.94447 0
M  V30 9565 C 943.195 -0.578094 3.41846 0
M  V30 9566 C 942.256 0.310866 4.28173 0
M  V30 9567 C 941.489 -0.477153 5.31563 0
M  V30 9568 O 941.712 -1.71028 5.44156 0
M  V30 9569 O 940.646 0.141287 6.01734 0
M  V30 9570 H 944.472 1.06837 2.84288 0
M  V30 9571 H 942.057 0.58657 1.37403 0
M  V30 9572 H 943.939 -1.04878 4.0814 0
M  V30 9573 H 942.614 -1.37444 2.93071 0
M  V30 9574 H 941.521 0.829081 3.64797 0
M  V30 9575 H 942.854 1.07161 4.80393 0
M  V30 9576 N 944.506 -1.46559 0.579492 0
M  V30 9577 C 945.746 -2.04292 0.0664837 0
M  V30 9578 C 946.11 -1.44161 -1.26814 0
M  V30 9579 O 947.311 -1.93074 -1.87018 0
M  V30 9580 C 945.582 -3.574 -0.00167254 0
M  V30 9581 S 947.141 -4.36408 -0.457572 0
M  V30 9582 H 943.959 -0.710092 0.035913 0
M  V30 9583 H 946.561 -1.79644 0.771263 0
M  V30 9584 H 945.265 -3.98683 0.973666 0
M  V30 9585 H 944.796 -3.8658 -0.729321 0
M  V30 9586 H 946.811 -4.65695 -1.71296 0
M  V30 9587 N 945.984 -0.3171 -1.54377 0
M  V30 9588 C 947.23 0.287836 -2.00747 0
M  V30 9589 C 947.563 1.52292 -1.20502 0
M  V30 9590 O 946.838 1.92391 -0.285626 0
M  V30 9591 C 947.121 0.628423 -3.54574 0
M  V30 9592 C 946.974 -0.616922 -4.45549 0
M  V30 9593 C 948.293 1.44862 -4.15575 0
M  V30 9594 H 945.412 0.103144 -0.729747 0
M  V30 9595 H 948.054 -0.432396 -1.85014 0
M  V30 9596 H 946.204 1.24203 -3.68111 0
M  V30 9597 H 947.876 -1.25526 -4.43893 0
M  V30 9598 H 946.119 -1.24706 -4.15489 0
M  V30 9599 H 946.79 -0.334243 -5.50987 0
M  V30 9600 H 949.266 0.930015 -4.05574 0
M  V30 9601 H 948.142 1.6557 -5.23333 0
M  V30 9602 H 948.403 2.44279 -3.68484 0
M  V30 9603 N 947.462 1.57535 -0.0451378 0
M  V30 9604 C 948.372 2.14653 0.946646 0
M  V30 9605 C 949.388 1.10279 1.3459 0
M  V30 9606 O 950.564 1.42417 1.42405 0
M  V30 9607 C 947.629 2.67533 2.20515 0
M  V30 9608 C 946.69 3.86682 1.86481 0
M  V30 9609 C 945.923 4.37031 3.06332 0
M  V30 9610 O 946.146 3.86481 4.1951 0
M  V30 9611 O 945.08 5.28691 2.87697 0
M  V30 9612 H 948.906 2.99706 0.49091 0
M  V30 9613 H 946.491 1.48355 0.17641 0
M  V30 9614 H 948.373 3.01542 2.94365 0
M  V30 9615 H 947.048 1.85554 2.65238 0
M  V30 9616 H 945.955 3.57573 1.09966 0
M  V30 9617 H 947.288 4.69873 1.46562 0
M  V30 9618 N 948.94 -0.228186 1.55939 0
M  V30 9619 C 950.18 -0.960695 1.80416 0
M  V30 9620 C 950.544 -1.81795 0.617615 0
M  V30 9621 O 951.745 -2.58369 0.741545 0
M  V30 9622 C 950.016 -1.78298 3.09749 0
M  V30 9623 S 951.575 -2.57203 3.55517 0
M  V30 9624 H 948.393 -0.322825 0.633486 0
M  V30 9625 H 950.995 -0.226852 1.94179 0
M  V30 9626 H 949.699 -1.14323 3.94155 0
M  V30 9627 H 949.23 -2.55924 2.98775 0
M  V30 9628 H 951.245 -3.80632 3.1833 0
M  V30 9629 N 950.418 -1.49637 -0.494624 0
M  V30 9630 C 951.365 -1.66776 -1.59545 0
M  V30 9631 C 952.335 -0.509159 -1.58104 0
M  V30 9632 O 953.52 -0.736949 -1.75993 0
M  V30 9633 C 950.66 -1.74624 -2.97658 0
M  V30 9634 C 949.773 -3.01831 -3.09067 0
M  V30 9635 C 948.908 -3.00619 -4.37952 0
M  V30 9636 C 947.947 -4.22378 -4.43016 0
M  V30 9637 N 947.084 -4.1904 -5.63339 0
M  V30 9638 H 951.924 -2.60767 -1.44238 0
M  V30 9639 H 949.461 -1.29286 -0.701673 0
M  V30 9640 H 951.419 -1.77156 -3.77719 0
M  V30 9641 H 950.049 -0.840936 -3.11654 0
M  V30 9642 H 949.101 -3.08881 -2.22029 0
M  V30 9643 H 950.413 -3.91823 -3.08669 0
M  V30 9644 H 949.567 -3.01749 -5.26339 0
M  V30 9645 H 948.306 -2.08416 -4.40924 0
M  V30 9646 H 947.311 -4.21485 -3.5303 0
M  V30 9647 H 948.536 -5.15781 -4.41755 0
M  V30 9648 H 946.482 -3.29677 -5.67141 0
M  V30 9649 H 946.399 -5.02774 -5.64583 0
M  V30 9650 H 947.667 -4.24281 -6.53916 0
M  V30 9651 N 951.896 0.746133 -1.38819 0
M  V30 9652 C 952.843 1.86001 -1.36647 0
M  V30 9653 C 953.813 1.6453 -0.227849 0
M  V30 9654 O 954.998 1.86092 -0.421241 0
M  V30 9655 C 952.138 3.23388 -1.20474 0
M  V30 9656 C 951.251 3.5664 -2.43786 0
M  V30 9657 C 950.386 4.8337 -2.20287 0
M  V30 9658 C 949.425 5.09431 -3.39332 0
M  V30 9659 N 948.562 6.2736 -3.1522 0
M  V30 9660 H 953.402 1.87192 -2.31869 0
M  V30 9661 H 950.939 0.914838 -1.15192 0
M  V30 9662 H 952.897 4.02679 -1.09112 0
M  V30 9663 H 951.527 3.21505 -0.288874 0
M  V30 9664 H 950.579 2.72135 -2.65794 0
M  V30 9665 H 951.891 3.71823 -3.3249 0
M  V30 9666 H 951.045 5.70619 -2.06103 0
M  V30 9667 H 949.784 4.70341 -1.28961 0
M  V30 9668 H 948.789 4.20648 -3.54027 0
M  V30 9669 H 950.014 5.24354 -4.31544 0
M  V30 9670 H 947.96 6.15639 -2.26549 0
M  V30 9671 H 947.877 6.43078 -3.97476 0
M  V30 9672 H 949.145 7.17477 -3.04707 0
M  V30 9673 N 953.375 1.23811 0.975125 0
M  V30 9674 C 954.622 1.07336 1.71712 0
M  V30 9675 C 954.95 -0.388954 1.90571 0
M  V30 9676 O 954.205 -1.30409 1.45918 0
M  V30 9677 C 954.504 1.74994 3.11628 0
M  V30 9678 C 954.17 3.24918 3.12632 0
M  V30 9679 C 952.832 3.65822 3.12614 0
M  V30 9680 C 955.184 4.20797 3.07538 0
M  V30 9681 C 952.512 5.01054 3.05224 0
M  V30 9682 C 954.864 5.56027 3.0169 0
M  V30 9683 C 953.528 5.96287 2.99996 0
M  V30 9684 H 952.798 0.392771 0.62834 0
M  V30 9685 H 955.445 1.53815 1.14075 0
M  V30 9686 H 953.75 1.20889 3.72684 0
M  V30 9687 H 955.447 1.5972 3.67819 0
M  V30 9688 H 952.037 2.92359 3.13407 0
M  V30 9689 H 956.221 3.902 3.06688 0
M  V30 9690 H 951.477 5.31454 3.02268 0
M  V30 9691 H 955.651 6.3003 2.96706 0
M  V30 9692 H 953.278 7.01037 2.94025 0
M  V30 9693 N 954.853 -1.17469 1.05066 0
M  V30 9694 C 956.13 -1.83625 0.673872 0
M  V30 9695 C 956.51 -1.93412 -0.845871 0
M  V30 9696 O 955.858 -1.4677 -1.75131 0
M  V30 9697 C 956.068 -3.21352 1.36139 0
M  V30 9698 C 957.416 -3.97274 1.49863 0
M  V30 9699 O 958.44 -3.30827 1.3203 0
M  V30 9700 O 957.299 -5.16349 1.79013 0
M  V30 9701 H 954.393 -0.792297 0.237055 0
M  V30 9702 H 956.939 -1.24776 1.15017 0
M  V30 9703 H 955.711 -3.0919 2.39827 0
M  V30 9704 H 955.334 -3.87867 0.874364 0
M  V30 9705 N 956.331 -0.831506 -1.3388 0
M  V30 9706 C 957.747 -0.518349 -1.50948 0
M  V30 9707 C 957.947 0.955807 -1.77388 0
M  V30 9708 O 957.003 1.73993 -1.82983 0
M  V30 9709 C 958.316 -1.38531 -2.66889 0
M  V30 9710 C 959.864 -1.38332 -2.80772 0
M  V30 9711 C 960.339 -2.23497 -3.99766 0
M  V30 9712 N 961.83 -2.21167 -4.06988 0
M  V30 9713 C 962.565 -2.83805 -4.98239 0
M  V30 9714 N 962.061 -3.55468 -5.94655 0
M  V30 9715 N 963.854 -2.73314 -4.91178 0
M  V30 9716 H 956.005 -1.78588 -1.14978 0
M  V30 9717 H 958.268 -0.761508 -0.564633 0
M  V30 9718 H 957.974 -2.43255 -2.54007 0
M  V30 9719 H 957.848 -1.05611 -3.62114 0
M  V30 9720 H 960.235 -0.343832 -2.9309 0
M  V30 9721 H 960.316 -1.75256 -1.86331 0
M  V30 9722 H 959.96 -3.27501 -3.88208 0
M  V30 9723 H 959.89 -1.83919 -4.93438 0
M  V30 9724 H 962.381 -1.69046 -3.37982 0
M  V30 9725 H 962.694 -4.00487 -6.60931 0
M  V30 9726 H 961.039 -3.59575 -5.94753 0
M  V30 9727 H 964.23 -2.16897 -4.14817 0
M  V30 9728 H 964.403 -3.22416 -5.62096 0
M  V30 9729 N 957.809 1.4625 -0.587256 0
M  V30 9730 C 959.057 2.01963 -0.0744273 0
M  V30 9731 C 959.378 1.46065 1.29189 0
M  V30 9732 O 958.648 0.647077 1.84905 0
M  V30 9733 H 957.228 0.746597 -0.0245236 0
M  V30 9734 H 959.89 1.79299 -0.764063 0
M  V30 9735 H 958.986 3.12099 -0.00884894 0
M  V30 9736 N 959.287 0.325282 1.54207 0
M  V30 9737 C 960.25 -0.527228 2.23054 0
M  V30 9738 C 961.25 -1.04217 1.22456 0
M  V30 9739 O 962.44 -0.934325 1.47024 0
M  V30 9740 C 959.572 -1.7325 2.93594 0
M  V30 9741 H 960.765 0.0746423 2.99807 0
M  V30 9742 H 958.318 0.0763872 1.56113 0
M  V30 9743 H 959.053 -2.37356 2.20981 0
M  V30 9744 H 958.838 -1.37065 3.67363 0
M  V30 9745 H 960.328 -2.3376 3.46043 0
M  V30 9746 N 960.765 -1.57509 0.0534917 0
M  V30 9747 C 961.695 -2.14698 -0.917999 0
M  V30 9748 C 962.676 -1.06924 -1.32292 0
M  V30 9749 O 963.861 -1.34875 -1.39723 0
M  V30 9750 C 960.991 -2.69383 -2.19203 0
M  V30 9751 C 959.945 -3.82161 -1.9271 0
M  V30 9752 C 959.271 -4.23373 -3.26587 0
M  V30 9753 C 960.571 -5.07199 -1.24686 0
M  V30 9754 H 962.265 -2.96125 -0.44165 0
M  V30 9755 H 959.811 -1.42446 -0.210993 0
M  V30 9756 H 961.764 -3.08031 -2.87567 0
M  V30 9757 H 960.488 -1.85151 -2.69048 0
M  V30 9758 H 959.147 -3.43989 -1.26757 0
M  V30 9759 H 958.795 -3.36089 -3.74237 0
M  V30 9760 H 958.495 -4.99385 -3.09658 0
M  V30 9761 H 960.019 -4.64623 -3.96178 0
M  V30 9762 H 961.433 -5.43279 -1.83088 0
M  V30 9763 H 959.83 -5.88369 -1.18076 0
M  V30 9764 H 960.9 -4.84386 -0.223227 0
M  V30 9765 N 962.243 0.219913 -1.56058 0
M  V30 9766 C 963.193 1.27606 -1.88946 0
M  V30 9767 C 964.177 1.42209 -0.752691 0
M  V30 9768 O 965.369 1.44996 -1.01514 0
M  V30 9769 C 962.498 2.62614 -2.21108 0
M  V30 9770 C 961.584 2.51906 -3.4118 0
M  V30 9771 N 961.975 2.10851 -4.59756 0
M  V30 9772 C 960.273 2.82861 -3.44827 0
M  V30 9773 C 960.974 2.11434 -5.41914 0
M  V30 9774 N 959.95 2.51985 -4.81669 0
M  V30 9775 H 963.752 0.94957 -2.78137 0
M  V30 9776 H 961.266 0.428468 -1.56646 0
M  V30 9777 H 963.263 3.38869 -2.42844 0
M  V30 9778 H 961.923 2.96108 -1.3323 0
M  V30 9779 H 962.934 1.81956 -4.84884 0
M  V30 9780 H 959.611 3.20716 -2.67297 0
M  V30 9781 H 961.001 1.81803 -6.46836 0
M  V30 9782 N 963.721 1.49897 0.486681 0
M  V30 9783 C 964.998 1.50614 1.24799 0
M  V30 9784 C 965.378 0.24193 2.09709 0
M  V30 9785 O 964.726 -0.775237 2.14947 0
M  V30 9786 C 964.936 2.79318 2.09243 0
M  V30 9787 C 966.284 3.29371 2.67955 0
M  V30 9788 O 967.308 2.80533 2.19499 0
M  V30 9789 O 966.167 4.14466 3.56202 0
M  V30 9790 H 963.261 0.603447 0.565491 0
M  V30 9791 H 965.807 1.62174 0.499778 0
M  V30 9792 H 964.579 3.62812 1.46572 0
M  V30 9793 H 964.202 2.70687 2.91229 0
M  V30 9794 N 965.199 -0.738761 1.39212 0
M  V30 9795 C 966.109 -1.88324 1.39897 0
M  V30 9796 C 967.125 -1.71494 0.294229 0
M  V30 9797 O 968.301 -1.94162 0.535087 0
M  V30 9798 C 965.366 -3.23871 1.23726 0
M  V30 9799 C 964.427 -3.53121 2.44139 0
M  V30 9800 C 963.66 -4.82202 2.2873 0
M  V30 9801 O 963.883 -5.55649 1.28879 0
M  V30 9802 O 962.817 -5.11265 3.17634 0
M  V30 9803 H 966.643 -1.90701 2.36362 0
M  V30 9804 H 964.228 -0.886067 1.20288 0
M  V30 9805 H 966.11 -4.04882 1.16826 0
M  V30 9806 H 964.785 -3.22274 0.303551 0
M  V30 9807 H 963.692 -2.72212 2.56615 0
M  V30 9808 H 965.025 -3.59495 3.36191 0
M  V30 9809 N 966.677 -1.24326 -0.968545 0
M  V30 9810 C 967.625 -1.03256 -2.08425 0
M  V30 9811 C 968.619 0.0322356 -1.69369 0
M  V30 9812 O 969.825 -0.122251 -1.79584 0
M  V30 9813 H 966.2 -0.31688 -0.681976 0
M  V30 9814 H 968.171 -1.97873 -2.23358 0
M  V30 9815 C 966.92 -0.653144 -3.4151 0
M  V30 9816 H 966.243 -1.46424 -3.72021 0
M  V30 9817 H 967.683 -0.545316 -4.20479 0
M  V30 9818 C 966.142 0.639674 -3.30771 0
M  V30 9819 O 966.672 1.68563 -3.64622 0
M  V30 9820 N 964.878 0.620074 -2.83907 0
M  V30 9821 H 964.425 -0.231449 -2.56558 0
M  V30 9822 H 964.383 1.48528 -2.77104 0
M  V30 9823 N 968.156 1.1691 -1.05688 0
M  V30 9824 C 969.384 1.91204 -0.790485 0
M  V30 9825 C 969.799 1.77095 0.654434 0
M  V30 9826 O 969.156 1.11146 1.44751 0
M  V30 9827 C 969.207 3.42108 -1.16808 0
M  V30 9828 O 968.928 3.55788 -2.55629 0
M  V30 9829 C 970.429 4.33466 -0.92855 0
M  V30 9830 H 967.649 0.606508 -0.287035 0
M  V30 9831 H 970.193 1.48225 -1.40888 0
M  V30 9832 H 968.348 3.82814 -0.59434 0
M  V30 9833 H 968.762 4.49321 -2.70575 0
M  V30 9834 H 970.236 5.37836 -1.24245 0
M  V30 9835 H 970.713 4.38989 0.136016 0
M  V30 9836 H 971.319 3.98481 -1.48638 0
M  V30 9837 N 969.634 0.838594 1.33437 0
M  V30 9838 C 970.874 0.440239 1.99603 0
M  V30 9839 C 971.238 -0.982061 1.64984 0
M  V30 9840 O 972.439 -1.48413 2.24114 0
M  V30 9841 C 970.71 0.654201 3.51362 0
M  V30 9842 S 972.269 0.351025 4.37394 0
M  V30 9843 H 969.087 0.165608 0.691444 0
M  V30 9844 H 971.689 1.08782 1.6244 0
M  V30 9845 H 970.393 1.68873 3.74045 0
M  V30 9846 H 969.924 -0.00754449 3.93399 0
M  V30 9847 H 971.939 -0.829298 4.89221 0
M  V30 9848 N 971.112 -1.45937 0.595003 0
M  V30 9849 C 972.06 -2.32155 -0.143798 0
M  V30 9850 C 973.054 -1.45221 -0.872198 0
M  V30 9851 O 974.26 -1.61777 -0.789191 0
M  V30 9852 H 970.635 -0.749165 -0.0652377 0
M  V30 9853 H 972.606 -2.92264 0.602005 0
M  V30 9854 C 971.355 -3.28615 -1.13611 0
M  V30 9855 H 970.678 -3.95496 -0.585044 0
M  V30 9856 H 972.118 -3.91699 -1.62321 0
M  V30 9857 C 970.577 -2.54863 -2.20333 0
M  V30 9858 O 971.107 -2.32071 -3.27881 0
M  V30 9859 N 969.313 -2.15213 -1.95274 0
M  V30 9860 H 968.86 -2.33949 -1.07822 0
M  V30 9861 H 968.818 -1.66188 -2.66888 0
M  V30 9862 N 972.59 -0.333456 -1.54032 0
M  V30 9863 C 974.006 0.0188405 -1.59589 0
M  V30 9864 C 974.206 1.49615 -1.34972 0
M  V30 9865 O 973.262 2.2535 -1.13901 0
M  V30 9866 C 974.575 -0.408273 -2.97915 0
M  V30 9867 C 976.123 -0.359763 -3.10926 0
M  V30 9868 C 976.598 -0.76219 -4.51613 0
M  V30 9869 N 978.089 -0.715981 -4.57633 0
M  V30 9870 C 978.824 -0.999436 -5.64623 0
M  V30 9871 N 978.32 -1.35053 -6.79509 0
M  V30 9872 N 980.113 -0.924343 -5.54448 0
M  V30 9873 H 972.264 -1.29587 -1.68289 0
M  V30 9874 H 974.527 -0.527584 -0.787629 0
M  V30 9875 H 974.233 -1.43793 -3.20962 0
M  V30 9876 H 974.107 0.221685 -3.76548 0
M  V30 9877 H 976.494 0.660703 -2.87609 0
M  V30 9878 H 976.575 -1.02479 -2.34375 0
M  V30 9879 H 976.219 -1.78062 -4.75664 0
M  V30 9880 H 976.149 -0.0747478 -5.26547 0
M  V30 9881 H 978.64 -0.456875 -3.75128 0
M  V30 9882 H 978.953 -1.55194 -7.57057 0
M  V30 9883 H 977.298 -1.38889 -6.80981 0
M  V30 9884 H 980.489 -0.649469 -4.63573 0
M  V30 9885 H 980.662 -1.1486 -6.37739 0
M  V30 9886 N 974.068 1.57479 -0.061844 0
M  V30 9887 C 975.298 1.97142 0.61794 0
M  V30 9888 C 975.706 0.938533 1.64281 0
M  V30 9889 O 975.049 -0.084385 1.83506 0
M  V30 9890 C 975.111 3.33083 1.35263 0
M  V30 9891 C 974.775 4.54447 0.482372 0
M  V30 9892 C 975.772 5.1927 -0.255954 0
M  V30 9893 C 973.457 5.00623 0.410167 0
M  V30 9894 C 975.451 6.28612 -1.05481 0
M  V30 9895 C 973.138 6.09839 -0.392369 0
M  V30 9896 C 974.136 6.73696 -1.12354 0
M  V30 9897 O 973.824 7.80811 -1.91285 0
M  V30 9898 H 973.556 0.653497 0.172969 0
M  V30 9899 H 976.11 2.05002 -0.127781 0
M  V30 9900 H 974.34 3.21808 2.14421 0
M  V30 9901 H 976.029 3.5742 1.92368 0
M  V30 9902 H 976.795 4.84546 -0.209703 0
M  V30 9903 H 972.674 4.50704 0.968883 0
M  V30 9904 H 976.218 6.78385 -1.62602 0
M  V30 9905 H 972.115 6.43997 -0.44022 0
M  V30 9906 H 972.883 7.9764 -1.83611 0
M  V30 9907 N 975.546 -0.211634 1.56173 0
M  V30 9908 C 976.786 -0.941505 1.81425 0
M  V30 9909 C 977.15 -1.8113 0.636862 0
M  V30 9910 O 978.351 -2.57568 0.768907 0
M  V30 9911 C 976.622 -1.75002 3.11623 0
M  V30 9912 S 978.181 -2.53418 3.58225 0
M  V30 9913 H 974.999 -0.316088 0.636875 0
M  V30 9914 H 977.601 -0.206244 1.94409 0
M  V30 9915 H 976.305 -1.10136 3.95346 0
M  V30 9916 H 975.836 -2.5274 3.01473 0
M  V30 9917 H 977.851 -3.77234 3.22349 0
M  V30 9918 N 977.024 -1.50153 -0.478725 0
M  V30 9919 C 978.44 -1.3741 -0.811833 0
M  V30 9920 C 978.64 -0.424303 -1.96982 0
M  V30 9921 O 977.696 0.13588 -2.52134 0
M  V30 9922 C 979.009 -2.78616 -1.13108 0
M  V30 9923 C 980.557 -2.87477 -1.23798 0
M  V30 9924 C 981.032 -4.295 -1.5904 0
M  V30 9925 N 982.523 -4.32415 -1.66047 0
M  V30 9926 C 983.258 -5.39295 -1.94805 0
M  V30 9927 N 982.754 -6.56392 -2.21635 0
M  V30 9928 N 984.547 -5.26731 -1.96243 0
M  V30 9929 H 976.698 -2.10486 0.284531 0
M  V30 9930 H 978.961 -0.945786 0.0647585 0
M  V30 9931 H 978.667 -3.49921 -0.35334 0
M  V30 9932 H 978.541 -3.15382 -2.06915 0
M  V30 9933 H 980.928 -2.16396 -2.00641 0
M  V30 9934 H 981.009 -2.54264 -0.279888 0
M  V30 9935 H 980.653 -5.01115 -0.827404 0
M  V30 9936 H 980.583 -4.60194 -2.55987 0
M  V30 9937 H 983.074 -3.47975 -1.47383 0
M  V30 9938 H 983.387 -7.33658 -2.4283 0
M  V30 9939 H 981.732 -6.59579 -2.19043 0
M  V30 9940 H 984.923 -4.34249 -1.74773 0
M  V30 9941 H 985.096 -6.10115 -2.1832 0
M  V30 9942 N 978.502 0.731368 -1.39602 0
M  V30 9943 C 979.779 1.48308 -1.27531 0
M  V30 9944 C 980.159 2.10795 0.113482 0
M  V30 9945 O 979.507 1.98886 1.12501 0
M  V30 9946 C 979.717 2.53156 -2.40235 0
M  V30 9947 C 981.065 3.19436 -2.79725 0
M  V30 9948 O 982.089 2.6347 -2.39712 0
M  V30 9949 O 980.948 4.20714 -3.48801 0
M  V30 9950 H 978.042 0.658753 -0.499973 0
M  V30 9951 H 980.588 0.764884 -1.51485 0
M  V30 9952 H 979.36 2.05387 -3.33064 0
M  V30 9953 H 978.983 3.3253 -2.17966 0
M  V30 9954 N 979.98 1.24838 0.961938 0
M  V30 9955 C 980.89 1.06304 2.09133 0
M  V30 9956 C 981.906 0.00221475 1.74 0
M  V30 9957 O 983.082 0.201611 2.00388 0
M  V30 9958 C 980.147 0.676117 3.40043 0
M  V30 9959 C 979.208 1.81407 3.89089 0
M  V30 9960 C 978.441 1.44551 5.13752 0
M  V30 9961 O 978.664 0.337894 5.69398 0
M  V30 9962 O 977.598 2.27316 5.57325 0
M  V30 9963 H 981.424 2.01001 2.27667 0
M  V30 9964 H 979.009 1.0371 1.07539 0
M  V30 9965 H 980.891 0.472124 4.18747 0
M  V30 9966 H 979.566 -0.241667 3.22797 0
M  V30 9967 H 978.473 2.07286 3.11421 0
M  V30 9968 H 979.806 2.71083 4.10822 0
M  V30 9969 N 981.458 -1.16348 1.06306 0
M  V30 9970 C 982.707 -1.8622 0.774909 0
M  V30 9971 C 983.02 -1.82598 -0.701245 0
M  V30 9972 O 984.226 -2.48051 -1.10377 0
M  V30 9973 C 982.682 -3.34182 1.33604 0
M  V30 9974 C 982.29 -3.46279 2.84245 0
M  V30 9975 C 984.034 -4.09309 1.12544 0
M  V30 9976 C 981.941 -4.88327 3.33602 0
M  V30 9977 H 980.871 -0.697574 0.286194 0
M  V30 9978 H 983.522 -1.31311 1.28179 0
M  V30 9979 H 981.904 -3.88698 0.756937 0
M  V30 9980 H 983.078 -3.01923 3.48108 0
M  V30 9981 H 981.393 -2.84585 3.03974 0
M  V30 9982 H 983.99 -5.14123 1.46909 0
M  V30 9983 H 984.333 -4.16251 0.0638129 0
M  V30 9984 H 984.866 -3.61032 1.67034 0
M  V30 9985 H 981.605 -4.86565 4.39244 0
M  V30 9986 H 981.125 -5.33307 2.74487 0
M  V30 9987 H 982.804 -5.57144 3.28937 0
M  V30 9988 N 982.937 -0.845659 -1.3299 0
M  V30 9989 C 983.847 -0.2864 -2.32845 0
M  V30 9990 C 984.863 0.591105 -1.63652 0
M  V30 9991 O 986.039 0.493615 -1.95257 0
M  V30 9992 C 983.104 0.523636 -3.42723 0
M  V30 9993 C 982.165 -0.378945 -4.27624 0
M  V30 9994 C 981.398 0.392526 -5.32255 0
M  V30 9995 O 981.621 1.6235 -5.46808 0
M  V30 9996 O 980.555 -0.237 -6.01433 0
M  V30 9997 H 984.381 -1.11346 -2.82552 0
M  V30 9998 H 981.966 -0.608356 -1.36453 0
M  V30 9999 H 983.848 0.983718 -4.09757 0
M  V30 10000 H 982.523 1.32764 -2.95221 0
M  V30 10001 H 981.43 -0.887012 -3.63432 0
M  V30 10002 H 982.763 -1.1479 -4.78627 0
M  V30 10003 N 984.415 1.45619 -0.602734 0
M  V30 10004 C 985.64 2.07157 -0.100429 0
M  V30 10005 C 986.065 1.44524 1.20393 0
M  V30 10006 O 985.423 0.536191 1.7319 0
M  V30 10007 C 985.471 3.60587 0.0308604 0
M  V30 10008 O 984.575 3.97944 1.08234 0
M  V30 10009 H 983.916 0.6601 -0.0718643 0
M  V30 10010 H 986.446 1.86948 -0.831366 0
M  V30 10011 H 986.456 4.07348 0.230634 0
M  V30 10012 H 985.131 4.05561 -0.921581 0
M  V30 10013 H 983.708 3.62862 0.859414 0
M  V30 10014 N 985.893 0.34162 1.53853 0
M  V30 10015 C 987.139 -0.255862 2.01179 0
M  V30 10016 C 987.472 -1.50356 1.22909 0
M  V30 10017 O 986.747 -1.91913 0.316198 0
M  V30 10018 C 987.03 -0.571934 3.55529 0
M  V30 10019 C 986.883 0.687727 4.44511 0
M  V30 10020 C 988.202 -1.38233 4.17827 0
M  V30 10021 H 985.321 -0.091521 0.731295 0
M  V30 10022 H 987.963 0.461775 1.84303 0
M  V30 10023 H 986.113 -1.18331 3.70041 0
M  V30 10024 H 987.785 1.32572 4.4184 0
M  V30 10025 H 986.028 1.313 4.13452 0
M  V30 10026 H 986.699 0.421858 5.50386 0
M  V30 10027 H 989.175 -0.865374 4.07002 0
M  V30 10028 H 988.051 -1.57223 5.25901 0
M  V30 10029 H 988.312 -2.38386 3.72323 0
M  V30 10030 N 987.371 -1.57444 0.0701946 0
M  V30 10031 C 988.318 -2.12631 -0.897599 0
M  V30 10032 C 989.288 -1.03841 -1.29639 0
M  V30 10033 O 990.473 -1.31495 -1.38253 0
M  V30 10034 C 987.613 -2.6911 -2.16041 0
M  V30 10035 C 986.726 -3.9205 -1.8144 0
M  V30 10036 C 985.861 -4.36778 -3.02321 0
M  V30 10037 C 984.9 -5.52371 -2.63729 0
M  V30 10038 N 984.037 -5.92065 -3.77364 0
M  V30 10039 H 988.877 -2.95024 -0.420104 0
M  V30 10040 H 986.414 -1.45792 -0.195716 0
M  V30 10041 H 988.372 -2.99963 -2.89962 0
M  V30 10042 H 987.002 -1.89484 -2.61334 0
M  V30 10043 H 986.054 -3.67669 -0.975896 0
M  V30 10044 H 987.366 -4.76011 -1.49046 0
M  V30 10045 H 986.52 -4.69285 -3.84521 0
M  V30 10046 H 985.259 -3.51668 -3.37907 0
M  V30 10047 H 984.264 -5.19517 -1.7995 0
M  V30 10048 H 985.489 -6.39212 -2.29315 0
M  V30 10049 H 983.435 -5.09904 -4.12715 0
M  V30 10050 H 983.352 -6.70762 -3.48733 0
M  V30 10051 H 984.62 -6.29193 -4.60148 0
M  V30 10052 N 988.849 0.203349 -1.56283 0
M  V30 10053 C 989.759 1.27266 -1.9708 0
M  V30 10054 C 990.775 1.50268 -0.877236 0
M  V30 10055 O 991.951 1.63044 -1.18231 0
M  V30 10056 C 989.016 2.59871 -2.29495 0
M  V30 10057 C 988.077 2.45012 -3.52516 0
M  V30 10058 C 987.31 3.71293 -3.83376 0
M  V30 10059 O 987.533 4.75106 -3.15643 0
M  V30 10060 O 986.467 3.67316 -4.76826 0
M  V30 10061 H 990.293 0.956461 -2.88246 0
M  V30 10062 H 987.878 0.407688 -1.4373 0
M  V30 10063 H 989.76 3.38152 -2.51458 0
M  V30 10064 H 988.435 2.91135 -1.415 0
M  V30 10065 H 987.342 1.6487 -3.35811 0
M  V30 10066 H 988.675 2.18683 -4.40952 0
M  V30 10067 N 990.327 1.50405 0.470755 0
M  V30 10068 C 991.257 1.72222 1.57676 0
M  V30 10069 C 992.238 0.57121 1.60222 0
M  V30 10070 O 993.423 0.810381 1.76484 0
M  V30 10071 C 990.553 1.81666 2.95998 0
M  V30 10072 C 989.507 2.96857 3.08318 0
M  V30 10073 C 988.833 2.91445 4.4829 0
M  V30 10074 C 990.133 4.37361 2.85504 0
M  V30 10075 H 991.827 2.64825 1.39671 0
M  V30 10076 H 989.373 1.27438 0.67049 0
M  V30 10077 H 991.326 1.95514 3.73299 0
M  V30 10078 H 990.05 0.856856 3.1516 0
M  V30 10079 H 988.709 2.82661 2.33449 0
M  V30 10080 H 988.357 1.93309 4.64371 0
M  V30 10081 H 988.057 3.68776 4.57469 0
M  V30 10082 H 989.581 3.07341 5.27611 0
M  V30 10083 H 990.995 4.52081 3.52555 0
M  V30 10084 H 989.392 5.16145 3.06127 0
M  V30 10085 H 990.462 4.49708 1.81359 0
M  V30 10086 N 991.805 -0.723954 1.39988 0
M  V30 10087 C 992.752 -1.83803 1.39589 0
M  V30 10088 C 993.722 -1.64146 0.253996 0
M  V30 10089 O 994.907 -1.85398 0.450793 0
M  V30 10090 C 992.047 -3.21431 1.25604 0
M  V30 10091 C 991.16 -3.52717 2.49429 0
M  V30 10092 C 990.295 -4.79805 2.27949 0
M  V30 10093 C 989.334 -5.03968 3.47394 0
M  V30 10094 N 988.471 -6.22266 3.25161 0
M  V30 10095 H 993.311 -1.83479 2.34818 0
M  V30 10096 H 990.848 -0.896396 1.16633 0
M  V30 10097 H 992.806 -4.00892 1.15504 0
M  V30 10098 H 991.436 -3.21005 0.339986 0
M  V30 10099 H 990.488 -2.67872 2.7009 0
M  V30 10100 H 991.8 -3.66486 3.38363 0
M  V30 10101 H 990.954 -5.67268 2.15155 0
M  V30 10102 H 989.693 -4.68229 1.36428 0
M  V30 10103 H 988.698 -4.14963 3.60674 0
M  V30 10104 H 989.923 -5.17422 4.39831 0
M  V30 10105 H 987.869 -6.11957 2.36314 0
M  V30 10106 H 987.786 -6.36673 4.07656 0
M  V30 10107 H 989.054 -7.12539 3.16083 0
M  V30 10108 N 993.283 -1.25346 -0.955304 0
M  V30 10109 C 994.56 -1.00829 -1.67609 0
M  V30 10110 C 994.94 0.465675 -2.059 0
M  V30 10111 O 994.288 1.44287 -1.77182 0
M  V30 10112 C 994.498 -1.94337 -2.89886 0
M  V30 10113 C 995.846 -2.22142 -3.61854 0
M  V30 10114 O 996.87 -1.9209 -2.99967 0
M  V30 10115 O 995.729 -2.73239 -4.73289 0
M  V30 10116 H 992.823 -0.382314 -0.733325 0
M  V30 10117 H 995.369 -1.36498 -1.00829 0
M  V30 10118 H 994.141 -2.93867 -2.58376 0
M  V30 10119 H 993.764 -1.59062 -3.64397 0
M  V30 10120 N 994.761 1.15782 -1.06922 0
M  V30 10121 C 995.989 1.90355 -0.81072 0
M  V30 10122 C 996.404 1.77779 0.635614 0
M  V30 10123 O 995.761 1.12675 1.43564 0
M  V30 10124 C 995.812 3.4085 -1.2043 0
M  V30 10125 O 995.533 3.53057 -2.59388 0
M  V30 10126 C 997.034 4.32457 -0.974473 0
M  V30 10127 H 994.254 0.60343 -0.293451 0
M  V30 10128 H 996.798 1.46723 -1.42452 0
M  V30 10129 H 994.953 3.82162 -0.634909 0
M  V30 10130 H 995.367 4.46426 -2.75326 0
M  V30 10131 H 996.841 5.36488 -1.29942 0
M  V30 10132 H 997.318 4.39109 0.0894481 0
M  V30 10133 H 997.924 3.96882 -1.52856 0
M  V30 10134 N 996.239 0.8527 1.3254 0
M  V30 10135 C 997.487 0.454224 1.96929 0
M  V30 10136 C 997.808 -0.993034 1.67821 0
M  V30 10137 O 997.078 -1.69371 0.984393 0
M  V30 10138 H 995.658 0.164977 0.728554 0
M  V30 10139 H 998.32 1.0887 1.61658 0
M  V30 10140 H 997.416 0.597667 3.06324 0
M  V30 10141 N 997.718 -1.45297 0.610449 0
M  V30 10142 C 998.665 -2.30553 -0.106718 0
M  V30 10143 C 999.635 -1.42272 -0.85719 0
M  V30 10144 O 1000.82 -1.71199 -0.842357 0
M  V30 10145 C 997.96 -3.27226 -1.09623 0
M  V30 10146 C 997.073 -4.3061 -0.346329 0
M  V30 10147 C 996.208 -5.14389 -1.32581 0
M  V30 10148 C 995.247 -6.09497 -0.563892 0
M  V30 10149 N 994.384 -6.86047 -1.4928 0
M  V30 10150 H 999.224 -2.91344 0.626296 0
M  V30 10151 H 996.761 -1.43563 0.32065 0
M  V30 10152 H 998.719 -3.81744 -1.68308 0
M  V30 10153 H 997.349 -2.68182 -1.79662 0
M  V30 10154 H 996.401 -3.7873 0.356084 0
M  V30 10155 H 997.713 -4.98183 0.248026 0
M  V30 10156 H 996.867 -5.73321 -1.98464 0
M  V30 10157 H 995.606 -4.4684 -1.9541 0
M  V30 10158 H 994.611 -5.49693 0.108551 0
M  V30 10159 H 995.836 -6.79074 0.0593872 0
M  V30 10160 H 993.782 -6.21185 -2.10868 0
M  V30 10161 H 993.699 -7.49983 -0.951953 0
M  V30 10162 H 994.967 -7.49518 -2.14112 0
M  V30 10163 N 999.196 -0.349774 -1.5367 0
M  V30 10164 C 1000.47 0.300419 -1.93279 0
M  V30 10165 C 1000.85 1.67721 -1.28191 0
M  V30 10166 O 1000.2 2.24319 -0.435127 0
M  V30 10167 C 1000.41 0.366466 -3.47071 0
M  V30 10168 C 1001.76 0.614349 -4.20132 0
M  V30 10169 O 1002.78 0.448327 -3.53367 0
M  V30 10170 O 1001.64 0.936421 -5.38417 0
M  V30 10171 H 998.736 0.176599 -0.807924 0
M  V30 10172 H 1001.28 -0.401405 -1.64884 0
M  V30 10173 H 1000.05 -0.599455 -3.86681 0
M  V30 10174 H 999.677 1.11482 -3.81651 0
M  V30 10175 N 1000.67 1.57404 -0.0785433 0
M  V30 10176 C 1001.64 2.11977 0.871693 0
M  V30 10177 C 1002.64 1.04529 1.2219 0
M  V30 10178 O 1003.83 1.30488 1.15406 0
M  V30 10179 C 1000.96 2.6267 2.17296 0
M  V30 10180 H 1002.15 2.97246 0.398115 0
M  V30 10181 H 999.705 1.5537 0.170251 0
M  V30 10182 H 1000.44 1.80873 2.69175 0
M  V30 10183 H 1000.22 3.41214 1.93171 0
M  V30 10184 H 1001.71 3.04943 2.85306 0
M  V30 10185 N 1002.15 -0.195058 1.56388 0
M  V30 10186 C 1003.4 -0.9168 1.80894 0
M  V30 10187 C 1003.73 -1.82907 0.652592 0
M  V30 10188 O 1003.01 -1.91382 -0.346853 0
M  V30 10189 C 1003.29 -1.733 3.15657 0
M  V30 10190 C 1003.14 -0.845449 4.41783 0
M  V30 10191 C 1004.46 -2.70557 3.47112 0
M  V30 10192 H 1001.58 -0.331861 0.658056 0
M  V30 10193 H 1004.22 -0.184174 1.89105 0
M  V30 10194 H 1002.37 -2.3576 3.08787 0
M  V30 10195 H 1004.04 -0.235557 4.60698 0
M  V30 10196 H 1002.29 -0.152172 4.33533 0
M  V30 10197 H 1002.96 -1.45152 5.32574 0
M  V30 10198 H 1005.43 -2.1823 3.54281 0
M  V30 10199 H 1004.31 -3.24749 4.42526 0
M  V30 10200 H 1004.57 -3.49605 2.70608 0
M  V30 10201 N 1003.63 -1.50653 -0.462772 0
M  V30 10202 C 1004.58 -1.70661 -1.58043 0
M  V30 10203 C 1005.57 -0.572533 -1.59432 0
M  V30 10204 O 1006.78 -0.753257 -1.63481 0
M  V30 10205 H 1003.15 -0.538805 -0.524588 0
M  V30 10206 H 1005.12 -2.64399 -1.38332 0
M  V30 10207 C 1003.87 -1.82558 -2.95919 0
M  V30 10208 H 1003.2 -2.69216 -2.95572 0
M  V30 10209 H 1004.64 -2.0058 -3.73556 0
M  V30 10210 C 1003.09 -0.57916 -3.31885 0
M  V30 10211 O 1003.62 0.277888 -4.00738 0
M  V30 10212 N 1001.83 -0.430723 -2.8739 0
M  V30 10213 H 1001.38 -1.1292 -2.31531 0
M  V30 10214 H 1001.34 0.402061 -3.11819 0
M  V30 10215 N 1005.11 0.71652 -1.4037 0
M  V30 10216 C 1006.35 1.48883 -1.40047 0
M  V30 10217 C 1006.71 1.92 -0.00158027 0
M  V30 10218 O 1007.91 2.68501 0.126765 0
M  V30 10219 C 1006.18 2.68265 -2.36154 0
M  V30 10220 S 1007.74 3.57684 -2.5418 0
M  V30 10221 H 1004.56 0.509035 -0.496391 0
M  V30 10222 H 1007.16 0.837967 -1.76631 0
M  V30 10223 H 1005.87 2.34759 -3.36625 0
M  V30 10224 H 1005.4 3.38264 -2.0085 0
M  V30 10225 H 1007.41 4.62653 -1.79352 0
M  V30 10226 N 1006.59 1.25851 0.948643 0
M  V30 10227 C 1007.81 1.13711 1.72851 0
M  V30 10228 C 1008.23 -0.308471 1.86263 0
M  V30 10229 O 1007.59 -1.21175 1.36465 0
M  V30 10230 C 1007.64 1.79271 3.13918 0
M  V30 10231 O 1007.36 3.18179 3.01154 0
M  V30 10232 C 1008.86 1.72988 4.08154 0
M  V30 10233 H 1006.08 0.396334 0.541443 0
M  V30 10234 H 1008.62 1.66329 1.18974 0
M  V30 10235 H 1006.78 1.30609 3.64719 0
M  V30 10236 H 1007.19 3.50507 3.90186 0
M  V30 10237 H 1008.67 2.2351 5.04725 0
M  V30 10238 H 1009.14 0.694866 4.33668 0
M  V30 10239 H 1009.75 2.21166 3.63271 0
M  V30 10240 N 1008.06 -1.15214 1.07534 0
M  V30 10241 C 1009.29 -1.89647 0.819614 0
M  V30 10242 C 1009.7 -1.78365 -0.631072 0
M  V30 10243 O 1009.05 -1.1346 -1.44474 0
M  V30 10244 C 1009.11 -3.40573 1.1511 0
M  V30 10245 C 1008.77 -3.7564 2.60276 0
M  V30 10246 C 1009.77 -3.76507 3.58523 0
M  V30 10247 C 1007.45 -4.05891 2.95901 0
M  V30 10248 C 1009.45 -4.07133 4.9043 0
M  V30 10249 C 1007.13 -4.36182 4.28005 0
M  V30 10250 C 1008.13 -4.36785 5.25079 0
M  V30 10251 O 1007.82 -4.66348 6.54809 0
M  V30 10252 H 1007.55 -0.607836 0.295822 0
M  V30 10253 H 1010.11 -1.46895 1.43565 0
M  V30 10254 H 1008.34 -3.83734 0.478033 0
M  V30 10255 H 1010.03 -3.96299 0.877615 0
M  V30 10256 H 1010.79 -3.53233 3.32342 0
M  V30 10257 H 1006.67 -4.0458 2.20989 0
M  V30 10258 H 1010.21 -4.07519 5.66193 0
M  V30 10259 H 1006.11 -4.58924 4.53937 0
M  V30 10260 H 1006.88 -4.84105 6.59988 0
M  V30 10261 N 1009.54 -0.859717 -1.32086 0
M  V30 10262 C 1010.49 -0.306042 -2.28762 0
M  V30 10263 C 1011.46 0.589801 -1.55276 0
M  V30 10264 O 1012.64 0.523633 -1.83474 0
M  V30 10265 C 1009.78 0.495256 -3.41528 0
M  V30 10266 C 1008.9 -0.426947 -4.29885 0
M  V30 10267 C 1008.03 0.387474 -5.29785 0
M  V30 10268 C 1007.07 -0.531807 -6.09785 0
M  V30 10269 N 1006.21 0.245741 -7.0167 0
M  V30 10270 H 1011.05 -1.1357 -2.7551 0
M  V30 10271 H 1008.59 -0.571468 -1.35546 0
M  V30 10272 H 1010.54 0.97551 -4.05635 0
M  V30 10273 H 1009.17 1.28969 -2.95917 0
M  V30 10274 H 1008.23 -1.02561 -3.66313 0
M  V30 10275 H 1009.54 -1.13226 -4.85779 0
M  V30 10276 H 1008.69 0.930677 -5.99519 0
M  V30 10277 H 1007.43 1.12612 -4.74521 0
M  V30 10278 H 1006.44 -1.08685 -5.3895 0
M  V30 10279 H 1007.66 -1.26915 -6.67135 0
M  V30 10280 H 1005.61 0.967391 -6.48828 0
M  V30 10281 H 1005.52 -0.400432 -7.54939 0
M  V30 10282 H 1006.79 0.770507 -7.75683 0
M  V30 10283 N 1011.02 1.44971 -0.618145 0
M  V30 10284 C 1011.97 2.32354 0.106846 0
M  V30 10285 C 1012.96 1.4659 0.848984 0
M  V30 10286 O 1014.17 1.63012 0.763354 0
M  V30 10287 H 1010.54 0.750108 0.0533109 0
M  V30 10288 H 1012.51 2.9127 -0.648426 0
M  V30 10289 C 1011.26 3.30381 1.08368 0
M  V30 10290 H 1010.59 3.96377 0.52205 0
M  V30 10291 H 1012.03 3.94231 1.56069 0
M  V30 10292 C 1010.49 2.58336 2.1625 0
M  V30 10293 O 1011.02 2.37258 3.24148 0
M  V30 10294 N 1009.22 2.18292 1.91825 0
M  V30 10295 H 1008.77 2.35635 1.04086 0
M  V30 10296 H 1008.73 1.70413 2.6421 0
M  V30 10297 N 1012.5 0.357919 1.53482 0
M  V30 10298 C 1013.41 -0.500273 2.29204 0
M  V30 10299 C 1014.42 -1.09936 1.3487 0
M  V30 10300 O 1015.6 -1.11195 1.67921 0
M  V30 10301 C 1012.67 -1.62828 3.06085 0
M  V30 10302 C 1011.73 -1.05751 4.16071 0
M  V30 10303 C 1010.96 -2.13176 4.89277 0
M  V30 10304 O 1011.18 -3.34153 4.62274 0
M  V30 10305 O 1010.12 -1.76663 5.7539 0
M  V30 10306 H 1013.94 0.115696 3.0348 0
M  V30 10307 H 1011.53 0.122527 1.48897 0
M  V30 10308 H 1013.41 -2.28427 3.54117 0
M  V30 10309 H 1012.08 -2.22979 2.34653 0
M  V30 10310 H 1010.99 -0.365642 3.72309 0
M  V30 10311 H 1012.32 -0.500661 4.89647 0
M  V30 10312 N 1013.98 -1.5736 0.0868897 0
M  V30 10313 C 1015.25 -1.85495 -0.620561 0
M  V30 10314 C 1015.63 -0.982218 -1.86857 0
M  V30 10315 O 1014.98 -0.0524529 -2.2844 0
M  V30 10316 C 1015.19 -3.35996 -0.943798 0
M  V30 10317 C 1016.54 -4.03861 -1.31079 0
M  V30 10318 O 1017.56 -3.4083 -1.03507 0
M  V30 10319 O 1016.42 -5.15062 -1.82683 0
M  V30 10320 H 1013.52 -0.766822 -0.309697 0
M  V30 10321 H 1016.06 -1.69282 0.118966 0
M  V30 10322 H 1014.83 -3.91257 -0.0580628 0
M  V30 10323 H 1014.46 -3.57525 -1.73958 0
M  V30 10324 N 1015.45 0.186762 -1.56489 0
M  V30 10325 C 1016.73 0.932229 -1.71956 0
M  V30 10326 C 1017.11 2.01037 -0.644006 0
M  V30 10327 O 1016.46 2.259 0.343694 0
M  V30 10328 C 1016.67 1.51106 -3.14592 0
M  V30 10329 C 1018.02 1.98997 -3.75081 0
M  V30 10330 O 1019.04 1.60931 -3.17773 0
M  V30 10331 O 1017.9 2.69067 -4.75673 0
M  V30 10332 H 1014.99 0.437736 -0.701652 0
M  V30 10333 H 1017.54 0.175803 -1.68787 0
M  V30 10334 H 1016.31 0.734327 -3.84348 0
M  V30 10335 H 1015.94 2.33209 -3.22024 0
M  V30 10336 N 1016.93 1.50896 0.454776 0
M  V30 10337 C 1018.17 1.64347 1.21529 0
M  V30 10338 C 1018.54 0.343869 1.88896 0
M  V30 10339 O 1019.74 0.353973 2.66459 0
M  V30 10340 C 1018.01 2.80199 2.21864 0
M  V30 10341 S 1019.57 3.13879 3.06636 0
M  V30 10342 H 1016.39 0.579193 0.412379 0
M  V30 10343 H 1018.99 1.88741 0.509629 0
M  V30 10344 H 1017.69 3.73086 1.70982 0
M  V30 10345 H 1017.22 2.57941 2.97036 0
M  V30 10346 H 1019.24 2.58964 4.23264 0
M  V30 10347 N 1018.41 -0.709066 1.40748 0
M  V30 10348 C 1019.66 -1.47119 1.39585 0
M  V30 10349 C 1019.99 -1.942 0.000245323 0
M  V30 10350 O 1019.26 -1.68609 -0.969593 0
M  V30 10351 C 1019.55 -2.69266 2.39099 0
M  V30 10352 C 1019.4 -2.28037 3.8771 0
M  V30 10353 C 1020.72 -3.71438 2.36055 0
M  V30 10354 H 1017.84 -0.533632 0.508336 0
M  V30 10355 H 1020.48 -0.808718 1.7193 0
M  V30 10356 H 1018.63 -3.25788 2.11647 0
M  V30 10357 H 1020.3 -1.76946 4.26014 0
M  V30 10358 H 1018.55 -1.59966 4.03229 0
M  V30 10359 H 1019.22 -3.15621 4.52866 0
M  V30 10360 H 1021.69 -3.24559 2.60385 0
M  V30 10361 H 1020.57 -4.54532 3.07721 0
M  V30 10362 H 1020.83 -4.20193 1.37443 0
M  V30 10363 N 1019.89 -1.26353 -0.941956 0
M  V30 10364 C 1021.14 -1.12017 -1.69056 0
M  V30 10365 C 1021.47 0.335856 -1.91274 0
M  V30 10366 O 1020.74 1.24677 -1.49285 0
M  V30 10367 C 1021.03 -1.88889 -3.06583 0
M  V30 10368 C 1020.88 -3.42394 -2.91696 0
M  V30 10369 C 1022.2 -1.68209 -4.06686 0
M  V30 10370 H 1019.32 -0.408311 -0.613556 0
M  V30 10371 H 1021.96 -1.55339 -1.09407 0
M  V30 10372 H 1020.11 -1.5207 -3.57501 0
M  V30 10373 H 1021.78 -3.88962 -2.48005 0
M  V30 10374 H 1020.02 -3.69459 -2.27338 0
M  V30 10375 H 1020.7 -3.91408 -3.89235 0
M  V30 10376 H 1023.17 -2.00286 -3.64726 0
M  V30 10377 H 1022.05 -2.24412 -5.00929 0
M  V30 10378 H 1022.31 -0.626474 -4.37639 0
M  V30 10379 N 1021.37 1.14642 -1.08144 0
M  V30 10380 C 1022.78 1.37604 -0.808537 0
M  V30 10381 C 1022.98 1.92868 0.583452 0
M  V30 10382 O 1022.04 2.13964 1.34073 0
M  V30 10383 C 1023.35 2.3396 -1.889 0
M  V30 10384 C 1024.9 2.47605 -1.9147 0
M  V30 10385 C 1025.38 3.47258 -2.98623 0
M  V30 10386 N 1026.87 3.548 -2.97777 0
M  V30 10387 C 1027.6 4.31751 -3.77331 0
M  V30 10388 N 1027.1 5.11966 -4.66757 0
M  V30 10389 N 1028.89 4.2692 -3.65645 0
M  V30 10390 H 1021.04 0.771154 -1.97906 0
M  V30 10391 H 1023.3 0.401694 -0.858688 0
M  V30 10392 H 1023.01 2.00484 -2.88962 0
M  V30 10393 H 1022.88 3.33833 -1.756 0
M  V30 10394 H 1025.27 2.80375 -0.920548 0
M  V30 10395 H 1025.35 1.47702 -2.08848 0
M  V30 10396 H 1025 3.15223 -3.98243 0
M  V30 10397 H 1024.93 4.46935 -2.7849 0
M  V30 10398 H 1027.42 2.97553 -2.3296 0
M  V30 10399 H 1027.73 5.67951 -5.24072 0
M  V30 10400 H 1026.08 5.11245 -4.70801 0
M  V30 10401 H 1029.27 3.63322 -2.95152 0
M  V30 10402 H 1029.44 4.8664 -4.27885 0
M  V30 10403 N 1022.85 0.866709 1.31628 0
M  V30 10404 C 1024.09 0.476026 1.96825 0
M  V30 10405 C 1024.42 -0.970994 1.68529 0
M  V30 10406 O 1023.68 -1.69823 0.97255 0
M  V30 10407 C 1023.97 0.676018 3.50948 0
M  V30 10408 C 1023.64 2.09533 3.99258 0
M  V30 10409 C 1022.3 2.48349 4.1216 0
M  V30 10410 C 1024.65 3.02112 4.24709 0
M  V30 10411 C 1021.98 3.78991 4.47864 0
M  V30 10412 C 1024.33 4.32266 4.61875 0
M  V30 10413 C 1023 4.71 4.72985 0
M  V30 10414 H 1022.27 0.17419 0.720235 0
M  V30 10415 H 1024.92 1.09907 1.5682 0
M  V30 10416 H 1023.22 -0.0301867 3.91788 0
M  V30 10417 H 1024.92 0.353604 3.99438 0
M  V30 10418 H 1021.51 1.78396 3.89709 0
M  V30 10419 H 1025.69 2.73351 4.14238 0
M  V30 10420 H 1020.95 4.08769 4.54663 0
M  V30 10421 H 1025.12 5.04055 4.80522 0
M  V30 10422 H 1022.75 5.72273 5.00407 0
M  V30 10423 N 1024.32 -1.44642 0.625825 0
M  V30 10424 C 1025.26 -2.28882 -0.120614 0
M  V30 10425 C 1026.27 -1.40985 -0.81407 0
M  V30 10426 O 1027.46 -1.65188 -0.676404 0
M  V30 10427 C 1024.56 -3.17217 -1.19274 0
M  V30 10428 C 1023.73 -4.33499 -0.582839 0
M  V30 10429 C 1022.79 -5.02908 -1.54823 0
M  V30 10430 O 1021.82 -5.59102 -1.06743 0
M  V30 10431 N 1023.02 -5.0387 -2.88262 0
M  V30 10432 H 1025.78 -2.93585 0.602318 0
M  V30 10433 H 1023.34 -1.5503 0.466604 0
M  V30 10434 H 1025.34 -3.60515 -1.83878 0
M  V30 10435 H 1023.91 -2.54301 -1.81797 0
M  V30 10436 H 1023.13 -3.93458 0.241696 0
M  V30 10437 H 1024.41 -5.08561 -0.155914 0
M  V30 10438 H 1023.81 -4.59539 -3.2991 0
M  V30 10439 H 1022.37 -5.50974 -3.4824 0
M  V30 10440 N 1025.8 -0.366053 -1.5329 0
M  V30 10441 C 1027.03 0.22391 -2.05383 0
M  V30 10442 C 1027.44 1.42962 -1.23929 0
M  V30 10443 O 1026.78 1.81659 -0.273072 0
M  V30 10444 C 1026.84 0.681038 -3.5299 0
M  V30 10445 C 1026.51 -0.40805 -4.55175 0
M  V30 10446 C 1027.51 -1.25806 -5.04449 0
M  V30 10447 C 1025.19 -0.568428 -4.99073 0
M  V30 10448 C 1027.18 -2.25379 -5.96224 0
M  V30 10449 C 1024.87 -1.56752 -5.90654 0
M  V30 10450 C 1025.87 -2.40864 -6.39119 0
M  V30 10451 O 1025.56 -3.39069 -7.28895 0
M  V30 10452 H 1025.29 0.0429593 -0.674634 0
M  V30 10453 H 1027.84 -0.522897 -1.98633 0
M  V30 10454 H 1026.07 1.47945 -3.5728 0
M  V30 10455 H 1027.76 1.19406 -3.8794 0
M  V30 10456 H 1028.53 -1.14536 -4.71282 0
M  V30 10457 H 1024.41 0.0764858 -4.60937 0
M  V30 10458 H 1027.95 -2.91068 -6.33976 0
M  V30 10459 H 1023.85 -1.6807 -6.23236 0
M  V30 10460 H 1024.62 -3.34804 -7.46893 0
M  V30 10461 N 1027.28 1.57312 -0.0952337 0
M  V30 10462 C 1028.51 1.98409 0.575984 0
M  V30 10463 C 1028.92 0.973168 1.62253 0
M  V30 10464 O 1028.26 -0.0454416 1.83644 0
M  V30 10465 C 1028.32 3.35877 1.28167 0
M  V30 10466 C 1027.99 4.55368 0.385868 0
M  V30 10467 C 1028.98 5.1861 -0.366041 0
M  V30 10468 C 1026.67 5.0138 0.303885 0
M  V30 10469 C 1028.66 6.26233 -1.18791 0
M  V30 10470 C 1026.35 6.0887 -0.521637 0
M  V30 10471 C 1027.35 6.71161 -1.26618 0
M  V30 10472 O 1027.04 7.76577 -2.07804 0
M  V30 10473 H 1026.77 0.657018 0.159068 0
M  V30 10474 H 1029.32 2.04685 -0.171237 0
M  V30 10475 H 1027.55 3.26284 2.07547 0
M  V30 10476 H 1029.24 3.6142 1.84744 0
M  V30 10477 H 1030.01 4.83993 -0.312435 0
M  V30 10478 H 1025.89 4.52657 0.873065 0
M  V30 10479 H 1029.43 6.74784 -1.76955 0
M  V30 10480 H 1025.33 6.42918 -0.576722 0
M  V30 10481 H 1026.09 7.93566 -2.00489 0
M  V30 10482 N 1028.76 -0.17846 1.56586 0
M  V30 10483 C 1029.67 -1.24115 1.9908 0
M  V30 10484 C 1030.68 -1.48854 0.901031 0
M  V30 10485 O 1031.86 -1.61142 1.2081 0
M  V30 10486 C 1028.92 -2.56187 2.33601 0
M  V30 10487 C 1027.99 -2.39373 3.56369 0
M  V30 10488 C 1027.22 -3.65147 3.89234 0
M  V30 10489 O 1027.44 -4.70024 3.23162 0
M  V30 10490 O 1026.38 -3.59683 4.82609 0
M  V30 10491 H 1030.2 -0.910482 2.89731 0
M  V30 10492 H 1027.79 -0.38477 1.4436 0
M  V30 10493 H 1029.67 -3.34109 2.56806 0
M  V30 10494 H 1028.34 -2.88847 1.46113 0
M  V30 10495 H 1027.25 -1.59506 3.38391 0
M  V30 10496 H 1028.58 -2.1164 4.44375 0
M  V30 10497 N 1030.24 -1.51135 -0.446768 0
M  V30 10498 C 1031.51 -1.5387 -1.20762 0
M  V30 10499 C 1031.89 -0.297446 -2.08994 0
M  V30 10500 O 1031.24 0.717975 -2.16927 0
M  V30 10501 C 1031.45 -2.84767 -2.01764 0
M  V30 10502 C 1032.8 -3.3636 -2.59128 0
M  V30 10503 O 1033.82 -2.86254 -2.11984 0
M  V30 10504 O 1032.68 -4.23765 -3.45088 0
M  V30 10505 H 1029.78 -0.618228 -0.549293 0
M  V30 10506 H 1032.32 -1.63442 -0.456605 0
M  V30 10507 H 1031.09 -3.6657 -1.36901 0
M  V30 10508 H 1030.72 -2.78313 -2.8395 0
M  V30 10509 N 1031.71 0.701592 -1.41122 0
M  V30 10510 C 1032.94 1.49553 -1.43696 0
M  V30 10511 C 1033.36 1.88053 -0.0421865 0
M  V30 10512 O 1032.72 1.54223 0.953144 0
M  V30 10513 C 1032.77 2.73834 -2.34622 0
M  V30 10514 O 1031.87 3.71088 -1.7991 0
M  V30 10515 H 1031.21 0.450352 -0.487933 0
M  V30 10516 H 1033.74 0.862886 -1.85514 0
M  V30 10517 H 1033.75 3.22209 -2.5029 0
M  V30 10518 H 1032.43 2.45149 -3.35969 0
M  V30 10519 H 1031.01 3.29994 -1.73661 0
M  V30 10520 N 1033.19 1.2685 0.935242 0
M  V30 10521 C 1034.42 1.15645 1.72165 0
M  V30 10522 C 1034.84 -0.283909 1.85945 0
M  V30 10523 O 1034.2 -1.20567 1.354 0
M  V30 10524 C 1034.25 1.83689 3.10307 0
M  V30 10525 O 1033.35 1.12972 3.96625 0
M  V30 10526 H 1032.69 0.402629 0.528002 0
M  V30 10527 H 1035.22 1.67781 1.17093 0
M  V30 10528 H 1035.23 1.90749 3.60664 0
M  V30 10529 H 1033.91 2.88472 2.99595 0
M  V30 10530 H 1032.48 1.13929 3.5507 0
M  V30 10531 N 1034.67 -1.14067 1.0875 0
M  V30 10532 C 1035.92 -1.84819 0.817698 0
M  V30 10533 C 1036.24 -1.83545 -0.658488 0
M  V30 10534 O 1035.51 -1.28633 -1.47751 0
M  V30 10535 H 1034.09 -0.68433 0.299502 0
M  V30 10536 H 1036.75 -1.38208 1.37421 0
M  V30 10537 H 1035.85 -2.89541 1.16501 0
M  V30 10538 N 1036.15 -0.873678 -1.31166 0
M  V30 10539 C 1037.1 -0.330288 -2.28424 0
M  V30 10540 C 1038.07 0.573299 -1.55893 0
M  V30 10541 O 1039.25 0.504143 -1.84019 0
M  V30 10542 C 1036.39 0.459004 -3.42034 0
M  V30 10543 C 1035.5 -0.472519 -4.29408 0
M  V30 10544 C 1034.64 0.331261 -5.30166 0
M  V30 10545 C 1033.68 -0.596453 -6.09187 0
M  V30 10546 N 1032.81 0.171305 -7.01891 0
M  V30 10547 H 1037.65 -1.16485 -2.7429 0
M  V30 10548 H 1035.19 -0.585813 -1.34932 0
M  V30 10549 H 1037.15 0.932432 -4.06647 0
M  V30 10550 H 1035.78 1.25824 -2.97268 0
M  V30 10551 H 1034.83 -1.06441 -3.65205 0
M  V30 10552 H 1036.14 -1.18372 -4.84551 0
M  V30 10553 H 1035.3 0.867038 -6.00473 0
M  V30 10554 H 1034.04 1.07573 -4.75688 0
M  V30 10555 H 1033.04 -1.14395 -5.37767 0
M  V30 10556 H 1034.27 -1.33983 -6.65752 0
M  V30 10557 H 1032.21 0.89852 -6.49817 0
M  V30 10558 H 1032.13 -0.480481 -7.54472 0
M  V30 10559 H 1033.4 0.688192 -7.76456 0
M  V30 10560 N 1037.63 1.44308 -0.633487 0
M  V30 10561 C 1038.85 2.06897 -0.144347 0
M  V30 10562 C 1039.28 1.47045 1.173 0
M  V30 10563 O 1038.63 0.572806 1.72013 0
M  V30 10564 C 1038.68 3.60571 -0.0456324 0
M  V30 10565 O 1037.79 4.0015 0.997682 0
M  V30 10566 H 1037.13 0.658427 -0.0858499 0
M  V30 10567 H 1039.66 1.85142 -0.870833 0
M  V30 10568 H 1039.67 4.07745 0.144178 0
M  V30 10569 H 1038.34 4.03515 -1.0074 0
M  V30 10570 H 1036.92 3.64603 0.782252 0
M  V30 10571 N 1039.1 0.374177 1.53094 0
M  V30 10572 C 1040.35 -0.213981 2.00562 0
M  V30 10573 C 1040.67 -1.4916 1.26533 0
M  V30 10574 O 1041.87 -2.15889 1.64634 0
M  V30 10575 C 1040.33 -0.431876 3.57299 0
M  V30 10576 C 1039.94 0.831615 4.40214 0
M  V30 10577 C 1041.68 -0.977222 4.13099 0
M  V30 10578 C 1039.59 0.582831 5.88521 0
M  V30 10579 H 1038.52 -0.0837386 0.749336 0
M  V30 10580 H 1041.17 0.494245 1.76719 0
M  V30 10581 H 1039.55 -1.20158 3.7733 0
M  V30 10582 H 1040.72 1.60477 4.31953 0
M  V30 10583 H 1039.04 1.30081 3.9556 0
M  V30 10584 H 1041.64 -1.17881 5.21544 0
M  V30 10585 H 1041.98 -1.94189 3.68234 0
M  V30 10586 H 1042.51 -0.267473 3.969 0
M  V30 10587 H 1039.25 1.51807 6.37679 0
M  V30 10588 H 1038.77 -0.151666 5.99608 0
M  V30 10589 H 1040.45 0.211604 6.46654 0
M  V30 10590 N 1040.58 -1.57259 0.103575 0
M  V30 10591 C 1041.51 -2.17509 -0.84923 0
M  V30 10592 C 1042.49 -1.11079 -1.28824 0
M  V30 10593 O 1043.68 -1.39252 -1.35361 0
M  V30 10594 C 1040.81 -2.76221 -2.10522 0
M  V30 10595 C 1039.76 -3.88098 -1.80454 0
M  V30 10596 C 1039.09 -4.33549 -3.12952 0
M  V30 10597 C 1040.39 -5.10909 -1.08486 0
M  V30 10598 H 1042.08 -2.9738 -0.347217 0
M  V30 10599 H 1039.63 -1.43045 -0.165568 0
M  V30 10600 H 1041.58 -3.17024 -2.77621 0
M  V30 10601 H 1040.31 -1.93617 -2.63021 0
M  V30 10602 H 1038.96 -3.47847 -1.15749 0
M  V30 10603 H 1038.61 -3.47825 -3.63355 0
M  V30 10604 H 1038.31 -5.08984 -2.93614 0
M  V30 10605 H 1039.84 -4.76992 -3.81196 0
M  V30 10606 H 1041.25 -5.48828 -1.65711 0
M  V30 10607 H 1039.65 -5.91828 -0.992973 0
M  V30 10608 H 1040.72 -4.84851 -0.0690108 0
M  V30 10609 N 1042.06 0.170153 -1.56679 0
M  V30 10610 C 1043.29 0.900826 -1.85927 0
M  V30 10611 C 1043.7 1.76285 -0.687033 0
M  V30 10612 O 1043.04 1.80276 0.353029 0
M  V30 10613 C 1043.1 1.82723 -3.096 0
M  V30 10614 C 1042.77 1.14469 -4.42432 0
M  V30 10615 C 1043.76 0.509598 -5.17396 0
M  V30 10616 C 1041.45 1.1411 -4.89167 0
M  V30 10617 C 1043.44 -0.119976 -6.37287 0
M  V30 10618 C 1041.13 0.507703 -6.08987 0
M  V30 10619 C 1042.13 -0.121731 -6.82892 0
M  V30 10620 O 1041.82 -0.74514 -8.00439 0
M  V30 10621 H 1041.55 0.267087 -0.621 0
M  V30 10622 H 1044.1 0.17474 -2.04655 0
M  V30 10623 H 1042.33 2.59367 -2.8682 0
M  V30 10624 H 1044.02 2.42784 -3.25285 0
M  V30 10625 H 1044.79 0.504341 -4.82371 0
M  V30 10626 H 1040.67 1.62043 -4.31582 0
M  V30 10627 H 1044.21 -0.611872 -6.94911 0
M  V30 10628 H 1040.11 0.510548 -6.43478 0
M  V30 10629 H 1040.88 -0.644506 -8.15959 0
M  V30 10630 N 1043.54 1.5137 0.438746 0
M  V30 10631 C 1044.78 1.64211 1.19006 0
M  V30 10632 C 1045.12 0.356607 1.90898 0
M  V30 10633 O 1044.39 -0.643722 1.83539 0
M  V30 10634 C 1044.68 2.8445 2.20817 0
M  V30 10635 C 1044.53 4.22972 1.53018 0
M  V30 10636 C 1045.85 3.00207 3.21813 0
M  V30 10637 H 1042.97 0.597628 0.431288 0
M  V30 10638 H 1045.61 1.8385 0.479487 0
M  V30 10639 H 1043.76 2.67836 2.81418 0
M  V30 10640 H 1045.43 4.5125 0.957654 0
M  V30 10641 H 1043.67 4.25736 0.832556 0
M  V30 10642 H 1044.34 5.03094 2.27158 0
M  V30 10643 H 1046.82 3.15522 2.71266 0
M  V30 10644 H 1045.7 3.85904 3.90345 0
M  V30 10645 H 1045.96 2.12216 3.87836 0
M  V30 10646 N 1045.02 -0.694098 1.41492 0
M  V30 10647 C 1046.26 -1.4563 1.41137 0
M  V30 10648 C 1046.6 -1.94189 0.0208428 0
M  V30 10649 O 1045.87 -1.69628 -0.951655 0
M  V30 10650 C 1046.15 -2.66714 2.41941 0
M  V30 10651 C 1046.01 -2.23912 3.90107 0
M  V30 10652 C 1047.33 -3.68913 2.39981 0
M  V30 10653 H 1044.44 -0.52821 0.513968 0
M  V30 10654 H 1047.09 -0.790437 1.72778 0
M  V30 10655 H 1045.24 -3.23525 2.1509 0
M  V30 10656 H 1046.91 -1.72417 4.27867 0
M  V30 10657 H 1045.15 -1.5568 4.04903 0
M  V30 10658 H 1045.82 -3.108 4.56188 0
M  V30 10659 H 1048.3 -3.21779 2.63813 0
M  V30 10660 H 1047.17 -4.51242 3.12524 0
M  V30 10661 H 1047.44 -4.18711 1.41892 0
M  V30 10662 N 1046.49 -1.27344 -0.928501 0
M  V30 10663 C 1047.4 -1.11812 -2.06241 0
M  V30 10664 C 1048.42 -0.048347 -1.73933 0
M  V30 10665 O 1049.6 -0.25467 -1.99783 0
M  V30 10666 C 1046.66 -0.766036 -3.38131 0
M  V30 10667 C 1045.72 -1.91659 -3.84142 0
M  V30 10668 C 1044.96 -1.58121 -5.09738 0
M  V30 10669 O 1045.18 -0.488742 -5.68302 0
M  V30 10670 O 1044.11 -2.42013 -5.51102 0
M  V30 10671 H 1047.94 -2.06967 -2.22258 0
M  V30 10672 H 1045.52 -1.06524 -1.04752 0
M  V30 10673 H 1047.41 -0.582982 -4.17348 0
M  V30 10674 H 1046.08 0.155998 -3.23324 0
M  V30 10675 H 1044.99 -2.1547 -3.05816 0
M  V30 10676 H 1046.32 -2.8188 -4.0349 0
M  V30 10677 N 1047.97 1.13488 -1.09353 0
M  V30 10678 C 1048.88 2.2248 -0.744307 0
M  V30 10679 C 1049.9 1.72145 0.253404 0
M  V30 10680 O 1051.07 2.01176 0.0949339 0
M  V30 10681 C 1048.14 3.46286 -0.16928 0
M  V30 10682 C 1047.2 4.11516 -1.22284 0
M  V30 10683 C 1046.43 5.29412 -0.675161 0
M  V30 10684 O 1046.66 5.68185 0.502182 0
M  V30 10685 O 1045.59 5.8467 -1.42983 0
M  V30 10686 H 1049.42 2.54723 -1.65378 0
M  V30 10687 H 1047 1.21607 -0.867879 0
M  V30 10688 H 1048.88 4.2114 0.14811 0
M  V30 10689 H 1047.56 3.15745 0.713214 0
M  V30 10690 H 1046.47 3.38492 -1.59292 0
M  V30 10691 H 1047.8 4.46186 -2.07796 0
M  V30 10692 N 1049.45 0.880621 1.30701 0
M  V30 10693 C 1050.86 0.547993 1.78477 0
M  V30 10694 C 1051.21 -0.935633 1.72454 0
M  V30 10695 O 1050.34 -1.73094 1.29874 0
M  V30 10696 C 1050.93 0.98795 3.24076 0
M  V30 10697 C 1049.49 0.706805 3.69704 0
M  V30 10698 C 1048.64 1.17335 2.51252 0
M  V30 10699 H 1051.59 1.06528 1.17633 0
M  V30 10700 H 1051.61 0.31508 3.79193 0
M  V30 10701 H 1051.12 2.06778 3.28427 0
M  V30 10702 H 1049.22 -0.36122 3.70845 0
M  V30 10703 H 1049.34 1.2913 4.6137 0
M  V30 10704 H 1047.7 0.592808 2.47705 0
M  V30 10705 H 1048.48 2.26083 2.58343 0
M  V30 10706 N 1050.93 -1.4397 0.641131 0
M  V30 10707 C 1051.84 -2.34526 -0.058742 0
M  V30 10708 C 1052.86 -1.53194 -0.825088 0
M  V30 10709 O 1054.03 -1.85888 -0.775081 0
M  V30 10710 C 1051.1 -3.31313 -1.02139 0
M  V30 10711 C 1050.16 -4.28552 -0.253319 0
M  V30 10712 C 1049.39 -5.20715 -1.17012 0
M  V30 10713 O 1049.61 -5.17028 -2.40911 0
M  V30 10714 O 1048.55 -5.9839 -0.649039 0
M  V30 10715 H 1052.37 -2.95843 0.686329 0
M  V30 10716 H 1049.96 -1.43909 0.401316 0
M  V30 10717 H 1051.84 -3.90862 -1.57496 0
M  V30 10718 H 1050.52 -2.72516 -1.7469 0
M  V30 10719 H 1049.42 -3.72519 0.343531 0
M  V30 10720 H 1050.76 -4.90297 0.432372 0
M  V30 10721 N 1052.41 -0.382291 -1.52893 0
M  V30 10722 C 1053.65 0.201996 -2.03399 0
M  V30 10723 C 1054.01 1.44624 -1.26286 0
M  V30 10724 O 1055.21 2.10723 -1.66881 0
M  V30 10725 C 1053.48 0.470348 -3.54292 0
M  V30 10726 S 1055.04 1.02592 -4.26638 0
M  V30 10727 H 1051.86 0.0575178 -0.70867 0
M  V30 10728 H 1054.46 -0.52902 -1.88206 0
M  V30 10729 H 1053.17 -0.44243 -4.08008 0
M  V30 10730 H 1052.7 1.22998 -3.73678 0
M  V30 10731 H 1054.71 2.30887 -4.3921 0
M  V30 10732 N 1053.89 1.57202 -0.111913 0
M  V30 10733 C 1055.3 1.82039 0.414591 0
M  V30 10734 C 1055.65 1.02863 1.67074 0
M  V30 10735 O 1054.77 0.263068 2.14795 0
M  V30 10736 C 1055.37 3.3019 0.758953 0
M  V30 10737 C 1053.93 3.55732 1.23012 0
M  V30 10738 C 1053.07 2.76301 0.235226 0
M  V30 10739 H 1056.02 1.55078 -0.337142 0
M  V30 10740 H 1056.05 3.44431 1.61701 0
M  V30 10741 H 1055.56 3.87788 -0.155473 0
M  V30 10742 H 1053.66 3.03483 2.16169 0
M  V30 10743 H 1053.77 4.64333 1.18034 0
M  V30 10744 H 1052.14 2.44287 0.720822 0
M  V30 10745 H 1052.92 3.36655 -0.672173 0
M  V30 10746 N 1055.36 -0.161842 1.56767 0
M  V30 10747 C 1056.31 -1.2002 1.97139 0
M  V30 10748 C 1057.28 -1.43486 0.836713 0
M  V30 10749 O 1058.47 -1.56069 1.0976 0
M  V30 10750 C 1055.61 -2.53228 2.34456 0
M  V30 10751 C 1054.72 -2.37062 3.61145 0
M  V30 10752 C 1053.85 -3.63202 3.87631 0
M  V30 10753 C 1052.89 -3.42008 5.07638 0
M  V30 10754 N 1052.03 -4.60242 5.30209 0
M  V30 10755 H 1056.87 -0.848918 2.85653 0
M  V30 10756 H 1054.41 -0.407753 1.41336 0
M  V30 10757 H 1056.36 -3.30879 2.54116 0
M  V30 10758 H 1054.99 -2.86333 1.4904 0
M  V30 10759 H 1054.05 -1.50539 3.49345 0
M  V30 10760 H 1055.36 -2.17353 4.48953 0
M  V30 10761 H 1054.51 -4.49285 4.0771 0
M  V30 10762 H 1053.25 -3.85899 2.98216 0
M  V30 10763 H 1052.26 -2.54312 4.87448 0
M  V30 10764 H 1053.48 -3.20724 5.98593 0
M  V30 10765 H 1051.43 -4.8314 4.43747 0
M  V30 10766 H 1051.34 -4.43481 6.12259 0
M  V30 10767 H 1052.61 -5.47581 5.54775 0
M  V30 10768 N 1056.84 -1.516 -0.430713 0
M  V30 10769 C 1058.09 -1.64271 -1.17726 0
M  V30 10770 C 1058.41 -0.364406 -1.91565 0
M  V30 10771 O 1057.68 0.619991 -1.8583 0
M  V30 10772 H 1056.26 -0.605432 -0.437562 0
M  V30 10773 H 1058.92 -1.88557 -0.493166 0
M  V30 10774 H 1058.02 -2.47355 -1.90321 0
M  V30 10775 N 1058.32 0.686584 -1.41858 0
M  V30 10776 C 1059.73 1.26682 -1.37145 0
M  V30 10777 C 1060.08 1.96112 -0.058922 0
M  V30 10778 O 1059.21 1.99321 0.842629 0
M  V30 10779 C 1059.8 2.30383 -2.48413 0
M  V30 10780 C 1058.36 2.83961 -2.47069 0
M  V30 10781 C 1057.51 1.58119 -2.27802 0
M  V30 10782 H 1060.46 0.480742 -1.51243 0
M  V30 10783 H 1060.48 3.11868 -2.17987 0
M  V30 10784 H 1059.99 1.79822 -3.43927 0
M  V30 10785 H 1058.09 3.38675 -1.55338 0
M  V30 10786 H 1058.21 3.3378 -3.43697 0
M  V30 10787 H 1056.57 1.84258 -1.75844 0
M  V30 10788 H 1057.35 1.09541 -3.25355 0
M  V30 10789 N 1059.8 1.27835 0.921735 0
M  V30 10790 C 1061.07 1.05238 1.64877 0
M  V30 10791 C 1061.45 -0.410921 2.07062 0
M  V30 10792 O 1060.8 -1.39538 1.80946 0
M  V30 10793 C 1061.01 2.01955 2.84632 0
M  V30 10794 C 1062.36 2.31657 3.55837 0
M  V30 10795 O 1063.38 1.99975 2.94768 0
M  V30 10796 O 1062.24 2.85692 4.65878 0
M  V30 10797 H 1059.34 0.401622 0.72293 0
M  V30 10798 H 1061.88 1.39123 0.971744 0
M  V30 10799 H 1060.66 3.00614 2.50494 0
M  V30 10800 H 1060.28 1.68667 3.60052 0
M  V30 10801 N 1061.28 -1.12907 1.09954 0
M  V30 10802 C 1062.52 -1.83661 0.833761 0
M  V30 10803 C 1062.84 -1.84736 -0.642798 0
M  V30 10804 O 1064.04 -2.51437 -1.0243 0
M  V30 10805 C 1062.5 -3.29763 1.44168 0
M  V30 10806 C 1062.11 -3.3706 2.95118 0
M  V30 10807 C 1063.85 -4.05522 1.25509 0
M  V30 10808 C 1061.76 -4.77467 3.48969 0
M  V30 10809 H 1060.69 -0.688115 0.308242 0
M  V30 10810 H 1063.34 -1.27166 1.32291 0
M  V30 10811 H 1061.72 -3.86094 0.880215 0
M  V30 10812 H 1062.9 -2.90695 3.57537 0
M  V30 10813 H 1061.21 -2.7477 3.12874 0
M  V30 10814 H 1063.81 -5.09188 1.63191 0
M  V30 10815 H 1064.15 -4.15837 0.196208 0
M  V30 10816 H 1064.68 -3.55536 1.78435 0
M  V30 10817 H 1061.42 -4.72344 4.54501 0
M  V30 10818 H 1060.94 -5.24305 2.91315 0
M  V30 10819 H 1062.62 -5.46397 3.46495 0
M  V30 10820 N 1062.75 -0.88754 -1.30232 0
M  V30 10821 C 1063.68 -0.372481 -2.3051 0
M  V30 10822 C 1064.66 0.546037 -1.61098 0
M  V30 10823 O 1065.85 0.459345 -1.88689 0
M  V30 10824 C 1062.98 0.411605 -3.44852 0
M  V30 10825 C 1061.93 -0.415383 -4.2598 0
M  V30 10826 C 1061.26 0.495463 -5.324 0
M  V30 10827 C 1062.56 -1.65886 -4.95257 0
M  V30 10828 H 1064.25 -1.21045 -2.7384 0
M  V30 10829 H 1061.8 -0.583498 -1.31648 0
M  V30 10830 H 1063.75 0.782584 -4.1407 0
M  V30 10831 H 1062.48 1.28325 -3.00334 0
M  V30 10832 H 1061.14 -0.768534 -3.58454 0
M  V30 10833 H 1060.78 1.36489 -4.84128 0
M  V30 10834 H 1060.48 -0.0540885 -5.87575 0
M  V30 10835 H 1062.01 0.862901 -6.04472 0
M  V30 10836 H 1063.42 -1.35832 -5.56976 0
M  V30 10837 H 1061.82 -2.14881 -5.60309 0
M  V30 10838 H 1062.89 -2.40181 -4.21237 0
M  V30 10839 N 1064.23 1.43628 -0.648757 0
M  V30 10840 C 1065.48 2.02163 -0.160574 0
M  V30 10841 C 1065.81 1.51037 1.22072 0
M  V30 10842 O 1065.09 0.701633 1.81404 0
M  V30 10843 C 1065.37 3.59715 -0.166528 0
M  V30 10844 C 1065.22 4.21083 -1.58142 0
M  V30 10845 C 1066.54 4.37256 0.499485 0
M  V30 10846 H 1063.66 0.734568 -0.0598238 0
M  V30 10847 H 1066.3 1.70981 -0.828592 0
M  V30 10848 H 1064.45 3.86411 0.402302 0
M  V30 10849 H 1066.12 4.05433 -2.2005 0
M  V30 10850 H 1064.37 3.77904 -2.13005 0
M  V30 10851 H 1065.04 5.30156 -1.53748 0
M  V30 10852 H 1067.51 4.16097 0.0155561 0
M  V30 10853 H 1066.39 5.4693 0.464574 0
M  V30 10854 H 1066.65 4.13175 1.57286 0
M  V30 10855 N 1065.71 0.390394 1.52688 0
M  V30 10856 C 1066.96 -0.191729 2.01892 0
M  V30 10857 C 1067.29 -1.4637 1.27631 0
M  V30 10858 O 1066.56 -1.90809 0.377094 0
M  V30 10859 C 1066.85 -0.458535 3.57169 0
M  V30 10860 C 1066.7 0.828796 4.42098 0
M  V30 10861 C 1068.02 -1.2487 4.22014 0
M  V30 10862 H 1065.14 -0.0682091 0.733837 0
M  V30 10863 H 1067.78 0.520176 1.82741 0
M  V30 10864 H 1065.93 -1.06498 3.73618 0
M  V30 10865 H 1067.6 1.46562 4.37398 0
M  V30 10866 H 1065.85 1.44388 4.09066 0
M  V30 10867 H 1066.52 0.596746 5.48765 0
M  V30 10868 H 1068.99 -0.735452 4.09549 0
M  V30 10869 H 1067.87 -1.40412 5.30637 0
M  V30 10870 H 1068.13 -2.2642 3.79719 0
M  V30 10871 N 1067.19 -1.57141 0.120249 0
M  V30 10872 C 1068.12 -2.18398 -0.826112 0
M  V30 10873 C 1069.1 -1.12439 -1.27638 0
M  V30 10874 O 1070.28 -1.40679 -1.33877 0
M  V30 10875 C 1067.41 -2.78438 -2.0758 0
M  V30 10876 C 1066.37 -3.89991 -1.76327 0
M  V30 10877 C 1065.69 -4.36844 -3.08336 0
M  V30 10878 C 1066.99 -5.12031 -1.03062 0
M  V30 10879 H 1068.69 -2.97731 -0.315656 0
M  V30 10880 H 1066.23 -1.43213 -0.150387 0
M  V30 10881 H 1068.19 -3.19951 -2.74243 0
M  V30 10882 H 1066.91 -1.96396 -2.60953 0
M  V30 10883 H 1065.57 -3.49055 -1.12053 0
M  V30 10884 H 1065.22 -3.51659 -3.59646 0
M  V30 10885 H 1064.92 -5.1207 -2.88199 0
M  V30 10886 H 1066.44 -4.81009 -3.76116 0
M  V30 10887 H 1067.86 -5.50555 -1.59881 0
M  V30 10888 H 1066.25 -5.92848 -0.930146 0
M  V30 10889 H 1067.32 -4.84897 -0.017582 0
M  V30 10890 N 1068.67 0.153526 -1.5685 0
M  V30 10891 C 1069.6 1.19162 -2.00805 0
M  V30 10892 C 1070.58 1.45172 -0.886518 0
M  V30 10893 O 1071.76 1.56203 -1.15387 0
M  V30 10894 C 1068.89 2.52637 -2.38311 0
M  V30 10895 C 1067.85 2.41161 -3.53589 0
M  V30 10896 C 1067.17 3.79287 -3.76889 0
M  V30 10897 C 1068.47 1.90122 -4.86468 0
M  V30 10898 H 1070.17 0.82617 -2.87776 0
M  V30 10899 H 1067.71 0.395972 -1.38449 0
M  V30 10900 H 1069.67 3.25478 -2.6766 0
M  V30 10901 H 1068.39 2.91005 -1.4827 0
M  V30 10902 H 1067.05 1.70772 -3.24395 0
M  V30 10903 H 1066.7 4.15079 -2.84109 0
M  V30 10904 H 1066.4 3.72472 -4.54465 0
M  V30 10905 H 1067.92 4.53687 -4.08657 0
M  V30 10906 H 1069.33 2.52752 -5.14577 0
M  V30 10907 H 1067.73 1.94214 -5.67804 0
M  V30 10908 H 1068.8 0.856517 -4.77275 0
M  V30 10909 N 1070.14 1.51827 0.422667 0
M  V30 10910 C 1071.37 1.69337 1.19748 0
M  V30 10911 C 1071.79 0.396312 1.83878 0
M  V30 10912 O 1071.15 -0.644976 1.6944 0
M  V30 10913 C 1071.2 2.82082 2.24637 0
M  V30 10914 O 1070.3 2.46708 3.30468 0
M  V30 10915 H 1069.65 0.564154 0.35018 0
M  V30 10916 H 1072.18 1.98465 0.497289 0
M  V30 10917 H 1072.19 3.06599 2.69186 0
M  V30 10918 H 1070.86 3.76195 1.77341 0
M  V30 10919 H 1069.44 2.32815 2.91293 0
M  V30 10920 N 1071.62 -0.679052 1.4222 0
M  V30 10921 C 1072.87 -1.44125 1.42674 0
M  V30 10922 C 1073.2 -1.94156 0.041438 0
M  V30 10923 O 1072.48 -1.70628 -0.93361 0
M  V30 10924 C 1072.76 -2.64133 2.44756 0
M  V30 10925 C 1072.61 -2.19761 3.9246 0
M  V30 10926 C 1073.93 -3.66347 2.43881 0
M  V30 10927 H 1071.05 -0.522729 0.519541 0
M  V30 10928 H 1073.69 -0.772067 1.73606 0
M  V30 10929 H 1071.84 -3.21225 2.1851 0
M  V30 10930 H 1073.51 -1.67869 4.29671 0
M  V30 10931 H 1071.76 -1.51377 4.06531 0
M  V30 10932 H 1072.43 -3.05944 4.59459 0
M  V30 10933 H 1074.9 -3.18963 2.67211 0
M  V30 10934 H 1073.78 -4.47902 3.17293 0
M  V30 10935 H 1074.04 -4.17183 1.46325 0
M  V30 10936 N 1073.1 -1.28322 -0.914942 0
M  V30 10937 C 1074.03 -1.06469 -2.01841 0
M  V30 10938 C 1075.01 0.0188681 -1.62589 0
M  V30 10939 O 1076.2 -0.128825 -1.88059 0
M  V30 10940 C 1073.32 -0.617685 -3.3302 0
M  V30 10941 C 1072.37 -1.6977 -3.91255 0
M  V30 10942 S 1073.2 -3.29337 -4.22253 0
M  V30 10943 C 1074.36 -2.86468 -5.56495 0
M  V30 10944 H 1074.59 -1.99893 -2.20068 0
M  V30 10945 H 1072.12 -1.12297 -1.05966 0
M  V30 10946 H 1074.08 -0.366481 -4.08861 0
M  V30 10947 H 1072.74 0.296709 -3.12695 0
M  V30 10948 H 1071.94 -1.33653 -4.85956 0
M  V30 10949 H 1071.54 -1.90164 -3.22046 0
M  V30 10950 H 1073.83 -2.32565 -6.36333 0
M  V30 10951 H 1074.77 -3.79962 -5.97523 0
M  V30 10952 H 1075.18 -2.2522 -5.17626 0
M  V30 10953 N 1074.58 1.12322 -1.10551 0
M  V30 10954 C 1075.83 1.83495 -0.846998 0
M  V30 10955 C 1076.15 1.8457 0.629205 0
M  V30 10956 O 1075.42 1.30968 1.45686 0
M  V30 10957 H 1074 0.679479 -0.310351 0
M  V30 10958 H 1076.66 1.36004 -1.39602 0
M  V30 10959 H 1075.76 2.87651 -1.21092 0
M  V30 10960 N 1076.06 0.894434 1.2976 0
M  V30 10961 C 1077.02 0.373094 2.26143 0
M  V30 10962 C 1078.02 -0.489756 1.5316 0
M  V30 10963 O 1079.21 -0.29556 1.71674 0
M  V30 10964 C 1076.34 -0.467234 3.37683 0
M  V30 10965 H 1077.53 1.22427 2.73773 0
M  V30 10966 H 1075.09 0.672112 1.41111 0
M  V30 10967 H 1075.82 -1.33861 2.95384 0
M  V30 10968 H 1075.61 0.150954 3.91809 0
M  V30 10969 H 1077.1 -0.823469 4.094 0
M  V30 10970 N 1077.53 -1.43282 0.656365 0
M  V30 10971 C 1078.78 -2.00996 0.168354 0
M  V30 10972 C 1079.1 -1.52408 -1.22601 0
M  V30 10973 O 1080.3 -2.02417 -1.80941 0
M  V30 10974 C 1078.76 -3.5903 0.250161 0
M  V30 10975 C 1078.37 -4.1661 1.64742 0
M  V30 10976 C 1080.11 -4.24118 -0.180084 0
M  V30 10977 C 1078.02 -5.66948 1.68299 0
M  V30 10978 H 1076.95 -0.751674 0.0591769 0
M  V30 10979 H 1079.6 -1.64216 0.818859 0
M  V30 10980 H 1077.98 -3.93226 -0.467908 0
M  V30 10981 H 1079.15 -3.93908 2.3911 0
M  V30 10982 H 1077.47 -3.63905 2.02391 0
M  V30 10983 H 1080.07 -5.34419 -0.173401 0
M  V30 10984 H 1080.41 -3.98264 -1.21208 0
M  V30 10985 H 1080.94 -3.94816 0.486343 0
M  V30 10986 H 1077.68 -5.97573 2.69419 0
M  V30 10987 H 1077.2 -5.91697 0.98261 0
M  V30 10988 H 1078.88 -6.31041 1.42813 0
M  V30 10989 N 1079.01 -0.398486 -1.52479 0
M  V30 10990 C 1079.94 0.423498 -2.29627 0
M  V30 10991 C 1080.92 1.05547 -1.33394 0
M  V30 10992 O 1082.11 1.0665 -1.62294 0
M  V30 10993 C 1079.24 1.54612 -3.10986 0
M  V30 10994 C 1078.19 1.03971 -4.15179 0
M  V30 10995 C 1077.52 2.25512 -4.84818 0
M  V30 10996 C 1078.82 0.10121 -5.22202 0
M  V30 10997 H 1080.51 -0.220222 -2.98589 0
M  V30 10998 H 1078.06 -0.107355 -1.43599 0
M  V30 10999 H 1080.01 2.12806 -3.63719 0
M  V30 11000 H 1078.74 2.21756 -2.39774 0
M  V30 11001 H 1077.4 0.480251 -3.63441 0
M  V30 11002 H 1077.04 2.91187 -4.10145 0
M  V30 11003 H 1076.74 1.92285 -5.55248 0
M  V30 11004 H 1078.27 2.84331 -5.40359 0
M  V30 11005 H 1079.68 0.591617 -5.70239 0
M  V30 11006 H 1078.08 -0.141737 -5.99933 0
M  V30 11007 H 1079.15 -0.847216 -4.77441 0
M  V30 11008 N 1080.49 1.57075 -0.12858 0
M  V30 11009 C 1081.42 2.18833 0.814519 0
M  V30 11010 C 1082.4 1.13114 1.2704 0
M  V30 11011 O 1083.59 1.41387 1.33129 0
M  V30 11012 C 1080.72 2.79535 2.06101 0
M  V30 11013 C 1079.67 3.9092 1.74257 0
M  V30 11014 C 1079 4.38473 3.06015 0
M  V30 11015 C 1080.3 5.1257 1.00345 0
M  V30 11016 H 1081.99 2.97895 0.299862 0
M  V30 11017 H 1079.54 1.4329 0.14279 0
M  V30 11018 H 1081.49 3.21401 2.72543 0
M  V30 11019 H 1080.21 1.97777 2.59907 0
M  V30 11020 H 1078.87 3.49645 1.102 0
M  V30 11021 H 1078.52 3.53561 3.57776 0
M  V30 11022 H 1078.22 5.13591 2.85479 0
M  V30 11023 H 1079.75 4.82997 3.7356 0
M  V30 11024 H 1081.16 5.51395 1.56959 0
M  V30 11025 H 1079.56 5.93333 0.898693 0
M  V30 11026 H 1080.63 4.84899 -0.0081335 0
M  V30 11027 N 1081.97 -0.145205 1.5693 0
M  V30 11028 C 1083.22 -0.855955 1.82637 0
M  V30 11029 C 1083.53 -1.82255 0.710109 0
M  V30 11030 O 1084.74 -2.57758 0.852837 0
M  V30 11031 C 1083.19 -1.57278 3.23715 0
M  V30 11032 C 1082.8 -0.648507 4.43281 0
M  V30 11033 C 1084.55 -2.27021 3.58695 0
M  V30 11034 C 1082.45 -1.36706 5.75383 0
M  V30 11035 H 1081.38 -0.323385 0.68113 0
M  V30 11036 H 1084.03 -0.10869 1.83178 0
M  V30 11037 H 1082.42 -2.36574 3.17567 0
M  V30 11038 H 1083.59 0.109355 4.6067 0
M  V30 11039 H 1081.9 -0.0594029 4.16358 0
M  V30 11040 H 1084.5 -2.81423 4.54648 0
M  V30 11041 H 1084.84 -3.03598 2.8484 0
M  V30 11042 H 1085.38 -1.54642 3.66512 0
M  V30 11043 H 1082.12 -0.6431 6.52338 0
M  V30 11044 H 1081.64 -2.09759 5.61926 0
M  V30 11045 H 1083.32 -1.90748 6.18243 0
M  V30 11046 N 1083.45 -1.52049 -0.414609 0
M  V30 11047 C 1084.7 -1.65511 -1.15977 0
M  V30 11048 C 1085.02 -0.384703 -1.91168 0
M  V30 11049 O 1084.29 0.600247 -1.86477 0
M  V30 11050 H 1082.87 -0.610039 -0.431116 0
M  V30 11051 H 1085.53 -1.8907 -0.473139 0
M  V30 11052 H 1084.62 -2.4936 -1.87686 0
M  V30 11053 N 1084.93 0.6715 -1.42579 0
M  V30 11054 C 1085.86 1.79693 -1.49107 0
M  V30 11055 C 1086.84 1.66516 -0.347338 0
M  V30 11056 O 1088.02 1.85887 -0.562094 0
M  V30 11057 C 1085.15 3.1801 -1.39596 0
M  V30 11058 C 1084.11 3.45926 -2.5203 0
M  V30 11059 C 1083.43 4.83852 -2.27577 0
M  V30 11060 C 1084.73 3.4249 -3.94333 0
M  V30 11061 H 1086.43 1.74486 -2.433 0
M  V30 11062 H 1083.97 0.838042 -1.17102 0
M  V30 11063 H 1085.92 3.96478 -1.42771 0
M  V30 11064 H 1084.65 3.23901 -0.418989 0
M  V30 11065 H 1083.31 2.6982 -2.48178 0
M  V30 11066 H 1082.96 4.86398 -1.28165 0
M  V30 11067 H 1082.66 5.03493 -3.02934 0
M  V30 11068 H 1084.18 5.646 -2.32506 0
M  V30 11069 H 1085.59 4.10922 -3.9977 0
M  V30 11070 H 1083.99 3.73666 -4.69568 0
M  V30 11071 H 1085.06 2.41002 -4.20768 0
M  V30 11072 N 1086.4 1.28806 0.908124 0
M  V30 11073 C 1087.37 1.13228 1.99279 0
M  V30 11074 C 1088.37 0.0702456 1.60646 0
M  V30 11075 O 1089.56 0.316494 1.71301 0
M  V30 11076 C 1086.69 0.729629 3.33 0
M  V30 11077 H 1087.88 2.09566 2.14528 0
M  V30 11078 H 1085.43 1.11872 1.09153 0
M  V30 11079 H 1086.17 -0.234268 3.23453 0
M  V30 11080 H 1085.95 1.49688 3.62403 0
M  V30 11081 H 1087.44 0.643449 4.12613 0
M  V30 11082 N 1087.88 -1.11734 1.11145 0
M  V30 11083 C 1088.84 -2.15868 0.770303 0
M  V30 11084 C 1089.84 -1.59438 -0.208842 0
M  V30 11085 O 1091.03 -1.74193 0.0152516 0
M  V30 11086 C 1088.17 -3.40603 0.142303 0
M  V30 11087 H 1089.36 -2.4756 1.69276 0
M  V30 11088 H 1086.91 -1.26867 0.912929 0
M  V30 11089 H 1087.65 -3.14517 -0.790526 0
M  V30 11090 H 1087.43 -3.8284 0.847087 0
M  V30 11091 H 1088.92 -4.17523 -0.0803608 0
M  V30 11092 N 1089.36 -0.901303 -1.29284 0
M  V30 11093 C 1090.29 -0.396909 -2.30102 0
M  V30 11094 C 1091.27 0.528919 -1.61668 0
M  V30 11095 O 1092.46 0.439306 -1.89166 0
M  V30 11096 C 1089.59 0.375006 -3.45269 0
M  V30 11097 C 1088.54 -0.46054 -4.25515 0
M  V30 11098 C 1087.87 0.438967 -5.32895 0
M  V30 11099 C 1089.17 -1.7113 -4.93469 0
M  V30 11100 H 1090.86 -1.23943 -2.72541 0
M  V30 11101 H 1088.41 -0.597428 -1.31022 0
M  V30 11102 H 1090.36 0.738622 -4.14876 0
M  V30 11103 H 1089.08 1.25132 -3.01678 0
M  V30 11104 H 1087.74 -0.80651 -3.57618 0
M  V30 11105 H 1087.39 1.31346 -4.85548 0
M  V30 11106 H 1087.09 -0.116406 -5.87485 0
M  V30 11107 H 1088.61 0.79874 -6.05353 0
M  V30 11108 H 1090.03 -1.41732 -5.55504 0
M  V30 11109 H 1088.42 -2.20811 -5.57999 0
M  V30 11110 H 1089.49 -2.44636 -4.18666 0
M  V30 11111 N 1090.84 1.42931 -0.663954 0
M  V30 11112 C 1091.77 2.33499 0.00731327 0
M  V30 11113 C 1092.75 1.50074 0.800733 0
M  V30 11114 O 1093.93 1.78708 0.760062 0
M  V30 11115 C 1091.06 3.33569 0.966897 0
M  V30 11116 C 1090.02 4.27064 0.282839 0
M  V30 11117 C 1089.34 5.17257 1.35461 0
M  V30 11118 C 1090.64 5.1564 -0.831438 0
M  V30 11119 H 1092.34 2.89879 -0.749044 0
M  V30 11120 H 1089.88 1.39385 -0.361656 0
M  V30 11121 H 1091.84 3.95833 1.44549 0
M  V30 11122 H 1090.56 2.75469 1.75455 0
M  V30 11123 H 1089.22 3.6618 -0.175417 0
M  V30 11124 H 1088.87 4.5549 2.13397 0
M  V30 11125 H 1088.57 5.80634 0.902098 0
M  V30 11126 H 1090.09 5.82395 1.83436 0
M  V30 11127 H 1091.51 5.71651 -0.434534 0
M  V30 11128 H 1089.9 5.87794 -1.20908 0
M  V30 11129 H 1090.97 4.54687 -1.68487 0
M  V30 11130 N 1092.32 0.406567 1.52266 0
M  V30 11131 C 1093.56 -0.171391 2.00971 0
M  V30 11132 C 1093.88 -1.46443 1.29668 0
M  V30 11133 O 1095.08 -2.12348 1.69176 0
M  V30 11134 C 1093.54 -0.35599 3.58135 0
M  V30 11135 C 1093.15 0.924803 4.38351 0
M  V30 11136 C 1094.89 -0.889378 4.15079 0
M  V30 11137 C 1092.8 0.707534 5.87152 0
M  V30 11138 H 1091.73 -0.0678253 0.750943 0
M  V30 11139 H 1094.38 0.531619 1.7563 0
M  V30 11140 H 1092.76 -1.12127 3.79794 0
M  V30 11141 H 1093.94 1.69603 4.28452 0
M  V30 11142 H 1092.25 1.38442 3.92712 0
M  V30 11143 H 1094.85 -1.06792 5.23927 0
M  V30 11144 H 1095.19 -1.86334 3.7227 0
M  V30 11145 H 1095.72 -0.183224 3.97378 0
M  V30 11146 H 1092.46 1.65299 6.34316 0
M  V30 11147 H 1091.98 -0.024446 5.99795 0
M  V30 11148 H 1093.66 0.348721 6.4606 0
M  V30 11149 N 1093.79 -1.57004 0.136909 0
M  V30 11150 C 1095.04 -1.96873 -0.511137 0
M  V30 11151 C 1095.4 -1.02001 -1.63137 0
M  V30 11152 O 1094.69 -0.0532138 -1.91526 0
M  V30 11153 C 1094.88 -3.40903 -1.07331 0
M  V30 11154 C 1094.71 -4.49699 -0.00908112 0
M  V30 11155 C 1093.48 -5.03477 0.42889 0
M  V30 11156 C 1095.68 -5.08372 0.778631 0
M  V30 11157 N 1093.66 -5.95867 1.47702 0
M  V30 11158 C 1095.03 -5.96875 1.67751 0
M  V30 11159 C 1097.09 -4.90975 0.827538 0
M  V30 11160 C 1095.79 -6.69845 2.62108 0
M  V30 11161 C 1097.82 -5.64639 1.75889 0
M  V30 11162 C 1097.18 -6.52842 2.64531 0
M  V30 11163 H 1093.28 -0.766253 -0.156141 0
M  V30 11164 H 1095.86 -1.93347 0.229176 0
M  V30 11165 H 1094.03 -3.45042 -1.78327 0
M  V30 11166 H 1095.76 -3.67855 -1.68715 0
M  V30 11167 H 1092.52 -4.73588 0.03306 0
M  V30 11168 H 1092.94 -6.46767 2.00055 0
M  V30 11169 H 1097.59 -4.22511 0.156318 0
M  V30 11170 H 1095.3 -7.37544 3.30235 0
M  V30 11171 H 1098.89 -5.53177 1.80241 0
M  V30 11172 H 1097.77 -7.08843 3.35426 0
M  V30 11173 N 1095.27 0.136881 -1.57004 0
M  V30 11174 C 1096.22 1.16869 -1.99023 0
M  V30 11175 C 1097.19 1.42137 -0.859435 0
M  V30 11176 O 1098.37 1.54303 -1.12229 0
M  V30 11177 C 1095.51 2.49466 -2.38455 0
M  V30 11178 C 1094.63 2.31286 -3.64871 0
M  V30 11179 C 1093.76 3.56989 -3.9336 0
M  V30 11180 C 1092.8 3.33889 -5.13015 0
M  V30 11181 N 1091.94 4.51748 -5.37464 0
M  V30 11182 H 1096.78 0.803366 -2.86967 0
M  V30 11183 H 1094.32 0.385216 -1.41967 0
M  V30 11184 H 1096.27 3.26794 -2.59348 0
M  V30 11185 H 1094.9 2.83926 -1.53577 0
M  V30 11186 H 1093.96 1.44962 -3.51696 0
M  V30 11187 H 1095.27 2.10183 -4.52355 0
M  V30 11188 H 1094.42 4.42742 -4.14806 0
M  V30 11189 H 1093.16 3.81106 -3.04318 0
M  V30 11190 H 1092.17 2.46525 -4.91432 0
M  V30 11191 H 1093.39 3.1116 -6.03619 0
M  V30 11192 H 1091.34 4.76019 -4.51377 0
M  V30 11193 H 1091.25 4.33684 -6.19237 0
M  V30 11194 H 1092.52 5.38686 -5.63416 0
M  V30 11195 N 1096.75 1.52266 0.40654 0
M  V30 11196 C 1097.68 1.78755 1.50229 0
M  V30 11197 C 1098.66 0.638652 1.57655 0
M  V30 11198 O 1099.85 0.884505 1.72888 0
M  V30 11199 C 1096.98 1.94057 2.88026 0
M  V30 11200 C 1095.93 3.09667 2.95449 0
M  V30 11201 C 1095.26 3.10196 4.35526 0
M  V30 11202 C 1096.56 4.49077 2.66697 0
M  V30 11203 H 1098.25 2.70511 1.28313 0
M  V30 11204 H 1095.8 1.30167 0.615836 0
M  V30 11205 H 1097.75 2.11171 3.64671 0
M  V30 11206 H 1096.47 0.989755 3.11242 0
M  V30 11207 H 1095.13 2.92308 2.2125 0
M  V30 11208 H 1094.78 2.12831 4.55754 0
M  V30 11209 H 1094.48 3.87847 4.41416 0
M  V30 11210 H 1096 3.29443 5.14101 0
M  V30 11211 H 1097.42 4.66628 3.33064 0
M  V30 11212 H 1095.82 5.28665 2.8396 0
M  V30 11213 H 1096.89 4.56995 1.62122 0
M  V30 11214 N 1098.23 -0.663929 1.42933 0
M  V30 11215 C 1099.16 -1.78899 1.50058 0
M  V30 11216 C 1100.14 -1.66329 0.356164 0
M  V30 11217 O 1101.32 -1.85587 0.571944 0
M  V30 11218 C 1098.45 -3.17265 1.41281 0
M  V30 11219 C 1097.41 -3.44584 2.53861 0
M  V30 11220 C 1096.73 -4.82638 2.3014 0
M  V30 11221 C 1098.03 -3.40394 3.96143 0
M  V30 11222 H 1099.73 -1.73194 2.44222 0
M  V30 11223 H 1097.27 -0.83182 1.17545 0
M  V30 11224 H 1099.23 -3.95715 1.44872 0
M  V30 11225 H 1097.95 -3.23675 0.43616 0
M  V30 11226 H 1096.61 -2.685 2.49606 0
M  V30 11227 H 1096.26 -4.85711 1.30743 0
M  V30 11228 H 1095.96 -5.01879 3.056 0
M  V30 11229 H 1097.48 -5.63359 2.35497 0
M  V30 11230 H 1098.9 -4.08796 4.01943 0
M  V30 11231 H 1097.29 -3.7117 4.71543 0
M  V30 11232 H 1098.36 -2.38767 4.22041 0
M  V30 11233 N 1099.71 -1.29285 -0.901281 0
M  V30 11234 C 1100.96 -1.16538 -1.64626 0
M  V30 11235 C 1101.27 0.282623 -1.93547 0
M  V30 11236 O 1102.47 0.531396 -2.66249 0
M  V30 11237 C 1100.93 -2.03809 -2.96631 0
M  V30 11238 C 1100.54 -3.53423 -2.75311 0
M  V30 11239 C 1102.28 -1.99782 -3.7455 0
M  V30 11240 C 1100.19 -4.32804 -4.03032 0
M  V30 11241 H 1099.12 -0.432561 -0.617581 0
M  V30 11242 H 1101.77 -1.53912 -0.999159 0
M  V30 11243 H 1100.15 -1.59302 -3.62545 0
M  V30 11244 H 1101.33 -4.05971 -2.18 0
M  V30 11245 H 1099.64 -3.59106 -2.10789 0
M  V30 11246 H 1102.24 -2.5635 -4.69243 0
M  V30 11247 H 1102.58 -0.97743 -4.04663 0
M  V30 11248 H 1103.11 -2.42324 -3.15474 0
M  V30 11249 H 1099.85 -5.35473 -3.78086 0
M  V30 11250 H 1099.37 -3.85025 -4.59909 0
M  V30 11251 H 1101.05 -4.43383 -4.71191 0
M  V30 11252 N 1101.18 1.11143 -1.11736 0
M  V30 11253 C 1102.41 1.86745 -0.890727 0
M  V30 11254 C 1102.83 1.80315 0.55964 0
M  V30 11255 O 1102.18 1.18663 1.38656 0
M  V30 11256 C 1102.24 3.35436 -1.34779 0
M  V30 11257 O 1101.96 3.41738 -2.74129 0
M  V30 11258 C 1103.46 4.27935 -1.15702 0
M  V30 11259 H 1100.68 0.59044 -0.318781 0
M  V30 11260 H 1103.22 1.40549 -1.48547 0
M  V30 11261 H 1101.38 3.79125 -0.796425 0
M  V30 11262 H 1101.79 4.34347 -2.94012 0
M  V30 11263 H 1103.26 5.30494 -1.52579 0
M  V30 11264 H 1103.74 4.39093 -0.0968735 0
M  V30 11265 H 1104.35 3.90042 -1.69551 0
M  V30 11266 N 1102.66 0.908147 1.28804 0
M  V30 11267 C 1103.91 0.534332 1.94494 0
M  V30 11268 C 1104.22 -0.92552 1.72318 0
M  V30 11269 O 1105.43 -1.40724 2.32183 0
M  V30 11270 C 1103.89 0.904748 3.48342 0
M  V30 11271 C 1103.49 2.38394 3.79305 0
M  V30 11272 C 1105.24 0.601249 4.2022 0
M  V30 11273 C 1103.15 2.69478 5.26437 0
M  V30 11274 H 1102.08 0.196107 0.728051 0
M  V30 11275 H 1104.73 1.1063 1.46401 0
M  V30 11276 H 1103.11 0.261624 3.95135 0
M  V30 11277 H 1104.28 3.07333 3.43341 0
M  V30 11278 H 1102.6 2.65733 3.20586 0
M  V30 11279 H 1105.19 0.810225 5.28526 0
M  V30 11280 H 1105.54 -0.460669 4.13743 0
M  V30 11281 H 1106.07 1.20259 3.79187 0
M  V30 11282 H 1102.81 3.74501 5.37986 0
M  V30 11283 H 1102.33 2.05171 5.63618 0
M  V30 11284 H 1104.01 2.56187 5.94119 0
M  V30 11285 N 1104.14 -1.42577 0.671525 0
M  V30 11286 C 1105.09 -2.27978 -0.0315286 0
M  V30 11287 C 1106.07 -1.40907 -0.776796 0
M  V30 11288 O 1107.27 -1.64385 -0.656248 0
M  V30 11289 C 1104.4 -3.28884 -0.9844 0
M  V30 11290 C 1103.48 -4.23439 -0.236647 0
M  V30 11291 N 1103.87 -5.00107 0.756714 0
M  V30 11292 C 1102.17 -4.43457 -0.475551 0
M  V30 11293 C 1102.87 -5.69141 1.20221 0
M  V30 11294 N 1101.85 -5.40983 0.532802 0
M  V30 11295 H 1105.65 -2.84678 0.730455 0
M  V30 11296 H 1103.16 -1.54501 0.500317 0
M  V30 11297 H 1105.16 -3.88864 -1.50302 0
M  V30 11298 H 1103.82 -2.73745 -1.74625 0
M  V30 11299 H 1104.83 -5.05285 1.13613 0
M  V30 11300 H 1101.51 -3.99364 -1.21715 0
M  V30 11301 H 1102.9 -6.40653 2.02517 0
M  V30 11302 N 1105.62 -0.414636 -1.52048 0
M  V30 11303 C 1106.9 0.218172 -1.94379 0
M  V30 11304 C 1107.28 1.62133 -1.35189 0
M  V30 11305 O 1106.62 2.22271 -0.529877 0
M  V30 11306 C 1106.83 0.218932 -3.48313 0
M  V30 11307 C 1108.18 0.435604 -4.2236 0
M  V30 11308 O 1109.21 0.298049 -3.54951 0
M  V30 11309 O 1108.06 0.707217 -5.41905 0
M  V30 11310 H 1105.16 0.142173 -0.814688 0
M  V30 11311 H 1107.7 -0.470977 -1.63033 0
M  V30 11312 H 1106.48 -0.76292 -3.83791 0
M  V30 11313 H 1106.1 0.951949 -3.86036 0
M  V30 11314 N 1107.1 1.56929 -0.145233 0
M  V30 11315 C 1108.51 1.58196 0.211194 0
M  V30 11316 C 1108.71 1.15941 1.64803 0
M  V30 11317 O 1107.77 0.858888 2.37443 0
M  V30 11318 C 1109.08 3.00665 -0.0459569 0
M  V30 11319 C 1110.63 3.12995 0.0178913 0
M  V30 11320 C 1111.1 4.5751 -0.211905 0
M  V30 11321 N 1112.6 4.62928 -0.158772 0
M  V30 11322 C 1113.33 5.72555 -0.311111 0
M  V30 11323 N 1112.83 6.90838 -0.521074 0
M  V30 11324 N 1114.62 5.61549 -0.248838 0
M  V30 11325 H 1106.77 1.8269 -1.08342 0
M  V30 11326 H 1109.03 0.845514 -0.428731 0
M  V30 11327 H 1108.74 3.35962 -1.0403 0
M  V30 11328 H 1108.61 3.71125 0.674246 0
M  V30 11329 H 1111 2.7754 1.00278 0
M  V30 11330 H 1111.08 2.45025 -0.734612 0
M  V30 11331 H 1110.73 4.93669 -1.19389 0
M  V30 11332 H 1110.66 5.23604 0.560901 0
M  V30 11333 H 1113.15 3.779 -0.00107283 0
M  V30 11334 H 1113.46 7.70248 -0.62747 0
M  V30 11335 H 1111.8 6.92761 -0.557374 0
M  V30 11336 H 1115 4.68022 -0.0855821 0
M  V30 11337 H 1115.17 6.46937 -0.370997 0
M  V30 11338 N 1108.58 -0.128553 1.57075 0
M  V30 11339 C 1109.52 -1.15812 1.9964 0
M  V30 11340 C 1110.49 -1.41679 0.86696 0
M  V30 11341 O 1111.68 -1.53705 1.13046 0
M  V30 11342 C 1108.82 -2.48198 2.39774 0
M  V30 11343 C 1107.93 -2.29348 3.66092 0
M  V30 11344 C 1107.07 -3.54898 3.95248 0
M  V30 11345 C 1106.1 -3.31164 5.14779 0
M  V30 11346 N 1105.24 -4.48891 5.39853 0
M  V30 11347 H 1110.08 -0.788136 2.87389 0
M  V30 11348 H 1107.62 -0.377682 1.42169 0
M  V30 11349 H 1109.58 -3.25414 2.61077 0
M  V30 11350 H 1108.21 -2.83108 1.5508 0
M  V30 11351 H 1107.26 -1.43095 3.5246 0
M  V30 11352 H 1108.57 -2.07781 4.53463 0
M  V30 11353 H 1107.72 -4.40536 4.17148 0
M  V30 11354 H 1106.46 -3.79487 3.06335 0
M  V30 11355 H 1105.47 -2.43915 4.92733 0
M  V30 11356 H 1106.69 -3.07954 6.05261 0
M  V30 11357 H 1104.64 -4.73619 4.53895 0
M  V30 11358 H 1104.56 -4.30394 6.21528 0
M  V30 11359 H 1105.82 -5.35691 5.66265 0
M  V30 11360 N 1110.05 -1.5248 -0.398459 0
M  V30 11361 C 1110.96 -1.79492 -1.51062 0
M  V30 11362 C 1111.98 -0.681101 -1.60116 0
M  V30 11363 O 1113.16 -0.967671 -1.7663 0
M  V30 11364 C 1110.22 -1.94958 -2.86692 0
M  V30 11365 C 1109.28 -3.1887 -2.87438 0
M  V30 11366 C 1108.51 -3.33588 -4.16599 0
M  V30 11367 O 1108.74 -2.53327 -5.11059 0
M  V30 11368 O 1107.67 -4.26795 -4.24416 0
M  V30 11369 H 1111.5 -2.73913 -1.31169 0
M  V30 11370 H 1109.08 -1.37455 -0.585372 0
M  V30 11371 H 1110.96 -2.06891 -3.67116 0
M  V30 11372 H 1109.64 -1.03726 -3.06631 0
M  V30 11373 H 1108.55 -3.12386 -2.0583 0
M  V30 11374 H 1109.88 -4.09917 -2.7245 0
M  V30 11375 N 1111.53 0.65634 -1.43283 0
M  V30 11376 C 1112.78 1.41627 -1.44734 0
M  V30 11377 C 1113.11 1.94372 -0.0704893 0
M  V30 11378 O 1112.36 1.72511 0.924037 0
M  V30 11379 C 1112.66 2.61688 -2.43421 0
M  V30 11380 C 1112.33 2.2738 -3.8937 0
M  V30 11381 C 1110.99 2.17735 -4.29121 0
M  V30 11382 C 1113.34 1.99863 -4.81357 0
M  V30 11383 C 1110.67 1.78725 -5.58815 0
M  V30 11384 C 1113.02 1.62352 -6.11412 0
M  V30 11385 C 1111.68 1.51231 -6.50143 0
M  V30 11386 H 1110.95 0.51825 -0.529621 0
M  V30 11387 H 1113.6 0.746701 -1.76342 0
M  V30 11388 H 1111.91 3.33763 -2.05206 0
M  V30 11389 H 1113.6 3.19896 -2.41801 0
M  V30 11390 H 1110.19 2.35795 -3.57908 0
M  V30 11391 H 1114.38 2.06237 -4.5142 0
M  V30 11392 H 1109.63 1.68698 -5.87666 0
M  V30 11393 H 1113.81 1.40091 -6.82164 0
M  V30 11394 H 1111.43 1.20774 -7.50545 0
M  V30 11395 N 1113.01 1.29761 0.894412 0
M  V30 11396 C 1113.97 1.15335 1.98067 0
M  V30 11397 C 1114.97 0.0872804 1.60563 0
M  V30 11398 O 1116.16 0.334645 1.70955 0
M  V30 11399 C 1113.29 0.764907 3.32208 0
M  V30 11400 H 1114.49 2.11829 2.12293 0
M  V30 11401 H 1112.04 1.13023 1.0796 0
M  V30 11402 H 1112.78 -0.199948 3.23683 0
M  V30 11403 H 1112.56 1.53523 3.60795 0
M  V30 11404 H 1114.05 0.687176 4.11907 0
M  V30 11405 N 1114.49 -1.10549 1.12324 0
M  V30 11406 C 1115.43 -2.16858 0.790024 0
M  V30 11407 C 1116.4 -1.64317 -0.242694 0
M  V30 11408 O 1117.59 -1.90438 -0.117531 0
M  V30 11409 C 1114.73 -3.44197 0.249503 0
M  V30 11410 C 1113.84 -4.10696 1.33989 0
M  V30 11411 C 1112.98 -5.25751 0.758932 0
M  V30 11412 C 1112.02 -5.8415 1.82853 0
M  V30 11413 N 1111.15 -6.90585 1.26637 0
M  V30 11414 H 1115.99 -2.44705 1.7007 0
M  V30 11415 H 1113.53 -1.20117 0.849141 0
M  V30 11416 H 1115.49 -4.1712 -0.0819251 0
M  V30 11417 H 1114.12 -3.16705 -0.624332 0
M  V30 11418 H 1113.17 -3.35754 1.78812 0
M  V30 11419 H 1114.48 -4.50144 2.14875 0
M  V30 11420 H 1113.64 -6.05521 0.378104 0
M  V30 11421 H 1112.38 -4.87632 -0.0811405 0
M  V30 11422 H 1111.38 -5.03051 2.21856 0
M  V30 11423 H 1112.61 -6.24333 2.6718 0
M  V30 11424 H 1110.55 -6.54468 0.448105 0
M  V30 11425 H 1110.47 -7.28739 2.01184 0
M  V30 11426 H 1111.74 -7.74138 0.912737 0
M  V30 11427 N 1115.97 -0.914965 -1.28321 0
M  V30 11428 C 1117.21 -0.548749 -1.94923 0
M  V30 11429 C 1117.54 0.907776 -1.72016 0
M  V30 11430 O 1116.8 1.66097 -1.03491 0
M  V30 11431 C 1117.09 -0.805805 -3.48198 0
M  V30 11432 C 1116.76 -2.24207 -3.91206 0
M  V30 11433 C 1115.42 -2.63475 -4.02659 0
M  V30 11434 C 1117.77 -3.17667 -4.13204 0
M  V30 11435 C 1115.1 -3.95353 -4.3349 0
M  V30 11436 C 1117.45 -4.4911 -4.45514 0
M  V30 11437 C 1116.12 -4.8823 -4.55179 0
M  V30 11438 H 1115.39 -0.200801 -0.713274 0
M  V30 11439 H 1118.04 -1.15652 -1.52633 0
M  V30 11440 H 1116.34 -0.115244 -3.9163 0
M  V30 11441 H 1118.04 -0.501609 -3.9785 0
M  V30 11442 H 1114.63 -1.92737 -3.82819 0
M  V30 11443 H 1118.81 -2.88537 -4.03807 0
M  V30 11444 H 1114.07 -4.25362 -4.39178 0
M  V30 11445 H 1118.24 -5.21542 -4.61483 0
M  V30 11446 H 1115.87 -5.90451 -4.78823 0
M  V30 11447 N 1117.44 1.42219 -0.679077 0
M  V30 11448 C 1118.35 2.346 -0.00345919 0
M  V30 11449 C 1119.37 1.55327 0.784181 0
M  V30 11450 O 1120.55 1.87878 0.725524 0
M  V30 11451 C 1117.61 3.33905 0.933194 0
M  V30 11452 C 1116.67 4.29073 0.139607 0
M  V30 11453 C 1115.9 5.23634 1.03165 0
M  V30 11454 O 1116.13 5.23234 2.27119 0
M  V30 11455 O 1115.06 5.99901 0.490159 0
M  V30 11456 H 1118.89 2.9392 -0.764525 0
M  V30 11457 H 1116.47 1.42794 -0.439329 0
M  V30 11458 H 1118.35 3.949 1.47077 0
M  V30 11459 H 1117.03 2.77052 1.67404 0
M  V30 11460 H 1115.94 3.71478 -0.442177 0
M  V30 11461 H 1117.27 4.88979 -0.562214 0
M  V30 11462 N 1118.92 0.422693 1.51826 0
M  V30 11463 C 1119.83 -0.40261 2.31119 0
M  V30 11464 C 1120.85 -1.04117 1.39412 0
M  V30 11465 O 1122.02 -1.03973 1.72486 0
M  V30 11466 C 1119.09 -1.49699 3.12716 0
M  V30 11467 C 1118.15 -0.880088 4.20182 0
M  V30 11468 C 1117.38 -1.92232 4.97878 0
M  V30 11469 O 1117.61 -3.14246 4.76031 0
M  V30 11470 O 1116.54 -1.521 5.82365 0
M  V30 11471 H 1120.37 0.244308 3.02716 0
M  V30 11472 H 1117.95 0.185569 1.48243 0
M  V30 11473 H 1119.83 -2.13202 3.63487 0
M  V30 11474 H 1118.51 -2.12826 2.43899 0
M  V30 11475 H 1117.41 -0.207404 3.73525 0
M  V30 11476 H 1118.75 -0.292535 4.9133 0
M  V30 11477 N 1120.4 -1.5685 0.153553 0
M  V30 11478 C 1121.31 -2.20664 -0.796528 0
M  V30 11479 C 1122.33 -1.19289 -1.26674 0
M  V30 11480 O 1123.5 -1.51889 -1.32256 0
M  V30 11481 C 1120.57 -2.82088 -2.01561 0
M  V30 11482 C 1119.63 -3.9861 -1.59401 0
M  V30 11483 C 1118.86 -4.57096 -2.75498 0
M  V30 11484 O 1119.08 -4.14462 -3.9189 0
M  V30 11485 O 1118.02 -5.47254 -2.50593 0
M  V30 11486 H 1121.84 -3.02376 -0.283282 0
M  V30 11487 H 1119.43 -1.49218 -0.0737927 0
M  V30 11488 H 1121.31 -3.21103 -2.72893 0
M  V30 11489 H 1119.99 -2.03385 -2.51826 0
M  V30 11490 H 1118.89 -3.64299 -0.850725 0
M  V30 11491 H 1120.23 -4.78853 -1.13845 0
M  V30 11492 N 1121.88 0.120221 -1.57141 0
M  V30 11493 C 1123.29 0.473718 -1.52408 0
M  V30 11494 C 1123.49 1.81925 -0.866354 0
M  V30 11495 O 1122.55 2.48491 -0.448173 0
M  V30 11496 C 1123.86 0.459338 -2.97171 0
M  V30 11497 C 1125.41 0.542975 -3.08254 0
M  V30 11498 C 1125.89 0.558996 -4.54576 0
M  V30 11499 N 1127.38 0.620469 -4.59026 0
M  V30 11500 C 1128.11 0.654292 -5.69655 0
M  V30 11501 N 1127.61 0.645835 -6.89783 0
M  V30 11502 N 1129.4 0.697208 -5.57759 0
M  V30 11503 H 1121.55 -0.76142 -1.98283 0
M  V30 11504 H 1123.81 -0.280736 -0.905479 0
M  V30 11505 H 1123.52 -0.461654 -3.48657 0
M  V30 11506 H 1123.39 1.28759 -3.54543 0
M  V30 11507 H 1125.78 1.45439 -2.56772 0
M  V30 11508 H 1125.86 -0.312936 -2.53879 0
M  V30 11509 H 1125.51 -0.348367 -5.06704 0
M  V30 11510 H 1125.44 1.43177 -5.06762 0
M  V30 11511 H 1127.93 0.633218 -3.72557 0
M  V30 11512 H 1128.24 0.674233 -7.69853 0
M  V30 11513 H 1126.59 0.613279 -6.92289 0
M  V30 11514 H 1129.78 0.70117 -4.62819 0
M  V30 11515 H 1129.95 0.7201 -6.43986 0
M  V30 11516 N 1123.36 1.52689 0.390367 0
M  V30 11517 C 1124.32 1.76726 1.45947 0
M  V30 11518 C 1125.32 0.637269 1.47633 0
M  V30 11519 O 1126.51 0.905312 1.48828 0
M  V30 11520 C 1123.64 1.86678 2.85244 0
M  V30 11521 H 1124.83 2.72185 1.25918 0
M  V30 11522 H 1122.39 1.4339 0.622023 0
M  V30 11523 H 1123.12 0.931991 3.10619 0
M  V30 11524 H 1122.91 2.68843 2.85422 0
M  V30 11525 H 1124.4 2.06952 3.62713 0
M  V30 11526 N 1124.83 -0.648732 1.43629 0
M  V30 11527 C 1126.25 -0.964917 1.27128 0
M  V30 11528 C 1126.45 -2.00561 0.194251 0
M  V30 11529 O 1125.51 -2.48884 -0.42581 0
M  V30 11530 C 1126.82 -1.44491 2.6371 0
M  V30 11531 C 1128.37 -1.56133 2.71278 0
M  V30 11532 C 1128.84 -2.07521 4.08288 0
M  V30 11533 N 1130.33 -2.14817 4.10375 0
M  V30 11534 C 1131.07 -2.55712 5.13224 0
M  V30 11535 N 1130.56 -2.9587 6.26444 0
M  V30 11536 N 1132.36 -2.55691 5.00578 0
M  V30 11537 H 1124.51 0.0398357 2.12363 0
M  V30 11538 H 1126.77 -0.0447705 0.946942 0
M  V30 11539 H 1126.48 -0.754616 3.43509 0
M  V30 11540 H 1126.35 -2.41914 2.89409 0
M  V30 11541 H 1128.74 -2.24263 1.91808 0
M  V30 11542 H 1128.82 -0.571314 2.49338 0
M  V30 11543 H 1128.46 -1.39992 4.88226 0
M  V30 11544 H 1128.39 -3.07362 4.27594 0
M  V30 11545 H 1130.88 -1.86538 3.28652 0
M  V30 11546 H 1131.2 -3.25837 7.0075 0
M  V30 11547 H 1129.54 -2.93664 6.2991 0
M  V30 11548 H 1132.73 -2.23697 4.1119 0
M  V30 11549 H 1132.91 -2.87239 5.80859 0
M  V30 11550 N 1126.31 -1.30234 -0.887518 0
M  V30 11551 C 1127.28 -1.16384 -1.97452 0
M  V30 11552 C 1128.28 -0.0957942 -1.60514 0
M  V30 11553 O 1129.47 -0.343706 -1.70776 0
M  V30 11554 C 1126.6 -0.782514 -3.31797 0
M  V30 11555 H 1127.79 -2.12952 -2.11167 0
M  V30 11556 H 1125.34 -1.13594 -1.07359 0
M  V30 11557 H 1126.08 0.18278 -3.23785 0
M  V30 11558 H 1125.86 -1.55434 -3.59976 0
M  V30 11559 H 1127.35 -0.709011 -4.11537 0
M  V30 11560 N 1127.79 1.09952 -1.12909 0
M  V30 11561 C 1128.74 2.16436 -0.801514 0
M  V30 11562 C 1129.71 1.64444 0.233976 0
M  V30 11563 O 1130.89 1.90497 0.10743 0
M  V30 11564 C 1128.03 3.4406 -0.267753 0
M  V30 11565 C 1127.15 4.09979 -1.36165 0
M  V30 11566 C 1126.28 5.25341 -0.786803 0
M  V30 11567 C 1125.32 5.83172 -1.85948 0
M  V30 11568 N 1124.46 6.89904 -1.30298 0
M  V30 11569 H 1129.3 2.43799 -1.71365 0
M  V30 11570 H 1126.83 1.19665 -0.855499 0
M  V30 11571 H 1128.79 4.17157 0.0598031 0
M  V30 11572 H 1127.42 3.17031 0.607528 0
M  V30 11573 H 1126.47 3.34801 -1.8059 0
M  V30 11574 H 1127.79 4.48999 -2.17259 0
M  V30 11575 H 1126.94 6.05312 -0.410211 0
M  V30 11576 H 1125.68 4.87669 0.055279 0
M  V30 11577 H 1124.68 5.01867 -2.24521 0
M  V30 11578 H 1125.91 6.22907 -2.70487 0
M  V30 11579 H 1123.85 6.54221 -0.482806 0
M  V30 11580 H 1123.77 7.27662 -2.05046 0
M  V30 11581 H 1125.04 7.73643 -0.953779 0
M  V30 11582 N 1129.27 0.921757 1.27833 0
M  V30 11583 C 1130.51 0.569378 1.95268 0
M  V30 11584 C 1130.87 -0.878685 1.71163 0
M  V30 11585 O 1130.16 -1.6177 1.02669 0
M  V30 11586 C 1130.36 0.824259 3.47765 0
M  V30 11587 C 1130.19 2.29555 3.86697 0
M  V30 11588 C 1128.96 2.94715 4.10452 0
M  V30 11589 C 1131.15 3.27261 3.96743 0
M  V30 11590 N 1129.14 4.32058 4.36118 0
M  V30 11591 C 1130.51 4.49793 4.26715 0
M  V30 11592 C 1132.56 3.2255 3.79296 0
M  V30 11593 C 1131.26 5.68208 4.41057 0
M  V30 11594 C 1133.29 4.40272 3.9486 0
M  V30 11595 C 1132.65 5.61581 4.25213 0
M  V30 11596 H 1128.75 0.258368 0.738085 0
M  V30 11597 H 1131.34 1.18715 1.54321 0
M  V30 11598 H 1129.51 0.235697 3.87684 0
M  V30 11599 H 1131.24 0.435106 4.02354 0
M  V30 11600 H 1127.99 2.4541 4.05057 0
M  V30 11601 H 1128.42 5.03092 4.5302 0
M  V30 11602 H 1133.06 2.29835 3.54875 0
M  V30 11603 H 1130.78 6.61396 4.64308 0
M  V30 11604 H 1134.36 4.38138 3.82787 0
M  V30 11605 H 1133.24 6.51154 4.36998 0
M  V30 11606 N 1130.75 -1.41857 0.686609 0
M  V30 11607 C 1132.02 -1.95082 0.142228 0
M  V30 11608 C 1132.4 -1.62646 -1.34572 0
M  V30 11609 O 1131.75 -0.928757 -2.08773 0
M  V30 11610 C 1131.96 -3.46415 0.423955 0
M  V30 11611 C 1133.31 -4.23181 0.346842 0
M  V30 11612 O 1134.33 -3.54393 0.358363 0
M  V30 11613 O 1133.19 -5.4568 0.299211 0
M  V30 11614 H 1130.29 -0.826943 0.00974 0
M  V30 11615 H 1132.83 -1.51622 0.762153 0
M  V30 11616 H 1131.6 -3.63273 1.45424 0
M  V30 11617 H 1131.23 -3.96949 -0.227391 0
M  V30 11618 N 1132.22 -0.430739 -1.51599 0
M  V30 11619 C 1133.45 0.136797 -2.06447 0
M  V30 11620 C 1133.87 1.37027 -1.29881 0
M  V30 11621 O 1133.22 1.78983 -0.356543 0
M  V30 11622 C 1133.28 0.465637 -3.58489 0
M  V30 11623 O 1133 -0.718873 -4.32162 0
M  V30 11624 C 1134.5 1.08456 -4.29828 0
M  V30 11625 H 1131.72 0.0108468 -0.670912 0
M  V30 11626 H 1134.26 -0.607921 -1.95255 0
M  V30 11627 H 1132.42 1.16025 -3.69617 0
M  V30 11628 H 1132.83 -0.439195 -5.22658 0
M  V30 11629 H 1134.3 1.2647 -5.37317 0
M  V30 11630 H 1134.78 2.06376 -3.87693 0
M  V30 11631 H 1135.39 0.429525 -4.23125 0
M  V30 11632 N 1133.7 1.56767 -0.161869 0
M  V30 11633 C 1134.67 2.16299 0.758104 0
M  V30 11634 C 1135.67 1.10859 1.16478 0
M  V30 11635 O 1136.86 1.36422 1.08327 0
M  V30 11636 C 1133.99 2.73819 2.03067 0
M  V30 11637 H 1135.18 2.98938 0.239992 0
M  V30 11638 H 1132.73 1.56054 0.0876532 0
M  V30 11639 H 1133.47 1.94887 2.59209 0
M  V30 11640 H 1133.25 3.50974 1.74813 0
M  V30 11641 H 1134.74 3.19638 2.68741 0
M  V30 11642 N 1135.18 -0.111886 1.57202 0
M  V30 11643 C 1136.13 -1.15585 2.01849 0
M  V30 11644 C 1137.12 -1.42458 0.916621 0
M  V30 11645 O 1138.33 -1.42337 1.10182 0
M  V30 11646 H 1134.7 -0.389885 0.643035 0
M  V30 11647 H 1136.67 -0.752854 2.88747 0
M  V30 11648 C 1135.42 -2.47247 2.44467 0
M  V30 11649 H 1134.75 -2.27409 3.28824 0
M  V30 11650 H 1136.19 -3.18837 2.79497 0
M  V30 11651 C 1134.65 -3.10339 1.31115 0
M  V30 11652 O 1135.18 -3.96713 0.631029 0
M  V30 11653 N 1133.38 -2.70326 1.0664 0
M  V30 11654 H 1132.93 -2.00182 1.62126 0
M  V30 11655 H 1132.89 -3.12869 0.309944 0
M  V30 11656 N 1136.66 -1.52894 -0.382264 0
M  V30 11657 C 1137.61 -1.78799 -1.48774 0
M  V30 11658 C 1138.6 -0.65624 -1.56173 0
M  V30 11659 O 1139.81 -0.838856 -1.59258 0
M  V30 11660 H 1136.18 -0.565855 -0.49529 0
M  V30 11661 H 1138.15 -2.7136 -1.24122 0
M  V30 11662 C 1136.9 -1.97987 -2.85826 0
M  V30 11663 H 1136.22 -2.84505 -2.80886 0
M  V30 11664 H 1137.66 -2.20099 -3.62398 0
M  V30 11665 C 1136.12 -0.75427 -3.28348 0
M  V30 11666 O 1136.65 0.0650749 -4.01647 0
M  V30 11667 N 1134.86 -0.582457 -2.84703 0
M  V30 11668 H 1134.41 -1.25034 -2.2522 0
M  V30 11669 H 1134.36 0.236208 -3.13511 0
M  V30 11670 N 1138.14 0.641106 -1.43971 0
M  V30 11671 C 1139.55 1.22254 -1.41106 0
M  V30 11672 C 1139.9 1.95825 -0.121284 0
M  V30 11673 O 1139.02 2.01901 0.77879 0
M  V30 11674 C 1139.62 2.22364 -2.55617 0
M  V30 11675 C 1138.18 2.75957 -2.55978 0
M  V30 11676 C 1137.33 1.50792 -2.32717 0
M  V30 11677 H 1140.28 0.432381 -1.52696 0
M  V30 11678 H 1140.3 3.04775 -2.27799 0
M  V30 11679 H 1139.81 1.68789 -3.49474 0
M  V30 11680 H 1137.91 3.33562 -1.66034 0
M  V30 11681 H 1138.02 3.22676 -3.54142 0
M  V30 11682 H 1136.39 1.7857 -1.81617 0
M  V30 11683 H 1137.17 0.991343 -3.28675 0
M  V30 11684 N 1139.62 1.30703 0.880598 0
M  V30 11685 C 1140.55 1.20033 2.00286 0
M  V30 11686 C 1141.53 0.0899614 1.69862 0
M  V30 11687 O 1142.71 0.272747 1.92275 0
M  V30 11688 C 1139.84 0.895902 3.35546 0
M  V30 11689 C 1138.8 1.96468 3.80242 0
M  V30 11690 C 1138.12 1.51316 5.12843 0
M  V30 11691 C 1139.42 3.37637 3.98496 0
M  V30 11692 H 1141.12 2.13922 2.0947 0
M  V30 11693 H 1138.66 1.02989 1.00644 0
M  V30 11694 H 1140.61 0.807899 4.13583 0
M  V30 11695 H 1139.34 -0.0786636 3.26505 0
M  V30 11696 H 1138 2.0424 3.04437 0
M  V30 11697 H 1137.65 0.52674 5.00234 0
M  V30 11698 H 1137.35 2.22807 5.43719 0
M  V30 11699 H 1138.87 1.43903 5.93401 0
M  V30 11700 H 1140.28 3.326 4.66959 0
M  V30 11701 H 1138.68 4.07253 4.40755 0
M  V30 11702 H 1139.75 3.79205 3.02211 0
M  V30 11703 N 1141.09 -1.09351 1.1349 0
M  V30 11704 C 1142.32 -1.85036 0.918989 0
M  V30 11705 C 1142.73 -1.8146 -0.535638 0
M  V30 11706 O 1142.07 -1.20958 -1.38256 0
M  V30 11707 C 1142.14 -3.33992 1.33001 0
M  V30 11708 C 1141.8 -3.61315 2.79822 0
M  V30 11709 C 1142.8 -3.56973 3.77976 0
M  V30 11710 C 1140.48 -3.89636 3.17001 0
M  V30 11711 C 1142.48 -3.80564 5.11321 0
M  V30 11712 C 1140.16 -4.12882 4.50524 0
M  V30 11713 C 1141.16 -4.08338 5.47494 0
M  V30 11714 O 1140.85 -4.30983 6.78608 0
M  V30 11715 H 1140.58 -0.591301 0.327627 0
M  V30 11716 H 1143.14 -1.39078 1.5115 0
M  V30 11717 H 1141.37 -3.8066 0.68077 0
M  V30 11718 H 1143.05 -3.9109 1.08645 0
M  V30 11719 H 1143.82 -3.3512 3.50599 0
M  V30 11720 H 1139.7 -3.92297 2.42124 0
M  V30 11721 H 1143.24 -3.76933 5.86998 0
M  V30 11722 H 1139.14 -4.34216 4.77626 0
M  V30 11723 H 1139.91 -4.4844 6.84722 0
M  V30 11724 N 1142.57 -0.928524 -1.27343 0
M  V30 11725 C 1143.52 -0.426873 -2.26818 0
M  V30 11726 C 1144.49 0.506663 -1.58184 0
M  V30 11727 O 1145.67 0.425641 -1.85992 0
M  V30 11728 C 1142.81 0.313523 -3.43673 0
M  V30 11729 C 1141.93 -0.65422 -4.27018 0
M  V30 11730 C 1141.06 0.106102 -5.31094 0
M  V30 11731 C 1140.1 -0.854293 -6.06109 0
M  V30 11732 N 1139.24 -0.126545 -7.01986 0
M  V30 11733 H 1144.08 -1.28014 -2.69103 0
M  V30 11734 H 1141.61 -0.642515 -1.32326 0
M  V30 11735 H 1143.57 0.75912 -4.10236 0
M  V30 11736 H 1142.2 1.13102 -3.02337 0
M  V30 11737 H 1141.25 -1.21834 -3.60362 0
M  V30 11738 H 1142.57 -1.38817 -4.79094 0
M  V30 11739 H 1141.72 0.611577 -6.0361 0
M  V30 11740 H 1140.46 0.873009 -4.79823 0
M  V30 11741 H 1139.46 -1.37101 -5.32432 0
M  V30 11742 H 1140.69 -1.621 -6.5947 0
M  V30 11743 H 1138.64 0.622102 -6.53044 0
M  V30 11744 H 1138.55 -0.800046 -7.51755 0
M  V30 11745 H 1139.82 0.358251 -7.78676 0
M  V30 11746 N 1144.05 1.41491 -0.694123 0
M  V30 11747 C 1144.96 2.34583 -0.0283414 0
M  V30 11748 C 1145.98 1.5615 0.767662 0
M  V30 11749 O 1147.15 1.88637 0.705556 0
M  V30 11750 C 1144.22 3.34876 0.897726 0
M  V30 11751 C 1143.28 4.29197 0.0940905 0
M  V30 11752 C 1142.51 5.24699 0.976051 0
M  V30 11753 O 1142.73 5.25613 2.21556 0
M  V30 11754 O 1141.67 6.00387 0.426503 0
M  V30 11755 H 1145.49 2.93092 -0.795656 0
M  V30 11756 H 1143.08 1.4232 -0.45445 0
M  V30 11757 H 1144.96 3.96438 1.4288 0
M  V30 11758 H 1143.64 2.78812 1.64456 0
M  V30 11759 H 1142.54 3.70988 -0.481552 0
M  V30 11760 H 1143.88 4.88355 -0.614045 0
M  V30 11761 N 1145.53 0.438773 1.51369 0
M  V30 11762 C 1146.49 -0.36032 2.2635 0
M  V30 11763 C 1147.49 -0.948465 1.29849 0
M  V30 11764 O 1148.68 -0.822692 1.53549 0
M  V30 11765 C 1145.81 -1.50994 3.05636 0
M  V30 11766 H 1147.01 0.296826 2.98427 0
M  V30 11767 H 1144.56 0.191978 1.55117 0
M  V30 11768 H 1145.29 -2.2031 2.37979 0
M  V30 11769 H 1145.08 -1.09437 3.76518 0
M  V30 11770 H 1146.57 -2.07447 3.6243 0
M  V30 11771 N 1147.01 -1.56678 0.170181 0
M  V30 11772 C 1148.23 -2.01223 -0.481362 0
M  V30 11773 C 1148.65 -1.05039 -1.56883 0
M  V30 11774 O 1148.01 -0.0510751 -1.82429 0
M  V30 11775 C 1148.06 -3.45588 -1.06073 0
M  V30 11776 O 1147.78 -4.38097 -0.0166754 0
M  V30 11777 C 1149.28 -4.05527 -1.79061 0
M  V30 11778 H 1146.5 -0.659574 -0.1233 0
M  V30 11779 H 1149.04 -2.02689 0.271576 0
M  V30 11780 H 1147.2 -3.449 -1.76417 0
M  V30 11781 H 1147.61 -5.22615 -0.444276 0
M  V30 11782 H 1149.09 -5.08467 -2.1486 0
M  V30 11783 H 1149.56 -3.47554 -2.68519 0
M  V30 11784 H 1150.17 -4.09914 -1.13361 0
M  V30 11785 N 1148.48 0.103547 -1.57259 0
M  V30 11786 C 1149.71 0.82624 -1.90232 0
M  V30 11787 C 1150.13 1.71902 -0.763641 0
M  V30 11788 O 1149.49 1.79043 0.285181 0
M  V30 11789 C 1149.54 1.62265 -3.22029 0
M  V30 11790 O 1148.64 2.73091 -3.09023 0
M  V30 11791 H 1147.98 0.227528 -0.6238 0
M  V30 11792 H 1150.51 0.081307 -2.04438 0
M  V30 11793 H 1150.52 2.00865 -3.5513 0
M  V30 11794 H 1149.2 0.967383 -4.04493 0
M  V30 11795 H 1147.78 2.3758 -2.8742 0
M  V30 11796 N 1149.96 1.53094 0.37415 0
M  V30 11797 C 1151.19 1.72758 1.13852 0
M  V30 11798 C 1151.6 0.452638 1.83294 0
M  V30 11799 O 1150.96 -0.573906 1.73241 0
M  V30 11800 C 1151.01 2.88724 2.17534 0
M  V30 11801 O 1150.73 4.11284 1.5092 0
M  V30 11802 C 1152.23 3.2019 3.06584 0
M  V30 11803 H 1149.45 0.578028 0.340771 0
M  V30 11804 H 1152 1.99805 0.435683 0
M  V30 11805 H 1150.15 2.64096 2.83429 0
M  V30 11806 H 1150.57 4.76162 2.19932 0
M  V30 11807 H 1152.04 4.04759 3.75332 0
M  V30 11808 H 1152.52 2.35193 3.70919 0
M  V30 11809 H 1153.12 3.46712 2.46315 0
M  V30 11810 N 1151.44 -0.633461 1.44309 0
M  V30 11811 C 1152.69 -1.39306 1.46969 0
M  V30 11812 C 1153.01 -1.94235 0.101403 0
M  V30 11813 O 1152.27 -1.73959 -0.896475 0
M  V30 11814 C 1152.57 -2.57783 2.47554 0
M  V30 11815 C 1152.23 -2.21156 3.92939 0
M  V30 11816 C 1150.9 -2.1088 4.32531 0
M  V30 11817 C 1153.25 -1.9218 4.84475 0
M  V30 11818 C 1150.58 -1.69812 5.61588 0
M  V30 11819 C 1152.93 -1.52605 6.13917 0
M  V30 11820 C 1151.59 -1.40868 6.52466 0
M  V30 11821 H 1150.86 -0.509758 0.537799 0
M  V30 11822 H 1153.51 -0.718552 1.77508 0
M  V30 11823 H 1151.81 -3.30456 2.1049 0
M  V30 11824 H 1153.51 -3.16009 2.46859 0
M  V30 11825 H 1150.1 -2.30072 3.61614 0
M  V30 11826 H 1154.29 -1.9903 4.54644 0
M  V30 11827 H 1149.54 -1.59327 5.90275 0
M  V30 11828 H 1153.72 -1.29221 6.84306 0
M  V30 11829 H 1151.34 -1.08818 7.52371 0
M  V30 11830 N 1152.92 -1.31168 -0.873655 0
M  V30 11831 C 1154.15 -1.23595 -1.65927 0
M  V30 11832 C 1154.56 0.199349 -1.87745 0
M  V30 11833 O 1153.92 1.13013 -1.43298 0
M  V30 11834 C 1153.97 -1.97268 -3.02932 0
M  V30 11835 O 1153.69 -3.35196 -2.82091 0
M  V30 11836 C 1155.19 -1.9649 -3.97374 0
M  V30 11837 H 1152.41 -0.427228 -0.517414 0
M  V30 11838 H 1154.96 -1.72983 -1.09074 0
M  V30 11839 H 1153.11 -1.51651 -3.56484 0
M  V30 11840 H 1153.52 -3.7266 -3.69087 0
M  V30 11841 H 1155 -2.52557 -4.90835 0
M  V30 11842 H 1155.48 -0.946525 -4.28879 0
M  V30 11843 H 1156.08 -2.4197 -3.49758 0
M  V30 11844 N 1154.4 1.08748 -1.14068 0
M  V30 11845 C 1155.34 2.17667 -0.819981 0
M  V30 11846 C 1156.34 1.68207 0.200654 0
M  V30 11847 O 1157.54 1.79909 0.0571014 0
M  V30 11848 H 1153.92 0.710129 -0.247427 0
M  V30 11849 H 1155.89 2.41944 -1.74659 0
M  V30 11850 C 1154.64 3.46315 -0.309985 0
M  V30 11851 H 1153.96 3.84748 -1.08669 0
M  V30 11852 H 1155.4 4.23818 -0.124094 0
M  V30 11853 C 1153.86 3.22762 0.965724 0
M  V30 11854 O 1154.39 3.46034 2.04018 0
M  V30 11855 N 1152.6 2.76326 0.899576 0
M  V30 11856 H 1152.14 2.57588 0.0250598 0
M  V30 11857 H 1152.1 2.60945 1.75371 0
M  V30 11858 N 1155.87 0.935264 1.26849 0
M  V30 11859 C 1157.12 0.575467 1.93317 0
M  V30 11860 C 1157.44 -0.88876 1.74242 0
M  V30 11861 O 1158.64 -1.35767 2.35116 0
M  V30 11862 C 1157.1 0.978433 3.46345 0
M  V30 11863 C 1156.71 2.46386 3.74163 0
M  V30 11864 C 1158.45 0.690249 4.18851 0
M  V30 11865 C 1156.36 2.80584 5.20602 0
M  V30 11866 H 1155.29 0.211506 0.723727 0
M  V30 11867 H 1157.94 1.1371 1.44022 0
M  V30 11868 H 1156.32 0.345379 3.94491 0
M  V30 11869 H 1157.49 3.14547 3.36745 0
M  V30 11870 H 1155.81 2.72473 3.14877 0
M  V30 11871 H 1158.41 0.922151 5.26688 0
M  V30 11872 H 1158.75 -0.372805 4.14627 0
M  V30 11873 H 1159.28 1.28275 3.76551 0
M  V30 11874 H 1156.02 3.85828 5.29921 0
M  V30 11875 H 1155.54 2.1708 5.59139 0
M  V30 11876 H 1157.22 2.68732 5.88551 0
M  V30 11877 N 1157.35 -1.41121 0.701616 0
M  V30 11878 C 1158.58 -2.05452 0.244365 0
M  V30 11879 C 1159 -1.5282 -1.10866 0
M  V30 11880 O 1158.35 -0.67893 -1.69401 0
M  V30 11881 C 1158.4 -3.60946 0.200112 0
M  V30 11882 O 1158.12 -4.11632 1.4997 0
M  V30 11883 C 1159.63 -4.42431 -0.277394 0
M  V30 11884 H 1156.85 -0.66151 0.112453 0
M  V30 11885 H 1159.39 -1.80784 0.9559 0
M  V30 11886 H 1157.54 -3.84632 -0.462287 0
M  V30 11887 H 1157.96 -5.05723 1.39084 0
M  V30 11888 H 1159.43 -5.514 -0.257225 0
M  V30 11889 H 1159.91 -4.1898 -1.31728 0
M  V30 11890 H 1160.52 -4.23822 0.354223 0
M  V30 11891 N 1158.83 -0.446794 -1.51134 0
M  V30 11892 C 1160.06 0.114727 -2.06281 0
M  V30 11893 C 1160.47 1.36192 -1.31333 0
M  V30 11894 O 1159.81 1.79956 -0.368982 0
M  V30 11895 C 1159.87 0.492968 -3.56104 0
M  V30 11896 C 1159.54 -0.648755 -4.52372 0
M  V30 11897 C 1160.53 -1.52369 -4.97071 0
M  V30 11898 C 1158.22 -0.832177 -4.95359 0
M  V30 11899 C 1160.21 -2.56667 -5.83439 0
M  V30 11900 C 1157.9 -1.87841 -5.81514 0
M  V30 11901 C 1158.9 -2.74404 -6.25453 0
M  V30 11902 O 1158.59 -3.7723 -7.09896 0
M  V30 11903 H 1158.32 0.007138 -0.675962 0
M  V30 11904 H 1160.87 -0.627452 -1.95582 0
M  V30 11905 H 1159.1 1.28799 -3.6462 0
M  V30 11906 H 1160.79 0.986739 -3.93724 0
M  V30 11907 H 1161.56 -1.39356 -4.64548 0
M  V30 11908 H 1157.44 -0.167954 -4.60694 0
M  V30 11909 H 1160.98 -3.24264 -6.17656 0
M  V30 11910 H 1156.88 -2.00871 -6.1345 0
M  V30 11911 H 1157.65 -3.73924 -7.28095 0
M  V30 11912 N 1160.31 1.56586 -0.178487 0
M  V30 11913 C 1161.72 1.58609 0.17759 0
M  V30 11914 C 1161.92 1.19411 1.62306 0
M  V30 11915 O 1160.98 0.90906 2.35568 0
M  V30 11916 C 1162.29 3.005 -0.109722 0
M  V30 11917 C 1163.84 3.12962 -0.0485036 0
M  V30 11918 C 1164.32 4.56957 -0.308901 0
M  V30 11919 N 1165.81 4.62487 -0.25693 0
M  V30 11920 C 1166.54 5.71767 -0.432488 0
M  V30 11921 N 1166.04 6.89577 -0.667494 0
M  V30 11922 N 1167.83 5.60895 -0.367895 0
M  V30 11923 H 1159.98 1.80351 -1.12193 0
M  V30 11924 H 1162.25 0.83623 -0.446569 0
M  V30 11925 H 1161.95 3.3368 -1.11133 0
M  V30 11926 H 1161.83 3.72472 0.595373 0
M  V30 11927 H 1164.21 2.79604 0.943687 0
M  V30 11928 H 1164.29 2.43411 -0.78642 0
M  V30 11929 H 1163.94 4.91025 -1.29833 0
M  V30 11930 H 1163.87 5.24676 0.449711 0
M  V30 11931 H 1166.36 3.77813 -0.0812308 0
M  V30 11932 H 1166.67 7.68744 -0.79071 0
M  V30 11933 H 1165.02 6.91423 -0.704193 0
M  V30 11934 H 1168.21 4.67735 -0.184837 0
M  V30 11935 H 1168.38 6.46005 -0.508138 0
M  V30 11936 N 1161.79 -0.095206 1.57312 0
M  V30 11937 C 1163.03 -0.797142 1.85715 0
M  V30 11938 C 1163.36 -1.79275 0.767171 0
M  V30 11939 O 1162.63 -1.94808 -0.206584 0
M  V30 11940 H 1161.21 -0.297382 0.685254 0
M  V30 11941 H 1163.87 -0.0768617 1.94748 0
M  V30 11942 H 1162.96 -1.32779 2.82447 0
M  V30 11943 N 1163.26 -1.53291 -0.366026 0
M  V30 11944 C 1164.49 -1.73359 -1.12934 0
M  V30 11945 C 1164.91 -0.462352 -1.83051 0
M  V30 11946 O 1164.26 0.564711 -1.73543 0
M  V30 11947 C 1164.32 -2.89873 -2.15999 0
M  V30 11948 O 1164.04 -4.12079 -1.48737 0
M  V30 11949 C 1165.54 -3.21811 -3.04881 0
M  V30 11950 H 1162.76 -0.579827 -0.337701 0
M  V30 11951 H 1165.3 -2.00033 -0.425081 0
M  V30 11952 H 1163.46 -2.65595 -2.82025 0
M  V30 11953 H 1163.87 -4.77322 -2.17404 0
M  V30 11954 H 1165.34 -4.06744 -3.7318 0
M  V30 11955 H 1165.82 -2.37156 -3.69667 0
M  V30 11956 H 1166.43 -3.48013 -2.44473 0
M  V30 11957 O 1164.78 0.512 -1.53169 0
M  V30 11958 H 1165.47 1.16699 -1.546 0
M  V30 END ATOM
M  V30 BEGIN BOND
M  V30 END BOND
M  V30 END CTAB
M  END
$$$$
