drugbank_target|P22748 Carbonic anhydrase 4 (DB00232; DB00273; DB00311; DB00436; DB00562; DB00703; DB00774; DB00819; DB00869; DB00909; DB01021; DB01144; DB01194; DB08846; DB09460)
 OpenBabel12092119343D

  0  0  0     0  0            999 V3000
M  V30 BEGIN CTAB
M  V30 COUNTS 4932 4992 0 0 0
M  V30 BEGIN ATOM
M  V30 1 H -0.908 1.98254 -0.117106 0
M  V30 2 N 0 1.576 0 0
M  V30 3 C 0.933 2.03868 1.02534 0
M  V30 4 C 1.911 0.928543 1.3348 0
M  V30 5 O 3.095 1.19667 1.45644 0
M  V30 6 C 0.222 2.43627 2.35294 0
M  V30 7 C -0.732 3.65373 2.2001 0
M  V30 8 S 0.101 5.13292 1.52614 0
M  V30 9 C 1.257 5.56322 2.86805 0
M  V30 10 H 1.49 2.90518 0.631377 0
M  V30 11 H -0.977 1.52953 0.210867 0
M  V30 12 H 0.981 2.67203 3.11629 0
M  V30 13 H -0.358 1.57376 2.7183 0
M  V30 14 H -1.165 3.90944 3.18086 0
M  V30 15 H -1.563 3.418 1.51819 0
M  V30 16 H 0.729 5.58782 3.83104 0
M  V30 17 H 1.672 6.56266 2.65933 0
M  V30 18 H 2.08 4.83886 2.90714 0
M  V30 19 N 1.4781 -0.272755 1.55222 0
M  V30 20 C 2.8941 -0.619959 1.47067 0
M  V30 21 C 3.0941 -1.895 0.684978 0
M  V30 22 O 2.1501 -2.51675 0.203931 0
M  V30 23 C 3.4631 -0.746693 2.91282 0
M  V30 24 C 5.0111 -0.840731 3.01497 0
M  V30 25 C 5.4861 -0.99924 4.46967 0
M  V30 26 N 6.9771 -1.06476 4.50796 0
M  V30 27 C 7.7121 -1.20621 5.6057 0
M  V30 28 N 7.2081 -1.31483 6.80209 0
M  V30 29 N 9.0011 -1.23733 5.48312 0
M  V30 30 H 1.1521 0.564606 2.04758 0
M  V30 31 H 3.4151 0.191177 0.928523 0
M  V30 32 H 3.1211 0.119753 3.51496 0
M  V30 33 H 2.9951 -1.6269 3.40311 0
M  V30 34 H 5.3821 -1.69764 2.41379 0
M  V30 35 H 5.4631 0.0640874 2.5572 0
M  V30 36 H 5.1071 -0.146984 5.07687 0
M  V30 37 H 5.0371 -1.91871 4.90401 0
M  V30 38 H 7.5281 -0.993196 3.64615 0
M  V30 39 H 7.8411 -1.42111 7.59621 0
M  V30 40 H 6.1861 -1.28487 6.8302 0
M  V30 41 H 9.3771 -1.14877 4.53785 0
M  V30 42 H 9.5501 -1.34412 6.33906 0
M  V30 43 N 2.9562 -1.48159 -0.537278 0
M  V30 44 C 3.8892 -1.567 -1.65893 0
M  V30 45 C 4.8672 -0.41787 -1.57139 0
M  V30 46 O 6.0512 -0.628461 -1.77715 0
M  V30 47 C 3.1782 -1.48818 -3.04255 0
M  V30 48 C 2.2242 -2.68482 -3.31391 0
M  V30 49 S 3.0572 -4.30516 -3.1846 0
M  V30 50 C 4.2132 -4.2522 -4.59281 0
M  V30 51 H 4.4462 -2.5159 -1.58397 0
M  V30 52 H 1.9792 -1.36602 -0.719672 0
M  V30 53 H 3.9372 -1.44958 -3.84054 0
M  V30 54 H 2.5982 -0.552777 -3.09198 0
M  V30 55 H 1.7912 -2.59085 -4.32309 0
M  V30 56 H 1.3932 -2.69567 -2.59248 0
M  V30 57 H 3.6852 -3.94703 -5.5065 0
M  V30 58 H 4.6282 -5.26292 -4.73732 0
M  V30 59 H 5.0362 -3.55791 -4.38261 0
M  V30 60 N 4.4343 0.785586 -1.36625 0
M  V30 61 C 5.3643 1.91259 -1.33949 0
M  V30 62 C 6.3453 1.68795 -0.210325 0
M  V30 63 O 7.5303 1.89854 -0.408561 0
M  V30 64 C 4.6603 3.28339 -1.13186 0
M  V30 65 C 3.6143 3.65335 -2.22967 0
M  V30 66 C 2.9403 5.00806 -1.87342 0
M  V30 67 C 4.2403 3.7352 -3.65075 0
M  V30 68 H 5.9343 1.93755 -2.28253 0
M  V30 69 H 3.4803 0.930788 -1.09874 0
M  V30 70 H 5.4333 4.06804 -1.09948 0
M  V30 71 H 4.1573 3.2624 -0.153332 0
M  V30 72 H 2.8163 2.89169 -2.25337 0
M  V30 73 H 2.4643 4.95233 -0.880545 0
M  V30 74 H 2.1643 5.26529 -2.60846 0
M  V30 75 H 3.6883 5.81687 -1.85667 0
M  V30 76 H 5.1023 4.42168 -3.64911 0
M  V30 77 H 3.4993 4.10731 -4.37516 0
M  V30 78 H 4.5693 2.74527 -3.99703 0
M  V30 79 N 5.9124 1.20967 1.01018 0
M  V30 80 C 6.8424 0.988272 2.11555 0
M  V30 81 C 7.8234 -0.0849778 1.69888 0
M  V30 82 O 9.0084 0.0738202 1.9406 0
M  V30 83 C 6.1384 0.546528 3.42973 0
M  V30 84 C 5.0924 1.56375 3.9841 0
M  V30 85 C 4.4184 0.97842 5.25672 0
M  V30 86 C 5.7184 2.94922 4.31066 0
M  V30 87 H 7.4124 1.91276 2.30334 0
M  V30 88 H 4.9584 0.921073 1.1069 0
M  V30 89 H 6.9114 0.378839 4.19694 0
M  V30 90 H 5.6354 -0.413598 3.23971 0
M  V30 91 H 4.2944 1.71891 3.23804 0
M  V30 92 H 3.9424 0.0101688 5.02999 0
M  V30 93 H 3.6424 1.65784 5.63728 0
M  V30 94 H 5.1664 0.821939 6.05043 0
M  V30 95 H 6.5804 2.8288 4.9865 0
M  V30 96 H 4.9774 3.5983 4.80253 0
M  V30 97 H 6.0474 3.4616 3.39561 0
M  V30 98 N 7.3905 -1.2043 1.01659 0
M  V30 99 C 8.3535 -2.21433 0.591616 0
M  V30 100 C 9.3535 -1.57203 -0.338226 0
M  V30 101 O 10.5435 -1.73737 -0.126918 0
M  V30 102 C 7.6755 -3.40628 -0.136058 0
M  V30 103 H 8.8685 -2.60545 1.48514 0
M  V30 104 H 6.4215 -1.33893 0.806379 0
M  V30 105 H 7.1565 -3.07019 -1.04449 0
M  V30 106 H 6.9415 -3.88475 0.531917 0
M  V30 107 H 8.4315 -4.15475 -0.420735 0
M  V30 108 N 8.8686 -0.792821 -1.36206 0
M  V30 109 C 9.7986 -0.207853 -2.32573 0
M  V30 110 C 10.7796 0.659055 -1.56813 0
M  V30 111 O 11.9646 0.592176 -1.84951 0
M  V30 112 C 9.0946 0.655449 -3.41059 0
M  V30 113 C 8.0486 -0.111842 -4.27854 0
M  V30 114 C 7.3746 0.872274 -5.27537 0
M  V30 115 C 8.6746 -1.30299 -5.05786 0
M  V30 116 H 10.3686 -1.01294 -2.81744 0
M  V30 117 H 7.9146 -0.48854 -1.3546 0
M  V30 118 H 9.8676 1.07464 -4.07467 0
M  V30 119 H 8.5916 1.49328 -2.90463 0
M  V30 120 H 7.2506 -0.512053 -3.63006 0
M  V30 121 H 6.8986 1.70523 -4.73214 0
M  V30 122 H 6.5986 0.363291 -5.86476 0
M  V30 123 H 8.1226 1.28996 -5.96818 0
M  V30 124 H 9.5366 -0.959379 -5.65216 0
M  V30 125 H 7.9336 -1.7455 -5.74154 0
M  V30 126 H 9.0036 -2.09663 -4.37229 0
M  V30 127 N 10.3467 1.47872 -0.545128 0
M  V30 128 C 11.2767 2.32661 0.197793 0
M  V30 129 C 12.2577 1.43041 0.920504 0
M  V30 130 O 13.4427 1.71912 0.90333 0
M  V30 131 C 10.5727 3.24569 1.23582 0
M  V30 132 C 9.5267 4.23333 0.630323 0
M  V30 133 C 8.8527 5.0448 1.77211 0
M  V30 134 C 10.1527 5.20704 -0.407974 0
M  V30 135 H 11.8467 2.95024 -0.510045 0
M  V30 136 H 9.3927 1.4187 -0.246731 0
M  V30 137 H 11.3457 3.8272 1.76362 0
M  V30 138 H 10.0697 2.60236 1.97344 0
M  V30 139 H 8.7287 3.6639 0.123922 0
M  V30 140 H 8.3767 4.36561 2.49847 0
M  V30 141 H 8.0767 5.71339 1.37281 0
M  V30 142 H 9.6007 5.65487 2.3034 0
M  V30 143 H 11.0147 5.7329 0.033305 0
M  V30 144 H 9.4117 5.95699 -0.725486 0
M  V30 145 H 10.4817 4.66917 -1.30828 0
M  V30 146 N 11.8248 0.280983 1.55075 0
M  V30 147 C 12.7878 -0.590896 2.21452 0
M  V30 148 C 13.7878 -1.07682 1.19421 0
M  V30 149 O 14.9778 -0.97605 1.44288 0
M  V30 150 C 12.1098 -1.81587 2.88511 0
M  V30 151 H 13.3028 -0.0112554 2.99898 0
M  V30 152 H 10.8558 0.0316438 1.56268 0
M  V30 153 H 11.5908 -2.43587 2.14093 0
M  V30 154 H 11.3758 -1.4753 3.63287 0
M  V30 155 H 12.8658 -2.43575 3.39206 0
M  V30 156 N 13.3029 -1.57598 0.00835791 0
M  V30 157 C 14.2329 -2.1198 -0.979113 0
M  V30 158 C 15.2139 -1.03091 -1.35301 0
M  V30 159 O 16.3989 -1.30818 -1.43528 0
M  V30 160 C 13.5289 -2.62995 -2.26828 0
M  V30 161 C 12.4829 -3.76485 -2.03576 0
M  V30 162 C 11.8089 -4.13846 -3.38579 0
M  V30 163 C 13.1089 -5.0342 -1.39161 0
M  V30 164 H 14.8029 -2.94738 -0.526281 0
M  V30 165 H 12.3489 -1.41783 -0.251704 0
M  V30 166 H 14.3019 -2.99669 -2.96271 0
M  V30 167 H 13.0259 -1.7737 -2.7424 0
M  V30 168 H 11.6849 -3.40217 -1.36557 0
M  V30 169 H 11.3329 -3.25232 -3.83709 0
M  V30 170 H 11.0329 -4.90312 -3.23834 0
M  V30 171 H 12.5569 -4.53086 -4.09323 0
M  V30 172 H 13.9709 -5.37812 -1.98573 0
M  V30 173 H 12.3679 -5.84746 -1.34878 0
M  V30 174 H 13.4379 -4.83548 -0.361868 0
M  V30 175 N 14.781 0.264519 -1.55364 0
M  V30 176 C 16.006 1.01726 -1.80739 0
M  V30 177 C 16.431 1.78836 -0.583044 0
M  V30 178 O 15.789 1.75167 0.467566 0
M  V30 179 C 15.837 1.94482 -3.03659 0
M  V30 180 O 14.941 3.03386 -2.7934 0
M  V30 181 H 14.282 0.290395 -0.597132 0
M  V30 182 H 16.812 0.290854 -2.02522 0
M  V30 183 H 16.822 2.36278 -3.32621 0
M  V30 184 H 15.497 1.37772 -3.92418 0
M  V30 185 H 14.074 2.65844 -2.61498 0
M  V30 186 N 16.2591 1.48442 0.529413 0
M  V30 187 C 17.2221 1.62524 1.61612 0
M  V30 188 C 18.2221 0.498509 1.52877 0
M  V30 189 O 19.4121 0.76431 1.56537 0
M  V30 190 C 16.5441 1.59597 3.01233 0
M  V30 191 H 17.7371 2.59423 1.50465 0
M  V30 192 H 15.2901 1.37047 0.751514 0
M  V30 193 H 16.0251 0.641781 3.17886 0
M  V30 194 H 15.8101 2.41397 3.08982 0
M  V30 195 H 17.3001 1.72646 3.80241 0
M  V30 196 N 17.7372 -0.778329 1.37039 0
M  V30 197 C 18.7002 -1.87301 1.32102 0
M  V30 198 C 19.7002 -1.59198 0.226405 0
M  V30 199 O 20.8902 -1.67403 0.481861 0
M  V30 200 C 18.0222 -3.24309 1.05055 0
M  V30 201 H 19.2152 -1.93093 2.29467 0
M  V30 202 H 16.7682 -0.977358 1.21973 0
M  V30 203 H 17.5032 -3.24196 0.0819373 0
M  V30 204 H 17.2882 -3.46098 1.84279 0
M  V30 205 H 18.7782 -4.04382 1.04234 0
M  V30 206 N 19.2153 -1.21501 -1.00376 0
M  V30 207 C 20.6313 -0.972629 -1.26539 0
M  V30 208 C 20.8313 0.340257 -1.98606 0
M  V30 209 O 19.8873 1.06561 -2.28913 0
M  V30 210 C 21.2003 -2.16404 -2.08781 0
M  V30 211 C 22.7483 -2.20643 -2.22004 0
M  V30 212 C 23.2233 -3.39306 -3.07629 0
M  V30 213 N 24.7143 -3.39401 -3.15217 0
M  V30 214 C 25.4493 -4.27867 -3.81729 0
M  V30 215 N 24.9453 -5.26533 -4.5026 0
M  V30 216 N 26.7383 -4.15672 -3.78382 0
M  V30 217 H 18.8893 -2.05929 -0.520281 0
M  V30 218 H 21.1523 -0.901803 -0.292328 0
M  V30 219 H 20.8583 -3.11554 -1.63178 0
M  V30 220 H 20.7323 -2.15567 -3.09533 0
M  V30 221 H 23.1193 -1.26048 -2.66825 0
M  V30 222 H 23.2003 -2.25523 -1.20718 0
M  V30 223 H 22.8443 -4.34195 -2.63509 0
M  V30 224 H 22.7743 -3.31665 -4.09031 0
M  V30 225 H 25.2653 -2.67997 -2.66432 0
M  V30 226 H 25.5783 -5.90337 -4.98721 0
M  V30 227 H 23.9233 -5.30457 -4.49044 0
M  V30 228 H 27.1143 -3.3785 -3.23998 0
M  V30 229 H 27.2873 -4.84825 -4.2994 0
M  V30 230 N 20.6934 1.19889 -1.02296 0
M  V30 231 C 22.1044 1.71124 -0.746568 0
M  V30 232 C 22.4554 1.81939 0.734335 0
M  V30 233 O 21.5804 1.48639 1.57275 0
M  V30 234 C 22.1754 3.10804 -1.34857 0
M  V30 235 C 20.7344 3.59323 -1.1209 0
M  V30 236 C 19.8814 2.3635 -1.45031 0
M  V30 237 H 22.8324 1.04813 -1.19163 0
M  V30 238 H 22.8534 3.73186 -0.742437 0
M  V30 239 H 22.3654 3.029 -2.42638 0
M  V30 240 H 20.4664 3.7255 -0.0610337 0
M  V30 241 H 20.5794 4.4378 -1.80544 0
M  V30 242 H 18.9434 2.39399 -0.869487 0
M  V30 243 H 19.7264 2.31081 -2.53883 0
M  V30 244 N 22.1715 0.800033 1.35784 0
M  V30 245 C 23.3965 0.388511 2.03729 0
M  V30 246 C 23.8215 -0.990481 1.5991 0
M  V30 247 O 23.1795 -1.64013 0.772612 0
M  V30 248 C 23.2275 0.4726 3.5749 0
M  V30 249 O 22.3315 -0.51646 4.09153 0
M  V30 250 H 21.6725 0.163271 0.643614 0
M  V30 251 H 24.2025 1.0841 1.73518 0
M  V30 252 H 24.2125 0.34003 4.06581 0
M  V30 253 H 22.8875 1.47848 3.88734 0
M  V30 254 H 21.4645 -0.344673 3.71304 0
M  V30 255 N 23.6496 -1.47581 0.552962 0
M  V30 256 C 24.6126 -2.28439 -0.186605 0
M  V30 257 C 25.6126 -1.36706 -0.84665 0
M  V30 258 O 26.8026 -1.59378 -0.703164 0
M  V30 259 C 23.9346 -3.16264 -1.2724 0
M  V30 260 H 25.1276 -2.95294 0.523609 0
M  V30 261 H 22.6806 -1.532 0.309745 0
M  V30 262 H 23.4156 -2.54091 -2.01514 0
M  V30 263 H 23.2006 -3.83769 -0.803968 0
M  V30 264 H 24.6906 -3.77198 -1.79196 0
M  V30 265 N 25.1277 -0.289203 -1.54924 0
M  V30 266 C 26.3527 0.329299 -2.04769 0
M  V30 267 C 26.7777 1.4763 -1.16564 0
M  V30 268 O 26.1357 1.80527 -0.167186 0
M  V30 269 C 26.1837 0.774438 -3.52186 0
M  V30 270 O 25.2877 1.88038 -3.67036 0
M  V30 271 H 24.6287 0.0659259 -0.660719 0
M  V30 272 H 27.1587 -0.42761 -2.00082 0
M  V30 273 H 27.1687 1.06642 -3.93816 0
M  V30 274 H 25.8437 -0.0646707 -4.1585 0
M  V30 275 H 24.4207 1.58985 -3.3731 0
M  V30 276 N 26.6058 1.57591 -0.0167156 0
M  V30 277 C 27.5688 2.08393 0.954204 0
M  V30 278 C 28.5688 0.996531 1.26198 0
M  V30 279 O 29.7588 1.25858 1.20438 0
M  V30 280 C 26.8908 2.5394 2.27436 0
M  V30 281 H 28.0838 2.95455 0.514451 0
M  V30 282 H 25.6368 1.54582 0.231089 0
M  V30 283 H 26.3718 1.70171 2.76066 0
M  V30 284 H 26.1568 3.33371 2.06412 0
M  V30 285 H 27.6468 2.93512 2.97053 0
M  V30 286 N 28.0839 -0.256276 1.55502 0
M  V30 287 C 28.9939 -1.33882 1.92647 0
M  V30 288 C 30.0099 -1.53159 0.825727 0
M  V30 289 O 31.1859 -1.66963 1.12629 0
M  V30 290 C 28.2509 -2.6751 2.20543 0
M  V30 291 C 27.3119 -2.56836 3.43997 0
M  V30 292 C 26.5449 -3.84092 3.70553 0
M  V30 293 O 26.7679 -4.85545 2.99336 0
M  V30 294 O 25.7019 -3.83288 4.64084 0
M  V30 295 H 29.5279 -1.05374 2.84833 0
M  V30 296 H 27.1129 -0.456237 1.42263 0
M  V30 297 H 28.9949 -3.46492 2.39835 0
M  V30 298 H 27.6699 -2.9577 1.31536 0
M  V30 299 H 26.5769 -1.76172 3.30021 0
M  V30 300 H 27.9099 -2.33523 4.33275 0
M  V30 301 N 29.562 -1.4872 -0.521534 0
M  V30 302 C 30.787 -1.61101 -1.30618 0
M  V30 303 C 31.212 -0.274611 -1.86085 0
M  V30 304 O 30.57 0.754937 -1.64834 0
M  V30 305 C 30.618 -2.66709 -2.4269 0
M  V30 306 O 29.722 -2.24456 -3.45967 0
M  V30 307 H 29.063 -0.539921 -0.386499 0
M  V30 308 H 31.593 -1.94767 -0.626645 0
M  V30 309 H 31.603 -2.88245 -2.88754 0
M  V30 310 H 30.278 -3.63727 -2.01682 0
M  V30 311 H 28.855 -2.13168 -3.05964 0
M  V30 312 N 31.0401 0.771051 -1.3745 0
M  V30 313 C 31.9901 1.87456 -1.29785 0
M  V30 314 C 32.9741 1.59827 -0.185541 0
M  V30 315 O 34.1661 1.71945 -0.419997 0
M  V30 316 C 31.2951 3.24935 -1.1078 0
M  V30 317 C 30.3811 3.58514 -2.26558 0
M  V30 318 N 30.7721 3.6327 -3.5195 0
M  V30 319 C 29.0701 3.88683 -2.18727 0
M  V30 320 C 29.7711 3.93616 -4.283 0
M  V30 321 N 28.7471 4.09551 -3.57448 0
M  V30 322 H 32.5491 1.89386 -2.24745 0
M  V30 323 H 30.0631 0.967531 -1.30432 0
M  V30 324 H 32.0601 4.03881 -1.03374 0
M  V30 325 H 30.7201 3.24268 -0.16738 0
M  V30 326 H 31.7311 3.45458 -3.85848 0
M  V30 327 H 28.4081 3.95834 -1.32746 0
M  V30 328 H 29.7981 4.04066 -5.36824 0
M  V30 329 N 32.5182 1.22032 0.997298 0
M  V30 330 C 33.7642 1.05382 1.73972 0
M  V30 331 C 34.1192 -0.407419 1.88037 0
M  V30 332 O 33.4122 -1.29811 1.40924 0
M  V30 333 C 33.6062 1.69345 3.14733 0
M  V30 334 C 33.4352 3.21537 3.14395 0
M  V30 335 C 32.2052 3.9062 3.20537 0
M  V30 336 C 34.4032 4.18527 2.98897 0
M  V30 337 N 32.3852 5.29935 3.09906 0
M  V30 338 C 33.7562 5.44645 2.96247 0
M  V30 339 C 35.8112 4.09476 2.83255 0
M  V30 340 C 34.5142 6.62752 2.79557 0
M  V30 341 C 36.5402 5.27228 2.67926 0
M  V30 342 C 35.9022 6.52262 2.65959 0
M  V30 343 H 32.0012 0.440018 0.646458 0
M  V30 344 H 34.5852 1.54505 1.18475 0
M  V30 345 H 32.7562 1.22778 3.68484 0
M  V30 346 H 34.4882 1.45828 3.77513 0
M  V30 347 H 31.2432 3.41592 3.28043 0
M  V30 348 H 31.6672 6.02926 3.07912 0
M  V30 349 H 36.3092 3.13598 2.83577 0
M  V30 350 H 34.0272 7.58783 2.77982 0
M  V30 351 H 37.6132 5.22053 2.56812 0
M  V30 352 H 36.4932 7.41844 2.54239 0
M  V30 353 N 33.9963 -1.19345 1.0293 0
M  V30 354 C 35.2363 -1.90738 0.734727 0
M  V30 355 C 35.6003 -1.7785 -0.723414 0
M  V30 356 O 36.8013 -2.43844 -1.13108 0
M  V30 357 C 35.0723 -3.37569 1.17396 0
M  V30 358 S 36.6313 -4.27176 1.00329 0
M  V30 359 H 33.4493 -0.658771 0.267474 0
M  V30 360 H 36.0513 -1.4428 1.31922 0
M  V30 361 H 34.7553 -3.44475 2.23081 0
M  V30 362 H 34.2863 -3.8906 0.582772 0
M  V30 363 H 36.3013 -4.96126 -0.0859152 0
M  V30 364 N 35.4744 -0.807222 -1.35358 0
M  V30 365 C 36.7044 -0.399796 -2.02695 0
M  V30 366 C 37.1124 0.994176 -1.60974 0
M  V30 367 O 36.4554 1.65209 -0.803226 0
M  V30 368 C 36.5174 -0.404445 -3.57218 0
M  V30 369 C 36.1814 -1.74904 -4.22206 0
M  V30 370 C 37.1784 -2.70743 -4.4384 0
M  V30 371 C 34.8634 -2.03322 -4.5931 0
M  V30 372 C 36.8574 -3.93183 -5.01683 0
M  V30 373 C 34.5444 -3.26026 -5.16866 0
M  V30 374 C 35.5424 -4.20774 -5.37994 0
M  V30 375 O 35.2304 -5.41312 -5.94337 0
M  V30 376 H 34.9624 -0.160517 -0.656666 0
M  V30 377 H 37.5164 -1.09235 -1.73945 0
M  V30 378 H 35.7464 0.344707 -3.85161 0
M  V30 379 H 37.4354 -0.0192429 -4.05895 0
M  V30 380 H 38.2014 -2.5008 -4.15554 0
M  V30 381 H 34.0804 -1.30384 -4.42178 0
M  V30 382 H 37.6244 -4.6715 -5.1809 0
M  V30 383 H 33.5214 -3.46559 -5.44579 0
M  V30 384 H 34.2894 -5.42618 -6.12787 0
M  V30 385 N 36.9525 1.47285 -0.560781 0
M  V30 386 C 37.8625 2.33846 0.187954 0
M  V30 387 C 38.8785 1.48412 0.908293 0
M  V30 388 O 40.0545 1.81332 0.876388 0
M  V30 389 C 37.1195 3.25178 1.2025 0
M  V30 390 C 36.1805 4.26504 0.489208 0
M  V30 391 C 35.4135 5.13472 1.45542 0
M  V30 392 O 35.6365 5.02959 2.6905 0
M  V30 393 O 34.5705 5.93902 0.977963 0
M  V30 394 H 38.3965 2.99177 -0.522177 0
M  V30 395 H 35.9815 1.45903 -0.321364 0
M  V30 396 H 37.8635 3.81584 1.78805 0
M  V30 397 H 36.5385 2.6247 1.89449 0
M  V30 398 H 35.4455 3.73847 -0.137627 0
M  V30 399 H 36.7785 4.91935 -0.161399 0
M  V30 400 N 38.4306 0.297415 1.54768 0
M  V30 401 C 39.6766 -0.313376 2.00364 0
M  V30 402 C 40.0096 -1.53815 1.18553 0
M  V30 403 O 39.2846 -1.92739 0.261103 0
M  V30 404 C 39.5676 -0.673525 3.53745 0
M  V30 405 C 39.4206 0.560133 4.46299 0
M  V30 406 C 40.7396 -1.50143 4.13697 0
M  V30 407 H 37.8586 -0.112428 0.728374 0
M  V30 408 H 40.5006 0.4088 1.8555 0
M  V30 409 H 38.6506 -1.28881 3.665 0
M  V30 410 H 40.3226 1.19863 4.45455 0
M  V30 411 H 38.5656 1.19405 4.17043 0
M  V30 412 H 39.2366 0.26405 5.51368 0
M  V30 413 H 41.7126 -0.981588 4.04356 0
M  V30 414 H 40.5886 -1.72221 5.21182 0
M  V30 415 H 40.8496 -2.48952 3.65343 0
M  V30 416 N 39.9087 -1.5758 0.0250728 0
M  V30 417 C 40.8407 -2.06869 -0.986796 0
M  V30 418 C 41.8537 -0.991332 -1.29137 0
M  V30 419 O 43.0427 -1.26761 -1.25674 0
M  V30 420 C 40.1427 -2.47486 -2.31525 0
M  V30 421 C 39.3157 -3.78253 -2.19643 0
M  V30 422 C 38.3747 -4.05464 -3.35388 0
M  V30 423 O 37.4007 -4.75774 -3.12454 0
M  V30 424 N 38.6027 -3.55321 -4.59051 0
M  V30 425 H 41.3677 -2.94302 -0.566276 0
M  V30 426 H 38.9287 -1.6109 -0.161776 0
M  V30 427 H 40.9207 -2.62785 -3.07776 0
M  V30 428 H 39.4907 -1.65441 -2.65232 0
M  V30 429 H 38.7107 -3.7279 -1.28144 0
M  V30 430 H 39.9987 -4.63936 -2.08903 0
M  V30 431 H 39.3967 -2.98431 -4.80578 0
M  V30 432 H 37.9537 -3.75905 -5.32483 0
M  V30 433 N 41.3868 0.248026 -1.55636 0
M  V30 434 C 42.3498 1.29044 -1.89421 0
M  V30 435 C 43.3498 1.41134 -0.770581 0
M  V30 436 O 44.5398 1.39854 -1.03858 0
M  V30 437 C 41.6718 2.66831 -2.12165 0
M  V30 438 H 42.8648 1.00305 -2.82629 0
M  V30 439 H 40.4178 0.487265 -1.48511 0
M  V30 440 H 41.1528 3.00711 -1.21422 0
M  V30 441 H 40.9378 2.59438 -2.93997 0
M  V30 442 H 42.4278 3.42103 -2.3949 0
M  V30 443 N 42.8649 1.48995 0.513639 0
M  V30 444 C 43.7749 1.67443 1.64317 0
M  V30 445 C 44.7909 0.556947 1.64846 0
M  V30 446 O 45.9669 0.830082 1.83498 0
M  V30 447 C 43.0319 1.72515 3.00732 0
M  V30 448 C 42.0929 2.96009 3.1093 0
M  V30 449 C 41.3259 3.00829 4.40837 0
M  V30 450 O 41.5489 2.13594 5.28898 0
M  V30 451 O 40.4829 3.93168 4.55744 0
M  V30 452 H 44.3089 2.63106 1.51687 0
M  V30 453 H 41.8939 1.32588 0.688543 0
M  V30 454 H 43.7759 1.78277 3.81831 0
M  V30 455 H 42.4509 0.800278 3.13651 0
M  V30 456 H 41.3579 2.9577 2.29065 0
M  V30 457 H 42.6909 3.87934 3.02933 0
M  V30 458 N 44.343 -0.763751 1.37857 0
M  V30 459 C 45.568 -1.55805 1.36893 0
M  V30 460 C 45.993 -1.88054 -0.0416135 0
M  V30 461 O 45.351 -1.49825 -1.02089 0
M  V30 462 C 45.399 -2.84012 2.22192 0
M  V30 463 O 44.503 -3.78732 1.63204 0
M  V30 464 H 43.844 -0.471638 0.46739 0
M  V30 465 H 46.374 -0.944657 1.81487 0
M  V30 466 H 46.384 -3.33037 2.35691 0
M  V30 467 H 45.059 -2.59869 3.24716 0
M  V30 468 H 43.636 -3.37402 1.58791 0
M  V30 469 N 45.8211 -1.22559 -0.990812 0
M  V30 470 C 47.0461 -1.07862 -1.77145 0
M  V30 471 C 47.4711 0.366447 -1.84496 0
M  V30 472 O 46.8291 1.26478 -1.29896 0
M  V30 473 C 46.8771 -1.69686 -3.18181 0
M  V30 474 O 45.9811 -0.951946 -4.01263 0
M  V30 475 H 45.3221 -0.378712 -0.545411 0
M  V30 476 H 47.8521 -1.62399 -1.2445 0
M  V30 477 H 47.8621 -1.74496 -3.68802 0
M  V30 478 H 46.5371 -2.74841 -3.12146 0
M  V30 479 H 45.1141 -0.980011 -3.59792 0
M  V30 480 N 47.2992 1.18797 -1.03562 0
M  V30 481 C 48.2472 2.24297 -0.615905 0
M  V30 482 C 49.2412 1.65643 0.354808 0
M  V30 483 O 50.4472 1.78618 0.22265 0
M  V30 484 H 46.8222 0.729909 -0.180934 0
M  V30 485 H 48.7932 2.5701 -1.5162 0
M  V30 486 C 47.5422 3.47698 0.0104735 0
M  V30 487 H 46.8652 3.93125 -0.727509 0
M  V30 488 H 48.3052 4.23159 0.266995 0
M  V30 489 C 46.7642 3.12489 1.25905 0
M  V30 490 O 47.2942 3.25761 2.35038 0
M  V30 491 N 45.5002 2.6686 1.15039 0
M  V30 492 H 45.0472 2.56261 0.262328 0
M  V30 493 H 45.0052 2.43674 1.98672 0
M  V30 494 N 48.7773 0.814389 1.34928 0
M  V30 495 C 50.0073 0.41054 2.0248 0
M  V30 496 C 50.4153 -0.985625 1.61499 0
M  V30 497 O 49.7583 -1.64781 0.811976 0
M  V30 498 C 49.8203 0.423384 3.56998 0
M  V30 499 C 49.4843 1.77141 4.21272 0
M  V30 500 C 50.4813 2.73093 4.42398 0
M  V30 501 C 48.1663 2.05755 4.58225 0
M  V30 502 C 50.1603 3.95838 4.9959 0
M  V30 503 C 47.8473 3.28762 5.1513 0
M  V30 504 C 48.8453 4.23621 5.35755 0
M  V30 505 O 48.5333 5.44456 5.91458 0
M  V30 506 H 48.2653 0.163997 0.655806 0
M  V30 507 H 50.8193 1.10155 1.73364 0
M  V30 508 H 49.0493 -0.324276 3.85338 0
M  V30 509 H 50.7383 0.0407683 4.0588 0
M  V30 510 H 51.5043 2.5228 4.14222 0
M  V30 511 H 47.3833 1.32727 4.4148 0
M  V30 512 H 50.9273 4.69891 5.15605 0
M  V30 513 H 46.8243 3.49443 5.42734 0
M  V30 514 H 47.5923 5.4586 6.09901 0
M  V30 515 N 50.2554 -1.46986 0.568584 0
M  V30 516 C 51.6664 -1.86188 0.138219 0
M  V30 517 C 52.0174 -1.47388 -1.29504 0
M  V30 518 O 51.1424 -0.88219 -1.97602 0
M  V30 519 C 51.7374 -3.3792 0.244065 0
M  V30 520 C 50.2964 -3.76171 -0.131335 0
M  V30 521 C 49.4434 -2.71027 0.586465 0
M  V30 522 H 52.3944 -1.38342 0.777645 0
M  V30 523 H 52.4154 -3.76729 -0.534351 0
M  V30 524 H 51.9274 -3.66128 1.28731 0
M  V30 525 H 50.0284 -3.5358 -1.17526 0
M  V30 526 H 50.1414 -4.78523 0.235146 0
M  V30 527 H 48.5054 -2.54684 0.0282722 0
M  V30 528 H 49.2884 -3.02077 1.63109 0
M  V30 529 N 51.7335 -0.305618 -1.54608 0
M  V30 530 C 52.9735 0.303114 -2.0214 0
M  V30 531 C 53.3375 1.50737 -1.18921 0
M  V30 532 O 54.5385 2.18778 -1.56172 0
M  V30 533 C 52.8095 0.646332 -3.51507 0
M  V30 534 S 54.3685 1.23727 -4.20995 0
M  V30 535 H 51.1865 0.0927643 -0.704923 0
M  V30 536 H 53.7885 -0.434566 -1.90609 0
M  V30 537 H 52.4925 -0.238541 -4.09706 0
M  V30 538 H 52.0235 1.41468 -3.67084 0
M  V30 539 H 54.0385 2.52489 -4.27158 0
M  V30 540 N 53.2116 1.57565 -0.0334293 0
M  V30 541 C 54.1416 2.13511 0.945265 0
M  V30 542 C 55.1226 1.05231 1.33643 0
M  V30 543 O 56.3076 1.33084 1.41429 0
M  V30 544 C 53.4376 2.6657 2.22616 0
M  V30 545 C 52.3916 3.79676 1.97561 0
M  V30 546 C 51.7176 4.1918 3.31952 0
M  V30 547 C 53.0176 5.0557 1.31135 0
M  V30 548 H 54.7116 2.95538 0.479325 0
M  V30 549 H 52.2576 1.42166 0.229115 0
M  V30 550 H 54.2106 3.04344 2.91466 0
M  V30 551 H 52.9346 1.8171 2.71384 0
M  V30 552 H 51.5936 3.42347 1.31127 0
M  V30 553 H 51.2416 3.31296 3.78487 0
M  V30 554 H 50.9416 4.95402 3.15992 0
M  V30 555 H 52.4656 4.59541 4.02063 0
M  V30 556 H 53.8796 5.40903 1.89992 0
M  V30 557 H 52.2766 5.86818 1.25559 0
M  V30 558 H 53.3466 4.84062 0.284894 0
M  V30 559 N 54.6897 -0.239769 1.55765 0
M  V30 560 C 55.9357 -0.968234 1.78194 0
M  V30 561 C 56.2687 -1.84701 0.599938 0
M  V30 562 O 55.5437 -1.9031 -0.401524 0
M  V30 563 C 55.8267 -1.8227 3.10564 0
M  V30 564 C 55.6797 -0.971633 4.3918 0
M  V30 565 C 56.9987 -2.80388 3.39221 0
M  V30 566 H 54.1177 -0.350572 0.648281 0
M  V30 567 H 56.7597 -0.238259 1.885 0
M  V30 568 H 54.9097 -2.44507 3.01908 0
M  V30 569 H 56.5817 -0.367408 4.59835 0
M  V30 570 H 54.8247 -0.276276 4.32919 0
M  V30 571 H 55.4957 -1.60346 5.28198 0
M  V30 572 H 57.9717 -2.28287 3.47885 0
M  V30 573 H 56.8477 -3.3729 4.33044 0
M  V30 574 H 57.1087 -3.57212 2.60484 0
M  V30 575 N 56.1678 -1.49265 -0.50573 0
M  V30 576 C 57.5788 -1.51769 -1.08734 0
M  V30 577 C 57.9298 -0.301192 -1.93874 0
M  V30 578 O 57.0548 0.589456 -2.08217 0
M  V30 579 C 57.6498 -2.75017 -1.97867 0
M  V30 580 C 56.2088 -2.80314 -2.51199 0
M  V30 581 C 55.3558 -2.4562 -1.28709 0
M  V30 582 H 58.3068 -1.56031 -0.289855 0
M  V30 583 H 58.3278 -2.5491 -2.82491 0
M  V30 584 H 57.8398 -3.63539 -1.35873 0
M  V30 585 H 55.9408 -1.96061 -3.16845 0
M  V30 586 H 56.0538 -3.82366 -2.88675 0
M  V30 587 H 54.4178 -1.97297 -1.61078 0
M  V30 588 H 55.2008 -3.36411 -0.6843 0
M  V30 589 N 57.6459 0.756429 -1.3826 0
M  V30 590 C 58.8919 1.51772 -1.34511 0
M  V30 591 C 59.2249 1.94089 0.0656691 0
M  V30 592 O 58.4999 1.65221 1.02626 0
M  V30 593 C 58.7829 2.77226 -2.29821 0
M  V30 594 C 58.6359 2.41065 -3.79747 0
M  V30 595 C 59.9549 3.79236 -2.23312 0
M  V30 596 H 57.0739 0.550578 -0.489931 0
M  V30 597 H 59.7159 0.866607 -1.69086 0
M  V30 598 H 57.8659 3.32784 -2.00467 0
M  V30 599 H 59.5379 1.91303 -4.19763 0
M  V30 600 H 57.7809 1.7356 -3.97567 0
M  V30 601 H 58.4519 3.3081 -4.41892 0
M  V30 602 H 60.9279 3.3321 -2.49219 0
M  V30 603 H 59.8039 4.64714 -2.92116 0
M  V30 604 H 60.0649 4.24615 -1.23102 0
M  V30 605 N 59.124 1.23083 0.984299 0
M  V30 606 C 60.071 1.00854 2.07598 0
M  V30 607 C 61.041 -0.0726709 1.65941 0
M  V30 608 O 62.226 0.0786535 1.90638 0
M  V30 609 C 59.366 0.601645 3.39815 0
M  V30 610 C 58.479 1.75456 3.94765 0
M  V30 611 C 57.614 1.29482 5.15177 0
M  V30 612 C 56.653 2.41873 5.62284 0
M  V30 613 N 55.79 1.96885 6.73929 0
M  V30 614 H 60.63 1.943 2.25946 0
M  V30 615 H 58.167 0.968001 1.10762 0
M  V30 616 H 60.125 0.346854 4.15756 0
M  V30 617 H 58.755 -0.295803 3.21442 0
M  V30 618 H 57.807 2.12346 3.15616 0
M  V30 619 H 59.119 2.59965 4.25699 0
M  V30 620 H 58.273 0.997923 5.98437 0
M  V30 621 H 57.012 0.420046 4.85888 0
M  V30 622 H 56.017 2.72342 4.77608 0
M  V30 623 H 57.242 3.29881 5.93595 0
M  V30 624 H 55.188 1.11782 6.46406 0
M  V30 625 H 55.105 2.74956 7.04227 0
M  V30 626 H 56.373 1.70289 7.60672 0
M  V30 627 N 60.6021 -1.18246 1.0419 0
M  V30 628 C 61.8481 -1.88793 0.75689 0
M  V30 629 C 62.2031 -1.78909 -0.707767 0
M  V30 630 O 61.4961 -1.1794 -1.50999 0
M  V30 631 C 61.6901 -3.38082 1.15911 0
M  V30 632 C 61.5191 -3.62496 2.66133 0
M  V30 633 C 60.2891 -3.7979 3.33298 0
M  V30 634 C 62.4871 -3.62976 3.64353 0
M  V30 635 N 60.4691 -3.91955 4.72487 0
M  V30 636 C 61.8401 -3.80869 4.89222 0
M  V30 637 C 63.8951 -3.46071 3.57965 0
M  V30 638 C 62.5981 -3.83608 6.08471 0
M  V30 639 C 64.6241 -3.50093 4.76643 0
M  V30 640 C 63.9861 -3.68484 6.00332 0
M  V30 641 H 60.0851 -0.709406 0.32904 0
M  V30 642 H 62.6691 -1.42022 1.33183 0
M  V30 643 H 60.8401 -3.83544 0.612238 0
M  V30 644 H 62.5721 -3.96202 0.824989 0
M  V30 645 H 59.3271 -3.79224 2.83701 0
M  V30 646 H 59.7511 -4.01857 5.44831 0
M  V30 647 H 64.3931 -3.30797 2.63311 0
M  V30 648 H 62.1111 -3.97669 7.0348 0
M  V30 649 H 65.6971 -3.38285 4.73344 0
M  V30 650 H 64.5771 -3.71488 6.90627 0
M  V30 651 N 62.0802 -0.821533 -1.34494 0
M  V30 652 C 63.3282 -0.408139 -1.97936 0
M  V30 653 C 63.6492 1.03193 -1.65457 0
M  V30 654 O 62.9192 1.71622 -0.944595 0
M  V30 655 H 61.4992 -0.147928 -0.732206 0
M  V30 656 H 64.1612 -1.05067 -1.64155 0
M  V30 657 H 63.2572 -0.52601 -3.07635 0
M  V30 658 N 63.5583 1.46682 -0.576371 0
M  V30 659 C 64.8063 2.02013 -0.0594163 0
M  V30 660 C 65.1273 1.45101 1.30271 0
M  V30 661 O 64.3973 0.633317 1.8538 0
M  V30 662 H 62.9773 0.746759 -0.0189745 0
M  V30 663 H 65.6393 1.79862 -0.750717 0
M  V30 664 H 64.7353 3.12097 0.014345 0
M  V30 665 N 65.0364 0.313813 1.54444 0
M  V30 666 C 65.9844 -0.572171 2.25453 0
M  V30 667 C 66.9784 -1.12657 1.2651 0
M  V30 668 O 68.1844 -1.07573 1.44319 0
M  V30 669 H 64.5594 -0.203146 0.724041 0
M  V30 670 H 66.5304 0.0491145 2.9836 0
M  V30 671 C 65.2794 -1.72626 3.0182 0
M  V30 672 H 64.6024 -1.30891 3.77767 0
M  V30 673 H 66.0424 -2.32199 3.54767 0
M  V30 674 C 64.5014 -2.63806 2.09542 0
M  V30 675 O 65.0314 -3.65256 1.67185 0
M  V30 676 N 63.2374 -2.31824 1.75232 0
M  V30 677 H 62.7844 -1.49368 2.09873 0
M  V30 678 H 62.7424 -2.93095 1.13767 0
M  V30 679 N 66.5145 -1.57545 0.0417849 0
M  V30 680 C 67.7545 -1.94185 -0.63809 0
M  V30 681 C 68.1185 -0.919339 -1.68559 0
M  V30 682 O 69.3195 -1.17236 -2.41886 0
M  V30 683 C 67.5905 -3.35672 -1.22714 0
M  V30 684 S 69.1495 -3.94256 -1.92633 0
M  V30 685 H 65.9675 -0.679353 -0.209764 0
M  V30 686 H 68.5695 -1.95199 0.108479 0
M  V30 687 H 67.2735 -4.07898 -0.452503 0
M  V30 688 H 66.8045 -3.38132 -2.01073 0
M  V30 689 H 68.8195 -3.7872 -3.20602 0
M  V30 690 N 67.9926 0.231505 -1.5589 0
M  V30 691 C 68.9246 1.31006 -1.8807 0
M  V30 692 C 69.9376 1.43539 -0.768145 0
M  V30 693 O 71.1266 1.44614 -1.04638 0
M  V30 694 C 68.2266 2.68688 -2.06543 0
M  V30 695 C 67.3996 2.78228 -3.37502 0
M  V30 696 C 66.4586 3.96857 -3.4553 0
M  V30 697 O 65.4846 3.85662 -4.18633 0
M  V30 698 N 66.6866 5.1072 -2.75944 0
M  V30 699 H 69.4516 1.03731 -2.81176 0
M  V30 700 H 67.0126 0.421573 -1.56315 0
M  V30 701 H 69.0046 3.46412 -2.09239 0
M  V30 702 H 67.5746 2.88605 -1.20109 0
M  V30 703 H 66.7946 1.87059 -3.46991 0
M  V30 704 H 68.0826 2.81564 -4.23791 0
M  V30 705 H 67.4806 5.2271 -2.16311 0
M  V30 706 H 66.0376 5.86523 -2.84314 0
M  V30 707 N 69.4707 1.49531 0.497807 0
M  V30 708 C 70.4177 1.66436 1.59899 0
M  V30 709 C 71.3877 0.505793 1.58212 0
M  V30 710 O 72.5727 0.733202 1.7615 0
M  V30 711 C 69.7127 1.7399 2.98029 0
M  V30 712 C 68.8257 3.01172 3.09708 0
M  V30 713 C 67.9607 2.99686 4.38591 0
M  V30 714 C 66.9997 4.21434 4.43914 0
M  V30 715 N 66.1367 4.1784 5.64229 0
M  V30 716 H 70.9767 2.60459 1.44793 0
M  V30 717 H 68.5137 1.29137 0.704423 0
M  V30 718 H 70.4717 1.76352 3.78095 0
M  V30 719 H 69.1017 0.834301 3.11832 0
M  V30 720 H 68.1537 3.08408 2.22685 0
M  V30 721 H 69.4657 3.91165 3.09502 0
M  V30 722 H 68.6197 3.00628 5.2698 0
M  V30 723 H 67.3587 2.07477 4.41367 0
M  V30 724 H 66.3637 4.20733 3.53926 0
M  V30 725 H 67.5887 5.14839 4.42851 0
M  V30 726 H 65.5347 3.28469 5.67841 0
M  V30 727 H 65.4517 5.01571 5.65652 0
M  V30 728 H 66.7197 4.22889 6.54817 0
M  V30 729 N 70.9488 -0.749086 1.3866 0
M  V30 730 C 72.2258 -1.4992 1.25632 0
M  V30 731 C 72.6058 -2.10633 -0.140317 0
M  V30 732 O 71.9538 -1.97437 -1.15025 0
M  V30 733 C 72.1638 -2.56195 2.36992 0
M  V30 734 C 73.5118 -3.22972 2.75634 0
M  V30 735 O 74.5358 -2.66502 2.36337 0
M  V30 736 O 73.3948 -4.25122 3.43415 0
M  V30 737 H 70.4888 -0.665067 0.491544 0
M  V30 738 H 73.0348 -0.784113 1.50498 0
M  V30 739 H 71.8068 -2.09612 3.30422 0
M  V30 740 H 71.4298 -3.35279 2.13714 0
M  V30 741 N 72.4269 -1.23603 -0.977757 0
M  V30 742 C 73.8429 -0.999251 -1.24447 0
M  V30 743 C 74.0429 0.298053 -1.99283 0
M  V30 744 O 73.0989 1.01681 -2.31122 0
M  V30 745 C 74.4119 -2.20784 -2.04144 0
M  V30 746 C 75.9599 -2.25303 -2.17273 0
M  V30 747 C 76.4349 -3.45755 -3.00362 0
M  V30 748 N 77.9259 -3.4601 -3.07947 0
M  V30 749 C 78.6609 -4.35868 -3.72568 0
M  V30 750 N 78.1569 -5.35966 -4.38991 0
M  V30 751 N 79.9499 -4.23605 -3.6948 0
M  V30 752 H 72.1009 -2.06986 -0.476483 0
M  V30 753 H 74.3639 -0.907801 -0.273134 0
M  V30 754 H 74.0699 -3.14945 -1.56533 0
M  V30 755 H 73.9439 -2.22085 -3.04891 0
M  V30 756 H 76.3309 -1.3168 -2.64092 0
M  V30 757 H 76.4119 -2.28033 -1.15907 0
M  V30 758 H 76.0559 -4.39687 -2.5424 0
M  V30 759 H 75.9859 -3.40266 -4.01904 0
M  V30 760 H 78.4769 -2.73588 -2.60688 0
M  V30 761 H 78.7899 -6.00783 -4.86086 0
M  V30 762 H 77.1349 -5.39863 -4.37691 0
M  V30 763 H 80.3259 -3.44647 -3.16759 0
M  V30 764 H 80.4989 -4.93836 -4.1956 0
M  V30 765 N 73.905 1.17692 -1.04816 0
M  V30 766 C 74.837 2.21103 -0.603822 0
M  V30 767 C 75.85 1.59411 0.33046 0
M  V30 768 O 77.039 1.7807 0.12379 0
M  V30 769 C 74.139 3.38623 0.136898 0
M  V30 770 C 73.312 4.29888 -0.807137 0
M  V30 771 C 72.371 5.26088 -0.10836 0
M  V30 772 O 71.397 5.64353 -0.741232 0
M  V30 773 N 72.599 5.68882 1.15558 0
M  V30 774 H 75.364 2.59848 -1.49329 0
M  V30 775 H 72.925 1.32553 -0.929587 0
M  V30 776 H 74.917 4.00009 0.614401 0
M  V30 777 H 73.487 2.98508 0.927993 0
M  V30 778 H 72.707 3.65993 -1.46434 0
M  V30 779 H 73.995 4.87759 -1.44807 0
M  V30 780 H 73.393 5.39861 1.69015 0
M  V30 781 H 71.95 6.32429 1.57722 0
M  V30 782 N 75.3831 0.828654 1.34056 0
M  V30 783 C 76.6081 0.431637 2.02859 0
M  V30 784 C 77.0331 -0.956339 1.61975 0
M  V30 785 O 76.3911 -1.62338 0.807228 0
M  V30 786 C 76.4391 0.548323 3.56407 0
M  V30 787 O 75.5431 -0.429556 4.10157 0
M  V30 788 H 74.8841 0.176886 0.640006 0
M  V30 789 H 77.4141 1.12066 1.71179 0
M  V30 790 H 77.4241 0.426196 4.05768 0
M  V30 791 H 76.0991 1.5606 3.8551 0
M  V30 792 H 74.6761 -0.265836 3.71951 0
M  V30 793 N 76.8612 -1.46375 0.584142 0
M  V30 794 C 78.2722 -1.86031 0.157959 0
M  V30 795 C 78.6232 -1.48753 -1.27933 0
M  V30 796 O 77.7482 -0.903098 -1.96655 0
M  V30 797 C 78.3432 -3.37642 0.279892 0
M  V30 798 C 76.9022 -3.76289 -0.09143 0
M  V30 799 C 76.0492 -2.7039 0.615178 0
M  V30 800 H 79.0002 -1.37509 0.792274 0
M  V30 801 H 79.0212 -3.77275 -0.494364 0
M  V30 802 H 78.5332 -3.64742 1.32607 0
M  V30 803 H 76.6342 -3.54806 -1.13769 0
M  V30 804 H 76.7472 -4.78246 0.285886 0
M  V30 805 H 75.1112 -2.5464 0.0552833 0
M  V30 806 H 75.8942 -3.0033 1.66303 0
M  V30 807 N 78.3393 -0.321999 -1.54275 0
M  V30 808 C 79.5883 0.281931 -1.9972 0
M  V30 809 C 79.9013 1.53369 -1.21397 0
M  V30 810 O 81.1073 2.21352 -1.57211 0
M  V30 811 C 79.5633 0.5529 -3.55628 0
M  V30 812 C 79.1713 -0.681721 -4.42783 0
M  V30 813 C 80.9153 1.11687 -4.09544 0
M  V30 814 C 78.8223 -0.382742 -5.9016 0
M  V30 815 H 77.7523 0.109124 -0.746062 0
M  V30 816 H 80.4033 -0.43398 -1.78294 0
M  V30 817 H 78.7853 1.32896 -3.73035 0
M  V30 818 H 79.9593 -1.45723 -4.37151 0
M  V30 819 H 78.2743 -1.1658 -3.99748 0
M  V30 820 H 80.8713 1.35515 -5.17242 0
M  V30 821 H 81.2143 2.06575 -3.61431 0
M  V30 822 H 81.7473 0.402032 -3.95763 0
M  V30 823 H 78.4863 -1.30076 -6.42464 0
M  V30 824 H 78.0063 0.355094 -5.98748 0
M  V30 825 H 79.6853 0.00800157 -6.47 0
M  V30 826 N 79.8174 1.5752 -0.0501392 0
M  V30 827 C 80.7654 2.12651 0.942459 0
M  V30 828 C 81.7594 1.05807 1.32292 0
M  V30 829 O 82.9654 1.24217 1.3027 0
M  V30 830 H 79.3404 0.679673 0.321789 0
M  V30 831 H 81.3114 2.94951 0.452356 0
M  V30 832 C 80.0604 2.68565 2.20836 0
M  V30 833 H 79.3834 3.50439 1.92439 0
M  V30 834 H 80.8234 3.10761 2.8845 0
M  V30 835 C 79.2824 1.62291 2.95234 0
M  V30 836 O 79.8124 1.03508 3.88135 0
M  V30 837 N 78.0184 1.33836 2.57946 0
M  V30 838 H 77.5654 1.81826 1.82475 0
M  V30 839 H 77.5234 0.629595 3.08032 0
M  V30 840 N 81.2955 -0.223234 1.56011 0
M  V30 841 C 82.5445 -0.945912 1.78144 0
M  V30 842 C 82.8575 -1.85567 0.618396 0
M  V30 843 O 84.0635 -2.61688 0.723318 0
M  V30 844 C 82.5195 -1.73216 3.15475 0
M  V30 845 C 82.1275 -0.868619 4.39499 0
M  V30 846 C 83.8715 -2.44615 3.46935 0
M  V30 847 C 81.7785 -1.65212 5.67855 0
M  V30 848 H 80.7085 -0.356929 0.664167 0
M  V30 849 H 83.3595 -0.199845 1.82409 0
M  V30 850 H 81.7415 -2.52107 3.05382 0
M  V30 851 H 82.9155 -0.120366 4.60643 0
M  V30 852 H 81.2305 -0.26683 4.15544 0
M  V30 853 H 83.8275 -3.03732 4.40058 0
M  V30 854 H 84.1705 -3.17417 2.69355 0
M  V30 855 H 84.7035 -1.72715 3.58349 0
M  V30 856 H 81.4425 -0.967407 6.48322 0
M  V30 857 H 80.9625 -2.37503 5.50774 0
M  V30 858 H 82.6415 -2.21322 6.07968 0
M  V30 859 N 82.7736 -1.49793 -0.48987 0
M  V30 860 C 84.0196 -1.60078 -1.24511 0
M  V30 861 C 84.3526 -0.291608 -1.91998 0
M  V30 862 O 83.6276 0.705647 -1.81248 0
M  V30 863 C 83.9106 -2.76791 -2.30345 0
M  V30 864 C 83.7636 -4.17535 -1.67286 0
M  V30 865 C 85.0826 -2.89111 -3.31817 0
M  V30 866 H 82.2016 -0.582645 -0.451324 0
M  V30 867 H 84.8436 -1.82117 -0.541612 0
M  V30 868 H 82.9936 -2.5813 -2.90346 0
M  V30 869 H 84.6656 -4.4774 -1.11026 0
M  V30 870 H 82.9086 -4.22665 -0.976577 0
M  V30 871 H 83.5796 -4.95094 -2.44103 0
M  V30 872 H 86.0556 -3.06133 -2.81819 0
M  V30 873 H 84.9316 -3.72433 -4.03219 0
M  V30 874 H 85.1926 -1.9893 -3.94815 0
M  V30 875 N 84.2517 0.741722 -1.39055 0
M  V30 876 C 85.4797 1.53098 -1.39171 0
M  V30 877 C 85.8947 1.88794 0.0155099 0
M  V30 878 O 85.2517 1.53626 0.985159 0
M  V30 879 C 85.3027 2.82274 -2.2584 0
M  V30 880 O 85.0237 2.48097 -3.61081 0
M  V30 881 C 86.5247 3.76343 -2.34266 0
M  V30 882 H 83.7447 0.473335 -0.4756 0
M  V30 883 H 86.2887 0.917045 -1.82785 0
M  V30 884 H 84.4437 3.40015 -1.85656 0
M  V30 885 H 84.8577 3.31029 -4.06842 0
M  V30 886 H 86.3317 4.63898 -2.9917 0
M  V30 887 H 86.8087 4.17619 -1.35982 0
M  V30 888 H 87.4147 3.24523 -2.74891 0
M  V30 889 N 85.7298 1.2412 0.971189 0
M  V30 890 C 86.9578 1.10575 1.74874 0
M  V30 891 C 87.3728 -0.342017 1.85676 0
M  V30 892 O 86.7298 -1.23617 1.34258 0
M  V30 893 C 86.7808 1.73579 3.171 0
M  V30 894 O 86.5018 3.12695 3.06844 0
M  V30 895 C 88.0028 1.65598 4.11208 0
M  V30 896 H 85.2228 0.386504 0.548503 0
M  V30 897 H 87.7668 1.64156 1.21955 0
M  V30 898 H 85.9218 1.24009 3.67016 0
M  V30 899 H 86.3358 3.43412 3.96445 0
M  V30 900 H 87.8098 2.1437 5.08674 0
M  V30 901 H 88.2868 0.616532 4.34851 0
M  V30 902 H 88.8928 2.14578 3.67201 0
M  V30 903 N 87.2079 -1.17134 1.05439 0
M  V30 904 C 88.1549 -2.21235 0.657539 0
M  V30 905 C 89.1249 -1.62551 -0.341543 0
M  V30 906 O 90.3099 -1.89379 -0.232393 0
M  V30 907 C 87.4499 -3.45076 0.0410575 0
M  V30 908 C 86.5629 -4.18042 1.08927 0
M  V30 909 C 85.6979 -5.29376 0.439848 0
M  V30 910 C 84.7369 -5.94132 1.4722 0
M  V30 911 N 83.8739 -6.96975 0.846756 0
M  V30 912 H 88.7139 -2.54534 1.54972 0
M  V30 913 H 86.2509 -1.25028 0.775006 0
M  V30 914 H 88.2089 -4.15862 -0.33383 0
M  V30 915 H 86.8389 -3.12353 -0.814568 0
M  V30 916 H 85.8909 -3.45945 1.58196 0
M  V30 917 H 87.2029 -4.62306 1.87282 0
M  V30 918 H 86.3569 -6.06699 0.0115125 0
M  V30 919 H 85.0959 -4.86251 -0.375656 0
M  V30 920 H 84.1009 -5.15538 1.91052 0
M  V30 921 H 85.3259 -6.39337 2.28965 0
M  V30 922 H 83.2719 -6.5598 0.0518075 0
M  V30 923 H 83.1889 -7.39565 1.5678 0
M  V30 924 H 84.4569 -7.78239 0.443277 0
M  V30 925 N 88.686 -0.835752 -1.33615 0
M  V30 926 C 89.649 -0.272 -2.2758 0
M  V30 927 C 90.649 0.557487 -1.50827 0
M  V30 928 O 91.839 0.37173 -1.70188 0
M  V30 929 C 88.971 0.617173 -3.35267 0
M  V30 930 H 90.164 -1.10111 -2.78954 0
M  V30 931 H 87.717 -0.608594 -1.43965 0
M  V30 932 H 88.452 1.46884 -2.89129 0
M  V30 933 H 88.237 0.0237066 -3.92093 0
M  V30 934 H 89.727 1.005 -4.05326 0
M  V30 935 N 90.1641 1.46063 -0.591896 0
M  V30 936 C 91.1111 2.30399 0.136069 0
M  V30 937 C 92.0811 1.41169 0.875238 0
M  V30 938 O 93.2661 1.70112 0.86409 0
M  V30 939 C 90.4061 3.25804 1.13781 0
M  V30 940 C 89.5191 4.30134 0.401137 0
M  V30 941 C 88.6541 5.12659 1.39121 0
M  V30 942 C 87.6931 6.0873 0.641462 0
M  V30 943 N 86.8301 6.8409 1.58004 0
M  V30 944 H 91.6701 2.92118 -0.589144 0
M  V30 945 H 89.2071 1.43959 -0.302342 0
M  V30 946 H 91.1651 3.79569 1.73156 0
M  V30 947 H 89.7951 2.65872 1.83062 0
M  V30 948 H 88.8471 3.79152 -0.307826 0
M  V30 949 H 90.1591 4.98458 -0.184565 0
M  V30 950 H 89.3131 5.70747 2.05749 0
M  V30 951 H 88.0521 4.44316 2.01084 0
M  V30 952 H 87.0571 5.49786 -0.0385419 0
M  V30 953 H 88.2821 6.79095 0.0270945 0
M  V30 954 H 86.2281 6.18449 2.18761 0
M  V30 955 H 86.1451 7.48709 1.04738 0
M  V30 956 H 87.4131 7.4673 2.23639 0
M  V30 957 N 91.6422 0.330177 1.54103 0
M  V30 958 C 92.8882 -0.270806 2.00984 0
M  V30 959 C 93.2212 -1.51265 1.21789 0
M  V30 960 O 92.4962 -1.92142 0.301927 0
M  V30 961 C 92.7792 -0.598339 3.55094 0
M  V30 962 C 92.6322 0.654674 4.4501 0
M  V30 963 C 93.9512 -1.41334 4.16789 0
M  V30 964 H 91.0702 -0.0969531 0.730595 0
M  V30 965 H 93.7122 0.448066 1.84641 0
M  V30 966 H 91.8622 -1.21078 3.69151 0
M  V30 967 H 93.5342 1.29285 4.42813 0
M  V30 968 H 91.7772 1.28224 4.14416 0
M  V30 969 H 92.4482 0.380944 5.50684 0
M  V30 970 H 94.9242 -0.895597 4.06347 0
M  V30 971 H 93.8002 -1.61127 5.24718 0
M  V30 972 H 94.0612 -2.41146 3.70541 0
M  V30 973 N 93.1203 -1.57491 0.0584922 0
M  V30 974 C 94.3973 -1.84346 -0.653918 0
M  V30 975 C 94.7773 -0.948355 -1.88599 0
M  V30 976 O 94.1253 -0.0112403 -2.28497 0
M  V30 977 C 94.3353 -3.34239 -1.00425 0
M  V30 978 C 95.6833 -4.01431 -1.38342 0
M  V30 979 O 96.7073 -3.38907 -1.09637 0
M  V30 980 O 95.5663 -5.11683 -1.91943 0
M  V30 981 H 92.6603 -0.761112 -0.323478 0
M  V30 982 H 95.2063 -1.6947 0.0884125 0
M  V30 983 H 93.9783 -3.91089 -0.128625 0
M  V30 984 H 93.6013 -3.54329 -1.80378 0
M  V30 985 N 94.5984 0.214957 -1.56127 0
M  V30 986 C 95.5454 1.26642 -1.92952 0
M  V30 987 C 96.5154 1.46244 -0.78753 0
M  V30 988 O 97.7004 1.59704 -1.04399 0
M  V30 989 C 94.8404 2.6104 -2.25726 0
M  V30 990 C 93.9534 2.49183 -3.52891 0
M  V30 991 C 93.0884 3.76149 -3.7508 0
M  V30 992 C 92.1274 3.59041 -4.95738 0
M  V30 993 N 91.2644 4.77972 -5.14283 0
M  V30 994 H 96.1044 0.945384 -2.82607 0
M  V30 995 H 93.6414 0.455489 -1.3987 0
M  V30 996 H 95.5994 3.39313 -2.42739 0
M  V30 997 H 94.2294 2.91227 -1.39236 0
M  V30 998 H 93.2814 1.6231 -3.44034 0
M  V30 999 H 94.5934 2.32466 -4.41318 0
M  V30 1000 H 93.7474 4.62865 -3.92226 0
M  V30 1001 H 92.4864 3.95799 -2.84947 0
M  V30 1002 H 91.4914 2.7071 -4.78535 0
M  V30 1003 H 92.7164 3.40856 -5.87362 0
M  V30 1004 H 90.6624 4.97923 -4.27093 0
M  V30 1005 H 90.5794 4.64006 -5.96853 0
M  V30 1006 H 91.8474 5.66096 -5.35869 0
M  V30 1007 N 96.0765 1.50051 0.48192 0
M  V30 1008 C 97.0235 1.68122 1.58125 0
M  V30 1009 C 97.9935 0.522545 1.57666 0
M  V30 1010 O 99.1785 0.751844 1.75362 0
M  V30 1011 C 96.3185 1.77142 2.96167 0
M  V30 1012 C 95.4315 3.0444 3.06497 0
M  V30 1013 C 94.5665 3.04321 4.35387 0
M  V30 1014 C 93.6055 4.26118 4.3942 0
M  V30 1015 N 92.7425 4.238 5.59766 0
M  V30 1016 H 97.5825 2.6198 1.42022 0
M  V30 1017 H 95.1195 1.29877 0.690687 0
M  V30 1018 H 97.0775 1.80352 3.76203 0
M  V30 1019 H 95.7075 0.867329 3.1093 0
M  V30 1020 H 94.7595 3.10752 2.19402 0
M  V30 1021 H 96.0715 3.94426 3.05336 0
M  V30 1022 H 95.2255 3.062 5.23762 0
M  V30 1023 H 93.9645 2.12147 4.39141 0
M  V30 1024 H 92.9695 4.24463 3.49444 0
M  V30 1025 H 94.1945 5.19507 4.37366 0
M  V30 1026 H 92.1405 3.34474 5.64326 0
M  V30 1027 H 92.0575 5.07542 5.60301 0
M  V30 1028 H 93.3255 4.2981 6.50295 0
M  V30 1029 N 97.5546 -0.734337 1.39446 0
M  V30 1030 C 98.4846 -1.86155 1.40955 0
M  V30 1031 C 99.4656 -1.67898 0.272827 0
M  V30 1032 O 100.651 -1.88207 0.478743 0
M  V30 1033 C 97.7806 -3.23912 1.25294 0
M  V30 1034 C 96.7346 -3.56808 2.36373 0
M  V30 1035 C 96.0606 -4.93508 2.058 0
M  V30 1036 C 97.3606 -3.59713 3.78687 0
M  V30 1037 H 99.0546 -1.8515 2.35287 0
M  V30 1038 H 96.6006 -0.889367 1.13253 0
M  V30 1039 H 98.5536 -4.02443 1.2497 0
M  V30 1040 H 97.2776 -3.25446 0.274308 0
M  V30 1041 H 95.9366 -2.80606 2.35914 0
M  V30 1042 H 95.5846 -4.91623 1.06374 0
M  V30 1043 H 95.2846 -5.16486 2.80208 0
M  V30 1044 H 96.8086 -5.74396 2.07128 0
M  V30 1045 H 98.2226 -4.2832 3.81071 0
M  V30 1046 H 96.6196 -3.94209 4.52459 0
M  V30 1047 H 97.6896 -2.59504 4.09617 0
M  V30 1048 N 99.0327 -1.24633 -0.964593 0
M  V30 1049 C 100.281 -1.08573 -1.70459 0
M  V30 1050 C 100.602 0.375655 -1.91347 0
M  V30 1051 O 99.8717 1.26779 -1.49345 0
M  V30 1052 H 98.4517 -0.398784 -0.631649 0
M  V30 1053 H 101.114 -1.56601 -1.16026 0
M  V30 1054 H 100.21 -1.58623 -2.68785 0
M  V30 1055 N 100.511 1.16574 -1.06058 0
M  V30 1056 C 101.927 1.3904 -0.783585 0
M  V30 1057 C 102.127 1.91784 0.618145 0
M  V30 1058 O 101.183 2.11511 1.37911 0
M  V30 1059 C 102.496 2.37329 -1.84649 0
M  V30 1060 C 104.044 2.51018 -1.86973 0
M  V30 1061 C 104.519 3.52588 -2.92311 0
M  V30 1062 N 106.01 3.60113 -2.91329 0
M  V30 1063 C 106.745 4.38486 -3.69482 0
M  V30 1064 N 106.241 5.20302 -4.57447 0
M  V30 1065 N 108.034 4.33446 -3.57885 0
M  V30 1066 H 100.185 0.806725 -1.96483 0
M  V30 1067 H 102.448 0.417117 -0.851303 0
M  V30 1068 H 102.154 2.05663 -2.85299 0
M  V30 1069 H 102.028 3.36946 -1.6955 0
M  V30 1070 H 104.415 2.81989 -0.869827 0
M  V30 1071 H 104.496 1.51445 -2.0615 0
M  V30 1072 H 104.14 3.22354 -3.92492 0
M  V30 1073 H 104.07 4.51886 -2.70383 0
M  V30 1074 H 106.561 3.01707 -2.27555 0
M  V30 1075 H 106.874 5.77311 -5.13743 0
M  V30 1076 H 105.219 5.19653 -4.61503 0
M  V30 1077 H 108.41 3.68586 -2.88551 0
M  V30 1078 H 108.583 4.94279 -4.19037 0
M  V30 1079 N 101.989 0.842826 1.3317 0
M  V30 1080 C 103.236 0.440447 1.97652 0
M  V30 1081 C 103.564 -1.00123 1.6675 0
M  V30 1082 O 102.819 -1.7155 0.941761 0
M  V30 1083 C 103.118 0.612607 3.52111 0
M  V30 1084 C 102.784 2.02297 4.02972 0
M  V30 1085 C 101.446 2.40874 4.16573 0
M  V30 1086 C 103.798 2.94402 4.30089 0
M  V30 1087 C 101.126 3.70852 4.54627 0
M  V30 1088 C 103.478 4.23865 4.69597 0
M  V30 1089 C 102.142 4.62392 4.81404 0
M  V30 1090 H 101.412 0.161171 0.72326 0
M  V30 1091 H 104.059 1.07061 1.58777 0
M  V30 1092 H 102.364 -0.100849 3.9167 0
M  V30 1093 H 104.061 0.2815 4.00011 0
M  V30 1094 H 100.651 1.71338 3.92863 0
M  V30 1095 H 104.835 2.65835 4.19101 0
M  V30 1096 H 100.091 4.00501 4.61962 0
M  V30 1097 H 104.265 4.95306 4.89536 0
M  V30 1098 H 101.892 5.63154 5.10648 0
M  V30 1099 N 103.467 -1.45747 0.599634 0
M  V30 1100 C 104.714 -2.02292 0.0917284 0
M  V30 1101 C 105.042 -1.46906 -1.27472 0
M  V30 1102 O 104.297 -0.630652 -1.8526 0
M  V30 1103 C 104.596 -3.57399 -0.00602758 0
M  V30 1104 C 104.262 -4.31902 1.29503 0
M  V30 1105 C 102.924 -4.51974 1.65144 0
M  V30 1106 C 105.276 -4.74551 2.15525 0
M  V30 1107 C 102.604 -5.11949 2.86574 0
M  V30 1108 C 104.956 -5.35868 3.36196 0
M  V30 1109 C 103.62 -5.54165 3.72099 0
M  V30 1110 H 102.89 -0.740239 0.0335658 0
M  V30 1111 H 105.537 -1.7491 0.779661 0
M  V30 1112 H 103.842 -3.84014 -0.777183 0
M  V30 1113 H 105.539 -3.98846 -0.415038 0
M  V30 1114 H 102.129 -4.16588 1.00761 0
M  V30 1115 H 106.313 -4.58784 1.8929 0
M  V30 1116 H 101.569 -5.24305 3.14507 0
M  V30 1117 H 105.743 -5.6787 4.03109 0
M  V30 1118 H 103.37 -6.00406 4.6628 0
M  V30 1119 N 104.945 -0.338344 -1.53925 0
M  V30 1120 C 106.192 0.259758 -2.00827 0
M  V30 1121 C 106.52 1.50973 -1.22628 0
M  V30 1122 O 105.775 1.93379 -0.300509 0
M  V30 1123 C 106.074 0.62448 -3.51902 0
M  V30 1124 C 105.74 -0.528006 -4.47798 0
M  V30 1125 C 104.402 -0.844298 -4.73735 0
M  V30 1126 C 106.754 -1.30143 -5.0469 0
M  V30 1127 C 104.082 -1.93648 -5.53821 0
M  V30 1128 C 106.434 -2.38382 -5.85967 0
M  V30 1129 C 105.098 -2.70576 -6.10201 0
M  V30 1130 H 104.368 0.0950523 -0.734878 0
M  V30 1131 H 107.015 -0.465182 -1.85764 0
M  V30 1132 H 105.32 1.43006 -3.64769 0
M  V30 1133 H 107.017 1.09905 -3.85645 0
M  V30 1134 H 103.607 -0.271421 -4.2774 0
M  V30 1135 H 107.791 -1.07033 -4.84621 0
M  V30 1136 H 103.047 -2.19021 -5.70824 0
M  V30 1137 H 107.221 -2.98746 -6.29066 0
M  V30 1138 H 104.848 -3.55333 -6.72044 0
M  V30 1139 N 106.423 1.57458 -0.0668435 0
M  V30 1140 C 107.648 1.9804 0.616027 0
M  V30 1141 C 108.073 0.944771 1.62652 0
M  V30 1142 O 107.431 -0.0902094 1.81075 0
M  V30 1143 C 107.479 3.37665 1.26549 0
M  V30 1144 O 106.583 3.36701 2.38131 0
M  V30 1145 H 105.924 0.644719 0.158849 0
M  V30 1146 H 108.454 2.04121 -0.139891 0
M  V30 1147 H 108.464 3.7474 1.6135 0
M  V30 1148 H 107.139 4.12573 0.525016 0
M  V30 1149 H 105.716 3.1139 2.0516 0
M  V30 1150 N 107.901 -0.206675 1.56239 0
M  V30 1151 C 109.149 -0.927007 1.79586 0
M  V30 1152 C 109.47 -1.8427 0.637929 0
M  V30 1153 O 108.74 -1.92849 -0.344398 0
M  V30 1154 H 107.32 -0.345292 0.662407 0
M  V30 1155 H 109.982 -0.21496 1.93711 0
M  V30 1156 H 109.078 -1.52501 2.72305 0
M  V30 1157 N 109.379 -1.50304 -0.473955 0
M  V30 1158 C 110.609 -1.64663 -1.24778 0
M  V30 1159 C 111.017 -0.328174 -1.86332 0
M  V30 1160 O 110.36 0.699536 -1.69859 0
M  V30 1161 C 110.422 -2.6778 -2.39863 0
M  V30 1162 C 110.086 -4.11413 -1.98969 0
M  V30 1163 C 111.083 -4.97372 -1.51385 0
M  V30 1164 C 108.768 -4.57312 -2.07777 0
M  V30 1165 C 110.762 -6.27277 -1.13148 0
M  V30 1166 C 108.449 -5.87223 -1.69152 0
M  V30 1167 C 109.447 -6.72031 -1.21915 0
M  V30 1168 O 109.135 -7.99518 -0.838237 0
M  V30 1169 H 108.867 -0.556602 -0.383627 0
M  V30 1170 H 111.421 -1.9726 -0.572491 0
M  V30 1171 H 109.651 -2.30419 -3.10554 0
M  V30 1172 H 111.34 -2.71388 -3.01833 0
M  V30 1173 H 112.106 -4.63128 -1.44004 0
M  V30 1174 H 107.985 -3.91449 -2.43493 0
M  V30 1175 H 111.529 -6.93425 -0.762077 0
M  V30 1176 H 107.426 -6.20989 -1.76191 0
M  V30 1177 H 108.194 -8.12764 -0.967339 0
M  V30 1178 N 110.857 0.726932 -1.39834 0
M  V30 1179 C 112.134 1.47902 -1.28001 0
M  V30 1180 C 112.514 2.1083 0.106789 0
M  V30 1181 O 111.862 1.99242 1.11869 0
M  V30 1182 C 112.072 2.52392 -2.41038 0
M  V30 1183 C 113.42 3.18546 -2.80737 0
M  V30 1184 O 114.444 2.62708 -2.40547 0
M  V30 1185 O 113.303 4.19604 -3.50135 0
M  V30 1186 H 110.397 0.657163 -0.502062 0
M  V30 1187 H 112.943 0.760071 -1.51727 0
M  V30 1188 H 111.715 2.04329 -3.33715 0
M  V30 1189 H 111.338 3.31837 -2.19021 0
M  V30 1190 N 112.336 1.25143 0.95797 0
M  V30 1191 C 113.283 1.05235 2.05412 0
M  V30 1192 C 114.253 -0.0374561 1.66058 0
M  V30 1193 O 115.438 0.119073 1.90428 0
M  V30 1194 C 112.578 0.673589 3.38462 0
M  V30 1195 C 111.691 1.8379 3.90954 0
M  V30 1196 C 110.826 1.40381 5.12315 0
M  V30 1197 C 109.865 2.53746 5.57027 0
M  V30 1198 N 109.002 2.11136 6.69601 0
M  V30 1199 H 113.842 1.99048 2.21774 0
M  V30 1200 H 111.379 0.991277 1.08683 0
M  V30 1201 H 113.337 0.434964 4.14926 0
M  V30 1202 H 111.967 -0.227554 3.21997 0
M  V30 1203 H 111.019 2.18992 3.11041 0
M  V30 1204 H 112.331 2.68937 4.20089 0
M  V30 1205 H 111.485 1.12464 5.96185 0
M  V30 1206 H 110.224 0.523015 4.84887 0
M  V30 1207 H 109.229 2.82412 4.71724 0
M  V30 1208 H 110.454 3.42398 5.86464 0
M  V30 1209 H 108.4 1.25468 6.4389 0
M  V30 1210 H 108.317 2.89832 6.98236 0
M  V30 1211 H 109.585 1.86385 7.56889 0
M  V30 1212 N 113.814 -1.1601 1.06675 0
M  V30 1213 C 114.761 -2.20525 0.680967 0
M  V30 1214 C 115.731 -1.62904 -0.324283 0
M  V30 1215 O 116.916 -1.89615 -0.212294 0
M  V30 1216 C 114.056 -3.45013 0.0776551 0
M  V30 1217 C 113.169 -4.16863 1.13355 0
M  V30 1218 C 112.304 -5.2888 0.49597 0
M  V30 1219 C 111.343 -5.92537 1.53513 0
M  V30 1220 N 110.48 -6.96038 0.920631 0
M  V30 1221 H 115.32 -2.52876 1.57663 0
M  V30 1222 H 112.857 -1.24199 0.788223 0
M  V30 1223 H 114.815 -4.16193 -0.289704 0
M  V30 1224 H 113.445 -3.132 -0.781393 0
M  V30 1225 H 112.497 -3.44248 1.61857 0
M  V30 1226 H 113.809 -4.60294 1.92174 0
M  V30 1227 H 112.963 -6.06653 0.0758604 0
M  V30 1228 H 111.702 -4.86622 -0.324062 0
M  V30 1229 H 110.707 -5.13482 1.9651 0
M  V30 1230 H 111.932 -6.36873 2.35733 0
M  V30 1231 H 109.878 -6.55888 0.12138 0
M  V30 1232 H 109.795 -7.3786 1.64616 0
M  V30 1233 H 111.063 -7.77725 0.525795 0
M  V30 1234 N 115.292 -0.849877 -1.32721 0
M  V30 1235 C 116.224 -0.248332 -2.27851 0
M  V30 1236 C 117.237 0.577218 -1.52224 0
M  V30 1237 O 118.426 0.402489 -1.73903 0
M  V30 1238 C 115.526 0.668107 -3.32249 0
M  V30 1239 C 114.699 -0.120534 -4.37234 0
M  V30 1240 C 113.758 0.720932 -5.21238 0
M  V30 1241 O 112.784 0.156166 -5.68986 0
M  V30 1242 N 113.986 2.03647 -5.43607 0
M  V30 1243 H 116.751 -1.06575 -2.80111 0
M  V30 1244 H 114.312 -0.709395 -1.45531 0
M  V30 1245 H 116.304 1.23627 -3.85355 0
M  V30 1246 H 114.874 1.38621 -2.80184 0
M  V30 1247 H 114.094 -0.870108 -3.84477 0
M  V30 1248 H 115.382 -0.662406 -5.0447 0
M  V30 1249 H 114.78 2.51871 -5.06535 0
M  V30 1250 H 113.337 2.55287 -5.99727 0
M  V30 1251 N 116.77 1.45427 -0.607355 0
M  V30 1252 C 117.998 2.06614 -0.108814 0
M  V30 1253 C 118.413 1.45204 1.2067 0
M  V30 1254 O 117.77 0.566132 1.73497 0
M  V30 1255 C 117.821 3.61481 0.0375347 0
M  V30 1256 O 117.542 4.20598 -1.22593 0
M  V30 1257 C 119.043 4.39652 0.567561 0
M  V30 1258 H 116.263 0.66747 -0.0687351 0
M  V30 1259 H 118.807 1.86675 -0.835022 0
M  V30 1260 H 116.962 3.80762 0.714068 0
M  V30 1261 H 117.376 5.1377 -1.05547 0
M  V30 1262 H 118.85 5.48518 0.61905 0
M  V30 1263 H 119.327 4.09417 1.58978 0
M  V30 1264 H 119.933 4.25234 -0.0749202 0
M  V30 1265 N 118.248 0.346503 1.53744 0
M  V30 1266 C 119.494 -0.242135 2.01954 0
M  V30 1267 C 119.849 -1.47962 1.22984 0
M  V30 1268 O 119.142 -1.89077 0.309924 0
M  V30 1269 C 119.336 -0.605809 3.52228 0
M  V30 1270 C 119.165 0.594882 4.45748 0
M  V30 1271 C 117.935 1.1011 4.93157 0
M  V30 1272 C 120.133 1.45425 4.93311 0
M  V30 1273 N 118.115 2.26381 5.70636 0
M  V30 1274 C 119.486 2.46383 5.68942 0
M  V30 1275 C 121.541 1.47935 4.75415 0
M  V30 1276 C 120.244 3.49684 6.28581 0
M  V30 1277 C 122.27 2.50119 5.35905 0
M  V30 1278 C 121.632 3.49803 6.11406 0
M  V30 1279 H 117.731 -0.0518296 0.780281 0
M  V30 1280 H 120.315 0.486736 1.88518 0
M  V30 1281 H 118.486 -1.30378 3.65864 0
M  V30 1282 H 120.218 -1.17789 3.87179 0
M  V30 1283 H 116.973 0.668721 4.68855 0
M  V30 1284 H 117.397 2.85094 6.14044 0
M  V30 1285 H 122.039 0.722274 4.16585 0
M  V30 1286 H 119.757 4.26285 6.86518 0
M  V30 1287 H 123.343 2.52892 5.23963 0
M  V30 1288 H 122.223 4.27576 6.5738 0
M  V30 1289 N 119.726 -1.57421 0.075193 0
M  V30 1290 C 120.954 -1.97946 -0.602076 0
M  V30 1291 C 121.369 -0.953674 -1.62943 0
M  V30 1292 O 120.726 0.0592551 -1.82404 0
M  V30 1293 C 120.777 -3.38546 -1.26762 0
M  V30 1294 O 120.498 -4.37195 -0.281376 0
M  V30 1295 C 121.999 -3.93966 -2.03239 0
M  V30 1296 H 119.219 -0.650918 -0.162931 0
M  V30 1297 H 121.763 -2.03959 0.148601 0
M  V30 1298 H 119.918 -3.33609 -1.96936 0
M  V30 1299 H 120.332 -5.18975 -0.759267 0
M  V30 1300 H 121.806 -4.94555 -2.45193 0
M  V30 1301 H 122.283 -3.30693 -2.8903 0
M  V30 1302 H 122.889 -4.02315 -1.37924 0
M  V30 1303 N 121.204 0.198386 -1.56346 0
M  V30 1304 C 122.45 0.920648 -1.80698 0
M  V30 1305 C 122.783 1.83045 -0.648697 0
M  V30 1306 O 122.058 1.91308 0.350925 0
M  V30 1307 C 122.341 1.73971 -3.15287 0
M  V30 1308 C 122.194 0.85485 -4.41602 0
M  V30 1309 C 123.513 2.71296 -3.46535 0
M  V30 1310 H 120.632 0.333261 -0.657348 0
M  V30 1311 H 123.274 0.188198 -1.89066 0
M  V30 1312 H 121.424 2.36416 -3.08285 0
M  V30 1313 H 123.096 0.245362 -4.60647 0
M  V30 1314 H 121.339 0.161398 -4.335 0
M  V30 1315 H 122.01 1.46286 -5.32264 0
M  V30 1316 H 124.486 2.18983 -3.53816 0
M  V30 1317 H 123.362 3.2569 -4.41834 0
M  V30 1318 H 123.623 3.5018 -2.69864 0
M  V30 1319 N 122.682 1.50554 0.465978 0
M  V30 1320 C 123.614 1.65949 1.58093 0
M  V30 1321 C 124.627 0.540827 1.53554 0
M  V30 1322 O 125.816 0.814187 1.5885 0
M  V30 1323 C 122.916 1.63261 2.96983 0
M  V30 1324 C 122.089 2.91245 3.26336 0
M  V30 1325 C 121.148 2.8113 4.44806 0
M  V30 1326 O 120.174 3.55086 4.44862 0
M  V30 1327 N 121.376 1.95032 5.46756 0
M  V30 1328 H 124.141 2.62122 1.45301 0
M  V30 1329 H 121.702 1.48082 0.65448 0
M  V30 1330 H 123.694 1.54101 3.74212 0
M  V30 1331 H 122.264 0.748032 3.03518 0
M  V30 1332 H 121.484 3.14493 2.37672 0
M  V30 1333 H 122.772 3.76022 3.42761 0
M  V30 1334 H 122.17 1.3427 5.49534 0
M  V30 1335 H 120.727 1.91772 6.2295 0
M  V30 1336 N 124.16 -0.719506 1.40217 0
M  V30 1337 C 125.108 -1.85493 1.40339 0
M  V30 1338 C 126.102 -1.66995 0.284415 0
M  V30 1339 O 127.308 -1.74148 0.455252 0
M  V30 1340 H 123.683 -0.610857 0.438586 0
M  V30 1341 H 125.654 -1.82506 2.36081 0
M  V30 1342 C 124.403 -3.23321 1.27901 0
M  V30 1343 H 123.726 -3.38159 2.1328 0
M  V30 1344 H 125.166 -4.02914 1.32045 0
M  V30 1345 C 123.625 -3.36898 -0.0111355 0
M  V30 1346 O 124.155 -3.89674 -0.975538 0
M  V30 1347 N 122.361 -2.90492 -0.0793393 0
M  V30 1348 H 121.908 -2.47731 0.706183 0
M  V30 1349 H 121.866 -2.99955 -0.942038 0
M  V30 1350 N 125.638 -1.25649 -0.95132 0
M  V30 1351 C 126.586 -1.06118 -2.06982 0
M  V30 1352 C 127.58 0.00889169 -1.69398 0
M  V30 1353 O 128.786 -0.146988 -1.79399 0
M  V30 1354 H 125.161 -0.326248 -0.677544 0
M  V30 1355 H 127.132 -2.00932 -2.2061 0
M  V30 1356 C 125.881 -0.700145 -3.40578 0
M  V30 1357 H 125.204 -1.51537 -3.69968 0
M  V30 1358 H 126.644 -0.603211 -4.19687 0
M  V30 1359 C 125.103 0.59403 -3.31622 0
M  V30 1360 O 125.633 1.63522 -3.66911 0
M  V30 1361 N 123.839 0.58089 -2.84735 0
M  V30 1362 H 123.386 -0.266783 -2.56215 0
M  V30 1363 H 123.344 1.44695 -2.79125 0
M  V30 1364 N 127.117 1.15442 -1.07289 0
M  V30 1365 C 128.365 1.85845 -0.794096 0
M  V30 1366 C 128.686 1.82692 0.681809 0
M  V30 1367 O 127.956 1.26741 1.49377 0
M  V30 1368 H 126.536 0.688089 -0.290763 0
M  V30 1369 H 129.198 1.39947 -1.3565 0
M  V30 1370 H 128.294 2.91001 -1.12804 0
M  V30 1371 N 128.595 0.856903 1.32268 0
M  V30 1372 C 129.545 0.274899 2.26337 0
M  V30 1373 C 130.529 -0.580543 1.50062 0
M  V30 1374 O 131.721 -0.429559 1.71708 0
M  V30 1375 C 128.85 -0.533841 3.39124 0
M  V30 1376 C 127.936 0.334114 4.22782 0
M  V30 1377 N 128.327 1.42143 4.85416 0
M  V30 1378 C 126.625 0.124256 4.45827 0
M  V30 1379 C 127.326 1.95559 5.47843 0
M  V30 1380 N 126.302 1.25444 5.28928 0
M  V30 1381 H 130.104 1.10612 2.72291 0
M  V30 1382 H 127.618 0.703258 1.46383 0
M  V30 1383 H 129.615 -0.96722 4.05525 0
M  V30 1384 H 128.275 -1.36283 2.94715 0
M  V30 1385 H 129.286 1.80436 4.85451 0
M  V30 1386 H 125.963 -0.669837 4.12092 0
M  V30 1387 H 127.353 2.86714 6.07655 0
M  V30 1388 N 130.073 -1.45103 0.615059 0
M  V30 1389 C 131.298 -2.07064 0.117988 0
M  V30 1390 C 131.723 -1.4554 -1.19163 0
M  V30 1391 O 131.081 -0.550855 -1.72729 0
M  V30 1392 C 131.129 -3.606 -0.000288387 0
M  V30 1393 O 130.233 -3.98847 -1.04856 0
M  V30 1394 H 129.574 -0.659467 0.0774581 0
M  V30 1395 H 132.104 -1.86236 0.847186 0
M  V30 1396 H 132.114 -4.07529 -0.196091 0
M  V30 1397 H 130.789 -4.04765 0.955932 0
M  V30 1398 H 129.366 -3.63577 -0.828619 0
M  V30 1399 N 131.551 -0.354651 -1.53558 0
M  V30 1400 C 132.797 0.238797 -2.01389 0
M  V30 1401 C 133.13 1.49309 -1.2418 0
M  V30 1402 O 132.405 1.91638 -0.332457 0
M  V30 1403 C 132.688 0.541771 -3.56001 0
M  V30 1404 C 132.541 -0.725388 -4.43912 0
M  V30 1405 C 133.86 1.34685 -4.18984 0
M  V30 1406 H 130.979 0.0853177 -0.732045 0
M  V30 1407 H 133.621 -0.477384 -1.83905 0
M  V30 1408 H 131.771 1.15189 -3.71031 0
M  V30 1409 H 133.443 -1.36313 -4.407 0
M  V30 1410 H 131.686 -1.34801 -4.12324 0
M  V30 1411 H 132.357 -0.468505 -5.50008 0
M  V30 1412 H 134.833 0.830837 -4.07721 0
M  V30 1413 H 133.709 1.52759 -5.27215 0
M  V30 1414 H 133.97 2.35221 -3.74331 0
M  V30 1415 N 133.029 1.57378 -0.0835403 0
M  V30 1416 C 133.962 2.09016 0.915833 0
M  V30 1417 C 134.94 0.997993 1.2837 0
M  V30 1418 O 136.124 1.27219 1.39096 0
M  V30 1419 C 133.251 2.55757 2.22049 0
M  V30 1420 C 132.297 3.76522 2.00333 0
M  V30 1421 S 133.13 5.20661 1.25191 0
M  V30 1422 C 134.286 5.70743 2.56912 0
M  V30 1423 H 134.519 2.93457 0.476492 0
M  V30 1424 H 132.052 1.53856 0.129493 0
M  V30 1425 H 134.01 2.83346 2.97027 0
M  V30 1426 H 132.671 1.71564 2.63106 0
M  V30 1427 H 131.864 4.07256 2.96916 0
M  V30 1428 H 131.466 3.49367 1.33488 0
M  V30 1429 H 133.758 5.78304 3.52946 0
M  V30 1430 H 134.701 6.6944 2.30772 0
M  V30 1431 H 135.109 4.98616 2.64655 0
M  V30 1432 N 134.507 -0.190092 1.56449 0
M  V30 1433 C 135.44 -1.26375 1.90012 0
M  V30 1434 C 136.418 -1.43705 0.760765 0
M  V30 1435 O 137.602 -1.59014 1.01226 0
M  V30 1436 C 134.729 -2.62962 2.13468 0
M  V30 1437 C 133.775 -2.62474 3.36169 0
M  V30 1438 S 134.608 -2.13412 4.91137 0
M  V30 1439 C 135.764 -3.51812 5.17667 0
M  V30 1440 H 135.997 -0.977181 2.80782 0
M  V30 1441 H 133.53 -0.393814 1.49293 0
M  V30 1442 H 135.488 -3.41583 2.27664 0
M  V30 1443 H 134.149 -2.88828 1.23439 0
M  V30 1444 H 133.342 -3.62918 3.49723 0
M  V30 1445 H 132.944 -1.91937 3.20992 0
M  V30 1446 H 135.236 -4.47706 5.08494 0
M  V30 1447 H 136.179 -3.43148 6.19399 0
M  V30 1448 H 136.587 -3.46956 4.45288 0
M  V30 1449 N 135.985 -1.50799 -0.457987 0
M  V30 1450 C 136.915 -1.73553 -1.5621 0
M  V30 1451 C 137.896 -0.584774 -1.59732 0
M  V30 1452 O 139.081 -0.825314 -1.7579 0
M  V30 1453 C 136.211 -1.84169 -2.94447 0
M  V30 1454 C 135.165 -2.99461 -3.0579 0
M  V30 1455 C 134.491 -2.95235 -4.45803 0
M  V30 1456 C 135.791 -4.39766 -2.81786 0
M  V30 1457 H 137.485 -2.66 -1.37421 0
M  V30 1458 H 135.031 -1.28002 -0.659662 0
M  V30 1459 H 136.984 -1.98672 -3.71628 0
M  V30 1460 H 135.708 -0.883545 -3.14422 0
M  V30 1461 H 134.367 -2.8463 -2.31044 0
M  V30 1462 H 134.015 -1.97239 -4.62715 0
M  V30 1463 H 133.715 -3.72642 -4.54326 0
M  V30 1464 H 135.239 -3.11803 -5.24987 0
M  V30 1465 H 136.653 -4.55054 -3.4871 0
M  V30 1466 H 135.05 -5.18722 -3.0174 0
M  V30 1467 H 136.12 -4.51229 -1.7754 0
M  V30 1468 N 137.463 0.71206 -1.40597 0
M  V30 1469 C 138.393 1.83889 -1.43899 0
M  V30 1470 C 139.374 1.67442 -0.299504 0
M  V30 1471 O 140.559 1.87421 -0.508624 0
M  V30 1472 C 137.689 3.21877 -1.30431 0
M  V30 1473 C 136.643 3.53002 -2.42019 0
M  V30 1474 C 135.969 4.90172 -2.13626 0
M  V30 1475 C 137.269 3.53643 -3.84362 0
M  V30 1476 H 138.963 1.81383 -2.38203 0
M  V30 1477 H 136.509 0.871237 -1.14654 0
M  V30 1478 H 138.462 4.00404 -1.31357 0
M  V30 1479 H 137.186 3.24968 -0.326049 0
M  V30 1480 H 135.845 2.76818 -2.40349 0
M  V30 1481 H 135.493 4.89869 -1.14182 0
M  V30 1482 H 135.193 5.11962 -2.88389 0
M  V30 1483 H 136.717 5.71028 -2.1624 0
M  V30 1484 H 138.131 4.22203 -3.87837 0
M  V30 1485 H 136.528 3.86961 -4.58673 0
M  V30 1486 H 137.598 2.52954 -4.13693 0
M  V30 1487 N 138.941 1.26152 0.944643 0
M  V30 1488 C 139.851 1.09176 2.07648 0
M  V30 1489 C 140.867 0.0261935 1.7398 0
M  V30 1490 O 142.043 0.229208 2.00091 0
M  V30 1491 C 139.108 0.722915 3.39079 0
M  V30 1492 C 138.169 1.86752 3.86552 0
M  V30 1493 C 137.402 1.51617 5.11711 0
M  V30 1494 O 137.625 0.416331 5.68879 0
M  V30 1495 O 136.559 2.34975 5.54139 0
M  V30 1496 H 140.385 2.0412 2.24875 0
M  V30 1497 H 137.97 1.05182 1.061 0
M  V30 1498 H 139.852 0.529787 4.18056 0
M  V30 1499 H 138.527 -0.197159 3.23099 0
M  V30 1500 H 137.434 2.11558 3.08535 0
M  V30 1501 H 138.767 2.76719 4.07047 0
M  V30 1502 N 140.419 -1.14872 1.07899 0
M  V30 1503 C 141.367 -2.21857 0.698727 0
M  V30 1504 C 142.361 -1.66845 -0.293086 0
M  V30 1505 O 143.567 -1.79321 -0.156204 0
M  V30 1506 H 139.942 -0.722691 0.207899 0
M  V30 1507 H 141.913 -2.51205 1.61054 0
M  V30 1508 C 140.662 -3.47498 0.11858 0
M  V30 1509 H 139.985 -3.90154 0.872914 0
M  V30 1510 H 141.425 -4.23858 -0.109759 0
M  V30 1511 C 139.884 -3.16947 -1.1422 0
M  V30 1512 O 140.414 -3.3426 -2.22785 0
M  V30 1513 N 138.62 -2.70946 -1.05055 0
M  V30 1514 H 138.167 -2.57058 -0.167038 0
M  V30 1515 H 138.125 -2.50879 -1.89491 0
M  V30 1516 N 141.898 -0.863906 -1.31812 0
M  V30 1517 C 142.845 -0.313303 -2.28664 0
M  V30 1518 C 143.815 0.584868 -1.55462 0
M  V30 1519 O 145 0.517805 -1.83639 0
M  V30 1520 C 142.14 0.48441 -3.41683 0
M  V30 1521 C 141.253 -0.440594 -4.29747 0
M  V30 1522 C 140.388 0.370652 -5.29905 0
M  V30 1523 C 139.427 -0.551164 -6.09613 0
M  V30 1524 N 138.564 0.223462 -7.01744 0
M  V30 1525 H 143.404 -1.14444 -2.75148 0
M  V30 1526 H 140.941 -0.575769 -1.35364 0
M  V30 1527 H 142.899 0.962627 -4.05943 0
M  V30 1528 H 141.529 1.28029 -2.96325 0
M  V30 1529 H 140.581 -1.03724 -3.65986 0
M  V30 1530 H 141.893 -1.14767 -4.85417 0
M  V30 1531 H 141.047 0.911638 -5.99812 0
M  V30 1532 H 139.786 1.11105 -4.74876 0
M  V30 1533 H 138.791 -1.10396 -5.38603 0
M  V30 1534 H 140.016 -1.29032 -6.66729 0
M  V30 1535 H 137.962 0.946787 -6.49132 0
M  V30 1536 H 137.879 -0.424399 -7.54808 0
M  V30 1537 H 139.147 0.745876 -7.75923 0
M  V30 1538 N 143.376 1.44774 -0.622745 0
M  V30 1539 C 144.339 2.29069 0.0774015 0
M  V30 1540 C 145.339 1.4059 0.780461 0
M  V30 1541 O 146.529 1.62551 0.626322 0
M  V30 1542 C 143.661 3.21974 1.12006 0
M  V30 1543 H 144.854 2.92459 -0.663901 0
M  V30 1544 H 142.407 1.51548 -0.382486 0
M  V30 1545 H 143.142 2.63417 1.89162 0
M  V30 1546 H 142.927 3.87168 0.619951 0
M  V30 1547 H 144.417 3.85318 1.60995 0
M  V30 1548 N 144.854 0.36279 1.53368 0
M  V30 1549 C 146.079 -0.231226 2.06107 0
M  V30 1550 C 146.504 -1.419 1.23474 0
M  V30 1551 O 145.862 -1.79524 0.253128 0
M  V30 1552 C 145.91 -0.605523 3.5548 0
M  V30 1553 O 145.014 -1.70312 3.7559 0
M  V30 1554 H 144.355 -0.034327 0.663112 0
M  V30 1555 H 146.885 0.522584 1.97814 0
M  V30 1556 H 146.895 -0.877314 3.98456 0
M  V30 1557 H 145.57 0.263004 4.15068 0
M  V30 1558 H 144.147 -1.4271 3.44512 0
M  V30 1559 N 146.332 -1.57332 0.0918853 0
M  V30 1560 C 147.581 -1.93412 -0.572249 0
M  V30 1561 C 147.894 -0.975515 -1.69538 0
M  V30 1562 O 149.1 -1.22991 -2.42045 0
M  V30 1563 C 147.556 -3.43648 -1.0693 0
M  V30 1564 C 147.164 -4.47994 0.0239049 0
M  V30 1565 C 148.908 -3.88695 -1.70635 0
M  V30 1566 C 146.815 -5.89381 -0.488319 0
M  V30 1567 H 145.745 -0.721939 -0.217532 0
M  V30 1568 H 148.396 -1.82735 0.167369 0
M  V30 1569 H 146.778 -3.49466 -1.8625 0
M  V30 1570 H 147.952 -4.53815 0.799277 0
M  V30 1571 H 146.267 -4.12536 0.565946 0
M  V30 1572 H 148.864 -4.91725 -2.10025 0
M  V30 1573 H 149.207 -3.27166 -2.57426 0
M  V30 1574 H 149.74 -3.85564 -0.979023 0
M  V30 1575 H 146.479 -6.54602 0.342906 0
M  V30 1576 H 145.999 -5.87037 -1.23077 0
M  V30 1577 H 147.678 -6.39863 -0.958317 0
M  V30 1578 N 147.81 0.181792 -1.56548 0
M  V30 1579 C 149.035 0.920019 -1.85877 0
M  V30 1580 C 149.46 1.75494 -0.677021 0
M  V30 1581 O 148.818 1.77399 0.374056 0
M  V30 1582 C 148.866 1.78112 -3.13542 0
M  V30 1583 O 147.97 2.88152 -2.95029 0
M  V30 1584 H 147.311 0.258334 -0.611686 0
M  V30 1585 H 149.841 0.183092 -2.03779 0
M  V30 1586 H 149.851 2.18314 -3.44678 0
M  V30 1587 H 148.526 1.16777 -3.99169 0
M  V30 1588 H 147.103 2.51609 -2.75222 0
M  V30 1589 N 149.288 1.51039 0.449983 0
M  V30 1590 C 150.536 1.62759 1.19808 0
M  V30 1591 C 150.857 0.339981 1.92013 0
M  V30 1592 O 150.127 -0.643606 1.85026 0
M  V30 1593 H 148.707 0.599811 0.445237 0
M  V30 1594 H 151.369 1.87914 0.517138 0
M  V30 1595 H 150.465 2.44911 1.93455 0
M  V30 1596 N 150.766 -0.704594 1.40972 0
M  V30 1597 C 152.014 -1.46169 1.39568 0
M  V30 1598 C 152.335 -1.95 0.00253745 0
M  V30 1599 O 151.605 -1.71095 -0.954114 0
M  V30 1600 H 150.185 -0.542326 0.513704 0
M  V30 1601 H 152.847 -0.834553 1.76128 0
M  V30 1602 H 151.943 -2.32922 2.07735 0
M  V30 1603 N 152.244 -1.26651 -0.937939 0
M  V30 1604 C 153.492 -1.12165 -1.68118 0
M  V30 1605 C 153.813 0.334983 -1.92101 0
M  V30 1606 O 153.083 1.23583 -1.52 0
M  V30 1607 H 151.663 -0.412093 -0.623048 0
M  V30 1608 H 154.325 -1.59027 -1.12678 0
M  V30 1609 H 153.421 -1.64289 -2.6536 0
M  V30 1610 N 153.722 1.14298 -1.08507 0
M  V30 1611 C 154.652 2.21542 -0.737646 0
M  V30 1612 C 155.633 1.67773 0.280377 0
M  V30 1613 O 156.818 1.93616 0.150521 0
M  V30 1614 C 153.948 3.46988 -0.147259 0
M  V30 1615 C 152.902 4.13789 -1.09374 0
M  V30 1616 C 152.228 5.33449 -0.365524 0
M  V30 1617 C 153.528 4.62208 -2.4323 0
M  V30 1618 H 155.222 2.5086 -1.6343 0
M  V30 1619 H 152.768 1.20576 -0.787243 0
M  V30 1620 H 154.721 4.21262 0.107808 0
M  V30 1621 H 153.445 3.17037 0.784538 0
M  V30 1622 H 152.104 3.4147 -1.33393 0
M  V30 1623 H 151.752 4.99759 0.57011 0
M  V30 1624 H 151.452 5.79088 -0.996512 0
M  V30 1625 H 152.976 6.10485 -0.118534 0
M  V30 1626 H 154.39 5.27952 -2.23472 0
M  V30 1627 H 152.787 5.18553 -3.02031 0
M  V30 1628 H 153.857 3.77224 -3.04681 0
M  V30 1629 N 155.201 0.870884 1.31352 0
M  V30 1630 C 156.612 0.534714 1.78879 0
M  V30 1631 C 156.963 -0.948423 1.71754 0
M  V30 1632 O 156.088 -1.74055 1.28584 0
M  V30 1633 C 156.683 0.963839 3.24801 0
M  V30 1634 C 155.242 0.679311 3.70219 0
M  V30 1635 C 154.389 1.15465 2.52117 0
M  V30 1636 H 157.34 1.05651 1.18421 0
M  V30 1637 H 157.361 0.286892 3.79417 0
M  V30 1638 H 156.873 2.04332 3.29955 0
M  V30 1639 H 154.974 -0.388769 3.70566 0
M  V30 1640 H 155.087 1.25698 4.62317 0
M  V30 1641 H 153.451 0.574383 2.48139 0
M  V30 1642 H 154.234 2.24157 2.60016 0
M  V30 1643 N 156.679 -1.44442 0.630414 0
M  V30 1644 C 157.642 -2.29107 -0.0652523 0
M  V30 1645 C 158.642 -1.41002 -0.772995 0
M  V30 1646 O 159.832 -1.62881 -0.617692 0
M  V30 1647 C 156.964 -3.22564 -1.10296 0
M  V30 1648 H 158.157 -2.92103 0.679401 0
M  V30 1649 H 155.71 -1.51343 0.390517 0
M  V30 1650 H 156.445 -2.64416 -1.87762 0
M  V30 1651 H 156.23 -3.87491 -0.59941 0
M  V30 1652 H 157.72 -3.86167 -1.5895 0
M  V30 1653 N 158.157 -0.370918 -1.53173 0
M  V30 1654 C 159.568 0.107139 -1.86392 0
M  V30 1655 C 159.919 1.47714 -1.29132 0
M  V30 1656 O 159.044 2.07464 -0.615439 0
M  V30 1657 C 159.639 0.201187 -3.38202 0
M  V30 1658 C 158.198 0.623507 -3.712 0
M  V30 1659 C 157.345 -0.225978 -2.76378 0
M  V30 1660 H 160.296 -0.58951 -1.47345 0
M  V30 1661 H 160.317 1.02377 -3.66468 0
M  V30 1662 H 159.829 -0.796058 -3.79848 0
M  V30 1663 H 157.93 1.62879 -3.35114 0
M  V30 1664 H 158.043 0.394414 -4.77474 0
M  V30 1665 H 156.407 0.305962 -2.52856 0
M  V30 1666 H 157.19 -1.22086 -3.20858 0
M  V30 1667 N 159.635 1.57281 -0.100228 0
M  V30 1668 C 160.865 1.98591 0.569681 0
M  V30 1669 C 161.273 0.978315 1.61943 0
M  V30 1670 O 160.616 -0.0396108 1.83657 0
M  V30 1671 C 160.678 3.36282 1.271 0
M  V30 1672 C 160.342 4.55488 0.371409 0
M  V30 1673 C 161.339 5.18491 -0.382504 0
M  V30 1674 C 159.024 5.01474 0.287965 0
M  V30 1675 C 161.018 6.25852 -1.20779 0
M  V30 1676 C 158.705 6.08701 -0.540965 0
M  V30 1677 C 159.703 6.70755 -1.28749 0
M  V30 1678 O 159.391 7.75914 -2.10269 0
M  V30 1679 H 159.123 0.65752 0.156982 0
M  V30 1680 H 161.677 2.0463 -0.177734 0
M  V30 1681 H 159.907 3.26941 2.0651 0
M  V30 1682 H 161.596 3.62005 1.83595 0
M  V30 1683 H 162.362 4.83891 -0.3278 0
M  V30 1684 H 158.241 4.52932 0.858689 0
M  V30 1685 H 161.785 6.74218 -1.79096 0
M  V30 1686 H 157.682 6.42732 -0.597131 0
M  V30 1687 H 158.45 7.92925 -2.03007 0
M  V30 1688 N 161.113 -0.173488 1.56642 0
M  V30 1689 C 162.045 -1.23935 1.92802 0
M  V30 1690 C 163.058 -1.40589 0.820889 0
M  V30 1691 O 164.247 -1.40631 1.09933 0
M  V30 1692 C 161.347 -2.60837 2.16373 0
M  V30 1693 C 160.52 -2.6551 3.47596 0
M  V30 1694 C 159.579 -3.8376 3.60021 0
M  V30 1695 O 158.605 -3.69859 4.32658 0
M  V30 1696 N 159.807 -5.00127 2.94709 0
M  V30 1697 H 162.572 -0.932236 2.84832 0
M  V30 1698 H 160.133 -0.363268 1.57772 0
M  V30 1699 H 162.125 -3.38407 2.21952 0
M  V30 1700 H 160.695 -2.83948 1.30738 0
M  V30 1701 H 159.915 -1.74052 3.53694 0
M  V30 1702 H 161.203 -2.65641 4.33949 0
M  V30 1703 H 160.601 -5.14322 2.35563 0
M  V30 1704 H 159.158 -5.75567 3.05886 0
M  V30 1705 N 162.591 -1.51276 -0.441967 0
M  V30 1706 C 163.554 -1.7167 -1.51862 0
M  V30 1707 C 164.554 -0.586793 -1.49711 0
M  V30 1708 O 165.744 -0.854276 -1.51815 0
M  V30 1709 C 162.876 -1.76889 -2.91416 0
M  V30 1710 H 164.069 -2.67754 -1.35084 0
M  V30 1711 H 161.622 -1.41196 -0.670333 0
M  V30 1712 H 162.357 -0.826026 -3.13604 0
M  V30 1713 H 162.142 -2.59001 -2.94382 0
M  V30 1714 H 163.632 -1.94522 -3.69528 0
M  V30 1715 N 164.069 0.697108 -1.41344 0
M  V30 1716 C 165.016 1.81106 -1.43071 0
M  V30 1717 C 165.986 1.63632 -0.285275 0
M  V30 1718 O 167.171 1.84504 -0.486091 0
M  V30 1719 C 164.311 3.18975 -1.31715 0
M  V30 1720 C 163.424 3.47892 -2.56115 0
M  V30 1721 C 162.559 4.75367 -2.37064 0
M  V30 1722 C 161.598 4.97247 -3.56948 0
M  V30 1723 N 160.735 6.15947 -3.36977 0
M  V30 1724 H 165.575 1.78965 -2.38276 0
M  V30 1725 H 163.112 0.873975 -1.18322 0
M  V30 1726 H 165.07 3.98615 -1.23133 0
M  V30 1727 H 163.7 3.20297 -0.401183 0
M  V30 1728 H 162.752 2.62669 -2.75153 0
M  V30 1729 H 164.064 3.59962 -3.45295 0
M  V30 1730 H 163.218 5.63059 -2.25941 0
M  V30 1731 H 161.957 4.65541 -1.45338 0
M  V30 1732 H 160.962 4.08004 -3.68527 0
M  V30 1733 H 162.187 5.08934 -4.49626 0
M  V30 1734 H 160.133 6.07336 -2.47949 0
M  V30 1735 H 160.05 6.28777 -4.19732 0
M  V30 1736 H 161.318 7.06377 -3.29623 0
M  V30 1737 N 165.547 1.27147 0.931209 0
M  V30 1738 C 166.479 1.05364 2.03546 0
M  V30 1739 C 167.492 0.0108438 1.62796 0
M  V30 1740 O 168.681 0.25202 1.76712 0
M  V30 1741 C 165.781 0.575566 3.33977 0
M  V30 1742 C 164.954 1.68985 4.03439 0
M  V30 1743 C 164.013 1.20813 5.12143 0
M  V30 1744 O 163.039 1.90712 5.363 0
M  V30 1745 N 164.241 0.0618851 5.80467 0
M  V30 1746 H 167.006 2.00454 2.22796 0
M  V30 1747 H 164.567 1.18666 1.10136 0
M  V30 1748 H 166.559 0.237264 4.04004 0
M  V30 1749 H 165.129 -0.282016 3.11325 0
M  V30 1750 H 164.349 2.19861 3.27192 0
M  V30 1751 H 165.637 2.4378 4.46597 0
M  V30 1752 H 165.035 -0.521621 5.6329 0
M  V30 1753 H 163.592 -0.217264 6.51438 0
M  V30 1754 N 167.025 -1.13721 1.09112 0
M  V30 1755 C 167.955 -2.21148 0.749385 0
M  V30 1756 C 168.936 -1.6792 -0.271475 0
M  V30 1757 O 170.121 -1.93693 -0.140251 0
M  V30 1758 C 167.251 -3.46905 0.165659 0
M  V30 1759 C 166.205 -4.13203 1.11567 0
M  V30 1760 C 165.531 -5.33248 0.393809 0
M  V30 1761 C 166.831 -4.60912 2.45678 0
M  V30 1762 H 168.525 -2.4999 1.64758 0
M  V30 1763 H 166.071 -1.20156 0.793626 0
M  V30 1764 H 168.024 -4.21313 -0.085466 0
M  V30 1765 H 166.748 -3.17449 -0.767714 0
M  V30 1766 H 165.407 -3.40758 1.35202 0
M  V30 1767 H 165.055 -5.00054 -0.543599 0
M  V30 1768 H 164.755 -5.78552 1.02721 0
M  V30 1769 H 166.279 -6.10413 0.150908 0
M  V30 1770 H 167.693 -5.26759 2.26269 0
M  V30 1771 H 166.09 -5.16944 3.04776 0
M  V30 1772 H 167.16 -3.75603 3.06677 0
M  V30 1773 N 168.503 -0.877838 -1.30888 0
M  V30 1774 C 169.453 -0.310872 -2.25871 0
M  V30 1775 C 170.437 0.556596 -1.50966 0
M  V30 1776 O 171.629 0.402187 -1.7237 0
M  V30 1777 C 168.758 0.479821 -3.3993 0
M  V30 1778 C 167.844 -0.401333 -4.22197 0
M  V30 1779 N 168.235 -1.49848 -4.83093 0
M  V30 1780 C 166.533 -0.195167 -4.45573 0
M  V30 1781 C 167.234 -2.0425 -5.44662 0
M  V30 1782 N 166.21 -1.33843 -5.26865 0
M  V30 1783 H 170.012 -1.1493 -2.70496 0
M  V30 1784 H 167.526 -0.726458 -1.45246 0
M  V30 1785 H 169.523 0.902582 -4.07012 0
M  V30 1786 H 168.183 1.31577 -2.96846 0
M  V30 1787 H 169.194 -1.88137 -4.82519 0
M  V30 1788 H 165.871 0.604192 -4.13105 0
M  V30 1789 H 167.261 -2.96345 -6.03017 0
M  V30 1790 N 169.982 1.44106 -0.638065 0
M  V30 1791 C 170.912 2.33448 0.0494287 0
M  V30 1792 C 171.893 1.48606 0.827672 0
M  V30 1793 O 173.078 1.77308 0.792173 0
M  V30 1794 C 170.208 3.31771 1.02691 0
M  V30 1795 C 169.162 4.26485 0.359823 0
M  V30 1796 C 168.488 5.14729 1.44769 0
M  V30 1797 C 169.788 5.17056 -0.738296 0
M  V30 1798 H 171.482 2.91183 -0.696636 0
M  V30 1799 H 169.028 1.40014 -0.336456 0
M  V30 1800 H 170.981 3.93161 1.51666 0
M  V30 1801 H 169.705 2.7226 1.80395 0
M  V30 1802 H 168.364 3.66437 -0.10934 0
M  V30 1803 H 168.012 4.51566 2.21578 0
M  V30 1804 H 167.712 5.78913 1.00668 0
M  V30 1805 H 169.236 5.78991 1.93911 0
M  V30 1806 H 170.65 5.72342 -0.331354 0
M  V30 1807 H 169.047 5.89879 -1.10286 0
M  V30 1808 H 170.117 4.57652 -1.60258 0
M  V30 1809 N 171.46 0.379036 1.52974 0
M  V30 1810 C 172.41 -0.477772 2.22938 0
M  V30 1811 C 173.394 -1.03792 1.22948 0
M  V30 1812 O 174.586 -0.965725 1.48333 0
M  V30 1813 C 171.715 -1.60994 3.03209 0
M  V30 1814 C 170.801 -1.06203 4.10587 0
M  V30 1815 N 171.192 -0.238214 5.05239 0
M  V30 1816 C 169.49 -1.33554 4.25534 0
M  V30 1817 C 170.191 0.0633235 5.81666 0
M  V30 1818 N 169.167 -0.537901 5.40932 0
M  V30 1819 H 172.969 0.158295 2.93473 0
M  V30 1820 H 170.483 0.187778 1.61311 0
M  V30 1821 H 172.48 -2.23607 3.5186 0
M  V30 1822 H 171.14 -2.24893 2.34207 0
M  V30 1823 H 172.151 0.123695 5.17752 0
M  V30 1824 H 168.828 -1.97632 3.6776 0
M  V30 1825 H 170.218 0.730161 6.67921 0
M  V30 1826 N 172.938 -1.57226 0.108567 0
M  V30 1827 C 174.184 -1.95919 -0.546564 0
M  V30 1828 C 174.539 -0.990417 -1.6495 0
M  V30 1829 O 173.832 -0.0186593 -1.91591 0
M  V30 1830 C 174.026 -3.38911 -1.13463 0
M  V30 1831 C 173.855 -4.4961 -0.0901926 0
M  V30 1832 C 172.625 -5.04168 0.338008 0
M  V30 1833 C 174.823 -5.09693 0.686808 0
M  V30 1834 N 172.805 -5.98434 1.36931 0
M  V30 1835 C 174.176 -5.99804 1.56958 0
M  V30 1836 C 176.231 -4.92388 0.738846 0
M  V30 1837 C 174.934 -6.74463 2.49983 0
M  V30 1838 C 176.96 -5.67719 1.65676 0
M  V30 1839 C 176.322 -6.57507 2.52713 0
M  V30 1840 H 172.421 -0.763312 -0.169936 0
M  V30 1841 H 175.005 -1.93728 0.194264 0
M  V30 1842 H 173.176 -3.41769 -1.84522 0
M  V30 1843 H 174.908 -3.64752 -1.75322 0
M  V30 1844 H 171.663 -4.73571 -0.0523673 0
M  V30 1845 H 172.087 -6.5027 1.88356 0
M  V30 1846 H 176.729 -4.22724 0.080084 0
M  V30 1847 H 174.447 -7.4338 3.16878 0
M  V30 1848 H 178.033 -5.56338 1.70233 0
M  V30 1849 H 176.913 -7.14778 3.22586 0
M  V30 1850 N 174.416 0.165178 -1.56732 0
M  V30 1851 C 175.641 0.900253 -1.86843 0
M  V30 1852 C 176.066 1.74766 -0.695596 0
M  V30 1853 O 175.424 1.77786 0.35522 0
M  V30 1854 C 175.472 1.74777 -3.15413 0
M  V30 1855 O 174.576 2.85007 -2.98068 0
M  V30 1856 H 173.917 0.251832 -0.614391 0
M  V30 1857 H 176.447 0.161468 -2.03962 0
M  V30 1858 H 176.457 2.14646 -3.46974 0
M  V30 1859 H 175.132 1.12537 -4.00385 0
M  V30 1860 H 173.709 2.48676 -2.77875 0
M  V30 1861 N 175.894 1.51508 0.433938 0
M  V30 1862 C 177.171 1.54888 1.19453 0
M  V30 1863 C 177.551 0.315154 2.08734 0
M  V30 1864 O 176.899 -0.699558 2.17528 0
M  V30 1865 C 177.109 2.86467 1.99342 0
M  V30 1866 C 178.457 3.38545 2.56267 0
M  V30 1867 O 179.481 2.88041 2.0955 0
M  V30 1868 O 178.34 4.26675 3.41483 0
M  V30 1869 H 175.434 0.622863 0.544032 0
M  V30 1870 H 177.98 1.63823 0.442732 0
M  V30 1871 H 176.752 3.67718 1.33788 0
M  V30 1872 H 176.375 2.8071 2.8158 0
M  V30 1873 N 177.372 -0.689602 1.41712 0
M  V30 1874 C 178.302 -1.81577 1.46806 0
M  V30 1875 C 179.283 -1.66945 0.326105 0
M  V30 1876 O 180.468 -1.86588 0.538377 0
M  V30 1877 C 177.598 -3.19762 1.35535 0
M  V30 1878 C 176.552 -3.49107 2.47605 0
M  V30 1879 C 175.878 -4.86711 2.21397 0
M  V30 1880 C 177.178 -3.47483 3.89939 0
M  V30 1881 H 178.872 -1.7757 2.41058 0
M  V30 1882 H 176.418 -0.852887 1.16025 0
M  V30 1883 H 178.371 -3.98263 1.3771 0
M  V30 1884 H 177.095 -3.24409 0.377708 0
M  V30 1885 H 175.754 -2.72959 2.44722 0
M  V30 1886 H 175.402 -4.8799 1.21961 0
M  V30 1887 H 175.102 -5.0731 2.96497 0
M  V30 1888 H 176.626 -5.67515 2.25297 0
M  V30 1889 H 178.04 -4.1598 3.94505 0
M  V30 1890 H 176.437 -3.79615 4.64771 0
M  V30 1891 H 177.507 -2.46341 4.17665 0
M  V30 1892 N 178.85 -1.27639 -0.924453 0
M  V30 1893 C 180.261 -1.12834 -1.48746 0
M  V30 1894 C 180.612 0.285505 -1.94112 0
M  V30 1895 O 179.737 1.17874 -1.81479 0
M  V30 1896 C 180.332 -2.04217 -2.70334 0
M  V30 1897 C 178.891 -1.93509 -3.22848 0
M  V30 1898 C 178.038 -1.96583 -1.95577 0
M  V30 1899 H 180.989 -1.40484 -0.738233 0
M  V30 1900 H 181.01 -1.59989 -3.4523 0
M  V30 1901 H 180.522 -3.07111 -2.37285 0
M  V30 1902 H 178.623 -0.936131 -3.60649 0
M  V30 1903 H 178.736 -2.79917 -3.88823 0
M  V30 1904 H 177.1 -1.4085 -2.12211 0
M  V30 1905 H 177.883 -3.01137 -1.64837 0
M  V30 1906 N 180.328 1.1314 -1.09713 0
M  V30 1907 C 181.558 1.88048 -0.855656 0
M  V30 1908 C 181.966 1.79537 0.596919 0
M  V30 1909 O 181.309 1.16196 1.42282 0
M  V30 1910 C 181.371 3.38314 -1.21589 0
M  V30 1911 C 181.035 3.70605 -2.67397 0
M  V30 1912 C 182.032 3.69596 -3.65643 0
M  V30 1913 C 179.717 4.0017 -3.03593 0
M  V30 1914 C 181.711 3.977 -4.9811 0
M  V30 1915 C 179.398 4.27935 -4.36251 0
M  V30 1916 C 180.396 4.26685 -5.33318 0
M  V30 1917 O 180.084 4.53767 -6.63589 0
M  V30 1918 H 179.816 0.60208 -0.307368 0
M  V30 1919 H 182.37 1.44128 -1.46343 0
M  V30 1920 H 180.6 3.82752 -0.551177 0
M  V30 1921 H 182.289 3.94552 -0.953083 0
M  V30 1922 H 183.055 3.46826 -3.39023 0
M  V30 1923 H 178.934 4.00289 -2.2867 0
M  V30 1924 H 182.478 3.9664 -5.73866 0
M  V30 1925 H 178.375 4.50178 -4.62613 0
M  V30 1926 H 179.143 4.71422 -6.69107 0
M  V30 1927 N 181.806 0.884767 1.30421 0
M  V30 1928 C 182.753 0.349642 2.28136 0
M  V30 1929 C 183.723 -0.560061 1.56373 0
M  V30 1930 O 184.908 -0.488524 1.8444 0
M  V30 1931 C 182.048 -0.42999 3.42411 0
M  V30 1932 C 181.161 0.508907 4.28992 0
M  V30 1933 C 180.296 -0.286301 5.30428 0
M  V30 1934 C 179.335 0.648079 6.08659 0
M  V30 1935 N 178.472 -0.111792 7.02011 0
M  V30 1936 H 183.312 1.18807 2.73293 0
M  V30 1937 H 180.849 0.597231 1.3443 0
M  V30 1938 H 182.807 -0.897923 4.07423 0
M  V30 1939 H 181.437 -1.23299 2.98324 0
M  V30 1940 H 180.489 1.09533 3.64289 0
M  V30 1941 H 181.801 1.22475 4.8353 0
M  V30 1942 H 180.955 -0.816098 6.01186 0
M  V30 1943 H 179.694 -1.03536 4.76583 0
M  V30 1944 H 178.699 1.18951 5.36778 0
M  V30 1945 H 179.924 1.39623 6.64592 0
M  V30 1946 H 177.87 -0.843395 6.50556 0
M  V30 1947 H 177.787 0.544429 7.54037 0
M  V30 1948 H 179.055 -0.622339 7.77012 0
M  V30 1949 N 183.284 -1.43765 0.645699 0
M  V30 1950 C 184.532 -2.01499 0.155731 0
M  V30 1951 C 184.853 -1.51151 -1.232 0
M  V30 1952 O 184.123 -0.721044 -1.82148 0
M  V30 1953 H 182.703 -0.745003 0.0545817 0
M  V30 1954 H 185.365 -1.76075 0.835677 0
M  V30 1955 H 184.461 -3.1181 0.134577 0
M  V30 1956 N 184.763 -0.387143 -1.52771 0
M  V30 1957 C 185.988 0.198407 -2.06449 0
M  V30 1958 C 186.413 1.39918 -1.25716 0
M  V30 1959 O 185.771 1.79099 -0.281657 0
M  V30 1960 C 185.819 0.548893 -3.56398 0
M  V30 1961 O 184.923 1.64315 -3.78252 0
M  V30 1962 H 184.264 0.0237731 -0.663574 0
M  V30 1963 H 186.794 -0.553989 -1.96957 0
M  V30 1964 H 186.804 0.813812 -3.99801 0
M  V30 1965 H 185.479 -0.329005 -4.14597 0
M  V30 1966 H 184.056 1.37211 -3.46738 0
M  V30 1967 N 186.241 1.57166 -0.116904 0
M  V30 1968 C 187.151 2.18745 0.847812 0
M  V30 1969 C 188.167 1.163 1.29423 0
M  V30 1970 O 189.343 1.48761 1.35765 0
M  V30 1971 C 186.408 2.77307 2.0809 0
M  V30 1972 C 185.469 3.94781 1.68661 0
M  V30 1973 C 184.702 4.50541 2.86091 0
M  V30 1974 O 184.925 4.05202 4.01456 0
M  V30 1975 O 183.859 5.41256 2.63298 0
M  V30 1976 H 187.685 3.01632 0.353778 0
M  V30 1977 H 185.27 1.49005 0.108599 0
M  V30 1978 H 187.152 3.14647 2.80313 0
M  V30 1979 H 185.827 1.97452 2.56504 0
M  V30 1980 H 184.734 3.62214 0.935518 0
M  V30 1981 H 186.067 4.76065 1.24991 0
M  V30 1982 N 187.719 -0.156864 1.56817 0
M  V30 1983 C 188.669 -1.19891 1.93934 0
M  V30 1984 C 189.653 -1.39061 0.809372 0
M  V30 1985 O 190.845 -1.40789 1.07273 0
M  V30 1986 C 187.974 -2.53493 2.31508 0
M  V30 1987 C 187.06 -2.37957 3.51052 0
M  V30 1988 N 187.451 -1.92158 4.67877 0
M  V30 1989 C 185.749 -2.68739 3.55943 0
M  V30 1990 C 186.45 -1.8943 5.49992 0
M  V30 1991 N 185.426 -2.32375 4.91429 0
M  V30 1992 H 189.228 -0.836746 2.81737 0
M  V30 1993 H 186.742 -0.365012 1.58245 0
M  V30 1994 H 188.739 -3.28811 2.56299 0
M  V30 1995 H 187.399 -2.905 1.45051 0
M  V30 1996 H 188.41 -1.62274 4.91821 0
M  V30 1997 H 185.087 -3.09687 2.80001 0
M  V30 1998 H 186.477 -1.55596 6.53636 0
M  V30 1999 N 189.197 -1.51736 -0.425897 0
M  V30 2000 C 190.422 -1.69082 -1.20108 0
M  V30 2001 C 190.847 -0.392398 -1.83962 0
M  V30 2002 O 190.205 0.64858 -1.69302 0
M  V30 2003 C 190.253 -2.81604 -2.25237 0
M  V30 2004 O 189.357 -2.46004 -3.30992 0
M  V30 2005 H 188.698 -0.563408 -0.35138 0
M  V30 2006 H 191.228 -1.98358 -0.501512 0
M  V30 2007 H 191.238 -3.06025 -2.69838 0
M  V30 2008 H 189.913 -3.75817 -1.78142 0
M  V30 2009 H 188.49 -2.32195 -2.91787 0
M  V30 2010 N 190.675 0.682077 -1.42076 0
M  V30 2011 C 191.605 1.80796 -1.47767 0
M  V30 2012 C 192.586 1.6677 -0.334954 0
M  V30 2013 O 193.771 1.863 -0.548264 0
M  V30 2014 C 190.901 3.19038 -1.37229 0
M  V30 2015 C 189.855 3.47789 -2.49453 0
M  V30 2016 C 189.181 4.8553 -2.23975 0
M  V30 2017 C 190.481 3.45411 -3.91776 0
M  V30 2018 H 192.175 1.7629 -2.41997 0
M  V30 2019 H 189.721 0.846721 -1.16476 0
M  V30 2020 H 191.674 3.97528 -1.39821 0
M  V30 2021 H 190.398 3.24204 -0.394907 0
M  V30 2022 H 189.057 2.71657 -2.46166 0
M  V30 2023 H 188.705 4.87337 -1.24547 0
M  V30 2024 H 188.405 5.0573 -2.99184 0
M  V30 2025 H 189.929 5.66312 -2.28304 0
M  V30 2026 H 191.343 4.13882 -3.96705 0
M  V30 2027 H 189.74 3.77145 -4.66778 0
M  V30 2028 H 190.81 2.44122 -4.18966 0
M  V30 2029 N 192.153 1.28127 0.917671 0
M  V30 2030 C 193.43 1.05761 1.64542 0
M  V30 2031 C 193.81 -0.404344 2.07191 0
M  V30 2032 O 193.158 -1.38963 1.81388 0
M  V30 2033 C 193.368 2.02857 2.83989 0
M  V30 2034 C 194.716 2.32786 3.551 0
M  V30 2035 O 195.74 2.0091 2.94132 0
M  V30 2036 O 194.599 2.87169 4.64969 0
M  V30 2037 H 191.693 0.403916 0.721652 0
M  V30 2038 H 194.239 1.39431 0.967322 0
M  V30 2039 H 193.011 3.01407 2.49538 0
M  V30 2040 H 192.634 1.69809 3.59514 0
M  V30 2041 N 193.631 -1.12557 1.10312 0
M  V30 2042 C 194.879 -1.83675 0.843091 0
M  V30 2043 C 195.2 -1.84435 -0.633131 0
M  V30 2044 O 194.47 -1.30657 -1.45964 0
M  V30 2045 H 193.05 -0.680138 0.308904 0
M  V30 2046 H 195.712 -1.36301 1.39313 0
M  V30 2047 H 194.808 -2.87908 1.2048 0
M  V30 2048 N 195.109 -0.891671 -1.2995 0
M  V30 2049 C 196.019 -0.367691 -2.31701 0
M  V30 2050 C 197.035 0.533486 -1.6562 0
M  V30 2051 O 198.211 0.424997 -1.96865 0
M  V30 2052 C 195.276 0.403406 -3.44345 0
M  V30 2053 C 194.337 -0.528328 -4.26037 0
M  V30 2054 C 193.57 0.206063 -5.33302 0
M  V30 2055 O 193.793 1.43119 -5.52153 0
M  V30 2056 O 192.727 -0.447281 -6.00236 0
M  V30 2057 H 196.553 -1.21163 -2.78484 0
M  V30 2058 H 194.138 -0.655725 -1.34241 0
M  V30 2059 H 196.02 0.839753 -4.12948 0
M  V30 2060 H 194.695 1.22354 -2.99685 0
M  V30 2061 H 193.602 -1.01362 -3.60106 0
M  V30 2062 H 194.935 -1.31465 -4.74318 0
M  V30 2063 N 196.587 1.43421 -0.653314 0
M  V30 2064 C 197.537 2.2792 0.060558 0
M  V30 2065 C 198.521 1.39906 0.794677 0
M  V30 2066 O 199.713 1.63536 0.677128 0
M  V30 2067 C 196.842 3.27603 1.0262 0
M  V30 2068 C 195.928 4.23104 0.290551 0
M  V30 2069 N 196.319 5.01031 -0.692967 0
M  V30 2070 C 194.617 4.42816 0.531984 0
M  V30 2071 C 195.318 5.70626 -1.12963 0
M  V30 2072 N 194.294 5.41617 -0.463867 0
M  V30 2073 H 198.096 2.85585 -0.694143 0
M  V30 2074 H 195.61 1.55126 -0.480602 0
M  V30 2075 H 197.607 3.86918 1.55242 0
M  V30 2076 H 196.267 2.71499 1.78096 0
M  V30 2077 H 197.278 5.0669 -1.07169 0
M  V30 2078 H 193.955 3.97782 1.26791 0
M  V30 2079 H 195.345 6.4318 -1.94343 0
M  V30 2080 N 198.065 0.39524 1.52563 0
M  V30 2081 C 199.312 -0.185044 2.01653 0
M  V30 2082 C 199.64 -1.46317 1.28146 0
M  V30 2083 O 198.895 -1.9213 0.372074 0
M  V30 2084 C 199.194 -0.493444 3.53977 0
M  V30 2085 C 198.86 0.69384 4.4553 0
M  V30 2086 C 197.522 1.01954 4.70275 0
M  V30 2087 C 199.874 1.48785 4.99512 0
M  V30 2088 C 197.202 2.14069 5.46252 0
M  V30 2089 C 199.554 2.59965 5.76716 0
M  V30 2090 C 198.218 2.93037 5.99738 0
M  V30 2091 H 197.488 -0.0677123 0.7379 0
M  V30 2092 H 200.135 0.533807 1.8391 0
M  V30 2093 H 198.44 -1.29369 3.69825 0
M  V30 2094 H 200.137 -0.955163 3.89458 0
M  V30 2095 H 196.727 0.429987 4.26438 0
M  V30 2096 H 200.911 1.24946 4.80315 0
M  V30 2097 H 196.167 2.40056 5.62302 0
M  V30 2098 H 200.341 3.21887 6.17545 0
M  V30 2099 H 197.968 3.8003 6.58393 0
M  V30 2100 N 199.544 -1.57102 0.125237 0
M  V30 2101 C 200.507 -2.14471 -0.80838 0
M  V30 2102 C 201.507 -1.0811 -1.19033 0
M  V30 2103 O 202.697 -1.33856 -1.11482 0
M  V30 2104 C 199.829 -2.69005 -2.09402 0
M  V30 2105 H 201.022 -2.98297 -0.309696 0
M  V30 2106 H 198.575 -1.55807 -0.124051 0
M  V30 2107 H 199.31 -1.88785 -2.63687 0
M  V30 2108 H 199.095 -3.46799 -1.82957 0
M  V30 2109 H 200.585 -3.13278 -2.76128 0
M  V30 2110 N 201.022 0.148545 -1.56898 0
M  V30 2111 C 201.955 1.21293 -1.93296 0
M  V30 2112 C 202.933 1.41637 -0.798599 0
M  V30 2113 O 204.117 1.56275 -1.05406 0
M  V30 2114 C 201.244 2.5721 -2.20365 0
M  V30 2115 C 200.29 2.53469 -3.4301 0
M  V30 2116 S 201.123 2.00315 -4.96623 0
M  V30 2117 C 202.279 3.37964 -5.26812 0
M  V30 2118 H 202.512 0.902393 -2.83274 0
M  V30 2119 H 200.045 0.354094 -1.50285 0
M  V30 2120 H 202.003 3.35427 -2.36641 0
M  V30 2121 H 200.664 2.85454 -1.31054 0
M  V30 2122 H 199.857 3.53518 -3.59223 0
M  V30 2123 H 199.459 1.83359 -3.25968 0
M  V30 2124 H 201.751 4.34066 -5.20185 0
M  V30 2125 H 202.694 3.26606 -6.28279 0
M  V30 2126 H 203.102 3.35028 -4.54331 0
M  V30 2127 N 202.5 1.5196 0.417844 0
M  V30 2128 C 203.41 1.77554 1.53336 0
M  V30 2129 C 204.426 0.660655 1.6097 0
M  V30 2130 O 205.602 0.945099 1.77848 0
M  V30 2131 C 202.667 1.91291 2.89152 0
M  V30 2132 C 201.728 3.15183 2.91475 0
M  V30 2133 C 200.961 3.28256 4.20813 0
M  V30 2134 O 201.184 2.46798 5.14244 0
M  V30 2135 O 200.118 4.21356 4.29817 0
M  V30 2136 H 203.944 2.7222 1.34647 0
M  V30 2137 H 201.529 1.36698 0.602828 0
M  V30 2138 H 203.411 2.02199 3.69721 0
M  V30 2139 H 202.086 0.998129 3.07927 0
M  V30 2140 H 200.993 3.09739 2.09791 0
M  V30 2141 H 202.326 4.06414 2.77648 0
M  V30 2142 N 203.978 -0.674533 1.42435 0
M  V30 2143 C 204.911 -1.79924 1.40366 0
M  V30 2144 C 205.889 -1.60378 0.267899 0
M  V30 2145 O 207.073 -1.82847 0.458159 0
M  V30 2146 C 204.2 -3.16927 1.19478 0
M  V30 2147 C 203.246 -3.55221 2.36051 0
M  V30 2148 S 204.079 -3.5762 3.98583 0
M  V30 2149 C 205.235 -4.97315 3.80038 0
M  V30 2150 H 205.468 -1.81405 2.35541 0
M  V30 2151 H 203.001 -0.845221 1.29211 0
M  V30 2152 H 204.959 -3.96007 1.08114 0
M  V30 2153 H 203.62 -3.13031 0.258883 0
M  V30 2154 H 202.813 -4.54804 2.17185 0
M  V30 2155 H 202.415 -2.83502 2.43932 0
M  V30 2156 H 204.707 -5.85401 3.41045 0
M  V30 2157 H 205.65 -5.21228 4.79298 0
M  V30 2158 H 206.058 -4.69845 3.12899 0
M  V30 2159 N 205.456 -1.28612 -0.910864 0
M  V30 2160 C 206.406 -1.09423 -2.00026 0
M  V30 2161 C 207.39 -0.0170079 -1.60891 0
M  V30 2162 O 208.582 -0.237472 -1.754 0
M  V30 2163 C 205.711 -0.76114 -3.34756 0
M  V30 2164 C 204.797 -1.87735 -3.80285 0
M  V30 2165 N 205.188 -3.11938 -3.98156 0
M  V30 2166 C 203.486 -1.76786 -4.09467 0
M  V30 2167 C 204.187 -3.84687 -4.36338 0
M  V30 2168 N 203.163 -3.12555 -4.44759 0
M  V30 2169 H 206.965 -2.03658 -2.11898 0
M  V30 2170 H 204.479 -1.19573 -1.09891 0
M  V30 2171 H 206.476 -0.604743 -4.12491 0
M  V30 2172 H 205.136 0.173403 -3.24237 0
M  V30 2173 H 206.147 -3.47516 -3.83996 0
M  V30 2174 H 202.824 -0.905284 -4.07567 0
M  V30 2175 H 204.214 -4.91518 -4.58104 0
M  V30 2176 N 206.934 1.1197 -1.10907 0
M  V30 2177 C 208.183 1.82947 -0.849302 0
M  V30 2178 C 208.496 1.85275 0.627112 0
M  V30 2179 O 209.702 2.52296 1.00295 0
M  V30 2180 C 208.158 3.28529 -1.46959 0
M  V30 2181 C 207.766 3.34546 -2.97965 0
M  V30 2182 C 209.51 4.04443 -1.28942 0
M  V30 2183 C 207.417 4.74491 -3.53004 0
M  V30 2184 H 206.347 0.685477 -0.314065 0
M  V30 2185 H 208.998 1.2604 -1.33365 0
M  V30 2186 H 207.38 3.85333 -0.912917 0
M  V30 2187 H 208.554 2.87654 -3.59989 0
M  V30 2188 H 206.869 2.72108 -3.15192 0
M  V30 2189 H 209.466 5.07787 -1.67502 0
M  V30 2190 H 209.809 4.15656 -0.231456 0
M  V30 2191 H 210.342 3.5401 -1.81443 0
M  V30 2192 H 207.081 4.68474 -4.58489 0
M  V30 2193 H 206.601 5.21816 -2.9575 0
M  V30 2194 H 208.28 5.4344 -3.51115 0
M  V30 2195 N 208.412 0.89855 1.29475 0
M  V30 2196 C 209.658 0.524658 1.95896 0
M  V30 2197 C 209.991 -0.926468 1.70676 0
M  V30 2198 O 209.266 -1.65665 1.01908 0
M  V30 2199 C 209.549 0.81633 3.50725 0
M  V30 2200 C 209.402 2.31907 3.85408 0
M  V30 2201 C 210.721 0.302038 4.39062 0
M  V30 2202 H 207.84 0.19209 0.711527 0
M  V30 2203 H 210.482 1.12502 1.53112 0
M  V30 2204 H 208.632 0.305369 3.87298 0
M  V30 2205 H 210.304 2.89949 3.58786 0
M  V30 2206 H 208.547 2.78027 3.32992 0
M  V30 2207 H 209.218 2.47373 4.93468 0
M  V30 2208 H 211.694 0.739551 4.09475 0
M  V30 2209 H 210.57 0.535331 5.46283 0
M  V30 2210 H 210.831 -0.797216 4.34853 0
M  V30 2211 N 209.89 -1.43072 0.660911 0
M  V30 2212 C 210.84 -2.27948 -0.04847 0
M  V30 2213 C 211.824 -1.40325 -0.787246 0
M  V30 2214 O 213.016 -1.63893 -0.668446 0
M  V30 2215 C 210.145 -3.28143 -1.00881 0
M  V30 2216 C 209.231 -4.23252 -0.268108 0
M  V30 2217 N 209.622 -5.00656 0.719528 0
M  V30 2218 C 207.92 -4.43092 -0.508493 0
M  V30 2219 C 208.621 -5.70019 1.15988 0
M  V30 2220 N 207.597 -5.41364 0.492584 0
M  V30 2221 H 211.399 -2.85213 0.709279 0
M  V30 2222 H 208.913 -1.54869 0.488822 0
M  V30 2223 H 210.91 -3.87736 -1.53188 0
M  V30 2224 H 209.57 -2.7244 -1.76654 0
M  V30 2225 H 210.581 -5.06115 1.09855 0
M  V30 2226 H 207.258 -3.98449 -1.24679 0
M  V30 2227 H 208.648 -6.4214 1.97751 0
M  V30 2228 N 211.368 -0.403325 -1.52352 0
M  V30 2229 C 212.278 0.432009 -2.30588 0
M  V30 2230 C 213.294 1.05884 -1.38075 0
M  V30 2231 O 214.47 1.06161 -1.71148 0
M  V30 2232 C 211.535 1.53669 -3.10784 0
M  V30 2233 C 210.596 0.933525 -4.19027 0
M  V30 2234 C 209.829 1.98557 -4.9539 0
M  V30 2235 O 210.052 3.20283 -4.71991 0
M  V30 2236 O 208.986 1.59504 -5.80381 0
M  V30 2237 H 212.812 -0.205739 -3.03002 0
M  V30 2238 H 210.397 -0.166675 -1.48467 0
M  V30 2239 H 212.279 2.17814 -3.60742 0
M  V30 2240 H 210.954 2.15915 -2.41169 0
M  V30 2241 H 209.861 0.254954 -3.7323 0
M  V30 2242 H 211.194 0.35508 -4.90918 0
M  V30 2243 N 212.846 1.57033 -0.133567 0
M  V30 2244 C 213.793 2.16074 0.811208 0
M  V30 2245 C 214.763 1.08979 1.2535 0
M  V30 2246 O 215.948 1.36958 1.32843 0
M  V30 2247 C 213.088 2.77595 2.05024 0
M  V30 2248 C 212.201 3.99042 1.65498 0
M  V30 2249 C 211.336 4.48603 2.84479 0
M  V30 2250 C 210.375 5.62547 2.41262 0
M  V30 2251 N 209.512 6.06787 3.53206 0
M  V30 2252 H 214.352 2.96477 0.300906 0
M  V30 2253 H 211.889 1.46462 0.136822 0
M  V30 2254 H 213.847 3.11402 2.77642 0
M  V30 2255 H 212.477 1.99859 2.53488 0
M  V30 2256 H 211.529 3.71302 0.826981 0
M  V30 2257 H 212.841 4.81629 1.29748 0
M  V30 2258 H 211.995 4.84395 3.65303 0
M  V30 2259 H 210.734 3.64995 3.23465 0
M  V30 2260 H 209.739 5.26345 1.58874 0
M  V30 2261 H 210.964 6.47931 2.03377 0
M  V30 2262 H 208.91 5.26117 3.91838 0
M  V30 2263 H 208.827 6.84266 3.21427 0
M  V30 2264 H 210.095 6.4722 4.34427 0
M  V30 2265 N 214.325 -0.140222 1.56975 0
M  V30 2266 C 215.235 -1.19223 2.02047 0
M  V30 2267 C 216.251 -1.46612 0.937062 0
M  V30 2268 O 217.427 -1.58148 1.24704 0
M  V30 2269 C 214.492 -2.50414 2.39778 0
M  V30 2270 C 213.553 -2.30612 3.621 0
M  V30 2271 C 212.786 -3.55547 3.98023 0
M  V30 2272 O 213.009 -4.62004 3.34528 0
M  V30 2273 O 211.943 -3.47808 4.91237 0
M  V30 2274 H 215.769 -0.839559 2.91865 0
M  V30 2275 H 213.354 -0.349453 1.45256 0
M  V30 2276 H 215.236 -3.27747 2.64877 0
M  V30 2277 H 213.911 -2.85198 1.53114 0
M  V30 2278 H 212.818 -1.51207 3.4218 0
M  V30 2279 H 214.151 -2.00741 4.49404 0
M  V30 2280 N 215.803 -1.52179 -0.40978 0
M  V30 2281 C 216.75 -1.75475 -1.49924 0
M  V30 2282 C 217.72 -0.597175 -1.54994 0
M  V30 2283 O 218.905 -0.834655 -1.71575 0
M  V30 2284 C 216.045 -1.9107 -2.87378 0
M  V30 2285 C 215.158 -3.18717 -2.91622 0
M  V30 2286 C 214.293 -3.24747 -4.20372 0
M  V30 2287 C 213.332 -4.46598 -4.18588 0
M  V30 2288 N 212.469 -4.50025 -5.38908 0
M  V30 2289 H 217.309 -2.68458 -1.29361 0
M  V30 2290 H 214.846 -1.33024 -0.627934 0
M  V30 2291 H 216.804 -1.98096 -3.6717 0
M  V30 2292 H 215.434 -1.01469 -3.06437 0
M  V30 2293 H 214.486 -3.20866 -2.04326 0
M  V30 2294 H 215.798 -4.08544 -2.86169 0
M  V30 2295 H 214.952 -3.30841 -5.08556 0
M  V30 2296 H 213.691 -2.32857 -4.28519 0
M  V30 2297 H 212.696 -4.40652 -3.28794 0
M  V30 2298 H 213.921 -5.39783 -4.12081 0
M  V30 2299 H 211.867 -3.61017 -5.47725 0
M  V30 2300 H 211.784 -5.33697 -5.35447 0
M  V30 2301 H 213.052 -4.60347 -6.29048 0
M  V30 2302 N 217.281 0.66697 -1.42791 0
M  V30 2303 C 218.529 1.42417 -1.43394 0
M  V30 2304 C 218.85 1.94925 -0.0542373 0
M  V30 2305 O 218.12 1.73564 0.908415 0
M  V30 2306 H 216.7 0.528515 -0.527902 0
M  V30 2307 H 219.362 0.787562 -1.78279 0
M  V30 2308 H 218.458 2.27333 -2.13837 0
M  V30 2309 N 218.759 1.29093 0.90403 0
M  V30 2310 C 219.987 1.19689 1.68766 0
M  V30 2311 C 220.402 -0.243113 1.87228 0
M  V30 2312 O 219.759 -1.16326 1.40621 0
M  V30 2313 C 219.81 1.90144 3.07453 0
M  V30 2314 O 219.531 3.2852 2.89838 0
M  V30 2315 C 221.032 1.87162 4.01852 0
M  V30 2316 H 218.252 0.415035 0.527244 0
M  V30 2317 H 220.796 1.7039 1.13082 0
M  V30 2318 H 218.951 1.43289 3.59926 0
M  V30 2319 H 219.365 3.63944 3.77684 0
M  V30 2320 H 220.839 2.41032 4.96596 0
M  V30 2321 H 221.316 0.84617 4.30972 0
M  V30 2322 H 221.922 2.33741 3.5531 0
M  V30 2323 N 220.237 -1.11381 1.11499 0
M  V30 2324 C 221.462 -1.87475 0.887019 0
M  V30 2325 C 221.887 -1.79639 -0.557796 0
M  V30 2326 O 221.245 -1.15924 -1.39396 0
M  V30 2327 C 221.293 -3.34213 1.35403 0
M  V30 2328 O 220.397 -4.0903 0.526146 0
M  V30 2329 H 219.738 -0.582099 0.319463 0
M  V30 2330 H 222.268 -1.40785 1.48461 0
M  V30 2331 H 222.278 -3.8506 1.34881 0
M  V30 2332 H 220.953 -3.39232 2.40612 0
M  V30 2333 H 219.53 -3.68082 0.597522 0
M  V30 2334 N 221.715 -0.905404 -1.28997 0
M  V30 2335 C 223.131 -0.60233 -1.47798 0
M  V30 2336 C 223.331 0.854645 -1.82478 0
M  V30 2337 O 222.387 1.63439 -1.92468 0
M  V30 2338 C 223.7 -1.53306 -2.58685 0
M  V30 2339 C 225.248 -1.53887 -2.72558 0
M  V30 2340 C 225.723 -2.45602 -3.86579 0
M  V30 2341 N 227.214 -2.43681 -3.93921 0
M  V30 2342 C 227.949 -3.11347 -4.81509 0
M  V30 2343 N 227.445 -3.88313 -5.73746 0
M  V30 2344 N 229.238 -3.00476 -4.75048 0
M  V30 2345 H 221.389 -1.84765 -1.04764 0
M  V30 2346 H 223.652 -0.792025 -0.520961 0
M  V30 2347 H 223.358 -2.57141 -2.39941 0
M  V30 2348 H 223.232 -1.25787 -3.55609 0
M  V30 2349 H 225.619 -0.507941 -2.90696 0
M  V30 2350 H 225.7 -1.85447 -1.76191 0
M  V30 2351 H 225.344 -3.48792 -3.69197 0
M  V30 2352 H 225.274 -2.11349 -4.82327 0
M  V30 2353 H 227.765 -1.87767 -3.27951 0
M  V30 2354 H 228.078 -4.36985 -6.37389 0
M  V30 2355 H 226.423 -3.92419 -5.73614 0
M  V30 2356 H 229.614 -2.39858 -4.01977 0
M  V30 2357 H 229.787 -3.53485 -5.43095 0
M  V30 2358 N 223.193 1.4272 -0.668489 0
M  V30 2359 C 224.141 2.32586 0.0254857 0
M  V30 2360 C 225.135 1.49471 0.797176 0
M  V30 2361 O 226.341 1.65583 0.705853 0
M  V30 2362 H 222.716 0.751514 0.0270339 0
M  V30 2363 H 224.687 2.88823 -0.749936 0
M  V30 2364 C 223.436 3.3397 0.967427 0
M  V30 2365 H 222.759 3.97961 0.383048 0
M  V30 2366 H 224.199 3.9945 1.42181 0
M  V30 2367 C 222.658 2.65744 2.0708 0
M  V30 2368 O 223.188 2.48454 3.15648 0
M  V30 2369 N 221.394 2.2487 1.8407 0
M  V30 2370 H 220.941 2.39132 0.95778 0
M  V30 2371 H 220.899 1.79552 2.58086 0
M  V30 2372 N 224.671 0.411399 1.52136 0
M  V30 2373 C 225.917 -0.163888 2.02137 0
M  V30 2374 C 226.25 -1.44597 1.29636 0
M  V30 2375 O 225.525 -1.90272 0.403353 0
M  V30 2376 C 225.808 -0.40927 3.57767 0
M  V30 2377 C 225.661 0.889643 4.40914 0
M  V30 2378 C 226.98 -1.19042 4.23694 0
M  V30 2379 H 224.099 -0.0580896 0.734707 0
M  V30 2380 H 226.741 0.54531 1.82007 0
M  V30 2381 H 224.891 -1.0134 3.7505 0
M  V30 2382 H 226.563 1.52575 4.35337 0
M  V30 2383 H 224.806 1.50011 4.07037 0
M  V30 2384 H 225.477 0.672314 5.4789 0
M  V30 2385 H 227.953 -0.678942 4.10524 0
M  V30 2386 H 226.829 -1.33086 5.32522 0
M  V30 2387 H 227.09 -2.21166 3.82803 0
M  V30 2388 N 226.149 -1.5696 0.141893 0
M  V30 2389 C 227.096 -2.16501 -0.799737 0
M  V30 2390 C 228.066 -1.09643 -1.24771 0
M  V30 2391 O 229.251 -1.3766 -1.32115 0
M  V30 2392 C 226.391 -2.78679 -2.03549 0
M  V30 2393 C 225.504 -3.99914 -1.6338 0
M  V30 2394 C 224.639 -4.50106 -2.82096 0
M  V30 2395 C 223.678 -5.63819 -2.38275 0
M  V30 2396 N 222.815 -6.08651 -3.49983 0
M  V30 2397 H 227.655 -2.96632 -0.285179 0
M  V30 2398 H 225.192 -1.46533 -0.129053 0
M  V30 2399 H 227.15 -3.1287 -2.75986 0
M  V30 2400 H 225.78 -2.012 -2.52425 0
M  V30 2401 H 224.832 -3.71735 -0.807279 0
M  V30 2402 H 226.144 -4.82311 -1.27192 0
M  V30 2403 H 225.298 -4.86325 -3.62729 0
M  V30 2404 H 224.037 -3.66706 -3.21525 0
M  V30 2405 H 223.042 -5.2718 -1.56081 0
M  V30 2406 H 224.267 -6.49 -1.99938 0
M  V30 2407 H 222.213 -5.28188 -3.89042 0
M  V30 2408 H 222.13 -6.85961 -3.17794 0
M  V30 2409 H 223.398 -6.49515 -4.30988 0
M  V30 2410 N 227.627 0.131896 -1.57047 0
M  V30 2411 C 228.537 1.1815 -2.02676 0
M  V30 2412 C 229.553 1.46113 -0.944824 0
M  V30 2413 O 230.729 1.57485 -1.25541 0
M  V30 2414 C 227.794 2.49139 -2.41103 0
M  V30 2415 C 226.855 2.28688 -3.63318 0
M  V30 2416 C 226.088 3.53431 -3.99903 0
M  V30 2417 O 226.311 4.60223 -3.36973 0
M  V30 2418 O 225.245 3.45198 -4.93074 0
M  V30 2419 H 229.071 0.824069 -2.92306 0
M  V30 2420 H 226.656 0.341745 -1.45439 0
M  V30 2421 H 228.538 3.26338 -2.66611 0
M  V30 2422 H 227.213 2.84382 -1.54624 0
M  V30 2423 H 226.12 1.4939 -3.42977 0
M  V30 2424 H 227.453 1.98355 -4.50462 0
M  V30 2425 N 229.106 1.52395 0.401703 0
M  V30 2426 C 230.069 1.75636 1.47257 0
M  V30 2427 C 231.069 0.62628 1.48103 0
M  V30 2428 O 232.259 0.894227 1.49497 0
M  V30 2429 C 229.391 1.84553 2.86624 0
M  V30 2430 H 230.584 2.71241 1.27938 0
M  V30 2431 H 228.137 1.42923 0.632662 0
M  V30 2432 H 228.872 0.908882 3.11303 0
M  V30 2433 H 228.657 2.66715 2.87412 0
M  V30 2434 H 230.147 2.04251 3.64241 0
M  V30 2435 N 230.584 -0.659388 1.43143 0
M  V30 2436 C 231.516 -1.7849 1.43784 0
M  V30 2437 C 232.529 -1.5932 0.334787 0
M  V30 2438 O 233.718 -1.68155 0.598842 0
M  V30 2439 C 230.818 -3.15828 1.22906 0
M  V30 2440 C 229.991 -3.61711 2.45934 0
M  V30 2441 C 229.05 -4.77831 2.20371 0
M  V30 2442 O 228.076 -4.87586 2.93681 0
M  V30 2443 N 229.278 -5.67611 1.21647 0
M  V30 2444 H 232.043 -1.7842 2.40803 0
M  V30 2445 H 229.604 -0.84302 1.3822 0
M  V30 2446 H 231.596 -3.91189 1.03697 0
M  V30 2447 H 230.166 -3.10707 0.343542 0
M  V30 2448 H 229.386 -2.76861 2.80609 0
M  V30 2449 H 230.674 -3.89112 3.27825 0
M  V30 2450 H 230.072 -5.62397 0.610449 0
M  V30 2451 H 228.629 -6.42719 1.08423 0
M  V30 2452 N 232.062 -1.29571 -0.897171 0
M  V30 2453 C 233.339 -1.08365 -1.62839 0
M  V30 2454 C 233.719 0.371331 -2.07808 0
M  V30 2455 O 233.067 1.3606 -1.83576 0
M  V30 2456 C 233.277 -2.0735 -2.80726 0
M  V30 2457 C 234.625 -2.38406 -3.51351 0
M  V30 2458 O 235.649 -2.05564 -2.90898 0
M  V30 2459 O 234.508 -2.9453 -4.60341 0
M  V30 2460 H 231.602 -0.415345 -0.715134 0
M  V30 2461 H 234.148 -1.40952 -0.945018 0
M  V30 2462 H 232.92 -3.05339 -2.44711 0
M  V30 2463 H 232.543 -1.75507 -3.56767 0
M  V30 2464 N 233.54 1.10788 -1.12088 0
M  V30 2465 C 234.951 1.64181 -0.88891 0
M  V30 2466 C 235.302 1.87508 0.577498 0
M  V30 2467 O 234.427 1.61434 1.44112 0
M  V30 2468 C 235.022 2.98257 -1.60712 0
M  V30 2469 C 233.581 3.4853 -1.42139 0
M  V30 2470 C 232.728 2.23208 -1.6454 0
M  V30 2471 H 235.679 0.943368 -1.27618 0
M  V30 2472 H 235.7 3.65552 -1.05604 0
M  V30 2473 H 235.212 2.81246 -2.67436 0
M  V30 2474 H 233.313 3.70692 -0.376552 0
M  V30 2475 H 233.426 4.26882 -2.17505 0
M  V30 2476 H 231.79 2.31169 -1.06925 0
M  V30 2477 H 232.573 2.08733 -2.72554 0
M  V30 2478 N 235.018 0.912232 1.28515 0
M  V30 2479 C 235.928 0.404506 2.31086 0
M  V30 2480 C 236.944 -0.50707 1.66448 0
M  V30 2481 O 238.12 -0.393624 1.97516 0
M  V30 2482 C 235.185 -0.348572 3.44943 0
M  V30 2483 C 234.246 0.59604 4.25142 0
M  V30 2484 C 233.479 -0.121194 5.33562 0
M  V30 2485 O 233.702 -1.34317 5.5436 0
M  V30 2486 O 232.636 0.542716 5.99448 0
M  V30 2487 H 236.462 1.25579 2.76521 0
M  V30 2488 H 234.047 0.676998 1.33181 0
M  V30 2489 H 235.929 -0.77395 4.14232 0
M  V30 2490 H 234.604 -1.17571 3.01594 0
M  V30 2491 H 233.511 1.07079 3.58448 0
M  V30 2492 H 234.844 1.38995 4.72167 0
M  V30 2493 N 236.496 -1.42363 0.676048 0
M  V30 2494 C 237.773 -1.95183 0.127726 0
M  V30 2495 C 238.153 -1.61641 -1.35777 0
M  V30 2496 O 237.501 -0.913216 -2.09458 0
M  V30 2497 C 237.711 -3.46721 0.398199 0
M  V30 2498 C 239.059 -4.23427 0.315383 0
M  V30 2499 O 240.083 -3.54649 0.332016 0
M  V30 2500 O 238.942 -5.45888 0.25865 0
M  V30 2501 H 236.036 -0.826992 0.00359427 0
M  V30 2502 H 238.582 -1.52184 0.750864 0
M  V30 2503 H 237.354 -3.64344 1.4272 0
M  V30 2504 H 236.977 -3.96769 -0.256885 0
M  V30 2505 N 237.974 -0.419461 -1.51915 0
M  V30 2506 C 238.884 0.407528 -2.31033 0
M  V30 2507 C 239.9 1.04413 -1.3919 0
M  V30 2508 O 241.076 1.0434 -1.72265 0
M  V30 2509 C 238.141 1.50365 -3.12396 0
M  V30 2510 C 237.202 0.889029 -4.19994 0
M  V30 2511 C 236.435 1.93291 -4.97468 0
M  V30 2512 O 236.658 3.15259 -4.75361 0
M  V30 2513 O 235.592 1.53339 -5.8204 0
M  V30 2514 H 239.418 -0.237865 -3.02767 0
M  V30 2515 H 237.003 -0.182413 -1.48282 0
M  V30 2516 H 238.885 2.13975 -3.63032 0
M  V30 2517 H 237.56 2.13345 -2.43445 0
M  V30 2518 H 236.467 0.215353 -3.7348 0
M  V30 2519 H 237.8 0.302991 -4.91267 0
M  V30 2520 N 239.452 1.56882 -0.150215 0
M  V30 2521 C 240.701 1.95403 0.500071 0
M  V30 2522 C 241.014 1.03777 1.658 0
M  V30 2523 O 242.22 1.31889 2.37313 0
M  V30 2524 C 240.676 3.4738 0.941018 0
M  V30 2525 C 240.284 4.47596 -0.190158 0
M  V30 2526 C 242.028 3.9476 1.56091 0
M  V30 2527 C 239.935 5.90787 0.269237 0
M  V30 2528 H 238.865 0.729515 0.190588 0
M  V30 2529 H 241.516 1.81988 -0.235074 0
M  V30 2530 H 239.898 3.56138 1.73152 0
M  V30 2531 H 241.072 4.50536 -0.967157 0
M  V30 2532 H 239.387 4.10151 -0.718666 0
M  V30 2533 H 241.984 4.99181 1.9163 0
M  V30 2534 H 242.327 3.36494 2.45107 0
M  V30 2535 H 242.86 3.88932 0.835249 0
M  V30 2536 H 239.599 6.52879 -0.585621 0
M  V30 2537 H 239.119 5.912 1.01204 0
M  V30 2538 H 240.798 6.42979 0.720176 0
M  V30 2539 N 240.93 -0.123565 1.57115 0
M  V30 2540 C 241.893 -1.13583 1.99076 0
M  V30 2541 C 242.893 -1.34564 0.880296 0
M  V30 2542 O 244.083 -1.31158 1.14644 0
M  V30 2543 C 241.215 -2.49128 2.32698 0
M  V30 2544 H 242.408 -0.775287 2.89706 0
M  V30 2545 H 239.961 -0.36771 1.51913 0
M  V30 2546 H 240.696 -2.90111 1.44934 0
M  V30 2547 H 240.481 -2.35255 3.13684 0
M  V30 2548 H 241.971 -3.2199 2.65918 0
M  V30 2549 N 242.408 -1.52605 -0.393616 0
M  V30 2550 C 243.654 -1.67672 -1.14079 0
M  V30 2551 C 243.987 -0.413121 -1.89755 0
M  V30 2552 O 243.262 0.588952 -1.85369 0
M  V30 2553 C 243.545 -2.9088 -2.12276 0
M  V30 2554 C 243.398 -4.27329 -1.40394 0
M  V30 2555 C 244.717 -3.09628 -3.12759 0
M  V30 2556 H 241.836 -0.610168 -0.413356 0
M  V30 2557 H 244.478 -1.85193 -0.424696 0
M  V30 2558 H 242.628 -2.76073 -2.73342 0
M  V30 2559 H 244.3 -4.53894 -0.82327 0
M  V30 2560 H 242.543 -4.2802 -0.705801 0
M  V30 2561 H 243.214 -5.09615 -2.12123 0
M  V30 2562 H 245.69 -3.23436 -2.61779 0
M  V30 2563 H 244.566 -3.97322 -3.78717 0
M  V30 2564 H 244.827 -2.23637 -3.81365 0
M  V30 2565 N 243.887 0.651787 -1.4349 0
M  V30 2566 C 244.817 1.77621 -1.51569 0
M  V30 2567 C 245.798 1.66022 -0.370253 0
M  V30 2568 O 246.983 1.85095 -0.587658 0
M  V30 2569 C 244.113 3.16056 -1.43966 0
M  V30 2570 C 243.067 3.4242 -2.56774 0
M  V30 2571 C 242.393 4.8067 -2.34223 0
M  V30 2572 C 243.693 3.37023 -3.99015 0
M  V30 2573 H 245.387 1.71117 -2.45681 0
M  V30 2574 H 242.933 0.821825 -1.18246 0
M  V30 2575 H 244.886 3.94472 -1.48221 0
M  V30 2576 H 243.61 3.23293 -0.463586 0
M  V30 2577 H 242.269 2.66375 -2.51873 0
M  V30 2578 H 241.917 4.84585 -1.34856 0
M  V30 2579 H 241.617 4.9927 -3.09844 0
M  V30 2580 H 243.141 5.61342 -2.40265 0
M  V30 2581 H 244.555 4.05374 -4.05395 0
M  V30 2582 H 242.952 3.67159 -4.74673 0
M  V30 2583 H 244.022 2.3518 -4.2405 0
M  V30 2584 N 245.365 1.30045 0.890287 0
M  V30 2585 C 246.328 1.15963 1.977 0
M  V30 2586 C 247.328 0.0923777 1.60534 0
M  V30 2587 O 248.518 0.340071 1.70848 0
M  V30 2588 C 245.65 0.775451 3.31963 0
M  V30 2589 H 246.843 2.12502 2.11619 0
M  V30 2590 H 244.396 1.13366 1.07601 0
M  V30 2591 H 245.131 -0.189671 3.23745 0
M  V30 2592 H 244.916 1.54668 3.60306 0
M  V30 2593 H 246.406 0.700251 4.11687 0
M  V30 2594 N 246.843 -1.10192 1.12674 0
M  V30 2595 C 248.09 -1.82205 0.883606 0
M  V30 2596 C 248.418 -1.8532 -0.590492 0
M  V30 2597 O 247.673 -1.31137 -1.45264 0
M  V30 2598 C 247.972 -3.28552 1.4067 0
M  V30 2599 C 247.638 -3.45582 2.89627 0
M  V30 2600 C 246.3 -3.49937 3.30299 0
M  V30 2601 C 248.652 -3.50768 3.85501 0
M  V30 2602 C 245.98 -3.57049 4.65546 0
M  V30 2603 C 248.332 -3.59414 5.20581 0
M  V30 2604 C 246.996 -3.62034 5.60792 0
M  V30 2605 H 246.266 -0.666735 0.323334 0
M  V30 2606 H 248.913 -1.29868 1.40736 0
M  V30 2607 H 247.218 -3.83473 0.80347 0
M  V30 2608 H 248.915 -3.82788 1.19475 0
M  V30 2609 H 245.505 -3.42871 2.57172 0
M  V30 2610 H 249.689 -3.46651 3.55171 0
M  V30 2611 H 244.945 -3.57361 4.96088 0
M  V30 2612 H 249.119 -3.62371 5.94693 0
M  V30 2613 H 246.746 -3.67298 6.6558 0
M  V30 2614 N 248.321 -0.919034 -1.28029 0
M  V30 2615 C 249.251 -0.428581 -2.29533 0
M  V30 2616 C 250.232 0.50659 -1.62381 0
M  V30 2617 O 251.417 0.413195 -1.89753 0
M  V30 2618 C 248.547 0.327388 -3.45753 0
M  V30 2619 C 247.501 -0.519137 -4.2484 0
M  V30 2620 C 246.827 0.365486 -5.33449 0
M  V30 2621 C 248.127 -1.77914 -4.91064 0
M  V30 2622 H 249.821 -1.27687 -2.70807 0
M  V30 2623 H 247.367 -0.615428 -1.30186 0
M  V30 2624 H 249.32 0.681378 -4.15855 0
M  V30 2625 H 248.044 1.20963 -3.03374 0
M  V30 2626 H 246.703 -0.855717 -3.56473 0
M  V30 2627 H 246.351 1.24642 -4.87312 0
M  V30 2628 H 246.051 -0.197356 -5.87268 0
M  V30 2629 H 247.575 0.715241 -6.06396 0
M  V30 2630 H 248.989 -1.49374 -5.53498 0
M  V30 2631 H 247.386 -2.2848 -5.54903 0
M  V30 2632 H 248.456 -2.50382 -4.15255 0
M  V30 2633 N 249.799 1.42003 -0.683588 0
M  V30 2634 C 251.045 2.01712 -0.209825 0
M  V30 2635 C 251.378 1.53968 1.18353 0
M  V30 2636 O 250.653 0.745661 1.79639 0
M  V30 2637 C 250.936 3.59202 -0.254197 0
M  V30 2638 C 250.789 4.17102 -1.68363 0
M  V30 2639 C 252.108 4.38344 0.392709 0
M  V30 2640 H 249.227 0.732891 -0.0777189 0
M  V30 2641 H 251.869 1.68909 -0.87004 0
M  V30 2642 H 250.019 3.87278 0.307954 0
M  V30 2643 H 251.691 3.99946 -2.29871 0
M  V30 2644 H 249.934 3.72597 -2.22157 0
M  V30 2645 H 250.605 5.26249 -1.6663 0
M  V30 2646 H 253.081 4.16011 -0.0859162 0
M  V30 2647 H 251.957 5.47901 0.331063 0
M  V30 2648 H 252.218 4.16887 1.47164 0
M  V30 2649 N 251.277 0.427512 1.51691 0
M  V30 2650 C 252.187 -0.39527 2.31246 0
M  V30 2651 C 253.203 -1.03674 1.39742 0
M  V30 2652 O 254.379 -1.03425 1.72816 0
M  V30 2653 C 251.444 -1.48706 3.13189 0
M  V30 2654 C 250.505 -0.866743 4.20459 0
M  V30 2655 C 249.738 -1.90651 4.98486 0
M  V30 2656 O 249.961 -3.12733 4.77026 0
M  V30 2657 O 248.895 -1.5025 5.82845 0
M  V30 2658 H 252.721 0.253918 3.02637 0
M  V30 2659 H 250.306 0.190274 1.48183 0
M  V30 2660 H 252.188 -2.12047 3.64162 0
M  V30 2661 H 250.863 -2.12051 2.44573 0
M  V30 2662 H 249.77 -0.195544 3.73589 0
M  V30 2663 H 251.103 -0.276934 4.9142 0
M  V30 2664 N 252.755 -1.56801 0.158532 0
M  V30 2665 C 253.718 -2.16138 -0.762705 0
M  V30 2666 C 254.718 -1.1061 -1.16713 0
M  V30 2667 O 255.908 -1.36191 -1.08617 0
M  V30 2668 C 253.04 -2.73386 -2.03649 0
M  V30 2669 H 254.233 -2.98886 -0.246354 0
M  V30 2670 H 251.786 -1.56035 -0.0909744 0
M  V30 2671 H 252.521 -1.94335 -2.59623 0
M  V30 2672 H 252.306 -3.50601 -1.75559 0
M  V30 2673 H 253.796 -3.19065 -2.6942 0
M  V30 2674 N 254.233 0.115231 -1.57178 0
M  V30 2675 C 255.481 0.820727 -1.84685 0
M  V30 2676 C 255.802 1.80237 -0.744279 0
M  V30 2677 O 255.072 1.94529 0.231375 0
M  V30 2678 H 253.652 0.306084 -0.681411 0
M  V30 2679 H 256.314 0.101656 -1.94635 0
M  V30 2680 H 255.41 1.36366 -2.80733 0
M  V30 2681 N 255.711 1.52812 0.385517 0
M  V30 2682 C 256.939 1.71907 1.15133 0
M  V30 2683 C 257.354 0.439004 1.83625 0
M  V30 2684 O 256.711 -0.586765 1.7281 0
M  V30 2685 C 256.762 2.87099 2.19673 0
M  V30 2686 O 256.483 4.10151 1.53973 0
M  V30 2687 C 257.984 3.17902 3.08955 0
M  V30 2688 H 255.204 0.575479 0.345057 0
M  V30 2689 H 257.748 1.99476 0.45052 0
M  V30 2690 H 255.903 2.61982 2.85384 0
M  V30 2691 H 256.317 4.74514 2.23465 0
M  V30 2692 H 257.791 4.01959 3.7833 0
M  V30 2693 H 258.268 2.3243 3.72657 0
M  V30 2694 H 258.874 3.44871 2.48885 0
M  V30 2695 N 257.189 -0.644168 1.43834 0
M  V30 2696 C 258.121 -1.76955 1.45669 0
M  V30 2697 C 259.134 -1.58956 0.351666 0
M  V30 2698 O 260.323 -1.6751 0.616644 0
M  V30 2699 C 257.423 -3.14507 1.26248 0
M  V30 2700 C 256.596 -3.59083 2.49757 0
M  V30 2701 C 255.655 -4.75467 2.25427 0
M  V30 2702 O 254.681 -4.84444 2.98836 0
M  V30 2703 N 255.883 -5.66289 1.27661 0
M  V30 2704 H 258.648 -1.75856 2.42682 0
M  V30 2705 H 256.209 -0.828312 1.39106 0
M  V30 2706 H 258.201 -3.90067 1.0784 0
M  V30 2707 H 256.771 -3.10325 0.376478 0
M  V30 2708 H 255.991 -2.7387 2.8353 0
M  V30 2709 H 257.279 -3.85613 3.31934 0
M  V30 2710 H 256.677 -5.61718 0.670064 0
M  V30 2711 H 255.234 -6.41533 1.15234 0
M  V30 2712 N 258.668 -1.30515 -0.883378 0
M  V30 2713 C 259.914 -1.19607 -1.63774 0
M  V30 2714 C 260.247 0.248314 -1.92606 0
M  V30 2715 O 259.522 1.17742 -1.54813 0
M  V30 2716 C 259.805 -2.02669 -2.97653 0
M  V30 2717 C 259.658 -3.55335 -2.75784 0
M  V30 2718 C 260.977 -1.86573 -3.98596 0
M  V30 2719 H 258.096 -0.435856 -0.594305 0
M  V30 2720 H 260.738 -1.60165 -1.02212 0
M  V30 2721 H 258.888 -1.68208 -3.50197 0
M  V30 2722 H 260.56 -3.99863 -2.30016 0
M  V30 2723 H 258.803 -3.79438 -2.1026 0
M  V30 2724 H 259.474 -4.08745 -3.70988 0
M  V30 2725 H 261.95 -2.16703 -3.55217 0
M  V30 2726 H 260.826 -2.47014 -4.90179 0
M  V30 2727 H 261.087 -0.825321 -4.34328 0
M  V30 2728 N 260.146 1.09593 -1.13257 0
M  V30 2729 C 261.094 2.18271 -0.803783 0
M  V30 2730 C 262.088 1.68054 0.213148 0
M  V30 2731 O 263.294 1.79862 0.0704699 0
M  V30 2732 H 259.669 0.711949 -0.242143 0
M  V30 2733 H 261.64 2.43235 -1.72856 0
M  V30 2734 C 260.389 3.46536 -0.28424 0
M  V30 2735 H 259.712 3.85545 -1.05807 0
M  V30 2736 H 261.152 4.23899 -0.0925945 0
M  V30 2737 C 259.611 3.22036 0.989684 0
M  V30 2738 O 260.141 3.44509 2.06584 0
M  V30 2739 N 258.347 2.7565 0.920086 0
M  V30 2740 H 257.894 2.57562 0.0442019 0
M  V30 2741 H 257.852 2.59635 1.77306 0
M  V30 2742 N 261.624 0.925811 1.2754 0
M  V30 2743 C 262.534 0.428993 2.30644 0
M  V30 2744 C 263.55 -0.489387 1.66976 0
M  V30 2745 O 264.726 -0.372653 1.97922 0
M  V30 2746 C 261.791 -0.311967 3.45294 0
M  V30 2747 C 260.852 0.641098 4.24486 0
M  V30 2748 C 260.085 -0.0645955 5.33661 0
M  V30 2749 O 260.308 -1.28429 5.55754 0
M  V30 2750 O 259.242 0.606265 5.98839 0
M  V30 2751 H 263.068 1.28504 2.75173 0
M  V30 2752 H 260.653 0.691086 1.32455 0
M  V30 2753 H 262.535 -0.729972 4.15029 0
M  V30 2754 H 261.21 -1.14365 3.02824 0
M  V30 2755 H 260.117 1.10874 3.57292 0
M  V30 2756 H 261.45 1.43995 4.70666 0
M  V30 2757 N 263.102 -1.41638 0.69111 0
M  V30 2758 C 264.35 -2.00902 0.219758 0
M  V30 2759 C 264.671 -1.54994 -1.18329 0
M  V30 2760 O 263.941 -0.778628 -1.79762 0
M  V30 2761 H 262.521 -0.74289 0.0782558 0
M  V30 2762 H 265.183 -1.73327 0.891271 0
M  V30 2763 H 264.279 -3.11224 0.233708 0
M  V30 2764 N 264.58 -0.43555 -1.51462 0
M  V30 2765 C 265.827 0.131514 -2.02072 0
M  V30 2766 C 266.155 1.42868 -1.31981 0
M  V30 2767 O 265.41 1.91076 -0.422883 0
M  V30 2768 C 265.709 0.39942 -3.55161 0
M  V30 2769 C 265.375 -0.81172 -4.43533 0
M  V30 2770 C 264.037 -1.14387 -4.67407 0
M  V30 2771 C 266.389 -1.61976 -4.95392 0
M  V30 2772 C 263.717 -2.28477 -5.40384 0
M  V30 2773 C 266.069 -2.75164 -5.6962 0
M  V30 2774 C 264.733 -3.08835 -5.91758 0
M  V30 2775 H 264.003 0.0481244 -0.739436 0
M  V30 2776 H 266.65 -0.58238 -1.8243 0
M  V30 2777 H 264.955 1.19519 -3.73125 0
M  V30 2778 H 266.652 0.85157 -3.91854 0
M  V30 2779 H 263.242 -0.542898 -4.25148 0
M  V30 2780 H 267.426 -1.37637 -4.76833 0
M  V30 2781 H 262.682 -2.5488 -5.55739 0
M  V30 2782 H 266.856 -3.38147 -6.08793 0
M  V30 2783 H 264.483 -3.97353 -6.48086 0
M  V30 2784 N 266.058 1.56714 -0.166846 0
M  V30 2785 C 266.99 2.14914 0.796537 0
M  V30 2786 C 268.003 1.10357 1.19688 0
M  V30 2787 O 269.192 1.37561 1.13751 0
M  V30 2788 C 266.292 2.67326 2.08303 0
M  V30 2789 C 265.465 3.96493 1.84696 0
M  V30 2790 C 264.524 4.34014 2.97521 0
M  V30 2791 O 263.55 5.01973 2.6835 0
M  V30 2792 N 264.752 3.95208 4.25196 0
M  V30 2793 H 267.517 2.98205 0.299006 0
M  V30 2794 H 265.078 1.61892 0.0160839 0
M  V30 2795 H 267.07 2.89428 2.82867 0
M  V30 2796 H 265.64 1.88649 2.4926 0
M  V30 2797 H 264.86 3.82814 0.940602 0
M  V30 2798 H 266.148 4.8086 1.66285 0
M  V30 2799 H 265.546 3.40487 4.51758 0
M  V30 2800 H 264.103 4.2232 4.96477 0
M  V30 2801 N 267.536 -0.106894 1.57237 0
M  V30 2802 C 268.947 -0.662723 1.74542 0
M  V30 2803 C 269.298 -1.7971 0.787319 0
M  V30 2804 O 268.423 -2.16368 -0.0369636 0
M  V30 2805 C 269.018 -1.20896 3.16496 0
M  V30 2806 C 267.577 -1.71096 3.35266 0
M  V30 2807 C 266.724 -0.615642 2.7038 0
M  V30 2808 H 269.675 0.119106 1.58252 0
M  V30 2809 H 269.696 -2.07847 3.18716 0
M  V30 2810 H 269.208 -0.383122 3.86204 0
M  V30 2811 H 267.309 -2.56119 2.70618 0
M  V30 2812 H 267.422 -1.81208 4.43509 0
M  V30 2813 H 265.786 -1.05222 2.31949 0
M  V30 2814 H 266.569 0.199419 3.4272 0
M  V30 2815 N 269.014 -1.53014 -0.377408 0
M  V30 2816 C 269.944 -1.81589 -1.46791 0
M  V30 2817 C 270.925 -0.668622 -1.56408 0
M  V30 2818 O 272.11 -0.917337 -1.71168 0
M  V30 2819 C 269.24 -1.99519 -2.8427 0
M  V30 2820 C 268.194 -3.15249 -2.89486 0
M  V30 2821 C 267.52 -3.18451 -4.29527 0
M  V30 2822 C 268.82 -4.54084 -2.58079 0
M  V30 2823 H 270.514 -2.7291 -1.23127 0
M  V30 2824 H 268.06 -1.31319 -0.590883 0
M  V30 2825 H 270.013 -2.18092 -3.60575 0
M  V30 2826 H 268.737 -1.04897 -3.09296 0
M  V30 2827 H 267.396 -2.96477 -2.15631 0
M  V30 2828 H 267.044 -2.2149 -4.5161 0
M  V30 2829 H 266.744 -3.962 -4.33934 0
M  V30 2830 H 268.268 -3.39193 -5.07721 0
M  V30 2831 H 269.682 -4.72899 -3.24098 0
M  V30 2832 H 268.079 -5.33987 -2.7382 0
M  V30 2833 H 269.149 -4.60006 -1.53372 0
M  V30 2834 N 270.492 0.636531 -1.44174 0
M  V30 2835 C 271.738 1.39826 -1.4689 0
M  V30 2836 C 272.071 1.93947 -0.0990585 0
M  V30 2837 O 271.346 1.73325 0.882544 0
M  V30 2838 C 271.629 2.56751 -2.5249 0
M  V30 2839 C 271.482 2.08014 -3.98811 0
M  V30 2840 C 272.801 3.58946 -2.54649 0
M  V30 2841 H 269.92 0.507075 -0.53483 0
M  V30 2842 H 272.562 0.720188 -1.75822 0
M  V30 2843 H 270.712 3.14597 -2.2795 0
M  V30 2844 H 272.384 1.5504 -4.34466 0
M  V30 2845 H 270.627 1.39242 -4.10846 0
M  V30 2846 H 271.298 2.92169 -4.68339 0
M  V30 2847 H 273.774 3.1089 -2.76563 0
M  V30 2848 H 272.65 4.38286 -3.3045 0
M  V30 2849 H 272.911 4.12655 -1.58646 0
M  V30 2850 N 271.97 1.30982 0.876444 0
M  V30 2851 C 272.88 1.2003 2.01569 0
M  V30 2852 C 273.896 0.11838 1.73597 0
M  V30 2853 O 275.072 0.33495 1.98595 0
M  V30 2854 C 272.137 0.901637 3.34771 0
M  V30 2855 C 271.198 2.06979 3.76109 0
M  V30 2856 C 270.431 1.78529 5.02954 0
M  V30 2857 O 270.654 0.717296 5.65872 0
M  V30 2858 O 269.588 2.64019 5.40905 0
M  V30 2859 H 273.414 2.15753 2.13739 0
M  V30 2860 H 270.999 1.10658 1.00375 0
M  V30 2861 H 272.881 0.750645 4.1466 0
M  V30 2862 H 271.556 -0.0256141 3.2369 0
M  V30 2863 H 270.463 2.27616 2.96887 0
M  V30 2864 H 271.796 2.97907 3.91807 0
M  V30 2865 N 273.449 -1.08991 1.13837 0
M  V30 2866 C 274.412 -2.13925 0.822715 0
M  V30 2867 C 275.412 -1.599 -0.1699 0
M  V30 2868 O 276.602 -1.74104 0.0577251 0
M  V30 2869 C 273.734 -3.40155 0.225318 0
M  V30 2870 H 274.927 -2.43358 1.75262 0
M  V30 2871 H 272.48 -1.24603 0.943594 0
M  V30 2872 H 273.215 -3.16352 -0.713594 0
M  V30 2873 H 273 -3.80661 0.940193 0
M  V30 2874 H 274.49 -4.17594 0.0214784 0
M  V30 2875 N 274.927 -0.932562 -1.27047 0
M  V30 2876 C 275.857 -0.452902 -2.29066 0
M  V30 2877 C 276.838 0.489338 -1.62909 0
M  V30 2878 O 278.023 0.393046 -1.90181 0
M  V30 2879 C 275.153 0.290698 -3.46081 0
M  V30 2880 C 274.107 -0.564168 -4.24265 0
M  V30 2881 C 273.433 0.308886 -5.33807 0
M  V30 2882 C 274.733 -1.83112 -4.89149 0
M  V30 2883 H 276.427 -1.30552 -2.69437 0
M  V30 2884 H 273.973 -0.629201 -1.29526 0
M  V30 2885 H 275.926 0.637233 -4.16554 0
M  V30 2886 H 274.65 1.17738 -3.0464 0
M  V30 2887 H 273.309 -0.893477 -3.55545 0
M  V30 2888 H 272.957 1.19467 -4.88607 0
M  V30 2889 H 272.657 -0.259633 -5.87026 0
M  V30 2890 H 274.181 0.650884 -6.07121 0
M  V30 2891 H 275.595 -1.55236 -5.51883 0
M  V30 2892 H 273.992 -2.34353 -5.52448 0
M  V30 2893 H 275.062 -2.54772 -4.12576 0
M  V30 2894 N 276.405 1.4127 -0.698611 0
M  V30 2895 C 277.63 2.06024 -0.238512 0
M  V30 2896 C 278.055 1.5224 1.10475 0
M  V30 2897 O 277.413 0.650623 1.69223 0
M  V30 2898 C 277.461 3.59988 -0.209952 0
M  V30 2899 O 276.565 4.04282 0.814235 0
M  V30 2900 H 275.906 0.653829 -0.115775 0
M  V30 2901 H 278.436 1.8098 -0.954326 0
M  V30 2902 H 278.446 4.07979 -0.0418436 0
M  V30 2903 H 277.121 3.98503 -1.1903 0
M  V30 2904 H 275.698 3.6779 0.615234 0
M  V30 2905 N 277.883 0.443576 1.51229 0
M  V30 2906 C 278.831 -0.37904 2.29491 0
M  V30 2907 C 279.825 -1.0153 1.35603 0
M  V30 2908 O 281.031 -0.94955 1.52917 0
M  V30 2909 H 277.406 -0.141053 0.738653 0
M  V30 2910 H 279.377 0.301799 2.9687 0
M  V30 2911 C 278.126 -1.46426 3.15364 0
M  V30 2912 H 277.449 -0.984037 3.87501 0
M  V30 2913 H 278.889 -2.01297 3.7317 0
M  V30 2914 C 277.348 -2.45099 2.31146 0
M  V30 2915 O 277.878 -3.49773 1.9754 0
M  V30 2916 N 276.084 -2.16139 1.94249 0
M  V30 2917 H 275.631 -1.31044 2.21777 0
M  V30 2918 H 275.589 -2.82398 1.38198 0
M  V30 2919 N 279.361 -1.56624 0.175154 0
M  V30 2920 C 280.61 -1.96173 -0.468921 0
M  V30 2921 C 280.923 -1.06401 -1.64128 0
M  V30 2922 O 282.129 -1.35648 -2.35185 0
M  V30 2923 C 280.585 -3.48833 -0.885633 0
M  V30 2924 C 280.193 -4.47237 0.261343 0
M  V30 2925 C 281.937 -3.97194 -1.49791 0
M  V30 2926 C 279.844 -5.9114 -0.175214 0
M  V30 2927 H 278.774 -0.732455 -0.178958 0
M  V30 2928 H 281.425 -1.81591 0.263997 0
M  V30 2929 H 279.807 -3.58848 -1.67464 0
M  V30 2930 H 280.981 -4.4894 1.03871 0
M  V30 2931 H 279.296 -4.08956 0.783827 0
M  V30 2932 H 281.893 -5.02167 -1.83665 0
M  V30 2933 H 282.236 -3.40351 -2.39722 0
M  V30 2934 H 282.769 -3.90212 -0.773267 0
M  V30 2935 H 279.508 -6.51865 0.689414 0
M  V30 2936 H 279.028 -5.92735 -0.91786 0
M  V30 2937 H 280.707 -6.44044 -0.617792 0
M  V30 2938 N 280.839 0.0985539 -1.57292 0
M  V30 2939 C 282.25 0.653457 -1.74891 0
M  V30 2940 C 282.601 1.7929 -0.796838 0
M  V30 2941 O 281.726 2.16385 0.0254886 0
M  V30 2942 C 282.321 1.19216 -3.17133 0
M  V30 2943 C 280.88 1.69316 -3.36168 0
M  V30 2944 C 280.027 0.601294 -2.70702 0
M  V30 2945 H 282.978 -0.127497 -1.58187 0
M  V30 2946 H 282.999 2.06154 -3.19814 0
M  V30 2947 H 282.511 0.362635 -3.86402 0
M  V30 2948 H 280.612 2.5468 -2.71972 0
M  V30 2949 H 280.725 1.78853 -4.44464 0
M  V30 2950 H 279.089 1.0399 -2.32504 0
M  V30 2951 H 279.872 -0.217592 -3.4261 0
M  V30 2952 N 282.317 1.53212 0.369288 0
M  V30 2953 C 283.264 1.79388 1.45219 0
M  V30 2954 C 284.234 0.638059 1.53356 0
M  V30 2955 O 285.419 0.879852 1.69302 0
M  V30 2956 C 282.559 1.98623 2.82211 0
M  V30 2957 C 281.672 3.26337 2.8307 0
M  V30 2958 C 280.807 3.35779 4.11614 0
M  V30 2959 C 279.846 4.5754 4.06601 0
M  V30 2960 N 278.983 4.64155 5.26787 0
M  V30 2961 H 283.823 2.71794 1.22198 0
M  V30 2962 H 281.36 1.34642 0.592444 0
M  V30 2963 H 283.318 2.07761 3.61789 0
M  V30 2964 H 281.948 1.09558 3.03639 0
M  V30 2965 H 281 3.26171 1.95747 0
M  V30 2966 H 282.312 4.15988 2.75237 0
M  V30 2967 H 281.466 3.44208 4.99606 0
M  V30 2968 H 280.205 2.44137 4.22195 0
M  V30 2969 H 279.21 4.49215 3.16996 0
M  V30 2970 H 280.435 5.50519 3.97625 0
M  V30 2971 H 278.381 3.75413 5.3796 0
M  V30 2972 H 278.298 5.47706 5.21109 0
M  V30 2973 H 279.566 4.76863 6.16621 0
M  V30 2974 N 283.795 -0.628877 1.44509 0
M  V30 2975 C 285.206 -1.21054 1.42137 0
M  V30 2976 C 285.557 -1.95715 0.137881 0
M  V30 2977 O 284.682 -2.02554 -0.761645 0
M  V30 2978 C 285.277 -2.20189 2.57493 0
M  V30 2979 C 283.836 -2.73777 2.58308 0
M  V30 2980 C 282.983 -1.48813 2.33987 0
M  V30 2981 H 285.934 -0.41942 1.53057 0
M  V30 2982 H 285.955 -3.02833 2.30375 0
M  V30 2983 H 285.467 -1.6582 3.50892 0
M  V30 2984 H 283.568 -3.32142 1.68856 0
M  V30 2985 H 283.681 -3.19662 3.56865 0
M  V30 2986 H 282.045 -1.77024 1.83124 0
M  V30 2987 H 282.828 -0.963442 3.29504 0
M  V30 2988 N 285.273 -1.31445 -0.869486 0
M  V30 2989 C 286.183 -1.21097 -2.0093 0
M  V30 2990 C 287.199 -0.127584 -1.73532 0
M  V30 2991 O 288.375 -0.345477 -1.98415 0
M  V30 2992 C 285.44 -0.919378 -3.34288 0
M  V30 2993 C 284.501 -2.08971 -3.75006 0
M  V30 2994 C 283.734 -1.81194 -5.02001 0
M  V30 2995 O 283.957 -0.747296 -5.65484 0
M  V30 2996 O 282.891 -2.66883 -5.39497 0
M  V30 2997 H 286.717 -2.16883 -2.12592 0
M  V30 2998 H 284.302 -1.11189 -0.997868 0
M  V30 2999 H 286.184 -0.772625 -4.14257 0
M  V30 3000 H 284.859 0.00844772 -3.23699 0
M  V30 3001 H 283.766 -2.29187 -2.95676 0
M  V30 3002 H 285.099 -2.9998 -3.90221 0
M  V30 3003 N 286.751 1.08385 -1.14413 0
M  V30 3004 C 287.684 2.14642 -0.774871 0
M  V30 3005 C 288.662 1.60761 0.243876 0
M  V30 3006 O 289.846 1.88031 0.132883 0
M  V30 3007 C 286.973 3.38366 -0.150491 0
M  V30 3008 C 286.019 4.10997 -1.13945 0
M  V30 3009 S 286.852 4.63797 -2.67679 0
M  V30 3010 C 288.008 5.90808 -2.06631 0
M  V30 3011 H 288.241 2.45633 -1.67487 0
M  V30 3012 H 285.774 1.20498 -0.96538 0
M  V30 3013 H 287.732 4.09996 0.203334 0
M  V30 3014 H 286.393 3.05572 0.72694 0
M  V30 3015 H 285.586 4.99783 -0.65059 0
M  V30 3016 H 285.188 3.4528 -1.43727 0
M  V30 3017 H 287.48 6.62411 -1.4219 0
M  V30 3018 H 288.423 6.4439 -2.93542 0
M  V30 3019 H 288.831 5.4383 -1.51357 0
M  V30 3020 N 288.23 0.939286 1.26551 0
M  V30 3021 C 289.455 0.602008 1.98471 0
M  V30 3022 C 289.88 -0.815624 1.69497 0
M  V30 3023 O 289.238 -1.54912 0.941905 0
M  V30 3024 C 289.286 0.848407 3.50477 0
M  V30 3025 O 288.39 -0.0804009 4.12322 0
M  V30 3026 H 287.731 0.23049 0.622712 0
M  V30 3027 H 290.261 1.2617 1.61066 0
M  V30 3028 H 290.271 0.768553 4.00696 0
M  V30 3029 H 288.946 1.88171 3.70897 0
M  V30 3030 H 287.523 0.0503508 3.72866 0
M  V30 3031 N 289.708 -1.40897 0.706093 0
M  V30 3032 C 290.936 -2.05373 0.250887 0
M  V30 3033 C 291.351 -1.53172 -1.10381 0
M  V30 3034 O 290.708 -0.684305 -1.69185 0
M  V30 3035 C 290.759 -3.6088 0.211571 0
M  V30 3036 O 290.48 -4.11153 1.51276 0
M  V30 3037 C 291.981 -4.42517 -0.263346 0
M  V30 3038 H 289.201 -0.66115 0.114552 0
M  V30 3039 H 291.745 -1.80479 0.961635 0
M  V30 3040 H 289.9 -3.84777 -0.450073 0
M  V30 3041 H 290.314 -5.05279 1.40689 0
M  V30 3042 H 291.788 -5.51479 -0.239718 0
M  V30 3043 H 292.265 -4.19396 -1.30397 0
M  V30 3044 H 292.871 -4.23708 0.367677 0
M  V30 3045 N 291.186 -0.45159 -1.50991 0
M  V30 3046 C 292.414 0.108334 -2.06616 0
M  V30 3047 C 292.829 1.35224 -1.31757 0
M  V30 3048 O 292.186 1.78475 -0.381174 0
M  V30 3049 C 292.237 0.41619 -3.59096 0
M  V30 3050 O 291.958 -0.778361 -4.3113 0
M  V30 3051 C 293.459 1.02523 -4.31282 0
M  V30 3052 H 290.679 0.00159995 -0.670998 0
M  V30 3053 H 293.223 -0.634771 -1.94399 0
M  V30 3054 H 291.378 1.10921 -3.71181 0
M  V30 3055 H 291.792 -0.511181 -5.22003 0
M  V30 3056 H 293.266 1.19053 -5.39009 0
M  V30 3057 H 293.743 2.01013 -3.905 0
M  V30 3058 H 294.349 0.371173 -4.23677 0
M  V30 3059 N 292.664 1.56529 -0.183458 0
M  V30 3060 C 293.597 2.14417 0.781052 0
M  V30 3061 C 294.575 1.07761 1.21763 0
M  V30 3062 O 295.759 1.35807 1.30724 0
M  V30 3063 C 292.886 2.69361 2.05335 0
M  V30 3064 C 291.932 3.885 1.75982 0
M  V30 3065 S 292.765 5.27568 0.918256 0
M  V30 3066 C 293.921 5.85926 2.20095 0
M  V30 3067 H 294.154 2.95893 0.2889 0
M  V30 3068 H 291.687 1.54368 0.0313844 0
M  V30 3069 H 293.645 3.01662 2.78406 0
M  V30 3070 H 292.306 1.87949 2.51663 0
M  V30 3071 H 291.499 4.25314 2.70415 0
M  V30 3072 H 291.101 3.57149 1.10999 0
M  V30 3073 H 293.393 5.99579 3.15453 0
M  V30 3074 H 294.336 6.82761 1.87731 0
M  V30 3075 H 294.744 5.14438 2.32409 0
M  V30 3076 N 294.142 -0.090211 1.57342 0
M  V30 3077 C 295.105 -1.09335 2.01441 0
M  V30 3078 C 296.105 -1.32666 0.908641 0
M  V30 3079 O 297.295 -1.28697 1.174 0
M  V30 3080 C 294.427 -2.44136 2.3793 0
M  V30 3081 H 295.62 -0.713662 2.91285 0
M  V30 3082 H 293.173 -0.335404 1.52659 0
M  V30 3083 H 293.908 -2.86972 1.51055 0
M  V30 3084 H 293.693 -2.28548 3.18603 0
M  V30 3085 H 295.183 -3.16277 2.72688 0
M  V30 3086 N 295.62 -1.53406 -0.361157 0
M  V30 3087 C 296.53 -1.83122 -1.4664 0
M  V30 3088 C 297.546 -0.719943 -1.58407 0
M  V30 3089 O 298.722 -1.01046 -1.74218 0
M  V30 3090 C 295.787 -2.01891 -2.81853 0
M  V30 3091 C 294.848 -3.25784 -2.79577 0
M  V30 3092 C 294.081 -3.43648 -4.0834 0
M  V30 3093 O 294.304 -2.65714 -5.0473 0
M  V30 3094 O 293.238 -4.37018 -4.13883 0
M  V30 3095 H 297.064 -2.7703 -1.24451 0
M  V30 3096 H 294.649 -1.38841 -0.551678 0
M  V30 3097 H 296.531 -2.15782 -3.61962 0
M  V30 3098 H 295.206 -1.11173 -3.0401 0
M  V30 3099 H 294.113 -3.17312 -1.98151 0
M  V30 3100 H 295.446 -4.16439 -2.62373 0
M  V30 3101 N 297.098 0.621204 -1.44841 0
M  V30 3102 C 298.323 1.41244 -1.51871 0
M  V30 3103 C 298.748 1.87519 -0.147764 0
M  V30 3104 O 298.106 1.59334 0.865 0
M  V30 3105 C 298.154 2.60221 -2.49634 0
M  V30 3106 O 297.258 3.60395 -2.00473 0
M  V30 3107 H 296.599 0.42223 -0.512463 0
M  V30 3108 H 299.129 0.757305 -1.90069 0
M  V30 3109 H 299.139 3.0764 -2.67996 0
M  V30 3110 H 297.814 2.25887 -3.4921 0
M  V30 3111 H 296.391 3.19717 -1.91925 0
M  V30 3112 N 298.576 1.31904 0.862503 0
M  V30 3113 C 299.801 1.25135 1.65397 0
M  V30 3114 C 300.226 -0.179 1.87246 0
M  V30 3115 O 299.584 -1.1277 1.4196 0
M  V30 3116 C 299.632 2.00832 2.99498 0
M  V30 3117 O 298.736 1.35075 3.89652 0
M  V30 3118 H 298.077 0.431655 0.504549 0
M  V30 3119 H 300.607 1.74094 1.07483 0
M  V30 3120 H 300.617 2.10709 3.49379 0
M  V30 3121 H 299.292 3.04847 2.82916 0
M  V30 3122 H 297.869 1.33696 3.48109 0
M  V30 3123 N 300.054 -1.07777 1.14986 0
M  V30 3124 C 300.984 -2.16865 0.865557 0
M  V30 3125 C 301.965 -1.69123 -0.182083 0
M  V30 3126 O 303.15 -1.94164 -0.0373815 0
M  V30 3127 C 300.28 -3.45539 0.349313 0
M  V30 3128 C 299.234 -4.06708 1.33313 0
M  V30 3129 C 298.56 -5.30411 0.675918 0
M  V30 3130 C 299.86 -4.47241 2.69764 0
M  V30 3131 H 301.554 -2.40905 1.77778 0
M  V30 3132 H 299.1 -1.15781 0.856203 0
M  V30 3133 H 301.053 -4.21174 0.137983 0
M  V30 3134 H 299.777 -3.21072 -0.598362 0
M  V30 3135 H 298.436 -3.33112 1.53075 0
M  V30 3136 H 298.084 -5.02232 -0.277767 0
M  V30 3137 H 297.784 -5.72293 1.33244 0
M  V30 3138 H 299.308 -6.08755 0.474262 0
M  V30 3139 H 300.722 -5.14025 2.53873 0
M  V30 3140 H 299.119 -5.00062 3.3175 0
M  V30 3141 H 300.189 -3.58818 3.26156 0
M  V30 3142 N 301.532 -0.945985 -1.26051 0
M  V30 3143 C 302.462 -0.477172 -2.28572 0
M  V30 3144 C 303.443 0.472032 -1.63419 0
M  V30 3145 O 304.628 0.372853 -1.90587 0
M  V30 3146 C 301.758 0.253975 -3.4637 0
M  V30 3147 C 300.712 -0.609135 -4.23643 0
M  V30 3148 C 300.038 0.252252 -5.34105 0
M  V30 3149 C 301.338 -1.8829 -4.8718 0
M  V30 3150 H 303.032 -1.33402 -2.68038 0
M  V30 3151 H 300.578 -0.642904 -1.28852 0
M  V30 3152 H 302.531 0.593016 -4.17207 0
M  V30 3153 H 301.255 1.145 -3.05871 0
M  V30 3154 H 299.914 -0.931138 -3.54578 0
M  V30 3155 H 299.562 1.14278 -4.89846 0
M  V30 3156 H 299.262 -0.32188 -5.86718 0
M  V30 3157 H 300.786 0.586454 -6.07777 0
M  V30 3158 H 302.2 -1.61081 -5.50205 0
M  V30 3159 H 300.597 -2.40199 -5.49931 0
M  V30 3160 H 301.667 -2.59134 -4.09851 0
M  V30 3161 N 303.011 1.40521 -0.713556 0
M  V30 3162 C 304.288 1.94775 -0.17943 0
M  V30 3163 C 304.668 1.65184 1.31444 0
M  V30 3164 O 304.016 0.968429 2.06963 0
M  V30 3165 C 304.226 3.45543 -0.489986 0
M  V30 3166 C 305.574 4.22442 -0.427536 0
M  V30 3167 O 306.598 3.53644 -0.425929 0
M  V30 3168 O 305.457 5.4501 -0.403292 0
M  V30 3169 H 302.551 0.826606 -0.0255192 0
M  V30 3170 H 305.097 1.5014 -0.790949 0
M  V30 3171 H 303.869 3.60432 -1.5233 0
M  V30 3172 H 303.492 3.97311 0.151598 0
M  V30 3173 N 304.489 0.459591 1.5075 0
M  V30 3174 C 305.419 -0.330644 2.31147 0
M  V30 3175 C 306.4 -1.00087 1.37538 0
M  V30 3176 O 307.585 -1.00025 1.66459 0
M  V30 3177 C 304.715 -1.41958 3.16962 0
M  V30 3178 C 303.669 -0.871608 4.19031 0
M  V30 3179 C 302.995 -2.05797 4.9351 0
M  V30 3180 C 304.295 0.109251 5.22186 0
M  V30 3181 H 305.989 0.340336 2.97459 0
M  V30 3182 H 303.535 0.165119 1.4305 0
M  V30 3183 H 305.488 -1.9798 3.71997 0
M  V30 3184 H 304.212 -2.11917 2.48513 0
M  V30 3185 H 302.871 -0.333442 3.6508 0
M  V30 3186 H 302.519 -2.74427 4.21544 0
M  V30 3187 H 302.219 -1.6976 5.62544 0
M  V30 3188 H 303.743 -2.62331 5.51375 0
M  V30 3189 H 305.157 -0.361405 5.7216 0
M  V30 3190 H 303.554 0.383316 5.98875 0
M  V30 3191 H 304.624 1.03887 4.73641 0
M  V30 3192 N 305.967 -1.56429 0.191757 0
M  V30 3193 C 306.897 -2.21937 -0.725696 0
M  V30 3194 C 307.878 -1.1814 -1.2238 0
M  V30 3195 O 309.063 -1.46636 -1.27325 0
M  V30 3196 C 306.193 -2.87611 -1.94672 0
M  V30 3197 C 305.147 -3.97623 -1.58366 0
M  V30 3198 C 304.473 -4.50446 -2.88102 0
M  V30 3199 C 305.773 -5.16197 -0.796133 0
M  V30 3200 H 307.467 -2.98861 -0.179606 0
M  V30 3201 H 305.013 -1.43749 -0.0849464 0
M  V30 3202 H 306.966 -3.3212 -2.59373 0
M  V30 3203 H 305.69 -2.08087 -2.51728 0
M  V30 3204 H 304.349 -3.53801 -0.960247 0
M  V30 3205 H 303.997 -3.67688 -3.43241 0
M  V30 3206 H 303.697 -5.24675 -2.64556 0
M  V30 3207 H 305.221 -4.97654 -3.53798 0
M  V30 3208 H 306.635 -5.57271 -1.34618 0
M  V30 3209 H 305.032 -5.96471 -0.658928 0
M  V30 3210 H 306.102 -4.84473 0.203478 0
M  V30 3211 N 307.445 0.0818655 -1.57387 0
M  V30 3212 C 308.856 0.634871 -1.75574 0
M  V30 3213 C 309.207 1.78435 -0.815809 0
M  V30 3214 O 308.332 2.164 0.0025366 0
M  V30 3215 C 308.927 1.15845 -3.18379 0
M  V30 3216 C 307.486 1.65741 -3.37945 0
M  V30 3217 C 306.633 0.572549 -2.71325 0
M  V30 3218 H 309.584 -0.144268 -1.58043 0
M  V30 3219 H 309.605 2.02751 -3.21982 0
M  V30 3220 H 309.117 0.321631 -3.86765 0
M  V30 3221 H 307.218 2.51781 -2.74658 0
M  V30 3222 H 307.331 1.74129 -4.46336 0
M  V30 3223 H 305.695 1.01518 -2.33594 0
M  V30 3224 H 306.478 -0.253918 -3.4236 0
M  V30 3225 N 308.923 1.53595 0.353017 0
M  V30 3226 C 309.87 1.80919 1.43308 0
M  V30 3227 C 310.84 0.654288 1.5267 0
M  V30 3228 O 312.025 0.897759 1.6836 0
M  V30 3229 C 309.165 2.01605 2.80089 0
M  V30 3230 C 308.278 3.29321 2.79593 0
M  V30 3231 C 307.413 3.40125 4.0803 0
M  V30 3232 C 306.452 4.61826 4.01725 0
M  V30 3233 N 305.589 4.69716 5.21834 0
M  V30 3234 H 310.429 2.73074 1.19308 0
M  V30 3235 H 307.966 1.35263 0.578131 0
M  V30 3236 H 309.924 2.11586 3.59565 0
M  V30 3237 H 308.554 1.12772 3.0246 0
M  V30 3238 H 307.606 3.28229 1.92276 0
M  V30 3239 H 308.918 4.18884 2.70809 0
M  V30 3240 H 308.072 3.49488 4.95927 0
M  V30 3241 H 306.811 2.48601 4.19582 0
M  V30 3242 H 305.816 4.52552 3.12213 0
M  V30 3243 H 307.041 5.54705 3.91764 0
M  V30 3244 H 304.987 3.81097 5.33948 0
M  V30 3245 H 304.904 5.53202 5.1527 0
M  V30 3246 H 306.172 4.83376 6.11529 0
M  V30 3247 N 310.401 -0.613514 1.45168 0
M  V30 3248 C 311.311 -1.75296 1.55912 0
M  V30 3249 C 312.327 -1.68244 0.443856 0
M  V30 3250 O 313.503 -1.88706 0.70371 0
M  V30 3251 C 310.568 -3.1174 1.5172 0
M  V30 3252 C 309.629 -3.30291 2.74238 0
M  V30 3253 C 308.862 -4.60226 2.70236 0
M  V30 3254 O 309.085 -5.42168 1.77229 0
M  V30 3255 O 308.019 -4.81361 3.61352 0
M  V30 3256 H 311.845 -1.69183 2.52212 0
M  V30 3257 H 309.43 -0.776886 1.27612 0
M  V30 3258 H 311.312 -3.93044 1.51968 0
M  V30 3259 H 309.987 -3.18357 0.585697 0
M  V30 3260 H 308.894 -2.48598 2.79553 0
M  V30 3261 H 310.227 -3.28547 3.66494 0
M  V30 3262 N 311.879 -1.3236 -0.855495 0
M  V30 3263 C 312.789 -1.23221 -1.99634 0
M  V30 3264 C 313.805 -0.145983 -1.73387 0
M  V30 3265 O 314.981 -0.366502 -1.98037 0
M  V30 3266 C 312.046 -0.954782 -3.33294 0
M  V30 3267 C 311.107 -2.12937 -3.72769 0
M  V30 3268 C 310.34 -1.86508 -5.00051 0
M  V30 3269 O 310.563 -0.807231 -5.64659 0
M  V30 3270 O 309.497 -2.72591 -5.36636 0
M  V30 3271 H 313.323 -2.19126 -2.1028 0
M  V30 3272 H 310.908 -1.12241 -0.986018 0
M  V30 3273 H 312.79 -0.816519 -4.13414 0
M  V30 3274 H 311.465 -0.0258854 -3.2369 0
M  V30 3275 H 310.372 -2.3231 -2.93228 0
M  V30 3276 H 311.705 -3.04102 -3.87018 0
M  V30 3277 N 313.357 1.07166 -1.15556 0
M  V30 3278 C 314.304 2.14417 -0.854055 0
M  V30 3279 C 315.274 1.64965 0.193806 0
M  V30 3280 O 316.459 1.90703 0.0609443 0
M  V30 3281 C 313.599 3.43304 -0.351574 0
M  V30 3282 C 312.712 4.06537 -1.46123 0
M  V30 3283 C 311.847 5.23266 -0.914677 0
M  V30 3284 C 310.886 5.78464 -2.00114 0
M  V30 3285 N 310.023 6.86521 -1.47083 0
M  V30 3286 H 314.863 2.39548 -1.77259 0
M  V30 3287 H 312.4 1.17543 -0.884425 0
M  V30 3288 H 314.358 4.17179 -0.0419409 0
M  V30 3289 H 312.988 3.18419 0.530037 0
M  V30 3290 H 312.04 3.30297 -1.88701 0
M  V30 3291 H 313.352 4.43567 -2.28144 0
M  V30 3292 H 312.506 6.04131 -0.557698 0
M  V30 3293 H 311.245 4.87658 -0.0636583 0
M  V30 3294 H 310.25 4.96243 -2.36692 0
M  V30 3295 H 311.475 6.16126 -2.85597 0
M  V30 3296 H 309.421 6.52849 -0.642198 0
M  V30 3297 H 309.338 7.22446 -2.22729 0
M  V30 3298 H 310.606 7.71087 -1.14215 0
M  V30 3299 N 314.835 0.952656 1.25548 0
M  V30 3300 C 315.765 0.489287 2.28316 0
M  V30 3301 C 316.746 -0.463359 1.63667 0
M  V30 3302 O 317.931 -0.36274 1.90782 0
M  V30 3303 C 315.061 -0.235603 3.465 0
M  V30 3304 C 314.015 0.631593 4.23314 0
M  V30 3305 C 313.341 -0.223923 5.34231 0
M  V30 3306 C 314.641 1.90871 4.86174 0
M  V30 3307 H 316.335 1.34822 2.67326 0
M  V30 3308 H 313.881 0.649728 1.28509 0
M  V30 3309 H 315.834 -0.570882 4.17515 0
M  V30 3310 H 314.558 -1.12877 3.06474 0
M  V30 3311 H 313.217 0.949929 3.54079 0
M  V30 3312 H 312.865 -1.11678 4.90446 0
M  V30 3313 H 312.565 0.35299 5.86539 0
M  V30 3314 H 314.089 -0.554214 6.0808 0
M  V30 3315 H 315.503 1.63997 5.49343 0
M  V30 3316 H 313.9 2.43112 5.4865 0
M  V30 3317 H 314.97 2.61304 4.08471 0
M  V30 3318 N 316.313 -1.40141 0.720998 0
M  V30 3319 C 317.729 -1.54632 0.395113 0
M  V30 3320 C 317.929 -1.69115 -1.09555 0
M  V30 3321 O 316.985 -1.68377 -1.88163 0
M  V30 3322 C 318.298 -2.77177 1.1659 0
M  V30 3323 C 319.846 -2.91 1.15274 0
M  V30 3324 C 320.321 -4.16465 1.90579 0
M  V30 3325 N 321.812 -4.23476 1.87675 0
M  V30 3326 C 322.547 -5.19475 2.42762 0
M  V30 3327 N 322.043 -6.21348 3.06428 0
M  V30 3328 N 323.836 -5.11592 2.32874 0
M  V30 3329 H 315.987 -1.28986 1.68749 0
M  V30 3330 H 318.25 -0.62412 0.713567 0
M  V30 3331 H 317.956 -2.72771 2.22011 0
M  V30 3332 H 317.83 -3.69442 0.76108 0
M  V30 3333 H 320.217 -2.94907 0.106702 0
M  V30 3334 H 320.298 -1.99838 1.59682 0
M  V30 3335 H 319.942 -4.1332 2.95176 0
M  V30 3336 H 319.872 -5.06646 1.43587 0
M  V30 3337 H 322.363 -3.50497 1.41281 0
M  V30 3338 H 322.676 -6.91034 3.45965 0
M  V30 3339 H 321.021 -6.21777 3.10514 0
M  V30 3340 H 324.212 -4.30936 1.82789 0
M  V30 3341 H 324.385 -5.86233 2.76106 0
M  V30 3342 N 317.792 -0.46758 -1.50504 0
M  V30 3343 C 318.742 0.34698 -2.25344 0
M  V30 3344 C 319.726 0.964469 -1.2879 0
M  V30 3345 O 320.918 0.8776 -1.53711 0
M  V30 3346 C 318.047 1.43042 -3.1208 0
M  V30 3347 C 317.133 0.82084 -4.16081 0
M  V30 3348 N 317.524 -0.0567602 -5.05768 0
M  V30 3349 C 315.822 1.08517 -4.32597 0
M  V30 3350 C 316.523 -0.402343 -5.80307 0
M  V30 3351 N 315.499 0.221607 -5.43148 0
M  V30 3352 H 319.301 -0.329129 -2.92051 0
M  V30 3353 H 316.815 -0.281508 -1.59942 0
M  V30 3354 H 318.812 2.02712 -3.64299 0
M  V30 3355 H 317.472 2.10856 -2.46921 0
M  V30 3356 H 318.483 -0.425349 -5.1615 0
M  V30 3357 H 315.16 1.75855 -3.78657 0
M  V30 3358 H 316.55 -1.11834 -6.62528 0
M  V30 3359 N 319.27 1.56325 -0.20005 0
M  V30 3360 C 320.5 2.01811 0.442232 0
M  V30 3361 C 320.908 1.07932 1.55394 0
M  V30 3362 O 320.251 0.0772685 1.83537 0
M  V30 3363 C 320.313 3.43685 1.05457 0
M  V30 3364 C 319.977 4.56928 0.0809833 0
M  V30 3365 C 320.974 5.15009 -0.711471 0
M  V30 3366 C 318.659 5.0229 -0.0315364 0
M  V30 3367 C 320.653 6.16904 -1.60336 0
M  V30 3368 C 318.34 6.04028 -0.926981 0
M  V30 3369 C 319.338 6.6121 -1.71146 0
M  V30 3370 O 319.026 7.60971 -2.59189 0
M  V30 3371 H 318.758 0.666173 0.114848 0
M  V30 3372 H 321.312 2.03085 -0.307511 0
M  V30 3373 H 319.542 3.39413 1.85299 0
M  V30 3374 H 321.231 3.72948 1.60201 0
M  V30 3375 H 321.997 4.80827 -0.634873 0
M  V30 3376 H 317.876 4.57476 0.568902 0
M  V30 3377 H 321.42 6.61464 -2.21611 0
M  V30 3378 H 317.317 6.37634 -1.00468 0
M  V30 3379 H 318.085 7.7841 -2.53023 0
M  V30 3380 N 320.748 -0.0735177 1.57428 0
M  V30 3381 C 321.995 -0.772999 1.87166 0
M  V30 3382 C 322.323 -1.77665 0.791551 0
M  V30 3383 O 321.578 -1.94541 -0.212636 0
M  V30 3384 C 321.877 -1.51799 3.23561 0
M  V30 3385 C 321.543 -0.654484 4.46125 0
M  V30 3386 C 320.205 -0.416511 4.79394 0
M  V30 3387 C 322.557 -0.0555862 5.2117 0
M  V30 3388 C 319.885 0.429869 5.85123 0
M  V30 3389 C 322.237 0.778239 6.27795 0
M  V30 3390 C 320.901 1.0261 6.59566 0
M  V30 3391 H 320.171 -0.282861 0.684888 0
M  V30 3392 H 322.818 -0.0338272 1.9147 0
M  V30 3393 H 321.123 -2.32932 3.1504 0
M  V30 3394 H 322.82 -2.06397 3.43804 0
M  V30 3395 H 319.41 -0.850091 4.20085 0
M  V30 3396 H 323.594 -0.226558 4.95783 0
M  V30 3397 H 318.85 0.630665 6.08139 0
M  V30 3398 H 323.024 1.24906 6.85107 0
M  V30 3399 H 320.651 1.68371 7.4132 0
M  V30 3400 N 322.226 -1.5378 -0.344866 0
M  V30 3401 C 323.642 -1.44015 -0.687888 0
M  V30 3402 C 323.842 -0.595834 -1.92489 0
M  V30 3403 O 322.898 -0.0863064 -2.52352 0
M  V30 3404 C 324.211 -2.87481 -0.881758 0
M  V30 3405 C 325.759 -2.97247 -0.980459 0
M  V30 3406 C 326.234 -4.41819 -1.20665 0
M  V30 3407 N 327.725 -4.45339 -1.27389 0
M  V30 3408 C 328.46 -5.54333 -1.46639 0
M  V30 3409 N 327.956 -6.73335 -1.63071 0
M  V30 3410 N 329.749 -5.41944 -1.49176 0
M  V30 3411 H 321.9 -2.07169 0.468475 0
M  V30 3412 H 324.163 -0.93643 0.147655 0
M  V30 3413 H 323.869 -3.51672 -0.0443444 0
M  V30 3414 H 323.743 -3.32352 -1.78388 0
M  V30 3415 H 326.13 -2.33197 -1.8084 0
M  V30 3416 H 326.211 -2.5574 -0.0552713 0
M  V30 3417 H 325.855 -5.06449 -0.383652 0
M  V30 3418 H 325.785 -4.80917 -2.14539 0
M  V30 3419 H 328.276 -3.59585 -1.1622 0
M  V30 3420 H 328.589 -7.52165 -1.77391 0
M  V30 3421 H 326.934 -6.76282 -1.60209 0
M  V30 3422 H 330.125 -4.47932 -1.3592 0
M  V30 3423 H 330.298 -6.26946 -1.63837 0
M  V30 3424 N 323.704 0.605807 -1.45491 0
M  V30 3425 C 324.934 1.38934 -1.52908 0
M  V30 3426 C 325.342 1.88513 -0.161086 0
M  V30 3427 O 324.685 1.62962 0.847891 0
M  V30 3428 C 324.747 2.62737 -2.45376 0
M  V30 3429 C 324.411 2.34785 -3.92078 0
M  V30 3430 C 325.408 1.95038 -4.8193 0
M  V30 3431 C 323.093 2.47642 -4.37011 0
M  V30 3432 C 325.087 1.68511 -6.14722 0
M  V30 3433 C 322.774 2.20728 -5.69844 0
M  V30 3434 C 323.772 1.81225 -6.58519 0
M  V30 3435 O 323.46 1.54627 -7.88889 0
M  V30 3436 H 323.192 0.431629 -0.520262 0
M  V30 3437 H 325.746 0.74573 -1.91384 0
M  V30 3438 H 323.976 3.29824 -2.01874 0
M  V30 3439 H 325.665 3.24783 -2.43456 0
M  V30 3440 H 326.431 1.84639 -4.48479 0
M  V30 3441 H 322.31 2.77356 -3.68232 0
M  V30 3442 H 325.854 1.37602 -6.83894 0
M  V30 3443 H 321.751 2.30744 -6.02849 0
M  V30 3444 H 322.519 1.68665 -8.00933 0
M  V30 3445 N 325.182 1.32811 0.848464 0
M  V30 3446 C 326.112 1.24882 1.97299 0
M  V30 3447 C 327.093 0.131357 1.69592 0
M  V30 3448 O 328.278 0.319553 1.91553 0
M  V30 3449 C 325.408 0.97746 3.33261 0
M  V30 3450 C 324.362 2.05682 3.75338 0
M  V30 3451 C 323.688 1.63777 5.09 0
M  V30 3452 C 324.988 3.47254 3.90144 0
M  V30 3453 H 326.682 2.18966 2.04191 0
M  V30 3454 H 324.228 1.05413 0.981029 0
M  V30 3455 H 326.181 0.908513 4.1149 0
M  V30 3456 H 324.905 0.000980011 3.266 0
M  V30 3457 H 323.564 2.11603 2.99366 0
M  V30 3458 H 323.212 0.648569 4.98801 0
M  V30 3459 H 322.912 2.36 5.38124 0
M  V30 3460 H 324.436 1.5833 5.89715 0
M  V30 3461 H 325.85 3.43888 4.58709 0
M  V30 3462 H 324.247 4.1788 4.30693 0
M  V30 3463 H 325.317 3.86462 2.92874 0
M  V30 3464 N 326.66 -1.06551 1.16123 0
M  V30 3465 C 327.908 -1.78947 0.939267 0
M  V30 3466 C 328.229 -1.87532 -0.534476 0
M  V30 3467 O 327.499 -1.38211 -1.38833 0
M  V30 3468 H 326.079 -0.662807 0.344523 0
M  V30 3469 H 328.741 -1.28725 1.46342 0
M  V30 3470 H 327.837 -2.81117 1.35572 0
M  V30 3471 N 328.138 -0.959301 -1.25041 0
M  V30 3472 C 329.363 -0.633507 -1.97488 0
M  V30 3473 C 329.788 0.788555 -1.70773 0
M  V30 3474 O 329.146 1.53394 -0.966431 0
M  V30 3475 C 329.194 -0.904057 -3.49083 0
M  V30 3476 O 328.298 0.0147939 -4.12397 0
M  V30 3477 H 327.639 -0.240368 -0.618966 0
M  V30 3478 H 330.169 -1.28717 -1.59038 0
M  V30 3479 H 330.179 -0.832203 -3.99423 0
M  V30 3480 H 328.854 -1.94048 -3.67856 0
M  V30 3481 H 327.431 -0.109664 -3.72739 0
M  V30 3482 N 329.616 1.39756 -0.72842 0
M  V30 3483 C 330.546 2.33289 -0.0991354 0
M  V30 3484 C 331.527 1.53568 0.731489 0
M  V30 3485 O 332.712 1.81987 0.677807 0
M  V30 3486 C 329.842 3.3763 0.813834 0
M  V30 3487 C 328.796 4.2791 0.0878663 0
M  V30 3488 C 328.122 5.22894 1.11741 0
M  V30 3489 C 329.422 5.11314 -1.06563 0
M  V30 3490 H 331.116 2.86163 -0.880408 0
M  V30 3491 H 328.662 1.37591 -0.424819 0
M  V30 3492 H 330.615 4.0201 1.26355 0
M  V30 3493 H 329.339 2.83181 1.62715 0
M  V30 3494 H 327.998 3.65 -0.342159 0
M  V30 3495 H 327.646 4.64744 1.92412 0
M  V30 3496 H 327.346 5.84143 0.636477 0
M  V30 3497 H 328.87 5.90151 1.56697 0
M  V30 3498 H 330.284 5.69076 -0.694671 0
M  V30 3499 H 328.681 5.81671 -1.47577 0
M  V30 3500 H 329.751 4.46534 -1.89038 0
M  V30 3501 N 331.094 0.475555 1.50254 0
M  V30 3502 C 332.322 -0.0754493 2.06762 0
M  V30 3503 C 332.737 -1.33111 1.33891 0
M  V30 3504 O 332.094 -1.77846 0.40952 0
M  V30 3505 C 332.145 -0.359008 3.59713 0
M  V30 3506 O 331.866 0.846851 4.29837 0
M  V30 3507 C 333.367 -0.956484 4.32858 0
M  V30 3508 H 330.587 0.00907525 0.670939 0
M  V30 3509 H 333.131 0.665618 1.93364 0
M  V30 3510 H 331.286 -1.05001 3.72899 0
M  V30 3511 H 331.7 0.594162 5.21124 0
M  V30 3512 H 333.174 -1.10463 5.40834 0
M  V30 3513 H 333.651 -1.94775 3.93649 0
M  V30 3514 H 334.257 -0.303723 4.24214 0
M  V30 3515 N 332.573 -1.56217 0.208337 0
M  V30 3516 C 333.801 -2.02337 -0.43215 0
M  V30 3517 C 334.216 -1.08834 -1.54275 0
M  V30 3518 O 333.573 -0.0955462 -1.8225 0
M  V30 3519 C 333.624 -3.48072 -0.976138 0
M  V30 3520 O 333.345 -4.38007 0.0901621 0
M  V30 3521 C 334.846 -4.09773 -1.69119 0
M  V30 3522 H 332.066 -0.662385 -0.10718 0
M  V30 3523 H 334.61 -2.01966 0.320923 0
M  V30 3524 H 332.765 -3.49099 -1.67954 0
M  V30 3525 H 333.179 -5.23543 -0.316701 0
M  V30 3526 H 334.653 -5.13556 -2.02397 0
M  V30 3527 H 335.13 -3.53999 -2.59964 0
M  V30 3528 H 335.736 -4.12556 -1.03332 0
M  V30 3529 N 334.051 0.0651679 -1.57465 0
M  V30 3530 C 335.462 0.616213 -1.76238 0
M  V30 3531 C 335.813 1.7756 -0.834689 0
M  V30 3532 O 334.938 2.1639 -0.0204156 0
M  V30 3533 C 335.533 1.12462 -3.1959 0
M  V30 3534 C 334.092 1.62147 -3.39684 0
M  V30 3535 C 333.239 0.543739 -2.71917 0
M  V30 3536 H 336.19 -0.161022 -1.57881 0
M  V30 3537 H 336.211 1.99324 -3.24114 0
M  V30 3538 H 335.723 0.280592 -3.87084 0
M  V30 3539 H 333.824 2.48854 -2.77313 0
M  V30 3540 H 333.937 1.69385 -4.48158 0
M  V30 3541 H 332.301 0.990352 -2.34657 0
M  V30 3542 H 333.084 -0.290216 -3.42071 0
M  V30 3543 N 335.529 1.53961 0.336706 0
M  V30 3544 C 336.757 1.75483 1.09605 0
M  V30 3545 C 337.172 0.4972 1.82136 0
M  V30 3546 O 336.529 -0.53149 1.74589 0
M  V30 3547 C 336.58 2.93943 2.10428 0
M  V30 3548 O 336.301 4.14842 1.40846 0
M  V30 3549 C 337.802 3.27571 2.98684 0
M  V30 3550 H 335.022 0.586166 0.326574 0
M  V30 3551 H 337.566 2.00808 0.38683 0
M  V30 3552 H 335.721 2.70929 2.76905 0
M  V30 3553 H 336.135 4.81383 2.08255 0
M  V30 3554 H 337.609 4.13791 3.6535 0
M  V30 3555 H 338.086 2.44168 3.65074 0
M  V30 3556 H 338.692 3.52615 2.37787 0
M  V30 3557 N 337.007 -0.598083 1.45811 0
M  V30 3558 C 338.247 -1.36802 1.5187 0
M  V30 3559 C 338.611 -1.9133 0.160224 0
M  V30 3560 O 339.812 -2.6863 0.0955302 0
M  V30 3561 C 338.083 -2.47835 2.57513 0
M  V30 3562 S 339.642 -3.35458 2.82866 0
M  V30 3563 H 336.46 -0.466278 0.536755 0
M  V30 3564 H 339.062 -0.689152 1.82951 0
M  V30 3565 H 337.766 -2.06141 3.54872 0
M  V30 3566 H 337.297 -3.20512 2.28114 0
M  V30 3567 H 339.312 -4.46251 2.16967 0
M  V30 3568 N 338.485 -1.33259 -0.841409 0
M  V30 3569 C 339.762 -1.15174 -1.58096 0
M  V30 3570 C 340.142 0.282858 -2.09196 0
M  V30 3571 O 339.49 1.28151 -1.89181 0
M  V30 3572 C 339.7 -2.1907 -2.71679 0
M  V30 3573 C 341.048 -2.53093 -3.40924 0
M  V30 3574 O 342.072 -2.17717 -2.81918 0
M  V30 3575 O 340.931 -3.1379 -4.47435 0
M  V30 3576 H 338.025 -0.445303 -0.696875 0
M  V30 3577 H 340.571 -1.44833 -0.884385 0
M  V30 3578 H 339.343 -3.15443 -2.31541 0
M  V30 3579 H 338.966 -1.90481 -3.49002 0
M  V30 3580 N 339.963 1.05934 -1.16686 0
M  V30 3581 C 340.873 2.17014 -0.891183 0
M  V30 3582 C 341.889 1.73453 0.137907 0
M  V30 3583 O 343.065 2.01361 -0.039592 0
M  V30 3584 C 340.13 3.44384 -0.400099 0
M  V30 3585 C 339.191 4.02433 -1.49486 0
M  V30 3586 C 338.424 5.23723 -1.02711 0
M  V30 3587 O 338.647 5.7027 0.121716 0
M  V30 3588 O 337.581 5.7382 -1.81699 0
M  V30 3589 H 341.407 2.43113 -1.82015 0
M  V30 3590 H 338.992 1.15541 -0.947132 0
M  V30 3591 H 340.874 4.21189 -0.133392 0
M  V30 3592 H 339.549 3.19802 0.500817 0
M  V30 3593 H 338.456 3.27102 -1.81535 0
M  V30 3594 H 339.789 4.31317 -2.37121 0
M  V30 3595 N 341.441 0.965919 1.2453 0
M  V30 3596 C 342.388 0.49402 2.25451 0
M  V30 3597 C 343.358 -0.45948 1.59618 0
M  V30 3598 O 344.543 -0.370238 1.87173 0
M  V30 3599 C 341.683 -0.211359 3.44452 0
M  V30 3600 C 340.796 0.7807 4.24887 0
M  V30 3601 C 339.931 0.0516105 5.31175 0
M  V30 3602 C 338.97 1.03385 6.03306 0
M  V30 3603 N 338.107 0.334887 7.01301 0
M  V30 3604 H 342.947 1.35946 2.65184 0
M  V30 3605 H 340.484 0.681515 1.3036 0
M  V30 3606 H 342.442 -0.637 4.12308 0
M  V30 3607 H 341.072 -1.04077 3.05562 0
M  V30 3608 H 340.124 1.32479 3.56586 0
M  V30 3609 H 341.436 1.52978 4.74762 0
M  V30 3610 H 340.59 -0.432114 6.05159 0
M  V30 3611 H 339.329 -0.730179 4.82203 0
M  V30 3612 H 338.334 1.52847 5.28127 0
M  V30 3613 H 339.559 1.81606 6.54367 0
M  V30 3614 H 337.505 -0.427959 6.54603 0
M  V30 3615 H 337.422 1.02287 7.49048 0
M  V30 3616 H 338.69 -0.126928 7.79397 0
M  V30 3617 N 342.919 -1.39368 0.735821 0
M  V30 3618 C 344.165 -2.00794 0.284544 0
M  V30 3619 C 344.498 -1.58255 -1.12557 0
M  V30 3620 O 343.773 -0.811819 -1.76748 0
M  V30 3621 C 344.056 -3.58011 0.387337 0
M  V30 3622 C 343.909 -4.10566 1.83728 0
M  V30 3623 C 345.228 -4.395 -0.22975 0
M  V30 3624 H 342.347 -0.729501 0.104866 0
M  V30 3625 H 344.989 -1.65564 0.93213 0
M  V30 3626 H 343.139 -3.88154 -0.164006 0
M  V30 3627 H 344.811 -3.91139 2.44556 0
M  V30 3628 H 343.054 -3.64095 2.35833 0
M  V30 3629 H 343.725 -5.19702 1.86047 0
M  V30 3630 H 346.201 -4.15406 0.240257 0
M  V30 3631 H 345.077 -5.48752 -0.127485 0
M  V30 3632 H 345.338 -4.22062 -1.3159 0
M  V30 3633 N 344.397 -0.483516 -1.5 0
M  V30 3634 C 345.643 0.0672592 -2.02688 0
M  V30 3635 C 345.976 1.38247 -1.36387 0
M  V30 3636 O 345.251 1.88131 -0.493675 0
M  V30 3637 C 345.534 0.238109 -3.59312 0
M  V30 3638 C 345.387 -1.099 -4.36168 0
M  V30 3639 C 346.706 0.986916 -4.28892 0
M  V30 3640 H 343.825 0.0229696 -0.736642 0
M  V30 3641 H 346.467 -0.631527 -1.79197 0
M  V30 3642 H 344.617 0.8333 -3.79458 0
M  V30 3643 H 346.289 -1.73172 -4.27562 0
M  V30 3644 H 344.532 -1.69261 -3.99416 0
M  V30 3645 H 345.203 -0.932954 -5.44059 0
M  V30 3646 H 347.679 0.482302 -4.13295 0
M  V30 3647 H 346.555 1.07527 -5.38265 0
M  V30 3648 H 346.816 2.0265 -3.92919 0
M  V30 3649 N 345.875 1.56104 -0.216619 0
M  V30 3650 C 347.121 1.99219 0.410301 0
M  V30 3651 C 347.476 1.10169 1.57735 0
M  V30 3652 O 346.769 0.150598 1.91007 0
M  V30 3653 C 346.963 3.45923 0.898464 0
M  V30 3654 C 346.792 4.49163 -0.219748 0
M  V30 3655 C 345.562 5.00642 -0.684516 0
M  V30 3656 C 347.76 5.03751 -1.03629 0
M  V30 3657 N 345.742 5.87579 -1.7783 0
M  V30 3658 C 347.113 5.87566 -1.97904 0
M  V30 3659 C 349.168 4.86128 -1.07629 0
M  V30 3660 C 347.871 6.5564 -2.95851 0
M  V30 3661 C 349.897 5.54958 -2.04392 0
M  V30 3662 C 349.259 6.38536 -2.97407 0
M  V30 3663 H 345.358 0.773206 0.11695 0
M  V30 3664 H 347.942 1.9193 -0.327258 0
M  V30 3665 H 346.113 3.53669 1.6054 0
M  V30 3666 H 347.845 3.75963 1.49779 0
M  V30 3667 H 344.6 4.72807 -0.27399 0
M  V30 3668 H 345.024 6.3575 -2.32705 0
M  V30 3669 H 349.666 4.21168 -0.371099 0
M  V30 3670 H 347.384 7.19785 -3.67335 0
M  V30 3671 H 350.97 5.43289 -2.08154 0
M  V30 3672 H 349.85 6.90858 -3.71059 0
M  V30 3673 N 347.353 -0.0568162 1.57498 0
M  V30 3674 C 348.581 -0.765626 1.92213 0
M  V30 3675 C 348.996 -1.70353 0.813961 0
M  V30 3676 O 348.353 -1.81268 -0.211701 0
M  V30 3677 C 348.404 -1.5465 3.2675 0
M  V30 3678 O 348.125 -0.646278 4.33307 0
M  V30 3679 C 349.626 -2.35497 3.75574 0
M  V30 3680 H 346.846 -0.216835 0.634999 0
M  V30 3681 H 349.39 -0.0226146 2.04487 0
M  V30 3682 H 347.545 -2.24165 3.15957 0
M  V30 3683 H 347.959 -1.19093 5.108 0
M  V30 3684 H 349.433 -2.85722 4.72299 0
M  V30 3685 H 349.91 -3.15692 3.05344 0
M  V30 3686 H 350.516 -1.7111 3.8936 0
M  V30 3687 N 348.832 -1.54138 -0.328536 0
M  V30 3688 C 350.078 -1.7236 -1.06865 0
M  V30 3689 C 350.411 -0.493231 -1.87832 0
M  V30 3690 O 349.686 0.5098 -1.877 0
M  V30 3691 C 349.969 -2.99621 -1.99747 0
M  V30 3692 C 349.822 -4.32899 -1.22143 0
M  V30 3693 C 351.141 -3.22615 -2.99345 0
M  V30 3694 H 348.26 -0.627151 -0.387105 0
M  V30 3695 H 350.902 -1.86827 -0.345767 0
M  V30 3696 H 349.052 -2.87418 -2.61387 0
M  V30 3697 H 350.724 -4.56978 -0.630017 0
M  V30 3698 H 348.967 -4.30628 -0.523628 0
M  V30 3699 H 349.638 -5.18154 -1.90318 0
M  V30 3700 H 352.114 -3.34248 -2.47826 0
M  V30 3701 H 350.99 -4.13027 -3.61524 0
M  V30 3702 H 351.251 -2.3961 -3.71536 0
M  V30 3703 N 350.31 0.590341 -1.46126 0
M  V30 3704 C 351.557 1.34882 -1.5104 0
M  V30 3705 C 351.885 1.93849 -0.159021 0
M  V30 3706 O 351.14 1.76544 0.844436 0
M  V30 3707 C 351.439 2.5032 -2.55097 0
M  V30 3708 C 351.105 2.09394 -3.99331 0
M  V30 3709 C 349.767 1.97947 -4.38601 0
M  V30 3710 C 352.119 1.77712 -4.89967 0
M  V30 3711 C 349.447 1.53065 -5.66381 0
M  V30 3712 C 351.799 1.34312 -6.18177 0
M  V30 3713 C 350.463 1.21436 -6.56361 0
M  V30 3714 H 349.733 0.493568 -0.552695 0
M  V30 3715 H 352.38 0.665539 -1.79563 0
M  V30 3716 H 350.685 3.24062 -2.20207 0
M  V30 3717 H 352.382 3.08541 -2.56132 0
M  V30 3718 H 348.972 2.19235 -3.68285 0
M  V30 3719 H 353.156 1.85445 -4.60352 0
M  V30 3720 H 348.412 1.41733 -5.94745 0
M  V30 3721 H 352.586 1.08849 -6.87841 0
M  V30 3722 H 350.213 0.864345 -7.5527 0
M  V30 3723 N 351.788 1.33704 0.83433 0
M  V30 3724 C 353.204 1.13137 1.12571 0
M  V30 3725 C 353.404 -0.0747261 2.01361 0
M  V30 3726 O 352.46 -0.753647 2.4099 0
M  V30 3727 C 353.773 2.42105 1.78342 0
M  V30 3728 C 355.321 2.48054 1.90888 0
M  V30 3729 C 355.796 3.76995 2.60075 0
M  V30 3730 N 357.287 3.78092 2.67584 0
M  V30 3731 C 358.022 4.74574 3.21818 0
M  V30 3732 N 357.518 5.81434 3.76705 0
M  V30 3733 N 359.311 4.62044 3.20112 0
M  V30 3734 H 351.462 2.11 0.243489 0
M  V30 3735 H 353.725 0.932532 0.17055 0
M  V30 3736 H 353.431 3.30391 1.20561 0
M  V30 3737 H 353.305 2.54594 2.7832 0
M  V30 3738 H 355.692 1.60215 2.47821 0
M  V30 3739 H 355.773 2.39502 0.898459 0
M  V30 3740 H 355.417 4.65219 2.03799 0
M  V30 3741 H 355.347 3.82825 3.61597 0
M  V30 3742 H 357.838 3.00865 2.28667 0
M  V30 3743 H 358.151 6.51084 4.16305 0
M  V30 3744 H 356.496 5.85163 3.7498 0
M  V30 3745 H 359.687 3.77716 2.76493 0
M  V30 3746 H 359.86 5.37406 3.62076 0
M  V30 3747 N 353.266 -1.05314 1.17247 0
M  V30 3748 C 354.176 -2.16538 0.90268 0
M  V30 3749 C 355.192 -1.73523 -0.128707 0
M  V30 3750 O 356.368 -2.01337 0.0502701 0
M  V30 3751 C 353.433 -3.44167 0.418356 0
M  V30 3752 C 352.494 -4.01635 1.51618 0
M  V30 3753 C 351.727 -5.23171 1.05487 0
M  V30 3754 O 351.95 -5.70327 -0.0914715 0
M  V30 3755 O 350.884 -5.72848 1.8474 0
M  V30 3756 H 354.71 -2.42145 1.83302 0
M  V30 3757 H 352.295 -1.15037 0.953246 0
M  V30 3758 H 354.177 -4.21112 0.155726 0
M  V30 3759 H 352.852 -3.20063 -0.48385 0
M  V30 3760 H 351.759 -3.26135 1.83268 0
M  V30 3761 H 353.092 -4.30053 2.39405 0
M  V30 3762 N 354.744 -0.972509 -1.24016 0
M  V30 3763 C 356.155 -0.67517 -1.74064 0
M  V30 3764 C 356.506 0.808939 -1.78747 0
M  V30 3765 O 355.631 1.63286 -1.42009 0
M  V30 3766 C 356.226 -1.21889 -3.16115 0
M  V30 3767 C 354.785 -0.971358 -3.6365 0
M  V30 3768 C 353.932 -1.35134 -2.42145 0
M  V30 3769 H 356.883 -1.14727 -1.09651 0
M  V30 3770 H 356.904 -0.587489 -3.75937 0
M  V30 3771 H 356.416 -2.29906 -3.12674 0
M  V30 3772 H 354.517 0.0930686 -3.72484 0
M  V30 3773 H 354.63 -1.62039 -4.50866 0
M  V30 3774 H 352.994 -0.769751 -2.4279 0
M  V30 3775 H 353.777 -2.4411 -2.41381 0
M  V30 3776 N 356.222 1.38976 -0.743202 0
M  V30 3777 C 357.471 1.99581 -0.291592 0
M  V30 3778 C 357.784 1.59656 1.13001 0
M  V30 3779 O 358.99 2.13157 1.68156 0
M  V30 3780 C 357.446 3.56813 -0.470391 0
M  V30 3781 C 357.054 4.05695 -1.90041 0
M  V30 3782 C 358.798 4.24423 -0.0809709 0
M  V30 3783 C 356.705 5.5553 -2.02832 0
M  V30 3784 H 355.635 0.746615 -0.105272 0
M  V30 3785 H 358.286 1.58872 -0.918258 0
M  V30 3786 H 356.668 3.95359 0.225299 0
M  V30 3787 H 357.842 3.78464 -2.62872 0
M  V30 3788 H 356.157 3.50775 -2.24379 0
M  V30 3789 H 358.754 5.34474 -0.155445 0
M  V30 3790 H 359.097 4.04962 0.96497 0
M  V30 3791 H 359.63 3.9108 -0.728124 0
M  V30 3792 H 356.369 5.79881 -3.05643 0
M  V30 3793 H 355.889 5.84537 -1.34448 0
M  V30 3794 H 357.568 6.21069 -1.81335 0
M  V30 3795 N 357.7 0.491464 1.49741 0
M  V30 3796 C 358.632 -0.328609 2.26832 0
M  V30 3797 C 359.645 -0.939113 1.32983 0
M  V30 3798 O 360.834 -0.824067 1.58339 0
M  V30 3799 C 357.934 -1.47675 3.05033 0
M  V30 3800 C 357.107 -0.975305 4.26388 0
M  V30 3801 C 356.166 -1.99991 4.86714 0
M  V30 3802 O 355.192 -1.57229 5.47054 0
M  V30 3803 N 356.394 -3.32962 4.75517 0
M  V30 3804 H 359.159 0.332377 2.97851 0
M  V30 3805 H 356.72 0.323441 1.58636 0
M  V30 3806 H 358.712 -2.15954 3.42266 0
M  V30 3807 H 357.282 -2.04206 2.36683 0
M  V30 3808 H 356.502 -0.117723 3.94024 0
M  V30 3809 H 357.79 -0.618531 5.05026 0
M  V30 3810 H 357.188 -3.70399 4.27576 0
M  V30 3811 H 355.745 -3.96982 5.16961 0
M  V30 3812 N 359.178 -1.55987 0.224894 0
M  V30 3813 C 360.108 -2.23426 -0.678457 0
M  V30 3814 C 361.089 -1.20709 -1.19847 0
M  V30 3815 O 362.274 -1.49304 -1.24186 0
M  V30 3816 C 359.404 -2.91676 -1.88527 0
M  V30 3817 C 358.358 -4.00893 -1.49896 0
M  V30 3818 C 357.684 -4.56455 -2.78483 0
M  V30 3819 C 358.984 -5.17769 -0.686461 0
M  V30 3820 H 360.678 -2.99175 -0.116173 0
M  V30 3821 H 358.224 -1.43897 -0.054436 0
M  V30 3822 H 360.177 -3.37547 -2.5227 0
M  V30 3823 H 358.901 -2.1338 -2.47258 0
M  V30 3824 H 357.56 -3.55758 -0.884985 0
M  V30 3825 H 357.208 -3.74886 -3.35365 0
M  V30 3826 H 356.908 -5.30169 -2.53368 0
M  V30 3827 H 358.432 -5.05047 -3.43162 0
M  V30 3828 H 359.846 -5.60001 -1.22767 0
M  V30 3829 H 358.243 -5.97735 -0.532259 0
M  V30 3830 H 359.313 -4.83932 0.306196 0
M  V30 3831 N 360.656 0.0484629 -1.57525 0
M  V30 3832 C 361.606 1.06246 -2.01732 0
M  V30 3833 C 362.59 1.33155 -0.903245 0
M  V30 3834 O 363.782 1.33065 -1.16717 0
M  V30 3835 C 360.911 2.36943 -2.48421 0
M  V30 3836 C 359.997 2.13208 -3.6661 0
M  V30 3837 N 360.388 1.5947 -4.80003 0
M  V30 3838 C 358.686 2.43581 -3.7361 0
M  V30 3839 C 359.387 1.51092 -5.61735 0
M  V30 3840 N 358.363 1.9797 -5.0627 0
M  V30 3841 H 362.165 0.640675 -2.86832 0
M  V30 3842 H 359.679 0.255134 -1.60383 0
M  V30 3843 H 361.676 3.10374 -2.78341 0
M  V30 3844 H 360.336 2.79818 -1.64718 0
M  V30 3845 H 361.347 1.28008 -5.01831 0
M  V30 3846 H 358.024 2.89662 -3.00669 0
M  V30 3847 H 359.414 1.10199 -6.62801 0
M  V30 3848 N 362.134 1.5431 0.320358 0
M  V30 3849 C 363.55 1.45091 0.664889 0
M  V30 3850 C 363.75 0.626382 1.91517 0
M  V30 3851 O 362.806 0.126443 2.52183 0
M  V30 3852 C 364.119 2.88848 0.83591 0
M  V30 3853 C 365.667 2.9877 0.933046 0
M  V30 3854 C 366.142 4.43683 1.13621 0
M  V30 3855 N 367.633 4.47309 1.20287 0
M  V30 3856 C 368.368 5.56595 1.37801 0
M  V30 3857 N 367.864 6.75844 1.52338 0
M  V30 3858 N 369.657 5.44248 1.40535 0
M  V30 3859 H 361.808 2.06398 -0.501374 0
M  V30 3860 H 364.071 0.933963 -0.162534 0
M  V30 3861 H 363.777 3.51698 -0.0116092 0
M  V30 3862 H 363.651 3.35148 1.73078 0
M  V30 3863 H 366.038 2.36045 1.77107 0
M  V30 3864 H 366.119 2.55796 0.0145782 0
M  V30 3865 H 365.763 5.06995 0.303032 0
M  V30 3866 H 365.693 4.84269 2.0686 0
M  V30 3867 H 368.184 3.61388 1.10485 0
M  V30 3868 H 368.497 7.54892 1.65403 0
M  V30 3869 H 366.842 6.78746 1.4943 0
M  V30 3870 H 370.033 4.50038 1.28777 0
M  V30 3871 H 370.206 6.29473 1.53842 0
M  V30 3872 N 363.613 -0.582584 1.46437 0
M  V30 3873 C 364.523 -1.71949 1.59595 0
M  V30 3874 C 365.539 -1.67264 0.479443 0
M  V30 3875 O 366.715 -1.87171 0.743579 0
M  V30 3876 C 363.78 -3.08452 1.58298 0
M  V30 3877 C 362.841 -3.244 2.81182 0
M  V30 3878 C 362.074 -4.54391 2.79937 0
M  V30 3879 O 362.297 -5.38287 1.8869 0
M  V30 3880 O 361.231 -4.73588 3.71481 0
M  V30 3881 H 365.057 -1.63795 2.55744 0
M  V30 3882 H 362.642 -0.749643 1.29231 0
M  V30 3883 H 364.524 -3.89732 1.60271 0
M  V30 3884 H 363.199 -3.17043 0.653094 0
M  V30 3885 H 362.106 -2.42613 2.84763 0
M  V30 3886 H 363.439 -3.20699 3.7338 0
M  V30 3887 N 365.091 -1.34144 -0.827227 0
M  V30 3888 C 366.023 -1.21206 -1.9453 0
M  V30 3889 C 367.036 -0.140176 -1.62195 0
M  V30 3890 O 368.225 -0.391647 -1.7415 0
M  V30 3891 C 365.325 -0.839141 -3.28347 0
M  V30 3892 C 364.498 -2.0051 -3.88734 0
M  V30 3893 C 363.557 -1.61128 -5.00923 0
M  V30 3894 O 362.583 -2.32726 -5.19449 0
M  V30 3895 N 363.785 -0.522958 -5.7814 0
M  V30 3896 H 366.55 -2.17525 -2.06162 0
M  V30 3897 H 364.111 -1.27043 -1.00358 0
M  V30 3898 H 366.103 -0.557556 -4.00841 0
M  V30 3899 H 364.673 0.0337293 -3.12582 0
M  V30 3900 H 363.893 -2.45166 -3.08686 0
M  V30 3901 H 365.181 -2.78498 -4.25812 0
M  V30 3902 H 364.579 0.0723518 -5.65654 0
M  V30 3903 H 363.136 -0.301089 -6.51104 0
M  V30 3904 N 366.569 1.04691 -1.17803 0
M  V30 3905 C 367.818 1.77176 -0.963931 0
M  V30 3906 C 368.131 1.88888 0.508015 0
M  V30 3907 O 369.337 2.58164 0.840465 0
M  V30 3908 C 367.793 3.18518 -1.67555 0
M  V30 3909 C 367.401 3.14919 -3.18637 0
M  V30 3910 C 369.145 3.95424 -1.54402 0
M  V30 3911 C 367.052 4.51081 -3.82466 0
M  V30 3912 H 365.982 0.664116 -0.357023 0
M  V30 3913 H 368.633 1.17303 -1.4111 0
M  V30 3914 H 367.015 3.78748 -1.15613 0
M  V30 3915 H 368.189 2.64178 -3.77554 0
M  V30 3916 H 366.504 2.51512 -3.31859 0
M  V30 3917 H 369.101 4.96106 -1.99456 0
M  V30 3918 H 369.444 4.13343 -0.495329 0
M  V30 3919 H 369.977 3.41754 -2.0359 0
M  V30 3920 H 366.716 4.38368 -4.87354 0
M  V30 3921 H 366.236 5.01951 -3.28337 0
M  V30 3922 H 367.915 5.2001 -3.84965 0
M  V30 3923 N 368.047 0.979072 1.23499 0
M  V30 3924 C 368.977 0.537606 2.27227 0
M  V30 3925 C 369.958 -0.428539 1.64613 0
M  V30 3926 O 371.143 -0.322191 1.91509 0
M  V30 3927 C 368.273 -0.162052 3.46922 0
M  V30 3928 C 367.227 0.721242 4.21879 0
M  V30 3929 C 366.553 -0.110555 5.34586 0
M  V30 3930 C 367.853 2.01141 4.82016 0
M  V30 3931 H 369.547 1.40462 2.64406 0
M  V30 3932 H 367.093 0.67684 1.27102 0
M  V30 3933 H 369.046 -0.482192 4.18632 0
M  V30 3934 H 367.77 -1.06351 3.08799 0
M  V30 3935 H 366.429 1.02482 3.51984 0
M  V30 3936 H 366.077 -1.0125 4.92704 0
M  V30 3937 H 365.777 0.477325 5.85658 0
M  V30 3938 H 367.301 -0.425107 6.09118 0
M  V30 3939 H 368.715 1.75612 5.45741 0
M  V30 3940 H 367.112 2.54695 5.43369 0
M  V30 3941 H 368.182 2.69909 4.02836 0
M  V30 3942 N 369.525 -1.3858 0.750561 0
M  V30 3943 C 370.488 -2.28836 0.129152 0
M  V30 3944 C 371.488 -1.47045 -0.650714 0
M  V30 3945 O 372.678 -1.6753 -0.477428 0
M  V30 3946 C 369.81 -3.30751 -0.825622 0
M  V30 3947 H 371.003 -2.85294 0.924516 0
M  V30 3948 H 368.556 -1.47489 0.517376 0
M  V30 3949 H 369.291 -2.79378 -1.64677 0
M  V30 3950 H 369.076 -3.91177 -0.268852 0
M  V30 3951 H 370.566 -3.98249 -1.2565 0
M  V30 3952 N 371.003 -0.499398 -1.49478 0
M  V30 3953 C 372.25 0.0456899 -2.02448 0
M  V30 3954 C 372.578 1.37142 -1.37921 0
M  V30 3955 O 371.833 1.89111 -0.503544 0
M  V30 3956 C 372.132 0.248424 -3.56536 0
M  V30 3957 C 371.798 -0.999107 -4.39692 0
M  V30 3958 C 370.46 -1.34108 -4.62135 0
M  V30 3959 C 372.812 -1.82842 -4.88076 0
M  V30 3960 C 370.14 -2.51191 -5.30208 0
M  V30 3961 C 372.492 -2.99076 -5.57437 0
M  V30 3962 C 371.156 -3.33655 -5.78127 0
M  V30 3963 H 370.426 0.0167191 -0.740811 0
M  V30 3964 H 373.073 -0.65923 -1.79795 0
M  V30 3965 H 371.378 1.03586 -3.77859 0
M  V30 3966 H 373.075 0.684605 -3.95113 0
M  V30 3967 H 369.665 -0.722729 -4.22463 0
M  V30 3968 H 373.849 -1.57737 -4.70566 0
M  V30 3969 H 369.105 -2.78221 -5.44429 0
M  V30 3970 H 373.279 -3.63664 -5.93904 0
M  V30 3971 H 370.906 -4.24483 -6.30649 0
M  V30 3972 N 372.481 1.55866 -0.233164 0
M  V30 3973 C 373.706 2.03449 0.402906 0
M  V30 3974 C 374.131 1.11166 1.51736 0
M  V30 3975 O 373.489 0.101996 1.81013 0
M  V30 3976 C 373.537 3.49165 0.9009 0
M  V30 3977 O 372.641 3.60019 2.01147 0
M  V30 3978 H 371.982 0.657913 0.0897025 0
M  V30 3979 H 374.512 2.01493 -0.355201 0
M  V30 3980 H 374.522 3.89716 1.2077 0
M  V30 3981 H 373.197 4.15813 0.0852889 0
M  V30 3982 H 371.774 3.3136 1.71042 0
M  V30 3983 N 373.959 -0.0401083 1.57549 0
M  V30 3984 C 374.891 -1.07149 2.02612 0
M  V30 3985 C 375.904 -1.33126 0.937085 0
M  V30 3986 O 377.093 -1.30808 1.21456 0
M  V30 3987 C 374.193 -2.41561 2.37701 0
M  V30 3988 C 373.366 -2.35096 3.68848 0
M  V30 3989 C 372.425 -3.51867 3.91249 0
M  V30 3990 O 371.451 -3.3186 4.62447 0
M  V30 3991 N 372.653 -4.73351 3.36035 0
M  V30 3992 H 375.418 -0.687485 2.91708 0
M  V30 3993 H 372.979 -0.228248 1.60283 0
M  V30 3994 H 374.971 -3.18379 2.49833 0
M  V30 3995 H 373.541 -2.71846 1.54332 0
M  V30 3996 H 372.761 -1.4345 3.67173 0
M  V30 3997 H 374.049 -2.27908 4.54901 0
M  V30 3998 H 373.447 -4.92507 2.78304 0
M  V30 3999 H 372.004 -5.47572 3.53565 0
M  V30 4000 N 375.437 -1.54477 -0.31217 0
M  V30 4001 C 376.384 -1.84655 -1.38461 0
M  V30 4002 C 377.354 -0.694536 -1.50882 0
M  V30 4003 O 378.539 -0.942081 -1.6592 0
M  V30 4004 C 375.679 -2.0896 -2.74645 0
M  V30 4005 C 374.792 -3.36618 -2.70763 0
M  V30 4006 C 373.927 -3.50824 -3.98868 0
M  V30 4007 C 372.966 -4.72315 -3.89339 0
M  V30 4008 N 372.103 -4.83387 -5.09197 0
M  V30 4009 H 376.943 -2.76142 -1.12026 0
M  V30 4010 H 374.48 -1.36748 -0.542065 0
M  V30 4011 H 376.438 -2.21045 -3.53829 0
M  V30 4012 H 375.068 -1.20752 -2.99364 0
M  V30 4013 H 374.12 -3.33211 -1.83506 0
M  V30 4014 H 375.432 -4.25917 -2.59608 0
M  V30 4015 H 374.586 -3.62513 -4.86486 0
M  V30 4016 H 373.325 -2.59638 -4.12843 0
M  V30 4017 H 372.33 -4.6067 -3.00105 0
M  V30 4018 H 373.555 -5.64897 -3.76919 0
M  V30 4019 H 371.501 -3.9512 -5.23657 0
M  V30 4020 H 371.418 -5.66669 -5.00422 0
M  V30 4021 H 372.686 -4.9942 -5.98498 0
M  V30 4022 N 376.915 0.57481 -1.46744 0
M  V30 4023 C 377.845 1.69337 -1.60771 0
M  V30 4024 C 378.826 1.63825 -0.457736 0
M  V30 4025 O 380.011 1.8172 -0.684947 0
M  V30 4026 C 377.141 3.0798 -1.60517 0
M  V30 4027 C 376.095 3.28327 -2.74564 0
M  V30 4028 C 375.421 4.67578 -2.59373 0
M  V30 4029 C 376.721 3.15398 -4.16319 0
M  V30 4030 H 378.415 1.57853 -2.54407 0
M  V30 4031 H 375.961 0.75799 -1.22436 0
M  V30 4032 H 377.914 3.86061 -1.68923 0
M  V30 4033 H 376.638 3.20381 -0.634305 0
M  V30 4034 H 375.297 2.52649 -2.65639 0
M  V30 4035 H 374.945 4.76755 -1.60353 0
M  V30 4036 H 374.645 4.82144 -3.35873 0
M  V30 4037 H 376.169 5.47817 -2.69682 0
M  V30 4038 H 377.583 3.83315 -4.26313 0
M  V30 4039 H 375.98 3.41482 -4.93468 0
M  V30 4040 H 377.05 2.12372 -4.3592 0
M  V30 4041 N 378.394 1.34581 0.820102 0
M  V30 4042 C 379.624 1.29991 1.6058 0
M  V30 4043 C 380.032 -0.127588 1.88769 0
M  V30 4044 O 379.375 -1.08595 1.48165 0
M  V30 4045 C 379.437 2.02548 2.9701 0
M  V30 4046 C 379.101 3.51794 2.91701 0
M  V30 4047 C 380.098 4.46647 2.66087 0
M  V30 4048 C 377.783 3.94249 3.11245 0
M  V30 4049 C 379.777 5.81929 2.60071 0
M  V30 4050 C 377.464 5.2963 3.04853 0
M  V30 4051 C 378.462 6.23282 2.793 0
M  V30 4052 O 378.15 7.56181 2.72847 0
M  V30 4053 H 377.882 0.448539 0.505756 0
M  V30 4054 H 380.436 1.77811 1.02822 0
M  V30 4055 H 378.666 1.49345 3.56697 0
M  V30 4056 H 380.355 1.91211 3.58041 0
M  V30 4057 H 381.121 4.15168 2.5072 0
M  V30 4058 H 377 3.21749 3.30149 0
M  V30 4059 H 380.544 6.54999 2.40046 0
M  V30 4060 H 376.441 5.60727 3.19774 0
M  V30 4061 H 377.209 7.6595 2.88553 0
M  V30 4062 N 379.872 -1.04064 1.18357 0
M  V30 4063 C 381.102 -1.80654 1.00238 0
M  V30 4064 C 381.51 -1.83713 -0.452362 0
M  V30 4065 O 380.853 -1.27135 -1.32599 0
M  V30 4066 C 380.915 -3.27582 1.48088 0
M  V30 4067 C 380.579 -3.48184 2.96002 0
M  V30 4068 C 381.576 -3.39372 3.93856 0
M  V30 4069 C 379.261 -3.7478 3.34433 0
M  V30 4070 C 381.255 -3.5686 5.28138 0
M  V30 4071 C 378.942 -3.91915 4.68877 0
M  V30 4072 C 379.94 -3.82956 5.65539 0
M  V30 4073 O 379.628 -3.996 6.97549 0
M  V30 4074 H 379.36 -0.575751 0.354241 0
M  V30 4075 H 381.914 -1.32044 1.57333 0
M  V30 4076 H 380.144 -3.77161 0.853588 0
M  V30 4077 H 381.833 -3.8573 1.2636 0
M  V30 4078 H 382.599 -3.18789 3.65511 0
M  V30 4079 H 378.478 -3.80852 2.59756 0
M  V30 4080 H 382.022 -3.49783 6.03571 0
M  V30 4081 H 377.919 -4.11992 4.96923 0
M  V30 4082 H 378.687 -4.1676 7.04452 0
M  V30 4083 N 381.35 -0.985608 -1.22978 0
M  V30 4084 C 382.627 -0.573599 -1.87001 0
M  V30 4085 C 383.007 0.949213 -1.88555 0
M  V30 4086 O 382.355 1.82811 -1.37086 0
M  V30 4087 C 382.565 -1.18564 -3.28243 0
M  V30 4088 C 383.913 -1.28163 -4.04796 0
M  V30 4089 O 384.937 -1.13949 -3.37482 0
M  V30 4090 O 383.796 -1.50832 -5.25273 0
M  V30 4091 H 380.89 -0.193868 -0.803955 0
M  V30 4092 H 383.436 -1.08102 -1.30813 0
M  V30 4093 H 382.208 -2.22758 -3.21706 0
M  V30 4094 H 381.831 -0.663363 -3.92027 0
M  V30 4095 N 382.828 1.3818 -0.7579 0
M  V30 4096 C 383.775 2.30416 -0.133057 0
M  V30 4097 C 384.745 1.50398 0.704957 0
M  V30 4098 O 385.93 1.79014 0.660192 0
M  V30 4099 C 383.07 3.36834 0.750813 0
M  V30 4100 C 382.183 4.31879 -0.102297 0
M  V30 4101 C 381.318 5.25368 0.784979 0
M  V30 4102 C 380.357 6.12058 -0.0715046 0
M  V30 4103 N 379.494 6.97832 0.772972 0
M  V30 4104 H 384.334 2.83274 -0.925186 0
M  V30 4105 H 381.871 1.39461 -0.467866 0
M  V30 4106 H 383.829 3.97145 1.27794 0
M  V30 4107 H 382.459 2.85374 1.50868 0
M  V30 4108 H 381.511 3.72991 -0.747095 0
M  V30 4109 H 382.823 4.92921 -0.763552 0
M  V30 4110 H 381.977 5.90818 1.37911 0
M  V30 4111 H 380.716 4.64703 1.47996 0
M  V30 4112 H 379.721 5.456 -0.678272 0
M  V30 4113 H 380.946 6.74793 -0.763606 0
M  V30 4114 H 378.892 6.3971 1.45282 0
M  V30 4115 H 378.809 7.55812 0.168709 0
M  V30 4116 H 380.077 7.67687 1.35194 0
M  V30 4117 N 384.306 0.507319 1.49211 0
M  V30 4118 C 385.216 -0.272136 2.33016 0
M  V30 4119 C 386.232 -0.961206 1.45041 0
M  V30 4120 O 387.408 -0.941191 1.78055 0
M  V30 4121 C 384.473 -1.31895 3.20631 0
M  V30 4122 C 383.534 -0.642648 4.24463 0
M  V30 4123 C 382.767 -1.63959 5.07891 0
M  V30 4124 O 382.99 -2.87007 4.92933 0
M  V30 4125 O 381.924 -1.19143 5.8999 0
M  V30 4126 H 385.75 0.413982 3.00865 0
M  V30 4127 H 383.335 0.268556 1.46966 0
M  V30 4128 H 385.217 -1.92446 3.7489 0
M  V30 4129 H 383.892 -1.98788 2.5547 0
M  V30 4130 H 382.799 0.00276252 3.741 0
M  V30 4131 H 384.132 -0.0160534 4.92197 0
M  V30 4132 N 385.784 -1.5574 0.241426 0
M  V30 4133 C 386.716 -2.18469 -0.693091 0
M  V30 4134 C 387.729 -1.15942 -1.14286 0
M  V30 4135 O 388.918 -1.42832 -1.07058 0
M  V30 4136 C 386.018 -2.7696 -1.95311 0
M  V30 4137 C 385.191 -4.04853 -1.65568 0
M  V30 4138 C 384.25 -4.47715 -2.76474 0
M  V30 4139 O 383.276 -5.14205 -2.44094 0
M  V30 4140 N 384.478 -4.15044 -4.05855 0
M  V30 4141 H 387.243 -2.99292 -0.156388 0
M  V30 4142 H 384.804 -1.61784 0.0611752 0
M  V30 4143 H 386.796 -3.02594 -2.68736 0
M  V30 4144 H 385.366 -2.00326 -2.39975 0
M  V30 4145 H 384.586 -3.86865 -0.756886 0
M  V30 4146 H 385.874 -4.88246 -1.43153 0
M  V30 4147 H 385.272 -3.61654 -4.34998 0
M  V30 4148 H 383.829 -4.45526 -4.75762 0
M  V30 4149 N 387.262 0.0317525 -1.57568 0
M  V30 4150 C 388.49 0.734949 -1.93407 0
M  V30 4151 C 388.905 1.69036 -0.84096 0
M  V30 4152 O 388.262 1.81582 0.182836 0
M  V30 4153 C 388.313 1.49432 -3.29169 0
M  V30 4154 O 388.034 0.577261 -4.3428 0
M  V30 4155 C 389.535 2.29492 -3.79273 0
M  V30 4156 H 386.755 0.206706 -0.638368 0
M  V30 4157 H 389.299 -0.00992046 -2.04498 0
M  V30 4158 H 387.454 2.1911 -3.19483 0
M  V30 4159 H 387.868 1.10952 -5.1263 0
M  V30 4160 H 389.342 2.78172 -4.76785 0
M  V30 4161 H 389.819 3.10794 -3.10328 0
M  V30 4162 H 390.425 1.64894 -3.92033 0
M  V30 4163 N 388.74 1.54641 0.303973 0
M  V30 4164 C 389.986 1.74038 1.04109 0
M  V30 4165 C 390.319 0.523051 1.87024 0
M  V30 4166 O 389.594 -0.479874 1.88487 0
M  V30 4167 C 389.877 3.02761 1.94955 0
M  V30 4168 C 389.73 4.34787 1.1524 0
M  V30 4169 C 391.049 3.27336 2.94175 0
M  V30 4170 H 388.168 0.63323 0.377079 0
M  V30 4171 H 390.81 1.87354 0.316001 0
M  V30 4172 H 388.96 2.9154 2.56782 0
M  V30 4173 H 390.632 4.57922 0.557236 0
M  V30 4174 H 388.875 4.31407 0.455053 0
M  V30 4175 H 389.546 5.21116 1.8205 0
M  V30 4176 H 392.022 3.38148 2.42477 0
M  V30 4177 H 390.898 4.18726 3.54908 0
M  V30 4178 H 391.159 2.45491 3.67677 0
M  V30 4179 N 390.218 -0.567019 1.47046 0
M  V30 4180 C 391.443 -1.3551 1.57009 0
M  V30 4181 C 391.868 -1.86841 0.217259 0
M  V30 4182 O 391.226 -1.62435 -0.805268 0
M  V30 4183 C 391.274 -2.50777 2.5912 0
M  V30 4184 O 390.378 -3.52706 2.13711 0
M  V30 4185 H 389.719 -0.402919 0.52778 0
M  V30 4186 H 392.249 -0.686241 1.92748 0
M  V30 4187 H 392.259 -2.97481 2.79229 0
M  V30 4188 H 390.934 -2.12771 3.57353 0
M  V30 4189 H 389.511 -3.12374 2.03659 0
M  V30 4190 N 391.696 -1.35014 -0.812953 0
M  V30 4191 C 392.629 -1.21761 -1.93001 0
M  V30 4192 C 393.607 -0.10694 -1.62248 0
M  V30 4193 O 394.791 -0.273891 -1.865 0
M  V30 4194 C 391.918 -0.873404 -3.27245 0
M  V30 4195 C 390.964 -1.99523 -3.76952 0
M  V30 4196 S 391.797 -3.61009 -3.95516 0
M  V30 4197 C 392.953 -3.28651 -5.32672 0
M  V30 4198 H 393.186 -2.16315 -2.03948 0
M  V30 4199 H 390.719 -1.20156 -0.969631 0
M  V30 4200 H 392.677 -0.68161 -4.04802 0
M  V30 4201 H 391.338 0.053971 -3.14054 0
M  V30 4202 H 390.531 -1.70838 -4.74163 0
M  V30 4203 H 390.133 -2.14503 -3.06373 0
M  V30 4204 H 392.425 -2.81085 -6.1644 0
M  V30 4205 H 393.368 -4.25039 -5.66346 0
M  V30 4206 H 393.776 -2.6458 -4.98656 0
M  V30 4207 N 393.175 1.03435 -1.18907 0
M  V30 4208 C 394.122 2.11591 -0.921837 0
M  V30 4209 C 395.092 1.65499 0.141226 0
M  V30 4210 O 396.277 1.908 0.000242829 0
M  V30 4211 C 393.417 3.42012 -0.460616 0
M  V30 4212 C 392.53 4.01682 -1.58982 0
M  V30 4213 C 391.665 5.20091 -1.08069 0
M  V30 4214 C 390.704 5.71805 -2.18416 0
M  V30 4215 N 389.841 6.81494 -1.68849 0
M  V30 4216 H 394.681 2.33787 -1.8479 0
M  V30 4217 H 392.218 1.1467 -0.921373 0
M  V30 4218 H 394.176 4.16834 -0.174642 0
M  V30 4219 H 392.806 3.19944 0.428467 0
M  V30 4220 H 391.858 3.24127 -1.99113 0
M  V30 4221 H 393.17 4.36084 -2.4214 0
M  V30 4222 H 392.324 6.02051 -0.749615 0
M  V30 4223 H 391.063 4.87209 -0.218771 0
M  V30 4224 H 390.068 4.88461 -2.5236 0
M  V30 4225 H 391.293 6.06728 -3.05054 0
M  V30 4226 H 389.239 6.50475 -0.849572 0
M  V30 4227 H 389.156 7.14994 -2.45601 0
M  V30 4228 H 390.424 7.67063 -1.38689 0
M  V30 4229 N 394.653 0.992116 1.22453 0
M  V30 4230 C 395.93 0.583508 1.86694 0
M  V30 4231 C 396.31 -0.9392 1.89056 0
M  V30 4232 O 395.658 -1.82081 1.38053 0
M  V30 4233 C 395.868 1.20304 3.2761 0
M  V30 4234 C 397.216 1.30308 4.0411 0
M  V30 4235 O 398.24 1.15737 3.36873 0
M  V30 4236 O 397.099 1.53615 5.24466 0
M  V30 4237 H 394.193 0.198129 0.802916 0
M  V30 4238 H 396.739 1.08794 1.30238 0
M  V30 4239 H 395.511 2.24461 3.2052 0
M  V30 4240 H 395.134 0.684144 3.9167 0
M  V30 4241 N 396.131 -1.37776 0.765217 0
M  V30 4242 C 397.079 -2.32209 0.134798 0
M  V30 4243 C 398.073 -1.54607 -0.692315 0
M  V30 4244 O 399.279 -1.70052 -0.590109 0
M  V30 4245 H 395.654 -0.751591 0.0248005 0
M  V30 4246 H 397.625 -2.8297 0.947119 0
M  V30 4247 C 396.374 -3.39841 -0.735063 0
M  V30 4248 H 395.697 -3.99654 -0.107991 0
M  V30 4249 H 397.137 -4.08296 -1.14326 0
M  V30 4250 C 395.596 -2.79378 -1.88281 0
M  V30 4251 O 396.126 -2.69608 -2.97783 0
M  V30 4252 N 394.332 -2.37016 -1.68142 0
M  V30 4253 H 393.879 -2.45162 -0.790772 0
M  V30 4254 H 393.837 -1.96905 -2.45104 0
M  V30 4255 N 397.609 -0.515225 -1.4894 0
M  V30 4256 C 398.855 0.0242508 -2.02785 0
M  V30 4257 C 399.188 1.35323 -1.39289 0
M  V30 4258 O 398.463 1.87041 -0.533469 0
M  V30 4259 C 398.746 0.16184 -3.59736 0
M  V30 4260 C 398.599 -1.19127 -4.33738 0
M  V30 4261 C 399.918 0.895719 -4.30888 0
M  V30 4262 H 397.037 0.00733914 -0.736963 0
M  V30 4263 H 399.679 -0.669395 -1.77818 0
M  V30 4264 H 397.829 0.752624 -3.8114 0
M  V30 4265 H 399.501 -1.82202 -4.23792 0
M  V30 4266 H 397.744 -1.77695 -3.95736 0
M  V30 4267 H 398.415 -1.04815 -5.41957 0
M  V30 4268 H 400.891 0.394528 -4.14225 0
M  V30 4269 H 399.767 0.960859 -5.40425 0
M  V30 4270 H 400.028 1.9427 -3.97129 0
M  V30 4271 N 399.087 1.5561 -0.249682 0
M  V30 4272 C 400.503 1.59254 0.105103 0
M  V30 4273 C 400.703 1.26685 1.56694 0
M  V30 4274 O 399.759 1.0155 2.31179 0
M  V30 4275 C 401.072 2.99687 -0.246592 0
M  V30 4276 C 402.62 3.12416 -0.191118 0
M  V30 4277 C 403.095 4.55074 -0.516885 0
M  V30 4278 N 404.586 4.60835 -0.467489 0
M  V30 4279 C 405.321 5.69201 -0.69268 0
M  V30 4280 N 404.817 6.85817 -0.981146 0
M  V30 4281 N 406.61 5.58635 -0.623198 0
M  V30 4282 H 398.761 1.75049 -1.20298 0
M  V30 4283 H 401.024 0.815003 -0.484225 0
M  V30 4284 H 400.73 3.28267 -1.26228 0
M  V30 4285 H 400.604 3.74798 0.424962 0
M  V30 4286 H 402.991 2.83615 0.815247 0
M  V30 4287 H 403.072 2.39573 -0.896563 0
M  V30 4288 H 402.716 4.84596 -1.52082 0
M  V30 4289 H 402.646 5.26181 0.210068 0
M  V30 4290 H 405.137 3.7705 -0.253373 0
M  V30 4291 H 405.45 7.64341 -1.14032 0
M  V30 4292 H 403.795 6.87494 -1.01865 0
M  V30 4293 H 406.986 4.66406 -0.397863 0
M  V30 4294 H 407.159 6.43017 -0.802093 0
M  V30 4295 N 400.565 -0.0233959 1.57583 0
M  V30 4296 C 401.976 -0.56927 1.77809 0
M  V30 4297 C 402.327 -1.75284 0.881472 0
M  V30 4298 O 401.452 -2.1626 0.0777805 0
M  V30 4299 C 402.047 -1.03949 3.22459 0
M  V30 4300 C 400.606 -1.53084 3.43864 0
M  V30 4301 C 399.753 -0.471454 2.73263 0
M  V30 4302 H 402.704 0.202825 1.57399 0
M  V30 4303 H 402.725 -1.90661 3.29285 0
M  V30 4304 H 402.237 -0.177865 3.87692 0
M  V30 4305 H 400.338 -2.41414 2.83814 0
M  V30 4306 H 400.451 -1.57443 4.52491 0
M  V30 4307 H 398.815 -0.927788 2.37201 0
M  V30 4308 H 399.598 0.380808 3.41181 0
M  V30 4309 N 402.043 -1.548 -0.295768 0
M  V30 4310 C 402.973 -1.89115 -1.36959 0
M  V30 4311 C 403.954 -0.75059 -1.52644 0
M  V30 4312 O 405.139 -1.00678 -1.66065 0
M  V30 4313 C 402.269 -2.14307 -2.73295 0
M  V30 4314 C 401.223 -3.30151 -2.72368 0
M  V30 4315 C 400.549 -3.40772 -4.12042 0
M  V30 4316 C 401.849 -4.67126 -2.33646 0
M  V30 4317 H 403.543 -2.79053 -1.08488 0
M  V30 4318 H 401.089 -1.34266 -0.520443 0
M  V30 4319 H 403.042 -2.36898 -3.48507 0
M  V30 4320 H 401.766 -1.21145 -3.03301 0
M  V30 4321 H 400.425 -3.0749 -1.99613 0
M  V30 4322 H 400.073 -2.45117 -4.39234 0
M  V30 4323 H 399.773 -4.18645 -4.12322 0
M  V30 4324 H 401.297 -3.6563 -4.89027 0
M  V30 4325 H 402.711 -4.89414 -2.98575 0
M  V30 4326 H 401.108 -5.47751 -2.45129 0
M  V30 4327 H 402.178 -4.67489 -1.28772 0
M  V30 4328 N 403.521 0.559213 -1.47345 0
M  V30 4329 C 404.453 1.68161 -1.55738 0
M  V30 4330 C 405.466 1.56636 -0.443744 0
M  V30 4331 O 406.655 1.6363 -0.713258 0
M  V30 4332 C 403.755 3.06611 -1.4437 0
M  V30 4333 C 402.928 3.4391 -2.70268 0
M  V30 4334 C 401.987 4.61515 -2.52765 0
M  V30 4335 O 401.013 4.66197 -3.26572 0
M  V30 4336 N 402.215 5.57883 -1.6046 0
M  V30 4337 H 404.98 1.61408 -2.52522 0
M  V30 4338 H 402.541 0.7458 -1.43699 0
M  V30 4339 H 404.533 3.83117 -1.30398 0
M  V30 4340 H 403.103 3.07602 -0.556766 0
M  V30 4341 H 402.323 2.56873 -2.99015 0
M  V30 4342 H 403.611 3.65605 -3.53851 0
M  V30 4343 H 403.009 5.56855 -0.996422 0
M  V30 4344 H 401.566 6.33723 -1.52441 0
M  V30 4345 N 404.999 1.35443 0.805782 0
M  V30 4346 C 405.931 1.24285 1.92577 0
M  V30 4347 C 406.944 0.165962 1.61952 0
M  V30 4348 O 408.133 0.419303 1.73505 0
M  V30 4349 C 405.233 0.891272 3.2697 0
M  V30 4350 C 404.406 2.06669 3.85495 0
M  V30 4351 C 403.465 1.69077 4.98297 0
M  V30 4352 O 402.491 2.4096 5.15681 0
M  V30 4353 N 403.693 0.614869 5.77234 0
M  V30 4354 H 406.458 2.20777 2.02676 0
M  V30 4355 H 404.019 1.28623 0.983243 0
M  V30 4356 H 406.011 0.621256 3.99903 0
M  V30 4357 H 404.581 0.016004 3.12596 0
M  V30 4358 H 403.801 2.50046 3.04747 0
M  V30 4359 H 405.089 2.85237 4.21328 0
M  V30 4360 H 404.487 0.017648 5.65697 0
M  V30 4361 H 403.044 0.404636 6.50543 0
M  V30 4362 N 406.477 -1.02803 1.19454 0
M  V30 4363 C 407.407 -2.12999 0.956758 0
M  V30 4364 C 408.388 -1.69743 -0.110188 0
M  V30 4365 O 409.573 -1.94148 0.0450038 0
M  V30 4366 C 406.703 -3.43746 0.495553 0
M  V30 4367 C 405.657 -4.00688 1.50443 0
M  V30 4368 C 404.983 -5.27067 0.900275 0
M  V30 4369 C 406.283 -4.35397 2.8849 0
M  V30 4370 H 407.977 -2.33148 1.87836 0
M  V30 4371 H 405.523 -1.12045 0.904539 0
M  V30 4372 H 407.476 -4.2021 0.316493 0
M  V30 4373 H 406.2 -3.23321 -0.461646 0
M  V30 4374 H 404.859 -3.2632 1.67065 0
M  V30 4375 H 404.507 -5.02959 -0.064503 0
M  V30 4376 H 404.207 -5.66127 1.57397 0
M  V30 4377 H 405.731 -6.06196 0.73203 0
M  V30 4378 H 407.145 -5.02795 2.75446 0
M  V30 4379 H 405.542 -4.85541 3.52661 0
M  V30 4380 H 406.612 -3.44662 3.41081 0
M  V30 4381 N 407.956 -0.998596 -1.21925 0
M  V30 4382 C 409.204 -0.676325 -1.90448 0
M  V30 4383 C 409.525 0.794719 -1.78071 0
M  V30 4384 O 408.795 1.5701 -1.17152 0
M  V30 4385 H 407.375 -0.247165 -0.704925 0
M  V30 4386 H 410.037 -1.26633 -1.48156 0
M  V30 4387 H 409.133 -0.943858 -2.97486 0
M  V30 4388 N 409.434 1.37368 -0.772513 0
M  V30 4389 C 410.366 2.28899 -0.117502 0
M  V30 4390 C 411.379 1.4867 0.663405 0
M  V30 4391 O 412.568 1.71314 0.501372 0
M  V30 4392 C 409.668 3.2788 0.857192 0
M  V30 4393 C 408.841 4.37207 0.129938 0
M  V30 4394 C 407.9 5.16257 1.01811 0
M  V30 4395 O 406.926 5.67159 0.481601 0
M  V30 4396 N 408.128 5.31058 2.3443 0
M  V30 4397 H 410.893 2.85752 -0.903662 0
M  V30 4398 H 408.454 1.49353 -0.62493 0
M  V30 4399 H 410.446 3.77647 1.45482 0
M  V30 4400 H 409.016 2.7179 1.54432 0
M  V30 4401 H 408.236 3.88827 -0.648605 0
M  V30 4402 H 409.524 5.07434 -0.372559 0
M  V30 4403 H 408.922 4.91287 2.80452 0
M  V30 4404 H 407.479 5.84131 2.89197 0
M  V30 4405 N 410.912 0.523116 1.48665 0
M  V30 4406 C 412.328 0.180511 1.58576 0
M  V30 4407 C 412.528 -1.31597 1.52592 0
M  V30 4408 O 411.584 -2.0937 1.4114 0
M  V30 4409 C 412.897 0.776949 2.90489 0
M  V30 4410 C 414.445 0.745058 3.04003 0
M  V30 4411 C 414.92 1.31995 4.38567 0
M  V30 4412 N 416.411 1.28162 4.45117 0
M  V30 4413 C 417.146 1.6964 5.47731 0
M  V30 4414 N 416.642 2.18816 6.57337 0
M  V30 4415 N 418.435 1.6092 5.38573 0
M  V30 4416 H 410.586 1.4958 1.50797 0
M  V30 4417 H 412.849 0.621772 0.715614 0
M  V30 4418 H 412.555 1.82732 3.00503 0
M  V30 4419 H 412.429 0.25007 3.7637 0
M  V30 4420 H 414.816 -0.296532 2.93606 0
M  V30 4421 H 414.897 1.30933 2.1975 0
M  V30 4422 H 414.541 2.36043 4.49718 0
M  V30 4423 H 414.471 0.731418 5.21496 0
M  V30 4424 H 416.962 0.92155 3.66491 0
M  V30 4425 H 417.275 2.48478 7.31764 0
M  V30 4426 H 415.62 2.22805 6.58318 0
M  V30 4427 H 418.811 1.22304 4.5184 0
M  V30 4428 H 418.984 1.93567 6.18414 0
M  V30 4429 N 412.39 -1.55475 0.257931 0
M  V30 4430 C 413.618 -2.03609 -0.367559 0
M  V30 4431 C 414.033 -1.13687 -1.50734 0
M  V30 4432 O 413.39 -0.153479 -1.81853 0
M  V30 4433 C 413.441 -3.51001 -0.864908 0
M  V30 4434 O 413.162 -4.37499 0.229465 0
M  V30 4435 C 414.663 -4.14946 -1.55997 0
M  V30 4436 H 411.883 -0.665459 -0.0860521 0
M  V30 4437 H 414.427 -2.00843 0.385014 0
M  V30 4438 H 412.582 -3.54266 -1.56762 0
M  V30 4439 H 412.996 -5.24286 -0.14998 0
M  V30 4440 H 414.47 -5.19735 -1.85956 0
M  V30 4441 H 414.947 -3.6209 -2.4857 0
M  V30 4442 H 415.553 -4.15635 -0.901543 0
M  V30 4443 N 413.868 0.0150385 -1.57593 0
M  V30 4444 C 415.114 0.704043 -1.90187 0
M  V30 4445 C 415.447 1.74249 -0.857366 0
M  V30 4446 O 414.722 1.94092 0.125843 0
M  V30 4447 C 415.005 1.36087 -3.33395 0
M  V30 4448 C 414.858 0.334981 -4.48551 0
M  V30 4449 C 416.177 2.29112 -3.7576 0
M  V30 4450 H 413.296 0.254475 -0.691673 0
M  V30 4451 H 415.938 -0.0331678 -1.89971 0
M  V30 4452 H 414.088 1.98922 -3.3371 0
M  V30 4453 H 415.76 -0.292534 -4.60372 0
M  V30 4454 H 414.003 -0.344325 -4.32431 0
M  V30 4455 H 414.674 0.833316 -5.45674 0
M  V30 4456 H 417.15 1.76308 -3.76902 0
M  V30 4457 H 416.026 2.72043 -4.76743 0
M  V30 4458 H 416.287 3.16385 -3.08793 0
M  V30 4459 N 415.346 1.54954 0.287554 0
M  V30 4460 C 416.595 1.74081 1.01877 0
M  V30 4461 C 416.908 0.541135 1.87966 0
M  V30 4462 O 418.114 0.614491 2.64455 0
M  V30 4463 C 416.57 3.08042 1.86113 0
M  V30 4464 C 416.178 4.35531 1.04961 0
M  V30 4465 C 417.922 3.36523 2.58752 0
M  V30 4466 C 415.829 5.60538 1.88551 0
M  V30 4467 H 414.759 0.64884 0.384087 0
M  V30 4468 H 417.41 1.81426 0.275101 0
M  V30 4469 H 415.792 2.94696 2.64519 0
M  V30 4470 H 416.966 4.59751 0.31074 0
M  V30 4471 H 415.281 4.14085 0.43843 0
M  V30 4472 H 417.878 4.27122 3.21668 0
M  V30 4473 H 418.221 2.56 3.28283 0
M  V30 4474 H 418.754 3.50901 1.87386 0
M  V30 4475 H 415.493 6.43767 1.23466 0
M  V30 4476 H 415.013 5.40483 2.60074 0
M  V30 4477 H 416.692 5.98297 2.46273 0
M  V30 4478 N 416.824 -0.551391 1.4764 0
M  V30 4479 C 417.771 -1.65796 1.60563 0
M  V30 4480 C 418.741 -1.59932 0.448428 0
M  V30 4481 O 419.926 -1.78679 0.669222 0
M  V30 4482 C 417.066 -3.04108 1.63133 0
M  V30 4483 C 416.179 -3.20365 2.89811 0
M  V30 4484 C 415.314 -4.49109 2.8368 0
M  V30 4485 C 414.353 -4.58819 4.05156 0
M  V30 4486 N 413.49 -5.78926 3.97227 0
M  V30 4487 H 418.33 -1.54088 2.5507 0
M  V30 4488 H 415.867 -0.75052 1.26513 0
M  V30 4489 H 417.825 -3.84207 1.62606 0
M  V30 4490 H 416.455 -3.14637 0.721341 0
M  V30 4491 H 415.507 -2.33659 3.00179 0
M  V30 4492 H 416.819 -3.23402 3.79753 0
M  V30 4493 H 415.973 -5.37475 2.81434 0
M  V30 4494 H 414.712 -4.4856 1.91431 0
M  V30 4495 H 413.717 -3.68864 4.077 0
M  V30 4496 H 414.942 -4.61124 4.98539 0
M  V30 4497 H 412.888 -5.79314 3.07785 0
M  V30 4498 H 412.805 -5.83367 4.80853 0
M  V30 4499 H 414.073 -6.69637 3.99007 0
M  V30 4500 N 418.302 -1.35869 -0.798587 0
M  V30 4501 C 419.527 -1.32883 -1.59238 0
M  V30 4502 C 419.952 0.0894587 -1.87887 0
M  V30 4503 O 419.31 1.05869 -1.47178 0
M  V30 4504 C 419.358 -2.14892 -2.89575 0
M  V30 4505 O 418.462 -1.53512 -3.82763 0
M  V30 4506 H 417.803 -0.455236 -0.48338 0
M  V30 4507 H 420.333 -1.79024 -0.990539 0
M  V30 4508 H 420.343 -2.27139 -3.38928 0
M  V30 4509 H 419.018 -3.17998 -2.68049 0
M  V30 4510 H 417.595 -1.50153 -3.41334 0
M  V30 4511 N 419.78 1.02168 -1.19998 0
M  V30 4512 C 421.028 1.75338 -1.00504 0
M  V30 4513 C 421.349 1.89387 0.464506 0
M  V30 4514 O 420.619 1.43268 1.33608 0
M  V30 4515 H 419.199 0.649564 -0.368885 0
M  V30 4516 H 421.861 1.23205 -1.51018 0
M  V30 4517 H 420.957 2.75892 -1.45912 0
M  V30 4518 N 421.258 1.00505 1.21394 0
M  V30 4519 C 422.221 0.570459 2.21987 0
M  V30 4520 C 423.221 -0.353211 1.56873 0
M  V30 4521 O 424.411 -0.14349 1.73608 0
M  V30 4522 C 421.543 -0.168555 3.40483 0
M  V30 4523 H 422.736 1.46021 2.6195 0
M  V30 4524 H 420.289 0.793565 1.34656 0
M  V30 4525 H 421.024 -1.07374 3.06009 0
M  V30 4526 H 420.809 0.494823 3.88965 0
M  V30 4527 H 422.299 -0.460362 4.15055 0
M  V30 4528 N 422.737 -1.36956 0.779787 0
M  V30 4529 C 424.148 -1.82094 0.412156 0
M  V30 4530 C 424.499 -1.64926 -1.06273 0
M  V30 4531 O 423.624 -1.16483 -1.82375 0
M  V30 4532 C 424.219 -3.3059 0.741319 0
M  V30 4533 C 422.778 -3.73974 0.426641 0
M  V30 4534 C 421.925 -2.59368 0.980987 0
M  V30 4535 H 424.876 -1.25314 0.973758 0
M  V30 4536 H 424.897 -3.80489 0.028887 0
M  V30 4537 H 424.409 -3.43054 1.81482 0
M  V30 4538 H 422.51 -3.67076 -0.639215 0
M  V30 4539 H 422.623 -4.69778 0.940515 0
M  V30 4540 H 420.987 -2.51463 0.404757 0
M  V30 4541 H 421.77 -2.74621 2.06005 0
M  V30 4542 N 424.215 -0.530993 -1.48385 0
M  V30 4543 C 425.463 0.00273189 -2.021 0
M  V30 4544 C 425.784 1.34672 -1.41027 0
M  V30 4545 O 425.054 1.8724 -0.576012 0
M  V30 4546 H 423.634 0.00399774 -0.746989 0
M  V30 4547 H 426.296 -0.695054 -1.82085 0
M  V30 4548 H 425.392 0.11031 -3.11905 0
M  V30 4549 N 425.693 1.55336 -0.266172 0
M  V30 4550 C 427.109 1.59356 0.0882065 0
M  V30 4551 C 427.309 1.2834 1.55342 0
M  V30 4552 O 426.365 1.03996 2.30089 0
M  V30 4553 C 427.678 2.99409 -0.278364 0
M  V30 4554 C 429.226 3.12196 -0.224243 0
M  V30 4555 C 429.701 4.545 -0.565123 0
M  V30 4556 N 431.192 4.60313 -0.51634 0
M  V30 4557 C 431.927 5.68434 -0.753013 0
M  V30 4558 N 431.423 6.84738 -1.05383 0
M  V30 4559 N 433.216 5.57942 -0.682414 0
M  V30 4560 H 425.367 1.73764 -1.22147 0
M  V30 4561 H 427.63 0.809822 -0.492841 0
M  V30 4562 H 427.336 3.2691 -1.29703 0
M  V30 4563 H 427.21 3.75228 0.385186 0
M  V30 4564 H 429.597 2.84464 0.78512 0
M  V30 4565 H 429.678 2.38609 -0.921922 0
M  V30 4566 H 429.322 4.82956 -1.57213 0
M  V30 4567 H 429.252 5.26374 0.154248 0
M  V30 4568 H 431.743 3.7676 -0.29335 0
M  V30 4569 H 432.056 7.63088 -1.22133 0
M  V30 4570 H 430.401 6.86375 -1.09151 0
M  V30 4571 H 433.592 4.65958 -0.44731 0
M  V30 4572 H 433.765 6.4213 -0.870248 0
M  V30 4573 N 427.171 -0.0066808 1.57599 0
M  V30 4574 C 428.582 -0.550379 1.78403 0
M  V30 4575 C 428.933 -1.74339 0.900014 0
M  V30 4576 O 428.058 -2.16166 0.100713 0
M  V30 4577 C 428.653 -1.00523 3.23544 0
M  V30 4578 C 427.212 -1.49428 3.45468 0
M  V30 4579 C 426.359 -0.442444 2.73748 0
M  V30 4580 H 429.31 0.219508 1.57175 0
M  V30 4581 H 429.331 -1.87157 3.31289 0
M  V30 4582 H 428.843 -0.136735 3.87859 0
M  V30 4583 H 426.944 -2.3839 2.86358 0
M  V30 4584 H 427.057 -1.52635 4.54136 0
M  V30 4585 H 425.421 -0.902578 2.38171 0
M  V30 4586 H 426.204 0.416973 3.40758 0
M  V30 4587 N 428.649 -1.55105 -0.279332 0
M  V30 4588 C 429.579 -1.90557 -1.34945 0
M  V30 4589 C 430.56 -0.766738 -1.51839 0
M  V30 4590 O 431.745 -1.02434 -1.64988 0
M  V30 4591 C 428.875 -2.17193 -2.71006 0
M  V30 4592 C 427.829 -3.33021 -2.68851 0
M  V30 4593 C 427.155 -3.45123 -4.08405 0
M  V30 4594 C 428.455 -4.69578 -2.28678 0
M  V30 4595 H 430.149 -2.80188 -1.05522 0
M  V30 4596 H 427.695 -1.34811 -0.506173 0
M  V30 4597 H 429.648 -2.40581 -3.45975 0
M  V30 4598 H 428.372 -1.24355 -3.01999 0
M  V30 4599 H 427.031 -3.0959 -1.9634 0
M  V30 4600 H 426.679 -2.49762 -4.3661 0
M  V30 4601 H 426.379 -4.22995 -4.07859 0
M  V30 4602 H 427.903 -3.70796 -4.85121 0
M  V30 4603 H 429.317 -4.92553 -2.93368 0
M  V30 4604 H 427.714 -5.5032 -2.39306 0
M  V30 4605 H 428.784 -4.68828 -1.23807 0
M  V30 4606 N 430.127 0.543554 -1.4793 0
M  V30 4607 C 431.538 1.12561 -1.48953 0
M  V30 4608 C 431.889 1.94578 -0.251754 0
M  V30 4609 O 431.014 2.0665 0.642255 0
M  V30 4610 C 431.609 2.04801 -2.69892 0
M  V30 4611 C 430.168 2.58251 -2.73831 0
M  V30 4612 C 429.315 1.34918 -2.42265 0
M  V30 4613 H 432.266 0.32947 -1.55242 0
M  V30 4614 H 432.287 2.88886 -2.47639 0
M  V30 4615 H 431.799 1.4508 -3.59963 0
M  V30 4616 H 429.9 3.21732 -1.87934 0
M  V30 4617 H 430.013 2.98312 -3.74895 0
M  V30 4618 H 428.377 1.66046 -1.93134 0
M  V30 4619 H 429.16 0.769693 -3.3456 0
M  V30 4620 N 431.605 1.3629 0.791371 0
M  V30 4621 C 432.851 1.31613 1.5508 0
M  V30 4622 C 433.206 -0.104372 1.92117 0
M  V30 4623 O 432.499 -1.05845 1.5971 0
M  V30 4624 C 432.693 2.17068 2.8393 0
M  V30 4625 C 432.522 3.67285 2.59484 0
M  V30 4626 C 431.292 4.36469 2.54604 0
M  V30 4627 C 433.49 4.60595 2.28816 0
M  V30 4628 N 431.472 5.7234 2.22036 0
M  V30 4629 C 432.843 5.847 2.06218 0
M  V30 4630 C 434.898 4.4918 2.14806 0
M  V30 4631 C 433.601 6.98671 1.71028 0
M  V30 4632 C 435.627 5.63017 1.81014 0
M  V30 4633 C 434.989 6.86159 1.59263 0
M  V30 4634 H 431.088 0.536878 0.568582 0
M  V30 4635 H 433.672 1.71323 0.925007 0
M  V30 4636 H 431.843 1.79605 3.44378 0
M  V30 4637 H 433.575 2.03795 3.49642 0
M  V30 4638 H 430.33 3.89249 2.69782 0
M  V30 4639 H 430.754 6.44093 2.08503 0
M  V30 4640 H 435.396 3.54564 2.30313 0
M  V30 4641 H 433.114 7.9324 1.54259 0
M  V30 4642 H 436.7 5.56146 1.70861 0
M  V30 4643 H 435.58 7.72753 1.335 0
M  V30 4644 N 433.083 -1.0153 1.20538 0
M  V30 4645 C 434.046 -2.0826 0.957098 0
M  V30 4646 C 435.046 -1.60657 -0.0678655 0
M  V30 4647 O 436.236 -1.73385 0.168332 0
M  V30 4648 C 433.368 -3.38033 0.441188 0
M  V30 4649 H 434.561 -2.31719 1.90384 0
M  V30 4650 H 432.114 -1.1835 1.02093 0
M  V30 4651 H 432.849 -3.20249 -0.510961 0
M  V30 4652 H 432.634 -3.73911 1.18038 0
M  V30 4653 H 434.124 -4.16613 0.287009 0
M  V30 4654 N 434.561 -1.01147 -1.20859 0
M  V30 4655 C 435.491 -0.597663 -2.25722 0
M  V30 4656 C 436.472 0.384744 -1.65692 0
M  V30 4657 O 437.657 0.271303 -1.92296 0
M  V30 4658 C 434.787 0.0700149 -3.47229 0
M  V30 4659 C 433.741 -0.832843 -4.19819 0
M  V30 4660 C 433.067 -0.0312202 -5.34691 0
M  V30 4661 C 434.367 -2.1385 -4.76514 0
M  V30 4662 H 436.061 -1.47423 -2.60589 0
M  V30 4663 H 433.607 -0.710301 -1.25263 0
M  V30 4664 H 435.56 0.37103 -4.19763 0
M  V30 4665 H 434.284 0.981259 -3.11511 0
M  V30 4666 H 432.943 -1.11778 -3.49144 0
M  V30 4667 H 432.591 0.881515 -4.95215 0
M  V30 4668 H 432.291 -0.632434 -5.84187 0
M  V30 4669 H 433.815 0.26346 -6.10031 0
M  V30 4670 H 435.229 -1.9002 -5.40893 0
M  V30 4671 H 433.626 -2.69012 -5.36426 0
M  V30 4672 H 434.696 -2.80495 -3.95538 0
M  V30 4673 N 436.039 1.36541 -0.78704 0
M  V30 4674 C 437.45 1.81873 -0.421807 0
M  V30 4675 C 437.801 1.65487 1.05397 0
M  V30 4676 O 436.926 1.17448 1.81755 0
M  V30 4677 C 437.521 3.30192 -0.758841 0
M  V30 4678 C 436.08 3.73743 -0.446468 0
M  V30 4679 C 435.227 2.58844 -0.994728 0
M  V30 4680 H 438.178 1.24796 -0.98039 0
M  V30 4681 H 438.199 3.80468 -0.0490648 0
M  V30 4682 H 437.711 3.42087 -1.83299 0
M  V30 4683 H 435.812 3.6741 0.619739 0
M  V30 4684 H 435.925 4.69272 -0.965415 0
M  V30 4685 H 434.289 2.51245 -0.418087 0
M  V30 4686 H 435.072 2.73525 -2.07458 0
M  V30 4687 N 437.518 0.538854 1.48102 0
M  V30 4688 C 438.481 -0.208395 2.28251 0
M  V30 4689 C 439.481 -0.859656 1.35892 0
M  V30 4690 O 440.671 -0.71834 1.58699 0
M  V30 4691 C 437.803 -1.30252 3.15035 0
M  V30 4692 H 438.996 0.495407 2.9578 0
M  V30 4693 H 436.549 0.295112 1.53489 0
M  V30 4694 H 437.284 -2.0393 2.52157 0
M  V30 4695 H 437.069 -0.840551 3.82985 0
M  V30 4696 H 438.559 -1.82787 3.75471 0
M  V30 4697 N 438.996 -1.55193 0.274407 0
M  V30 4698 C 439.926 -2.25471 -0.607032 0
M  V30 4699 C 440.907 -1.24461 -1.15946 0
M  V30 4700 O 442.092 -1.53179 -1.19373 0
M  V30 4701 C 439.222 -2.97526 -1.79153 0
M  V30 4702 C 438.176 -4.05459 -1.37067 0
M  V30 4703 C 437.502 -4.65084 -2.6382 0
M  V30 4704 C 438.802 -5.19691 -0.521389 0
M  V30 4705 H 440.496 -2.99393 -0.0209343 0
M  V30 4706 H 438.042 -1.43997 -0.00862866 0
M  V30 4707 H 439.995 -3.45402 -2.41404 0
M  V30 4708 H 438.719 -2.21138 -2.40344 0
M  V30 4709 H 437.378 -3.58393 -0.771355 0
M  V30 4710 H 437.026 -3.85365 -3.23268 0
M  V30 4711 H 436.726 -5.37961 -2.36372 0
M  V30 4712 H 438.25 -5.15708 -3.26921 0
M  V30 4713 H 439.664 -5.63623 -1.04889 0
M  V30 4714 H 438.061 -5.99126 -0.341825 0
M  V30 4715 H 439.131 -4.82713 0.46 0
M  V30 4716 N 440.474 -0.00167713 -1.576 0
M  V30 4717 C 441.404 0.988091 -2.11563 0
M  V30 4718 C 442.385 1.35736 -1.02517 0
M  V30 4719 O 443.57 1.44082 -1.30208 0
M  V30 4720 C 440.7 2.27941 -2.62031 0
M  V30 4721 C 439.654 2.0517 -3.75619 0
M  V30 4722 C 438.98 3.4033 -4.12407 0
M  V30 4723 C 440.28 1.41294 -5.02825 0
M  V30 4724 H 441.974 0.538771 -2.94513 0
M  V30 4725 H 439.52 0.257712 -1.41675 0
M  V30 4726 H 441.473 2.97539 -2.9841 0
M  V30 4727 H 440.197 2.74989 -1.76205 0
M  V30 4728 H 438.856 1.37998 -3.39635 0
M  V30 4729 H 438.504 3.85085 -3.23603 0
M  V30 4730 H 438.204 3.25909 -4.88935 0
M  V30 4731 H 439.728 4.1124 -4.51347 0
M  V30 4732 H 441.142 2.00851 -5.36965 0
M  V30 4733 H 439.539 1.37356 -5.84169 0
M  V30 4734 H 440.609 0.382362 -4.8339 0
M  V30 4735 N 441.952 1.55251 0.271103 0
M  V30 4736 C 443.2 1.75599 1.00047 0
M  V30 4737 C 443.521 0.561188 1.8675 0
M  V30 4738 O 442.791 -0.423846 1.9126 0
M  V30 4739 H 441.371 0.647562 0.372387 0
M  V30 4740 H 444.033 1.92656 0.294876 0
M  V30 4741 H 443.129 2.65766 1.6363 0
M  V30 4742 N 443.43 -0.535701 1.48216 0
M  V30 4743 C 444.841 -1.11769 1.49548 0
M  V30 4744 C 445.192 -1.94442 0.26207 0
M  V30 4745 O 444.317 -2.06987 -0.631287 0
M  V30 4746 C 444.912 -2.03367 2.70975 0
M  V30 4747 C 443.471 -2.56795 2.75196 0
M  V30 4748 C 442.618 -1.33631 2.42977 0
M  V30 4749 H 445.569 -0.321232 1.55415 0
M  V30 4750 H 445.59 -2.87569 2.49167 0
M  V30 4751 H 445.102 -1.43169 3.60727 0
M  V30 4752 H 443.203 -3.20731 1.89638 0
M  V30 4753 H 443.316 -2.9632 3.76472 0
M  V30 4754 H 441.68 -1.6502 1.94012 0
M  V30 4755 H 442.463 -0.75194 3.34964 0
M  V30 4756 N 444.908 -1.36708 -0.784132 0
M  V30 4757 C 445.841 -1.25827 -1.90375 0
M  V30 4758 C 446.819 -0.141331 -1.61985 0
M  V30 4759 O 448.003 -0.313389 -1.85877 0
M  V30 4760 C 445.13 -0.942621 -3.25319 0
M  V30 4761 C 444.176 -2.07474 -3.72635 0
M  V30 4762 S 445.009 -3.69317 -3.8777 0
M  V30 4763 C 446.165 -3.39876 -5.25581 0
M  V30 4764 H 446.398 -2.20593 -1.99314 0
M  V30 4765 H 443.931 -1.22186 -0.943926 0
M  V30 4766 H 445.889 -0.767321 -4.03265 0
M  V30 4767 H 444.55 -0.0126566 -3.14097 0
M  V30 4768 H 443.743 -1.80858 -4.70432 0
M  V30 4769 H 443.345 -2.20953 -3.01754 0
M  V30 4770 H 445.637 -2.94097 -6.10339 0
M  V30 4771 H 446.58 -4.36956 -5.57203 0
M  V30 4772 H 446.988 -2.75098 -4.92931 0
M  V30 4773 N 446.386 1.0089 -1.21074 0
M  V30 4774 C 447.316 2.1145 -0.990523 0
M  V30 4775 C 448.297 1.69897 0.0831699 0
M  V30 4776 O 449.482 1.94052 -0.0758853 0
M  V30 4777 C 446.612 3.42914 -0.550177 0
M  V30 4778 C 445.566 3.98244 -1.56799 0
M  V30 4779 C 444.892 5.25568 -0.984013 0
M  V30 4780 C 446.192 4.30752 -2.95381 0
M  V30 4781 H 447.886 2.3013 -1.91521 0
M  V30 4782 H 445.432 1.10592 -0.92225 0
M  V30 4783 H 447.385 4.19653 -0.383305 0
M  V30 4784 H 446.109 3.24014 0.41015 0
M  V30 4785 H 444.768 3.23621 -1.72236 0
M  V30 4786 H 444.416 5.02998 -0.0155216 0
M  V30 4787 H 444.116 5.63551 -1.66384 0
M  V30 4788 H 445.64 6.04955 -0.828378 0
M  V30 4789 H 447.054 4.98349 -2.8341 0
M  V30 4790 H 445.451 4.79869 -3.60341 0
M  V30 4791 H 446.521 3.39192 -3.46521 0
M  V30 4792 N 447.864 1.01787 1.20321 0
M  V30 4793 C 448.827 0.593972 2.2137 0
M  V30 4794 C 449.827 -0.336553 1.57239 0
M  V30 4795 O 451.017 -0.125069 1.7375 0
M  V30 4796 C 448.149 -0.132433 3.40643 0
M  V30 4797 H 449.342 1.48791 2.60387 0
M  V30 4798 H 446.895 0.807803 1.33807 0
M  V30 4799 H 447.63 -1.04123 3.0713 0
M  V30 4800 H 447.415 0.53605 3.88418 0
M  V30 4801 H 448.905 -0.416314 4.1552 0
M  V30 4802 N 449.342 -1.36122 0.79427 0
M  V30 4803 C 450.582 -2.00942 0.374376 0
M  V30 4804 C 450.946 -1.61666 -1.03577 0
M  V30 4805 O 452.147 -2.19113 -1.55701 0
M  V30 4806 C 450.418 -3.53323 0.538327 0
M  V30 4807 S 451.977 -4.38311 0.20703 0
M  V30 4808 H 448.795 -0.696515 0.142785 0
M  V30 4809 H 451.397 -1.65929 1.03382 0
M  V30 4810 H 450.101 -3.79395 1.56484 0
M  V30 4811 H 449.632 -3.93162 -0.136882 0
M  V30 4812 H 451.647 -4.8623 -0.989695 0
M  V30 4813 N 450.82 -0.546701 -1.47814 0
M  V30 4814 C 451.75 0.195317 -2.32682 0
M  V30 4815 C 452.731 0.918981 -1.43139 0
M  V30 4816 O 453.916 0.901501 -1.72008 0
M  V30 4817 C 451.046 1.23237 -3.247 0
M  V30 4818 C 450 0.625818 -4.234 0
M  V30 4819 C 449.326 1.76674 -5.04669 0
M  V30 4820 C 450.626 -0.413515 -5.2066 0
M  V30 4821 H 452.32 -0.513184 -2.94969 0
M  V30 4822 H 449.866 -0.248241 -1.41844 0
M  V30 4823 H 451.819 1.75955 -3.82907 0
M  V30 4824 H 450.543 1.97067 -2.60446 0
M  V30 4825 H 449.202 0.120023 -3.66403 0
M  V30 4826 H 448.85 2.49383 -4.36826 0
M  V30 4827 H 448.55 1.36673 -5.71484 0
M  V30 4828 H 450.074 2.29738 -5.65732 0
M  V30 4829 H 451.488 0.0272042 -5.73294 0
M  V30 4830 H 449.885 -0.731825 -5.95621 0
M  V30 4831 H 450.955 -1.31325 -4.66778 0
M  V30 4832 N 452.299 1.55045 -0.282633 0
M  V30 4833 C 453.229 2.2579 0.595066 0
M  V30 4834 C 454.21 1.25074 1.15284 0
M  V30 4835 O 455.395 1.5381 1.18559 0
M  V30 4836 C 452.525 2.98472 1.77572 0
M  V30 4837 C 451.479 4.0618 1.34914 0
M  V30 4838 C 450.805 4.66477 2.6135 0
M  V30 4839 C 452.105 5.1996 0.493821 0
M  V30 4840 H 453.799 2.994 0.00505653 0
M  V30 4841 H 451.345 1.44 0.000992001 0
M  V30 4842 H 453.298 3.46677 2.39568 0
M  V30 4843 H 452.022 2.2241 2.39168 0
M  V30 4844 H 450.681 3.58797 0.752338 0
M  V30 4845 H 450.329 3.87074 3.2122 0
M  V30 4846 H 450.029 5.39207 2.33516 0
M  V30 4847 H 451.553 5.17435 3.24181 0
M  V30 4848 H 452.967 5.64172 1.01898 0
M  V30 4849 H 451.364 5.99299 0.310047 0
M  V30 4850 H 452.434 4.82462 -0.485593 0
M  V30 4851 N 453.777 0.010035 1.57597 0
M  V30 4852 C 454.74 -0.963029 2.07986 0
M  V30 4853 C 455.74 -1.26619 0.991173 0
M  V30 4854 O 456.93 -1.2097 1.25347 0
M  V30 4855 C 454.062 -2.2851 2.52974 0
M  V30 4856 H 455.255 -0.526971 2.95234 0
M  V30 4857 H 452.808 -0.237639 1.54483 0
M  V30 4858 H 453.543 -2.76784 1.69 0
M  V30 4859 H 453.328 -2.07824 3.32493 0
M  V30 4860 H 454.818 -2.98294 2.9225 0
M  V30 4861 N 455.255 -1.55392 -0.262866 0
M  V30 4862 C 456.503 -1.76127 -0.991147 0
M  V30 4863 C 456.824 -0.571083 -1.8645 0
M  V30 4864 O 456.094 0.413698 -1.91482 0
M  V30 4865 H 454.674 -0.649528 -0.368948 0
M  V30 4866 H 457.336 -1.9281 -0.284655 0
M  V30 4867 H 456.432 -2.6663 -1.62219 0
M  V30 4868 N 456.733 0.527833 -1.48498 0
M  V30 4869 C 457.98 1.28354 -1.56625 0
M  V30 4870 C 458.308 1.93 -0.241096 0
M  V30 4871 O 457.563 1.79967 0.768798 0
M  V30 4872 C 457.862 2.39275 -2.65485 0
M  V30 4873 C 457.528 1.92268 -4.07853 0
M  V30 4874 C 456.19 1.79166 -4.46602 0
M  V30 4875 C 458.542 1.56771 -4.97064 0
M  V30 4876 C 455.87 1.28905 -5.72364 0
M  V30 4877 C 458.222 1.07972 -6.23318 0
M  V30 4878 C 456.886 0.934887 -6.60921 0
M  V30 4879 H 456.156 0.469682 -0.573131 0
M  V30 4880 H 458.803 0.588781 -1.82224 0
M  V30 4881 H 457.108 3.1443 -2.33754 0
M  V30 4882 H 458.805 2.974 -2.68988 0
M  V30 4883 H 455.395 2.03417 -3.77252 0
M  V30 4884 H 459.579 1.65753 -4.67803 0
M  V30 4885 H 454.835 1.16381 -6.00221 0
M  V30 4886 H 459.009 0.795775 -6.91838 0
M  V30 4887 H 456.636 0.543231 -7.58257 0
M  V30 4888 N 458.211 1.37122 0.776871 0
M  V30 4889 C 459.141 1.35164 1.90402 0
M  V30 4890 C 460.122 0.221069 1.68657 0
M  V30 4891 O 461.307 0.420642 1.8959 0
M  V30 4892 C 458.437 1.15274 3.27611 0
M  V30 4893 C 457.391 2.25289 3.63908 0
M  V30 4894 C 456.717 1.90527 4.99603 0
M  V30 4895 C 458.017 3.67446 3.71188 0
M  V30 4896 H 459.711 2.29482 1.92297 0
M  V30 4897 H 457.257 1.10465 0.923773 0
M  V30 4898 H 459.21 1.12536 4.06096 0
M  V30 4899 H 457.934 0.174102 3.26136 0
M  V30 4900 H 456.593 2.27174 2.87728 0
M  V30 4901 H 456.241 0.91206 4.94662 0
M  V30 4902 H 455.941 2.64193 5.24858 0
M  V30 4903 H 457.465 1.89367 5.80493 0
M  V30 4904 H 458.879 3.67719 4.39836 0
M  V30 4905 H 457.276 4.40123 4.07936 0
M  V30 4906 H 458.346 4.01443 2.71977 0
M  V30 4907 N 459.689 -1.00246 1.21608 0
M  V30 4908 C 461.105 -1.26435 0.973975 0
M  V30 4909 C 461.305 -1.98642 -0.338143 0
M  V30 4910 O 460.361 -2.29026 -1.06317 0
M  V30 4911 C 461.674 -2.08551 2.16626 0
M  V30 4912 C 463.222 -2.21769 2.20879 0
M  V30 4913 C 463.697 -3.07267 3.39633 0
M  V30 4914 N 465.188 -3.14855 3.39736 0
M  V30 4915 C 465.923 -3.81274 4.28273 0
M  V30 4916 N 465.419 -4.497 5.27012 0
M  V30 4917 N 467.212 -3.7794 4.16074 0
M  V30 4918 H 459.363 -0.518089 2.05984 0
M  V30 4919 H 461.626 -0.291368 0.902113 0
M  V30 4920 H 461.332 -1.62847 3.11727 0
M  V30 4921 H 461.206 -3.09303 2.15897 0
M  V30 4922 H 463.593 -2.66691 1.26332 0
M  V30 4923 H 463.674 -1.20478 2.25652 0
M  V30 4924 H 463.318 -2.63047 4.34475 0
M  V30 4925 H 463.248 -4.08678 3.321 0
M  V30 4926 H 465.739 -2.66147 2.6828 0
M  V30 4927 H 466.052 -4.98092 5.90867 0
M  V30 4928 H 464.397 -4.48479 5.30935 0
M  V30 4929 H 467.588 -3.23638 3.38195 0
M  V30 4930 H 467.761 -4.29424 4.85282 0
M  V30 4931 O 461.206 -1.15084 -1.13305 0
M  V30 4932 H 461.897 -0.875834 -1.72768 0
M  V30 END ATOM
M  V30 BEGIN BOND
M  V30 END BOND
M  V30 END CTAB
M  END
$$$$
