drugbank_target|Q07075 Glutamyl aminopeptidase (DB00142)
 OpenBabel12092120083D

  0  0  0     0  0            999 V3000
M  V30 BEGIN CTAB
M  V30 COUNTS 15218 15416 0 0 0
M  V30 BEGIN ATOM
M  V30 1 H -0.908 1.98254 -0.117106 0
M  V30 2 N 0 1.576 0 0
M  V30 3 C 0.933 2.03868 1.02534 0
M  V30 4 C 1.911 0.928543 1.3348 0
M  V30 5 O 3.095 1.19667 1.45644 0
M  V30 6 C 0.222 2.43627 2.35294 0
M  V30 7 C -0.732 3.65373 2.2001 0
M  V30 8 S 0.101 5.13292 1.52614 0
M  V30 9 C 1.257 5.56322 2.86805 0
M  V30 10 H 1.49 2.90518 0.631377 0
M  V30 11 H -0.977 1.52953 0.210867 0
M  V30 12 H 0.981 2.67203 3.11629 0
M  V30 13 H -0.358 1.57376 2.7183 0
M  V30 14 H -1.165 3.90944 3.18086 0
M  V30 15 H -1.563 3.418 1.51819 0
M  V30 16 H 0.729 5.58782 3.83104 0
M  V30 17 H 1.672 6.56266 2.65933 0
M  V30 18 H 2.08 4.83886 2.90714 0
M  V30 19 N 1.4781 -0.272755 1.55222 0
M  V30 20 C 2.4261 -1.35705 1.88909 0
M  V30 21 C 3.4201 -1.5112 0.765456 0
M  V30 22 O 4.6261 -1.52901 0.949802 0
M  V30 23 H 1.0011 -0.453868 0.59959 0
M  V30 24 H 2.9721 -1.04544 2.79487 0
M  V30 25 C 1.7211 -2.71049 2.17779 0
M  V30 26 H 1.0441 -2.59979 3.03728 0
M  V30 27 H 2.4841 -3.45858 2.45272 0
M  V30 28 C 0.9431 -3.22165 0.985473 0
M  V30 29 O 1.4731 -4.01096 0.220233 0
M  V30 30 N -0.3209 -2.7985 0.783108 0
M  V30 31 H -0.7739 -2.15775 1.40708 0
M  V30 32 H -0.8159 -3.14397 -0.0130392 0
M  V30 33 N 2.9562 -1.48159 -0.537278 0
M  V30 34 C 4.2032 -1.55804 -1.29349 0
M  V30 35 C 4.5312 -0.228802 -1.9315 0
M  V30 36 O 3.7862 0.780242 -1.79473 0
M  V30 37 C 4.0852 -2.63956 -2.40961 0
M  V30 38 C 3.7512 -4.0662 -1.94861 0
M  V30 39 C 2.4132 -4.45452 -1.82006 0
M  V30 40 C 4.7652 -4.96055 -1.59933 0
M  V30 41 C 2.0932 -5.71531 -1.32547 0
M  V30 42 C 4.4452 -6.22617 -1.11939 0
M  V30 43 C 3.1092 -6.60312 -0.976951 0
M  V30 44 H 2.3792 -0.570129 -0.473322 0
M  V30 45 H 5.0262 -1.81845 -0.600372 0
M  V30 46 H 3.3312 -2.31747 -3.15912 0
M  V30 47 H 5.0282 -2.67089 -2.99107 0
M  V30 48 H 1.6182 -3.75949 -2.05815 0
M  V30 49 H 5.8022 -4.66738 -1.68728 0
M  V30 50 H 1.0582 -5.99468 -1.202 0
M  V30 51 H 5.2322 -6.91318 -0.839811 0
M  V30 52 H 2.8592 -7.57895 -0.591501 0
M  V30 53 N 4.4343 0.785586 -1.36625 0
M  V30 54 C 5.3973 1.87999 -1.31107 0
M  V30 55 C 6.3973 1.59316 -0.217959 0
M  V30 56 O 7.5873 1.67656 -0.472977 0
M  V30 57 C 4.7193 3.24861 -1.03334 0
M  V30 58 H 5.9123 1.94307 -2.2844 0
M  V30 59 H 3.4653 0.983813 -1.21453 0
M  V30 60 H 4.2003 3.24235 -0.0647432 0
M  V30 61 H 3.9853 3.4707 -1.82441 0
M  V30 62 H 5.4753 4.04929 -1.02088 0
M  V30 63 N 5.9124 1.20967 1.01018 0
M  V30 64 C 6.8224 0.980157 2.13143 0
M  V30 65 C 7.8384 -0.0660665 1.73875 0
M  V30 66 O 9.0144 0.122821 2.01025 0
M  V30 67 C 6.0794 0.54216 3.42435 0
M  V30 68 C 5.1404 1.65999 3.95908 0
M  V30 69 C 4.3734 1.2428 5.19028 0
M  V30 70 O 4.5964 0.114196 5.70286 0
M  V30 71 O 3.5304 2.05271 5.65816 0
M  V30 72 H 7.3564 1.91913 2.35379 0
M  V30 73 H 4.9414 0.994099 1.11526 0
M  V30 74 H 6.8234 0.30744 4.20277 0
M  V30 75 H 5.4984 -0.36815 3.216 0
M  V30 76 H 4.4054 1.94906 3.19316 0
M  V30 77 H 5.7384 2.54753 4.21143 0
M  V30 78 N 7.3905 -1.2043 1.01659 0
M  V30 79 C 8.8065 -1.41852 0.731442 0
M  V30 80 C 9.0065 -1.89358 -0.688898 0
M  V30 81 O 8.0625 -2.06247 -1.45666 0
M  V30 82 C 9.3755 -2.44019 1.75714 0
M  V30 83 C 10.9235 -2.57785 1.77527 0
M  V30 84 C 11.3985 -3.63194 2.79023 0
M  V30 85 N 12.8895 -3.70678 2.77763 0
M  V30 86 C 13.6245 -4.51897 3.52954 0
M  V30 87 N 13.1205 -5.36921 4.37821 0
M  V30 88 N 14.9135 -4.4643 3.41551 0
M  V30 89 H 7.0645 -0.879093 1.93354 0
M  V30 90 H 9.3275 -0.448425 0.835236 0
M  V30 91 H 9.0335 -2.1611 2.77469 0
M  V30 92 H 8.9075 -3.43007 1.56927 0
M  V30 93 H 11.2945 -2.85023 0.764569 0
M  V30 94 H 11.3755 -1.58992 2.00387 0
M  V30 95 H 11.0195 -3.36699 3.80258 0
M  V30 96 H 10.9495 -4.61609 2.53425 0
M  V30 97 H 13.4405 -3.09944 2.16201 0
M  V30 98 H 13.7535 -5.95981 4.91962 0
M  V30 99 H 12.0985 -5.36424 4.41899 0
M  V30 100 H 15.2895 -3.79042 2.74672 0
M  V30 101 H 15.4625 -5.09491 4.00404 0
M  V30 102 N 8.8686 -0.792821 -1.36206 0
M  V30 103 C 9.7786 -0.194808 -2.3379 0
M  V30 104 C 10.7946 0.654869 -1.61206 0
M  V30 105 O 11.9706 0.569856 -1.9317 0
M  V30 106 C 9.0356 0.657721 -3.40404 0
M  V30 107 C 8.0966 -0.210849 -4.28782 0
M  V30 108 C 7.3296 0.601086 -5.30304 0
M  V30 109 O 7.5526 1.83682 -5.40016 0
M  V30 110 O 6.4866 -0.000808277 -6.019 0
M  V30 111 H 10.3126 -1.00172 -2.86704 0
M  V30 112 H 7.8976 -0.554341 -1.38735 0
M  V30 113 H 9.7796 1.14375 -4.05581 0
M  V30 114 H 8.4546 1.44247 -2.89784 0
M  V30 115 H 7.3616 -0.743714 -3.66633 0
M  V30 116 H 8.6946 -0.959195 -4.82763 0
M  V30 117 N 10.3467 1.47872 -0.545128 0
M  V30 118 C 11.5947 2.02093 -0.016553 0
M  V30 119 C 11.9157 1.42305 1.3332 0
M  V30 120 O 11.1857 0.593853 1.86682 0
M  V30 121 H 9.7657 0.746993 -0.00313038 0
M  V30 122 H 12.4277 1.81414 -0.712397 0
M  V30 123 H 11.5237 3.11996 0.0805422 0
M  V30 124 N 11.8248 0.280983 1.55075 0
M  V30 125 C 13.0498 -0.340154 2.04592 0
M  V30 126 C 13.4748 -1.48246 1.15779 0
M  V30 127 O 12.8328 -1.80614 0.15761 0
M  V30 128 C 12.8808 -0.793104 3.5177 0
M  V30 129 O 11.9848 -1.89981 3.66034 0
M  V30 130 H 11.3258 -0.0694289 0.66036 0
M  V30 131 H 13.8558 0.416993 2.00306 0
M  V30 132 H 13.8658 -1.08729 3.93245 0
M  V30 133 H 12.5408 0.0426163 4.15878 0
M  V30 134 H 11.1178 -1.60771 3.36463 0
M  V30 135 N 13.3029 -1.57598 0.00835791 0
M  V30 136 C 14.2499 -2.08945 -0.980346 0
M  V30 137 C 15.2199 -0.986738 -1.33614 0
M  V30 138 O 16.4049 -1.25968 -1.43306 0
M  V30 139 C 13.5449 -2.60425 -2.26435 0
M  V30 140 C 12.6579 -3.84628 -1.96685 0
M  V30 141 C 11.7929 -4.24579 -3.19228 0
M  V30 142 C 10.8319 -5.41596 -2.85202 0
M  V30 143 N 9.9689 -5.768 -4.00307 0
M  V30 144 H 14.8089 -2.93148 -0.535551 0
M  V30 145 H 12.3459 -1.44912 -0.252776 0
M  V30 146 H 14.3039 -2.88354 -3.01509 0
M  V30 147 H 12.9339 -1.79083 -2.68568 0
M  V30 148 H 11.9859 -3.63556 -1.11942 0
M  V30 149 H 13.2979 -4.69796 -1.67611 0
M  V30 150 H 12.4519 -4.53834 -4.02641 0
M  V30 151 H 11.1909 -3.38137 -3.51447 0
M  V30 152 H 10.1959 -5.12056 -2.00198 0
M  V30 153 H 11.4209 -6.29721 -2.54222 0
M  V30 154 H 9.3669 -4.93316 -4.32407 0
M  V30 155 H 9.2839 -6.5656 -3.74786 0
M  V30 156 H 10.5519 -6.10652 -4.84484 0
M  V30 157 N 14.781 0.264519 -1.55364 0
M  V30 158 C 16.197 0.61215 -1.47394 0
M  V30 159 C 16.397 1.89134 -0.695018 0
M  V30 160 O 15.453 2.51563 -0.217275 0
M  V30 161 C 16.766 0.731235 -2.91674 0
M  V30 162 C 18.314 0.82473 -3.01939 0
M  V30 163 C 18.789 0.975522 -4.4749 0
M  V30 164 N 20.28 1.04083 -4.51354 0
M  V30 165 C 21.015 1.17646 -5.61201 0
M  V30 166 N 20.511 1.27874 -6.80896 0
M  V30 167 N 22.304 1.20823 -5.48961 0
M  V30 168 H 14.455 -0.575456 -2.04456 0
M  V30 169 H 16.718 -0.196099 -0.927496 0
M  V30 170 H 16.424 -0.138392 -3.51428 0
M  V30 171 H 16.298 1.60883 -3.41169 0
M  V30 172 H 18.685 1.68482 -2.42276 0
M  V30 173 H 18.766 -0.0776479 -2.55682 0
M  V30 174 H 18.41 0.120058 -5.07758 0
M  V30 175 H 18.34 1.89268 -4.91412 0
M  V30 176 H 20.831 0.973846 -3.65136 0
M  V30 177 H 21.144 1.38081 -7.60364 0
M  V30 178 H 19.489 1.24863 -6.83692 0
M  V30 179 H 22.68 1.12469 -4.54388 0
M  V30 180 H 22.853 1.31049 -6.3461 0
M  V30 181 N 16.2591 1.48442 0.529413 0
M  V30 182 C 17.4891 1.59919 1.30804 0
M  V30 183 C 17.8971 0.258792 1.87422 0
M  V30 184 O 17.2401 -0.762096 1.67146 0
M  V30 185 C 17.3021 2.58693 2.49636 0
M  V30 186 C 16.9661 4.03745 2.14101 0
M  V30 187 C 17.9631 4.9141 1.6974 0
M  V30 188 C 15.6481 4.49285 2.24607 0
M  V30 189 C 17.6421 6.22645 1.36351 0
M  V30 190 C 15.3291 5.8054 1.9083 0
M  V30 191 C 16.3271 6.67043 1.46773 0
M  V30 192 O 16.0151 7.95856 1.1344 0
M  V30 193 H 15.7471 0.541981 0.404021 0
M  V30 194 H 18.3011 1.95 0.645309 0
M  V30 195 H 16.5311 2.18734 3.18892 0
M  V30 196 H 18.2201 2.59999 3.11698 0
M  V30 197 H 18.9861 4.57465 1.61094 0
M  V30 198 H 14.8651 3.82142 2.57854 0
M  V30 199 H 18.4091 6.90119 1.01891 0
M  V30 200 H 14.3061 6.14022 1.99117 0
M  V30 201 H 15.0741 8.08613 1.26832 0
M  V30 202 N 17.7372 -0.778329 1.37039 0
M  V30 203 C 18.9772 -1.54973 1.33276 0
M  V30 204 C 19.3412 -1.91816 -0.0839376 0
M  V30 205 O 20.5422 -2.6767 -0.246228 0
M  V30 206 C 18.8132 -2.78517 2.23971 0
M  V30 207 S 20.3722 -3.6865 2.37997 0
M  V30 208 H 17.1902 -0.530639 0.473226 0
M  V30 209 H 19.7922 -0.915806 1.72723 0
M  V30 210 H 18.4962 -2.4952 3.25835 0
M  V30 211 H 18.0272 -3.46875 1.85584 0
M  V30 212 H 20.0422 -4.70182 1.58567 0
M  V30 213 N 19.2153 -1.21501 -1.00376 0
M  V30 214 C 20.4643 -1.02718 -1.73586 0
M  V30 215 C 20.7773 0.439589 -1.90596 0
M  V30 216 O 21.9833 0.746848 -2.61026 0
M  V30 217 C 20.4393 -1.78929 -3.1227 0
M  V30 218 C 20.0473 -3.29783 -3.03228 0
M  V30 219 C 21.7913 -1.68557 -3.89601 0
M  V30 220 C 19.6983 -3.98479 -4.36999 0
M  V30 221 H 18.6283 -0.380733 -0.650814 0
M  V30 222 H 21.2793 -1.45248 -1.1214 0
M  V30 223 H 19.6613 -1.29192 -3.74333 0
M  V30 224 H 20.8353 -3.86832 -2.50395 0
M  V30 225 H 19.1503 -3.40711 -2.39385 0
M  V30 226 H 21.7473 -2.17211 -4.88593 0
M  V30 227 H 22.0903 -0.644021 -4.11288 0
M  V30 228 H 22.6233 -2.15778 -3.34193 0
M  V30 229 H 19.3623 -5.02841 -4.20513 0
M  V30 230 H 18.8823 -3.46219 -4.89788 0
M  V30 231 H 20.5613 -4.03462 -5.05794 0
M  V30 232 N 20.6934 1.19889 -1.02296 0
M  V30 233 C 21.6254 2.22334 -0.556787 0
M  V30 234 C 22.6384 1.58674 0.364199 0
M  V30 235 O 23.8274 1.77768 0.161533 0
M  V30 236 C 20.9274 3.38257 0.208694 0
M  V30 237 C 20.1004 4.31504 -0.71577 0
M  V30 238 C 19.1594 5.262 0.00325597 0
M  V30 239 O 18.1854 5.65798 -0.621357 0
M  V30 240 N 19.3874 5.66303 1.27599 0
M  V30 241 H 22.1524 2.62957 -1.43784 0
M  V30 242 H 19.7134 1.34495 -0.901261 0
M  V30 243 H 21.7054 3.98616 0.699111 0
M  V30 244 H 20.2754 2.96472 0.991102 0
M  V30 245 H 19.4954 3.69016 -1.38638 0
M  V30 246 H 20.7834 4.9072 -1.34428 0
M  V30 247 H 20.1814 5.36155 1.80429 0
M  V30 248 H 18.7384 6.28942 1.71102 0
M  V30 249 N 22.1715 0.800033 1.35784 0
M  V30 250 C 23.3995 0.389606 2.03199 0
M  V30 251 C 23.8145 -0.997375 1.60306 0
M  V30 252 O 23.1715 -1.64154 0.797481 0
M  V30 253 C 23.2225 0.455855 3.58614 0
M  V30 254 O 22.9435 1.78815 3.99946 0
M  V30 255 C 24.4445 0.0374032 4.43284 0
M  V30 256 H 21.6645 0.159132 0.651857 0
M  V30 257 H 24.2085 1.08183 1.73541 0
M  V30 258 H 22.3635 -0.188057 3.86943 0
M  V30 259 H 22.7775 1.74636 4.94573 0
M  V30 260 H 24.2515 0.134882 5.51835 0
M  V30 261 H 24.7285 -1.01651 4.27275 0
M  V30 262 H 25.3345 0.654215 4.20238 0
M  V30 263 N 23.6496 -1.47581 0.552962 0
M  V30 264 C 24.5966 -2.29957 -0.197108 0
M  V30 265 C 25.5666 -1.38799 -0.912359 0
M  V30 266 O 26.7516 -1.67761 -0.908888 0
M  V30 267 C 23.8916 -3.22672 -1.22379 0
M  V30 268 C 23.0046 -4.28919 -0.515038 0
M  V30 269 C 22.1396 -5.0879 -1.52664 0
M  V30 270 C 21.1786 -6.06815 -0.802631 0
M  V30 271 N 20.3156 -6.7966 -1.76086 0
M  V30 272 H 25.1556 -2.93578 0.511486 0
M  V30 273 H 22.6926 -1.4471 0.264067 0
M  V30 274 H 24.6506 -3.74845 -1.83159 0
M  V30 275 H 23.2806 -2.60925 -1.90047 0
M  V30 276 H 22.3326 -3.79835 0.207192 0
M  V30 277 H 23.6446 -4.98773 0.0523425 0
M  V30 278 H 22.7986 -5.65091 -2.20809 0
M  V30 279 H 21.5376 -4.38828 -2.12794 0
M  V30 280 H 20.5426 -5.49695 -0.107238 0
M  V30 281 H 21.7676 -6.78784 -0.207135 0
M  V30 282 H 19.7136 -6.12432 -2.35081 0
M  V30 283 H 19.6306 -7.45669 -1.24552 0
M  V30 284 H 20.8986 -7.40538 -2.43359 0
M  V30 285 N 25.1277 -0.289203 -1.54924 0
M  V30 286 C 26.0777 0.606939 -2.19773 0
M  V30 287 C 27.0617 1.10783 -1.16687 0
M  V30 288 O 28.2537 1.05057 -1.4245 0
M  V30 289 C 25.3827 1.78398 -2.93307 0
M  V30 290 C 24.4687 1.29961 -4.03697 0
M  V30 291 N 24.8597 0.532377 -5.0299 0
M  V30 292 C 23.1577 1.58136 -4.17024 0
M  V30 293 C 23.8587 0.275912 -5.81045 0
M  V30 294 N 22.8347 0.852365 -5.36876 0
M  V30 295 H 26.6367 0.0130779 -2.93897 0
M  V30 296 H 24.1507 -0.09341 -1.62131 0
M  V30 297 H 26.1477 2.43741 -3.38225 0
M  V30 298 H 24.8077 2.38166 -2.20697 0
M  V30 299 H 25.8187 0.17838 -5.17593 0
M  V30 300 H 22.4957 2.18738 -3.55612 0
M  V30 301 H 23.8857 -0.339502 -6.71042 0
M  V30 302 N 26.6058 1.57591 -0.0167156 0
M  V30 303 C 27.8518 1.91567 0.665582 0
M  V30 304 C 28.1848 0.892298 1.72487 0
M  V30 305 O 27.4598 -0.0867127 1.94307 0
M  V30 306 C 27.7428 3.36069 1.29342 0
M  V30 307 C 27.5958 4.49135 0.244541 0
M  V30 308 C 28.9148 3.803 2.21495 0
M  V30 309 H 26.0338 0.69666 0.240488 0
M  V30 310 H 28.6758 1.89866 -0.0714356 0
M  V30 311 H 26.8258 3.3765 1.92158 0
M  V30 312 H 28.4978 4.59689 -0.385228 0
M  V30 313 H 26.7408 4.3165 -0.431379 0
M  V30 314 H 27.4118 5.47242 0.723207 0
M  V30 315 H 29.8878 3.80377 1.68678 0
M  V30 316 H 28.7638 4.82127 2.62382 0
M  V30 317 H 29.0248 3.15104 3.101 0
M  V30 318 N 28.0839 -0.256276 1.55502 0
M  V30 319 C 29.0469 -1.30047 1.88734 0
M  V30 320 C 30.0469 -1.4154 0.763086 0
M  V30 321 O 31.2369 -1.40403 1.03115 0
M  V30 322 C 28.3689 -2.67953 2.10747 0
M  V30 323 H 29.5619 -1.01802 2.82093 0
M  V30 324 H 27.1149 -0.495134 1.4825 0
M  V30 325 H 27.8499 -3.01351 1.19825 0
M  V30 326 H 27.6349 -2.60993 2.92617 0
M  V30 327 H 29.1249 -3.43368 2.37673 0
M  V30 328 N 29.562 -1.4872 -0.521534 0
M  V30 329 C 30.811 -1.56419 -1.27341 0
M  V30 330 C 31.124 -0.246805 -1.94037 0
M  V30 331 O 32.33 -0.202122 -2.70747 0
M  V30 332 C 30.786 -2.75896 -2.31105 0
M  V30 333 C 30.394 -4.14311 -1.70441 0
M  V30 334 C 32.138 -2.92913 -3.07249 0
M  V30 335 C 30.045 -5.25038 -2.72194 0
M  V30 336 H 28.975 -0.582344 -0.478949 0
M  V30 337 H 31.626 -1.75071 -0.549779 0
M  V30 338 H 30.008 -2.50697 -3.06541 0
M  V30 339 H 31.182 -4.49564 -1.01136 0
M  V30 340 H 29.497 -4.02482 -1.06759 0
M  V30 341 H 32.094 -3.72805 -3.83302 0
M  V30 342 H 32.437 -2.02689 -3.63625 0
M  V30 343 H 32.97 -3.18054 -2.38928 0
M  V30 344 H 29.709 -6.17255 -2.20627 0
M  V30 345 H 29.229 -4.94263 -3.39801 0
M  V30 346 H 30.908 -5.53508 -3.35019 0
M  V30 347 N 31.0401 0.771051 -1.3745 0
M  V30 348 C 31.9701 1.89827 -1.3597 0
M  V30 349 C 32.9511 1.68562 -0.228216 0
M  V30 350 O 34.1361 1.8941 -0.428675 0
M  V30 351 C 31.2661 3.2712 -1.16662 0
M  V30 352 C 30.2201 3.6295 -2.2683 0
M  V30 353 C 29.5461 4.98791 -1.92644 0
M  V30 354 C 30.8461 3.69627 -3.69017 0
M  V30 355 H 32.5401 1.91323 -2.30295 0
M  V30 356 H 30.0861 0.919082 -1.10855 0
M  V30 357 H 32.0391 4.05615 -1.14256 0
M  V30 358 H 30.7631 3.26059 -0.187926 0
M  V30 359 H 29.4221 2.86763 -2.28392 0
M  V30 360 H 29.0701 4.94271 -0.933021 0
M  V30 361 H 28.7701 5.23733 -2.66416 0
M  V30 362 H 30.2941 5.79685 -1.91826 0
M  V30 363 H 31.7081 4.38273 -3.69581 0
M  V30 364 H 30.1051 4.06067 -4.41848 0
M  V30 365 H 31.1751 2.70273 -4.02592 0
M  V30 366 N 32.5182 1.22032 0.997298 0
M  V30 367 C 33.7582 1.05375 1.75144 0
M  V30 368 C 34.1222 -0.404696 1.87686 0
M  V30 369 O 35.3232 -0.691998 2.5974 0
M  V30 370 C 33.5942 1.74046 3.12158 0
M  V30 371 S 35.1532 1.72745 4.03366 0
M  V30 372 H 31.9712 0.377449 0.602539 0
M  V30 373 H 34.5732 1.54902 1.19272 0
M  V30 374 H 33.2772 2.79332 3.00669 0
M  V30 375 H 32.8082 1.24731 3.73103 0
M  V30 376 H 34.8232 0.774015 4.90126 0
M  V30 377 N 33.9963 -1.19345 1.0293 0
M  V30 378 C 34.9593 -2.20793 0.615069 0
M  V30 379 C 35.9593 -1.57553 -0.321533 0
M  V30 380 O 37.1493 -1.73862 -0.108483 0
M  V30 381 C 34.2813 -3.40754 -0.0999222 0
M  V30 382 H 35.4743 -2.58955 1.51269 0
M  V30 383 H 33.0273 -1.3303 0.820534 0
M  V30 384 H 33.7623 -3.0811 -1.01187 0
M  V30 385 H 33.5473 -3.87889 0.57309 0
M  V30 386 H 35.0373 -4.15898 -0.376645 0
M  V30 387 N 35.4744 -0.807222 -1.35358 0
M  V30 388 C 36.7204 -0.388463 -1.99045 0
M  V30 389 C 37.0534 1.04184 -1.63888 0
M  V30 390 O 36.3284 1.72292 -0.902535 0
M  V30 391 C 36.6114 -0.572783 -3.55515 0
M  V30 392 C 36.4644 -2.04807 -4.00468 0
M  V30 393 C 37.7834 0.00114064 -4.401 0
M  V30 394 H 34.9024 -0.142619 -0.723069 0
M  V30 395 H 37.5444 -1.01687 -1.60498 0
M  V30 396 H 35.6944 -0.0378425 -3.88482 0
M  V30 397 H 37.3664 -2.64544 -3.77908 0
M  V30 398 H 35.6094 -2.54427 -3.51353 0
M  V30 399 H 36.2804 -2.12792 -5.09337 0
M  V30 400 H 38.7564 -0.455716 -4.13597 0
M  V30 401 H 37.6324 -0.157737 -5.48673 0
M  V30 402 H 37.8934 1.09488 -4.28328 0
M  V30 403 N 36.9525 1.47285 -0.560781 0
M  V30 404 C 38.1985 2.02764 -0.0381184 0
M  V30 405 C 38.5315 1.43384 1.30976 0
M  V30 406 O 37.8065 0.590733 1.85312 0
M  V30 407 C 38.0895 3.60064 0.0511427 0
M  V30 408 C 37.9425 4.2987 -1.32408 0
M  V30 409 C 39.2615 4.33439 0.762795 0
M  V30 410 H 36.3805 0.736841 -0.0153264 0
M  V30 411 H 39.0225 1.75675 -0.723759 0
M  V30 412 H 37.1725 3.83274 0.635065 0
M  V30 413 H 38.8445 4.17989 -1.95148 0
M  V30 414 H 37.0875 3.90085 -1.8978 0
M  V30 415 H 37.7585 5.38478 -1.21431 0
M  V30 416 H 40.2345 4.15243 0.266965 0
M  V30 417 H 39.1105 5.43124 0.794221 0
M  V30 418 H 39.3715 4.02915 1.81966 0
M  V30 419 N 38.4306 0.297415 1.54768 0
M  V30 420 C 39.6766 -0.313376 2.00364 0
M  V30 421 C 40.0096 -1.53815 1.18553 0
M  V30 422 O 39.2846 -1.92739 0.261103 0
M  V30 423 C 39.5676 -0.673525 3.53745 0
M  V30 424 C 39.4206 0.560133 4.46299 0
M  V30 425 C 40.7396 -1.50143 4.13697 0
M  V30 426 H 37.8586 -0.112428 0.728374 0
M  V30 427 H 40.5006 0.4088 1.8555 0
M  V30 428 H 38.6506 -1.28881 3.665 0
M  V30 429 H 40.3226 1.19863 4.45455 0
M  V30 430 H 38.5656 1.19405 4.17043 0
M  V30 431 H 39.2366 0.26405 5.51368 0
M  V30 432 H 41.7126 -0.981588 4.04356 0
M  V30 433 H 40.5886 -1.72221 5.21182 0
M  V30 434 H 40.8496 -2.48952 3.65343 0
M  V30 435 N 39.9087 -1.5758 0.0250728 0
M  V30 436 C 41.1567 -1.91255 -0.653151 0
M  V30 437 C 41.4777 -0.901691 -1.729 0
M  V30 438 O 40.7477 0.0573785 -1.95816 0
M  V30 439 H 39.3277 -0.705942 -0.244243 0
M  V30 440 H 41.9897 -1.94767 0.0719209 0
M  V30 441 H 41.0857 -2.91752 -1.10847 0
M  V30 442 N 41.3868 0.248026 -1.55636 0
M  V30 443 C 42.6328 0.97767 -1.77678 0
M  V30 444 C 42.9658 1.85016 -0.590135 0
M  V30 445 O 42.2408 1.90095 0.411611 0
M  V30 446 C 42.5238 1.83914 -3.09593 0
M  V30 447 C 42.3768 0.99491 -4.38659 0
M  V30 448 C 43.6958 2.82183 -3.37729 0
M  V30 449 H 40.8148 0.354005 -0.646413 0
M  V30 450 H 43.4568 0.248253 -1.88371 0
M  V30 451 H 41.6068 2.46104 -3.00608 0
M  V30 452 H 43.2788 0.391789 -4.59633 0
M  V30 453 H 41.5218 0.299231 -4.32767 0
M  V30 454 H 42.1928 1.63145 -5.2734 0
M  V30 455 H 44.6688 2.30129 -3.4667 0
M  V30 456 H 43.5448 3.39582 -4.31249 0
M  V30 457 H 43.8058 3.58588 -2.58586 0
M  V30 458 N 42.8649 1.48995 0.513639 0
M  V30 459 C 44.1129 1.57531 1.26604 0
M  V30 460 C 44.4339 0.258236 1.93283 0
M  V30 461 O 43.7039 -0.721502 1.8213 0
M  V30 462 H 42.2839 0.580387 0.470276 0
M  V30 463 H 44.9459 1.85552 0.596373 0
M  V30 464 H 44.0419 2.36486 2.03669 0
M  V30 465 N 44.343 -0.763751 1.37857 0
M  V30 466 C 45.273 -1.89103 1.36975 0
M  V30 467 C 46.254 -1.68439 0.237152 0
M  V30 468 O 47.439 -1.8918 0.438713 0
M  V30 469 C 44.569 -3.26496 1.18395 0
M  V30 470 C 43.523 -3.61741 2.28751 0
M  V30 471 C 42.849 -4.97762 1.95286 0
M  V30 472 C 44.149 -3.67665 3.70972 0
M  V30 473 H 45.843 -1.90099 2.31307 0
M  V30 474 H 43.389 -0.91319 1.11341 0
M  V30 475 H 45.342 -4.05003 1.16406 0
M  V30 476 H 44.066 -3.25955 0.205215 0
M  V30 477 H 42.725 -2.85547 2.29909 0
M  V30 478 H 42.373 -4.93769 0.959221 0
M  V30 479 H 42.073 -5.22313 2.69189 0
M  V30 480 H 43.597 -5.7866 1.94898 0
M  V30 481 H 45.011 -4.36307 3.719 0
M  V30 482 H 43.408 -4.03718 4.43995 0
M  V30 483 H 44.478 -2.68134 4.0402 0
M  V30 484 N 45.8211 -1.22559 -0.990812 0
M  V30 485 C 47.0701 -1.04553 -1.72486 0
M  V30 486 C 47.3831 0.419349 -1.91052 0
M  V30 487 O 48.5891 0.719121 -2.61803 0
M  V30 488 C 47.0451 -1.82231 -3.10355 0
M  V30 489 C 46.6531 -3.32981 -2.99713 0
M  V30 490 C 48.3971 -1.7268 -3.87791 0
M  V30 491 C 46.3041 -4.03091 -4.32748 0
M  V30 492 H 45.2341 -0.387614 -0.646739 0
M  V30 493 H 47.8851 -1.46429 -1.10593 0
M  V30 494 H 46.2671 -1.33155 -3.72942 0
M  V30 495 H 47.4411 -3.89466 -2.46278 0
M  V30 496 H 45.7561 -3.43231 -2.35758 0
M  V30 497 H 48.3531 -2.22381 -4.86262 0
M  V30 498 H 48.6961 -0.687607 -4.10582 0
M  V30 499 H 49.2291 -2.1931 -3.31885 0
M  V30 500 H 45.9681 -5.07273 -4.15156 0
M  V30 501 H 45.4881 -3.51394 -4.86089 0
M  V30 502 H 47.1671 -4.08804 -5.01486 0
M  V30 503 N 47.2992 1.18797 -1.03562 0
M  V30 504 C 48.5452 1.8893 -0.737113 0
M  V30 505 C 48.8782 1.79837 0.732956 0
M  V30 506 O 48.1532 1.19525 1.5344 0
M  V30 507 C 48.4362 3.39607 -1.19745 0
M  V30 508 C 48.2892 3.57537 -2.72924 0
M  V30 509 C 49.6082 4.33069 -0.783526 0
M  V30 510 H 46.7272 0.686057 -0.269249 0
M  V30 511 H 49.3692 1.39797 -1.28673 0
M  V30 512 H 47.5192 3.81583 -0.729855 0
M  V30 513 H 49.1912 3.24688 -3.27682 0
M  V30 514 H 47.4342 3.00363 -3.12993 0
M  V30 515 H 48.1052 4.63238 -3.00191 0
M  V30 516 H 50.5812 3.98846 -1.18581 0
M  V30 517 H 49.4572 5.3707 -1.13343 0
M  V30 518 H 49.7182 4.40986 0.313681 0
M  V30 519 N 48.7773 0.814389 1.34928 0
M  V30 520 C 50.0253 0.397636 1.9815 0
M  V30 521 C 50.3463 -1.04069 1.64908 0
M  V30 522 O 49.6163 -1.72121 0.93548 0
M  V30 523 H 48.1963 0.144043 0.732981 0
M  V30 524 H 50.8583 1.04195 1.6471 0
M  V30 525 H 49.9543 0.509688 3.0791 0
M  V30 526 N 50.2554 -1.46986 0.568584 0
M  V30 527 C 51.1854 -2.32946 -0.160753 0
M  V30 528 C 52.1664 -1.44487 -0.897631 0
M  V30 529 O 53.3514 -1.73327 -0.875867 0
M  V30 530 C 50.4814 -3.26494 -1.18403 0
M  V30 531 C 49.4354 -4.24282 -0.562895 0
M  V30 532 C 48.7614 -5.07236 -1.69163 0
M  V30 533 C 50.0614 -5.19989 0.490761 0
M  V30 534 H 51.7554 -2.94175 0.556916 0
M  V30 535 H 49.3014 -1.4146 0.26927 0
M  V30 536 H 51.2544 -3.85477 -1.70251 0
M  V30 537 H 49.9784 -2.63343 -1.93179 0
M  V30 538 H 48.6374 -3.66541 -0.0656164 0
M  V30 539 H 48.2854 -4.4048 -2.42871 0
M  V30 540 H 47.9854 -5.7345 -1.28174 0
M  V30 541 H 49.5094 -5.6908 -2.21314 0
M  V30 542 H 50.9234 -5.73271 0.0579047 0
M  V30 543 H 49.3204 -5.94469 0.820165 0
M  V30 544 H 50.3904 -4.64777 1.3824 0
M  V30 545 N 51.7335 -0.305618 -1.54608 0
M  V30 546 C 52.6965 0.555591 -2.22364 0
M  V30 547 C 53.6965 1.05768 -1.21119 0
M  V30 548 O 54.8865 0.952972 -1.45822 0
M  V30 549 C 52.0185 1.76974 -2.91364 0
M  V30 550 H 53.2115 -0.0364572 -2.99878 0
M  V30 551 H 50.7645 -0.0565007 -1.56198 0
M  V30 552 H 51.4995 2.40151 -2.17941 0
M  V30 553 H 51.2845 1.41732 -3.65588 0
M  V30 554 H 52.7745 2.38148 -3.43038 0
M  V30 555 N 53.2116 1.57565 -0.0334293 0
M  V30 556 C 54.4576 1.92262 0.645226 0
M  V30 557 C 54.7906 0.910543 1.71531 0
M  V30 558 O 54.0656 -0.066099 1.94388 0
M  V30 559 C 54.3486 3.37422 1.2577 0
M  V30 560 C 54.2016 4.49369 0.196891 0
M  V30 561 C 55.5206 3.82628 2.17449 0
M  V30 562 H 52.6396 0.699171 0.233085 0
M  V30 563 H 55.2816 1.89779 -0.0915694 0
M  V30 564 H 53.4316 3.39669 1.88566 0
M  V30 565 H 55.1036 4.59254 -0.433962 0
M  V30 566 H 53.3466 4.31168 -0.477137 0
M  V30 567 H 54.0176 5.47978 0.665124 0
M  V30 568 H 56.4936 3.82145 1.64634 0
M  V30 569 H 55.3696 4.84883 2.57254 0
M  V30 570 H 55.6306 3.18376 3.0674 0
M  V30 571 N 54.6897 -0.239769 1.55765 0
M  V30 572 C 55.9377 -0.964892 1.77579 0
M  V30 573 C 56.2587 -1.85582 0.598699 0
M  V30 574 O 55.5287 -1.92075 -0.385226 0
M  V30 575 H 54.1087 -0.359265 0.654933 0
M  V30 576 H 56.7707 -0.256001 1.93211 0
M  V30 577 H 55.8667 -1.58243 2.69009 0
M  V30 578 N 56.1678 -1.49265 -0.50573 0
M  V30 579 C 57.0978 -1.68495 -1.61653 0
M  V30 580 C 58.0788 -0.53366 -1.61512 0
M  V30 581 O 59.2638 -0.76897 -1.78327 0
M  V30 582 C 56.3938 -1.74709 -3.00157 0
M  V30 583 C 55.3478 -2.89581 -3.15162 0
M  V30 584 C 54.6738 -2.80903 -4.5497 0
M  V30 585 C 55.9738 -4.30578 -2.95634 0
M  V30 586 H 57.6678 -2.61493 -1.45814 0
M  V30 587 H 55.2138 -1.25838 -0.70005 0
M  V30 588 H 57.1668 -1.86748 -3.77761 0
M  V30 589 H 55.8908 -0.783067 -3.17074 0
M  V30 590 H 54.5498 -2.77136 -2.39982 0
M  V30 591 H 54.1978 -1.82419 -4.68756 0
M  V30 592 H 53.8978 -3.57999 -4.65951 0
M  V30 593 H 55.4218 -2.94944 -5.34641 0
M  V30 594 H 56.8358 -4.4373 -3.63011 0
M  V30 595 H 55.2328 -5.0886 -3.18091 0
M  V30 596 H 56.3028 -4.45352 -1.91806 0
M  V30 597 N 57.6459 0.756429 -1.3826 0
M  V30 598 C 58.8739 1.54565 -1.3754 0
M  V30 599 C 59.2889 1.88767 0.0355331 0
M  V30 600 O 58.6459 1.52572 1.0014 0
M  V30 601 C 58.6969 2.84654 -2.22833 0
M  V30 602 O 58.4179 2.51912 -3.5843 0
M  V30 603 C 59.9189 3.78807 -2.30261 0
M  V30 604 H 57.1389 0.478353 -0.470553 0
M  V30 605 H 59.6829 0.936381 -1.81803 0
M  V30 606 H 57.8379 3.41965 -1.8204 0
M  V30 607 H 58.2519 3.35325 -4.03308 0
M  V30 608 H 59.7259 4.67045 -2.94233 0
M  V30 609 H 60.2029 4.19038 -1.31545 0
M  V30 610 H 60.8089 3.2742 -2.71433 0
M  V30 611 N 59.124 1.23083 0.984299 0
M  V30 612 C 60.54 0.992637 1.24975 0
M  V30 613 C 60.74 -0.308618 1.99123 0
M  V30 614 O 59.796 -1.02905 2.30579 0
M  V30 615 C 61.109 2.19698 2.05312 0
M  V30 616 C 62.657 2.24147 2.18465 0
M  V30 617 C 63.132 3.44157 3.02192 0
M  V30 618 N 64.623 3.44372 3.09777 0
M  V30 619 C 65.358 4.33886 3.74874 0
M  V30 620 N 64.854 5.3363 4.41827 0
M  V30 621 N 66.647 4.21639 3.71721 0
M  V30 622 H 58.798 2.06731 0.487453 0
M  V30 623 H 61.061 0.906339 0.277944 0
M  V30 624 H 60.767 3.1411 1.58201 0
M  V30 625 H 60.641 2.20465 3.06064 0
M  V30 626 H 63.028 1.30277 2.64786 0
M  V30 627 H 63.109 2.27415 1.17115 0
M  V30 628 H 62.753 4.38332 2.56568 0
M  V30 629 H 62.683 3.3813 4.03702 0
M  V30 630 H 65.174 2.72201 2.62135 0
M  V30 631 H 65.487 5.98196 4.89266 0
M  V30 632 H 63.832 5.37534 4.40548 0
M  V30 633 H 67.023 3.42962 3.18582 0
M  V30 634 H 67.196 4.91604 4.22173 0
M  V30 635 N 60.6021 -1.18246 1.0419 0
M  V30 636 C 61.8271 -1.92736 0.765996 0
M  V30 637 C 62.2521 -1.75728 -0.67091 0
M  V30 638 O 61.6101 -1.06825 -1.46486 0
M  V30 639 C 61.6581 -3.42148 1.13875 0
M  V30 640 O 60.7621 -4.11548 0.264954 0
M  V30 641 H 60.1031 -0.601238 0.281797 0
M  V30 642 H 62.6331 -1.49942 1.39207 0
M  V30 643 H 62.6431 -3.92858 1.1012 0
M  V30 644 H 61.3181 -3.53848 2.18551 0
M  V30 645 H 59.8951 -3.71137 0.362226 0
M  V30 646 N 62.0802 -0.821533 -1.34494 0
M  V30 647 C 63.3202 -0.414785 -2.00147 0
M  V30 648 C 63.6842 1.00299 -1.6372 0
M  V30 649 O 64.8852 1.51255 -2.22206 0
M  V30 650 C 63.1562 -0.609403 -3.52166 0
M  V30 651 S 64.7152 -0.295297 -4.37805 0
M  V30 652 H 61.5332 -0.15679 -0.693497 0
M  V30 653 H 64.1352 -1.06705 -1.63812 0
M  V30 654 H 62.8392 -1.64096 -3.76166 0
M  V30 655 H 62.3702 0.0576414 -3.93358 0
M  V30 656 H 64.3852 0.891531 -4.88125 0
M  V30 657 N 63.5583 1.46682 -0.576371 0
M  V30 658 C 64.8353 1.95599 0.00703437 0
M  V30 659 C 65.2153 1.51904 1.46589 0
M  V30 660 O 64.5633 0.766755 2.15251 0
M  V30 661 C 64.7733 3.4864 -0.158404 0
M  V30 662 C 66.1213 4.24594 -0.0229439 0
M  V30 663 O 67.1453 3.56094 -0.0869173 0
M  V30 664 O 66.0043 5.46373 0.118015 0
M  V30 665 H 63.0983 0.825275 0.053384 0
M  V30 666 H 65.6443 1.56996 -0.644244 0
M  V30 667 H 64.4163 3.7331 -1.17282 0
M  V30 668 H 64.0393 3.94057 0.5296 0
M  V30 669 N 65.0364 0.313813 1.54444 0
M  V30 670 C 66.2614 -0.296681 2.05267 0
M  V30 671 C 66.6864 -1.45757 1.18897 0
M  V30 672 O 66.0444 -1.80239 0.195886 0
M  V30 673 C 66.0924 -0.71831 3.53373 0
M  V30 674 O 65.1964 -1.82175 3.69981 0
M  V30 675 H 64.5374 -0.0554061 0.661684 0
M  V30 676 H 67.0674 0.459387 1.99376 0
M  V30 677 H 67.0774 -1.00364 3.95463 0
M  V30 678 H 65.7524 0.130821 4.15694 0
M  V30 679 H 64.3294 -1.53598 3.39797 0
M  V30 680 N 66.5145 -1.57545 0.0417849 0
M  V30 681 C 67.7395 -1.97035 -0.647455 0
M  V30 682 C 68.1645 -0.918775 -1.64135 0
M  V30 683 O 67.5225 0.119006 -1.80909 0
M  V30 684 C 67.5705 -3.35609 -1.31905 0
M  V30 685 O 66.6745 -3.3287 -2.43457 0
M  V30 686 H 66.0155 -0.64211 -0.169086 0
M  V30 687 H 68.5455 -2.04318 0.107399 0
M  V30 688 H 68.5555 -3.72126 -1.67291 0
M  V30 689 H 67.2305 -4.11685 -0.590586 0
M  V30 690 H 65.8075 -3.08087 -2.10088 0
M  V30 691 N 67.9926 0.231505 -1.5589 0
M  V30 692 C 69.2406 0.955461 -1.78088 0
M  V30 693 C 69.5616 1.85262 -0.608533 0
M  V30 694 O 68.8316 1.92277 0.375035 0
M  V30 695 H 67.4116 0.355787 -0.656829 0
M  V30 696 H 70.0736 0.245751 -1.93344 0
M  V30 697 H 69.1696 1.56814 -2.69844 0
M  V30 698 N 69.4707 1.49531 0.497807 0
M  V30 699 C 70.7477 1.49682 1.25915 0
M  V30 700 C 71.1277 0.226339 2.09883 0
M  V30 701 O 70.4757 -0.791189 2.14365 0
M  V30 702 C 70.6857 2.77755 2.11313 0
M  V30 703 C 72.0337 3.27371 2.70395 0
M  V30 704 O 73.0577 2.78894 2.21578 0
M  V30 705 O 71.9167 4.11808 3.59272 0
M  V30 706 H 69.0107 0.599228 0.56996 0
M  V30 707 H 71.5567 1.61798 0.511816 0
M  V30 708 H 70.3287 3.61713 1.49264 0
M  V30 709 H 69.9517 2.68515 2.93233 0
M  V30 710 N 70.9488 -0.749086 1.3866 0
M  V30 711 C 72.1968 -1.50535 1.34847 0
M  V30 712 C 72.5178 -1.94909 -0.0595016 0
M  V30 713 O 71.7878 -1.67973 -1.00806 0
M  V30 714 H 70.3678 -0.558395 0.49619 0
M  V30 715 H 73.0298 -0.890165 1.73384 0
M  V30 716 H 72.1258 -2.39413 2.00219 0
M  V30 717 N 72.4269 -1.23603 -0.977757 0
M  V30 718 C 73.6749 -1.06759 -1.71601 0
M  V30 719 C 73.9959 0.395929 -1.90938 0
M  V30 720 O 73.2659 1.28356 -1.47992 0
M  V30 721 H 71.8459 -0.392062 -0.635843 0
M  V30 722 H 74.5079 -1.55362 -1.1768 0
M  V30 723 H 73.6039 -1.55763 -2.70452 0
M  V30 724 N 73.905 1.17692 -1.04816 0
M  V30 725 C 75.316 1.69501 -0.782698 0
M  V30 726 C 75.667 1.83456 0.695577 0
M  V30 727 O 74.792 1.51942 1.54086 0
M  V30 728 C 75.387 3.07874 -1.41419 0
M  V30 729 C 73.946 3.56864 -1.19686 0
M  V30 730 C 73.093 2.3322 -1.50012 0
M  V30 731 H 76.044 1.02262 -1.2136 0
M  V30 732 H 76.065 3.71528 -0.821428 0
M  V30 733 H 75.577 2.97685 -2.49009 0
M  V30 734 H 73.678 3.72337 -0.140043 0
M  V30 735 H 73.791 4.39851 -1.89916 0
M  V30 736 H 72.155 2.37501 -0.920071 0
M  V30 737 H 72.938 2.25644 -2.58727 0
M  V30 738 N 75.3831 0.828654 1.34056 0
M  V30 739 C 76.6311 0.41863 1.97717 0
M  V30 740 C 76.9521 -1.02314 1.66002 0
M  V30 741 O 76.2221 -1.71119 0.953683 0
M  V30 742 H 74.8021 0.151809 0.731412 0
M  V30 743 H 77.4641 1.05936 1.63596 0
M  V30 744 H 76.5601 0.542318 3.07352 0
M  V30 745 N 76.8612 -1.46375 0.584142 0
M  V30 746 C 78.0892 -2.06761 0.0759296 0
M  V30 747 C 78.5042 -1.43266 -1.22965 0
M  V30 748 O 77.8612 -0.538458 -1.74376 0
M  V30 749 C 77.9122 -3.61375 -0.0950384 0
M  V30 750 O 77.6332 -4.22495 1.15887 0
M  V30 751 C 79.1342 -4.38693 -0.637434 0
M  V30 752 H 76.3542 -0.668479 0.0581075 0
M  V30 753 H 78.8982 -1.8798 0.805218 0
M  V30 754 H 77.0532 -3.79578 -0.774554 0
M  V30 755 H 77.4672 -5.15385 0.973598 0
M  V30 756 H 78.9412 -5.47464 -0.706237 0
M  V30 757 H 79.4182 -4.06836 -1.65472 0
M  V30 758 H 80.0242 -4.25299 0.00725967 0
M  V30 759 N 78.3393 -0.321999 -1.54275 0
M  V30 760 C 79.3023 0.531975 -2.22941 0
M  V30 761 C 80.3023 1.04478 -1.22234 0
M  V30 762 O 81.4923 0.937452 -1.46825 0
M  V30 763 C 78.6243 1.73874 -2.93224 0
M  V30 764 H 79.8173 -0.0682612 -2.99822 0
M  V30 765 H 77.3703 -0.0730644 -1.56129 0
M  V30 766 H 78.1053 2.37825 -2.20476 0
M  V30 767 H 77.8903 1.37847 -3.6707 0
M  V30 768 H 79.3803 2.34496 -3.45545 0
M  V30 769 N 79.8174 1.5752 -0.0501392 0
M  V30 770 C 81.2284 1.80271 0.485705 0
M  V30 771 C 81.5794 0.96228 1.70981 0
M  V30 772 O 80.7044 0.178578 2.15662 0
M  V30 773 C 81.2994 3.26957 0.887938 0
M  V30 774 C 79.8584 3.5063 1.36877 0
M  V30 775 C 79.0054 2.75165 0.343468 0
M  V30 776 H 81.9564 1.56281 -0.276028 0
M  V30 777 H 81.9774 3.37821 1.75093 0
M  V30 778 H 81.4894 3.881 -0.0031809 0
M  V30 779 H 79.5904 2.94766 2.27911 0
M  V30 780 H 79.7034 4.59343 1.36164 0
M  V30 781 H 78.0674 2.4127 0.816128 0
M  V30 782 H 78.8504 3.39034 -0.539548 0
M  V30 783 N 81.2955 -0.223234 1.56011 0
M  V30 784 C 82.2585 -1.26014 1.9145 0
M  V30 785 C 83.2585 -1.3989 0.792937 0
M  V30 786 O 84.4485 -1.38184 1.0607 0
M  V30 787 C 81.5805 -2.63422 2.16383 0
M  V30 788 H 82.7735 -0.95796 2.84189 0
M  V30 789 H 80.3265 -0.463576 1.49267 0
M  V30 790 H 81.0615 -2.98741 1.2619 0
M  V30 791 H 80.8465 -2.54728 2.98088 0
M  V30 792 H 82.3365 -3.38249 2.44903 0
M  V30 793 N 82.7736 -1.49793 -0.48987 0
M  V30 794 C 84.1846 -1.52914 -1.07118 0
M  V30 795 C 84.5356 -0.321738 -1.93544 0
M  V30 796 O 83.6606 0.567338 -2.08831 0
M  V30 797 C 84.2556 -2.771 -1.94938 0
M  V30 798 C 82.8146 -2.82963 -2.48212 0
M  V30 799 C 81.9616 -2.46972 -1.26096 0
M  V30 800 H 84.9126 -1.56329 -0.273289 0
M  V30 801 H 84.9336 -2.57892 -2.79771 0
M  V30 802 H 84.4456 -3.64959 -1.32009 0
M  V30 803 H 82.5466 -1.99411 -3.14748 0
M  V30 804 H 82.6596 -3.85406 -2.84603 0
M  V30 805 H 81.0236 -1.98994 -1.58976 0
M  V30 806 H 81.8066 -3.37118 -0.648581 0
M  V30 807 N 84.2517 0.741722 -1.39055 0
M  V30 808 C 85.4767 1.53607 -1.39354 0
M  V30 809 C 85.9017 1.88096 0.0116905 0
M  V30 810 O 85.2597 1.5143 0.996924 0
M  V30 811 C 85.3077 2.80441 -2.26682 0
M  V30 812 O 84.4117 3.76088 -1.69208 0
M  V30 813 H 83.7527 0.464142 -0.474835 0
M  V30 814 H 86.2827 0.915665 -1.82967 0
M  V30 815 H 86.2927 3.29246 -2.40959 0
M  V30 816 H 84.9677 2.5467 -3.2881 0
M  V30 817 H 83.5447 3.34833 -1.64138 0
M  V30 818 N 85.7298 1.2412 0.971189 0
M  V30 819 C 86.6798 0.997551 2.05019 0
M  V30 820 C 87.6638 -0.0597747 1.60789 0
M  V30 821 O 88.8558 0.153516 1.76333 0
M  V30 822 C 85.9848 0.600557 3.38006 0
M  V30 823 C 85.0708 1.69377 3.88809 0
M  V30 824 N 85.4618 2.92586 4.12586 0
M  V30 825 C 83.7598 1.57048 4.17435 0
M  V30 826 C 84.4608 3.63431 4.54195 0
M  V30 827 N 83.4368 2.90979 4.59165 0
M  V30 828 H 87.2388 1.93316 2.21374 0
M  V30 829 H 84.7528 1.14194 1.1547 0
M  V30 830 H 86.7498 0.40725 4.14906 0
M  V30 831 H 85.4098 -0.327903 3.2304 0
M  V30 832 H 86.4208 3.288 4.00139 0
M  V30 833 H 83.0978 0.709798 4.11422 0
M  V30 834 H 84.4878 4.69102 4.81033 0
M  V30 835 N 87.2079 -1.17134 1.05439 0
M  V30 836 C 88.1379 -2.2342 0.678649 0
M  V30 837 C 89.1189 -1.66971 -0.32476 0
M  V30 838 O 90.3039 -1.93149 -0.201802 0
M  V30 839 C 87.4339 -3.47256 0.0552099 0
M  V30 840 C 86.3879 -4.16543 0.98365 0
M  V30 841 C 85.7139 -5.34231 0.223961 0
M  V30 842 C 87.0139 -4.68495 2.3089 0
M  V30 843 H 88.7079 -2.55105 1.56722 0
M  V30 844 H 86.2539 -1.2262 0.754998 0
M  V30 845 H 88.2069 -4.20828 -0.21946 0
M  V30 846 H 86.9309 -3.14846 -0.868319 0
M  V30 847 H 85.5899 -3.44887 1.24293 0
M  V30 848 H 85.2379 -4.98071 -0.702412 0
M  V30 849 H 84.9379 -5.81527 0.842627 0
M  V30 850 H 86.4619 -6.10585 -0.0433671 0
M  V30 851 H 87.8759 -5.33691 2.09396 0
M  V30 852 H 86.2729 -5.26379 2.88176 0
M  V30 853 H 87.3429 -3.85169 2.94572 0
M  V30 854 N 88.686 -0.835752 -1.33615 0
M  V30 855 C 90.097 -0.487099 -1.80234 0
M  V30 856 C 90.448 0.993627 -1.69179 0
M  V30 857 O 89.573 1.77403 -1.23924 0
M  V30 858 C 90.168 -0.877385 -3.27242 0
M  V30 859 C 88.727 -0.580915 -3.7189 0
M  V30 860 C 87.874 -1.0874 -2.5509 0
M  V30 861 H 90.825 -1.02474 -1.2118 0
M  V30 862 H 90.846 -0.186195 -3.80044 0
M  V30 863 H 90.358 -1.95512 -3.35256 0
M  V30 864 H 88.459 0.486881 -3.69405 0
M  V30 865 H 88.572 -1.13396 -4.65487 0
M  V30 866 H 86.936 -0.508392 -2.49575 0
M  V30 867 H 87.719 -2.17184 -2.65868 0
M  V30 868 N 90.1641 1.46063 -0.591896 0
M  V30 869 C 91.3891 2.07226 -0.0850314 0
M  V30 870 C 91.8141 1.43625 1.21463 0
M  V30 871 O 91.1721 0.523305 1.73583 0
M  V30 872 C 91.2201 3.60554 0.0576567 0
M  V30 873 O 90.3241 3.97128 1.11188 0
M  V30 874 H 89.6651 0.660615 -0.0669568 0
M  V30 875 H 92.1951 1.8756 -0.81745 0
M  V30 876 H 92.2051 4.07165 0.2609 0
M  V30 877 H 90.8801 4.06235 -0.891416 0
M  V30 878 H 89.4571 3.62213 0.886356 0
M  V30 879 N 91.6422 0.330177 1.54103 0
M  V30 880 C 92.8672 -0.274893 2.0557 0
M  V30 881 C 93.2922 -1.44487 1.20437 0
M  V30 882 O 92.6502 -1.80021 0.214991 0
M  V30 883 C 92.6982 -0.68079 3.54115 0
M  V30 884 O 91.8022 -1.7824 3.71893 0
M  V30 885 H 91.1432 -0.0483849 0.662235 0
M  V30 886 H 93.6732 0.480508 1.98878 0
M  V30 887 H 93.6832 -0.961635 3.96505 0
M  V30 888 H 92.3582 0.174903 4.15532 0
M  V30 889 H 90.9352 -1.49985 3.41407 0
M  V30 890 N 93.1203 -1.57491 0.0584922 0
M  V30 891 C 94.3483 -1.97296 -0.623037 0
M  V30 892 C 94.7633 -0.936338 -1.63946 0
M  V30 893 O 94.1203 0.0785981 -1.82331 0
M  V30 894 C 94.1713 -3.37183 -1.30345 0
M  V30 895 O 93.8923 -4.36872 -0.32773 0
M  V30 896 C 95.3933 -3.91788 -2.07406 0
M  V30 897 H 92.6133 -0.649153 -0.169826 0
M  V30 898 H 95.1573 -2.04106 0.12696 0
M  V30 899 H 93.3123 -3.31502 -2.00463 0
M  V30 900 H 93.7263 -5.18141 -0.814269 0
M  V30 901 H 95.2003 -4.91926 -2.50425 0
M  V30 902 H 95.6773 -3.27609 -2.92521 0
M  V30 903 H 96.2833 -4.00829 -1.42184 0
M  V30 904 N 94.5984 0.214957 -1.56127 0
M  V30 905 C 95.5614 1.24997 -1.92116 0
M  V30 906 C 96.5614 1.39467 -0.800344 0
M  V30 907 O 97.7514 1.37619 -1.06802 0
M  V30 908 C 94.8834 2.62271 -2.17777 0
M  V30 909 H 96.0764 0.942875 -2.84693 0
M  V30 910 H 93.6294 0.455654 -1.49511 0
M  V30 911 H 94.3644 2.98068 -1.27773 0
M  V30 912 H 94.1494 2.53143 -2.99434 0
M  V30 913 H 95.6394 3.36946 -2.46693 0
M  V30 914 N 96.0765 1.50051 0.48192 0
M  V30 915 C 97.3015 1.64508 1.26301 0
M  V30 916 C 97.7265 0.323851 1.85291 0
M  V30 917 O 97.0845 -0.710969 1.66778 0
M  V30 918 C 97.1325 2.7305 2.35533 0
M  V30 919 O 96.2365 2.3355 3.39895 0
M  V30 920 H 95.5775 0.549978 0.372048 0
M  V30 921 H 98.1075 1.9636 0.574786 0
M  V30 922 H 98.1175 2.95799 2.8101 0
M  V30 923 H 96.7925 3.68946 1.91967 0
M  V30 924 H 95.3695 2.21205 3.00204 0
M  V30 925 N 97.5546 -0.734337 1.39446 0
M  V30 926 C 98.9656 -1.31264 1.32766 0
M  V30 927 C 99.3166 -1.96198 -0.00767497 0
M  V30 928 O 98.4416 -1.96346 -0.909796 0
M  V30 929 C 99.0366 -2.38682 2.4045 0
M  V30 930 C 97.5956 -2.92184 2.37288 0
M  V30 931 C 96.7426 -1.6576 2.22304 0
M  V30 932 H 99.6936 -0.531799 1.49525 0
M  V30 933 H 99.7146 -3.19087 2.07276 0
M  V30 934 H 99.2266 -1.91392 3.37625 0
M  V30 935 H 97.3276 -3.43752 1.43754 0
M  V30 936 H 97.4406 -3.45253 3.3217 0
M  V30 937 H 95.8046 -1.9012 1.69489 0
M  V30 938 H 96.5876 -1.20521 3.21449 0
M  V30 939 N 99.0327 -1.24633 -0.964593 0
M  V30 940 C 100.258 -1.11596 -1.74818 0
M  V30 941 C 100.683 0.32723 -1.85232 0
M  V30 942 O 100.041 1.23695 -1.32549 0
M  V30 943 C 100.089 -1.76397 -3.1451 0
M  V30 944 O 99.1927 -1.03685 -3.99153 0
M  V30 945 H 98.5337 -0.390196 -0.537255 0
M  V30 946 H 101.064 -1.65002 -1.20977 0
M  V30 947 H 101.074 -1.8228 -3.65018 0
M  V30 948 H 99.7487 -2.81401 -3.06246 0
M  V30 949 H 98.3257 -1.05611 -3.57632 0
M  V30 950 N 100.511 1.16574 -1.06058 0
M  V30 951 C 101.759 1.86677 -0.77434 0
M  V30 952 C 102.08 1.81959 0.701147 0
M  V30 953 O 101.35 1.2515 1.50713 0
M  V30 954 H 99.9298 0.691134 -0.283449 0
M  V30 955 H 102.592 1.41378 -1.34158 0
M  V30 956 H 101.688 2.92181 -1.09711 0
M  V30 957 N 101.989 0.842826 1.3317 0
M  V30 958 C 103.4 0.496651 1.79973 0
M  V30 959 C 103.751 -0.984641 1.69703 0
M  V30 960 O 102.876 -1.76743 1.24863 0
M  V30 961 C 103.471 0.894727 3.26772 0
M  V30 962 C 102.03 0.600629 3.71577 0
M  V30 963 C 101.177 1.10091 2.5451 0
M  V30 964 H 104.128 1.03116 1.20635 0
M  V30 965 H 104.149 0.206347 3.7994 0
M  V30 966 H 103.661 1.97287 3.34215 0
M  V30 967 H 101.762 -0.467284 3.69658 0
M  V30 968 H 101.875 1.15863 4.64879 0
M  V30 969 H 100.239 0.52162 2.49301 0
M  V30 970 H 101.022 2.18591 2.64713 0
M  V30 971 N 103.467 -1.45747 0.599634 0
M  V30 972 C 104.878 -1.85853 0.177681 0
M  V30 973 C 105.229 -1.50102 -1.26348 0
M  V30 974 O 104.354 -0.923905 -1.95686 0
M  V30 975 C 104.949 -3.37326 0.315688 0
M  V30 976 C 103.508 -3.76365 -0.0515144 0
M  V30 977 C 102.655 -2.69722 0.643822 0
M  V30 978 H 105.606 -1.36661 0.806814 0
M  V30 979 H 105.627 -3.77778 -0.454321 0
M  V30 980 H 105.139 -3.63315 1.36468 0
M  V30 981 H 103.24 -3.55993 -1.09999 0
M  V30 982 H 103.353 -4.77916 0.336594 0
M  V30 983 H 101.717 -2.54567 0.0822881 0
M  V30 984 H 102.5 -2.98549 1.6948 0
M  V30 985 N 104.945 -0.338344 -1.53925 0
M  V30 986 C 105.908 0.508299 -2.23493 0
M  V30 987 C 106.908 1.03175 -1.23335 0
M  V30 988 O 108.098 0.921826 -1.47811 0
M  V30 989 C 105.23 1.70754 -2.95052 0
M  V30 990 H 106.423 -0.100058 -2.99733 0
M  V30 991 H 103.976 -0.0896198 -1.56043 0
M  V30 992 H 104.711 2.35474 -2.22986 0
M  V30 993 H 104.496 1.33946 -3.68512 0
M  V30 994 H 105.986 2.30818 -3.48013 0
M  V30 995 N 106.423 1.57458 -0.0668435 0
M  V30 996 C 107.355 2.09413 0.931601 0
M  V30 997 C 108.368 1.02522 1.26464 0
M  V30 998 O 109.557 1.30049 1.22269 0
M  V30 999 C 106.657 2.53537 2.24882 0
M  V30 1000 C 105.83 3.83944 2.09537 0
M  V30 1001 C 104.889 4.14214 3.2452 0
M  V30 1002 O 103.915 4.83891 2.9973 0
M  V30 1003 N 105.117 3.67367 4.49469 0
M  V30 1004 H 107.882 2.95699 0.488048 0
M  V30 1005 H 105.443 1.61462 0.119009 0
M  V30 1006 H 107.435 2.70853 3.00701 0
M  V30 1007 H 106.005 1.72415 2.60753 0
M  V30 1008 H 105.225 3.76057 1.18215 0
M  V30 1009 H 106.513 4.69312 1.96529 0
M  V30 1010 H 105.911 3.11068 4.72497 0
M  V30 1011 H 104.468 3.89891 5.2233 0
M  V30 1012 N 107.901 -0.206675 1.56239 0
M  V30 1013 C 109.178 -0.954051 1.70755 0
M  V30 1014 C 109.558 -2.01841 0.618353 0
M  V30 1015 O 108.906 -2.25444 -0.372434 0
M  V30 1016 C 109.116 -1.551 3.12642 0
M  V30 1017 C 110.464 -2.03757 3.72516 0
M  V30 1018 O 111.488 -1.64965 3.15698 0
M  V30 1019 O 110.347 -2.75103 4.72208 0
M  V30 1020 H 107.441 -0.446636 0.696021 0
M  V30 1021 H 109.987 -0.197283 1.68549 0
M  V30 1022 H 108.759 -0.783212 3.83382 0
M  V30 1023 H 108.382 -2.37291 3.19028 0
M  V30 1024 N 109.379 -1.50304 -0.473955 0
M  V30 1025 C 110.311 -1.65109 -1.58971 0
M  V30 1026 C 111.324 -0.532676 -1.53839 0
M  V30 1027 O 112.513 -0.805751 -1.59279 0
M  V30 1028 C 109.613 -1.61684 -2.97845 0
M  V30 1029 C 108.786 -2.8951 -3.27876 0
M  V30 1030 C 107.845 -2.78768 -4.4629 0
M  V30 1031 O 106.871 -3.52722 -4.46739 0
M  V30 1032 N 108.073 -1.9213 -5.47783 0
M  V30 1033 H 110.838 -2.61347 -1.46689 0
M  V30 1034 H 108.399 -1.47732 -0.662324 0
M  V30 1035 H 110.391 -1.52114 -3.75024 0
M  V30 1036 H 108.961 -0.731925 -3.03911 0
M  V30 1037 H 108.181 -3.13228 -2.39336 0
M  V30 1038 H 109.469 -3.74199 -3.4475 0
M  V30 1039 H 108.867 -1.31353 -5.50239 0
M  V30 1040 H 107.424 -1.88466 -6.23958 0
M  V30 1041 N 110.857 0.726932 -1.39834 0
M  V30 1042 C 112.134 1.47902 -1.28001 0
M  V30 1043 C 112.514 2.1083 0.106789 0
M  V30 1044 O 111.862 1.99242 1.11869 0
M  V30 1045 C 112.072 2.52392 -2.41038 0
M  V30 1046 C 113.42 3.18546 -2.80737 0
M  V30 1047 O 114.444 2.62708 -2.40547 0
M  V30 1048 O 113.303 4.19604 -3.50135 0
M  V30 1049 H 110.397 0.657163 -0.502062 0
M  V30 1050 H 112.943 0.760071 -1.51727 0
M  V30 1051 H 111.715 2.04329 -3.33715 0
M  V30 1052 H 111.338 3.31837 -2.19021 0
M  V30 1053 N 112.336 1.25143 0.95797 0
M  V30 1054 C 113.585 1.0909 1.69654 0
M  V30 1055 C 113.898 -0.368548 1.92097 0
M  V30 1056 O 115.104 -0.649455 2.63618 0
M  V30 1057 C 113.56 1.90395 3.05414 0
M  V30 1058 C 113.168 3.4081 2.90779 0
M  V30 1059 C 114.912 1.82901 3.83076 0
M  V30 1060 C 112.819 4.14423 4.21909 0
M  V30 1061 H 111.749 0.404625 0.636235 0
M  V30 1062 H 114.4 1.4931 1.06672 0
M  V30 1063 H 112.782 1.42996 3.69281 0
M  V30 1064 H 113.956 3.95859 2.35865 0
M  V30 1065 H 112.271 3.49361 2.26575 0
M  V30 1066 H 114.868 2.35196 4.80195 0
M  V30 1067 H 115.211 0.796224 4.08615 0
M  V30 1068 H 115.744 2.28033 3.25954 0
M  V30 1069 H 112.483 5.18102 4.01561 0
M  V30 1070 H 112.003 3.64159 4.76601 0
M  V30 1071 H 113.682 4.21956 4.90471 0
M  V30 1072 N 113.814 -1.1601 1.06675 0
M  V30 1073 C 115.054 -1.88304 0.795037 0
M  V30 1074 C 115.418 -1.80062 -0.666466 0
M  V30 1075 O 116.619 -2.47319 -1.05293 0
M  V30 1076 C 114.89 -3.33664 1.28076 0
M  V30 1077 S 116.449 -4.23768 1.13868 0
M  V30 1078 H 113.267 -0.649928 0.288296 0
M  V30 1079 H 115.869 -1.4001 1.36445 0
M  V30 1080 H 114.573 -3.37203 2.33927 0
M  V30 1081 H 114.104 -3.87009 0.706253 0
M  V30 1082 H 116.119 -4.96148 0.0719668 0
M  V30 1083 N 115.292 -0.849877 -1.32721 0
M  V30 1084 C 116.703 -0.506188 -1.79707 0
M  V30 1085 C 117.054 0.975627 -1.70223 0
M  V30 1086 O 116.179 1.76078 -1.25799 0
M  V30 1087 C 116.774 -0.912044 -3.26293 0
M  V30 1088 C 115.333 -0.620326 -3.71253 0
M  V30 1089 C 114.48 -1.11439 -2.53922 0
M  V30 1090 H 117.431 -1.03754 -1.20087 0
M  V30 1091 H 117.452 -0.226493 -3.79825 0
M  V30 1092 H 116.964 -1.99057 -3.33164 0
M  V30 1093 H 115.065 0.447674 -3.69901 0
M  V30 1094 H 115.178 -1.18327 -4.64258 0
M  V30 1095 H 113.542 -0.534834 -2.49021 0
M  V30 1096 H 114.325 -2.19992 -2.6355 0
M  V30 1097 N 116.77 1.45427 -0.607355 0
M  V30 1098 C 117.733 2.28974 0.101693 0
M  V30 1099 C 118.733 1.39754 0.795329 0
M  V30 1100 O 119.923 1.61878 0.643527 0
M  V30 1101 C 117.055 3.20768 1.15414 0
M  V30 1102 H 118.248 2.93147 -0.632844 0
M  V30 1103 H 115.801 1.51945 -0.366391 0
M  V30 1104 H 116.536 2.61395 1.91945 0
M  V30 1105 H 116.321 3.86489 0.66098 0
M  V30 1106 H 117.811 3.83589 1.65073 0
M  V30 1107 N 118.248 0.346503 1.53744 0
M  V30 1108 C 119.473 -0.253074 2.0585 0
M  V30 1109 C 119.898 -1.43202 1.21962 0
M  V30 1110 O 119.256 -1.79783 0.234073 0
M  V30 1111 C 119.304 -0.643193 3.54817 0
M  V30 1112 O 118.408 -1.74286 3.73762 0
M  V30 1113 H 117.749 -0.0413583 0.662711 0
M  V30 1114 H 120.279 0.501574 1.98357 0
M  V30 1115 H 120.289 -0.919526 3.97503 0
M  V30 1116 H 118.964 0.218966 4.15323 0
M  V30 1117 H 117.541 -1.46356 3.42979 0
M  V30 1118 N 119.726 -1.57421 0.075193 0
M  V30 1119 C 120.636 -2.1642 -0.905511 0
M  V30 1120 C 121.652 -1.12828 -1.32461 0
M  V30 1121 O 122.828 -1.45109 -1.39661 0
M  V30 1122 C 119.893 -2.71693 -2.15369 0
M  V30 1123 C 118.954 -3.90171 -1.79068 0
M  V30 1124 C 118.187 -4.42798 -2.97936 0
M  V30 1125 O 118.41 -3.94416 -4.12058 0
M  V30 1126 O 117.344 -5.34085 -2.77555 0
M  V30 1127 H 121.17 -3.00588 -0.433626 0
M  V30 1128 H 118.755 -1.48664 -0.148067 0
M  V30 1129 H 120.637 -3.07104 -2.88557 0
M  V30 1130 H 119.312 -1.90582 -2.61649 0
M  V30 1131 H 118.219 -3.59606 -1.03122 0
M  V30 1132 H 119.552 -4.72584 -1.37569 0
M  V30 1133 N 121.204 0.198386 -1.56346 0
M  V30 1134 C 122.481 0.944982 -1.71258 0
M  V30 1135 C 122.861 2.0151 -0.629048 0
M  V30 1136 O 122.209 2.25639 0.360473 0
M  V30 1137 C 122.419 1.5344 -3.1346 0
M  V30 1138 C 123.767 2.01778 -3.73591 0
M  V30 1139 O 124.791 1.63288 -3.16568 0
M  V30 1140 O 123.65 2.72594 -4.73661 0
M  V30 1141 H 120.744 0.442939 -0.69838 0
M  V30 1142 H 123.29 0.188342 -1.68652 0
M  V30 1143 H 122.062 0.762869 -3.83792 0
M  V30 1144 H 121.685 2.35596 -3.20282 0
M  V30 1145 N 122.682 1.50554 0.465978 0
M  V30 1146 C 123.592 1.72585 1.58907 0
M  V30 1147 C 124.608 0.60911 1.6299 0
M  V30 1148 O 125.784 0.88804 1.80765 0
M  V30 1149 C 122.849 1.81995 2.95091 0
M  V30 1150 C 121.91 3.05751 3.01355 0
M  V30 1151 C 121.143 3.14702 4.31043 0
M  V30 1152 O 121.366 2.30313 5.21835 0
M  V30 1153 O 120.3 4.07468 4.43005 0
M  V30 1154 H 124.126 2.67799 1.43239 0
M  V30 1155 H 121.711 1.34711 0.646013 0
M  V30 1156 H 123.593 1.90335 3.75966 0
M  V30 1157 H 122.268 0.899659 3.10947 0
M  V30 1158 H 121.175 3.02908 2.19539 0
M  V30 1159 H 122.508 3.97375 2.90437 0
M  V30 1160 N 124.16 -0.719506 1.40217 0
M  V30 1161 C 125.385 -1.51371 1.4178 0
M  V30 1162 C 125.81 -1.88091 0.0182355 0
M  V30 1163 O 125.168 -1.52997 -0.972707 0
M  V30 1164 C 125.216 -2.768 2.31115 0
M  V30 1165 O 124.32 -3.73349 1.7517 0
M  V30 1166 H 123.661 -0.456529 0.482159 0
M  V30 1167 H 126.191 -0.88644 1.844 0
M  V30 1168 H 126.201 -3.25371 2.46167 0
M  V30 1169 H 124.876 -2.49407 3.3282 0
M  V30 1170 H 123.453 -3.32179 1.69444 0
M  V30 1171 N 125.638 -1.25649 -0.95132 0
M  V30 1172 C 126.886 -1.10375 -1.69298 0
M  V30 1173 C 127.207 0.355339 -1.91735 0
M  V30 1174 O 126.477 1.25188 -1.50681 0
M  V30 1175 H 125.057 -0.405461 -0.627384 0
M  V30 1176 H 127.719 -1.57823 -1.14358 0
M  V30 1177 H 126.815 -1.61465 -2.67087 0
M  V30 1178 N 127.117 1.15442 -1.07289 0
M  V30 1179 C 128.049 2.19773 -0.650585 0
M  V30 1180 C 129.062 1.60076 0.296572 0
M  V30 1181 O 130.251 1.78293 0.0859905 0
M  V30 1182 C 127.351 3.38838 0.0650398 0
M  V30 1183 C 126.524 4.2808 -0.898141 0
M  V30 1184 C 125.583 5.2574 -0.219926 0
M  V30 1185 O 124.609 5.62654 -0.860773 0
M  V30 1186 N 125.811 5.71205 1.03466 0
M  V30 1187 H 128.576 2.56622 -1.54808 0
M  V30 1188 H 126.137 1.30551 -0.957494 0
M  V30 1189 H 128.129 4.01222 0.529415 0
M  V30 1190 H 126.699 3.00409 0.864466 0
M  V30 1191 H 125.919 3.62804 -1.54165 0
M  V30 1192 H 127.207 4.84577 -1.5512 0
M  V30 1193 H 126.605 5.43325 1.57526 0
M  V30 1194 H 125.162 6.35633 1.44272 0
M  V30 1195 N 128.595 0.856903 1.32268 0
M  V30 1196 C 129.841 0.471355 1.97863 0
M  V30 1197 C 130.196 -0.962896 1.66572 0
M  V30 1198 O 129.489 -1.66686 0.944797 0
M  V30 1199 C 129.683 0.649919 3.51441 0
M  V30 1200 C 129.512 2.09997 3.97657 0
M  V30 1201 C 128.282 2.73893 4.2463 0
M  V30 1202 C 130.48 3.07081 4.1256 0
M  V30 1203 N 128.462 4.09786 4.57109 0
M  V30 1204 C 129.833 4.27968 4.48602 0
M  V30 1205 C 131.888 3.03247 3.949 0
M  V30 1206 C 130.591 5.45521 4.68827 0
M  V30 1207 C 132.617 4.20046 4.16311 0
M  V30 1208 C 131.979 5.39692 4.52672 0
M  V30 1209 H 128.078 0.221263 0.750044 0
M  V30 1210 H 130.662 1.10876 1.60045 0
M  V30 1211 H 128.833 0.0421938 3.88377 0
M  V30 1212 H 130.565 0.234044 4.04023 0
M  V30 1213 H 127.32 2.24918 4.16784 0
M  V30 1214 H 127.744 4.7989 4.7753 0
M  V30 1215 H 132.386 2.11863 3.65888 0
M  V30 1216 H 130.104 6.37434 4.96693 0
M  V30 1217 H 133.69 4.18517 4.04147 0
M  V30 1218 H 132.57 6.28566 4.68907 0
M  V30 1219 N 130.073 -1.45103 0.615059 0
M  V30 1220 C 131.02 -2.30586 -0.0993978 0
M  V30 1221 C 131.99 -1.42544 -0.852669 0
M  V30 1222 O 133.175 -1.71465 -0.836917 0
M  V30 1223 C 130.315 -3.27572 -1.08583 0
M  V30 1224 C 129.428 -4.30717 -0.332656 0
M  V30 1225 C 128.563 -5.14807 -1.30947 0
M  V30 1226 C 127.602 -6.09673 -0.544538 0
M  V30 1227 N 126.739 -6.86517 -1.47101 0
M  V30 1228 H 131.579 -2.91144 0.635542 0
M  V30 1229 H 129.116 -1.4346 0.325206 0
M  V30 1230 H 131.074 -3.82276 -1.67095 0
M  V30 1231 H 129.704 -2.68751 -1.78809 0
M  V30 1232 H 128.756 -3.78615 0.368107 0
M  V30 1233 H 130.068 -4.98102 0.263842 0
M  V30 1234 H 129.222 -5.73948 -1.96643 0
M  V30 1235 H 127.961 -4.47458 -1.9399 0
M  V30 1236 H 126.966 -5.49656 0.126003 0
M  V30 1237 H 128.191 -6.79052 0.080947 0
M  V30 1238 H 126.137 -6.21851 -2.08895 0
M  V30 1239 H 126.054 -7.50281 -0.928137 0
M  V30 1240 H 127.322 -7.50194 -2.11731 0
M  V30 1241 N 131.551 -0.354651 -1.53558 0
M  V30 1242 C 132.499 0.512195 -2.26891 0
M  V30 1243 C 133.493 1.09263 -1.29452 0
M  V30 1244 O 134.699 1.03709 -1.47121 0
M  V30 1245 H 131.074 0.183878 -0.729173 0
M  V30 1246 H 133.045 -0.128202 -2.98124 0
M  V30 1247 C 131.794 1.64563 -3.06291 0
M  V30 1248 H 131.117 1.20829 -3.81104 0
M  V30 1249 H 132.557 2.22711 -3.60799 0
M  V30 1250 C 131.016 2.58158 -2.16462 0
M  V30 1251 O 131.546 3.60695 -1.76811 0
M  V30 1252 N 129.752 2.27096 -1.81317 0
M  V30 1253 H 129.299 1.43751 -2.1376 0
M  V30 1254 H 129.257 2.89975 -1.21498 0
M  V30 1255 N 133.029 1.57378 -0.0835403 0
M  V30 1256 C 134.276 1.9393 0.58287 0
M  V30 1257 C 134.604 0.964455 1.68904 0
M  V30 1258 O 133.859 -0.0179474 1.95692 0
M  V30 1259 C 134.158 3.37063 1.1884 0
M  V30 1260 C 133.824 4.50424 0.207194 0
M  V30 1261 C 132.486 4.81159 -0.0627115 0
M  V30 1262 C 134.838 5.19136 -0.463426 0
M  V30 1263 C 132.166 5.77939 -1.01012 0
M  V30 1264 C 134.518 6.16931 -1.39924 0
M  V30 1265 C 133.182 6.46078 -1.67749 0
M  V30 1266 H 132.452 0.70964 0.213287 0
M  V30 1267 H 135.099 1.90856 -0.156916 0
M  V30 1268 H 133.404 3.3666 2.00418 0
M  V30 1269 H 135.101 3.6264 1.71153 0
M  V30 1270 H 131.691 4.2646 0.427747 0
M  V30 1271 H 135.875 4.95576 -0.268034 0
M  V30 1272 H 131.131 5.98842 -1.23283 0
M  V30 1273 H 135.305 6.69273 -1.92476 0
M  V30 1274 H 132.932 7.2088 -2.41321 0
M  V30 1275 N 134.507 -0.190092 1.56449 0
M  V30 1276 C 135.923 -0.54113 1.50146 0
M  V30 1277 C 136.123 -1.85603 0.784465 0
M  V30 1278 O 135.179 -2.5024 0.337051 0
M  V30 1279 C 136.492 -0.591241 2.9483 0
M  V30 1280 C 138.04 -0.679732 3.0553 0
M  V30 1281 C 138.515 -0.760908 4.51635 0
M  V30 1282 N 140.006 -0.824302 4.55806 0
M  V30 1283 C 140.741 -0.907365 5.66175 0
M  V30 1284 N 140.237 -0.952422 6.86222 0
M  V30 1285 N 142.03 -0.94494 5.541 0
M  V30 1286 H 134.181 0.67235 2.01478 0
M  V30 1287 H 136.444 0.240127 0.917084 0
M  V30 1288 H 136.15 0.305905 3.50367 0
M  V30 1289 H 136.024 -1.44422 3.48457 0
M  V30 1290 H 138.411 -1.56731 2.50039 0
M  V30 1291 H 138.492 0.199549 2.5502 0
M  V30 1292 H 138.136 0.122336 5.07753 0
M  V30 1293 H 138.066 -1.65606 4.99882 0
M  V30 1294 H 140.557 -0.798526 3.69367 0
M  V30 1295 H 140.87 -1.01645 7.66086 0
M  V30 1296 H 139.215 -0.921014 6.8887 0
M  V30 1297 H 142.406 -0.906612 4.59236 0
M  V30 1298 H 142.579 -1.00622 6.4014 0
M  V30 1299 N 135.985 -1.50799 -0.457987 0
M  V30 1300 C 136.915 -1.73553 -1.5621 0
M  V30 1301 C 137.896 -0.584774 -1.59732 0
M  V30 1302 O 139.081 -0.825314 -1.7579 0
M  V30 1303 C 136.211 -1.84169 -2.94447 0
M  V30 1304 C 135.165 -2.99461 -3.0579 0
M  V30 1305 C 134.491 -2.95235 -4.45803 0
M  V30 1306 C 135.791 -4.39766 -2.81786 0
M  V30 1307 H 137.485 -2.66 -1.37421 0
M  V30 1308 H 135.031 -1.28002 -0.659662 0
M  V30 1309 H 136.984 -1.98672 -3.71628 0
M  V30 1310 H 135.708 -0.883545 -3.14422 0
M  V30 1311 H 134.367 -2.8463 -2.31044 0
M  V30 1312 H 134.015 -1.97239 -4.62715 0
M  V30 1313 H 133.715 -3.72642 -4.54326 0
M  V30 1314 H 135.239 -3.11803 -5.24987 0
M  V30 1315 H 136.653 -4.55054 -3.4871 0
M  V30 1316 H 135.05 -5.18722 -3.0174 0
M  V30 1317 H 136.12 -4.51229 -1.7754 0
M  V30 1318 N 137.463 0.71206 -1.40597 0
M  V30 1319 C 138.874 1.29135 -1.34837 0
M  V30 1320 C 139.225 1.96186 -0.0235395 0
M  V30 1321 O 138.35 1.97768 0.878444 0
M  V30 1322 C 138.945 2.34827 -2.44217 0
M  V30 1323 C 137.504 2.88371 -2.41907 0
M  V30 1324 C 136.651 1.62202 -2.24913 0
M  V30 1325 H 139.602 0.507944 -1.50352 0
M  V30 1326 H 139.623 3.15749 -2.12327 0
M  V30 1327 H 139.135 1.85996 -3.40627 0
M  V30 1328 H 137.236 3.41422 -1.49204 0
M  V30 1329 H 137.349 3.39925 -3.37621 0
M  V30 1330 H 135.713 1.874 -1.72492 0
M  V30 1331 H 136.496 1.15391 -3.23326 0
M  V30 1332 N 138.941 1.26152 0.944643 0
M  V30 1333 C 140.218 1.02247 1.66748 0
M  V30 1334 C 140.598 -0.448202 2.06287 0
M  V30 1335 O 139.946 -1.42779 1.78399 0
M  V30 1336 C 140.156 1.96788 2.88228 0
M  V30 1337 C 141.504 2.25201 3.59958 0
M  V30 1338 O 142.528 1.94626 2.98327 0
M  V30 1339 O 141.387 2.77242 4.70956 0
M  V30 1340 H 138.481 0.388517 0.730057 0
M  V30 1341 H 141.027 1.37348 0.99668 0
M  V30 1342 H 139.799 2.96047 2.55875 0
M  V30 1343 H 139.422 1.62145 3.63035 0
M  V30 1344 N 140.419 -1.14872 1.07899 0
M  V30 1345 C 141.666 -1.85789 0.805532 0
M  V30 1346 C 141.994 -1.82649 -0.668561 0
M  V30 1347 O 141.249 -1.24858 -1.50695 0
M  V30 1348 C 141.548 -3.34223 1.26609 0
M  V30 1349 C 141.214 -3.57555 2.74709 0
M  V30 1350 C 139.876 -3.63631 3.1516 0
M  V30 1351 C 142.228 -3.66803 3.70277 0
M  V30 1352 C 139.556 -3.76473 4.49983 0
M  V30 1353 C 141.908 -3.8117 5.04869 0
M  V30 1354 C 140.572 -3.85494 5.44932 0
M  V30 1355 H 139.842 -0.679849 0.294765 0
M  V30 1356 H 142.489 -1.3572 1.35101 0
M  V30 1357 H 140.794 -3.86536 0.640103 0
M  V30 1358 H 142.491 -3.87511 1.03132 0
M  V30 1359 H 139.081 -3.5347 2.42398 0
M  V30 1360 H 143.265 -3.61404 3.40149 0
M  V30 1361 H 138.521 -3.7808 4.80484 0
M  V30 1362 H 142.695 -3.87268 5.78789 0
M  V30 1363 H 140.322 -3.95197 6.49403 0
M  V30 1364 N 141.898 -0.863906 -1.31812 0
M  V30 1365 C 143.144 -0.472535 -1.97218 0
M  V30 1366 C 143.477 0.971394 -1.68159 0
M  V30 1367 O 142.752 1.68309 -0.974798 0
M  V30 1368 C 143.035 -0.723054 -3.52766 0
M  V30 1369 C 142.888 -2.21608 -3.91421 0
M  V30 1370 C 144.207 -0.185522 -4.39709 0
M  V30 1371 H 141.326 -0.173158 -0.71637 0
M  V30 1372 H 143.968 -1.08403 -1.56041 0
M  V30 1373 H 142.118 -0.202577 -3.87971 0
M  V30 1374 H 143.79 -2.80334 -3.66347 0
M  V30 1375 H 142.033 -2.691 -3.40246 0
M  V30 1376 H 142.704 -2.34203 -4.99853 0
M  V30 1377 H 145.18 -0.630726 -4.11292 0
M  V30 1378 H 144.056 -0.390306 -5.47511 0
M  V30 1379 H 144.317 0.912229 -4.32586 0
M  V30 1380 N 143.376 1.44774 -0.622745 0
M  V30 1381 C 144.324 2.32387 0.0994683 0
M  V30 1382 C 145.318 1.46859 0.844326 0
M  V30 1383 O 146.524 1.63254 0.758174 0
M  V30 1384 H 142.899 0.750273 0.0509291 0
M  V30 1385 H 144.87 2.91062 -0.65767 0
M  V30 1386 C 143.619 3.30723 1.07319 0
M  V30 1387 H 142.942 3.96541 0.509462 0
M  V30 1388 H 144.382 3.94725 1.54817 0
M  V30 1389 C 142.841 2.59021 2.15429 0
M  V30 1390 O 143.371 2.38286 3.23393 0
M  V30 1391 N 141.577 2.189 1.91131 0
M  V30 1392 H 141.124 2.35964 1.03337 0
M  V30 1393 H 141.082 1.71251 2.63668 0
M  V30 1394 N 144.854 0.36279 1.53368 0
M  V30 1395 C 146.265 -0.117022 1.86333 0
M  V30 1396 C 146.616 -1.48397 1.28347 0
M  V30 1397 O 145.741 -2.07787 0.604428 0
M  V30 1398 C 146.336 -0.21912 3.38091 0
M  V30 1399 C 144.895 -0.643184 3.70864 0
M  V30 1400 C 144.042 0.211318 2.76494 0
M  V30 1401 H 146.993 0.581687 1.47655 0
M  V30 1402 H 147.014 -1.04319 3.6592 0
M  V30 1403 H 146.526 0.775902 3.80265 0
M  V30 1404 H 144.627 -1.64654 3.34245 0
M  V30 1405 H 144.74 -0.41973 4.77258 0
M  V30 1406 H 143.104 -0.319367 2.5269 0
M  V30 1407 H 143.887 1.20383 3.21501 0
M  V30 1408 N 146.332 -1.57332 0.0918853 0
M  V30 1409 C 147.578 -1.94524 -0.573425 0
M  V30 1410 C 147.911 -0.973578 -1.68033 0
M  V30 1411 O 147.186 -0.00609226 -1.94499 0
M  V30 1412 C 147.469 -3.41858 -1.13161 0
M  V30 1413 C 147.322 -4.4979 -0.0299747 0
M  V30 1414 C 148.641 -3.90435 -2.03098 0
M  V30 1415 H 145.76 -0.70734 -0.206975 0
M  V30 1416 H 148.402 -1.89309 0.161942 0
M  V30 1417 H 146.552 -3.46433 -1.7583 0
M  V30 1418 H 148.224 -4.57327 0.604112 0
M  V30 1419 H 146.467 -4.291 0.636833 0
M  V30 1420 H 147.138 -5.50069 -0.461287 0
M  V30 1421 H 149.614 -3.87992 -1.50338 0
M  V30 1422 H 148.49 -4.94097 -2.39081 0
M  V30 1423 H 148.751 -3.29541 -2.94712 0
M  V30 1424 N 147.81 0.181792 -1.56548 0
M  V30 1425 C 148.76 1.22961 -1.92002 0
M  V30 1426 C 149.744 1.40331 -0.787146 0
M  V30 1427 O 150.936 1.42478 -1.05019 0
M  V30 1428 C 148.065 2.57144 -2.27446 0
M  V30 1429 C 147.151 2.43512 -3.47222 0
M  V30 1430 N 147.542 1.99577 -4.64761 0
M  V30 1431 C 145.84 2.74368 -3.51622 0
M  V30 1432 C 146.541 1.98156 -5.46909 0
M  V30 1433 N 145.517 2.40164 -4.8767 0
M  V30 1434 H 149.319 0.881462 -2.8037 0
M  V30 1435 H 146.833 0.390141 -1.57644 0
M  V30 1436 H 148.83 3.32847 -2.51035 0
M  V30 1437 H 147.49 2.92771 -1.40411 0
M  V30 1438 H 148.501 1.70078 -4.89177 0
M  V30 1439 H 145.178 3.14102 -2.75038 0
M  V30 1440 H 146.568 1.65975 -6.51077 0
M  V30 1441 N 149.288 1.51039 0.449983 0
M  V30 1442 C 150.518 1.66627 1.22143 0
M  V30 1443 C 150.926 0.357776 1.85786 0
M  V30 1444 O 150.269 -0.672424 1.70951 0
M  V30 1445 C 150.331 2.71562 2.35573 0
M  V30 1446 C 149.995 4.14526 1.92399 0
M  V30 1447 C 150.992 4.99717 1.43453 0
M  V30 1448 C 148.677 4.60559 2.00475 0
M  V30 1449 C 150.671 6.28998 1.03155 0
M  V30 1450 C 148.358 5.8984 1.59788 0
M  V30 1451 C 149.356 6.73886 1.11208 0
M  V30 1452 O 149.044 8.0075 0.710935 0
M  V30 1453 H 148.776 0.562635 0.374724 0
M  V30 1454 H 151.33 1.98146 0.541036 0
M  V30 1455 H 149.56 2.3533 3.06849 0
M  V30 1456 H 151.249 2.76156 2.97478 0
M  V30 1457 H 152.015 4.65361 1.36618 0
M  V30 1458 H 147.894 3.95273 2.37235 0
M  V30 1459 H 151.438 6.9455 0.651663 0
M  V30 1460 H 147.335 6.23713 1.66289 0
M  V30 1461 H 148.103 8.142 0.837913 0
M  V30 1462 N 150.766 -0.704594 1.40972 0
M  V30 1463 C 152.043 -1.45847 1.30338 0
M  V30 1464 C 152.423 -2.10973 -0.0732344 0
M  V30 1465 O 151.771 -2.00997 -1.08685 0
M  V30 1466 C 151.981 -2.48525 2.45023 0
M  V30 1467 C 153.329 -3.1404 2.8577 0
M  V30 1468 O 154.353 -2.58848 2.44696 0
M  V30 1469 O 153.212 -4.13981 3.56766 0
M  V30 1470 H 150.306 -0.649092 0.512454 0
M  V30 1471 H 152.852 -0.735836 1.52917 0
M  V30 1472 H 151.624 -1.98994 3.36923 0
M  V30 1473 H 151.247 -3.2831 2.24272 0
M  V30 1474 N 152.244 -1.26651 -0.937939 0
M  V30 1475 C 153.174 -1.10993 -2.05433 0
M  V30 1476 C 154.155 -0.0142161 -1.70094 0
M  V30 1477 O 155.34 -0.186837 -1.93299 0
M  V30 1478 C 152.47 -0.745561 -3.39203 0
M  V30 1479 C 151.424 -1.79337 -3.88616 0
M  V30 1480 C 150.75 -1.28324 -5.19073 0
M  V30 1481 C 152.05 -3.19553 -4.13138 0
M  V30 1482 H 153.744 -2.0438 -2.1879 0
M  V30 1483 H 151.29 -0.984041 -1.05131 0
M  V30 1484 H 153.243 -0.622888 -4.16771 0
M  V30 1485 H 151.967 0.22401 -3.25831 0
M  V30 1486 H 150.626 -1.90477 -3.13231 0
M  V30 1487 H 150.274 -0.303414 -5.02084 0
M  V30 1488 H 149.974 -1.98369 -5.53103 0
M  V30 1489 H 151.498 -1.1733 -5.99221 0
M  V30 1490 H 152.912 -3.11471 -4.81309 0
M  V30 1491 H 151.309 -3.87218 -4.58457 0
M  V30 1492 H 152.379 -3.65368 -3.18801 0
M  V30 1493 N 153.722 1.14298 -1.08507 0
M  V30 1494 C 154.672 2.17449 -0.685569 0
M  V30 1495 C 155.656 1.58167 0.295315 0
M  V30 1496 O 156.848 1.76675 0.107172 0
M  V30 1497 C 153.977 3.43161 -0.0975318 0
M  V30 1498 C 153.063 4.09471 -1.10426 0
M  V30 1499 N 153.454 4.51089 -2.28806 0
M  V30 1500 C 151.752 4.35976 -0.940258 0
M  V30 1501 C 152.453 5.02654 -2.9277 0
M  V30 1502 N 151.429 4.96927 -2.20374 0
M  V30 1503 H 155.231 2.47369 -1.587 0
M  V30 1504 H 152.745 1.30992 -0.959936 0
M  V30 1505 H 154.742 4.16388 0.20664 0
M  V30 1506 H 153.402 3.14719 0.798872 0
M  V30 1507 H 154.413 4.44097 -2.66455 0
M  V30 1508 H 151.09 4.17386 -0.0977441 0
M  V30 1509 H 152.48 5.44723 -3.93352 0
M  V30 1510 N 155.201 0.870884 1.31352 0
M  V30 1511 C 156.447 0.482987 1.96965 0
M  V30 1512 C 156.78 -0.962462 1.68672 0
M  V30 1513 O 156.055 -1.6779 0.98371 0
M  V30 1514 C 156.338 0.741752 3.52378 0
M  V30 1515 C 156.191 2.2368 3.9024 0
M  V30 1516 C 157.51 0.208838 4.39604 0
M  V30 1517 H 154.629 0.176955 0.715441 0
M  V30 1518 H 157.271 1.09229 1.55464 0
M  V30 1519 H 155.421 0.223149 3.87859 0
M  V30 1520 H 157.093 2.82273 3.64856 0
M  V30 1521 H 155.336 2.70901 3.38814 0
M  V30 1522 H 156.007 2.3685 4.98604 0
M  V30 1523 H 158.483 0.652529 4.10952 0
M  V30 1524 H 157.359 0.419336 5.47296 0
M  V30 1525 H 157.62 -0.889275 4.33064 0
M  V30 1526 N 156.679 -1.44442 0.630414 0
M  V30 1527 C 157.626 -2.30678 -0.0749355 0
M  V30 1528 C 158.596 -1.4344 -0.837502 0
M  V30 1529 O 159.781 -1.72343 -0.818684 0
M  V30 1530 C 156.921 -3.28706 -1.05103 0
M  V30 1531 C 156.034 -4.31046 -0.286954 0
M  V30 1532 C 155.169 -5.16167 -1.2548 0
M  V30 1533 C 154.208 -6.10216 -0.479843 0
M  V30 1534 N 153.345 -6.88039 -1.39811 0
M  V30 1535 H 158.185 -2.90454 0.666386 0
M  V30 1536 H 155.722 -1.43107 0.340404 0
M  V30 1537 H 157.68 -3.84027 -1.63031 0
M  V30 1538 H 156.31 -2.70632 -1.75949 0
M  V30 1539 H 155.362 -3.78203 0.408243 0
M  V30 1540 H 156.674 -4.97794 0.316657 0
M  V30 1541 H 155.828 -5.76002 -1.90544 0
M  V30 1542 H 154.567 -4.49491 -1.89233 0
M  V30 1543 H 153.572 -5.49491 0.184295 0
M  V30 1544 H 154.797 -6.78928 0.152965 0
M  V30 1545 H 152.743 -6.24032 -2.02287 0
M  V30 1546 H 152.66 -7.51223 -0.848508 0
M  V30 1547 H 153.928 -7.52397 -2.03762 0
M  V30 1548 N 158.157 -0.370918 -1.53173 0
M  V30 1549 C 159.568 0.107139 -1.86392 0
M  V30 1550 C 159.919 1.47714 -1.29132 0
M  V30 1551 O 159.044 2.07464 -0.615439 0
M  V30 1552 C 159.639 0.201187 -3.38202 0
M  V30 1553 C 158.198 0.623507 -3.712 0
M  V30 1554 C 157.345 -0.225978 -2.76378 0
M  V30 1555 H 160.296 -0.58951 -1.47345 0
M  V30 1556 H 160.317 1.02377 -3.66468 0
M  V30 1557 H 159.829 -0.796058 -3.79848 0
M  V30 1558 H 157.93 1.62879 -3.35114 0
M  V30 1559 H 158.043 0.394414 -4.77474 0
M  V30 1560 H 156.407 0.305962 -2.52856 0
M  V30 1561 H 157.19 -1.22086 -3.20858 0
M  V30 1562 N 159.635 1.57281 -0.100228 0
M  V30 1563 C 160.565 2.17328 0.853857 0
M  V30 1564 C 161.546 1.10804 1.2906 0
M  V30 1565 O 162.731 1.38963 1.35657 0
M  V30 1566 C 159.861 2.75772 2.11109 0
M  V30 1567 C 158.815 3.87713 1.81279 0
M  V30 1568 C 158.141 4.32882 3.13874 0
M  V30 1569 C 159.441 5.10677 1.09574 0
M  V30 1570 H 161.135 2.97305 0.353545 0
M  V30 1571 H 158.681 1.43009 0.168612 0
M  V30 1572 H 160.634 3.16433 2.78296 0
M  V30 1573 H 159.358 1.93057 2.63432 0
M  V30 1574 H 158.017 3.476 1.16489 0
M  V30 1575 H 157.665 3.47051 3.64095 0
M  V30 1576 H 157.365 5.08358 2.94696 0
M  V30 1577 H 158.889 4.7618 3.82211 0
M  V30 1578 H 160.303 5.48474 1.66879 0
M  V30 1579 H 158.7 5.91615 1.00557 0
M  V30 1580 H 159.77 4.84835 0.0793299 0
M  V30 1581 N 161.113 -0.173488 1.56642 0
M  V30 1582 C 162.043 -1.2171 1.99271 0
M  V30 1583 C 163.024 -1.46289 0.867959 0
M  V30 1584 O 164.209 -1.5766 1.13388 0
M  V30 1585 C 161.339 -2.55651 2.35074 0
M  V30 1586 C 160.293 -2.45645 3.50489 0
M  V30 1587 C 159.619 -3.84056 3.72028 0
M  V30 1588 C 160.919 -1.96302 4.84007 0
M  V30 1589 H 162.613 -0.86275 2.867 0
M  V30 1590 H 160.159 -0.413571 1.37933 0
M  V30 1591 H 162.112 -3.2886 2.63494 0
M  V30 1592 H 160.836 -2.92869 1.44552 0
M  V30 1593 H 159.495 -1.7489 3.22194 0
M  V30 1594 H 159.143 -4.18664 2.788 0
M  V30 1595 H 158.843 -3.7823 4.49684 0
M  V30 1596 H 160.367 -4.58854 4.02846 0
M  V30 1597 H 161.781 -2.59284 5.11317 0
M  V30 1598 H 160.178 -2.01429 5.65284 0
M  V30 1599 H 161.248 -0.917226 4.76146 0
M  V30 1600 N 162.591 -1.51276 -0.441967 0
M  V30 1601 C 163.501 -1.75092 -1.56141 0
M  V30 1602 C 164.517 -0.634963 -1.62001 0
M  V30 1603 O 165.693 -0.916686 -1.79329 0
M  V30 1604 C 162.758 -1.86666 -2.92158 0
M  V30 1605 C 161.819 -3.10506 -2.96453 0
M  V30 1606 C 161.052 -3.21519 -4.25982 0
M  V30 1607 O 161.275 -2.38586 -5.18105 0
M  V30 1608 O 160.209 -4.14465 -4.36466 0
M  V30 1609 H 164.035 -2.70044 -1.38961 0
M  V30 1610 H 161.62 -1.35722 -0.624499 0
M  V30 1611 H 163.502 -1.96292 -3.72891 0
M  V30 1612 H 162.177 -0.949014 -3.09476 0
M  V30 1613 H 161.084 -3.06363 -2.14692 0
M  V30 1614 H 162.417 -4.01945 -2.84079 0
M  V30 1615 N 164.069 0.697108 -1.41344 0
M  V30 1616 C 164.979 1.84088 -1.45427 0
M  V30 1617 C 165.995 1.70545 -0.34501 0
M  V30 1618 O 167.171 1.92488 -0.592492 0
M  V30 1619 C 164.236 3.20056 -1.33286 0
M  V30 1620 C 163.297 3.45718 -2.54514 0
M  V30 1621 C 162.53 4.75199 -2.42944 0
M  V30 1622 O 162.753 5.51579 -1.45318 0
M  V30 1623 O 161.687 5.0161 -3.32672 0
M  V30 1624 H 165.513 1.836 -2.41919 0
M  V30 1625 H 163.098 0.849966 -1.22866 0
M  V30 1626 H 164.98 4.01236 -1.28794 0
M  V30 1627 H 163.655 3.2123 -0.39909 0
M  V30 1628 H 162.562 2.64474 -2.64583 0
M  V30 1629 H 163.895 3.49356 -3.46715 0
M  V30 1630 N 165.547 1.27147 0.931209 0
M  V30 1631 C 166.824 1.0401 1.65654 0
M  V30 1632 C 167.204 -0.426297 2.06751 0
M  V30 1633 O 166.552 -1.40879 1.79904 0
M  V30 1634 C 166.762 1.99834 2.86125 0
M  V30 1635 C 168.11 2.29007 3.57549 0
M  V30 1636 O 169.134 1.97779 2.96246 0
M  V30 1637 O 167.993 2.82222 4.67989 0
M  V30 1638 H 165.087 0.396239 0.725895 0
M  V30 1639 H 167.633 1.38397 0.982056 0
M  V30 1640 H 166.405 2.98744 2.52721 0
M  V30 1641 H 166.028 1.65987 3.61295 0
M  V30 1642 N 167.025 -1.13721 1.09112 0
M  V30 1643 C 168.253 -1.88773 0.846899 0
M  V30 1644 C 168.668 -1.7896 -0.601572 0
M  V30 1645 O 168.025 -1.15394 -1.41388 0
M  V30 1646 C 168.076 -3.3849 1.26913 0
M  V30 1647 O 167.797 -3.48043 2.66079 0
M  V30 1648 C 169.298 -4.30518 1.05682 0
M  V30 1649 H 166.518 -0.59772 0.304914 0
M  V30 1650 H 169.062 -1.43977 1.45227 0
M  V30 1651 H 167.217 -3.80881 0.707723 0
M  V30 1652 H 167.631 -4.4109 2.83795 0
M  V30 1653 H 169.105 -5.3391 1.40156 0
M  V30 1654 H 169.582 -4.392 -0.00563416 0
M  V30 1655 H 170.188 -3.93893 1.60402 0
M  V30 1656 N 168.503 -0.877838 -1.30888 0
M  V30 1657 C 169.733 -0.506678 -2.00291 0
M  V30 1658 C 170.141 0.907449 -1.66018 0
M  V30 1659 O 169.484 1.60719 -0.88967 0
M  V30 1660 C 169.546 -0.59323 -3.54572 0
M  V30 1661 C 169.21 -1.97038 -4.12341 0
M  V30 1662 C 170.207 -2.93889 -4.28865 0
M  V30 1663 C 167.892 -2.27383 -4.47886 0
M  V30 1664 C 169.886 -4.19224 -4.80136 0
M  V30 1665 C 167.573 -3.52965 -4.98857 0
M  V30 1666 C 168.571 -4.48701 -5.14934 0
M  V30 1667 O 168.259 -5.72056 -5.64808 0
M  V30 1668 H 167.991 -0.1951 -0.647234 0
M  V30 1669 H 170.545 -1.18301 -1.6791 0
M  V30 1670 H 168.775 0.140057 -3.86446 0
M  V30 1671 H 170.464 -0.234372 -4.05223 0
M  V30 1672 H 171.23 -2.71756 -4.01714 0
M  V30 1673 H 167.109 -1.53639 -4.34645 0
M  V30 1674 H 170.653 -4.93956 -4.92599 0
M  V30 1675 H 166.55 -3.74939 -5.25443 0
M  V30 1676 H 167.318 -5.74337 -5.83163 0
M  V30 1677 N 169.982 1.44106 -0.638065 0
M  V30 1678 C 171.21 2.06336 -0.152615 0
M  V30 1679 C 171.625 1.47731 1.17563 0
M  V30 1680 O 170.982 0.602806 1.72257 0
M  V30 1681 C 171.033 3.61479 -0.0391491 0
M  V30 1682 O 170.754 4.17903 -1.31487 0
M  V30 1683 C 172.255 4.40757 0.474176 0
M  V30 1684 H 169.475 0.665862 -0.0828776 0
M  V30 1685 H 172.019 1.84862 -0.87443 0
M  V30 1686 H 170.174 3.82191 0.633142 0
M  V30 1687 H 170.588 5.11416 -1.16421 0
M  V30 1688 H 172.062 5.49707 0.502562 0
M  V30 1689 H 172.539 4.12697 1.50258 0
M  V30 1690 H 173.145 4.24979 -0.165102 0
M  V30 1691 N 171.46 0.379036 1.52974 0
M  V30 1692 C 172.708 -0.206014 2.01047 0
M  V30 1693 C 173.029 -1.48175 1.26765 0
M  V30 1694 O 172.299 -1.92085 0.384743 0
M  V30 1695 H 170.879 -0.0791184 0.742798 0
M  V30 1696 H 173.541 0.508366 1.88153 0
M  V30 1697 H 172.637 -0.423501 3.09213 0
M  V30 1698 N 172.938 -1.57226 0.108567 0
M  V30 1699 C 174.166 -1.99179 -0.559954 0
M  V30 1700 C 174.581 -0.988022 -1.60884 0
M  V30 1701 O 173.938 0.0205512 -1.82488 0
M  V30 1702 C 173.989 -3.41159 -1.19552 0
M  V30 1703 O 173.71 -4.37694 -0.188577 0
M  V30 1704 C 175.211 -3.98188 -1.94837 0
M  V30 1705 H 172.431 -0.654228 -0.149088 0
M  V30 1706 H 174.975 -2.03598 0.19183 0
M  V30 1707 H 173.13 -3.37711 -1.89815 0
M  V30 1708 H 173.544 -5.20469 -0.649014 0
M  V30 1709 H 175.018 -4.99644 -2.34648 0
M  V30 1710 H 175.495 -3.3675 -2.81951 0
M  V30 1711 H 176.101 -4.0515 -1.2936 0
M  V30 1712 N 174.416 0.165178 -1.56732 0
M  V30 1713 C 175.662 0.882112 -1.82611 0
M  V30 1714 C 175.995 1.81628 -0.687378 0
M  V30 1715 O 175.27 1.92009 0.310267 0
M  V30 1716 C 175.553 1.67245 -3.18906 0
M  V30 1717 C 175.406 0.760987 -4.43316 0
M  V30 1718 C 176.725 2.63884 -3.52212 0
M  V30 1719 H 173.844 0.319242 -0.664269 0
M  V30 1720 H 176.486 0.148052 -1.89422 0
M  V30 1721 H 174.636 2.29824 -3.1323 0
M  V30 1722 H 176.308 0.147596 -4.61064 0
M  V30 1723 H 174.551 0.0694102 -4.33744 0
M  V30 1724 H 175.222 1.34962 -5.35247 0
M  V30 1725 H 177.698 2.11429 -3.58381 0
M  V30 1726 H 176.574 3.16245 -4.48643 0
M  V30 1727 H 176.835 3.44377 -2.77231 0
M  V30 1728 N 175.894 1.51508 0.433938 0
M  V30 1729 C 177.119 1.68443 1.21003 0
M  V30 1730 C 177.544 0.382636 1.84167 0
M  V30 1731 O 176.902 -0.65755 1.68956 0
M  V30 1732 C 176.95 2.80405 2.26727 0
M  V30 1733 O 176.054 2.44245 3.32292 0
M  V30 1734 H 175.395 0.561536 0.354363 0
M  V30 1735 H 177.925 1.9809 0.512024 0
M  V30 1736 H 177.935 3.0459 2.71457 0
M  V30 1737 H 176.61 3.74867 1.80132 0
M  V30 1738 H 175.187 2.30644 2.93015 0
M  V30 1739 N 177.372 -0.689602 1.41712 0
M  V30 1740 C 178.621 -1.44534 1.40686 0
M  V30 1741 C 178.934 -1.95588 0.0213352 0
M  V30 1742 O 180.14 -2.71271 -0.111534 0
M  V30 1743 C 178.596 -2.61387 2.47396 0
M  V30 1744 C 178.204 -2.17094 3.91885 0
M  V30 1745 C 179.948 -3.38986 2.55517 0
M  V30 1746 C 177.855 -3.3094 4.90135 0
M  V30 1747 H 176.785 -0.542925 0.52321 0
M  V30 1748 H 179.436 -0.748054 1.6756 0
M  V30 1749 H 177.818 -3.33412 2.13664 0
M  V30 1750 H 178.992 -1.52318 4.34897 0
M  V30 1751 H 177.307 -1.52473 3.8748 0
M  V30 1752 H 179.904 -4.23747 3.26102 0
M  V30 1753 H 180.247 -3.84578 1.59391 0
M  V30 1754 H 180.78 -2.74021 2.8837 0
M  V30 1755 H 177.519 -2.90355 5.87685 0
M  V30 1756 H 177.039 -3.94546 4.51767 0
M  V30 1757 H 178.718 -3.9663 5.11169 0
M  V30 1758 N 178.85 -1.27639 -0.924453 0
M  V30 1759 C 180.075 -1.17101 -1.71179 0
M  V30 1760 C 180.5 0.268134 -1.86179 0
M  V30 1761 O 179.858 1.19415 -1.36418 0
M  V30 1762 C 179.906 -1.86313 -3.08739 0
M  V30 1763 O 179.01 -1.16331 -3.95652 0
M  V30 1764 H 178.351 -0.407091 -0.524569 0
M  V30 1765 H 180.881 -1.68767 -1.15666 0
M  V30 1766 H 180.891 -1.938 -3.59034 0
M  V30 1767 H 179.566 -2.91001 -2.97138 0
M  V30 1768 H 178.143 -1.16935 -3.54091 0
M  V30 1769 N 180.328 1.1314 -1.09713 0
M  V30 1770 C 181.577 1.83838 -0.829851 0
M  V30 1771 C 181.89 1.84599 0.646728 0
M  V30 1772 O 183.096 2.51218 1.02965 0
M  V30 1773 C 181.552 3.30069 -1.43466 0
M  V30 1774 C 181.16 3.37688 -2.94399 0
M  V30 1775 C 182.904 4.05788 -1.24645 0
M  V30 1776 C 180.811 4.78209 -3.47952 0
M  V30 1777 H 179.741 0.68877 -0.306777 0
M  V30 1778 H 182.392 1.27448 -1.3202 0
M  V30 1779 H 180.774 3.8628 -0.871996 0
M  V30 1780 H 181.948 2.91456 -3.56918 0
M  V30 1781 H 180.263 2.75436 -3.12289 0
M  V30 1782 H 182.86 5.09535 -1.62107 0
M  V30 1783 H 183.203 4.15878 -0.187357 0
M  V30 1784 H 183.736 3.55915 -1.77678 0
M  V30 1785 H 180.475 4.73311 -4.53495 0
M  V30 1786 H 179.995 5.24924 -2.90198 0
M  V30 1787 H 181.674 5.47133 -3.45332 0
M  V30 1788 N 181.806 0.884767 1.30421 0
M  V30 1789 C 182.754 0.340869 2.30089 0
M  V30 1790 C 183.748 -0.55201 1.60154 0
M  V30 1791 O 184.954 -0.436467 1.74628 0
M  V30 1792 H 181.329 0.0915739 0.746404 0
M  V30 1793 H 183.3 1.19513 2.73421 0
M  V30 1794 C 182.049 -0.429779 3.45034 0
M  V30 1795 H 181.372 0.248024 3.9903 0
M  V30 1796 H 182.812 -0.775445 4.16849 0
M  V30 1797 C 181.271 -1.62677 2.95022 0
M  V30 1798 O 181.801 -2.72614 2.95033 0
M  V30 1799 N 180.007 -1.46387 2.51036 0
M  V30 1800 H 179.554 -0.569506 2.51226 0
M  V30 1801 H 179.512 -2.26612 2.17932 0
M  V30 1802 N 183.284 -1.43765 0.645699 0
M  V30 1803 C 184.214 -2.33471 -0.0370477 0
M  V30 1804 C 185.195 -1.49042 -0.819779 0
M  V30 1805 O 186.38 -1.77726 -0.782758 0
M  V30 1806 C 183.51 -3.32311 -1.0093 0
M  V30 1807 C 182.464 -4.2667 -0.337201 0
M  V30 1808 C 181.79 -5.1549 -1.42037 0
M  V30 1809 C 183.09 -5.16657 0.765706 0
M  V30 1810 H 184.784 -2.90809 0.712069 0
M  V30 1811 H 182.33 -1.39834 0.343876 0
M  V30 1812 H 184.283 -3.9396 -1.49578 0
M  V30 1813 H 183.007 -2.73213 -1.78948 0
M  V30 1814 H 181.666 -3.66374 0.128771 0
M  V30 1815 H 181.314 -4.52735 -2.1918 0
M  V30 1816 H 181.014 -5.79438 -0.975966 0
M  V30 1817 H 182.538 -5.80012 -1.90838 0
M  V30 1818 H 183.952 -5.72158 0.361702 0
M  V30 1819 H 182.349 -5.89286 1.13413 0
M  V30 1820 H 183.419 -4.56796 1.62683 0
M  V30 1821 N 184.763 -0.387143 -1.52771 0
M  V30 1822 C 185.988 0.198407 -2.06449 0
M  V30 1823 C 186.413 1.39918 -1.25716 0
M  V30 1824 O 185.771 1.79099 -0.281657 0
M  V30 1825 C 185.819 0.548893 -3.56398 0
M  V30 1826 O 184.923 1.64315 -3.78252 0
M  V30 1827 H 184.264 0.0237731 -0.663574 0
M  V30 1828 H 186.794 -0.553989 -1.96957 0
M  V30 1829 H 186.804 0.813812 -3.99801 0
M  V30 1830 H 185.479 -0.329005 -4.14597 0
M  V30 1831 H 184.056 1.37211 -3.46738 0
M  V30 1832 N 186.241 1.57166 -0.116904 0
M  V30 1833 C 187.204 2.14039 0.819742 0
M  V30 1834 C 188.204 1.07477 1.19605 0
M  V30 1835 O 189.394 1.33263 1.1219 0
M  V30 1836 C 186.526 2.67891 2.10826 0
M  V30 1837 H 187.719 2.98128 0.325511 0
M  V30 1838 H 185.272 1.55739 0.132312 0
M  V30 1839 H 186.007 1.87384 2.64685 0
M  V30 1840 H 185.792 3.45823 1.84793 0
M  V30 1841 H 187.282 3.11809 2.77785 0
M  V30 1842 N 187.719 -0.156864 1.56817 0
M  V30 1843 C 189.13 -0.717916 1.72345 0
M  V30 1844 C 189.481 -1.82124 0.729747 0
M  V30 1845 O 188.606 -2.16141 -0.105781 0
M  V30 1846 C 189.201 -1.30904 3.12489 0
M  V30 1847 C 187.76 -1.81676 3.29653 0
M  V30 1848 C 186.907 -0.701349 2.68284 0
M  V30 1849 H 189.858 0.0686989 1.58551 0
M  V30 1850 H 189.879 -2.17882 3.11942 0
M  V30 1851 H 189.391 -0.505796 3.8479 0
M  V30 1852 H 187.492 -2.64598 2.62333 0
M  V30 1853 H 187.605 -1.95226 4.3752 0
M  V30 1854 H 185.969 -1.12548 2.28484 0
M  V30 1855 H 186.752 0.0902846 3.43181 0
M  V30 1856 N 189.197 -1.51736 -0.425897 0
M  V30 1857 C 190.425 -1.68794 -1.1965 0
M  V30 1858 C 190.84 -0.390164 -1.84725 0
M  V30 1859 O 190.197 0.632376 -1.71194 0
M  V30 1860 C 190.248 -2.81174 -2.27208 0
M  V30 1861 O 189.969 -4.05925 -1.64793 0
M  V30 1862 C 191.47 -3.09599 -3.17275 0
M  V30 1863 H 188.69 -0.566128 -0.360194 0
M  V30 1864 H 191.234 -1.98211 -0.503249 0
M  V30 1865 H 189.389 -2.54324 -2.9223 0
M  V30 1866 H 189.803 -4.68423 -2.35967 0
M  V30 1867 H 191.277 -3.91786 -3.88854 0
M  V30 1868 H 191.754 -2.22468 -3.78688 0
M  V30 1869 H 192.36 -3.38151 -2.57941 0
M  V30 1870 N 190.675 0.682077 -1.42076 0
M  V30 1871 C 192.091 0.994324 -1.24841 0
M  V30 1872 C 192.291 2.0096 -0.147389 0
M  V30 1873 O 191.347 2.47822 0.483782 0
M  V30 1874 C 192.66 1.50607 -2.60265 0
M  V30 1875 C 194.208 1.62421 -2.6756 0
M  V30 1876 C 194.683 2.16994 -4.03333 0
M  V30 1877 N 196.174 2.24337 -4.0525 0
M  V30 1878 C 196.909 2.67621 -5.07116 0
M  V30 1879 N 196.405 3.1041 -6.19368 0
M  V30 1880 N 198.198 2.67305 -4.94474 0
M  V30 1881 H 190.349 0.00973908 -2.12398 0
M  V30 1882 H 192.612 0.0668593 -0.945639 0
M  V30 1883 H 192.318 0.834583 -3.41654 0
M  V30 1884 H 192.192 2.48602 -2.83684 0
M  V30 1885 H 194.579 2.28678 -1.86521 0
M  V30 1886 H 194.66 0.629352 -2.47937 0
M  V30 1887 H 194.304 1.51349 -4.84826 0
M  V30 1888 H 194.234 3.17258 -4.20304 0
M  V30 1889 H 196.725 1.94158 -3.24209 0
M  V30 1890 H 197.038 3.42103 -6.92954 0
M  V30 1891 H 195.383 3.08286 -6.22884 0
M  V30 1892 H 198.574 2.33233 -4.05857 0
M  V30 1893 H 198.747 3.00718 -5.73997 0
M  V30 1894 N 192.153 1.28127 0.917671 0
M  V30 1895 C 193.383 1.17722 1.6978 0
M  V30 1896 C 193.791 -0.267261 1.87303 0
M  V30 1897 O 193.134 -1.19286 1.39702 0
M  V30 1898 C 193.196 1.79958 3.11216 0
M  V30 1899 C 192.86 3.29187 3.16993 0
M  V30 1900 C 193.857 4.25679 2.98485 0
M  V30 1901 C 191.542 3.70075 3.39632 0
M  V30 1902 C 193.536 5.61035 3.02521 0
M  V30 1903 C 191.223 5.05557 3.433 0
M  V30 1904 C 192.221 6.00847 3.24764 0
M  V30 1905 O 191.909 7.33859 3.28187 0
M  V30 1906 H 191.641 0.409788 0.537634 0
M  V30 1907 H 194.195 1.69694 1.15728 0
M  V30 1908 H 192.425 1.22475 3.66793 0
M  V30 1909 H 194.114 1.64125 3.71238 0
M  V30 1910 H 194.88 3.95426 2.80826 0
M  V30 1911 H 190.759 2.96373 3.53106 0
M  V30 1912 H 194.303 6.35388 2.87971 0
M  V30 1913 H 190.2 5.35462 3.60486 0
M  V30 1914 H 190.968 7.42436 3.44575 0
M  V30 1915 N 193.631 -1.12557 1.10312 0
M  V30 1916 C 194.561 -2.20341 0.772798 0
M  V30 1917 C 195.542 -1.68198 -0.25365 0
M  V30 1918 O 196.727 -1.93831 -0.119699 0
M  V30 1919 C 193.857 -3.46709 0.202443 0
M  V30 1920 C 192.811 -4.11996 1.15943 0
M  V30 1921 C 192.137 -5.328 0.450345 0
M  V30 1922 C 193.437 -4.5828 2.50552 0
M  V30 1923 H 195.131 -2.48229 1.674 0
M  V30 1924 H 192.677 -1.19308 0.806326 0
M  V30 1925 H 194.63 -4.2138 -0.0407752 0
M  V30 1926 H 193.354 -3.18245 -0.734001 0
M  V30 1927 H 192.013 -3.39305 1.38808 0
M  V30 1928 H 191.661 -5.00602 -0.490531 0
M  V30 1929 H 191.361 -5.7743 1.08851 0
M  V30 1930 H 192.885 -6.10219 0.215642 0
M  V30 1931 H 194.299 -5.2433 2.31843 0
M  V30 1932 H 192.696 -5.13683 3.10242 0
M  V30 1933 H 193.766 -3.72329 3.10643 0
M  V30 1934 N 195.109 -0.891671 -1.2995 0
M  V30 1935 C 196.355 -0.523649 -1.96544 0
M  V30 1936 C 196.71 0.918394 -1.69066 0
M  V30 1937 O 196.003 1.64122 -0.988659 0
M  V30 1938 C 196.197 -0.742868 -3.49594 0
M  V30 1939 C 196.026 -2.20467 -3.9195 0
M  V30 1940 C 194.796 -2.85055 -4.17219 0
M  V30 1941 C 196.994 -3.17912 -4.04273 0
M  V30 1942 N 194.976 -4.21762 -4.46083 0
M  V30 1943 C 196.347 -4.39712 -4.37097 0
M  V30 1944 C 198.402 -3.1361 -3.86721 0
M  V30 1945 C 197.105 -5.5776 -4.54199 0
M  V30 1946 C 199.131 -4.30936 -4.05028 0
M  V30 1947 C 198.493 -5.51504 -4.38204 0
M  V30 1948 H 194.592 -0.241072 -0.743914 0
M  V30 1949 H 197.176 -1.15081 -1.5705 0
M  V30 1950 H 195.347 -0.14515 -3.88129 0
M  V30 1951 H 197.079 -0.341081 -4.0326 0
M  V30 1952 H 193.834 -2.35889 -4.10674 0
M  V30 1953 H 194.258 -4.92382 -4.64638 0
M  V30 1954 H 198.9 -2.21489 -3.60142 0
M  V30 1955 H 196.618 -6.50379 -4.79618 0
M  V30 1956 H 200.204 -4.29085 -3.92909 0
M  V30 1957 H 199.084 -6.40778 -4.52077 0
M  V30 1958 N 196.587 1.43421 -0.653314 0
M  V30 1959 C 197.517 2.33487 0.0246656 0
M  V30 1960 C 198.498 1.49475 0.811863 0
M  V30 1961 O 199.683 1.78139 0.773322 0
M  V30 1962 C 196.813 3.32841 0.99166 0
M  V30 1963 C 195.767 4.26842 0.314568 0
M  V30 1964 C 195.093 5.16236 1.39302 0
M  V30 1965 C 196.393 5.16243 -0.793095 0
M  V30 1966 H 198.087 2.90427 -0.727481 0
M  V30 1967 H 195.633 1.39649 -0.351287 0
M  V30 1968 H 197.586 3.94747 1.47487 0
M  V30 1969 H 196.31 2.74158 1.77497 0
M  V30 1970 H 194.969 3.663 -0.148199 0
M  V30 1971 H 194.617 4.53891 2.16776 0
M  V30 1972 H 194.317 5.79948 0.945223 0
M  V30 1973 H 195.841 5.81015 1.87759 0
M  V30 1974 H 197.255 5.71958 -0.392039 0
M  V30 1975 H 195.652 5.88676 -1.16536 0
M  V30 1976 H 196.722 4.55927 -1.65103 0
M  V30 1977 N 198.065 0.39524 1.52563 0
M  V30 1978 C 199.015 -0.4541 2.23432 0
M  V30 1979 C 199.999 -1.02482 1.24042 0
M  V30 1980 O 201.191 -0.949938 1.49349 0
M  V30 1981 C 198.32 -1.57769 3.049 0
M  V30 1982 C 197.406 -1.01842 4.1169 0
M  V30 1983 N 197.797 -0.184613 5.05463 0
M  V30 1984 C 196.095 -1.29033 4.26927 0
M  V30 1985 C 196.796 0.125013 5.81566 0
M  V30 1986 N 195.772 -0.480498 5.41472 0
M  V30 1987 H 199.574 0.189413 2.93289 0
M  V30 1988 H 197.088 0.204877 1.61102 0
M  V30 1989 H 199.085 -2.19862 3.54212 0
M  V30 1990 H 197.745 -2.22397 2.36579 0
M  V30 1991 H 198.756 0.178602 5.17592 0
M  V30 1992 H 195.433 -1.93721 3.69836 0
M  V30 1993 H 196.823 0.800962 6.67109 0
M  V30 1994 N 199.544 -1.57102 0.125237 0
M  V30 1995 C 200.474 -2.18659 -0.819174 0
M  V30 1996 C 201.455 -1.12843 -1.27281 0
M  V30 1997 O 202.64 -1.41104 -1.33429 0
M  V30 1998 C 199.77 -2.79096 -2.06695 0
M  V30 1999 C 198.724 -3.90548 -1.75088 0
M  V30 2000 C 198.05 -4.37821 -3.06948 0
M  V30 2001 C 199.35 -5.12356 -1.01435 0
M  V30 2002 H 201.044 -2.9783 -0.306202 0
M  V30 2003 H 198.59 -1.4326 -0.145839 0
M  V30 2004 H 200.543 -3.2082 -2.73226 0
M  V30 2005 H 199.267 -1.97223 -2.60328 0
M  V30 2006 H 197.926 -3.49409 -1.10944 0
M  V30 2007 H 197.574 -3.52799 -3.58527 0
M  V30 2008 H 197.274 -5.12982 -2.86571 0
M  V30 2009 H 198.798 -4.822 -3.74587 0
M  V30 2010 H 200.212 -5.5106 -1.58132 0
M  V30 2011 H 198.609 -5.9314 -0.911319 0
M  V30 2012 H 199.679 -4.849 -0.00218681 0
M  V30 2013 N 201.022 0.148545 -1.56898 0
M  V30 2014 C 202.438 0.501131 -1.51528 0
M  V30 2015 C 202.638 1.83458 -0.833399 0
M  V30 2016 O 201.694 2.49259 -0.40328 0
M  V30 2017 C 203.007 0.512864 -2.96294 0
M  V30 2018 C 204.555 0.598487 -3.07225 0
M  V30 2019 C 205.03 0.640897 -4.53494 0
M  V30 2020 N 206.521 0.703163 -4.57832 0
M  V30 2021 C 207.256 0.756935 -5.68382 0
M  V30 2022 N 206.752 0.770147 -6.88506 0
M  V30 2023 N 208.545 0.797698 -5.56411 0
M  V30 2024 H 200.696 -0.725532 -1.99624 0
M  V30 2025 H 202.959 -0.264358 -0.910395 0
M  V30 2026 H 202.665 -0.398691 -3.49433 0
M  V30 2027 H 202.539 1.35133 -3.52163 0
M  V30 2028 H 204.926 1.50046 -2.54106 0
M  V30 2029 H 205.007 -0.267093 -2.54402 0
M  V30 2030 H 204.651 -0.256915 -5.0725 0
M  V30 2031 H 204.581 1.52295 -5.04097 0
M  V30 2032 H 207.072 0.700314 -3.71354 0
M  V30 2033 H 207.385 0.812983 -7.68512 0
M  V30 2034 H 205.73 0.738049 -6.9107 0
M  V30 2035 H 208.921 0.784535 -4.61479 0
M  V30 2036 H 209.094 0.83614 -6.42583 0
M  V30 2037 N 202.5 1.5196 0.417844 0
M  V30 2038 C 203.41 1.77554 1.53336 0
M  V30 2039 C 204.426 0.660655 1.6097 0
M  V30 2040 O 205.602 0.945099 1.77848 0
M  V30 2041 C 202.667 1.91291 2.89152 0
M  V30 2042 C 201.728 3.15183 2.91475 0
M  V30 2043 C 200.961 3.28256 4.20813 0
M  V30 2044 O 201.184 2.46798 5.14244 0
M  V30 2045 O 200.118 4.21356 4.29817 0
M  V30 2046 H 203.944 2.7222 1.34647 0
M  V30 2047 H 201.529 1.36698 0.602828 0
M  V30 2048 H 203.411 2.02199 3.69721 0
M  V30 2049 H 202.086 0.998129 3.07927 0
M  V30 2050 H 200.993 3.09739 2.09791 0
M  V30 2051 H 202.326 4.06414 2.77648 0
M  V30 2052 N 203.978 -0.674533 1.42435 0
M  V30 2053 C 205.206 -1.46283 1.46317 0
M  V30 2054 C 205.621 -1.88653 0.0745836 0
M  V30 2055 O 204.978 -1.58151 -0.91074 0
M  V30 2056 C 205.029 -2.71178 2.3905 0
M  V30 2057 O 204.75 -2.30586 3.72507 0
M  V30 2058 C 206.251 -3.64738 2.51955 0
M  V30 2059 H 203.471 -0.450104 0.497642 0
M  V30 2060 H 206.015 -0.828792 1.86953 0
M  V30 2061 H 204.17 -3.3077 2.01667 0
M  V30 2062 H 204.584 -3.11241 4.22172 0
M  V30 2063 H 206.058 -4.49096 3.20962 0
M  V30 2064 H 206.535 -4.10656 1.55752 0
M  V30 2065 H 207.141 -3.11038 2.90061 0
M  V30 2066 N 205.456 -1.28612 -0.910864 0
M  V30 2067 C 206.872 -1.06381 -1.18976 0
M  V30 2068 C 207.072 0.191998 -2.00583 0
M  V30 2069 O 206.128 0.892869 -2.36187 0
M  V30 2070 C 207.441 -2.31295 -1.92154 0
M  V30 2071 C 208.989 -2.36503 -2.05025 0
M  V30 2072 C 209.464 -3.61191 -2.81612 0
M  V30 2073 N 210.955 -3.61847 -2.89172 0
M  V30 2074 C 211.69 -4.55004 -3.4894 0
M  V30 2075 N 211.186 -5.58482 -4.09963 0
M  V30 2076 N 212.979 -4.42594 -3.46506 0
M  V30 2077 H 205.13 -2.09221 -0.366094 0
M  V30 2078 H 207.393 -0.921003 -0.224629 0
M  V30 2079 H 207.099 -3.228 -1.39618 0
M  V30 2080 H 206.973 -2.37934 -2.9269 0
M  V30 2081 H 209.36 -1.45494 -2.5674 0
M  V30 2082 H 209.441 -2.33857 -1.03657 0
M  V30 2083 H 209.085 -4.52545 -2.30576 0
M  V30 2084 H 209.015 -3.61092 -3.83302 0
M  V30 2085 H 211.506 -2.87022 -2.45819 0
M  V30 2086 H 211.819 -6.25704 -4.53557 0
M  V30 2087 H 210.164 -5.62305 -4.08459 0
M  V30 2088 H 213.355 -3.60953 -2.98045 0
M  V30 2089 H 213.528 -5.15381 -3.92793 0
M  V30 2090 N 206.934 1.1197 -1.10907 0
M  V30 2091 C 208.183 1.82947 -0.849302 0
M  V30 2092 C 208.496 1.85275 0.627112 0
M  V30 2093 O 209.702 2.52296 1.00295 0
M  V30 2094 C 208.158 3.28529 -1.46959 0
M  V30 2095 C 207.766 3.34546 -2.97965 0
M  V30 2096 C 209.51 4.04443 -1.28942 0
M  V30 2097 C 207.417 4.74491 -3.53004 0
M  V30 2098 H 206.347 0.685477 -0.314065 0
M  V30 2099 H 208.998 1.2604 -1.33365 0
M  V30 2100 H 207.38 3.85333 -0.912917 0
M  V30 2101 H 208.554 2.87654 -3.59989 0
M  V30 2102 H 206.869 2.72108 -3.15192 0
M  V30 2103 H 209.466 5.07787 -1.67502 0
M  V30 2104 H 209.809 4.15656 -0.231456 0
M  V30 2105 H 210.342 3.5401 -1.81443 0
M  V30 2106 H 207.081 4.68474 -4.58489 0
M  V30 2107 H 206.601 5.21816 -2.9575 0
M  V30 2108 H 208.28 5.4344 -3.51115 0
M  V30 2109 N 208.412 0.89855 1.29475 0
M  V30 2110 C 209.64 0.539261 1.99749 0
M  V30 2111 C 210.055 -0.875716 1.67262 0
M  V30 2112 O 209.412 -1.57786 0.917049 0
M  V30 2113 C 209.463 0.72061 3.54245 0
M  V30 2114 O 209.184 2.07989 3.8558 0
M  V30 2115 C 210.685 0.366118 4.41786 0
M  V30 2116 H 207.905 0.207047 0.638258 0
M  V30 2117 H 210.449 1.20758 1.65039 0
M  V30 2118 H 208.604 0.0994862 3.87272 0
M  V30 2119 H 209.018 2.10841 4.80257 0
M  V30 2120 H 210.492 0.543848 5.49314 0
M  V30 2121 H 210.969 -0.696763 4.33638 0
M  V30 2122 H 211.575 0.964135 4.14228 0
M  V30 2123 N 209.89 -1.43072 0.660911 0
M  V30 2124 C 211.306 -1.56169 0.329173 0
M  V30 2125 C 211.506 -1.64317 -1.16629 0
M  V30 2126 O 210.562 -1.60245 -1.95135 0
M  V30 2127 C 211.875 -2.81873 1.04729 0
M  V30 2128 C 213.423 -2.95627 1.02828 0
M  V30 2129 C 213.898 -4.24174 1.72744 0
M  V30 2130 N 215.389 -4.31055 1.69545 0
M  V30 2131 C 216.124 -5.29304 2.20511 0
M  V30 2132 N 215.62 -6.33786 2.79799 0
M  V30 2133 N 217.413 -5.21008 2.10966 0
M  V30 2134 H 209.564 -1.36027 1.63127 0
M  V30 2135 H 211.827 -0.653823 0.686454 0
M  V30 2136 H 211.533 -2.81942 2.10242 0
M  V30 2137 H 211.407 -3.72338 0.603702 0
M  V30 2138 H 213.794 -2.95094 -0.0184742 0
M  V30 2139 H 213.875 -2.06431 1.51063 0
M  V30 2140 H 213.519 -4.25467 2.7738 0
M  V30 2141 H 213.449 -5.1228 1.2197 0
M  V30 2142 H 215.94 -3.56174 1.26288 0
M  V30 2143 H 216.253 -7.05086 3.16344 0
M  V30 2144 H 214.598 -6.34387 2.83863 0
M  V30 2145 H 217.789 -4.38301 1.64347 0
M  V30 2146 H 217.962 -5.97416 2.50993 0
M  V30 2147 N 211.368 -0.403325 -1.52352 0
M  V30 2148 C 212.298 0.416205 -2.29761 0
M  V30 2149 C 213.279 1.05123 -1.33728 0
M  V30 2150 O 214.464 1.06134 -1.62632 0
M  V30 2151 C 211.594 1.53624 -3.11475 0
M  V30 2152 C 210.548 1.02653 -4.15507 0
M  V30 2153 C 209.874 2.23971 -4.85532 0
M  V30 2154 C 211.174 0.08463 -5.22231 0
M  V30 2155 H 212.868 -0.229701 -2.98518 0
M  V30 2156 H 210.414 -0.111913 -1.43564 0
M  V30 2157 H 212.367 2.1165 -3.64393 0
M  V30 2158 H 211.091 2.20994 -2.40477 0
M  V30 2159 H 209.75 0.46871 -3.63591 0
M  V30 2160 H 209.398 2.89883 -4.11068 0
M  V30 2161 H 209.098 1.90521 -5.55856 0
M  V30 2162 H 210.622 2.82614 -5.41259 0
M  V30 2163 H 212.036 0.573509 -5.70424 0
M  V30 2164 H 210.433 -0.160783 -5.99885 0
M  V30 2165 H 211.503 -0.86237 -4.7717 0
M  V30 2166 N 212.846 1.57033 -0.133567 0
M  V30 2167 C 214.257 1.82593 0.389464 0
M  V30 2168 C 214.608 1.05156 1.6564 0
M  V30 2169 O 213.733 0.292644 2.14412 0
M  V30 2170 C 214.328 3.31204 0.713377 0
M  V30 2171 C 212.887 3.57393 1.18098 0
M  V30 2172 C 212.034 2.76598 0.197126 0
M  V30 2173 H 214.985 1.54598 -0.358481 0
M  V30 2174 H 215.006 3.46627 1.56939 0
M  V30 2175 H 214.518 3.87537 -0.2089 0
M  V30 2176 H 212.619 3.06433 2.11966 0
M  V30 2177 H 212.732 4.65915 1.11624 0
M  V30 2178 H 211.096 2.45257 0.687088 0
M  V30 2179 H 211.879 3.35697 -0.718504 0
M  V30 2180 N 214.325 -0.140222 1.56975 0
M  V30 2181 C 215.235 -1.19223 2.02047 0
M  V30 2182 C 216.251 -1.46612 0.937062 0
M  V30 2183 O 217.427 -1.58148 1.24704 0
M  V30 2184 C 214.492 -2.50414 2.39778 0
M  V30 2185 C 213.553 -2.30612 3.621 0
M  V30 2186 C 212.786 -3.55547 3.98023 0
M  V30 2187 O 213.009 -4.62004 3.34528 0
M  V30 2188 O 211.943 -3.47808 4.91237 0
M  V30 2189 H 215.769 -0.839559 2.91865 0
M  V30 2190 H 213.354 -0.349453 1.45256 0
M  V30 2191 H 215.236 -3.27747 2.64877 0
M  V30 2192 H 213.911 -2.85198 1.53114 0
M  V30 2193 H 212.818 -1.51207 3.4218 0
M  V30 2194 H 214.151 -2.00741 4.49404 0
M  V30 2195 N 215.803 -1.52179 -0.40978 0
M  V30 2196 C 216.733 -1.78435 -1.5061 0
M  V30 2197 C 217.714 -0.635295 -1.57791 0
M  V30 2198 O 218.899 -0.880823 -1.73076 0
M  V30 2199 C 216.029 -1.93444 -2.88439 0
M  V30 2200 C 214.983 -3.09038 -2.96108 0
M  V30 2201 C 214.309 -3.09268 -4.36185 0
M  V30 2202 C 215.609 -4.48508 -2.67652 0
M  V30 2203 H 217.303 -2.70237 -1.28889 0
M  V30 2204 H 214.849 -1.30036 -0.618605 0
M  V30 2205 H 216.802 -2.10394 -3.65119 0
M  V30 2206 H 215.526 -0.983129 -3.11452 0
M  V30 2207 H 214.185 -2.91837 -2.21872 0
M  V30 2208 H 213.833 -2.11861 -4.56206 0
M  V30 2209 H 213.533 -3.86907 -4.42241 0
M  V30 2210 H 215.057 -3.28348 -5.14801 0
M  V30 2211 H 216.471 -4.65918 -3.34056 0
M  V30 2212 H 214.868 -5.28059 -2.85085 0
M  V30 2213 H 215.938 -4.56649 -1.63095 0
M  V30 2214 N 217.281 0.66697 -1.42791 0
M  V30 2215 C 218.228 1.7803 -1.4688 0
M  V30 2216 C 219.198 1.6299 -0.319919 0
M  V30 2217 O 220.383 1.83432 -0.525118 0
M  V30 2218 C 217.523 3.1611 -1.38451 0
M  V30 2219 C 216.636 3.42381 -2.63437 0
M  V30 2220 C 215.771 4.70232 -2.47094 0
M  V30 2221 C 214.81 4.89564 -3.67415 0
M  V30 2222 N 213.947 6.08661 -3.49966 0
M  V30 2223 H 218.787 1.7387 -2.42019 0
M  V30 2224 H 216.324 0.84868 -1.20149 0
M  V30 2225 H 218.282 3.95914 -1.31561 0
M  V30 2226 H 216.912 3.19374 -0.469033 0
M  V30 2227 H 215.964 2.56774 -2.80662 0
M  V30 2228 H 217.276 3.52557 -3.52853 0
M  V30 2229 H 216.43 5.5814 -2.37834 0
M  V30 2230 H 215.169 4.62353 -1.5518 0
M  V30 2231 H 214.174 4.00096 -3.77099 0
M  V30 2232 H 215.399 4.99282 -4.6032 0
M  V30 2233 H 213.345 6.0194 -2.60776 0
M  V30 2234 H 213.262 6.19733 -4.32975 0
M  V30 2235 H 214.53 6.99226 -3.44532 0
M  V30 2236 N 218.759 1.29093 0.90403 0
M  V30 2237 C 220.175 1.07011 1.1841 0
M  V30 2238 C 220.375 -0.181358 2.00682 0
M  V30 2239 O 219.431 -0.880331 2.36657 0
M  V30 2240 C 220.744 2.32311 1.90924 0
M  V30 2241 C 222.292 2.37587 2.03768 0
M  V30 2242 C 222.767 3.62679 2.79693 0
M  V30 2243 N 224.258 3.63376 2.87249 0
M  V30 2244 C 224.993 4.56848 3.46522 0
M  V30 2245 N 224.489 5.60648 4.06996 0
M  V30 2246 N 226.282 4.44426 3.44154 0
M  V30 2247 H 218.433 2.09412 0.354993 0
M  V30 2248 H 220.696 0.922181 0.219742 0
M  V30 2249 H 220.402 3.23536 1.37905 0
M  V30 2250 H 220.276 2.39483 2.91424 0
M  V30 2251 H 222.663 1.46853 2.55965 0
M  V30 2252 H 222.744 2.34403 1.02415 0
M  V30 2253 H 222.388 4.53762 2.28173 0
M  V30 2254 H 222.318 3.63119 3.81381 0
M  V30 2255 H 224.809 2.88321 2.44293 0
M  V30 2256 H 225.122 6.28101 4.50232 0
M  V30 2257 H 223.467 5.64463 4.05471 0
M  V30 2258 H 226.658 3.62529 2.96126 0
M  V30 2259 H 226.831 5.17457 3.90054 0
M  V30 2260 N 220.237 -1.11381 1.11499 0
M  V30 2261 C 221.648 -1.6465 0.880191 0
M  V30 2262 C 221.999 -1.87199 -0.587434 0
M  V30 2263 O 221.124 -1.60667 -1.44966 0
M  V30 2264 C 221.719 -2.99105 1.59128 0
M  V30 2265 C 220.278 -3.49279 1.40289 0
M  V30 2266 C 219.425 -2.24077 1.63354 0
M  V30 2267 H 222.376 -0.950123 1.27116 0
M  V30 2268 H 222.397 -3.66107 1.03664 0
M  V30 2269 H 221.909 -2.82661 2.65941 0
M  V30 2270 H 220.01 -3.70887 0.356888 0
M  V30 2271 H 220.123 -4.2803 2.15238 0
M  V30 2272 H 218.487 -2.31733 1.05698 0
M  V30 2273 H 219.27 -2.10175 2.71443 0
M  V30 2274 N 221.715 -0.905404 -1.28997 0
M  V30 2275 C 222.94 -0.549175 -1.99997 0
M  V30 2276 C 223.365 0.860276 -1.67275 0
M  V30 2277 O 222.723 1.57355 -0.900502 0
M  V30 2278 C 222.771 -0.755185 -3.52604 0
M  V30 2279 O 221.875 0.189692 -4.11964 0
M  V30 2280 H 221.216 -0.213899 -0.628604 0
M  V30 2281 H 223.746 -1.21856 -1.64354 0
M  V30 2282 H 223.756 -0.662045 -4.02593 0
M  V30 2283 H 222.431 -1.78271 -3.75755 0
M  V30 2284 H 221.008 0.0485257 -3.72868 0
M  V30 2285 N 223.193 1.4272 -0.668489 0
M  V30 2286 C 224.441 2.01226 -0.187769 0
M  V30 2287 C 224.762 1.53092 1.2078 0
M  V30 2288 O 224.032 0.74993 1.80977 0
M  V30 2289 H 222.612 0.744041 -0.0664272 0
M  V30 2290 H 225.274 1.74723 -0.863583 0
M  V30 2291 H 224.37 3.11556 -0.184166 0
M  V30 2292 N 224.671 0.411399 1.52136 0
M  V30 2293 C 225.948 -0.222308 1.94333 0
M  V30 2294 C 226.328 -1.6242 1.34844 0
M  V30 2295 O 225.676 -2.22384 0.525145 0
M  V30 2296 C 225.886 -0.226345 3.48265 0
M  V30 2297 C 227.234 -0.444592 4.22266 0
M  V30 2298 O 228.258 -0.305602 3.54887 0
M  V30 2299 O 227.117 -0.718749 5.41753 0
M  V30 2300 H 224.211 -0.143907 0.814383 0
M  V30 2301 H 226.757 0.467506 1.63133 0
M  V30 2302 H 225.529 0.75475 3.83952 0
M  V30 2303 H 225.152 -0.960163 3.85832 0
M  V30 2304 N 226.149 -1.5696 0.141893 0
M  V30 2305 C 227.081 -2.13619 -0.830627 0
M  V30 2306 C 228.094 -1.08439 -1.21428 0
M  V30 2307 O 229.283 -1.35734 -1.15925 0
M  V30 2308 C 226.383 -2.63978 -2.12529 0
M  V30 2309 C 225.556 -3.93504 -1.9098 0
M  V30 2310 C 224.615 -4.29225 -3.04388 0
M  V30 2311 O 223.641 -4.97641 -2.76302 0
M  V30 2312 N 224.843 -3.88393 -4.31429 0
M  V30 2313 H 227.608 -2.97691 -0.34641 0
M  V30 2314 H 225.169 -1.61846 -0.0418375 0
M  V30 2315 H 227.161 -2.84891 -2.87436 0
M  V30 2316 H 225.731 -1.84659 -2.52229 0
M  V30 2317 H 224.951 -3.81269 -1.00139 0
M  V30 2318 H 226.239 -4.78154 -1.73914 0
M  V30 2319 H 225.637 -3.33257 -4.57117 0
M  V30 2320 H 224.194 -4.14368 -5.03133 0
M  V30 2321 N 227.627 0.131896 -1.57047 0
M  V30 2322 C 228.873 0.843179 -1.84441 0
M  V30 2323 C 229.206 1.80129 -0.725749 0
M  V30 2324 O 228.481 1.92624 0.269469 0
M  V30 2325 C 228.764 1.60442 -3.22382 0
M  V30 2326 C 228.617 0.666782 -4.4483 0
M  V30 2327 C 229.936 2.56354 -3.5773 0
M  V30 2328 H 227.055 0.305081 -0.670891 0
M  V30 2329 H 229.697 0.107839 -1.89694 0
M  V30 2330 H 227.847 2.23128 -3.18035 0
M  V30 2331 H 229.519 0.0497646 -4.61273 0
M  V30 2332 H 227.762 -0.022609 -4.33794 0
M  V30 2333 H 228.433 1.23579 -5.37989 0
M  V30 2334 H 230.909 2.0378 -3.62785 0
M  V30 2335 H 229.785 3.06657 -4.5525 0
M  V30 2336 H 230.046 3.38419 -2.84473 0
M  V30 2337 N 229.106 1.52395 0.401703 0
M  V30 2338 C 230.038 1.72505 1.50912 0
M  V30 2339 C 231.051 0.605468 1.51122 0
M  V30 2340 O 232.24 0.880828 1.55254 0
M  V30 2341 C 229.34 1.75711 2.89791 0
M  V30 2342 C 228.513 3.04824 3.1369 0
M  V30 2343 C 227.572 2.99743 4.32482 0
M  V30 2344 O 226.598 3.73635 4.29402 0
M  V30 2345 N 227.8 2.18047 5.37992 0
M  V30 2346 H 230.565 2.68049 1.34052 0
M  V30 2347 H 228.126 1.50724 0.591084 0
M  V30 2348 H 230.118 1.69834 3.6734 0
M  V30 2349 H 228.688 0.876092 3.00072 0
M  V30 2350 H 227.908 3.2429 2.24119 0
M  V30 2351 H 229.196 3.90221 3.26504 0
M  V30 2352 H 228.594 1.57456 5.43345 0
M  V30 2353 H 227.151 2.18021 6.14256 0
M  V30 2354 N 230.584 -0.659388 1.43143 0
M  V30 2355 C 231.83 -1.42145 1.44647 0
M  V30 2356 C 232.163 -1.9408 0.0681907 0
M  V30 2357 O 231.438 -1.71899 -0.910007 0
M  V30 2358 C 231.721 -2.60735 2.48373 0
M  V30 2359 C 231.574 -2.14332 3.95451 0
M  V30 2360 C 232.893 -3.62951 2.48906 0
M  V30 2361 H 230.012 -0.51552 0.526696 0
M  V30 2362 H 232.654 -0.748069 1.74654 0
M  V30 2363 H 230.804 -3.18184 2.22916 0
M  V30 2364 H 232.476 -1.61932 4.31944 0
M  V30 2365 H 230.719 -1.4576 4.08578 0
M  V30 2366 H 231.39 -2.99583 4.63631 0
M  V30 2367 H 233.866 -3.1525 2.71582 0
M  V30 2368 H 232.742 -4.43487 3.23435 0
M  V30 2369 H 233.003 -4.15126 1.52061 0
M  V30 2370 N 232.062 -1.29571 -0.897171 0
M  V30 2371 C 233.478 -1.07637 -1.17841 0
M  V30 2372 C 233.678 0.170713 -2.00776 0
M  V30 2373 O 232.734 0.867768 -2.3712 0
M  V30 2374 C 234.047 -2.3332 -1.8969 0
M  V30 2375 C 235.595 -2.38664 -2.02505 0
M  V30 2376 C 236.07 -3.64157 -2.77765 0
M  V30 2377 N 237.561 -3.64894 -2.85318 0
M  V30 2378 C 238.296 -4.58679 -3.44094 0
M  V30 2379 N 237.792 -5.62799 -4.04017 0
M  V30 2380 N 239.585 -4.46245 -3.41793 0
M  V30 2381 H 231.736 -2.09598 -0.343883 0
M  V30 2382 H 233.999 -0.923333 -0.214848 0
M  V30 2383 H 233.705 -3.24262 -1.36187 0
M  V30 2384 H 233.579 -2.41025 -2.9015 0
M  V30 2385 H 235.966 -1.48208 -2.55183 0
M  V30 2386 H 236.047 -2.34943 -1.01171 0
M  V30 2387 H 235.691 -4.54965 -2.25763 0
M  V30 2388 H 235.621 -3.65137 -3.7945 0
M  V30 2389 H 238.112 -2.89613 -2.42761 0
M  V30 2390 H 238.425 -6.3048 -4.46895 0
M  V30 2391 H 236.77 -5.66605 -4.02472 0
M  V30 2392 H 239.961 -3.64094 -2.94199 0
M  V30 2393 H 240.134 -5.19518 -3.87304 0
M  V30 2394 N 233.54 1.10788 -1.12088 0
M  V30 2395 C 234.956 1.34691 -0.856186 0
M  V30 2396 C 235.156 1.94791 0.515615 0
M  V30 2397 O 234.212 2.18524 1.26505 0
M  V30 2398 C 235.525 2.27208 -1.9697 0
M  V30 2399 C 237.073 2.40755 -2.00016 0
M  V30 2400 C 237.548 3.36598 -3.1059 0
M  V30 2401 N 239.039 3.44164 -3.10008 0
M  V30 2402 C 239.774 4.18284 -3.92206 0
M  V30 2403 N 239.27 4.95322 -4.84384 0
M  V30 2404 N 241.063 4.13865 -3.80357 0
M  V30 2405 H 233.214 0.70144 -2.00483 0
M  V30 2406 H 235.477 0.371405 -0.872217 0
M  V30 2407 H 235.183 1.90251 -2.958 0
M  V30 2408 H 235.057 3.27485 -1.87172 0
M  V30 2409 H 237.444 2.76982 -1.01808 0
M  V30 2410 H 237.525 1.40305 -2.13888 0
M  V30 2411 H 237.169 3.01096 -4.09028 0
M  V30 2412 H 237.099 4.36918 -2.93956 0
M  V30 2413 H 239.59 2.8922 -2.43228 0
M  V30 2414 H 239.903 5.49267 -5.43623 0
M  V30 2415 H 238.248 4.94459 -4.884 0
M  V30 2416 H 241.439 3.52773 -3.07683 0
M  V30 2417 H 241.612 4.71372 -4.44649 0
M  V30 2418 N 235.018 0.912232 1.28515 0
M  V30 2419 C 236.258 0.551677 1.96814 0
M  V30 2420 C 236.622 -0.887825 1.7024 0
M  V30 2421 O 237.823 -1.35588 2.32098 0
M  V30 2422 C 236.094 0.850555 3.47132 0
M  V30 2423 S 237.653 0.59619 4.34731 0
M  V30 2424 H 234.471 0.204191 0.681049 0
M  V30 2425 H 237.073 1.17736 1.56072 0
M  V30 2426 H 235.777 1.8962 3.63968 0
M  V30 2427 H 235.308 0.213471 3.9282 0
M  V30 2428 H 237.323 -0.553154 4.93107 0
M  V30 2429 N 236.496 -1.42363 0.676048 0
M  V30 2430 C 237.743 -2.01522 0.19883 0
M  V30 2431 C 238.071 -1.53456 -1.19505 0
M  V30 2432 O 237.326 -0.727967 -1.81657 0
M  V30 2433 C 237.625 -3.56929 0.183431 0
M  V30 2434 C 237.291 -4.24431 1.52215 0
M  V30 2435 C 235.953 -4.42585 1.8887 0
M  V30 2436 C 238.305 -4.62459 2.40377 0
M  V30 2437 C 235.633 -4.96039 3.13309 0
M  V30 2438 C 237.985 -5.17294 3.64129 0
M  V30 2439 C 236.649 -5.33661 4.00951 0
M  V30 2440 H 235.919 -0.737419 0.0727571 0
M  V30 2441 H 238.566 -1.70531 0.871281 0
M  V30 2442 H 236.871 -3.87594 -0.572532 0
M  V30 2443 H 238.568 -4.00486 -0.203035 0
M  V30 2444 H 235.158 -4.10661 1.22701 0
M  V30 2445 H 239.342 -4.48105 2.13343 0
M  V30 2446 H 234.598 -5.06896 3.41857 0
M  V30 2447 H 238.772 -5.45704 4.32644 0
M  V30 2448 H 236.399 -5.74845 4.9745 0
M  V30 2449 N 237.974 -0.419461 -1.51915 0
M  V30 2450 C 238.884 0.407528 -2.31033 0
M  V30 2451 C 239.9 1.04413 -1.3919 0
M  V30 2452 O 241.076 1.0434 -1.72265 0
M  V30 2453 C 238.141 1.50365 -3.12396 0
M  V30 2454 C 237.202 0.889029 -4.19994 0
M  V30 2455 C 236.435 1.93291 -4.97468 0
M  V30 2456 O 236.658 3.15259 -4.75361 0
M  V30 2457 O 235.592 1.53339 -5.8204 0
M  V30 2458 H 239.418 -0.237865 -3.02767 0
M  V30 2459 H 237.003 -0.182413 -1.48282 0
M  V30 2460 H 238.885 2.13975 -3.63032 0
M  V30 2461 H 237.56 2.13345 -2.43445 0
M  V30 2462 H 236.467 0.215353 -3.7348 0
M  V30 2463 H 237.8 0.302991 -4.91267 0
M  V30 2464 N 239.452 1.56882 -0.150215 0
M  V30 2465 C 240.682 2.00302 0.506213 0
M  V30 2466 C 241.09 1.02934 1.58749 0
M  V30 2467 O 240.433 0.0188384 1.8369 0
M  V30 2468 C 240.495 3.40156 1.16337 0
M  V30 2469 C 240.159 4.56439 0.226311 0
M  V30 2470 C 241.156 5.17012 -0.547265 0
M  V30 2471 C 238.841 5.02136 0.128279 0
M  V30 2472 C 240.835 6.21693 -1.40629 0
M  V30 2473 C 238.522 6.06672 -0.734345 0
M  V30 2474 C 239.52 6.6632 -1.50023 0
M  V30 2475 O 239.208 7.68831 -2.34848 0
M  V30 2476 H 238.94 0.662182 0.135984 0
M  V30 2477 H 241.494 2.03961 -0.242746 0
M  V30 2478 H 239.724 3.33346 1.96004 0
M  V30 2479 H 241.413 3.67663 1.71985 0
M  V30 2480 H 242.179 4.82603 -0.48158 0
M  V30 2481 H 238.058 4.55435 0.714157 0
M  V30 2482 H 241.602 6.68179 -2.00455 0
M  V30 2483 H 237.499 6.40507 -0.801309 0
M  V30 2484 H 238.267 7.86065 -2.28131 0
M  V30 2485 N 240.93 -0.123565 1.57115 0
M  V30 2486 C 241.877 -1.15177 2.00007 0
M  V30 2487 C 242.847 -1.41403 0.871454 0
M  V30 2488 O 244.032 -1.53346 1.13533 0
M  V30 2489 C 241.172 -2.47436 2.40561 0
M  V30 2490 C 240.285 -2.28184 3.66819 0
M  V30 2491 C 239.42 -3.53641 3.96373 0
M  V30 2492 C 238.459 -3.29528 5.15827 0
M  V30 2493 N 237.596 -4.47175 5.41275 0
M  V30 2494 H 242.436 -0.779008 2.87638 0
M  V30 2495 H 239.973 -0.373166 1.42288 0
M  V30 2496 H 241.931 -3.24584 2.62109 0
M  V30 2497 H 240.561 -2.82614 1.55978 0
M  V30 2498 H 239.613 -1.41976 3.52912 0
M  V30 2499 H 240.925 -2.0634 4.5412 0
M  V30 2500 H 240.079 -4.39209 4.18545 0
M  V30 2501 H 238.818 -3.78512 3.07538 0
M  V30 2502 H 237.823 -2.42349 4.93505 0
M  V30 2503 H 239.048 -3.06031 6.06236 0
M  V30 2504 H 236.994 -4.72175 4.55397 0
M  V30 2505 H 236.911 -4.28419 6.22891 0
M  V30 2506 H 238.179 -5.3389 5.67963 0
M  V30 2507 N 242.408 -1.52605 -0.393616 0
M  V30 2508 C 243.355 -1.77055 -1.48054 0
M  V30 2509 C 244.325 -0.61358 -1.54352 0
M  V30 2510 O 245.51 -0.852806 -1.70681 0
M  V30 2511 C 242.65 -1.94108 -2.85335 0
M  V30 2512 C 241.763 -3.21792 -2.88226 0
M  V30 2513 C 240.898 -3.29188 -4.16904 0
M  V30 2514 C 239.937 -4.51013 -4.13828 0
M  V30 2515 N 239.074 -4.55716 -5.34105 0
M  V30 2516 H 243.914 -2.69815 -1.26506 0
M  V30 2517 H 241.451 -1.33683 -0.61379 0
M  V30 2518 H 243.409 -2.01979 -3.65049 0
M  V30 2519 H 242.039 -1.04713 -3.05344 0
M  V30 2520 H 241.091 -3.23015 -2.00911 0
M  V30 2521 H 242.403 -4.11557 -2.8182 0
M  V30 2522 H 241.557 -3.36216 -5.05018 0
M  V30 2523 H 240.296 -2.37389 -4.26026 0
M  V30 2524 H 239.301 -4.44115 -3.24102 0
M  V30 2525 H 240.526 -5.44123 -4.06333 0
M  V30 2526 H 238.472 -3.66807 -5.43865 0
M  V30 2527 H 238.389 -5.39346 -5.29756 0
M  V30 2528 H 239.657 -4.66993 -6.2413 0
M  V30 2529 N 243.887 0.651787 -1.4349 0
M  V30 2530 C 244.819 1.77725 -1.44729 0
M  V30 2531 C 245.832 1.59141 -0.343231 0
M  V30 2532 O 247.021 1.67835 -0.607751 0
M  V30 2533 C 244.121 3.15172 -1.24579 0
M  V30 2534 C 243.294 3.60402 -2.47849 0
M  V30 2535 C 242.353 4.76656 -2.22902 0
M  V30 2536 O 241.379 4.86022 -2.96263 0
M  V30 2537 N 242.581 5.66958 -1.24656 0
M  V30 2538 H 245.346 1.77141 -2.41746 0
M  V30 2539 H 242.907 0.835678 -1.38665 0
M  V30 2540 H 244.899 3.90634 -1.0577 0
M  V30 2541 H 243.469 3.1052 -0.360015 0
M  V30 2542 H 242.689 2.75369 -2.82073 0
M  V30 2543 H 243.977 3.87368 -3.29884 0
M  V30 2544 H 243.375 5.62065 -0.640265 0
M  V30 2545 H 241.932 6.42135 -1.1183 0
M  V30 2546 N 245.365 1.30045 0.890287 0
M  V30 2547 C 246.275 1.17885 2.02831 0
M  V30 2548 C 247.291 0.0999609 1.73713 0
M  V30 2549 O 248.467 0.313867 1.98939 0
M  V30 2550 C 245.532 0.866079 3.35708 0
M  V30 2551 C 244.593 2.02979 3.78283 0
M  V30 2552 C 243.826 1.73184 5.0482 0
M  V30 2553 O 244.049 0.657237 5.66601 0
M  V30 2554 O 242.983 2.58267 5.43674 0
M  V30 2555 H 246.809 2.13474 2.16015 0
M  V30 2556 H 244.394 1.09587 1.01543 0
M  V30 2557 H 246.276 0.706623 4.15433 0
M  V30 2558 H 244.951 -0.0599443 3.23644 0
M  V30 2559 H 243.858 2.24454 2.99285 0
M  V30 2560 H 245.191 2.93734 3.94944 0
M  V30 2561 N 246.843 -1.10192 1.12674 0
M  V30 2562 C 248.073 -1.85713 0.905213 0
M  V30 2563 C 248.481 -1.81056 -0.549108 0
M  V30 2564 O 247.824 -1.19927 -1.39151 0
M  V30 2565 C 247.886 -3.34972 1.30516 0
M  V30 2566 C 247.55 -3.63385 2.77129 0
M  V30 2567 C 248.547 -3.59772 3.75313 0
M  V30 2568 C 246.232 -3.91981 3.14096 0
M  V30 2569 C 248.226 -3.84354 5.08479 0
M  V30 2570 C 245.913 -4.16218 4.47443 0
M  V30 2571 C 246.911 -4.12395 5.44444 0
M  V30 2572 O 246.599 -4.36014 6.75387 0
M  V30 2573 H 246.331 -0.593719 0.323223 0
M  V30 2574 H 248.885 -1.40198 1.50112 0
M  V30 2575 H 247.115 -3.81156 0.652463 0
M  V30 2576 H 248.804 -3.91886 1.05736 0
M  V30 2577 H 249.57 -3.37716 3.48099 0
M  V30 2578 H 245.449 -3.94085 2.39202 0
M  V30 2579 H 248.993 -3.81285 5.84181 0
M  V30 2580 H 244.89 -4.37754 4.74386 0
M  V30 2581 H 245.658 -4.53516 6.8137 0
M  V30 2582 N 248.321 -0.919034 -1.28029 0
M  V30 2583 C 249.567 -0.555757 -1.95036 0
M  V30 2584 C 249.9 0.899198 -1.72128 0
M  V30 2585 O 249.175 1.64023 -1.04531 0
M  V30 2586 C 249.458 -0.872024 -3.49382 0
M  V30 2587 C 249.311 -2.3801 -3.81669 0
M  V30 2588 C 250.63 -0.37185 -4.38526 0
M  V30 2589 H 247.749 -0.203386 -0.708381 0
M  V30 2590 H 250.391 -1.14924 -1.51303 0
M  V30 2591 H 248.541 -0.366946 -3.86763 0
M  V30 2592 H 250.213 -2.9562 -3.54128 0
M  V30 2593 H 248.456 -2.83289 -3.28526 0
M  V30 2594 H 249.127 -2.55192 -4.8947 0
M  V30 2595 H 251.603 -0.804602 -4.08247 0
M  V30 2596 H 250.479 -0.622173 -5.45362 0
M  V30 2597 H 250.74 0.727934 -4.36066 0
M  V30 2598 N 249.799 1.42003 -0.683588 0
M  V30 2599 C 251.045 2.01712 -0.209825 0
M  V30 2600 C 251.378 1.53968 1.18353 0
M  V30 2601 O 250.653 0.745661 1.79639 0
M  V30 2602 C 250.936 3.59202 -0.254197 0
M  V30 2603 C 250.789 4.17102 -1.68363 0
M  V30 2604 C 252.108 4.38344 0.392709 0
M  V30 2605 H 249.227 0.732891 -0.0777189 0
M  V30 2606 H 251.869 1.68909 -0.87004 0
M  V30 2607 H 250.019 3.87278 0.307954 0
M  V30 2608 H 251.691 3.99946 -2.29871 0
M  V30 2609 H 249.934 3.72597 -2.22157 0
M  V30 2610 H 250.605 5.26249 -1.6663 0
M  V30 2611 H 253.081 4.16011 -0.0859162 0
M  V30 2612 H 251.957 5.47901 0.331063 0
M  V30 2613 H 252.218 4.16887 1.47164 0
M  V30 2614 N 251.277 0.427512 1.51691 0
M  V30 2615 C 252.523 -0.142439 2.02299 0
M  V30 2616 C 252.856 -1.43214 1.31162 0
M  V30 2617 O 252.131 -1.89833 0.423511 0
M  V30 2618 C 252.414 -0.371301 3.58181 0
M  V30 2619 C 252.267 0.936358 4.39946 0
M  V30 2620 C 253.586 -1.14542 4.24933 0
M  V30 2621 H 250.705 -0.0502937 0.735282 0
M  V30 2622 H 253.347 0.564584 1.81418 0
M  V30 2623 H 251.497 -0.973559 3.76104 0
M  V30 2624 H 253.169 1.57184 4.33694 0
M  V30 2625 H 251.412 1.5432 4.05423 0
M  V30 2626 H 252.083 0.730388 5.47147 0
M  V30 2627 H 254.559 -0.635362 4.11221 0
M  V30 2628 H 253.435 -1.27431 5.33903 0
M  V30 2629 H 253.696 -2.17093 3.85127 0
M  V30 2630 N 252.755 -1.56801 0.158532 0
M  V30 2631 C 253.665 -2.20916 -0.789518 0
M  V30 2632 C 254.681 -1.1969 -1.26294 0
M  V30 2633 O 255.857 -1.52308 -1.31773 0
M  V30 2634 C 252.922 -2.82727 -2.00665 0
M  V30 2635 C 251.983 -3.99114 -1.58134 0
M  V30 2636 C 251.216 -4.57968 -2.74045 0
M  V30 2637 O 251.439 -4.15704 -3.90572 0
M  V30 2638 O 250.373 -5.48047 -2.48855 0
M  V30 2639 H 254.199 -3.02464 -0.273681 0
M  V30 2640 H 251.784 -1.4924 -0.0690548 0
M  V30 2641 H 253.666 -3.21968 -2.71872 0
M  V30 2642 H 252.341 -2.04184 -2.51179 0
M  V30 2643 H 251.248 -3.64567 -0.839155 0
M  V30 2644 H 252.581 -4.79212 -1.12325 0
M  V30 2645 N 254.233 0.115231 -1.57178 0
M  V30 2646 C 255.196 1.12526 -1.99676 0
M  V30 2647 C 256.196 1.34095 -0.88742 0
M  V30 2648 O 257.386 1.30548 -1.15337 0
M  V30 2649 C 254.518 2.4789 -2.34015 0
M  V30 2650 H 255.711 0.759912 -2.90113 0
M  V30 2651 H 253.264 0.359648 -1.52106 0
M  V30 2652 H 253.999 2.89339 -1.4647 0
M  V30 2653 H 253.784 2.33588 -3.14927 0
M  V30 2654 H 255.274 3.20575 -2.67622 0
M  V30 2655 N 255.711 1.52812 0.385517 0
M  V30 2656 C 256.621 1.80766 1.49535 0
M  V30 2657 C 257.637 0.694651 1.59532 0
M  V30 2658 O 258.813 0.982611 1.75803 0
M  V30 2659 C 255.878 1.97381 2.85029 0
M  V30 2660 C 254.939 3.21295 2.84724 0
M  V30 2661 C 254.172 3.37108 4.13756 0
M  V30 2662 O 254.395 2.5765 5.08893 0
M  V30 2663 O 253.329 4.30378 4.20783 0
M  V30 2664 H 257.155 2.75015 1.28842 0
M  V30 2665 H 254.74 1.37946 0.573697 0
M  V30 2666 H 256.622 2.09996 3.65349 0
M  V30 2667 H 255.297 1.06322 3.05741 0
M  V30 2668 H 254.204 3.1412 2.03174 0
M  V30 2669 H 255.537 4.12212 2.68965 0
M  V30 2670 N 257.189 -0.644168 1.43834 0
M  V30 2671 C 258.099 -1.78563 1.52159 0
M  V30 2672 C 259.115 -1.69147 0.408069 0
M  V30 2673 O 260.291 -1.90156 0.663524 0
M  V30 2674 C 257.356 -3.14888 1.45073 0
M  V30 2675 C 256.417 -3.36034 2.6717 0
M  V30 2676 C 255.65 -4.65855 2.60413 0
M  V30 2677 O 255.873 -5.45805 1.65689 0
M  V30 2678 O 254.807 -4.88918 3.5106 0
M  V30 2679 H 258.633 -1.74494 2.48567 0
M  V30 2680 H 256.218 -0.80378 1.25935 0
M  V30 2681 H 258.1 -3.96179 1.43597 0
M  V30 2682 H 256.775 -3.19528 0.518037 0
M  V30 2683 H 255.682 -2.54472 2.74217 0
M  V30 2684 H 257.015 -3.36247 3.59442 0
M  V30 2685 N 258.668 -1.30515 -0.883378 0
M  V30 2686 C 259.578 -1.18959 -2.02203 0
M  V30 2687 C 260.594 -0.109172 -1.73657 0
M  V30 2688 O 261.77 -0.324413 -1.9877 0
M  V30 2689 C 258.835 -0.883871 -3.35244 0
M  V30 2690 C 257.896 -2.04982 -3.77201 0
M  V30 2691 C 257.129 -1.75859 -5.03894 0
M  V30 2692 O 257.352 -0.687276 -5.66244 0
M  V30 2693 O 256.286 -2.61146 -5.42297 0
M  V30 2694 H 260.112 -2.14616 -2.1488 0
M  V30 2695 H 257.697 -1.10124 -1.0096 0
M  V30 2696 H 259.579 -0.728644 -4.15053 0
M  V30 2697 H 258.254 0.0427798 -3.23672 0
M  V30 2698 H 257.161 -2.26038 -2.9809 0
M  V30 2699 H 258.494 -2.95825 -3.93381 0
M  V30 2700 N 260.146 1.09593 -1.13257 0
M  V30 2701 C 261.076 2.18214 -0.830946 0
M  V30 2702 C 262.057 1.68812 0.208966 0
M  V30 2703 O 263.242 1.9408 0.0682666 0
M  V30 2704 C 260.372 3.46051 -0.294296 0
M  V30 2705 C 259.326 4.08778 -1.26826 0
M  V30 2706 C 258.652 5.31419 -0.591449 0
M  V30 2707 C 259.952 4.51476 -2.62615 0
M  V30 2708 H 261.646 2.43703 -1.73923 0
M  V30 2709 H 259.192 1.17128 -0.837675 0
M  V30 2710 H 261.145 4.2134 -0.0709606 0
M  V30 2711 H 259.869 3.20079 0.649366 0
M  V30 2712 H 258.528 3.35505 -1.47756 0
M  V30 2713 H 258.176 5.01727 0.357633 0
M  V30 2714 H 257.876 5.74341 -1.24123 0
M  V30 2715 H 259.4 6.09433 -0.377355 0
M  V30 2716 H 260.814 5.17999 -2.45663 0
M  V30 2717 H 259.211 5.05277 -3.23752 0
M  V30 2718 H 260.281 3.63962 -3.20406 0
M  V30 2719 N 261.624 0.925811 1.2754 0
M  V30 2720 C 262.852 0.581509 1.9856 0
M  V30 2721 C 263.267 -0.840041 1.69082 0
M  V30 2722 O 262.624 -1.55805 0.950312 0
M  V30 2723 C 262.675 0.795589 3.52637 0
M  V30 2724 O 262.396 2.16121 3.81082 0
M  V30 2725 C 263.897 0.459744 4.4091 0
M  V30 2726 H 261.117 0.220538 0.633722 0
M  V30 2727 H 263.661 1.24232 1.6244 0
M  V30 2728 H 261.816 0.18161 3.86974 0
M  V30 2729 H 262.23 2.2098 4.75676 0
M  V30 2730 H 263.704 0.660244 5.48037 0
M  V30 2731 H 264.181 -0.604625 4.35018 0
M  V30 2732 H 264.787 1.05178 4.12089 0
M  V30 2733 N 263.102 -1.41638 0.69111 0
M  V30 2734 C 264.513 -1.84346 0.295517 0
M  V30 2735 C 264.864 -1.57833 -1.16547 0
M  V30 2736 O 263.989 -1.04648 -1.89414 0
M  V30 2737 C 264.584 -3.34636 0.529575 0
M  V30 2738 C 263.143 -3.7593 0.187944 0
M  V30 2739 C 262.29 -2.65082 0.814052 0
M  V30 2740 H 265.241 -1.31253 0.892092 0
M  V30 2741 H 265.262 -3.79903 -0.213148 0
M  V30 2742 H 264.774 -3.53901 1.59297 0
M  V30 2743 H 262.875 -3.62268 -0.871367 0
M  V30 2744 H 262.988 -4.74808 0.63985 0
M  V30 2745 H 261.352 -2.53528 0.244017 0
M  V30 2746 H 262.135 -2.87167 1.88123 0
M  V30 2747 N 264.58 -0.43555 -1.51462 0
M  V30 2748 C 265.805 0.132627 -2.06976 0
M  V30 2749 C 266.23 1.35848 -1.30104 0
M  V30 2750 O 265.588 1.78112 -0.338493 0
M  V30 2751 C 265.636 0.43523 -3.57964 0
M  V30 2752 O 264.74 1.52198 -3.83288 0
M  V30 2753 H 264.081 0.00265 -0.663995 0
M  V30 2754 H 266.611 -0.616369 -1.95095 0
M  V30 2755 H 266.621 0.686206 -4.02188 0
M  V30 2756 H 265.296 -0.460739 -4.1334 0
M  V30 2757 H 263.873 1.2611 -3.50928 0
M  V30 2758 N 266.058 1.56714 -0.166846 0
M  V30 2759 C 267.283 2.01557 0.488833 0
M  V30 2760 C 267.708 1.0463 1.56314 0
M  V30 2761 O 267.066 0.0251304 1.81283 0
M  V30 2762 C 267.114 3.4503 1.04818 0
M  V30 2763 O 266.218 3.51163 2.16236 0
M  V30 2764 H 265.559 0.653516 0.117526 0
M  V30 2765 H 268.089 2.02818 -0.269421 0
M  V30 2766 H 268.099 3.84243 1.37191 0
M  V30 2767 H 266.774 4.15077 0.261572 0
M  V30 2768 H 265.351 3.23807 1.84942 0
M  V30 2769 N 267.536 -0.106894 1.57237 0
M  V30 2770 C 268.784 -0.810921 1.85117 0
M  V30 2771 C 269.105 -1.7984 0.753827 0
M  V30 2772 O 268.375 -1.94649 -0.221056 0
M  V30 2773 H 266.955 -0.302466 0.683025 0
M  V30 2774 H 269.617 -0.0913324 1.94686 0
M  V30 2775 H 268.713 -1.34875 2.81452 0
M  V30 2776 N 269.014 -1.53014 -0.377408 0
M  V30 2777 C 270.291 -1.59215 -1.13622 0
M  V30 2778 C 270.671 -0.392407 -2.07421 0
M  V30 2779 O 270.019 0.618342 -2.19975 0
M  V30 2780 C 270.229 -2.93669 -1.88573 0
M  V30 2781 C 271.577 -3.47822 -2.43526 0
M  V30 2782 O 272.601 -2.9562 -1.98715 0
M  V30 2783 O 271.46 -4.39055 -3.25412 0
M  V30 2784 H 268.554 -0.642625 -0.52054 0
M  V30 2785 H 271.1 -1.65353 -0.381625 0
M  V30 2786 H 269.872 -3.7243 -1.20048 0
M  V30 2787 H 269.495 -2.90968 -2.70968 0
M  V30 2788 N 270.492 0.636531 -1.44174 0
M  V30 2789 C 271.74 1.39343 -1.46383 0
M  V30 2790 C 272.061 1.94766 -0.0955715 0
M  V30 2791 O 271.331 1.75452 0.871395 0
M  V30 2792 H 269.911 0.517199 -0.538994 0
M  V30 2793 H 272.573 0.74957 -1.7991 0
M  V30 2794 H 271.669 2.22746 -2.18611 0
M  V30 2795 N 271.97 1.30982 0.876444 0
M  V30 2796 C 272.9 1.20668 1.99903 0
M  V30 2797 C 273.881 0.095354 1.69833 0
M  V30 2798 O 275.066 0.27885 1.92188 0
M  V30 2799 C 272.196 0.90655 3.3526 0
M  V30 2800 C 271.15 1.97675 3.79617 0
M  V30 2801 C 270.476 1.52943 5.1236 0
M  V30 2802 C 271.776 3.389 3.97422 0
M  V30 2803 H 273.47 2.14586 2.0879 0
M  V30 2804 H 271.016 1.03308 1.00317 0
M  V30 2805 H 272.969 0.821025 4.13324 0
M  V30 2806 H 271.693 -0.0682969 3.26529 0
M  V30 2807 H 270.352 2.05205 3.03787 0
M  V30 2808 H 270 0.54262 5.00065 0
M  V30 2809 H 269.7 2.24532 5.43009 0
M  V30 2810 H 271.224 1.45786 5.92941 0
M  V30 2811 H 272.638 3.34081 4.659 0
M  V30 2812 H 271.035 4.0865 4.3946 0
M  V30 2813 H 272.105 3.80163 3.01006 0
M  V30 2814 N 273.449 -1.08991 1.13837 0
M  V30 2815 C 274.679 -1.84743 0.924859 0
M  V30 2816 C 275.087 -1.81629 -0.529874 0
M  V30 2817 O 274.43 -1.21397 -1.37872 0
M  V30 2818 C 274.492 -3.33568 1.34061 0
M  V30 2819 C 274.156 -3.60425 2.80968 0
M  V30 2820 C 275.153 -3.55771 3.79108 0
M  V30 2821 C 272.838 -3.88627 3.18236 0
M  V30 2822 C 274.832 -3.78939 5.12527 0
M  V30 2823 C 272.519 -4.11449 4.51833 0
M  V30 2824 C 273.517 -4.06598 5.48787 0
M  V30 2825 O 273.205 -4.28826 6.79973 0
M  V30 2826 H 272.937 -0.590258 0.329502 0
M  V30 2827 H 275.491 -1.38598 1.51591 0
M  V30 2828 H 273.721 -3.80442 0.692853 0
M  V30 2829 H 275.41 -3.90743 1.09886 0
M  V30 2830 H 276.176 -3.34005 3.51661 0
M  V30 2831 H 272.055 -3.91526 2.43369 0
M  V30 2832 H 275.599 -3.75068 5.88192 0
M  V30 2833 H 271.496 -4.32698 4.79002 0
M  V30 2834 H 272.264 -4.46264 6.86142 0
M  V30 2835 N 274.927 -0.932562 -1.27047 0
M  V30 2836 C 275.857 -0.452902 -2.29066 0
M  V30 2837 C 276.838 0.489338 -1.62909 0
M  V30 2838 O 278.023 0.393046 -1.90181 0
M  V30 2839 C 275.153 0.290698 -3.46081 0
M  V30 2840 C 274.107 -0.564168 -4.24265 0
M  V30 2841 C 273.433 0.308886 -5.33807 0
M  V30 2842 C 274.733 -1.83112 -4.89149 0
M  V30 2843 H 276.427 -1.30552 -2.69437 0
M  V30 2844 H 273.973 -0.629201 -1.29526 0
M  V30 2845 H 275.926 0.637233 -4.16554 0
M  V30 2846 H 274.65 1.17738 -3.0464 0
M  V30 2847 H 273.309 -0.893477 -3.55545 0
M  V30 2848 H 272.957 1.19467 -4.88607 0
M  V30 2849 H 272.657 -0.259633 -5.87026 0
M  V30 2850 H 274.181 0.650884 -6.07121 0
M  V30 2851 H 275.595 -1.55236 -5.51883 0
M  V30 2852 H 273.992 -2.34353 -5.52448 0
M  V30 2853 H 275.062 -2.54772 -4.12576 0
M  V30 2854 N 276.405 1.4127 -0.698611 0
M  V30 2855 C 277.335 2.33447 -0.049629 0
M  V30 2856 C 278.316 1.51982 0.763898 0
M  V30 2857 O 279.501 1.80509 0.716257 0
M  V30 2858 C 276.631 3.35828 0.885267 0
M  V30 2859 C 275.585 4.27627 0.178613 0
M  V30 2860 C 274.911 5.20406 1.22807 0
M  V30 2861 C 276.211 5.13459 -0.956933 0
M  V30 2862 H 277.905 2.87966 -0.81951 0
M  V30 2863 H 275.451 1.38461 -0.395538 0
M  V30 2864 H 277.404 3.9924 1.34854 0
M  V30 2865 H 276.128 2.79666 1.68685 0
M  V30 2866 H 274.787 3.65643 -0.26466 0
M  V30 2867 H 274.435 4.60558 2.02226 0
M  V30 2868 H 274.135 5.82661 0.760239 0
M  V30 2869 H 275.659 5.86695 1.69179 0
M  V30 2870 H 277.073 5.70421 -0.573805 0
M  V30 2871 H 275.47 5.8467 -1.35205 0
M  V30 2872 H 276.54 4.50443 -1.79524 0
M  V30 2873 N 277.883 0.443576 1.51229 0
M  V30 2874 C 279.111 -0.11929 2.06556 0
M  V30 2875 C 279.526 -1.35921 1.31038 0
M  V30 2876 O 278.883 -1.78675 0.371704 0
M  V30 2877 C 278.934 -0.435228 3.5887 0
M  V30 2878 O 278.655 0.755486 4.31537 0
M  V30 2879 C 280.156 -1.04808 4.30732 0
M  V30 2880 H 277.376 -0.0051584 0.67098 0
M  V30 2881 H 279.92 0.624453 1.94733 0
M  V30 2882 H 278.075 -1.12887 3.70588 0
M  V30 2883 H 278.489 0.483491 5.22267 0
M  V30 2884 H 279.963 -1.2191 5.3837 0
M  V30 2885 H 280.44 -2.03081 3.89429 0
M  V30 2886 H 281.046 -0.393637 4.23474 0
M  V30 2887 N 279.361 -1.56624 0.175154 0
M  V30 2888 C 280.294 -2.14 -0.792412 0
M  V30 2889 C 281.272 -1.07114 -1.22333 0
M  V30 2890 O 282.456 -1.35112 -1.31442 0
M  V30 2891 C 279.583 -2.68268 -2.0676 0
M  V30 2892 C 278.629 -3.87562 -1.7804 0
M  V30 2893 S 279.462 -5.27074 -0.946222 0
M  V30 2894 C 280.618 -5.8475 -2.23199 0
M  V30 2895 H 280.851 -2.95736 -0.304588 0
M  V30 2896 H 278.384 -1.54349 -0.0395705 0
M  V30 2897 H 280.342 -3.00182 -2.80002 0
M  V30 2898 H 279.003 -1.86612 -2.52656 0
M  V30 2899 H 278.196 -4.23874 -2.72666 0
M  V30 2900 H 277.798 -3.56555 -1.12891 0
M  V30 2901 H 280.09 -5.97898 -3.18629 0
M  V30 2902 H 281.033 -6.81756 -1.91349 0
M  V30 2903 H 281.441 -5.13198 -2.35134 0
M  V30 2904 N 280.839 0.0985539 -1.57292 0
M  V30 2905 C 281.749 1.13824 -2.05137 0
M  V30 2906 C 282.765 1.44076 -0.975604 0
M  V30 2907 O 283.941 1.54786 -1.28853 0
M  V30 2908 C 281.006 2.43969 -2.46333 0
M  V30 2909 C 280.067 2.2093 -3.68087 0
M  V30 2910 C 279.3 3.44869 -4.0731 0
M  V30 2911 O 279.523 4.52972 -3.46659 0
M  V30 2912 O 278.457 3.34661 -5.00285 0
M  V30 2913 H 282.283 0.761881 -2.93988 0
M  V30 2914 H 279.868 0.310818 -1.46131 0
M  V30 2915 H 281.75 3.20609 -2.73473 0
M  V30 2916 H 280.425 2.81038 -1.60621 0
M  V30 2917 H 279.332 1.42081 -3.46069 0
M  V30 2918 H 280.665 1.88755 -4.54568 0
M  V30 2919 N 282.317 1.53212 0.369288 0
M  V30 2920 C 283.564 1.69215 1.11232 0
M  V30 2921 C 283.892 0.442048 1.8941 0
M  V30 2922 O 283.147 -0.575944 1.87033 0
M  V30 2923 C 283.446 2.89101 2.10132 0
M  V30 2924 C 283.112 4.25758 1.48463 0
M  V30 2925 C 281.774 4.6292 1.31372 0
M  V30 2926 C 284.126 5.10757 1.03811 0
M  V30 2927 C 281.454 5.82722 0.68207 0
M  V30 2928 C 283.806 6.31201 0.420487 0
M  V30 2929 C 282.47 6.67079 0.237038 0
M  V30 2930 H 281.74 0.619201 0.407027 0
M  V30 2931 H 284.387 1.87391 0.394552 0
M  V30 2932 H 282.692 2.65421 2.88199 0
M  V30 2933 H 284.389 2.98676 2.6757 0
M  V30 2934 H 280.979 3.96494 1.62758 0
M  V30 2935 H 285.163 4.82599 1.1581 0
M  V30 2936 H 280.419 6.09113 0.528316 0
M  V30 2937 H 284.593 6.96368 0.0662874 0
M  V30 2938 H 282.22 7.59774 -0.254477 0
M  V30 2939 N 283.795 -0.628877 1.44509 0
M  V30 2940 C 284.758 -1.72263 1.51188 0
M  V30 2941 C 285.758 -1.55907 0.39367 0
M  V30 2942 O 286.948 -1.61361 0.656377 0
M  V30 2943 C 284.08 -3.11365 1.38798 0
M  V30 2944 H 285.273 -1.67714 2.4862 0
M  V30 2945 H 282.826 -0.842737 1.31634 0
M  V30 2946 H 283.561 -3.21507 0.424693 0
M  V30 2947 H 283.346 -3.24644 2.19884 0
M  V30 2948 H 284.836 -3.91075 1.46458 0
M  V30 2949 N 285.273 -1.31445 -0.869486 0
M  V30 2950 C 286.521 -1.20918 -1.61936 0
M  V30 2951 C 286.842 0.232683 -1.93607 0
M  V30 2952 O 286.112 1.15352 -1.58338 0
M  V30 2953 H 284.692 -0.44454 -0.600328 0
M  V30 2954 H 287.354 -1.64776 -1.0409 0
M  V30 2955 H 286.45 -1.78124 -2.56278 0
M  V30 2956 N 286.751 1.08385 -1.14413 0
M  V30 2957 C 287.997 1.81212 -0.923793 0
M  V30 2958 C 288.352 1.84555 0.543814 0
M  V30 2959 O 287.645 1.31056 1.39767 0
M  V30 2960 C 287.839 3.26273 -1.45879 0
M  V30 2961 C 287.668 3.37063 -2.97689 0
M  V30 2962 C 286.438 3.4824 -3.66138 0
M  V30 2963 C 288.636 3.28698 -3.95553 0
M  V30 2964 N 286.618 3.47824 -5.05858 0
M  V30 2965 C 287.989 3.35276 -5.21527 0
M  V30 2966 C 290.044 3.12437 -3.8767 0
M  V30 2967 C 288.747 3.27267 -6.40538 0
M  V30 2968 C 290.773 3.05757 -5.06228 0
M  V30 2969 C 290.135 3.12938 -6.3107 0
M  V30 2970 H 286.234 0.6769 -0.391574 0
M  V30 2971 H 288.818 1.29455 -1.45429 0
M  V30 2972 H 286.989 3.76474 -0.95507 0
M  V30 2973 H 288.721 3.87165 -1.17835 0
M  V30 2974 H 285.476 3.52141 -3.16692 0
M  V30 2975 H 285.9 3.51171 -5.78798 0
M  V30 2976 H 290.542 3.05747 -2.92025 0
M  V30 2977 H 288.26 3.32718 -7.36427 0
M  V30 2978 H 291.846 2.94295 -5.01878 0
M  V30 2979 H 290.726 3.078 -7.21269 0
M  V30 2980 N 288.23 0.939286 1.26551 0
M  V30 2981 C 289.16 0.465044 2.28822 0
M  V30 2982 C 290.141 -0.480692 1.63167 0
M  V30 2983 O 291.326 -0.382955 1.90387 0
M  V30 2984 C 288.456 -0.27234 3.46231 0
M  V30 2985 C 287.41 0.58666 4.2396 0
M  V30 2986 C 286.736 -0.280573 5.33963 0
M  V30 2987 C 288.036 1.85704 4.88171 0
M  V30 2988 H 289.73 1.31979 2.68741 0
M  V30 2989 H 287.276 0.636061 1.29191 0
M  V30 2990 H 289.229 -0.615133 4.16886 0
M  V30 2991 H 287.953 -1.16121 3.0526 0
M  V30 2992 H 286.612 0.91232 3.55067 0
M  V30 2993 H 286.26 -1.16874 4.89234 0
M  V30 2994 H 285.96 0.29076 5.8688 0
M  V30 2995 H 287.484 -0.618678 6.07458 0
M  V30 2996 H 288.898 1.58161 5.51052 0
M  V30 2997 H 287.295 2.37279 5.51197 0
M  V30 2998 H 288.365 2.56957 4.11219 0
M  V30 2999 N 289.708 -1.40897 0.706093 0
M  V30 3000 C 290.656 -2.32572 0.0361893 0
M  V30 3001 C 291.65 -1.51532 -0.757266 0
M  V30 3002 O 292.856 -1.67396 -0.661703 0
M  V30 3003 H 289.231 -0.751966 -0.00709935 0
M  V30 3004 H 291.202 -2.86733 0.826249 0
M  V30 3005 C 289.951 -3.36418 -0.87854 0
M  V30 3006 H 289.274 -3.98836 -0.277401 0
M  V30 3007 H 290.714 -4.0308 -1.3154 0
M  V30 3008 C 289.173 -2.71141 -1.99961 0
M  V30 3009 O 289.703 -2.56735 -3.0895 0
M  V30 3010 N 287.909 -2.29671 -1.78043 0
M  V30 3011 H 287.456 -2.41588 -0.894042 0
M  V30 3012 H 287.414 -1.86332 -2.53235 0
M  V30 3013 N 291.186 -0.45159 -1.50991 0
M  V30 3014 C 292.434 0.109857 -2.01801 0
M  V30 3015 C 292.755 1.41958 -1.3369 0
M  V30 3016 O 292.025 1.9003 -0.475951 0
M  V30 3017 H 290.605 0.0435884 -0.745727 0
M  V30 3018 H 293.267 -0.597557 -1.85514 0
M  V30 3019 H 292.363 0.275489 -3.10882 0
M  V30 3020 N 292.664 1.56529 -0.183458 0
M  V30 3021 C 293.889 2.02064 0.467428 0
M  V30 3022 C 294.314 1.06282 1.55196 0
M  V30 3023 O 293.672 0.0443565 1.81246 0
M  V30 3024 C 293.72 3.46122 1.01153 0
M  V30 3025 O 292.824 3.53437 2.12499 0
M  V30 3026 H 292.165 0.654726 0.110588 0
M  V30 3027 H 294.695 2.02521 -0.290917 0
M  V30 3028 H 294.705 3.85676 1.33108 0
M  V30 3029 H 293.38 4.15331 0.217533 0
M  V30 3030 H 291.957 3.2575 1.81497 0
M  V30 3031 N 294.142 -0.090211 1.57342 0
M  V30 3032 C 295.072 -1.10976 2.05443 0
M  V30 3033 C 296.053 -1.41482 0.944284 0
M  V30 3034 O 297.238 -1.51428 1.21586 0
M  V30 3035 C 294.368 -2.42831 2.48295 0
M  V30 3036 C 293.322 -2.26721 3.63018 0
M  V30 3037 C 292.648 -3.63796 3.91863 0
M  V30 3038 C 293.948 -1.7037 4.93732 0
M  V30 3039 H 295.642 -0.709564 2.9087 0
M  V30 3040 H 293.188 -0.339874 1.39932 0
M  V30 3041 H 295.141 -3.14431 2.80555 0
M  V30 3042 H 293.865 -2.84795 1.59873 0
M  V30 3043 H 292.524 -1.57565 3.31012 0
M  V30 3044 H 292.172 -4.03297 3.00601 0
M  V30 3045 H 291.872 -3.53861 4.69101 0
M  V30 3046 H 293.396 -4.36855 4.26603 0
M  V30 3047 H 294.81 -2.31816 5.24342 0
M  V30 3048 H 293.207 -1.71181 5.75167 0
M  V30 3049 H 294.277 -0.663542 4.80339 0
M  V30 3050 N 295.62 -1.53406 -0.361157 0
M  V30 3051 C 296.866 -1.70054 -1.10496 0
M  V30 3052 C 297.199 -0.453278 -1.88836 0
M  V30 3053 O 296.474 0.5495 -1.86576 0
M  V30 3054 C 296.757 -2.95317 -2.06058 0
M  V30 3055 C 296.61 -4.3021 -1.31298 0
M  V30 3056 C 297.929 -3.16193 -3.06121 0
M  V30 3057 H 295.048 -0.618799 -0.400321 0
M  V30 3058 H 297.69 -1.86052 -0.385318 0
M  V30 3059 H 295.84 -2.81809 -2.67425 0
M  V30 3060 H 297.512 -4.55538 -0.726807 0
M  V30 3061 H 295.755 -4.29421 -0.614853 0
M  V30 3062 H 296.426 -5.14 -2.01265 0
M  V30 3063 H 298.902 -3.28916 -2.5486 0
M  V30 3064 H 297.778 -4.05266 -3.70204 0
M  V30 3065 H 298.039 -2.31676 -3.76535 0
M  V30 3066 N 297.098 0.621204 -1.44841 0
M  V30 3067 C 298.346 1.37783 -1.47852 0
M  V30 3068 C 298.667 1.94653 -0.116224 0
M  V30 3069 O 297.937 1.76367 0.852737 0
M  V30 3070 H 296.517 0.511453 -0.544449 0
M  V30 3071 H 299.179 0.730446 -1.80694 0
M  V30 3072 H 298.275 2.20414 -2.20961 0
M  V30 3073 N 298.576 1.31904 0.862503 0
M  V30 3074 C 299.823 1.22017 1.61611 0
M  V30 3075 C 300.151 -0.21991 1.93253 0
M  V30 3076 O 299.406 -1.17076 1.56817 0
M  V30 3077 C 299.705 2.01713 2.95037 0
M  V30 3078 C 299.371 3.51145 2.82857 0
M  V30 3079 C 298.033 3.91889 2.79243 0
M  V30 3080 C 300.385 4.46204 2.69353 0
M  V30 3081 C 297.713 5.25947 2.59993 0
M  V30 3082 C 300.065 5.80397 2.5164 0
M  V30 3083 C 298.729 6.20352 2.46413 0
M  V30 3084 H 297.999 0.44649 0.591378 0
M  V30 3085 H 300.646 1.63248 1.00111 0
M  V30 3086 H 298.951 1.53185 3.60613 0
M  V30 3087 H 300.648 1.91437 3.52353 0
M  V30 3088 H 297.238 3.1878 2.86491 0
M  V30 3089 H 301.422 4.15652 2.71196 0
M  V30 3090 H 296.678 5.5597 2.54376 0
M  V30 3091 H 300.852 6.53676 2.40169 0
M  V30 3092 H 298.479 7.24172 2.31256 0
M  V30 3093 N 300.054 -1.07777 1.14986 0
M  V30 3094 C 301.284 -1.83752 0.944402 0
M  V30 3095 C 301.692 -1.8218 -0.51058 0
M  V30 3096 O 301.035 -1.22852 -1.36576 0
M  V30 3097 C 301.097 -3.32128 1.37592 0
M  V30 3098 C 300.761 -3.57425 2.84775 0
M  V30 3099 C 301.758 -3.5173 3.8286 0
M  V30 3100 C 299.443 -3.8523 3.2234 0
M  V30 3101 C 301.437 -3.73482 5.16517 0
M  V30 3102 C 299.124 -4.06634 4.56171 0
M  V30 3103 C 300.122 -4.00754 5.53069 0
M  V30 3104 O 299.81 -4.2159 6.84483 0
M  V30 3105 H 299.542 -0.58673 0.335744 0
M  V30 3106 H 302.096 -1.36982 1.53052 0
M  V30 3107 H 300.326 -3.79686 0.733165 0
M  V30 3108 H 302.015 -3.89555 1.14024 0
M  V30 3109 H 302.781 -3.30256 3.55184 0
M  V30 3110 H 298.66 -3.88923 2.47508 0
M  V30 3111 H 302.204 -3.68808 5.92137 0
M  V30 3112 H 298.101 -4.27593 4.83564 0
M  V30 3113 H 298.869 -4.38961 6.90837 0
M  V30 3114 N 301.532 -0.945985 -1.26051 0
M  V30 3115 C 302.948 -0.649045 -1.45807 0
M  V30 3116 C 303.148 0.796158 -1.85104 0
M  V30 3117 O 302.204 1.57233 -1.97571 0
M  V30 3118 C 303.517 -1.61458 -2.53677 0
M  V30 3119 C 305.065 -1.62481 -2.67524 0
M  V30 3120 C 305.54 -2.57776 -3.7857 0
M  V30 3121 N 307.031 -2.5609 -3.85969 0
M  V30 3122 C 307.766 -3.26508 -4.7136 0
M  V30 3123 N 307.262 -4.0637 -5.61102 0
M  V30 3124 N 309.055 -3.15437 -4.65248 0
M  V30 3125 H 301.206 -1.88005 -0.988328 0
M  V30 3126 H 303.469 -0.808198 -0.4955 0
M  V30 3127 H 303.175 -2.64644 -2.31638 0
M  V30 3128 H 303.049 -1.37036 -3.51427 0
M  V30 3129 H 305.436 -0.600167 -2.88933 0
M  V30 3130 H 305.517 -1.90958 -1.70202 0
M  V30 3131 H 305.161 -3.60361 -3.57913 0
M  V30 3132 H 305.091 -2.26587 -4.75359 0
M  V30 3133 H 307.582 -1.98105 -3.21812 0
M  V30 3134 H 307.895 -4.57042 -6.23164 0
M  V30 3135 H 306.24 -4.10469 -5.60839 0
M  V30 3136 H 309.431 -2.52525 -3.94143 0
M  V30 3137 H 309.604 -3.70584 -5.31575 0
M  V30 3138 N 303.011 1.40521 -0.713556 0
M  V30 3139 C 304.239 2.05237 -0.261775 0
M  V30 3140 C 304.654 1.53755 1.09567 0
M  V30 3141 O 304.011 0.693268 1.6882 0
M  V30 3142 C 304.062 3.60763 -0.230706 0
M  V30 3143 O 303.783 4.10345 -1.53455 0
M  V30 3144 C 305.284 4.42651 0.239874 0
M  V30 3145 H 302.504 0.660533 -0.118057 0
M  V30 3146 H 305.048 1.79967 -0.971192 0
M  V30 3147 H 303.203 3.8501 0.429661 0
M  V30 3148 H 303.617 5.04526 -1.43366 0
M  V30 3149 H 305.091 5.51599 0.210468 0
M  V30 3150 H 305.568 4.20082 1.28171 0
M  V30 3151 H 306.174 4.23507 -0.390142 0
M  V30 3152 N 304.489 0.459591 1.5075 0
M  V30 3153 C 305.717 -0.0973749 2.06671 0
M  V30 3154 C 306.132 -1.34524 1.32472 0
M  V30 3155 O 305.489 -1.7827 0.390634 0
M  V30 3156 C 305.54 -0.39714 3.59312 0
M  V30 3157 O 305.261 0.801214 4.30711 0
M  V30 3158 C 306.762 -1.00234 4.31819 0
M  V30 3159 H 303.982 0.00195854 0.670997 0
M  V30 3160 H 306.526 0.645072 1.94059 0
M  V30 3161 H 304.681 -1.08951 3.71764 0
M  V30 3162 H 305.095 0.538857 5.21725 0
M  V30 3163 H 306.569 -1.16193 5.39632 0
M  V30 3164 H 307.046 -1.98939 3.91561 0
M  V30 3165 H 307.652 -0.348699 4.23868 0
M  V30 3166 N 305.967 -1.56429 0.191757 0
M  V30 3167 C 307.197 -2.01574 -0.452928 0
M  V30 3168 C 307.605 -1.07107 -1.55964 0
M  V30 3169 O 306.948 -0.067534 -1.83576 0
M  V30 3170 C 307.01 -3.43121 -1.07278 0
M  V30 3171 C 306.674 -4.56879 -0.105214 0
M  V30 3172 C 307.671 -5.15379 0.684149 0
M  V30 3173 C 305.356 -5.023 0.00489824 0
M  V30 3174 C 307.35 -6.17746 1.57062 0
M  V30 3175 C 305.037 -6.04511 0.894935 0
M  V30 3176 C 306.035 -6.62108 1.67637 0
M  V30 3177 O 305.723 -7.62335 2.55149 0
M  V30 3178 H 305.455 -0.665554 -0.118379 0
M  V30 3179 H 308.009 -2.03245 0.296737 0
M  V30 3180 H 306.239 -3.38425 -1.87097 0
M  V30 3181 H 307.928 -3.72093 -1.62177 0
M  V30 3182 H 308.694 -4.81157 0.609365 0
M  V30 3183 H 304.573 -4.57168 -0.593156 0
M  V30 3184 H 308.117 -6.6263 2.181 0
M  V30 3185 H 304.014 -6.38157 0.970847 0
M  V30 3186 H 304.782 -7.79741 2.48892 0
M  V30 3187 N 307.445 0.0818655 -1.57387 0
M  V30 3188 C 308.673 0.796108 -1.9097 0
M  V30 3189 C 309.088 1.71626 -0.786757 0
M  V30 3190 O 308.445 1.80908 0.240513 0
M  V30 3191 C 308.496 1.59829 -3.24248 0
M  V30 3192 O 308.217 0.715131 -4.32224 0
M  V30 3193 C 309.718 2.41442 -3.7178 0
M  V30 3194 H 306.938 0.22691 -0.631469 0
M  V30 3195 H 309.482 0.0551439 -2.04426 0
M  V30 3196 H 307.637 2.29163 -3.12351 0
M  V30 3197 H 308.051 1.27205 -5.08841 0
M  V30 3198 H 309.525 2.932 -4.67694 0
M  V30 3199 H 310.002 3.2051 -3.00283 0
M  V30 3200 H 310.608 1.77283 -3.86589 0
M  V30 3201 N 308.923 1.53595 0.353017 0
M  V30 3202 C 309.833 1.83897 1.45667 0
M  V30 3203 C 310.849 0.728334 1.58023 0
M  V30 3204 O 312.025 1.01968 1.73679 0
M  V30 3205 C 309.09 2.03383 2.80778 0
M  V30 3206 C 308.151 3.27262 2.77845 0
M  V30 3207 C 307.384 3.45809 4.06512 0
M  V30 3208 O 307.607 2.68387 5.03314 0
M  V30 3209 O 306.541 4.39207 4.11559 0
M  V30 3210 H 310.367 2.77686 1.2298 0
M  V30 3211 H 307.952 1.39132 0.544308 0
M  V30 3212 H 309.834 2.17698 3.60812 0
M  V30 3213 H 308.509 1.12783 3.03417 0
M  V30 3214 H 307.416 3.18359 1.96465 0
M  V30 3215 H 308.749 4.17824 2.60161 0
M  V30 3216 N 310.401 -0.613514 1.45168 0
M  V30 3217 C 311.349 -1.74572 1.53712 0
M  V30 3218 C 312.343 -1.64426 0.407505 0
M  V30 3219 O 313.549 -1.70291 0.583176 0
M  V30 3220 H 309.924 -0.576641 0.48269 0
M  V30 3221 H 311.895 -1.64492 2.48968 0
M  V30 3222 C 310.644 -3.12943 1.51532 0
M  V30 3223 H 309.967 -3.21407 2.37776 0
M  V30 3224 H 311.407 -3.9201 1.61569 0
M  V30 3225 C 309.866 -3.36053 0.238798 0
M  V30 3226 O 310.396 -3.95837 -0.6838 0
M  V30 3227 N 308.602 -2.9028 0.136359 0
M  V30 3228 H 308.149 -2.41811 0.887999 0
M  V30 3229 H 308.107 -3.06116 -0.716944 0
M  V30 3230 N 311.879 -1.3236 -0.855495 0
M  V30 3231 C 313.127 -1.22629 -1.60644 0
M  V30 3232 C 313.448 0.212136 -1.93843 0
M  V30 3233 O 312.718 1.13666 -1.59552 0
M  V30 3234 H 311.298 -0.450882 -0.595579 0
M  V30 3235 H 313.96 -1.65871 -1.02337 0
M  V30 3236 H 313.056 -1.80832 -2.54374 0
M  V30 3237 N 313.357 1.07166 -1.15556 0
M  V30 3238 C 314.289 2.14341 -0.811815 0
M  V30 3239 C 315.302 1.61835 0.177015 0
M  V30 3240 O 316.491 1.78439 -0.0464996 0
M  V30 3241 C 313.591 3.38387 -0.186481 0
M  V30 3242 C 312.764 4.20238 -1.21321 0
M  V30 3243 C 311.823 5.2266 -0.609302 0
M  V30 3244 O 310.849 5.54719 -1.27576 0
M  V30 3245 N 312.051 5.77306 0.608099 0
M  V30 3246 H 314.816 2.44431 -1.73417 0
M  V30 3247 H 312.377 1.23089 -1.0517 0
M  V30 3248 H 314.369 4.04044 0.230339 0
M  V30 3249 H 312.939 3.05994 0.639249 0
M  V30 3250 H 312.159 3.50369 -1.80652 0
M  V30 3251 H 313.447 4.71736 -1.90638 0
M  V30 3252 H 312.845 5.53513 1.1679 0
M  V30 3253 H 311.402 6.44583 0.96725 0
M  V30 3254 N 314.835 0.952656 1.25548 0
M  V30 3255 C 316.081 0.607272 1.93494 0
M  V30 3256 C 316.414 -0.853245 1.74452 0
M  V30 3257 O 315.689 -1.61194 1.08843 0
M  V30 3258 C 315.972 0.96435 3.46947 0
M  V30 3259 C 315.825 2.48045 3.75225 0
M  V30 3260 C 317.144 0.487987 4.37386 0
M  V30 3261 H 314.263 0.222096 0.702739 0
M  V30 3262 H 316.905 1.18895 1.48203 0
M  V30 3263 H 315.055 0.469361 3.85654 0
M  V30 3264 H 316.727 3.04905 3.46166 0
M  V30 3265 H 314.97 2.919 3.209 0
M  V30 3266 H 315.641 2.6808 4.82532 0
M  V30 3267 H 318.117 0.912558 4.0597 0
M  V30 3268 H 316.993 0.766547 5.43521 0
M  V30 3269 H 317.254 -0.612063 4.37843 0
M  V30 3270 N 316.313 -1.40141 0.720998 0
M  V30 3271 C 317.26 -2.30688 0.071919 0
M  V30 3272 C 318.23 -1.48476 -0.744584 0
M  V30 3273 O 319.415 -1.77201 -0.707423 0
M  V30 3274 C 316.555 -3.34724 -0.839855 0
M  V30 3275 C 315.668 -4.31998 -0.0122438 0
M  V30 3276 C 314.803 -5.23102 -0.923995 0
M  V30 3277 C 313.842 -6.12033 -0.0907969 0
M  V30 3278 N 312.979 -6.95537 -0.957718 0
M  V30 3279 H 317.819 -2.85628 0.849755 0
M  V30 3280 H 315.356 -1.40653 0.430726 0
M  V30 3281 H 317.314 -3.93618 -1.38279 0
M  V30 3282 H 315.944 -2.81274 -1.58381 0
M  V30 3283 H 314.996 -3.74841 0.64794 0
M  V30 3284 H 316.308 -4.94772 0.632595 0
M  V30 3285 H 315.462 -5.86953 -1.53527 0
M  V30 3286 H 314.201 -4.60615 -1.60264 0
M  V30 3287 H 313.206 -5.47207 0.533377 0
M  V30 3288 H 314.431 -6.76581 0.584428 0
M  V30 3289 H 312.377 -6.35633 -1.62192 0
M  V30 3290 H 312.294 -7.55099 -0.36904 0
M  V30 3291 H 313.562 -7.63832 -1.555 0
M  V30 3292 N 317.792 -0.46758 -1.50504 0
M  V30 3293 C 319.017 0.0886943 -2.0721 0
M  V30 3294 C 319.442 1.33057 -1.32956 0
M  V30 3295 O 318.8 1.77354 -0.376197 0
M  V30 3296 C 318.848 0.359202 -3.58806 0
M  V30 3297 O 317.952 1.44034 -3.8643 0
M  V30 3298 H 317.293 -0.0114349 -0.663902 0
M  V30 3299 H 319.823 -0.657613 -1.93744 0
M  V30 3300 H 319.833 0.600742 -4.03553 0
M  V30 3301 H 318.508 -0.548311 -4.1227 0
M  V30 3302 H 317.085 1.18638 -3.53524 0
M  V30 3303 N 319.27 1.56325 -0.20005 0
M  V30 3304 C 320.519 1.96895 0.437652 0
M  V30 3305 C 320.832 1.08999 1.62415 0
M  V30 3306 O 322.038 1.39372 2.32997 0
M  V30 3307 C 320.494 3.50198 0.830025 0
M  V30 3308 C 320.102 4.46765 -0.332461 0
M  V30 3309 C 321.846 3.99526 1.43453 0
M  V30 3310 C 319.753 5.91344 0.0811468 0
M  V30 3311 H 318.683 0.735209 0.167282 0
M  V30 3312 H 321.334 1.81148 -0.292853 0
M  V30 3313 H 319.716 3.61467 1.61734 0
M  V30 3314 H 320.89 4.47231 -1.11 0
M  V30 3315 H 319.205 4.07657 -0.848789 0
M  V30 3316 H 321.802 5.05025 1.75652 0
M  V30 3317 H 322.145 3.44122 2.34277 0
M  V30 3318 H 322.678 3.91393 0.71109 0
M  V30 3319 H 319.417 6.50685 -0.793033 0
M  V30 3320 H 318.937 5.94121 0.823445 0
M  V30 3321 H 320.616 6.44945 0.515252 0
M  V30 3322 N 320.748 -0.0735177 1.57428 0
M  V30 3323 C 321.994 -0.774145 1.87443 0
M  V30 3324 C 322.327 -1.77311 0.792103 0
M  V30 3325 O 321.602 -1.93492 -0.197793 0
M  V30 3326 C 321.885 -1.48367 3.28115 0
M  V30 3327 C 321.738 -0.501227 4.46999 0
M  V30 3328 C 323.057 -2.429 3.66998 0
M  V30 3329 H 320.176 -0.279971 0.681752 0
M  V30 3330 H 322.818 -0.0373616 1.89963 0
M  V30 3331 H 320.968 -2.11171 3.26097 0
M  V30 3332 H 322.64 0.121468 4.6114 0
M  V30 3333 H 320.883 0.183593 4.33411 0
M  V30 3334 H 321.554 -1.03526 5.42205 0
M  V30 3335 H 324.03 -1.90175 3.70098 0
M  V30 3336 H 322.906 -2.89549 4.66318 0
M  V30 3337 H 323.167 -3.27628 2.96837 0
M  V30 3338 N 322.226 -1.5378 -0.344866 0
M  V30 3339 C 323.189 -1.80981 -1.40637 0
M  V30 3340 C 324.189 -0.680816 -1.45676 0
M  V30 3341 O 325.379 -0.949095 -1.46075 0
M  V30 3342 C 322.511 -1.95063 -2.79577 0
M  V30 3343 H 323.704 -2.75803 -1.17783 0
M  V30 3344 H 321.257 -1.45173 -0.579181 0
M  V30 3345 H 321.992 -1.02379 -3.07716 0
M  V30 3346 H 321.777 -2.77198 -2.77315 0
M  V30 3347 H 323.267 -2.17629 -3.56409 0
M  V30 3348 N 323.704 0.605807 -1.45491 0
M  V30 3349 C 324.932 1.39136 -1.5313 0
M  V30 3350 C 325.347 1.88082 -0.164507 0
M  V30 3351 O 324.704 1.62316 0.834247 0
M  V30 3352 C 324.755 2.59463 -2.51716 0
M  V30 3353 O 324.476 2.12551 -3.83084 0
M  V30 3354 C 325.977 3.52301 -2.6907 0
M  V30 3355 H 323.197 0.425849 -0.51855 0
M  V30 3356 H 325.741 0.73865 -1.90694 0
M  V30 3357 H 323.896 3.20772 -2.17219 0
M  V30 3358 H 324.31 2.90744 -4.36541 0
M  V30 3359 H 325.784 4.33271 -3.42024 0
M  V30 3360 H 326.261 4.02757 -1.75167 0
M  V30 3361 H 326.867 2.96845 -3.04571 0
M  V30 3362 N 325.182 1.32811 0.848464 0
M  V30 3363 C 326.459 1.14334 1.58704 0
M  V30 3364 C 326.839 -0.293948 2.09043 0
M  V30 3365 O 326.187 -1.29153 1.88499 0
M  V30 3366 C 326.397 2.17626 2.72837 0
M  V30 3367 C 327.745 2.51282 3.42261 0
M  V30 3368 O 328.769 2.16219 2.83068 0
M  V30 3369 O 327.628 3.11413 4.49093 0
M  V30 3370 H 324.722 0.441601 0.699226 0
M  V30 3371 H 327.268 1.44362 0.892053 0
M  V30 3372 H 326.04 3.14211 2.3321 0
M  V30 3373 H 325.663 1.88628 3.50008 0
M  V30 3374 N 326.66 -1.06551 1.16123 0
M  V30 3375 C 327.61 -2.12209 0.833736 0
M  V30 3376 C 328.594 -1.59825 -0.185656 0
M  V30 3377 O 329.786 -1.76994 0.0147906 0
M  V30 3378 C 326.915 -3.41674 0.333697 0
M  V30 3379 C 326.001 -4.00892 1.38372 0
M  V30 3380 N 326.392 -4.34256 2.59337 0
M  V30 3381 C 324.69 -4.28463 1.23836 0
M  V30 3382 C 325.391 -4.81291 3.26701 0
M  V30 3383 N 324.367 -4.80565 2.54083 0
M  V30 3384 H 328.169 -2.35849 1.75364 0
M  V30 3385 H 325.683 -1.24068 1.04789 0
M  V30 3386 H 327.68 -4.16822 0.0806918 0
M  V30 3387 H 326.34 -3.19475 -0.58017 0
M  V30 3388 H 327.351 -4.24687 2.96415 0
M  V30 3389 H 324.028 -4.15721 0.38504 0
M  V30 3390 H 325.418 -5.16332 4.29943 0
M  V30 3391 N 328.138 -0.959301 -1.25041 0
M  V30 3392 C 329.048 -0.489994 -2.29426 0
M  V30 3393 C 330.064 0.444944 -1.68215 0
M  V30 3394 O 331.24 0.320046 -1.98841 0
M  V30 3395 C 328.305 0.220309 -3.45999 0
M  V30 3396 C 327.366 -0.753418 -4.22637 0
M  V30 3397 C 326.599 -0.076918 -5.33645 0
M  V30 3398 O 326.822 1.13649 -5.58963 0
M  V30 3399 O 325.756 -0.764824 -5.97021 0
M  V30 3400 H 329.582 -1.35755 -2.71669 0
M  V30 3401 H 327.167 -0.725961 -1.30576 0
M  V30 3402 H 329.049 0.619677 -4.16819 0
M  V30 3403 H 327.724 1.06296 -3.0575 0
M  V30 3404 H 326.631 -1.20308 -3.54227 0
M  V30 3405 H 327.964 -1.56423 -4.66683 0
M  V30 3406 N 329.616 1.39756 -0.72842 0
M  V30 3407 C 331.027 1.83498 -0.344289 0
M  V30 3408 C 331.378 1.60868 1.12321 0
M  V30 3409 O 330.503 1.09634 1.86573 0
M  V30 3410 C 331.098 3.33114 -0.618112 0
M  V30 3411 C 329.657 3.753 -0.287549 0
M  V30 3412 C 328.804 2.62831 -0.884048 0
M  V30 3413 H 331.755 1.28842 -0.926578 0
M  V30 3414 H 331.776 3.80334 0.112349 0
M  V30 3415 H 331.288 3.49553 -1.68625 0
M  V30 3416 H 329.389 3.64451 0.775012 0
M  V30 3417 H 329.502 4.72945 -0.765512 0
M  V30 3418 H 327.866 2.52792 -0.311149 0
M  V30 3419 H 328.649 2.82078 -1.95671 0
M  V30 3420 N 331.094 0.475555 1.50254 0
M  V30 3421 C 332.322 -0.0754493 2.06762 0
M  V30 3422 C 332.737 -1.33111 1.33891 0
M  V30 3423 O 332.094 -1.77846 0.40952 0
M  V30 3424 C 332.145 -0.359008 3.59713 0
M  V30 3425 O 331.866 0.846851 4.29837 0
M  V30 3426 C 333.367 -0.956484 4.32858 0
M  V30 3427 H 330.587 0.00907525 0.670939 0
M  V30 3428 H 333.131 0.665618 1.93364 0
M  V30 3429 H 331.286 -1.05001 3.72899 0
M  V30 3430 H 331.7 0.594162 5.21124 0
M  V30 3431 H 333.174 -1.10463 5.40834 0
M  V30 3432 H 333.651 -1.94775 3.93649 0
M  V30 3433 H 334.257 -0.303723 4.24214 0
M  V30 3434 N 332.573 -1.56217 0.208337 0
M  V30 3435 C 333.85 -1.89739 -0.475234 0
M  V30 3436 C 334.23 -1.1238 -1.78701 0
M  V30 3437 O 333.578 -0.228979 -2.2735 0
M  V30 3438 C 333.788 -3.42289 -0.681101 0
M  V30 3439 C 335.136 -4.12789 -0.994507 0
M  V30 3440 O 336.16 -3.47814 -0.768357 0
M  V30 3441 O 335.019 -5.27649 -1.42299 0
M  V30 3442 H 332.113 -0.788478 -0.249461 0
M  V30 3443 H 334.659 -1.67855 0.249538 0
M  V30 3444 H 333.431 -3.90534 0.244722 0
M  V30 3445 H 333.054 -3.69909 -1.45785 0
M  V30 3446 N 334.051 0.0651679 -1.57465 0
M  V30 3447 C 335.014 1.06117 -2.03155 0
M  V30 3448 C 336.014 1.31204 -0.929632 0
M  V30 3449 O 337.204 1.26813 -1.19432 0
M  V30 3450 C 334.336 2.4032 -2.41783 0
M  V30 3451 H 335.529 0.667231 -2.92383 0
M  V30 3452 H 333.082 0.311075 -1.53173 0
M  V30 3453 H 333.817 2.84532 -1.55601 0
M  V30 3454 H 333.602 2.23451 -3.22199 0
M  V30 3455 H 335.092 3.11898 -2.77685 0
M  V30 3456 N 335.529 1.53961 0.336706 0
M  V30 3457 C 336.945 1.44378 0.680241 0
M  V30 3458 C 337.145 0.606034 1.9217 0
M  V30 3459 O 336.201 0.099688 2.52303 0
M  V30 3460 C 337.514 2.87945 0.8665 0
M  V30 3461 C 339.062 2.97763 0.964682 0
M  V30 3462 C 339.537 4.42453 1.18321 0
M  V30 3463 N 341.028 4.46008 1.25025 0
M  V30 3464 C 341.763 5.55102 1.43697 0
M  V30 3465 N 341.259 6.7419 1.59498 0
M  V30 3466 N 343.052 5.42727 1.463 0
M  V30 3467 H 335.203 2.06918 -0.479455 0
M  V30 3468 H 337.466 0.935634 -0.152619 0
M  V30 3469 H 337.172 3.51691 0.0256937 0
M  V30 3470 H 337.046 3.33293 1.76623 0
M  V30 3471 H 339.433 2.34153 1.796 0
M  V30 3472 H 339.514 2.55766 0.041708 0
M  V30 3473 H 339.158 5.06645 0.356788 0
M  V30 3474 H 339.088 4.82048 2.11985 0
M  V30 3475 H 341.579 3.60196 1.14312 0
M  V30 3476 H 341.892 7.53095 1.734 0
M  V30 3477 H 340.237 6.77123 1.56621 0
M  V30 3478 H 343.428 4.48647 1.33543 0
M  V30 3479 H 343.601 6.27806 1.6051 0
M  V30 3480 N 337.007 -0.598083 1.45811 0
M  V30 3481 C 337.954 -1.7082 1.55207 0
M  V30 3482 C 338.924 -1.61278 0.39732 0
M  V30 3483 O 340.109 -1.80717 0.612038 0
M  V30 3484 C 337.249 -3.09144 1.53376 0
M  V30 3485 C 336.362 -3.29423 2.79472 0
M  V30 3486 C 335.497 -4.57907 2.69248 0
M  V30 3487 C 334.536 -4.71476 3.90354 0
M  V30 3488 N 333.673 -5.9127 3.78608 0
M  V30 3489 H 338.513 -1.62125 2.50039 0
M  V30 3490 H 336.05 -0.790389 1.24062 0
M  V30 3491 H 338.008 -3.89186 1.50301 0
M  V30 3492 H 336.638 -3.16773 0.620876 0
M  V30 3493 H 335.69 -2.43091 2.92594 0
M  V30 3494 H 337.002 -3.3532 3.69272 0
M  V30 3495 H 336.156 -5.46157 2.64192 0
M  V30 3496 H 334.895 -4.54423 1.77063 0
M  V30 3497 H 333.9 -3.81648 3.95759 0
M  V30 3498 H 335.125 -4.76751 4.83617 0
M  V30 3499 H 333.071 -5.88813 2.89199 0
M  V30 3500 H 332.988 -5.98369 4.6205 0
M  V30 3501 H 334.256 -6.81992 3.77501 0
M  V30 3502 N 338.485 -1.33259 -0.841409 0
M  V30 3503 C 339.71 -1.2775 -1.63385 0
M  V30 3504 C 340.135 0.149188 -1.87507 0
M  V30 3505 O 339.493 1.10498 -1.43736 0
M  V30 3506 C 339.541 -2.05571 -2.96265 0
M  V30 3507 O 338.645 -1.41257 -3.87453 0
M  V30 3508 H 337.986 -0.439627 -0.497618 0
M  V30 3509 H 340.516 -1.75782 -1.04699 0
M  V30 3510 H 340.526 -2.16241 -3.45982 0
M  V30 3511 H 339.201 -3.09309 -2.7803 0
M  V30 3512 H 337.778 -1.39217 -3.45938 0
M  V30 3513 N 339.963 1.05934 -1.16686 0
M  V30 3514 C 341.21 1.788 -0.950622 0
M  V30 3515 C 341.538 1.87384 0.521305 0
M  V30 3516 O 340.793 1.36438 1.40297 0
M  V30 3517 C 341.092 3.23105 -1.52767 0
M  V30 3518 C 340.758 3.34594 -3.02254 0
M  V30 3519 C 339.42 3.37437 -3.43059 0
M  V30 3520 C 341.772 3.36219 -3.98254 0
M  V30 3521 C 339.1 3.39525 -4.78477 0
M  V30 3522 C 341.452 3.39845 -5.33562 0
M  V30 3523 C 340.116 3.40971 -5.73842 0
M  V30 3524 H 339.386 0.654275 -0.347857 0
M  V30 3525 H 342.033 1.24555 -1.45459 0
M  V30 3526 H 340.338 3.80227 -0.94524 0
M  V30 3527 H 342.035 3.7809 -1.336 0
M  V30 3528 H 338.625 3.3309 -2.6972 0
M  V30 3529 H 342.809 3.33231 -3.67792 0
M  V30 3530 H 338.065 3.38703 -5.09009 0
M  V30 3531 H 342.239 3.4005 -6.07733 0
M  V30 3532 H 339.866 3.42342 -6.78753 0
M  V30 3533 N 341.441 0.965919 1.2453 0
M  V30 3534 C 342.852 0.665929 1.7442 0
M  V30 3535 C 343.203 -0.818407 1.78316 0
M  V30 3536 O 342.328 -1.64037 1.41141 0
M  V30 3537 C 342.923 1.20211 3.16757 0
M  V30 3538 C 341.482 0.952059 3.6416 0
M  V30 3539 C 340.629 1.33848 2.42858 0
M  V30 3540 H 343.58 1.14144 1.10258 0
M  V30 3541 H 343.601 0.567544 3.76244 0
M  V30 3542 H 343.113 2.28244 3.13889 0
M  V30 3543 H 341.214 -0.112821 3.72429 0
M  V30 3544 H 341.327 1.59645 4.51719 0
M  V30 3545 H 339.691 0.756864 2.43195 0
M  V30 3546 H 340.474 2.42827 2.42673 0
M  V30 3547 N 342.919 -1.39368 0.735821 0
M  V30 3548 C 344.159 -2.02349 0.288813 0
M  V30 3549 C 344.523 -1.57127 -1.10341 0
M  V30 3550 O 345.724 -2.12312 -1.64854 0
M  V30 3551 C 343.995 -3.55288 0.387986 0
M  V30 3552 S 345.554 -4.38795 0.0209408 0
M  V30 3553 H 342.372 -0.701944 0.113115 0
M  V30 3554 H 344.974 -1.70164 0.962518 0
M  V30 3555 H 343.678 -3.85691 1.40252 0
M  V30 3556 H 343.209 -3.92227 -0.303512 0
M  V30 3557 H 345.224 -4.81595 -1.19503 0
M  V30 3558 N 344.397 -0.483516 -1.5 0
M  V30 3559 C 345.644 0.0671597 -2.02389 0
M  V30 3560 C 345.972 1.38597 -1.36459 0
M  V30 3561 O 345.227 1.89634 -0.483458 0
M  V30 3562 C 345.526 0.286226 -3.56252 0
M  V30 3563 C 345.192 -0.952416 -4.40726 0
M  V30 3564 C 343.854 -1.29199 -4.63531 0
M  V30 3565 C 346.206 -1.77655 -4.89988 0
M  V30 3566 C 343.534 -2.45553 -5.32842 0
M  V30 3567 C 345.886 -2.93147 -5.60578 0
M  V30 3568 C 344.55 -3.27505 -5.81633 0
M  V30 3569 H 343.82 0.0245755 -0.740592 0
M  V30 3570 H 346.467 -0.640124 -1.80485 0
M  V30 3571 H 344.772 1.07587 -3.76739 0
M  V30 3572 H 346.469 0.726473 -3.94365 0
M  V30 3573 H 343.059 -0.677881 -4.23205 0
M  V30 3574 H 347.243 -1.52737 -4.72213 0
M  V30 3575 H 342.499 -2.72431 -5.47349 0
M  V30 3576 H 346.673 -3.57344 -5.97727 0
M  V30 3577 H 344.3 -4.1777 -6.35116 0
M  V30 3578 N 345.875 1.56104 -0.216619 0
M  V30 3579 C 347.152 1.89988 0.465165 0
M  V30 3580 C 347.532 1.13326 1.78102 0
M  V30 3581 O 346.88 0.241033 2.27225 0
M  V30 3582 C 347.09 3.42646 0.662939 0
M  V30 3583 C 348.438 4.13311 0.972602 0
M  V30 3584 O 349.462 3.48217 0.749901 0
M  V30 3585 O 348.321 5.28396 1.39499 0
M  V30 3586 H 345.415 0.78979 0.245276 0
M  V30 3587 H 347.961 1.67721 -0.258436 0
M  V30 3588 H 346.733 3.90399 -0.26543 0
M  V30 3589 H 346.356 3.70677 1.43821 0
M  V30 3590 N 347.353 -0.0568162 1.57498 0
M  V30 3591 C 348.263 -1.08346 2.08083 0
M  V30 3592 C 349.279 -1.41439 1.01346 0
M  V30 3593 O 350.455 -1.51316 1.32912 0
M  V30 3594 C 347.52 -2.37352 2.52715 0
M  V30 3595 C 346.581 -2.11093 3.73816 0
M  V30 3596 C 345.814 -3.33949 4.1631 0
M  V30 3597 O 346.037 -4.43622 3.58547 0
M  V30 3598 O 344.971 -3.21279 5.08983 0
M  V30 3599 H 348.797 -0.683667 2.95905 0
M  V30 3600 H 346.382 -0.271965 1.46904 0
M  V30 3601 H 348.264 -3.13246 2.81877 0
M  V30 3602 H 346.939 -2.76681 1.68016 0
M  V30 3603 H 345.846 -1.32856 3.49714 0
M  V30 3604 H 347.179 -1.76637 4.59413 0
M  V30 3605 N 348.832 -1.54138 -0.328536 0
M  V30 3606 C 350.243 -1.63395 -0.903272 0
M  V30 3607 C 350.594 -0.524828 -1.8905 0
M  V30 3608 O 349.719 0.343068 -2.13663 0
M  V30 3609 C 350.314 -2.9618 -1.64507 0
M  V30 3610 C 348.873 -3.0765 -2.1686 0
M  V30 3611 C 348.02 -2.58933 -0.992416 0
M  V30 3612 H 350.971 -1.58344 -0.106253 0
M  V30 3613 H 350.992 -2.86061 -2.50897 0
M  V30 3614 H 350.504 -3.76884 -0.926302 0
M  V30 3615 H 348.605 -2.31611 -2.91868 0
M  V30 3616 H 348.718 -4.1337 -2.42202 0
M  V30 3617 H 347.082 -2.14706 -1.37016 0
M  V30 3618 H 347.865 -3.42089 -0.288041 0
M  V30 3619 N 350.31 0.590341 -1.46126 0
M  V30 3620 C 351.258 1.72105 -1.5647 0
M  V30 3621 C 352.252 1.63756 -0.433612 0
M  V30 3622 O 353.458 1.69342 -0.610194 0
M  V30 3623 H 349.833 0.568889 -0.491802 0
M  V30 3624 H 351.804 1.6051 -2.51553 0
M  V30 3625 C 350.553 3.10493 -1.56491 0
M  V30 3626 H 349.876 3.17583 -2.4286 0
M  V30 3627 H 351.316 3.8939 -1.67785 0
M  V30 3628 C 349.775 3.3563 -0.292231 0
M  V30 3629 O 350.305 3.96875 0.620739 0
M  V30 3630 N 348.511 2.90026 -0.182523 0
M  V30 3631 H 348.058 2.40367 -0.926356 0
M  V30 3632 H 348.016 3.07218 0.668152 0
M  V30 3633 N 351.788 1.33704 0.83433 0
M  V30 3634 C 352.735 1.24335 1.94447 0
M  V30 3635 C 353.705 0.120991 1.65659 0
M  V30 3636 O 354.89 0.300035 1.88426 0
M  V30 3637 C 352.03 0.993124 3.30501 0
M  V30 3638 C 351.143 2.20217 3.71657 0
M  V30 3639 C 350.278 1.88572 4.96602 0
M  V30 3640 C 349.317 3.05683 5.30306 0
M  V30 3641 N 348.454 2.73997 6.46429 0
M  V30 3642 H 353.294 2.1928 2.01792 0
M  V30 3643 H 350.831 1.09035 0.987404 0
M  V30 3644 H 352.789 0.828467 4.08892 0
M  V30 3645 H 351.419 0.0803902 3.227 0
M  V30 3646 H 350.471 2.47642 2.88752 0
M  V30 3647 H 351.783 3.07752 3.92543 0
M  V30 3648 H 350.937 1.68776 5.82752 0
M  V30 3649 H 349.676 0.982799 4.77695 0
M  V30 3650 H 348.681 3.26088 4.42659 0
M  V30 3651 H 349.906 3.96737 5.51159 0
M  V30 3652 H 347.852 1.86268 6.28999 0
M  V30 3653 H 347.769 3.55064 6.67432 0
M  V30 3654 H 349.037 2.57679 7.35678 0
M  V30 3655 N 353.266 -1.05314 1.17247 0
M  V30 3656 C 354.213 -2.13031 0.888058 0
M  V30 3657 C 355.183 -1.65253 -0.167537 0
M  V30 3658 O 356.368 -1.90775 -0.0305974 0
M  V30 3659 C 353.508 -3.42702 0.406147 0
M  V30 3660 C 352.621 -4.04161 1.52572 0
M  V30 3661 C 351.756 -5.21744 0.997808 0
M  V30 3662 C 350.795 -5.75207 2.09291 0
M  V30 3663 N 349.932 -6.84094 1.57986 0
M  V30 3664 H 354.772 -2.36698 1.81048 0
M  V30 3665 H 352.309 -1.16121 0.903013 0
M  V30 3666 H 354.267 -4.17059 0.108305 0
M  V30 3667 H 352.897 -3.19222 -0.479313 0
M  V30 3668 H 351.949 -3.27253 1.93931 0
M  V30 3669 H 353.261 -4.39881 2.35172 0
M  V30 3670 H 352.415 -6.03168 0.653739 0
M  V30 3671 H 351.154 -4.87495 0.141232 0
M  V30 3672 H 350.159 -4.92414 2.44557 0
M  V30 3673 H 351.384 -6.11505 2.95362 0
M  V30 3674 H 349.33 -6.51745 0.74598 0
M  V30 3675 H 349.247 -7.18811 2.34195 0
M  V30 3676 H 350.515 -7.69172 1.26468 0
M  V30 3677 N 354.744 -0.972509 -1.24016 0
M  V30 3678 C 355.707 -0.511403 -2.23422 0
M  V30 3679 C 356.707 0.394679 -1.55881 0
M  V30 3680 O 357.897 0.189469 -1.73167 0
M  V30 3681 C 355.029 0.258769 -3.39916 0
M  V30 3682 H 356.222 -1.39024 -2.6573 0
M  V30 3683 H 353.775 -0.757585 -1.36713 0
M  V30 3684 H 354.51 1.1545 -3.03054 0
M  V30 3685 H 354.295 -0.391522 -3.9014 0
M  V30 3686 H 355.785 0.570244 -4.13688 0
M  V30 3687 N 356.222 1.38976 -0.743202 0
M  V30 3688 C 357.45 2.04636 -0.30525 0
M  V30 3689 C 357.865 1.56044 1.06281 0
M  V30 3690 O 357.222 0.728921 1.67311 0
M  V30 3691 C 357.273 3.60193 -0.307177 0
M  V30 3692 O 356.994 4.06998 -1.62124 0
M  V30 3693 C 358.495 4.4306 0.145928 0
M  V30 3694 H 355.715 0.65788 -0.132041 0
M  V30 3695 H 358.259 1.77866 -1.00915 0
M  V30 3696 H 356.414 3.85835 0.347898 0
M  V30 3697 H 356.828 5.01371 -1.54036 0
M  V30 3698 H 358.302 5.51921 0.0934183 0
M  V30 3699 H 358.779 4.22706 1.19231 0
M  V30 3700 H 359.385 4.22584 -0.479886 0
M  V30 3701 N 357.7 0.491464 1.49741 0
M  V30 3702 C 358.93 -0.0534375 2.06531 0
M  V30 3703 C 359.338 -1.32233 1.35318 0
M  V30 3704 O 358.681 -1.78781 0.422243 0
M  V30 3705 C 358.743 -0.387034 3.57411 0
M  V30 3706 C 358.407 0.782764 4.50246 0
M  V30 3707 C 359.404 1.67059 4.92329 0
M  V30 3708 C 357.089 0.978866 4.9267 0
M  V30 3709 C 359.083 2.73874 5.75562 0
M  V30 3710 C 356.77 2.05022 5.75682 0
M  V30 3711 C 357.768 2.92851 6.17031 0
M  V30 3712 O 357.456 3.98138 6.98385 0
M  V30 3713 H 357.188 0.0129324 0.675876 0
M  V30 3714 H 359.742 0.685238 1.93633 0
M  V30 3715 H 357.972 -1.17918 3.68283 0
M  V30 3716 H 359.661 -0.869419 3.96479 0
M  V30 3717 H 360.427 1.53086 4.60206 0
M  V30 3718 H 356.306 0.304646 4.59992 0
M  V30 3719 H 359.85 3.42458 6.07757 0
M  V30 3720 H 355.747 2.18993 6.07217 0
M  V30 3721 H 356.515 3.95374 7.16674 0
M  V30 3722 N 359.178 -1.55987 0.224894 0
M  V30 3723 C 360.406 -2.02784 -0.410665 0
M  V30 3724 C 360.821 -1.10464 -1.53112 0
M  V30 3725 O 360.178 -0.114871 -1.82138 0
M  V30 3726 C 360.229 -3.49087 -0.939165 0
M  V30 3727 O 359.95 -4.37887 0.136614 0
M  V30 3728 C 361.451 -4.11543 -1.64763 0
M  V30 3729 H 358.671 -0.663484 -0.100148 0
M  V30 3730 H 361.215 -2.01614 0.342326 0
M  V30 3731 H 359.37 -3.50861 -1.64242 0
M  V30 3732 H 359.784 -5.23849 -0.261155 0
M  V30 3733 H 361.258 -5.15673 -1.96939 0
M  V30 3734 H 361.735 -3.56736 -2.56195 0
M  V30 3735 H 362.341 -4.13629 -0.989503 0
M  V30 3736 N 360.656 0.0484629 -1.57525 0
M  V30 3737 C 361.905 0.742065 -1.87553 0
M  V30 3738 C 362.218 1.77545 -0.820802 0
M  V30 3739 O 363.424 2.52027 -1.00967 0
M  V30 3740 C 361.88 1.37081 -3.32771 0
M  V30 3741 C 361.488 0.374786 -4.4643 0
M  V30 3742 C 363.232 2.04542 -3.71972 0
M  V30 3743 C 361.139 1.01077 -5.82698 0
M  V30 3744 H 360.069 0.280903 -0.699721 0
M  V30 3745 H 362.72 -0.00411877 -1.835 0
M  V30 3746 H 361.102 2.16605 -3.31509 0
M  V30 3747 H 362.276 -0.392331 -4.59127 0
M  V30 3748 H 360.591 -0.196653 -4.15935 0
M  V30 3749 H 363.188 2.52943 -4.71088 0
M  V30 3750 H 363.531 2.85515 -3.02964 0
M  V30 3751 H 364.064 1.31819 -3.75325 0
M  V30 3752 H 360.803 0.240878 -6.55057 0
M  V30 3753 H 360.323 1.74819 -5.73758 0
M  V30 3754 H 362.002 1.52383 -6.28799 0
M  V30 3755 N 362.134 1.5431 0.320358 0
M  V30 3756 C 363.359 1.76954 1.08175 0
M  V30 3757 C 363.784 0.518193 1.80821 0
M  V30 3758 O 363.142 -0.530411 1.73368 0
M  V30 3759 C 363.19 2.96451 2.05303 0
M  V30 3760 O 362.294 2.68221 3.13259 0
M  V30 3761 H 361.635 0.586275 0.311733 0
M  V30 3762 H 364.165 2.01342 0.363676 0
M  V30 3763 H 364.175 3.23887 2.48116 0
M  V30 3764 H 362.85 3.87196 1.51829 0
M  V30 3765 H 361.427 2.51744 2.75099 0
M  V30 3766 N 363.613 -0.582584 1.46437 0
M  V30 3767 C 364.862 -1.337 1.5102 0
M  V30 3768 C 365.175 -1.94891 0.166359 0
M  V30 3769 O 366.381 -2.71351 0.0899954 0
M  V30 3770 C 364.837 -2.42315 2.66104 0
M  V30 3771 C 364.445 -1.87427 4.06909 0
M  V30 3772 C 366.189 -3.19099 2.79958 0
M  V30 3773 C 364.096 -2.93672 5.13333 0
M  V30 3774 H 363.026 -0.502619 0.562041 0
M  V30 3775 H 365.677 -0.621701 1.72647 0
M  V30 3776 H 364.059 -3.16645 2.37807 0
M  V30 3777 H 365.233 -1.19639 4.44998 0
M  V30 3778 H 363.548 -1.2331 3.97723 0
M  V30 3779 H 366.145 -3.9839 3.56636 0
M  V30 3780 H 366.488 -3.71695 1.87479 0
M  V30 3781 H 367.021 -2.51875 3.07902 0
M  V30 3782 H 363.76 -2.45962 6.07604 0
M  V30 3783 H 363.28 -3.59948 4.79789 0
M  V30 3784 H 364.959 -3.5762 5.39182 0
M  V30 3785 N 365.091 -1.34144 -0.827227 0
M  V30 3786 C 366.319 -1.29325 -1.61501 0
M  V30 3787 C 366.734 0.13354 -1.88327 0
M  V30 3788 O 366.091 1.0793 -1.47164 0
M  V30 3789 C 366.142 -2.07746 -2.95844 0
M  V30 3790 O 365.863 -3.4486 -2.70191 0
M  V30 3791 C 367.364 -2.10273 -3.90256 0
M  V30 3792 H 364.584 -0.445069 -0.50215 0
M  V30 3793 H 367.128 -1.76693 -1.02955 0
M  V30 3794 H 365.283 -1.6403 -3.5096 0
M  V30 3795 H 365.697 -3.85345 -3.55822 0
M  V30 3796 H 367.171 -2.69575 -4.81698 0
M  V30 3797 H 367.648 -1.096 -4.25305 0
M  V30 3798 H 368.254 -2.54059 -3.41078 0
M  V30 3799 N 366.569 1.04691 -1.17803 0
M  V30 3800 C 367.519 2.10856 -0.867391 0
M  V30 3801 C 368.503 1.601 0.160206 0
M  V30 3802 O 369.695 1.76948 -0.042947 0
M  V30 3803 C 366.824 3.411 -0.388012 0
M  V30 3804 C 365.91 3.9864 -1.44732 0
M  V30 3805 N 366.301 4.30075 -2.66212 0
M  V30 3806 C 364.599 4.26439 -1.30637 0
M  V30 3807 C 365.3 4.76033 -3.34317 0
M  V30 3808 N 364.276 4.76462 -2.61696 0
M  V30 3809 H 368.078 2.33029 -1.79094 0
M  V30 3810 H 365.592 1.22386 -1.0675 0
M  V30 3811 H 367.589 4.16641 -0.146994 0
M  V30 3812 H 366.249 3.20357 0.529271 0
M  V30 3813 H 367.26 4.19917 -3.03134 0
M  V30 3814 H 363.937 4.15056 -0.451129 0
M  V30 3815 H 365.327 5.09427 -4.38103 0
M  V30 3816 N 368.047 0.979072 1.23499 0
M  V30 3817 C 369.458 0.684391 1.73704 0
M  V30 3818 C 369.809 -0.799448 1.79174 0
M  V30 3819 O 368.934 -1.62531 1.42873 0
M  V30 3820 C 369.529 1.23564 3.15464 0
M  V30 3821 C 368.088 0.99063 3.6313 0
M  V30 3822 C 367.235 1.36416 2.41425 0
M  V30 3823 H 370.186 1.15307 1.09041 0
M  V30 3824 H 370.207 0.607417 3.7562 0
M  V30 3825 H 369.719 2.31561 3.1145 0
M  V30 3826 H 367.82 -0.0733136 3.72528 0
M  V30 3827 H 367.933 1.64427 4.5 0
M  V30 3828 H 366.297 0.782616 2.42378 0
M  V30 3829 H 367.08 2.45387 2.40083 0
M  V30 3830 N 369.525 -1.3858 0.750561 0
M  V30 3831 C 370.472 -2.30483 0.120835 0
M  V30 3832 C 371.442 -1.50022 -0.712923 0
M  V30 3833 O 372.627 -1.78662 -0.669676 0
M  V30 3834 C 369.767 -3.36431 -0.768666 0
M  V30 3835 C 368.88 -4.31927 0.0793922 0
M  V30 3836 C 368.015 -5.24944 -0.81283 0
M  V30 3837 C 367.054 -6.12088 0.0390447 0
M  V30 3838 N 366.191 -6.97412 -0.809969 0
M  V30 3839 H 371.031 -2.83761 0.91015 0
M  V30 3840 H 368.568 -1.39707 0.460463 0
M  V30 3841 H 370.526 -3.96462 -1.29898 0
M  V30 3842 H 369.156 -2.8457 -1.5238 0
M  V30 3843 H 368.208 -3.73382 0.727303 0
M  V30 3844 H 369.52 -4.93319 0.737401 0
M  V30 3845 H 368.674 -5.90078 -1.41042 0
M  V30 3846 H 367.413 -4.63911 -1.50458 0
M  V30 3847 H 366.418 -5.45952 0.649328 0
M  V30 3848 H 367.643 -6.75189 0.727809 0
M  V30 3849 H 365.589 -6.38931 -1.48672 0
M  V30 3850 H 365.506 -7.55712 -0.208789 0
M  V30 3851 H 366.774 -7.66959 -1.39263 0
M  V30 3852 N 371.003 -0.499398 -1.49478 0
M  V30 3853 C 371.913 0.284489 -2.32869 0
M  V30 3854 C 372.929 0.968885 -1.44529 0
M  V30 3855 O 374.105 0.95062 -1.77553 0
M  V30 3856 C 371.17 1.33594 -3.19928 0
M  V30 3857 C 370.231 0.665149 -4.24116 0
M  V30 3858 C 369.464 1.6665 -5.07014 0
M  V30 3859 O 369.687 2.89618 -4.91404 0
M  V30 3860 O 368.621 1.22271 -5.8935 0
M  V30 3861 H 372.447 -0.39802 -3.01081 0
M  V30 3862 H 370.032 -0.260758 -1.47107 0
M  V30 3863 H 371.914 1.94431 -3.73864 0
M  V30 3864 H 370.589 2.0014 -2.54412 0
M  V30 3865 H 369.496 0.0170769 -3.74096 0
M  V30 3866 H 370.829 0.0421555 -4.92182 0
M  V30 3867 N 372.481 1.55866 -0.233164 0
M  V30 3868 C 373.711 2.02704 0.399325 0
M  V30 3869 C 374.119 1.11204 1.53069 0
M  V30 3870 O 373.462 0.116182 1.83332 0
M  V30 3871 C 373.524 3.45844 0.981429 0
M  V30 3872 C 373.188 4.56997 -0.0159561 0
M  V30 3873 C 374.185 5.13384 -0.820552 0
M  V30 3874 C 371.87 5.0211 -0.138072 0
M  V30 3875 C 373.864 6.13365 -1.73386 0
M  V30 3876 C 371.551 6.01926 -1.0549 0
M  V30 3877 C 372.549 6.57431 -1.85132 0
M  V30 3878 O 372.237 7.55302 -2.75272 0
M  V30 3879 H 371.969 0.668459 0.100692 0
M  V30 3880 H 374.523 2.02387 -0.35052 0
M  V30 3881 H 372.753 3.43267 1.78058 0
M  V30 3882 H 374.442 3.76262 1.52255 0
M  V30 3883 H 375.208 4.79372 -0.736721 0
M  V30 3884 H 371.087 4.5858 0.471737 0
M  V30 3885 H 374.631 6.56614 -2.35592 0
M  V30 3886 H 370.528 6.35359 -1.1397 0
M  V30 3887 H 371.296 7.72867 -2.69477 0
M  V30 3888 N 373.959 -0.0401083 1.57549 0
M  V30 3889 C 375.207 -0.731677 1.8839 0
M  V30 3890 C 375.528 -1.76481 0.829425 0
M  V30 3891 O 374.798 -1.95411 -0.1383 0
M  V30 3892 H 373.378 -0.273225 0.695239 0
M  V30 3893 H 376.04 -0.00867725 1.94898 0
M  V30 3894 H 375.136 -1.22816 2.86919 0
M  V30 3895 N 375.437 -1.54477 -0.31217 0
M  V30 3896 C 376.4 -1.83923 -1.36766 0
M  V30 3897 C 377.4 -0.711563 -1.44199 0
M  V30 3898 O 378.59 -0.979866 -1.44029 0
M  V30 3899 C 375.722 -2.0095 -2.75376 0
M  V30 3900 H 376.915 -2.78239 -1.11906 0
M  V30 3901 H 374.468 -1.46369 -0.548257 0
M  V30 3902 H 375.203 -1.08883 -3.05475 0
M  V30 3903 H 374.988 -2.83018 -2.71373 0
M  V30 3904 H 376.478 -2.2514 -3.51713 0
M  V30 3905 N 376.915 0.57481 -1.46744 0
M  V30 3906 C 377.845 1.69337 -1.60771 0
M  V30 3907 C 378.826 1.63825 -0.457736 0
M  V30 3908 O 380.011 1.8172 -0.684947 0
M  V30 3909 C 377.141 3.0798 -1.60517 0
M  V30 3910 C 376.095 3.28327 -2.74564 0
M  V30 3911 C 375.421 4.67578 -2.59373 0
M  V30 3912 C 376.721 3.15398 -4.16319 0
M  V30 3913 H 378.415 1.57853 -2.54407 0
M  V30 3914 H 375.961 0.75799 -1.22436 0
M  V30 3915 H 377.914 3.86061 -1.68923 0
M  V30 3916 H 376.638 3.20381 -0.634305 0
M  V30 3917 H 375.297 2.52649 -2.65639 0
M  V30 3918 H 374.945 4.76755 -1.60353 0
M  V30 3919 H 374.645 4.82144 -3.35873 0
M  V30 3920 H 376.169 5.47817 -2.69682 0
M  V30 3921 H 377.583 3.83315 -4.26313 0
M  V30 3922 H 375.98 3.41482 -4.93468 0
M  V30 3923 H 377.05 2.12372 -4.3592 0
M  V30 3924 N 378.394 1.34581 0.820102 0
M  V30 3925 C 379.619 1.30333 1.61332 0
M  V30 3926 C 380.044 -0.119339 1.87721 0
M  V30 3927 O 379.402 -1.08197 1.45475 0
M  V30 3928 C 379.45 2.10258 2.92957 0
M  V30 3929 O 378.554 1.47404 3.85157 0
M  V30 3930 H 377.895 0.447488 0.490561 0
M  V30 3931 H 380.425 1.77425 1.01889 0
M  V30 3932 H 380.435 2.21718 3.42498 0
M  V30 3933 H 379.11 3.13693 2.73074 0
M  V30 3934 H 377.687 1.44703 3.43679 0
M  V30 3935 N 379.872 -1.04064 1.18357 0
M  V30 3936 C 380.82 -2.14187 0.907007 0
M  V30 3937 C 381.814 -1.68879 -0.132725 0
M  V30 3938 O 383.02 -1.79993 0.0154248 0
M  V30 3939 H 379.395 -0.699585 0.275835 0
M  V30 3940 H 381.366 -2.34711 1.84264 0
M  V30 3941 C 380.115 -3.44785 0.449254 0
M  V30 3942 H 379.438 -3.80058 1.24081 0
M  V30 3943 H 380.878 -4.22974 0.294737 0
M  V30 3944 C 379.337 -3.26391 -0.834909 0
M  V30 3945 O 379.867 -3.53973 -1.89911 0
M  V30 3946 N 378.073 -2.79726 -0.787523 0
M  V30 3947 H 377.62 -2.5748 0.0787347 0
M  V30 3948 H 377.578 -2.67798 -1.64716 0
M  V30 3949 N 381.35 -0.985608 -1.22978 0
M  V30 3950 C 382.283 -0.47487 -2.23204 0
M  V30 3951 C 383.261 0.460865 -1.55932 0
M  V30 3952 O 384.445 0.388105 -1.84461 0
M  V30 3953 C 381.572 0.312427 -3.37256 0
M  V30 3954 C 380.618 -0.568219 -4.22698 0
M  V30 3955 S 381.451 -2.01919 -4.95973 0
M  V30 3956 C 382.607 -1.24118 -6.1347 0
M  V30 3957 H 382.84 -1.32419 -2.66181 0
M  V30 3958 H 380.373 -0.792005 -1.32539 0
M  V30 3959 H 382.331 0.760645 -4.03391 0
M  V30 3960 H 380.992 1.13693 -2.92801 0
M  V30 3961 H 380.185 0.0371657 -5.03986 0
M  V30 3962 H 379.787 -0.952897 -3.61657 0
M  V30 3963 H 382.079 -0.505121 -6.75614 0
M  V30 3964 H 383.022 -2.02907 -6.78406 0
M  V30 3965 H 383.43 -0.757669 -5.59392 0
M  V30 3966 N 382.828 1.3818 -0.7579 0
M  V30 3967 C 384.239 1.82726 -0.383134 0
M  V30 3968 C 384.59 1.63214 1.08884 0
M  V30 3969 O 383.715 1.13566 1.84205 0
M  V30 3970 C 384.31 3.31728 -0.688631 0
M  V30 3971 C 382.869 3.74606 -0.367091 0
M  V30 3972 C 382.016 2.60896 -0.939599 0
M  V30 3973 H 384.967 1.26847 -0.953699 0
M  V30 3974 H 384.988 3.80487 0.0316492 0
M  V30 3975 H 384.5 3.45898 -1.76001 0
M  V30 3976 H 382.601 3.66013 0.697532 0
M  V30 3977 H 382.714 4.71215 -0.865658 0
M  V30 3978 H 381.078 2.52075 -0.3647 0
M  V30 3979 H 381.861 2.77864 -2.0161 0
M  V30 3980 N 384.306 0.507319 1.49211 0
M  V30 3981 C 385.552 -0.0350047 2.0277 0
M  V30 3982 C 385.885 -1.3606 1.38569 0
M  V30 3983 O 385.16 -1.87321 0.523542 0
M  V30 3984 C 385.443 -0.180916 3.59645 0
M  V30 3985 C 385.296 1.16825 4.34364 0
M  V30 3986 C 386.615 -0.918558 4.30407 0
M  V30 3987 H 383.734 -0.0112473 0.736914 0
M  V30 3988 H 386.376 0.659956 1.7817 0
M  V30 3989 H 384.526 -0.772826 3.80736 0
M  V30 3990 H 386.198 1.79952 4.24753 0
M  V30 3991 H 384.441 1.75594 3.96673 0
M  V30 3992 H 385.112 1.01939 5.42506 0
M  V30 3993 H 387.588 -0.41649 4.1401 0
M  V30 3994 H 386.464 -0.989505 5.39907 0
M  V30 3995 H 386.725 -1.96373 3.96093 0
M  V30 3996 N 385.784 -1.5574 0.241426 0
M  V30 3997 C 386.747 -2.19877 -0.647063 0
M  V30 3998 C 387.747 -1.16642 -1.10686 0
M  V30 3999 O 388.937 -1.41757 -1.01245 0
M  V30 4000 C 386.069 -2.83797 -1.88871 0
M  V30 4001 H 387.262 -2.99772 -0.087574 0
M  V30 4002 H 384.815 -1.56298 -0.00813574 0
M  V30 4003 H 385.55 -2.07824 -2.48957 0
M  V30 4004 H 385.335 -3.59414 -1.56728 0
M  V30 4005 H 386.825 -3.32898 -2.52129 0
M  V30 4006 N 387.262 0.0317525 -1.57568 0
M  V30 4007 C 388.209 1.0332 -2.06382 0
M  V30 4008 C 389.179 1.36082 -0.952414 0
M  V30 4009 O 390.364 1.46466 -1.2228 0
M  V30 4010 C 387.504 2.32989 -2.54578 0
M  V30 4011 C 386.617 2.0641 -3.79498 0
M  V30 4012 C 385.752 3.2993 -4.16317 0
M  V30 4013 C 384.791 2.98893 -5.34162 0
M  V30 4014 N 383.928 4.14857 -5.66426 0
M  V30 4015 H 388.768 0.609982 -2.9169 0
M  V30 4016 H 386.305 0.289573 -1.44222 0
M  V30 4017 H 388.263 3.0875 -2.80587 0
M  V30 4018 H 386.893 2.73039 -1.7219 0
M  V30 4019 H 385.945 1.21158 -3.6059 0
M  V30 4020 H 387.257 1.79513 -4.65378 0
M  V30 4021 H 386.411 4.1406 -4.4344 0
M  V30 4022 H 385.15 3.59938 -3.29083 0
M  V30 4023 H 384.155 2.13164 -5.06795 0
M  V30 4024 H 385.38 2.70165 -6.23047 0
M  V30 4025 H 383.326 4.44821 -4.82151 0
M  V30 4026 H 383.243 3.91374 -6.4681 0
M  V30 4027 H 384.511 4.99868 -5.98124 0
M  V30 4028 N 388.74 1.54641 0.303973 0
M  V30 4029 C 389.65 1.88439 1.39743 0
M  V30 4030 C 390.666 0.778239 1.55626 0
M  V30 4031 O 391.842 1.07442 1.70347 0
M  V30 4032 C 388.907 2.12212 2.74166 0
M  V30 4033 C 387.968 3.35936 2.67293 0
M  V30 4034 C 387.201 3.58566 3.95305 0
M  V30 4035 O 387.424 2.84263 4.9452 0
M  V30 4036 O 386.358 4.52078 3.97378 0
M  V30 4037 H 390.184 2.81458 1.14083 0
M  V30 4038 H 387.769 1.40793 0.499768 0
M  V30 4039 H 389.651 2.29067 3.53704 0
M  V30 4040 H 388.326 1.22379 2.99675 0
M  V30 4041 H 387.233 3.24448 1.86237 0
M  V30 4042 H 388.566 4.2589 2.46736 0
M  V30 4043 N 390.218 -0.567019 1.47046 0
M  V30 4044 C 391.128 -1.70247 1.6141 0
M  V30 4045 C 392.144 -1.66746 0.497157 0
M  V30 4046 O 393.32 -1.86371 0.763389 0
M  V30 4047 C 390.385 -3.06756 1.61561 0
M  V30 4048 C 389.446 -3.21399 2.84607 0
M  V30 4049 C 388.679 -4.51396 2.84741 0
M  V30 4050 O 388.902 -5.36255 1.94388 0
M  V30 4051 O 387.836 -4.69621 3.76483 0
M  V30 4052 H 391.662 -1.61073 2.57467 0
M  V30 4053 H 389.247 -0.735894 1.30019 0
M  V30 4054 H 391.129 -3.8801 1.64396 0
M  V30 4055 H 389.804 -3.16333 0.686684 0
M  V30 4056 H 388.711 -2.39579 2.8732 0
M  V30 4057 H 390.044 -3.16721 3.76761 0
M  V30 4058 N 391.696 -1.35014 -0.812953 0
M  V30 4059 C 392.921 -1.31187 -1.60639 0
M  V30 4060 C 393.346 0.109382 -1.87782 0
M  V30 4061 O 392.704 1.07424 -1.46047 0
M  V30 4062 C 392.752 -2.11809 -2.91838 0
M  V30 4063 O 391.856 -1.49444 -3.8437 0
M  V30 4064 H 391.197 -0.450084 -0.488181 0
M  V30 4065 H 393.727 -1.77963 -1.00947 0
M  V30 4066 H 393.737 -2.23531 -3.41318 0
M  V30 4067 H 392.412 -3.15137 -2.71407 0
M  V30 4068 H 390.989 -1.46524 -3.42907 0
M  V30 4069 N 393.175 1.03435 -1.18907 0
M  V30 4070 C 394.421 1.77005 -0.989798 0
M  V30 4071 C 394.754 1.88205 0.478816 0
M  V30 4072 O 394.029 1.39481 1.35556 0
M  V30 4073 C 394.312 3.19925 -1.65287 0
M  V30 4074 C 394.165 3.1663 -3.19477 0
M  V30 4075 C 395.484 4.18189 -1.37134 0
M  V30 4076 H 392.603 0.642538 -0.360991 0
M  V30 4077 H 395.245 1.20784 -1.46667 0
M  V30 4078 H 393.395 3.67929 -1.24741 0
M  V30 4079 H 395.067 2.76567 -3.692 0
M  V30 4080 H 393.31 2.54491 -3.51307 0
M  V30 4081 H 393.981 4.1758 -3.61013 0
M  V30 4082 H 396.457 3.78761 -1.72276 0
M  V30 4083 H 395.333 5.16394 -1.86087 0
M  V30 4084 H 395.594 4.41112 -0.295424 0
M  V30 4085 N 394.653 0.992116 1.22453 0
M  V30 4086 C 395.93 0.583508 1.86694 0
M  V30 4087 C 396.31 -0.9392 1.89056 0
M  V30 4088 O 395.658 -1.82081 1.38053 0
M  V30 4089 C 395.868 1.20304 3.2761 0
M  V30 4090 C 397.216 1.30308 4.0411 0
M  V30 4091 O 398.24 1.15737 3.36873 0
M  V30 4092 O 397.099 1.53615 5.24466 0
M  V30 4093 H 394.193 0.198129 0.802916 0
M  V30 4094 H 396.739 1.08794 1.30238 0
M  V30 4095 H 395.511 2.24461 3.2052 0
M  V30 4096 H 395.134 0.684144 3.9167 0
M  V30 4097 N 396.131 -1.37776 0.765217 0
M  V30 4098 C 397.408 -1.93975 0.251596 0
M  V30 4099 C 397.788 -1.69949 -1.25222 0
M  V30 4100 O 397.136 -1.04457 -2.03226 0
M  V30 4101 C 397.346 -3.43487 0.617895 0
M  V30 4102 C 398.694 -4.20564 0.584029 0
M  V30 4103 O 399.718 -3.5182 0.556888 0
M  V30 4104 O 398.577 -5.43138 0.605291 0
M  V30 4105 H 395.671 -0.82509 0.0561806 0
M  V30 4106 H 398.217 -1.47101 0.846128 0
M  V30 4107 H 396.989 -3.5453 1.65602 0
M  V30 4108 H 396.612 -3.976 -0.00403411 0
M  V30 4109 N 397.609 -0.515225 -1.4894 0
M  V30 4110 C 398.556 0.255567 -2.29381 0
M  V30 4111 C 399.526 0.947387 -1.36432 0
M  V30 4112 O 400.711 0.951288 -1.65394 0
M  V30 4113 C 397.851 1.30551 -3.19453 0
M  V30 4114 C 396.964 0.624029 -4.27469 0
M  V30 4115 C 396.099 1.65563 -5.0474 0
M  V30 4116 C 395.138 0.956802 -6.04576 0
M  V30 4117 N 394.275 1.93326 -6.74959 0
M  V30 4118 H 399.115 -0.436607 -2.94784 0
M  V30 4119 H 396.652 -0.227154 -1.45336 0
M  V30 4120 H 398.61 1.92639 -3.70062 0
M  V30 4121 H 397.24 1.96626 -2.56004 0
M  V30 4122 H 396.292 -0.110459 -3.8024 0
M  V30 4123 H 397.604 0.0746092 -4.98744 0
M  V30 4124 H 396.758 2.35119 -5.59289 0
M  V30 4125 H 395.497 2.23893 -4.3327 0
M  V30 4126 H 394.502 0.247097 -5.49244 0
M  V30 4127 H 395.727 0.379814 -6.78037 0
M  V30 4128 H 393.673 2.50591 -6.06251 0
M  V30 4129 H 393.59 1.43489 -7.42258 0
M  V30 4130 H 394.858 2.62126 -7.34105 0
M  V30 4131 N 399.087 1.5561 -0.249682 0
M  V30 4132 C 400.333 2.00044 0.367952 0
M  V30 4133 C 400.688 1.1349 1.55363 0
M  V30 4134 O 399.981 0.191079 1.90645 0
M  V30 4135 C 400.175 3.4775 0.824887 0
M  V30 4136 C 400.004 4.48596 -0.314973 0
M  V30 4137 C 398.774 4.99077 -0.790555 0
M  V30 4138 C 400.972 5.0144 -1.14291 0
M  V30 4139 N 398.954 5.83675 -1.90254 0
M  V30 4140 C 400.325 5.83236 -2.10322 0
M  V30 4141 C 402.38 4.83736 -1.17916 0
M  V30 4142 C 401.083 6.49217 -3.09692 0
M  V30 4143 C 403.109 5.50497 -2.16117 0
M  V30 4144 C 402.471 6.32084 -3.10884 0
M  V30 4145 H 398.57 0.775512 0.100522 0
M  V30 4146 H 401.154 1.91193 -0.367896 0
M  V30 4147 H 399.325 3.56994 1.53002 0
M  V30 4148 H 401.057 3.79056 1.4177 0
M  V30 4149 H 397.812 4.72119 -0.374218 0
M  V30 4150 H 398.236 6.30671 -2.46137 0
M  V30 4151 H 402.878 4.20286 -0.460352 0
M  V30 4152 H 400.596 7.11832 -3.8252 0
M  V30 4153 H 404.182 5.38752 -2.19631 0
M  V30 4154 H 403.062 6.82832 -3.8563 0
M  V30 4155 N 400.565 -0.0233959 1.57583 0
M  V30 4156 C 401.793 -0.724682 1.93794 0
M  V30 4157 C 402.208 -1.68588 0.849912 0
M  V30 4158 O 401.565 -1.81676 -0.173204 0
M  V30 4159 C 401.616 -1.47684 3.29957 0
M  V30 4160 O 401.337 -0.554222 4.3458 0
M  V30 4161 C 402.838 -2.27477 3.80485 0
M  V30 4162 H 400.058 -0.203317 0.639455 0
M  V30 4163 H 402.602 0.0207653 2.04489 0
M  V30 4164 H 400.757 -2.17412 3.20641 0
M  V30 4165 H 401.171 -1.08232 5.13212 0
M  V30 4166 H 402.645 -2.7564 4.78254 0
M  V30 4167 H 403.122 -3.09144 3.11972 0
M  V30 4168 H 403.728 -1.62813 3.92902 0
M  V30 4169 N 402.043 -1.548 -0.295768 0
M  V30 4170 C 403.459 -1.4613 -0.641722 0
M  V30 4171 C 403.659 -0.656771 -1.90496 0
M  V30 4172 O 402.715 -0.166547 -2.5195 0
M  V30 4173 C 404.028 -2.90141 -0.789852 0
M  V30 4174 C 405.576 -3.00216 -0.885396 0
M  V30 4175 C 406.051 -4.45434 -1.06548 0
M  V30 4176 N 407.542 -4.49166 -1.13156 0
M  V30 4177 C 408.277 -5.58717 -1.28929 0
M  V30 4178 N 407.773 -6.78182 -1.41567 0
M  V30 4179 N 409.566 -5.46415 -1.31859 0
M  V30 4180 H 401.717 -2.05574 0.534147 0
M  V30 4181 H 403.98 -0.931259 0.177372 0
M  V30 4182 H 403.686 -3.51635 0.0675598 0
M  V30 4183 H 403.56 -3.37859 -1.67724 0
M  V30 4184 H 405.947 -2.38833 -1.73329 0
M  V30 4185 H 406.028 -2.55787 0.0261185 0
M  V30 4186 H 405.672 -5.07413 -0.222335 0
M  V30 4187 H 405.602 -4.87499 -1.9913 0
M  V30 4188 H 408.093 -3.631 -1.04721 0
M  V30 4189 H 408.406 -7.57428 -1.53372 0
M  V30 4190 H 406.751 -6.81037 -1.38613 0
M  V30 4191 H 409.942 -4.5203 -1.21601 0
M  V30 4192 H 410.115 -6.31841 -1.43808 0
M  V30 4193 N 403.521 0.559213 -1.47345 0
M  V30 4194 C 404.749 1.34194 -1.57479 0
M  V30 4195 C 405.164 1.87463 -0.224261 0
M  V30 4196 O 404.521 1.64888 0.782185 0
M  V30 4197 C 404.572 2.51324 -2.59843 0
M  V30 4198 O 404.293 2.00256 -3.89653 0
M  V30 4199 C 405.794 3.43563 -2.80142 0
M  V30 4200 H 403.014 0.409136 -0.531835 0
M  V30 4201 H 405.558 0.677609 -1.92947 0
M  V30 4202 H 403.713 3.13699 -2.27314 0
M  V30 4203 H 404.127 2.76708 -4.4557 0
M  V30 4204 H 405.601 4.2217 -3.55635 0
M  V30 4205 H 406.078 3.9698 -1.87892 0
M  V30 4206 H 406.684 2.87005 -3.1386 0
M  V30 4207 N 404.999 1.35443 0.805782 0
M  V30 4208 C 406.227 1.31878 1.59423 0
M  V30 4209 C 406.642 -0.103562 1.88516 0
M  V30 4210 O 405.999 -1.05575 1.48863 0
M  V30 4211 C 406.05 2.12426 2.92502 0
M  V30 4212 O 405.771 3.49115 2.6467 0
M  V30 4213 C 407.272 2.16455 3.86862 0
M  V30 4214 H 404.492 0.453002 0.495005 0
M  V30 4215 H 407.036 1.78309 1.00131 0
M  V30 4216 H 405.191 1.69593 3.48306 0
M  V30 4217 H 405.605 3.90957 3.49647 0
M  V30 4218 H 407.079 2.77204 4.77349 0
M  V30 4219 H 407.556 1.16352 4.23508 0
M  V30 4220 H 408.162 2.59453 3.36993 0
M  V30 4221 N 406.477 -1.02803 1.19454 0
M  V30 4222 C 407.724 -1.76217 0.997693 0
M  V30 4223 C 408.052 -1.887 -0.47144 0
M  V30 4224 O 407.307 -1.4011 -1.3663 0
M  V30 4225 C 407.606 -3.18941 1.6128 0
M  V30 4226 C 407.272 -3.26463 3.11019 0
M  V30 4227 C 405.934 -3.28223 3.51885 0
M  V30 4228 C 408.286 -3.25542 4.07028 0
M  V30 4229 C 405.614 -3.26719 4.8731 0
M  V30 4230 C 407.966 -3.25579 5.42385 0
M  V30 4231 C 406.63 -3.25637 5.82681 0
M  V30 4232 H 405.9 -0.644823 0.365082 0
M  V30 4233 H 408.547 -1.20655 1.4871 0
M  V30 4234 H 406.852 -3.77587 1.04572 0
M  V30 4235 H 408.549 -3.74415 1.43577 0
M  V30 4236 H 405.139 -3.25822 2.78457 0
M  V30 4237 H 409.323 -3.23362 3.76498 0
M  V30 4238 H 404.579 -3.25089 5.1781 0
M  V30 4239 H 408.753 -3.23817 6.16535 0
M  V30 4240 H 406.38 -3.24226 6.87591 0
M  V30 4241 N 407.956 -0.998596 -1.21925 0
M  V30 4242 C 408.866 -0.562736 -2.27751 0
M  V30 4243 C 409.882 0.391203 -1.69545 0
M  V30 4244 O 411.058 0.256625 -1.99758 0
M  V30 4245 C 408.123 0.11012 -3.46525 0
M  V30 4246 C 407.184 -0.887495 -4.20026 0
M  V30 4247 C 406.417 -0.246654 -5.3313 0
M  V30 4248 O 406.64 0.958088 -5.62296 0
M  V30 4249 O 405.574 -0.954374 -5.94286 0
M  V30 4250 H 409.4 -1.44329 -2.67213 0
M  V30 4251 H 406.985 -0.767135 -1.28201 0
M  V30 4252 H 408.867 0.486756 -4.18579 0
M  V30 4253 H 407.542 0.965154 -3.08976 0
M  V30 4254 H 406.449 -1.31517 -3.5022 0
M  V30 4255 H 407.782 -1.71191 -4.6147 0
M  V30 4256 N 409.434 1.37368 -0.772513 0
M  V30 4257 C 410.381 2.30262 -0.157488 0
M  V30 4258 C 411.351 1.51137 0.688965 0
M  V30 4259 O 412.536 1.79704 0.641168 0
M  V30 4260 C 409.676 3.37611 0.715045 0
M  V30 4261 C 408.789 4.31746 -0.148098 0
M  V30 4262 C 407.924 5.26171 0.729213 0
M  V30 4263 C 406.963 6.11948 -0.136418 0
M  V30 4264 N 406.1 6.98613 0.698914 0
M  V30 4265 H 410.94 2.82277 -0.955179 0
M  V30 4266 H 408.477 1.38957 -0.482631 0
M  V30 4267 H 410.435 3.98479 1.23575 0
M  V30 4268 H 409.065 2.86959 1.47833 0
M  V30 4269 H 408.117 3.72178 -0.786613 0
M  V30 4270 H 409.429 4.92084 -0.81579 0
M  V30 4271 H 408.583 5.92247 1.31637 0
M  V30 4272 H 407.322 4.66246 1.43059 0
M  V30 4273 H 406.327 5.4485 -0.736102 0
M  V30 4274 H 407.552 6.73945 -0.835134 0
M  V30 4275 H 405.498 6.41215 1.38489 0
M  V30 4276 H 405.415 7.55948 0.0885358 0
M  V30 4277 H 406.683 7.69077 1.27044 0
M  V30 4278 N 410.912 0.523116 1.48665 0
M  V30 4279 C 412.137 -0.0117284 2.07397 0
M  V30 4280 C 412.562 -1.28031 1.37803 0
M  V30 4281 O 411.92 -1.75836 0.441762 0
M  V30 4282 C 411.968 -0.225786 3.59892 0
M  V30 4283 O 411.072 -1.29592 3.91509 0
M  V30 4284 H 410.413 0.0360673 0.66302 0
M  V30 4285 H 412.943 0.729066 1.9117 0
M  V30 4286 H 412.953 -0.450552 4.05505 0
M  V30 4287 H 411.628 0.700944 4.09951 0
M  V30 4288 H 410.205 -1.05436 3.57684 0
M  V30 4289 N 412.39 -1.55475 0.257931 0
M  V30 4290 C 413.636 -1.99502 -0.364266 0
M  V30 4291 C 413.969 -1.146 -1.56782 0
M  V30 4292 O 413.244 -0.211968 -1.93342 0
M  V30 4293 C 413.527 -3.51917 -0.763333 0
M  V30 4294 C 413.38 -4.4758 0.446371 0
M  V30 4295 C 414.699 -4.09742 -1.60623 0
M  V30 4296 H 411.818 -0.725277 -0.130929 0
M  V30 4297 H 414.46 -1.8653 0.361446 0
M  V30 4298 H 412.61 -3.63101 -1.38166 0
M  V30 4299 H 414.282 -4.48362 1.08487 0
M  V30 4300 H 412.525 -4.19947 1.08753 0
M  V30 4301 H 413.196 -5.51862 0.123645 0
M  V30 4302 H 415.672 -4.01727 -1.08418 0
M  V30 4303 H 414.548 -5.16631 -1.85429 0
M  V30 4304 H 414.809 -3.58889 -2.58169 0
M  V30 4305 N 413.868 0.0150385 -1.57593 0
M  V30 4306 C 415.279 0.559832 -1.78109 0
M  V30 4307 C 415.63 1.74814 -0.890756 0
M  V30 4308 O 414.755 2.16216 -0.0892482 0
M  V30 4309 C 415.35 1.02238 -3.23006 0
M  V30 4310 C 413.909 1.51258 -3.44671 0
M  V30 4311 C 413.056 0.456955 -2.73509 0
M  V30 4312 H 416.007 -0.211169 -1.57289 0
M  V30 4313 H 416.028 1.88912 -3.30292 0
M  V30 4314 H 415.54 0.157302 -3.87781 0
M  V30 4315 H 413.641 2.39905 -2.8509 0
M  V30 4316 H 413.754 1.55042 -4.5332 0
M  V30 4317 H 412.118 0.915196 -2.37689 0
M  V30 4318 H 412.901 -0.398896 -3.40975 0
M  V30 4319 N 415.346 1.54954 0.287554 0
M  V30 4320 C 416.279 1.81737 1.3801 0
M  V30 4321 C 417.257 0.669412 1.48181 0
M  V30 4322 O 418.441 0.910839 1.65033 0
M  V30 4323 C 415.568 1.96606 2.75796 0
M  V30 4324 C 414.614 3.19098 2.82982 0
M  V30 4325 S 415.447 4.7683 2.43707 0
M  V30 4326 C 416.603 4.94653 3.83496 0
M  V30 4327 H 416.836 2.74122 1.15085 0
M  V30 4328 H 414.369 1.46538 0.486403 0
M  V30 4329 H 416.327 2.05858 3.55152 0
M  V30 4330 H 414.988 1.05136 2.95982 0
M  V30 4331 H 414.181 3.26344 3.84077 0
M  V30 4332 H 413.783 3.08361 2.11635 0
M  V30 4333 H 416.075 4.79502 4.78628 0
M  V30 4334 H 417.018 5.96728 3.8121 0
M  V30 4335 H 417.426 4.2272 3.74123 0
M  V30 4336 N 416.824 -0.551391 1.4764 0
M  V30 4337 C 418.049 -1.33837 1.58437 0
M  V30 4338 C 418.474 -1.866 0.237063 0
M  V30 4339 O 417.832 -1.6328 -0.787994 0
M  V30 4340 C 417.88 -2.48014 2.61766 0
M  V30 4341 O 416.984 -3.50419 2.1744 0
M  V30 4342 H 416.325 -0.397299 0.532024 0
M  V30 4343 H 418.855 -0.665759 1.93465 0
M  V30 4344 H 418.865 -2.94503 2.82369 0
M  V30 4345 H 417.54 -2.08969 3.5959 0
M  V30 4346 H 416.117 -3.10196 2.06961 0
M  V30 4347 N 418.302 -1.35869 -0.798587 0
M  V30 4348 C 419.53 -1.32722 -1.58722 0
M  V30 4349 C 419.945 0.0935631 -1.88568 0
M  V30 4350 O 419.302 1.04784 -1.49421 0
M  V30 4351 C 419.353 -2.13974 -2.91371 0
M  V30 4352 O 419.074 -3.50514 -2.62815 0
M  V30 4353 C 420.575 -2.18504 -3.85708 0
M  V30 4354 H 417.795 -0.45562 -0.492596 0
M  V30 4355 H 420.339 -1.78837 -0.991843 0
M  V30 4356 H 418.494 -1.71438 -3.47402 0
M  V30 4357 H 418.908 -3.92806 -3.47568 0
M  V30 4358 H 420.382 -2.79732 -4.75872 0
M  V30 4359 H 420.859 -1.18597 -4.22885 0
M  V30 4360 H 421.465 -2.61236 -3.35612 0
M  V30 4361 N 419.78 1.02168 -1.19998 0
M  V30 4362 C 421.01 1.79036 -1.031 0
M  V30 4363 C 421.418 1.84409 0.423078 0
M  V30 4364 O 420.761 1.29228 1.30559 0
M  V30 4365 C 420.823 3.25185 -1.53281 0
M  V30 4366 C 420.487 3.43431 -3.01503 0
M  V30 4367 C 421.484 3.33063 -3.99206 0
M  V30 4368 C 419.169 3.69412 -3.40353 0
M  V30 4369 C 421.163 3.48413 -5.33748 0
M  V30 4370 C 418.85 3.84406 -4.75053 0
M  V30 4371 C 419.848 3.7391 -5.71559 0
M  V30 4372 O 419.536 3.88452 -7.03818 0
M  V30 4373 H 419.268 0.570043 -0.363355 0
M  V30 4374 H 421.822 1.29524 -1.59414 0
M  V30 4375 H 420.052 3.75756 -0.913483 0
M  V30 4376 H 421.741 3.83671 -1.32481 0
M  V30 4377 H 422.507 3.12934 -3.70537 0
M  V30 4378 H 418.386 3.76671 -2.65782 0
M  V30 4379 H 421.93 3.40137 -6.09059 0
M  V30 4380 H 417.827 4.04035 -5.03415 0
M  V30 4381 H 418.595 4.055 -7.10993 0
M  V30 4382 N 421.258 1.00505 1.21394 0
M  V30 4383 C 422.188 0.585684 2.26035 0
M  V30 4384 C 423.169 -0.393525 1.65485 0
M  V30 4385 O 424.354 -0.281497 1.92149 0
M  V30 4386 C 421.484 -0.0884283 3.47187 0
M  V30 4387 C 420.438 0.810567 4.20254 0
M  V30 4388 C 419.764 0.00286382 5.347 0
M  V30 4389 C 421.064 2.1132 4.77641 0
M  V30 4390 H 422.758 1.46039 2.61368 0
M  V30 4391 H 420.304 0.703648 1.25638 0
M  V30 4392 H 422.257 -0.393286 4.19561 0
M  V30 4393 H 420.981 -0.997766 3.10986 0
M  V30 4394 H 419.64 1.09925 3.49731 0
M  V30 4395 H 419.288 -0.907765 4.94741 0
M  V30 4396 H 418.988 0.601444 5.84514 0
M  V30 4397 H 420.512 -0.295808 6.09883 0
M  V30 4398 H 421.926 1.87148 5.41893 0
M  V30 4399 H 420.323 2.66164 5.37845 0
M  V30 4400 H 421.393 2.78393 3.9702 0
M  V30 4401 N 422.737 -1.36956 0.779787 0
M  V30 4402 C 423.983 -1.99787 0.348281 0
M  V30 4403 C 424.316 -1.61756 -1.07465 0
M  V30 4404 O 423.591 -0.867639 -1.74075 0
M  V30 4405 C 423.874 -3.56597 0.50104 0
M  V30 4406 C 423.727 -4.04513 1.96697 0
M  V30 4407 C 425.046 -4.40008 -0.0898097 0
M  V30 4408 H 422.165 -0.725796 0.128022 0
M  V30 4409 H 424.807 -1.62514 0.984331 0
M  V30 4410 H 422.957 -3.88479 -0.0404347 0
M  V30 4411 H 424.629 -3.83161 2.56876 0
M  V30 4412 H 422.872 -3.56408 2.47297 0
M  V30 4413 H 423.543 -5.1352 2.02486 0
M  V30 4414 H 426.019 -4.14431 0.372293 0
M  V30 4415 H 424.895 -5.4888 0.0471605 0
M  V30 4416 H 425.156 -4.26035 -1.18096 0
M  V30 4417 N 424.215 -0.530993 -1.48385 0
M  V30 4418 C 425.455 0.000718982 -2.044 0
M  V30 4419 C 425.819 1.31485 -1.39913 0
M  V30 4420 O 427.02 1.93265 -1.86821 0
M  V30 4421 C 425.291 0.119177 -3.57201 0
M  V30 4422 S 426.85 0.600806 -4.34667 0
M  V30 4423 H 423.668 -0.0125473 -0.710889 0
M  V30 4424 H 426.27 -0.711783 -1.82082 0
M  V30 4425 H 424.974 -0.842061 -4.01668 0
M  V30 4426 H 424.505 0.856026 -3.83974 0
M  V30 4427 H 426.52 1.86514 -4.59812 0
M  V30 4428 N 425.693 1.55336 -0.266172 0
M  V30 4429 C 426.94 1.99397 0.353158 0
M  V30 4430 C 427.268 1.15451 1.56529 0
M  V30 4431 O 426.523 0.209974 1.9457 0
M  V30 4432 C 426.822 3.48606 0.787957 0
M  V30 4433 C 426.488 4.49773 -0.318541 0
M  V30 4434 C 425.15 4.77158 -0.62239 0
M  V30 4435 C 427.502 5.10212 -1.06459 0
M  V30 4436 C 424.83 5.62251 -1.67602 0
M  V30 4437 C 427.182 5.96449 -2.10788 0
M  V30 4438 C 425.846 6.22158 -2.41817 0
M  V30 4439 H 425.116 0.729644 0.12923 0
M  V30 4440 H 427.763 1.87732 -0.37802 0
M  V30 4441 H 426.068 3.57701 1.59866 0
M  V30 4442 H 427.765 3.80098 1.27775 0
M  V30 4443 H 424.355 4.2854 -0.0715925 0
M  V30 4444 H 428.539 4.89086 -0.843098 0
M  V30 4445 H 423.795 5.80419 -1.92155 0
M  V30 4446 H 427.969 6.42317 -2.69076 0
M  V30 4447 H 425.596 6.87888 -3.23596 0
M  V30 4448 N 427.171 -0.0066808 1.57599 0
M  V30 4449 C 428.134 -0.985035 2.06953 0
M  V30 4450 C 429.134 -1.27663 0.977687 0
M  V30 4451 O 430.324 -1.22293 1.24057 0
M  V30 4452 C 427.456 -2.3118 2.50536 0
M  V30 4453 H 428.649 -0.558255 2.94658 0
M  V30 4454 H 426.202 -0.254011 1.54222 0
M  V30 4455 H 426.937 -2.78561 1.66054 0
M  V30 4456 H 426.722 -2.11338 3.3027 0
M  V30 4457 H 428.212 -3.01377 2.8907 0
M  V30 4458 N 428.649 -1.55105 -0.279332 0
M  V30 4459 C 429.895 -1.75672 -1.01327 0
M  V30 4460 C 430.228 -0.552739 -1.86168 0
M  V30 4461 O 429.503 0.449827 -1.89227 0
M  V30 4462 C 429.786 -3.05825 -1.90114 0
M  V30 4463 C 429.639 -4.36565 -1.08309 0
M  V30 4464 C 430.958 -3.31975 -2.8893 0
M  V30 4465 H 428.077 -0.639149 -0.366957 0
M  V30 4466 H 430.719 -1.87833 -0.286154 0
M  V30 4467 H 428.869 -2.95588 -2.52111 0
M  V30 4468 H 430.541 -4.58751 -0.484314 0
M  V30 4469 H 428.784 -4.32076 -0.386362 0
M  V30 4470 H 429.455 -5.23946 -1.73737 0
M  V30 4471 H 431.931 -3.41963 -2.37067 0
M  V30 4472 H 430.807 -4.2432 -3.48201 0
M  V30 4473 H 431.068 -2.51309 -3.63725 0
M  V30 4474 N 430.127 0.543554 -1.4793 0
M  V30 4475 C 431.077 1.64527 -1.57844 0
M  V30 4476 C 432.061 1.54869 -0.436408 0
M  V30 4477 O 433.253 1.63119 -0.687101 0
M  V30 4478 C 430.382 3.03281 -1.6086 0
M  V30 4479 C 429.468 3.18093 -2.80495 0
M  V30 4480 N 429.859 3.02923 -4.05057 0
M  V30 4481 C 428.157 3.49121 -2.77543 0
M  V30 4482 C 428.858 3.20791 -4.85251 0
M  V30 4483 N 427.834 3.47749 -4.17818 0
M  V30 4484 H 431.636 1.51388 -2.5191 0
M  V30 4485 H 429.15 0.748671 -1.44113 0
M  V30 4486 H 431.147 3.82403 -1.66054 0
M  V30 4487 H 429.807 3.17521 -0.678996 0
M  V30 4488 H 430.818 2.79966 -4.35705 0
M  V30 4489 H 427.495 3.69804 -1.93781 0
M  V30 4490 H 428.885 3.13915 -5.9406 0
M  V30 4491 N 431.605 1.3629 0.791371 0
M  V30 4492 C 432.537 1.26321 1.91248 0
M  V30 4493 C 433.55 0.18313 1.61767 0
M  V30 4494 O 434.739 0.437682 1.73051 0
M  V30 4495 C 431.839 0.925901 3.26007 0
M  V30 4496 C 431.012 2.10746 3.83281 0
M  V30 4497 C 430.071 1.74352 4.96475 0
M  V30 4498 O 429.097 2.46416 5.13096 0
M  V30 4499 N 430.299 0.676058 5.7655 0
M  V30 4500 H 433.064 2.22915 2.00323 0
M  V30 4501 H 430.625 1.29659 0.969546 0
M  V30 4502 H 432.617 0.663636 3.99222 0
M  V30 4503 H 431.187 0.0491581 3.12561 0
M  V30 4504 H 430.407 2.53264 3.02077 0
M  V30 4505 H 431.695 2.8969 4.18279 0
M  V30 4506 H 431.093 0.0776467 5.65647 0
M  V30 4507 H 429.65 0.473612 6.50077 0
M  V30 4508 N 433.083 -1.0153 1.20538 0
M  V30 4509 C 434.33 -1.75149 1.01633 0
M  V30 4510 C 434.658 -1.89189 -0.451399 0
M  V30 4511 O 433.913 -1.41551 -1.35136 0
M  V30 4512 C 434.212 -3.17213 1.64654 0
M  V30 4513 C 433.878 -3.23146 3.14464 0
M  V30 4514 C 432.54 -3.24472 3.55347 0
M  V30 4515 C 434.892 -3.21207 4.10458 0
M  V30 4516 C 432.22 -3.21532 4.90748 0
M  V30 4517 C 434.572 -3.19808 5.45807 0
M  V30 4518 C 433.236 -3.19439 5.86102 0
M  V30 4519 H 432.506 -0.640914 0.3719 0
M  V30 4520 H 435.153 -1.19071 1.49981 0
M  V30 4521 H 433.458 -3.76457 1.08571 0
M  V30 4522 H 435.155 -3.72871 1.4754 0
M  V30 4523 H 431.745 -3.2285 2.81897 0
M  V30 4524 H 435.929 -3.19351 3.79906 0
M  V30 4525 H 431.185 -3.19578 5.21229 0
M  V30 4526 H 435.359 -3.1726 6.19935 0
M  V30 4527 H 432.986 -3.16915 6.90991 0
M  V30 4528 N 434.561 -1.01147 -1.20859 0
M  V30 4529 C 435.838 -0.613136 -1.85742 0
M  V30 4530 C 436.218 0.909004 -1.90526 0
M  V30 4531 O 435.566 1.79862 -1.40932 0
M  V30 4532 C 435.776 -1.255 -3.25654 0
M  V30 4533 C 437.124 -1.3672 -4.01986 0
M  V30 4534 O 438.148 -1.21082 -3.34989 0
M  V30 4535 O 437.007 -1.6194 -5.21956 0
M  V30 4536 H 434.101 -0.210878 -0.799662 0
M  V30 4537 H 436.647 -1.10853 -1.2849 0
M  V30 4538 H 435.419 -2.29532 -3.16908 0
M  V30 4539 H 435.042 -0.746369 -3.90532 0
M  V30 4540 N 436.039 1.36541 -0.78704 0
M  V30 4541 C 437.264 2.0409 -0.369053 0
M  V30 4542 C 437.689 1.58957 1.00569 0
M  V30 4543 O 437.047 0.756926 1.64743 0
M  V30 4544 C 437.095 3.57924 -0.438466 0
M  V30 4545 O 436.199 4.08642 0.555479 0
M  V30 4546 H 435.54 0.645142 -0.157122 0
M  V30 4547 H 438.07 1.74545 -1.06749 0
M  V30 4548 H 438.08 4.06887 -0.301218 0
M  V30 4549 H 436.755 3.90127 -1.44132 0
M  V30 4550 H 435.332 3.70958 0.380088 0
M  V30 4551 N 437.518 0.538854 1.48102 0
M  V30 4552 C 438.764 0.00801365 2.02798 0
M  V30 4553 C 439.097 -1.3309 1.41424 0
M  V30 4554 O 438.372 -1.86169 0.563158 0
M  V30 4555 C 438.655 -0.104589 3.59948 0
M  V30 4556 C 438.508 1.26012 4.31788 0
M  V30 4557 C 439.827 -0.827055 4.32259 0
M  V30 4558 H 436.946 0.00438624 0.736987 0
M  V30 4559 H 439.588 0.6976 1.7673 0
M  V30 4560 H 437.738 -0.691893 3.82289 0
M  V30 4561 H 439.41 1.88922 4.2084 0
M  V30 4562 H 437.653 1.83968 3.92859 0
M  V30 4563 H 438.324 1.13424 5.40221 0
M  V30 4564 H 440.8 -0.328578 4.14801 0
M  V30 4565 H 439.676 -0.87476 5.41885 0
M  V30 4566 H 439.937 -1.87927 4.0017 0
M  V30 4567 N 438.996 -1.55193 0.274407 0
M  V30 4568 C 439.943 -2.225 -0.613374 0
M  V30 4569 C 440.913 -1.19823 -1.15029 0
M  V30 4570 O 442.098 -1.48362 -1.19973 0
M  V30 4571 C 439.238 -2.94927 -1.79199 0
M  V30 4572 C 438.351 -4.12322 -1.28899 0
M  V30 4573 C 437.486 -4.72394 -2.42934 0
M  V30 4574 C 436.525 -5.81984 -1.89634 0
M  V30 4575 N 435.662 -6.36123 -2.9714 0
M  V30 4576 H 440.502 -2.97982 -0.032756 0
M  V30 4577 H 438.039 -1.47099 -0.00440146 0
M  V30 4578 H 439.997 -3.35134 -2.48478 0
M  V30 4579 H 438.627 -2.2187 -2.34465 0
M  V30 4580 H 437.679 -3.7724 -0.489327 0
M  V30 4581 H 438.991 -4.91355 -0.858587 0
M  V30 4582 H 438.145 -5.15317 -3.20208 0
M  V30 4583 H 436.884 -3.92636 -2.8929 0
M  V30 4584 H 435.889 -5.38511 -1.1084 0
M  V30 4585 H 437.114 -6.6361 -1.44215 0
M  V30 4586 H 435.06 -5.59259 -3.42878 0
M  V30 4587 H 434.977 -7.10427 -2.58515 0
M  V30 4588 H 436.245 -6.83704 -3.74391 0
M  V30 4589 N 440.474 -0.00167713 -1.576 0
M  V30 4590 C 441.89 0.354422 -1.55615 0
M  V30 4591 C 442.09 1.74679 -1.00447 0
M  V30 4592 O 441.146 2.4428 -0.639022 0
M  V30 4593 C 442.459 0.22812 -2.99833 0
M  V30 4594 C 444.007 0.302934 -3.11531 0
M  V30 4595 C 444.482 0.205737 -4.57538 0
M  V30 4596 N 445.973 0.263584 -4.62449 0
M  V30 4597 C 446.708 0.211742 -5.73009 0
M  V30 4598 N 446.204 0.110399 -6.92712 0
M  V30 4599 N 447.997 0.263729 -5.61481 0
M  V30 4600 H 440.148 -0.912498 -1.918 0
M  V30 4601 H 442.411 -0.349928 -0.881053 0
M  V30 4602 H 442.117 -0.729934 -3.44042 0
M  V30 4603 H 441.991 1.00951 -3.6344 0
M  V30 4604 H 444.378 1.25143 -2.67251 0
M  V30 4605 H 444.459 -0.508357 -2.50698 0
M  V30 4606 H 444.103 -0.739225 -5.02492 0
M  V30 4607 H 444.033 1.03554 -5.16318 0
M  V30 4608 H 446.524 0.343173 -3.76339 0
M  V30 4609 H 446.837 0.0767828 -7.72762 0
M  V30 4610 H 445.182 0.0760025 -6.94958 0
M  V30 4611 H 448.373 0.34111 -4.66855 0
M  V30 4612 H 448.546 0.219862 -6.47627 0
M  V30 4613 N 441.952 1.55251 0.271103 0
M  V30 4614 C 443.201 1.75151 1.00025 0
M  V30 4615 C 443.514 0.561041 1.87381 0
M  V30 4616 O 444.72 0.642506 2.63788 0
M  V30 4617 C 443.176 3.09999 1.82835 0
M  V30 4618 C 442.784 4.3662 1.00336 0
M  V30 4619 C 444.528 3.39249 2.55168 0
M  V30 4620 C 442.435 5.62506 1.82595 0
M  V30 4621 H 441.365 0.652877 0.377183 0
M  V30 4622 H 444.016 1.81708 0.255843 0
M  V30 4623 H 442.398 2.97485 2.61378 0
M  V30 4624 H 443.572 4.60055 0.261959 0
M  V30 4625 H 441.887 4.14527 0.394486 0
M  V30 4626 H 444.484 4.3051 3.1712 0
M  V30 4627 H 444.827 2.59467 3.2555 0
M  V30 4628 H 445.36 3.52869 1.83653 0
M  V30 4629 H 442.099 6.45041 1.16631 0
M  V30 4630 H 441.619 5.43211 2.54327 0
M  V30 4631 H 443.298 6.00875 2.39913 0
M  V30 4632 N 443.43 -0.535701 1.48216 0
M  V30 4633 C 444.655 -1.32149 1.59848 0
M  V30 4634 C 445.08 -1.86338 0.256842 0
M  V30 4635 O 444.438 -1.64107 -0.770632 0
M  V30 4636 C 444.486 -2.45224 2.64381 0
M  V30 4637 O 443.59 -3.48093 2.21144 0
M  V30 4638 H 442.931 -0.391634 0.536208 0
M  V30 4639 H 445.461 -0.645202 1.94161 0
M  V30 4640 H 445.471 -2.91491 2.85476 0
M  V30 4641 H 444.146 -2.05143 3.61786 0
M  V30 4642 H 442.723 -3.07984 2.10239 0
M  V30 4643 N 444.908 -1.36708 -0.784132 0
M  V30 4644 C 445.856 -1.31533 -1.91838 0
M  V30 4645 C 446.85 -0.206205 -1.6814 0
M  V30 4646 O 448.056 -0.373519 -1.76082 0
M  V30 4647 H 444.431 -0.409613 -0.630651 0
M  V30 4648 H 446.402 -2.2731 -1.9332 0
M  V30 4649 C 445.151 -1.12679 -3.28936 0
M  V30 4650 H 444.474 -1.97274 -3.4774 0
M  V30 4651 H 445.914 -1.13106 -4.08636 0
M  V30 4652 C 444.373 0.168281 -3.36479 0
M  V30 4653 O 444.903 1.15625 -3.84699 0
M  V30 4654 N 443.109 0.214762 -2.89805 0
M  V30 4655 H 442.656 -0.589852 -2.50756 0
M  V30 4656 H 442.614 1.08094 -2.95234 0
M  V30 4657 N 446.386 1.0089 -1.21074 0
M  V30 4658 C 447.611 1.78727 -1.05221 0
M  V30 4659 C 448.036 1.83932 0.393795 0
M  V30 4660 O 447.394 1.28004 1.28393 0
M  V30 4661 C 447.442 3.20665 -1.64944 0
M  V30 4662 O 446.546 4.02632 -0.892273 0
M  V30 4663 H 445.887 0.550973 -0.370574 0
M  V30 4664 H 448.417 1.26847 -1.60534 0
M  V30 4665 H 448.427 3.71352 -1.69002 0
M  V30 4666 H 447.102 3.16191 -2.70177 0
M  V30 4667 H 445.679 3.61207 -0.926492 0
M  V30 4668 N 447.864 1.01787 1.20321 0
M  V30 4669 C 449.112 0.706538 1.89347 0
M  V30 4670 C 449.433 -0.766289 1.79313 0
M  V30 4671 O 448.703 -1.55126 1.19635 0
M  V30 4672 H 447.283 0.258348 0.700903 0
M  V30 4673 H 449.945 1.28974 1.46122 0
M  V30 4674 H 449.041 0.991066 2.95946 0
M  V30 4675 N 449.342 -1.36122 0.79427 0
M  V30 4676 C 450.289 -2.29982 0.194101 0
M  V30 4677 C 451.259 -1.52214 -0.664833 0
M  V30 4678 O 452.444 -1.80702 -0.612498 0
M  V30 4679 C 449.584 -3.38706 -0.661244 0
M  V30 4680 C 448.697 -4.31456 0.216766 0
M  V30 4681 C 447.832 -5.27265 -0.645411 0
M  V30 4682 C 446.871 -6.11653 0.233756 0
M  V30 4683 N 446.008 -6.99636 -0.587682 0
M  V30 4684 H 450.848 -2.80722 0.999965 0
M  V30 4685 H 448.385 -1.38172 0.504677 0
M  V30 4686 H 450.343 -4.00394 -1.17219 0
M  V30 4687 H 448.973 -2.89274 -1.43249 0
M  V30 4688 H 448.025 -3.7088 0.845724 0
M  V30 4689 H 449.337 -4.90724 0.893973 0
M  V30 4690 H 448.491 -5.94266 -1.22198 0
M  V30 4691 H 447.23 -4.68463 -1.35623 0
M  V30 4692 H 446.235 -5.4361 0.82269 0
M  V30 4693 H 447.46 -6.72531 0.942247 0
M  V30 4694 H 445.406 -6.43337 -1.2827 0
M  V30 4695 H 445.323 -7.55993 0.0317402 0
M  V30 4696 H 446.591 -7.71001 -1.14792 0
M  V30 4697 N 450.82 -0.546701 -1.47814 0
M  V30 4698 C 452.231 -0.110564 -1.86372 0
M  V30 4699 C 452.582 1.31678 -1.45449 0
M  V30 4700 O 451.707 1.98889 -0.852758 0
M  V30 4701 C 452.302 -0.193873 -3.38245 0
M  V30 4702 C 450.861 0.187164 -3.75934 0
M  V30 4703 C 450.008 -0.546166 -2.71868 0
M  V30 4704 H 452.959 -0.757022 -1.39481 0
M  V30 4705 H 452.98 0.590218 -3.75895 0
M  V30 4706 H 452.492 -1.23282 -3.67999 0
M  V30 4707 H 450.593 1.22762 -3.51796 0
M  V30 4708 H 450.706 -0.164083 -4.78819 0
M  V30 4709 H 449.07 0.00953904 -2.54698 0
M  V30 4710 H 449.853 -1.58606 -3.04465 0
M  V30 4711 N 452.299 1.55045 -0.282633 0
M  V30 4712 C 453.229 2.2579 0.595066 0
M  V30 4713 C 454.21 1.25074 1.15284 0
M  V30 4714 O 455.395 1.5381 1.18559 0
M  V30 4715 C 452.525 2.98472 1.77572 0
M  V30 4716 C 451.479 4.0618 1.34914 0
M  V30 4717 C 450.805 4.66477 2.6135 0
M  V30 4718 C 452.105 5.1996 0.493821 0
M  V30 4719 H 453.799 2.994 0.00505653 0
M  V30 4720 H 451.345 1.44 0.000992001 0
M  V30 4721 H 453.298 3.46677 2.39568 0
M  V30 4722 H 452.022 2.2241 2.39168 0
M  V30 4723 H 450.681 3.58797 0.752338 0
M  V30 4724 H 450.329 3.87074 3.2122 0
M  V30 4725 H 450.029 5.39207 2.33516 0
M  V30 4726 H 451.553 5.17435 3.24181 0
M  V30 4727 H 452.967 5.64172 1.01898 0
M  V30 4728 H 451.364 5.99299 0.310047 0
M  V30 4729 H 452.434 4.82462 -0.485593 0
M  V30 4730 N 453.777 0.010035 1.57597 0
M  V30 4731 C 455.005 -0.683413 1.95287 0
M  V30 4732 C 455.42 -1.66747 0.885481 0
M  V30 4733 O 454.777 -1.82003 -0.134629 0
M  V30 4734 C 454.828 -1.40652 3.33015 0
M  V30 4735 O 454.549 -0.461916 4.35658 0
M  V30 4736 C 456.05 -2.19356 3.85225 0
M  V30 4737 H 453.27 -0.189708 0.643624 0
M  V30 4738 H 455.814 0.0641359 2.04399 0
M  V30 4739 H 453.969 -2.10562 3.2518 0
M  V30 4740 H 454.383 -0.973215 5.15392 0
M  V30 4741 H 455.857 -2.65433 4.83993 0
M  V30 4742 H 456.334 -3.02457 3.18459 0
M  V30 4743 H 456.94 -1.54442 3.96267 0
M  V30 4744 N 455.255 -1.55392 -0.262866 0
M  V30 4745 C 456.504 -1.75679 -0.990943 0
M  V30 4746 C 456.817 -0.57097 -1.87081 0
M  V30 4747 O 458.023 -0.656486 -2.63444 0
M  V30 4748 C 456.479 -3.10964 -1.81188 0
M  V30 4749 C 456.087 -4.37146 -0.980188 0
M  V30 4750 C 457.831 -3.40597 -2.53365 0
M  V30 4751 C 455.738 -5.63466 -1.7961 0
M  V30 4752 H 454.668 -0.654868 -0.373716 0
M  V30 4753 H 457.319 -1.81841 -0.246203 0
M  V30 4754 H 455.701 -2.98867 -2.59797 0
M  V30 4755 H 456.875 -4.60187 -0.237558 0
M  V30 4756 H 455.19 -4.14731 -0.372497 0
M  V30 4757 H 457.787 -4.32186 -3.14833 0
M  V30 4758 H 458.13 -2.6119 -3.24169 0
M  V30 4759 H 458.663 -3.53838 -1.81779 0
M  V30 4760 H 455.402 -6.4565 -1.13209 0
M  V30 4761 H 454.922 -5.44552 -2.51443 0
M  V30 4762 H 456.601 -6.02139 -2.36723 0
M  V30 4763 N 456.733 0.527833 -1.48498 0
M  V30 4764 C 457.963 1.30633 -1.60058 0
M  V30 4765 C 458.371 1.87394 -0.260786 0
M  V30 4766 O 457.714 1.67227 0.760317 0
M  V30 4767 C 457.776 2.49361 -2.58958 0
M  V30 4768 C 457.44 2.13671 -4.03972 0
M  V30 4769 C 458.437 1.69217 -4.91591 0
M  V30 4770 C 456.122 2.24129 -4.49524 0
M  V30 4771 C 458.116 1.35689 -6.2279 0
M  V30 4772 C 455.803 1.90212 -5.80743 0
M  V30 4773 C 456.801 1.46063 -6.67199 0
M  V30 4774 O 456.489 1.12593 -7.95976 0
M  V30 4775 H 456.221 0.403444 -0.54241 0
M  V30 4776 H 458.775 0.643233 -1.95068 0
M  V30 4777 H 457.005 3.18659 -2.19073 0
M  V30 4778 H 458.694 3.11421 -2.6033 0
M  V30 4779 H 459.46 1.60607 -4.57636 0
M  V30 4780 H 455.339 2.57447 -3.82416 0
M  V30 4781 H 458.883 1.01157 -6.90227 0
M  V30 4782 H 454.78 1.98464 -6.14233 0
M  V30 4783 H 455.548 1.25972 -8.08748 0
M  V30 4784 N 458.211 1.37122 0.776871 0
M  V30 4785 C 459.457 1.32243 1.53752 0
M  V30 4786 C 459.79 -0.0944745 1.9397 0
M  V30 4787 O 459.065 -1.05068 1.6368 0
M  V30 4788 C 459.348 2.25681 2.80607 0
M  V30 4789 C 459.201 3.76127 2.46676 0
M  V30 4790 C 460.52 2.17657 3.82509 0
M  V30 4791 H 457.639 0.481704 0.557791 0
M  V30 4792 H 460.281 1.6778 0.891612 0
M  V30 4793 H 458.431 1.95505 3.35723 0
M  V30 4794 H 460.103 4.16877 1.97513 0
M  V30 4795 H 458.346 3.94946 1.79443 0
M  V30 4796 H 459.017 4.36933 3.37333 0
M  V30 4797 H 461.493 2.44245 3.36873 0
M  V30 4798 H 460.369 2.85185 4.69 0
M  V30 4799 H 460.63 1.16785 4.26396 0
M  V30 4800 N 459.689 -1.00246 1.21608 0
M  V30 4801 C 460.621 -2.09244 0.935401 0
M  V30 4802 C 461.634 -1.62592 -0.0823594 0
M  V30 4803 O 462.823 -1.77865 0.150456 0
M  V30 4804 C 459.923 -3.36724 0.383453 0
M  V30 4805 C 459.096 -4.1245 1.45615 0
M  V30 4806 C 458.155 -5.18219 0.912991 0
M  V30 4807 O 457.181 -5.46337 1.59701 0
M  V30 4808 N 458.383 -5.7987 -0.270478 0
M  V30 4809 H 461.148 -2.33905 1.87373 0
M  V30 4810 H 458.709 -1.16748 1.12167 0
M  V30 4811 H 460.701 -4.047 0.00562157 0
M  V30 4812 H 459.271 -3.09201 -0.459758 0
M  V30 4813 H 458.491 -3.39241 2.00772 0
M  V30 4814 H 459.779 -4.59819 2.17817 0
M  V30 4815 H 459.177 -5.59381 -0.843195 0
M  V30 4816 H 457.734 -6.49126 -0.589794 0
M  V30 4817 N 461.167 -1.02423 -1.1978 0
M  V30 4818 C 462.578 -0.748389 -1.71044 0
M  V30 4819 C 462.929 0.732398 -1.82017 0
M  V30 4820 O 462.054 1.57116 -1.48807 0
M  V30 4821 C 462.649 -1.35187 -3.1066 0
M  V30 4822 C 461.208 -1.12472 -3.59203 0
M  V30 4823 C 460.355 -1.45283 -2.36195 0
M  V30 4824 H 463.306 -1.19275 -1.04686 0
M  V30 4825 H 463.327 -0.746408 -3.73107 0
M  V30 4826 H 462.839 -2.4296 -3.02642 0
M  V30 4827 H 460.94 -0.0649983 -3.72543 0
M  V30 4828 H 461.053 -1.81016 -4.43588 0
M  V30 4829 H 459.417 -0.872034 -2.39307 0
M  V30 4830 H 460.2 -2.54129 -2.30811 0
M  V30 4831 N 462.645 1.35699 -0.801477 0
M  V30 4832 C 463.555 2.33661 -0.209691 0
M  V30 4833 C 464.571 1.6162 0.644591 0
M  V30 4834 O 465.747 1.93529 0.557545 0
M  V30 4835 C 462.812 3.40816 0.636033 0
M  V30 4836 C 461.873 4.28639 -0.238147 0
M  V30 4837 C 461.106 5.30676 0.567307 0
M  V30 4838 O 461.329 5.41174 1.8024 0
M  V30 4839 O 460.263 6.01887 -0.0391336 0
M  V30 4840 H 464.089 2.8606 -1.01996 0
M  V30 4841 H 461.674 1.38379 -0.563164 0
M  V30 4842 H 463.556 4.06301 1.11791 0
M  V30 4843 H 462.231 2.90696 1.42399 0
M  V30 4844 H 461.138 3.66152 -0.767044 0
M  V30 4845 H 462.471 4.82143 -0.989915 0
M  V30 4846 N 464.123 0.554532 1.47522 0
M  V30 4847 C 465.055 -0.232106 2.28022 0
M  V30 4848 C 466.068 -0.881865 1.36847 0
M  V30 4849 O 467.257 -0.756168 1.61692 0
M  V30 4850 C 464.357 -1.34604 3.11022 0
M  V30 4851 C 463.53 -0.793582 4.30141 0
M  V30 4852 C 462.589 -1.79168 4.94758 0
M  V30 4853 O 461.615 -1.33886 5.5323 0
M  V30 4854 N 462.817 -3.12495 4.89211 0
M  V30 4855 H 465.582 0.458407 2.96173 0
M  V30 4856 H 463.143 0.390433 1.57122 0
M  V30 4857 H 465.135 -2.01243 3.51118 0
M  V30 4858 H 463.705 -1.93983 2.45131 0
M  V30 4859 H 462.925 0.0495025 3.94169 0
M  V30 4860 H 464.213 -0.403776 5.07195 0
M  V30 4861 H 463.611 -3.51931 4.42901 0
M  V30 4862 H 462.168 -3.74698 5.33333 0
M  V30 4863 N 465.601 -1.54893 0.290851 0
M  V30 4864 C 466.548 -2.23138 -0.58974 0
M  V30 4865 C 467.518 -1.21036 -1.13752 0
M  V30 4866 O 468.703 -1.49626 -1.18392 0
M  V30 4867 C 465.843 -2.96811 -1.76061 0
M  V30 4868 C 464.956 -4.13665 -1.24519 0
M  V30 4869 C 464.091 -4.74944 -2.3791 0
M  V30 4870 C 463.13 -5.83963 -1.83451 0
M  V30 4871 N 462.267 -6.39239 -2.90376 0
M  V30 4872 H 467.107 -2.98 -0.00114915 0
M  V30 4873 H 464.644 -1.47096 0.0112006 0
M  V30 4874 H 466.602 -3.37751 -2.44909 0
M  V30 4875 H 465.232 -2.24344 -2.32098 0
M  V30 4876 H 464.284 -3.77737 -0.449288 0
M  V30 4877 H 465.596 -4.92238 -0.806424 0
M  V30 4878 H 464.75 -5.18684 -3.14724 0
M  V30 4879 H 463.489 -3.95682 -2.85109 0
M  V30 4880 H 462.494 -5.39657 -1.05122 0
M  V30 4881 H 463.719 -6.65103 -1.37169 0
M  V30 4882 H 461.665 -5.62864 -3.36927 0
M  V30 4883 H 461.582 -7.13129 -2.50965 0
M  V30 4884 H 462.85 -6.87637 -3.67118 0
M  V30 4885 N 467.08 -0.0183926 -1.57589 0
M  V30 4886 C 468.03 0.975944 -2.06057 0
M  V30 4887 C 469.014 1.29204 -0.958908 0
M  V30 4888 O 470.206 1.27995 -1.22255 0
M  V30 4889 C 467.335 2.26194 -2.58247 0
M  V30 4890 C 466.421 1.97467 -3.75323 0
M  V30 4891 N 466.812 1.38968 -4.86335 0
M  V30 4892 C 465.11 2.27515 -3.83605 0
M  V30 4893 C 465.811 1.27131 -5.67638 0
M  V30 4894 N 464.787 1.76319 -5.14211 0
M  V30 4895 H 468.589 0.518444 -2.89291 0
M  V30 4896 H 466.103 0.18688 -1.61321 0
M  V30 4897 H 468.1 2.98289 -2.91255 0
M  V30 4898 H 466.76 2.7258 -1.76438 0
M  V30 4899 H 467.771 1.06608 -5.06809 0
M  V30 4900 H 464.448 2.76649 -3.12684 0
M  V30 4901 H 465.838 0.819882 -6.66879 0
M  V30 4902 N 468.558 1.5553 0.254621 0
M  V30 4903 C 469.786 1.81046 1.00149 0
M  V30 4904 C 470.201 0.593047 1.79244 0
M  V30 4905 O 469.558 -0.438196 1.77161 0
M  V30 4906 C 469.609 3.04684 1.94551 0
M  V30 4907 O 469.33 4.21725 1.18658 0
M  V30 4908 C 470.831 3.42943 2.80901 0
M  V30 4909 H 468.051 0.602653 0.295044 0
M  V30 4910 H 470.595 2.02576 0.279842 0
M  V30 4911 H 468.75 2.85226 2.62154 0
M  V30 4912 H 469.164 4.91746 1.82445 0
M  V30 4913 H 470.638 4.32576 3.42902 0
M  V30 4914 H 471.115 2.63176 3.51617 0
M  V30 4915 H 471.721 3.64724 2.18762 0
M  V30 4916 N 470.036 -0.519951 1.48776 0
M  V30 4917 C 470.999 -1.60574 1.6355 0
M  V30 4918 C 471.999 -1.52557 0.508234 0
M  V30 4919 O 473.189 -1.56047 0.774262 0
M  V30 4920 C 470.321 -3.00211 1.61512 0
M  V30 4921 H 471.514 -1.4881 2.60376 0
M  V30 4922 H 469.067 -0.742772 1.37523 0
M  V30 4923 H 469.802 -3.17471 0.662009 0
M  V30 4924 H 469.587 -3.07439 2.43359 0
M  V30 4925 H 471.077 -3.79134 1.75064 0
M  V30 4926 N 471.514 -1.37532 -0.769588 0
M  V30 4927 C 472.424 -1.35668 -1.91393 0
M  V30 4928 C 473.44 -0.255954 -1.72107 0
M  V30 4929 O 474.616 -0.491704 -1.95305 0
M  V30 4930 C 471.681 -1.16481 -3.26547 0
M  V30 4931 C 470.742 -2.36212 -3.58472 0
M  V30 4932 C 469.975 -2.17932 -4.87177 0
M  V30 4933 O 470.198 -1.1647 -5.58382 0
M  V30 4934 O 469.132 -3.06167 -5.18214 0
M  V30 4935 H 472.958 -2.32055 -1.95918 0
M  V30 4936 H 470.543 -1.18284 -0.912641 0
M  V30 4937 H 472.425 -1.07778 -4.07384 0
M  V30 4938 H 471.1 -0.231687 -3.2287 0
M  V30 4939 H 470.007 -2.50488 -2.77861 0
M  V30 4940 H 471.34 -3.281 -3.66894 0
M  V30 4941 N 472.992 0.995999 -1.22138 0
M  V30 4942 C 474.222 1.76809 -1.06874 0
M  V30 4943 C 474.63 1.85265 0.383866 0
M  V30 4944 O 473.973 1.31969 1.27789 0
M  V30 4945 C 474.035 3.2186 -1.60144 0
M  V30 4946 C 473.699 3.36958 -3.0872 0
M  V30 4947 C 474.696 3.2452 -4.0618 0
M  V30 4948 C 472.381 3.62109 -3.48112 0
M  V30 4949 C 474.375 3.37013 -5.41019 0
M  V30 4950 C 472.062 3.74243 -4.831 0
M  V30 4951 C 473.06 3.61702 -5.79362 0
M  V30 4952 O 472.748 3.73436 -7.119 0
M  V30 4953 H 472.48 0.562207 -0.375365 0
M  V30 4954 H 475.034 1.26113 -1.62125 0
M  V30 4955 H 473.264 3.73734 -0.992981 0
M  V30 4956 H 474.953 3.80775 -1.40589 0
M  V30 4957 H 475.719 3.05004 -3.77091 0
M  V30 4958 H 471.598 3.70949 -2.73712 0
M  V30 4959 H 475.142 3.27141 -6.16137 0
M  V30 4960 H 471.039 3.93266 -5.11872 0
M  V30 4961 H 471.807 3.90328 -7.19435 0
M  V30 4962 N 474.47 1.03057 1.19235 0
M  V30 4963 C 475.433 0.617418 2.20727 0
M  V30 4964 C 476.433 -0.319856 1.57587 0
M  V30 4965 O 477.623 -0.106633 1.73873 0
M  V30 4966 C 474.755 -0.096296 3.40764 0
M  V30 4967 H 475.948 1.51544 2.58794 0
M  V30 4968 H 473.501 0.821949 1.32942 0
M  V30 4969 H 474.236 -1.00859 3.08217 0
M  V30 4970 H 474.021 0.577217 3.87828 0
M  V30 4971 H 475.511 -0.372219 4.15938 0
M  V30 4972 N 475.948 -1.35272 0.808662 0
M  V30 4973 C 476.911 -2.28082 0.226093 0
M  V30 4974 C 477.911 -1.49673 -0.587762 0
M  V30 4975 O 479.101 -1.69404 -0.405943 0
M  V30 4976 C 476.233 -3.33955 -0.684596 0
M  V30 4977 H 477.426 -2.81116 1.04469 0
M  V30 4978 H 474.979 -1.45162 0.579466 0
M  V30 4979 H 475.714 -2.86111 -1.5268 0
M  V30 4980 H 475.499 -3.91965 -0.102699 0
M  V30 4981 H 476.989 -4.03219 -1.08646 0
M  V30 4982 N 477.426 -0.562348 -1.47226 0
M  V30 4983 C 478.374 0.195476 -2.31777 0
M  V30 4984 C 479.368 0.90433 -1.43242 0
M  V30 4985 O 480.574 0.825031 -1.59979 0
M  V30 4986 H 476.949 0.0819095 -0.747526 0
M  V30 4987 H 478.92 -0.536753 -2.93533 0
M  V30 4988 C 477.669 1.20902 -3.26003 0
M  V30 4989 H 476.992 0.672997 -3.94095 0
M  V30 4990 H 478.432 1.71006 -3.87986 0
M  V30 4991 C 476.891 2.25955 -2.49891 0
M  V30 4992 O 477.421 3.32969 -2.2471 0
M  V30 4993 N 475.627 2.00019 -2.1081 0
M  V30 4994 H 475.174 1.13006 -2.31489 0
M  V30 4995 H 475.132 2.70523 -1.60201 0
M  V30 4996 N 478.904 1.54736 -0.299062 0
M  V30 4997 C 480.153 1.99279 0.311549 0
M  V30 4998 C 480.466 1.19107 1.55154 0
M  V30 4999 O 481.672 1.53908 2.23662 0
M  V30 5000 C 480.128 3.54768 0.605632 0
M  V30 5001 C 479.736 4.43746 -0.615914 0
M  V30 5002 C 481.48 4.07841 1.17754 0
M  V30 5003 C 479.387 5.90663 -0.29509 0
M  V30 5004 H 478.317 0.744359 0.120187 0
M  V30 5005 H 480.968 1.78919 -0.407464 0
M  V30 5006 H 479.35 3.71021 1.38419 0
M  V30 5007 H 480.524 4.39267 -1.39218 0
M  V30 5008 H 478.839 4.01434 -1.10633 0
M  V30 5009 H 481.436 5.15174 1.43179 0
M  V30 5010 H 481.779 3.58324 2.11918 0
M  V30 5011 H 482.312 3.95123 0.460739 0
M  V30 5012 H 479.051 6.44325 -1.20524 0
M  V30 5013 H 478.571 5.98155 0.44394 0
M  V30 5014 H 480.25 6.46916 0.104048 0
M  V30 5015 N 480.382 0.0267497 1.57577 0
M  V30 5016 C 481.61 -0.662661 1.96001 0
M  V30 5017 C 482.025 -1.65799 0.903117 0
M  V30 5018 O 481.382 -1.82135 -0.115317 0
M  V30 5019 C 481.433 -1.37112 3.34488 0
M  V30 5020 O 481.154 -0.415683 4.36123 0
M  V30 5021 C 482.655 -2.15257 3.8753 0
M  V30 5022 H 479.875 -0.18287 0.6456 0
M  V30 5023 H 482.419 0.0858116 2.0432 0
M  V30 5024 H 480.574 -2.07101 3.27395 0
M  V30 5025 H 480.988 -0.918496 5.16395 0
M  V30 5026 H 482.462 -2.60285 4.86781 0
M  V30 5027 H 482.939 -2.99063 3.21649 0
M  V30 5028 H 483.545 -1.50231 3.97883 0
M  V30 5029 N 481.861 -1.55662 -0.24637 0
M  V30 5030 C 482.808 -1.90361 -1.30504 0
M  V30 5031 C 483.778 -0.757905 -1.47801 0
M  V30 5032 O 484.963 -1.01161 -1.61775 0
M  V30 5033 C 482.103 -2.2042 -2.65535 0
M  V30 5034 C 481.216 -3.47799 -2.56242 0
M  V30 5035 C 480.351 -3.67426 -3.8363 0
M  V30 5036 C 479.39 -4.88403 -3.68956 0
M  V30 5037 N 478.527 -5.04548 -4.88237 0
M  V30 5038 H 483.367 -2.80645 -1.00213 0
M  V30 5039 H 480.904 -1.38924 -0.483577 0
M  V30 5040 H 482.862 -2.35853 -3.44135 0
M  V30 5041 H 481.492 -1.3334 -2.93973 0
M  V30 5042 H 480.544 -3.40694 -1.69208 0
M  V30 5043 H 481.856 -4.36544 -2.4131 0
M  V30 5044 H 481.01 -3.82821 -4.70673 0
M  V30 5045 H 479.749 -2.76914 -4.01459 0
M  V30 5046 H 478.754 -4.72984 -2.80296 0
M  V30 5047 H 479.979 -5.80375 -3.52621 0
M  V30 5048 H 477.925 -4.16974 -5.06427 0
M  V30 5049 H 477.842 -5.87384 -4.75937 0
M  V30 5050 H 479.11 -5.24355 -5.76777 0
M  V30 5051 N 483.339 0.512053 -1.4905 0
M  V30 5052 C 484.564 1.2959 -1.6193 0
M  V30 5053 C 484.989 1.85906 -0.286454 0
M  V30 5054 O 484.347 1.65312 0.744426 0
M  V30 5055 C 484.395 2.40987 -2.68249 0
M  V30 5056 O 483.499 3.44531 -2.26654 0
M  V30 5057 H 482.84 0.383053 -0.542371 0
M  V30 5058 H 485.37 0.614231 -1.95162 0
M  V30 5059 H 485.38 2.86913 -2.90078 0
M  V30 5060 H 484.055 1.99361 -3.65004 0
M  V30 5061 H 482.632 3.046 -2.15112 0
M  V30 5062 N 484.817 1.37938 0.762283 0
M  V30 5063 C 486.063 1.33866 1.52341 0
M  V30 5064 C 486.396 -0.0738961 1.94059 0
M  V30 5065 O 485.671 -1.03326 1.64785 0
M  V30 5066 C 485.954 2.28644 2.78197 0
M  V30 5067 C 485.807 3.78722 2.42672 0
M  V30 5068 C 487.126 2.21702 3.80179 0
M  V30 5069 H 484.245 0.487593 0.55265 0
M  V30 5070 H 486.887 1.68717 0.873767 0
M  V30 5071 H 485.037 1.99055 3.33631 0
M  V30 5072 H 486.709 4.18948 1.93081 0
M  V30 5073 H 484.952 3.96827 1.75244 0
M  V30 5074 H 485.623 4.40486 3.3268 0
M  V30 5075 H 488.099 2.47805 3.34263 0
M  V30 5076 H 486.975 2.90143 4.65949 0
M  V30 5077 H 487.236 1.21301 4.25133 0
M  V30 5078 N 486.295 -0.989507 1.22664 0
M  V30 5079 C 487.542 -1.72953 1.05325 0
M  V30 5080 C 487.87 -1.90104 -0.411168 0
M  V30 5081 O 487.125 -1.44386 -1.32103 0
M  V30 5082 C 487.424 -3.13649 1.71345 0
M  V30 5083 C 487.09 -3.16403 3.21248 0
M  V30 5084 C 485.752 -3.16862 3.62149 0
M  V30 5085 C 488.104 -3.12428 4.17179 0
M  V30 5086 C 485.432 -3.11051 4.97458 0
M  V30 5087 C 487.784 -3.08159 5.52468 0
M  V30 5088 C 486.448 -3.06935 5.92746 0
M  V30 5089 H 485.718 -0.632881 0.385412 0
M  V30 5090 H 488.365 -1.15863 1.52473 0
M  V30 5091 H 486.67 -3.74069 1.16532 0
M  V30 5092 H 488.367 -3.69658 1.55416 0
M  V30 5093 H 484.957 -3.16798 2.88682 0
M  V30 5094 H 489.141 -3.11221 3.86595 0
M  V30 5095 H 484.397 -3.0845 5.27891 0
M  V30 5096 H 488.571 -3.04039 6.26525 0
M  V30 5097 H 486.198 -3.02186 6.97558 0
M  V30 5098 N 487.773 -1.03688 -1.18687 0
M  V30 5099 C 489.05 -0.652397 -1.84399 0
M  V30 5100 C 489.43 0.868386 -1.92412 0
M  V30 5101 O 488.778 1.76832 -1.44716 0
M  V30 5102 C 488.988 -1.3238 -3.22919 0
M  V30 5103 C 490.336 -1.45216 -3.98996 0
M  V30 5104 O 491.36 -1.2816 -3.32345 0
M  V30 5105 O 490.219 -1.72975 -5.18403 0
M  V30 5106 H 487.313 -0.227793 -0.795009 0
M  V30 5107 H 489.859 -1.13553 -1.2611 0
M  V30 5108 H 488.631 -2.36202 -3.11968 0
M  V30 5109 H 488.254 -0.829039 -3.88861 0
M  V30 5110 N 489.251 1.34841 -0.815825 0
M  V30 5111 C 490.481 2.02436 -0.412695 0
M  V30 5112 C 490.889 1.61604 0.983906 0
M  V30 5113 O 490.232 0.813729 1.64694 0
M  V30 5114 C 490.294 3.56953 -0.427182 0
M  V30 5115 C 489.958 4.21083 -1.77589 0
M  V30 5116 C 490.955 4.42107 -2.73564 0
M  V30 5117 C 488.64 4.58006 -2.06243 0
M  V30 5118 C 490.634 4.99169 -3.9637 0
M  V30 5119 C 488.321 5.1478 -3.2931 0
M  V30 5120 C 489.319 5.35304 -4.24191 0
M  V30 5121 O 489.007 5.90878 -5.45086 0
M  V30 5122 H 488.739 0.655631 -0.164695 0
M  V30 5123 H 491.293 1.73246 -1.1034 0
M  V30 5124 H 489.523 3.85372 0.320175 0
M  V30 5125 H 491.212 4.05875 -0.0450875 0
M  V30 5126 H 491.978 4.13953 -2.52721 0
M  V30 5127 H 487.857 4.41339 -1.33196 0
M  V30 5128 H 491.401 5.15105 -4.70439 0
M  V30 5129 H 487.298 5.42362 -3.5002 0
M  V30 5130 H 488.066 6.0932 -5.46508 0
M  V30 5131 N 490.729 0.570148 1.46925 0
M  V30 5132 C 491.976 0.0509529 2.02436 0
M  V30 5133 C 492.304 -1.30405 1.44308 0
M  V30 5134 O 491.559 -1.86493 0.593198 0
M  V30 5135 C 491.858 -0.0780336 3.57315 0
M  V30 5136 C 491.524 1.20775 4.34424 0
M  V30 5137 C 490.186 1.56004 4.5521 0
M  V30 5138 C 492.538 2.0592 4.78797 0
M  V30 5139 C 489.866 2.76201 5.17619 0
M  V30 5140 C 492.218 3.25332 5.42533 0
M  V30 5141 C 490.882 3.60859 5.61549 0
M  V30 5142 H 490.152 0.018645 0.740765 0
M  V30 5143 H 492.799 0.744262 1.76445 0
M  V30 5144 H 491.104 -0.854394 3.82371 0
M  V30 5145 H 492.801 -0.495312 3.97929 0
M  V30 5146 H 489.391 0.923469 4.18533 0
M  V30 5147 H 493.575 1.80008 4.62505 0
M  V30 5148 H 488.831 3.0388 5.30535 0
M  V30 5149 H 493.005 3.91586 5.75876 0
M  V30 5150 H 490.632 4.54088 6.09678 0
M  V30 5151 N 492.207 -1.54576 0.307264 0
M  V30 5152 C 493.117 -2.27435 -0.57536 0
M  V30 5153 C 494.133 -1.31183 -1.14311 0
M  V30 5154 O 495.309 -1.64175 -1.16656 0
M  V30 5155 C 492.374 -3.00566 -1.72803 0
M  V30 5156 C 491.435 -4.12369 -1.19373 0
M  V30 5157 C 490.668 -4.82003 -2.29147 0
M  V30 5158 O 490.891 -4.51038 -3.49171 0
M  V30 5159 O 489.825 -5.69271 -1.95485 0
M  V30 5160 H 493.651 -3.03696 0.0158558 0
M  V30 5161 H 491.236 -1.49219 0.0735064 0
M  V30 5162 H 493.118 -3.46416 -2.39946 0
M  V30 5163 H 491.793 -2.27195 -2.30574 0
M  V30 5164 H 490.7 -3.70905 -0.487851 0
M  V30 5165 H 492.033 -4.87736 -0.661376 0
M  V30 5166 N 493.685 -0.035106 -1.57561 0
M  V30 5167 C 494.595 0.960295 -2.14046 0
M  V30 5168 C 495.611 1.3529 -1.0942 0
M  V30 5169 O 496.787 1.43309 -1.41508 0
M  V30 5170 C 493.852 2.22214 -2.66124 0
M  V30 5171 C 492.913 1.8894 -3.85487 0
M  V30 5172 C 492.146 3.09109 -4.35072 0
M  V30 5173 O 492.369 4.21963 -3.83802 0
M  V30 5174 O 491.303 2.91058 -5.26848 0
M  V30 5175 H 495.129 0.509983 -2.99387 0
M  V30 5176 H 492.714 0.185853 -1.48239 0
M  V30 5177 H 494.596 2.96279 -2.99661 0
M  V30 5178 H 493.271 2.66414 -1.83862 0
M  V30 5179 H 492.178 1.12241 -3.56865 0
M  V30 5180 H 493.511 1.49551 -4.6893 0
M  V30 5181 N 495.163 1.55791 0.238111 0
M  V30 5182 C 496.393 1.81834 0.980809 0
M  V30 5183 C 496.801 0.609741 1.79106 0
M  V30 5184 O 496.144 -0.431073 1.78571 0
M  V30 5185 C 496.206 3.01363 1.96011 0
M  V30 5186 C 495.87 4.37037 1.33597 0
M  V30 5187 C 496.867 5.14692 0.734063 0
M  V30 5188 C 494.552 4.83743 1.3527 0
M  V30 5189 C 496.546 6.37206 0.157208 0
M  V30 5190 C 494.233 6.06204 0.77199 0
M  V30 5191 C 495.231 6.82775 0.175282 0
M  V30 5192 O 494.919 8.02922 -0.396432 0
M  V30 5193 H 494.651 0.6088 0.293834 0
M  V30 5194 H 497.205 2.03702 0.263552 0
M  V30 5195 H 495.435 2.75273 2.71591 0
M  V30 5196 H 497.124 3.14422 2.56697 0
M  V30 5197 H 497.89 4.79722 0.713582 0
M  V30 5198 H 493.769 4.24129 1.80653 0
M  V30 5199 H 497.313 6.96915 -0.30917 0
M  V30 5200 H 493.21 6.4065 0.789828 0
M  V30 5201 H 493.978 8.17989 -0.289145 0
M  V30 5202 N 496.642 -0.504142 1.49319 0
M  V30 5203 C 497.889 -1.25846 1.58647 0
M  V30 5204 C 498.217 -1.92592 0.27177 0
M  V30 5205 O 497.472 -1.81167 -0.74007 0
M  V30 5206 C 497.771 -2.35021 2.69258 0
M  V30 5207 C 497.437 -1.85755 4.1086 0
M  V30 5208 C 496.099 -1.72038 4.49395 0
M  V30 5209 C 498.451 -1.48844 4.99495 0
M  V30 5210 C 495.779 -1.19783 5.74342 0
M  V30 5211 C 498.131 -0.980422 6.24956 0
M  V30 5212 C 496.795 -0.829622 6.62324 0
M  V30 5213 H 496.065 -0.460505 0.580531 0
M  V30 5214 H 498.712 -0.559716 1.83138 0
M  V30 5215 H 497.017 -3.10672 2.38726 0
M  V30 5216 H 498.714 -2.93083 2.73685 0
M  V30 5217 H 495.304 -1.9739 3.80441 0
M  V30 5218 H 499.488 -1.5829 4.70381 0
M  V30 5219 H 494.744 -1.06817 6.01997 0
M  V30 5220 H 498.918 -0.685608 6.93017 0
M  V30 5221 H 496.545 -0.42253 7.59025 0
M  V30 5222 N 498.12 -1.38341 -0.754957 0
M  V30 5223 C 499.083 -1.35262 -1.85032 0
M  V30 5224 C 500.083 -0.253393 -1.58791 0
M  V30 5225 O 501.273 -0.510205 -1.66561 0
M  V30 5226 C 498.405 -1.10544 -3.22479 0
M  V30 5227 H 499.598 -2.32712 -1.8917 0
M  V30 5228 H 497.151 -1.23614 -0.956515 0
M  V30 5229 H 497.886 -0.136952 -3.24011 0
M  V30 5230 H 497.671 -1.90127 -3.4292 0
M  V30 5231 H 499.161 -1.11082 -4.02555 0
M  V30 5232 N 499.598 0.982988 -1.23187 0
M  V30 5233 C 500.531 2.07302 -0.953993 0
M  V30 5234 C 501.509 1.62249 0.106753 0
M  V30 5235 O 502.693 1.88481 -0.0269525 0
M  V30 5236 C 499.82 3.35873 -0.436716 0
M  V30 5237 C 498.866 3.99862 -1.48367 0
M  V30 5238 S 499.699 4.39443 -3.06023 0
M  V30 5239 C 500.855 5.7117 -2.55959 0
M  V30 5240 H 501.088 2.30554 -1.87702 0
M  V30 5241 H 498.621 1.11883 -1.06403 0
M  V30 5242 H 500.579 4.10244 -0.144872 0
M  V30 5243 H 499.24 3.10634 0.465351 0
M  V30 5244 H 498.433 4.92471 -1.07182 0
M  V30 5245 H 498.035 3.31857 -1.72473 0
M  V30 5246 H 500.327 6.47977 -1.97818 0
M  V30 5247 H 501.27 6.17194 -3.47098 0
M  V30 5248 H 501.678 5.29046 -1.96902 0
M  V30 5249 N 501.076 1.04316 1.18135 0
M  V30 5250 C 502.024 0.630175 2.23901 0
M  V30 5251 C 503.018 -0.344254 1.65865 0
M  V30 5252 O 504.224 -0.211273 1.78756 0
M  V30 5253 H 500.599 0.185578 0.728742 0
M  V30 5254 H 502.57 1.53253 2.56039 0
M  V30 5255 C 501.319 0.011666 3.47698 0
M  V30 5256 H 500.642 0.752526 3.92654 0
M  V30 5257 H 502.082 -0.240046 4.2332 0
M  V30 5258 C 500.541 -1.23913 3.13285 0
M  V30 5259 O 501.071 -2.32959 3.27251 0
M  V30 5260 N 499.277 -1.13338 2.67587 0
M  V30 5261 H 498.824 -0.246006 2.56423 0
M  V30 5262 H 498.782 -1.97116 2.44934 0
M  V30 5263 N 502.554 -1.34406 0.822964 0
M  V30 5264 C 503.784 -2.02214 0.423424 0
M  V30 5265 C 504.192 -1.62124 -0.975322 0
M  V30 5266 O 503.535 -0.822452 -1.6426 0
M  V30 5267 C 503.597 -3.56721 0.446107 0
M  V30 5268 C 503.261 -4.20136 1.79819 0
M  V30 5269 C 504.258 -4.4065 2.75904 0
M  V30 5270 C 501.943 -4.56906 2.08669 0
M  V30 5271 C 503.937 -4.9706 3.99012 0
M  V30 5272 C 501.624 -5.13026 3.32036 0
M  V30 5273 C 502.622 -5.33047 4.27024 0
M  V30 5274 O 502.31 -5.87979 5.48211 0
M  V30 5275 H 502.042 -0.654748 0.168169 0
M  V30 5276 H 504.596 -1.72659 1.11257 0
M  V30 5277 H 502.826 -3.85537 -0.299734 0
M  V30 5278 H 504.515 -4.05845 0.0666114 0
M  V30 5279 H 505.281 -4.12607 2.54912 0
M  V30 5280 H 501.16 -4.40626 1.35535 0
M  V30 5281 H 504.704 -5.12603 4.73164 0
M  V30 5282 H 500.601 -5.40498 3.52891 0
M  V30 5283 H 501.369 -6.06413 5.49732 0
M  V30 5284 N 504.032 -0.577932 -1.46621 0
M  V30 5285 C 505.257 -0.0652536 -2.07297 0
M  V30 5286 C 505.682 1.22828 -1.4246 0
M  V30 5287 O 505.04 1.74075 -0.506718 0
M  V30 5288 C 505.088 0.0920589 -3.60482 0
M  V30 5289 O 504.192 1.14972 -3.96049 0
M  V30 5290 H 503.533 -0.06065 -0.661224 0
M  V30 5291 H 506.063 -0.799515 -1.88332 0
M  V30 5292 H 506.073 0.299741 -4.06897 0
M  V30 5293 H 504.748 -0.852612 -4.07067 0
M  V30 5294 H 503.325 0.920879 -3.61351 0
M  V30 5295 N 505.51 1.54411 -0.315457 0
M  V30 5296 C 506.44 2.27002 0.547039 0
M  V30 5297 C 507.421 1.27492 1.12605 0
M  V30 5298 O 508.606 1.5629 1.15269 0
M  V30 5299 C 505.736 3.02171 1.71201 0
M  V30 5300 C 504.69 4.0895 1.26268 0
M  V30 5301 C 504.016 4.71915 2.51396 0
M  V30 5302 C 505.316 5.20891 0.383419 0
M  V30 5303 H 507.01 2.99343 -0.0584517 0
M  V30 5304 H 504.556 1.4397 -0.0295527 0
M  V30 5305 H 506.509 3.51681 2.32161 0
M  V30 5306 H 505.233 2.27433 2.34397 0
M  V30 5307 H 503.892 3.60312 0.676062 0
M  V30 5308 H 503.54 3.93801 3.12937 0
M  V30 5309 H 503.24 5.44039 2.22026 0
M  V30 5310 H 504.764 5.24195 3.13133 0
M  V30 5311 H 506.178 5.66206 0.899082 0
M  V30 5312 H 504.575 5.99821 0.182857 0
M  V30 5313 H 505.645 4.81324 -0.587821 0
M  V30 5314 N 506.988 0.0434614 1.5754 0
M  V30 5315 C 508.399 -0.493343 1.80064 0
M  V30 5316 C 508.75 -1.71388 0.955023 0
M  V30 5317 O 507.875 -2.15736 0.169434 0
M  V30 5318 C 508.47 -0.90179 3.26578 0
M  V30 5319 C 507.029 -1.38362 3.50047 0
M  V30 5320 C 506.176 -0.355129 2.75017 0
M  V30 5321 H 509.127 0.2694 1.56397 0
M  V30 5322 H 509.148 -1.76523 3.37075 0
M  V30 5323 H 508.66 -0.013271 3.88098 0
M  V30 5324 H 506.761 -2.29159 2.93798 0
M  V30 5325 H 506.874 -1.3811 4.58762 0
M  V30 5326 H 505.238 -0.826348 2.40922 0
M  V30 5327 H 506.021 0.525172 3.39259 0
M  V30 5328 N 508.466 -1.55915 -0.229846 0
M  V30 5329 C 509.413 -1.91734 -1.28478 0
M  V30 5330 C 510.383 -0.773539 -1.46988 0
M  V30 5331 O 511.568 -1.02871 -1.60693 0
M  V30 5332 C 508.708 -2.23224 -2.63182 0
M  V30 5333 C 507.821 -3.50497 -2.52539 0
M  V30 5334 C 506.956 -3.71474 -3.79711 0
M  V30 5335 C 505.995 -4.92289 -3.63755 0
M  V30 5336 N 505.132 -5.09698 -4.82858 0
M  V30 5337 H 509.972 -2.81692 -0.972308 0
M  V30 5338 H 507.509 -1.39429 -0.468815 0
M  V30 5339 H 509.467 -2.3949 -3.41614 0
M  V30 5340 H 508.097 -1.36451 -2.92542 0
M  V30 5341 H 507.149 -3.4247 -1.65585 0
M  V30 5342 H 508.461 -4.39079 -2.36666 0
M  V30 5343 H 507.615 -3.87791 -4.66586 0
M  V30 5344 H 506.354 -2.81157 -3.985 0
M  V30 5345 H 505.359 -4.7593 -2.75264 0
M  V30 5346 H 506.584 -5.84083 -3.46445 0
M  V30 5347 H 504.53 -4.22322 -5.01976 0
M  V30 5348 H 504.447 -5.92399 -4.69681 0
M  V30 5349 H 505.715 -5.30443 -5.71183 0
M  V30 5350 N 509.944 0.496216 -1.49584 0
M  V30 5351 C 510.874 1.60576 -1.69521 0
M  V30 5352 C 511.855 1.61169 -0.543933 0
M  V30 5353 O 513.04 1.77834 -0.78031 0
M  V30 5354 C 510.17 2.99038 -1.76616 0
M  V30 5355 C 509.124 3.13312 -2.91581 0
M  V30 5356 C 508.45 4.53172 -2.83794 0
M  V30 5357 C 509.75 2.92886 -4.32452 0
M  V30 5358 H 511.444 1.44146 -2.62416 0
M  V30 5359 H 508.99 0.692024 -1.26282 0
M  V30 5360 H 510.943 3.76564 -1.8915 0
M  V30 5361 H 509.667 3.16568 -0.80324 0
M  V30 5362 H 508.326 2.38213 -2.78658 0
M  V30 5363 H 507.974 4.67585 -1.854 0
M  V30 5364 H 507.674 4.63662 -3.60958 0
M  V30 5365 H 509.198 5.32752 -2.98342 0
M  V30 5366 H 510.612 3.60178 -4.46032 0
M  V30 5367 H 509.009 3.14844 -5.10875 0
M  V30 5368 H 510.079 1.88966 -4.46565 0
M  V30 5369 N 511.423 1.38739 0.74761 0
M  V30 5370 C 512.7 1.25791 1.49786 0
M  V30 5371 C 513.08 -0.138075 2.10648 0
M  V30 5372 O 512.428 -1.14815 1.9756 0
M  V30 5373 C 512.638 2.37265 2.55942 0
M  V30 5374 C 513.986 2.75978 3.22679 0
M  V30 5375 O 515.01 2.36621 2.6625 0
M  V30 5376 O 513.869 3.43867 4.24756 0
M  V30 5377 H 510.963 0.492251 0.664543 0
M  V30 5378 H 513.509 1.50582 0.782511 0
M  V30 5379 H 512.281 3.30644 2.0926 0
M  V30 5380 H 511.904 2.14071 3.35051 0
M  V30 5381 N 512.901 -0.976442 1.23707 0
M  V30 5382 C 513.848 -2.06952 1.02174 0
M  V30 5383 C 514.818 -1.65984 -0.0621034 0
M  V30 5384 O 516.003 -1.90584 0.0907906 0
M  V30 5385 C 513.143 -3.39425 0.62327 0
M  V30 5386 C 512.256 -3.9364 1.77966 0
M  V30 5387 C 511.391 -5.14343 1.3276 0
M  V30 5388 C 510.43 -5.60733 2.45449 0
M  V30 5389 N 509.567 -6.72662 2.01172 0
M  V30 5390 H 514.407 -2.24704 1.95734 0
M  V30 5391 H 511.944 -1.10143 0.975034 0
M  V30 5392 H 513.902 -4.15526 0.37332 0
M  V30 5393 H 512.532 -3.21624 -0.275329 0
M  V30 5394 H 511.584 -3.14258 2.14351 0
M  V30 5395 H 512.896 -4.24035 2.62671 0
M  V30 5396 H 512.05 -5.97789 1.03601 0
M  V30 5397 H 510.789 -4.8561 0.450975 0
M  V30 5398 H 509.794 -4.75865 2.75378 0
M  V30 5399 H 511.019 -5.91483 3.33654 0
M  V30 5400 H 508.965 -6.45681 1.15895 0
M  V30 5401 H 508.882 -7.02462 2.79434 0
M  V30 5402 H 510.15 -7.59572 1.75129 0
M  V30 5403 N 514.379 -1.04941 -1.1758 0
M  V30 5404 C 515.628 -0.753124 -1.87112 0
M  V30 5405 C 515.941 0.722507 -1.81767 0
M  V30 5406 O 517.147 1.13265 -2.46746 0
M  V30 5407 C 515.603 -1.29695 -3.35719 0
M  V30 5408 C 515.211 -2.80184 -3.49572 0
M  V30 5409 C 516.955 -1.07759 -4.10595 0
M  V30 5410 C 514.862 -3.2788 -4.92187 0
M  V30 5411 H 513.792 -0.278034 -0.700866 0
M  V30 5412 H 516.443 -1.26637 -1.32798 0
M  V30 5413 H 514.825 -0.711522 -3.89555 0
M  V30 5414 H 515.999 -3.44561 -3.05965 0
M  V30 5415 H 514.314 -3.00632 -2.88113 0
M  V30 5416 H 516.911 -1.40899 -5.15802 0
M  V30 5417 H 517.254 -0.0152302 -4.16297 0
M  V30 5418 H 517.787 -1.62809 -3.62957 0
M  V30 5419 H 514.526 -4.33535 -4.91658 0
M  V30 5420 H 514.046 -2.68245 -5.36475 0
M  V30 5421 H 515.725 -3.22412 -5.60945 0
M  V30 5422 N 515.857 1.33968 -0.830081 0
M  V30 5423 C 516.82 2.27694 -0.26235 0
M  V30 5424 C 517.82 1.50589 0.563876 0
M  V30 5425 O 519.01 1.70028 0.378941 0
M  V30 5426 C 516.142 3.35002 0.63138 0
M  V30 5427 H 517.335 2.79419 -1.08928 0
M  V30 5428 H 514.888 1.44221 -0.602486 0
M  V30 5429 H 515.623 2.88504 1.48109 0
M  V30 5430 H 515.408 3.92079 0.0403276 0
M  V30 5431 H 516.898 4.04897 1.02217 0
M  V30 5432 N 517.335 0.585699 1.46312 0
M  V30 5433 C 518.584 0.0701192 2.01578 0
M  V30 5434 C 518.897 -1.29889 1.46247 0
M  V30 5435 O 520.103 -1.90598 1.93351 0
M  V30 5436 C 518.559 0.0747499 3.59822 0
M  V30 5437 C 518.167 1.44226 4.24149 0
M  V30 5438 C 519.911 -0.38673 4.22735 0
M  V30 5439 C 517.818 1.40446 5.74481 0
M  V30 5440 H 516.748 0.0224441 0.753666 0
M  V30 5441 H 519.399 0.737789 1.68015 0
M  V30 5442 H 517.781 -0.659144 3.90476 0
M  V30 5443 H 518.955 2.19612 4.05101 0
M  V30 5444 H 517.27 1.84401 3.73343 0
M  V30 5445 H 519.867 -0.433853 5.32937 0
M  V30 5446 H 520.21 -1.40489 3.91878 0
M  V30 5447 H 520.743 0.293195 3.96718 0
M  V30 5448 H 517.482 2.39952 6.10003 0
M  V30 5449 H 517.002 0.692845 5.95785 0
M  V30 5450 H 518.681 1.11865 6.37256 0
M  V30 5451 N 518.813 -1.54241 0.323641 0
M  V30 5452 C 520.224 -1.85975 -0.164405 0
M  V30 5453 C 520.575 -1.24529 -1.51615 0
M  V30 5454 O 519.7 -0.551351 -2.09258 0
M  V30 5455 C 520.295 -3.37424 -0.305091 0
M  V30 5456 C 518.854 -3.69107 -0.737358 0
M  V30 5457 C 518.001 -2.76942 0.140884 0
M  V30 5458 H 520.952 -1.49088 0.543922 0
M  V30 5459 H 520.973 -3.63147 -1.13598 0
M  V30 5460 H 520.485 -3.82116 0.678876 0
M  V30 5461 H 518.586 -3.29947 -1.73107 0
M  V30 5462 H 518.699 -4.76035 -0.541053 0
M  V30 5463 H 517.063 -2.51795 -0.383572 0
M  V30 5464 H 517.846 -3.24461 1.12162 0
M  V30 5465 N 520.291 -0.0518155 -1.57515 0
M  V30 5466 C 521.568 0.661727 -1.84067 0
M  V30 5467 C 521.948 1.88999 -0.940351 0
M  V30 5468 O 521.296 2.285 -0.00155404 0
M  V30 5469 C 521.506 1.01841 -3.3381 0
M  V30 5470 C 522.854 1.40043 -4.00841 0
M  V30 5471 O 523.878 1.11073 -3.38439 0
M  V30 5472 O 522.737 1.94111 -5.10865 0
M  V30 5473 H 519.831 0.326702 -0.759733 0
M  V30 5474 H 522.377 -0.0812277 -1.69505 0
M  V30 5475 H 521.149 0.145202 -3.91031 0
M  V30 5476 H 520.772 1.81879 -3.53562 0
M  V30 5477 N 521.769 1.56035 0.221574 0
M  V30 5478 C 523.016 1.79047 0.94597 0
M  V30 5479 C 523.344 0.62057 1.84334 0
M  V30 5480 O 522.599 -0.395053 1.91671 0
M  V30 5481 C 522.898 3.07813 1.8162 0
M  V30 5482 C 522.564 4.3797 1.07206 0
M  V30 5483 C 521.226 4.73334 0.866508 0
M  V30 5484 C 523.578 5.18326 0.546565 0
M  V30 5485 C 520.906 5.8657 0.123549 0
M  V30 5486 C 523.258 6.32335 -0.18305 0
M  V30 5487 C 521.922 6.66301 -0.399861 0
M  V30 5488 H 521.192 0.655178 0.346155 0
M  V30 5489 H 523.839 1.90299 0.214146 0
M  V30 5490 H 522.144 2.91682 2.61589 0
M  V30 5491 H 523.841 3.2282 2.37884 0
M  V30 5492 H 520.431 4.10202 1.24226 0
M  V30 5493 H 524.615 4.9144 0.692847 0
M  V30 5494 H 519.871 6.11376 -0.0546591 0
M  V30 5495 H 524.045 6.9383 -0.59775 0
M  V30 5496 H 521.672 7.53889 -0.977489 0
M  V30 5497 N 523.247 -0.488276 1.49845 0
M  V30 5498 C 524.495 -1.23911 1.59657 0
M  V30 5499 C 524.816 -1.92816 0.291005 0
M  V30 5500 O 524.086 -1.83328 -0.690485 0
M  V30 5501 H 522.666 -0.460357 0.588286 0
M  V30 5502 H 525.328 -0.564794 1.86537 0
M  V30 5503 H 524.424 -1.99625 2.39909 0
M  V30 5504 N 524.725 -1.39134 -0.740242 0
M  V30 5505 C 525.953 -1.39334 -1.5295 0
M  V30 5506 C 526.368 0.0135008 -1.88795 0
M  V30 5507 O 525.725 0.983524 -1.5373 0
M  V30 5508 C 525.776 -2.2614 -2.82034 0
M  V30 5509 O 525.497 -3.61345 -2.47712 0
M  V30 5510 C 526.998 -2.34666 -3.76094 0
M  V30 5511 H 524.218 -0.476103 -0.472828 0
M  V30 5512 H 526.762 -1.82883 -0.9151 0
M  V30 5513 H 524.917 -1.86018 -3.39818 0
M  V30 5514 H 525.331 -4.07194 -3.30595 0
M  V30 5515 H 526.805 -2.99663 -4.63579 0
M  V30 5516 H 527.282 -1.36426 -4.17474 0
M  V30 5517 H 527.888 -2.75236 -3.2423 0
M  V30 5518 N 526.204 0.969867 -1.24223 0
M  V30 5519 C 527.452 1.70918 -1.0785 0
M  V30 5520 C 527.773 1.91186 0.383763 0
M  V30 5521 O 527.043 1.48806 1.27411 0
M  V30 5522 H 525.623 0.633334 -0.396103 0
M  V30 5523 H 528.285 1.16689 -1.56108 0
M  V30 5524 H 527.381 2.69455 -1.57482 0
M  V30 5525 N 527.682 1.05563 1.17022 0
M  V30 5526 C 528.645 0.664098 2.19368 0
M  V30 5527 C 529.645 -0.286358 1.5823 0
M  V30 5528 O 530.835 -0.069728 1.7406 0
M  V30 5529 C 527.967 -0.0239932 3.40892 0
M  V30 5530 H 529.16 1.57 2.55521 0
M  V30 5531 H 526.713 0.849964 1.31169 0
M  V30 5532 H 527.448 -0.942988 3.10287 0
M  V30 5533 H 527.233 0.659351 3.86516 0
M  V30 5534 H 528.723 -0.283909 4.16634 0
M  V30 5535 N 529.16 -1.33526 0.837174 0
M  V30 5536 C 530.093 -2.27192 0.214233 0
M  V30 5537 C 531.071 -1.49575 -0.637657 0
M  V30 5538 O 532.255 -1.78753 -0.598291 0
M  V30 5539 C 529.382 -3.31401 -0.699367 0
M  V30 5540 C 528.428 -4.26431 0.0768429 0
M  V30 5541 S 529.261 -5.15954 1.4336 0
M  V30 5542 C 530.417 -6.23692 0.525251 0
M  V30 5543 H 530.65 -2.79679 1.00831 0
M  V30 5544 H 528.183 -1.4079 0.633834 0
M  V30 5545 H 530.141 -3.91924 -1.22088 0
M  V30 5546 H 528.802 -2.77732 -1.46709 0
M  V30 5547 H 527.995 -5.00193 -0.618268 0
M  V30 5548 H 527.597 -3.70235 0.529364 0
M  V30 5549 H 529.889 -6.76931 -0.277575 0
M  V30 5550 H 530.832 -6.97283 1.23299 0
M  V30 5551 H 531.24 -5.64398 0.107351 0
M  V30 5552 N 530.638 -0.59345 -1.46 0
M  V30 5553 C 531.548 0.135817 -2.34207 0
M  V30 5554 C 532.564 0.875008 -1.50398 0
M  V30 5555 O 533.74 0.835778 -1.83239 0
M  V30 5556 C 530.805 1.12977 -3.27776 0
M  V30 5557 C 529.866 0.394081 -4.27487 0
M  V30 5558 C 529.099 1.34068 -5.16586 0
M  V30 5559 O 529.322 2.5778 -5.08828 0
M  V30 5560 O 528.256 0.845426 -5.95933 0
M  V30 5561 H 532.082 -0.588691 -2.9794 0
M  V30 5562 H 529.667 -0.353784 -1.45151 0
M  V30 5563 H 531.549 1.70261 -3.85473 0
M  V30 5564 H 530.224 1.83556 -2.66625 0
M  V30 5565 H 529.131 -0.220869 -3.73447 0
M  V30 5566 H 530.464 -0.270939 -4.91454 0
M  V30 5567 N 532.116 1.54067 -0.331816 0
M  V30 5568 C 533.064 2.26105 0.54582 0
M  V30 5569 C 534.058 1.27816 1.11173 0
M  V30 5570 O 535.264 1.45565 1.05882 0
M  V30 5571 H 531.639 0.726363 0.194683 0
M  V30 5572 H 533.61 2.98282 -0.083931 0
M  V30 5573 C 532.359 3.03814 1.69092 0
M  V30 5574 H 531.682 3.79269 1.26473 0
M  V30 5575 H 533.122 3.57453 2.28043 0
M  V30 5576 C 531.581 2.12606 2.61343 0
M  V30 5577 O 532.111 1.71437 3.6328 0
M  V30 5578 N 530.317 1.77925 2.29763 0
M  V30 5579 H 529.864 2.11602 1.46909 0
M  V30 5580 H 529.822 1.1718 2.91747 0
M  V30 5581 N 533.594 0.0601682 1.57485 0
M  V30 5582 C 534.84 -0.606552 1.94146 0
M  V30 5583 C 535.195 -1.67918 0.939225 0
M  V30 5584 O 534.488 -1.91558 -0.0402649 0
M  V30 5585 C 534.682 -1.23831 3.35262 0
M  V30 5586 C 534.511 -0.228408 4.4912 0
M  V30 5587 C 533.281 0.182813 5.04969 0
M  V30 5588 C 535.479 0.52975 5.11564 0
M  V30 5589 N 533.461 1.18464 6.02362 0
M  V30 5590 C 534.832 1.38439 6.04346 0
M  V30 5591 C 536.887 0.587084 4.94427 0
M  V30 5592 C 535.59 2.29125 6.81832 0
M  V30 5593 C 537.616 1.4814 5.72546 0
M  V30 5594 C 536.978 2.32375 6.64967 0
M  V30 5595 H 533.077 -0.193328 0.757726 0
M  V30 5596 H 535.661 0.1346 1.94234 0
M  V30 5597 H 533.832 -1.94944 3.35933 0
M  V30 5598 H 535.564 -1.86456 3.59188 0
M  V30 5599 H 532.319 -0.197968 4.73186 0
M  V30 5600 H 532.743 1.68271 6.55754 0
M  V30 5601 H 537.385 -0.049944 4.22771 0
M  V30 5602 H 535.103 2.93868 7.52773 0
M  V30 5603 H 538.689 1.53045 5.6131 0
M  V30 5604 H 537.569 3.00454 7.2436 0
M  V30 5605 N 535.072 -1.5615 -0.213296 0
M  V30 5606 C 536.32 -1.79191 -0.934612 0
M  V30 5607 C 536.641 -0.630112 -1.84539 0
M  V30 5608 O 535.911 0.35257 -1.92701 0
M  V30 5609 H 534.491 -0.660937 -0.348097 0
M  V30 5610 H 537.153 -1.93618 -0.22317 0
M  V30 5611 H 536.249 -2.71656 -1.53654 0
M  V30 5612 N 536.55 0.480323 -1.50102 0
M  V30 5613 C 537.48 1.58769 -1.71215 0
M  V30 5614 C 538.461 1.60583 -0.560997 0
M  V30 5615 O 539.646 1.76996 -0.799127 0
M  V30 5616 C 536.776 2.97148 -1.79778 0
M  V30 5617 C 535.73 3.10201 -2.94888 0
M  V30 5618 C 535.056 4.50137 -2.88584 0
M  V30 5619 C 536.356 2.88283 -4.35534 0
M  V30 5620 H 538.05 1.41354 -2.6393 0
M  V30 5621 H 535.596 0.678591 -1.27008 0
M  V30 5622 H 537.549 3.74536 -1.93133 0
M  V30 5623 H 536.273 3.15699 -0.836772 0
M  V30 5624 H 534.932 2.35244 -2.81169 0
M  V30 5625 H 534.58 4.65593 -1.90349 0
M  V30 5626 H 534.28 4.59808 -3.65856 0
M  V30 5627 H 535.804 5.29558 -3.03976 0
M  V30 5628 H 537.218 3.55427 -4.49827 0
M  V30 5629 H 535.615 3.09408 -5.14186 0
M  V30 5630 H 536.685 1.84219 -4.48544 0
M  V30 5631 N 538.028 1.39524 0.732853 0
M  V30 5632 C 539.277 1.36175 1.48792 0
M  V30 5633 C 539.59 -0.0388195 1.95561 0
M  V30 5634 O 540.796 -0.194899 2.708 0
M  V30 5635 C 539.252 2.39242 2.68871 0
M  V30 5636 C 538.86 3.85024 2.29042 0
M  V30 5637 C 540.604 2.44972 3.46683 0
M  V30 5638 C 538.511 4.79727 3.45856 0
M  V30 5639 H 537.441 0.506267 0.558757 0
M  V30 5640 H 540.092 1.65181 0.799226 0
M  V30 5641 H 538.474 2.0331 3.39825 0
M  V30 5642 H 539.648 4.30008 1.6562 0
M  V30 5643 H 537.963 3.82609 1.64316 0
M  V30 5644 H 540.56 3.12918 4.33574 0
M  V30 5645 H 540.903 1.4749 3.89297 0
M  V30 5646 H 541.436 2.79808 2.82759 0
M  V30 5647 H 538.175 5.78479 3.08289 0
M  V30 5648 H 537.695 4.39421 4.08251 0
M  V30 5649 H 539.374 4.98731 4.12161 0
M  V30 5650 N 539.506 -0.963266 1.24736 0
M  V30 5651 C 540.734 -1.74166 1.11686 0
M  V30 5652 C 541.149 -1.8589 -0.330187 0
M  V30 5653 O 540.506 -1.35042 -1.2276 0
M  V30 5654 C 540.557 -3.15989 1.75595 0
M  V30 5655 O 540.278 -3.04847 3.14642 0
M  V30 5656 C 541.779 -4.10145 1.68213 0
M  V30 5657 H 538.999 -0.546031 0.389989 0
M  V30 5658 H 541.543 -1.20907 1.64929 0
M  V30 5659 H 539.698 -3.66219 1.26343 0
M  V30 5660 H 540.112 -3.9425 3.4593 0
M  V30 5661 H 541.586 -5.07299 2.17604 0
M  V30 5662 H 542.063 -4.3445 0.644208 0
M  V30 5663 H 542.669 -3.65827 2.16912 0
M  V30 5664 N 540.985 -1.06182 -1.16461 0
M  V30 5665 C 542.215 -0.797425 -1.9059 0
M  V30 5666 C 542.623 0.651845 -1.77616 0
M  V30 5667 O 541.966 1.45788 -1.11766 0
M  V30 5668 C 542.028 -1.11128 -3.41893 0
M  V30 5669 C 541.692 -2.55874 -3.78652 0
M  V30 5670 C 542.689 -3.54104 -3.80665 0
M  V30 5671 C 540.374 -2.91144 -4.09317 0
M  V30 5672 C 542.368 -4.85645 -4.12829 0
M  V30 5673 C 540.055 -4.22885 -4.41148 0
M  V30 5674 C 541.053 -5.19945 -4.42883 0
M  V30 5675 O 540.741 -6.49322 -4.73959 0
M  V30 5676 H 540.473 -0.288709 -0.611247 0
M  V30 5677 H 543.027 -1.41841 -1.4856 0
M  V30 5678 H 541.257 -0.433217 -3.84266 0
M  V30 5679 H 542.946 -0.831306 -3.97296 0
M  V30 5680 H 543.712 -3.28197 -3.57088 0
M  V30 5681 H 539.591 -2.16252 -4.07131 0
M  V30 5682 H 543.135 -5.61398 -4.14099 0
M  V30 5683 H 539.032 -4.48551 -4.6419 0
M  V30 5684 H 539.8 -6.54294 -4.91774 0
M  V30 5685 N 542.463 1.3308 -0.844243 0
M  V30 5686 C 543.879 1.50447 -0.532729 0
M  V30 5687 C 544.079 1.78292 0.938837 0
M  V30 5688 O 543.135 1.84635 1.72239 0
M  V30 5689 C 544.448 2.65555 -1.41072 0
M  V30 5690 C 545.996 2.7944 -1.41005 0
M  V30 5691 C 546.471 3.97616 -2.27301 0
M  V30 5692 N 547.962 4.0486 -2.2504 0
M  V30 5693 C 548.697 4.95508 -2.88547 0
M  V30 5694 N 548.193 5.91236 -3.61126 0
M  V30 5695 N 549.986 4.88548 -2.77989 0
M  V30 5696 H 542.137 1.13269 -1.79677 0
M  V30 5697 H 544.4 0.55734 -0.766861 0
M  V30 5698 H 544.106 2.51675 -2.45668 0
M  V30 5699 H 543.98 3.61089 -1.09061 0
M  V30 5700 H 546.367 2.92749 -0.371784 0
M  V30 5701 H 546.448 1.8465 -1.77026 0
M  V30 5702 H 546.092 3.85066 -3.3119 0
M  V30 5703 H 546.022 4.91661 -1.88619 0
M  V30 5704 H 548.513 3.36353 -1.72264 0
M  V30 5705 H 548.826 6.57079 -4.06776 0
M  V30 5706 H 547.171 5.91295 -3.65234 0
M  V30 5707 H 550.362 4.12729 -2.20846 0
M  V30 5708 H 550.535 5.58994 -3.27765 0
M  V30 5709 N 543.941 0.601185 1.45683 0
M  V30 5710 C 544.851 -0.123395 2.34275 0
M  V30 5711 C 545.867 -0.86702 1.5086 0
M  V30 5712 O 547.043 -0.826049 1.8368 0
M  V30 5713 C 544.108 -1.11237 3.2837 0
M  V30 5714 C 543.169 -0.371405 4.2769 0
M  V30 5715 C 542.402 -1.31327 5.1729 0
M  V30 5716 O 542.625 -2.55078 5.10188 0
M  V30 5717 O 541.559 -0.813811 5.96373 0
M  V30 5718 H 545.385 0.604483 2.97623 0
M  V30 5719 H 542.97 0.361477 1.44961 0
M  V30 5720 H 544.852 -1.68214 3.8637 0
M  V30 5721 H 543.527 -1.82139 2.67595 0
M  V30 5722 H 542.434 0.24067 3.73325 0
M  V30 5723 H 543.767 0.296998 4.91303 0
M  V30 5724 N 545.419 -1.53889 0.339982 0
M  V30 5725 C 546.647 -2.05271 -0.259114 0
M  V30 5726 C 547.062 -1.21517 -1.44496 0
M  V30 5727 O 546.419 -0.24966 -1.80784 0
M  V30 5728 C 546.47 -3.55092 -0.677634 0
M  V30 5729 O 546.191 -4.35667 0.461051 0
M  V30 5730 C 547.692 -4.22631 -1.33782 0
M  V30 5731 H 544.912 -0.669085 -0.0506566 0
M  V30 5732 H 547.456 -1.9852 0.490935 0
M  V30 5733 H 545.611 -3.62077 -1.37763 0
M  V30 5734 H 546.025 -5.24343 0.128144 0
M  V30 5735 H 547.499 -5.28861 -1.58145 0
M  V30 5736 H 547.976 -3.74758 -2.29027 0
M  V30 5737 H 548.582 -4.19829 -0.679957 0
M  V30 5738 N 546.897 -0.0685191 -1.57451 0
M  V30 5739 C 547.845 0.917577 -2.13736 0
M  V30 5740 C 548.839 1.31049 -1.07344 0
M  V30 5741 O 550.045 1.28811 -1.25728 0
M  V30 5742 H 546.42 0.313835 -0.683382 0
M  V30 5743 H 548.391 0.417903 -2.95459 0
M  V30 5744 C 547.14 2.17686 -2.71123 0
M  V30 5745 H 546.463 1.88336 -3.52661 0
M  V30 5746 H 547.903 2.84803 -3.14107 0
M  V30 5747 C 546.362 2.9332 -1.65726 0
M  V30 5748 O 546.892 3.86901 -1.08031 0
M  V30 5749 N 545.098 2.56367 -1.36837 0
M  V30 5750 H 544.645 1.80341 -1.83943 0
M  V30 5751 H 544.603 3.07276 -0.665501 0
M  V30 5752 N 548.375 1.56261 0.205012 0
M  V30 5753 C 549.305 1.96779 1.257 0
M  V30 5754 C 550.286 0.838309 1.48008 0
M  V30 5755 O 551.471 1.10189 1.59913 0
M  V30 5756 C 548.601 2.29876 2.60335 0
M  V30 5757 C 547.555 3.45469 2.52656 0
M  V30 5758 C 546.881 3.64215 3.91473 0
M  V30 5759 C 548.181 4.79954 2.06014 0
M  V30 5760 H 549.875 2.84904 0.920338 0
M  V30 5761 H 547.421 1.37072 0.441277 0
M  V30 5762 H 549.374 2.56814 3.34102 0
M  V30 5763 H 548.098 1.38622 2.95722 0
M  V30 5764 H 546.757 3.18605 1.81345 0
M  V30 5765 H 546.405 2.70309 4.24196 0
M  V30 5766 H 546.105 4.41973 3.87213 0
M  V30 5767 H 547.629 3.93519 4.66878 0
M  V30 5768 H 549.043 5.05989 2.69533 0
M  V30 5769 H 547.44 5.61111 2.12777 0
M  V30 5770 H 548.51 4.74201 1.01297 0
M  V30 5771 N 549.853 -0.472356 1.50355 0
M  V30 5772 C 550.783 -1.57859 1.72055 0
M  V30 5773 C 551.764 -1.60283 0.569505 0
M  V30 5774 O 552.949 -1.7657 0.808503 0
M  V30 5775 C 550.079 -2.96191 1.81351 0
M  V30 5776 C 549.033 -3.08633 2.96529 0
M  V30 5777 C 548.359 -4.486 2.90968 0
M  V30 5778 C 549.659 -2.85969 4.37057 0
M  V30 5779 H 551.353 -1.39953 2.64676 0
M  V30 5780 H 548.899 -0.671846 1.27367 0
M  V30 5781 H 550.852 -3.73507 1.95117 0
M  V30 5782 H 549.576 -3.15251 0.853502 0
M  V30 5783 H 548.235 -2.33749 2.82413 0
M  V30 5784 H 547.883 -4.64577 1.92815 0
M  V30 5785 H 547.583 -4.57861 3.68289 0
M  V30 5786 H 549.107 -5.27938 3.0678 0
M  V30 5787 H 550.521 -3.53036 4.51706 0
M  V30 5788 H 548.918 -3.06677 5.15819 0
M  V30 5789 H 549.988 -1.81838 4.49514 0
M  V30 5790 N 551.331 -1.39911 -0.725443 0
M  V30 5791 C 552.561 -1.40744 -1.51244 0
M  V30 5792 C 552.969 -0.00275403 -1.892 0
M  V30 5793 O 552.312 0.981299 -1.55294 0
M  V30 5794 C 552.374 -2.22527 -2.82351 0
M  V30 5795 C 552.038 -3.71053 -2.66774 0
M  V30 5796 C 553.035 -4.63916 -2.34686 0
M  V30 5797 C 550.72 -4.14753 -2.83347 0
M  V30 5798 C 552.714 -5.98463 -2.19366 0
M  V30 5799 C 550.401 -5.49372 -2.67644 0
M  V30 5800 C 551.399 -6.41042 -2.357 0
M  V30 5801 O 551.087 -7.73181 -2.20107 0
M  V30 5802 H 550.819 -0.482314 -0.473655 0
M  V30 5803 H 553.373 -1.84472 -0.903284 0
M  V30 5804 H 551.603 -1.73563 -3.45562 0
M  V30 5805 H 553.292 -2.15421 -3.44018 0
M  V30 5806 H 554.058 -4.31453 -2.21525 0
M  V30 5807 H 549.937 -3.43728 -3.072 0
M  V30 5808 H 553.481 -6.69979 -1.94354 0
M  V30 5809 H 549.378 -5.81424 -2.80387 0
M  V30 5810 H 550.146 -7.84008 -2.35103 0
M  V30 5811 N 552.809 0.956637 -1.25245 0
M  V30 5812 C 554.086 1.67716 -1.00651 0
M  V30 5813 C 554.466 2.0585 0.467866 0
M  V30 5814 O 553.814 1.77029 1.44475 0
M  V30 5815 C 554.024 2.90093 -1.94028 0
M  V30 5816 C 555.372 3.6209 -2.21756 0
M  V30 5817 O 556.396 3.00171 -1.9177 0
M  V30 5818 O 555.255 4.7358 -2.72735 0
M  V30 5819 H 552.349 0.733731 -0.381533 0
M  V30 5820 H 554.895 1.00974 -1.3639 0
M  V30 5821 H 553.667 2.58689 -2.93591 0
M  V30 5822 H 553.29 3.64566 -1.58674 0
M  V30 5823 N 554.287 1.06798 1.15896 0
M  V30 5824 C 555.698 0.811355 1.68149 0
M  V30 5825 C 556.049 -0.664339 1.8461 0
M  V30 5826 O 555.174 -1.51485 1.54535 0
M  V30 5827 C 555.769 1.46624 3.05429 0
M  V30 5828 C 554.328 1.25726 3.54781 0
M  V30 5829 C 553.475 1.53949 2.3064 0
M  V30 5830 H 556.426 1.23078 1.00187 0
M  V30 5831 H 556.447 0.88437 3.7008 0
M  V30 5832 H 555.959 2.54025 2.93416 0
M  V30 5833 H 554.06 0.20322 3.72045 0
M  V30 5834 H 554.173 1.97354 4.36564 0
M  V30 5835 H 552.537 0.96025 2.35905 0
M  V30 5836 H 553.32 2.6252 2.2122 0
M  V30 5837 N 555.766 -1.3263 0.851289 0
M  V30 5838 C 556.713 -2.28952 0.291469 0
M  V30 5839 C 557.683 -1.54897 -0.599676 0
M  V30 5840 O 558.868 -1.83137 -0.535305 0
M  V30 5841 C 556.008 -3.41206 -0.516992 0
M  V30 5842 C 555.121 -4.30148 0.399566 0
M  V30 5843 C 554.256 -5.29527 -0.4212 0
M  V30 5844 C 553.295 -6.10112 0.492969 0
M  V30 5845 N 552.432 -7.01499 -0.290414 0
M  V30 5846 H 557.272 -2.76228 1.11813 0
M  V30 5847 H 554.809 -1.35907 0.562826 0
M  V30 5848 H 556.767 -4.05005 -1.00132 0
M  V30 5849 H 555.397 -2.9509 -1.30851 0
M  V30 5850 H 554.449 -3.66959 1.00227 0
M  V30 5851 H 555.761 -4.8649 1.1013 0
M  V30 5852 H 554.915 -5.98914 -0.968832 0
M  V30 5853 H 553.654 -4.73794 -1.15632 0
M  V30 5854 H 552.659 -5.39632 1.05251 0
M  V30 5855 H 553.884 -6.6793 1.22664 0
M  V30 5856 H 551.83 -6.48199 -1.00868 0
M  V30 5857 H 551.747 -7.55178 0.352354 0
M  V30 5858 H 553.015 -7.75176 -0.819882 0
M  V30 5859 N 557.244 -0.608902 -1.45362 0
M  V30 5860 C 558.154 0.110969 -2.34337 0
M  V30 5861 C 559.17 0.859007 -1.51318 0
M  V30 5862 O 560.346 0.816296 -1.84116 0
M  V30 5863 C 557.411 1.09494 -3.28956 0
M  V30 5864 C 556.472 0.348718 -4.27881 0
M  V30 5865 C 555.705 1.28582 -5.17979 0
M  V30 5866 O 555.928 2.52369 -5.11533 0
M  V30 5867 O 554.862 0.782172 -5.96796 0
M  V30 5868 H 558.688 -0.620258 -2.97299 0
M  V30 5869 H 556.273 -0.36916 -1.44767 0
M  V30 5870 H 558.155 1.66163 -3.87257 0
M  V30 5871 H 556.83 1.80717 -2.68557 0
M  V30 5872 H 555.737 -0.260465 -3.73192 0
M  V30 5873 H 557.07 -0.323049 -4.91139 0
M  V30 5874 N 558.722 1.53707 -0.348139 0
M  V30 5875 C 559.947 2.05877 0.250883 0
M  V30 5876 C 560.372 1.22115 1.43072 0
M  V30 5877 O 559.73 0.235986 1.79758 0
M  V30 5878 C 559.778 3.54886 0.639416 0
M  V30 5879 O 558.882 3.73948 1.73888 0
M  V30 5880 H 558.223 0.662754 0.040653 0
M  V30 5881 H 560.753 1.98303 -0.503685 0
M  V30 5882 H 560.763 3.97601 0.915295 0
M  V30 5883 H 559.438 4.153 -0.223386 0
M  V30 5884 H 558.015 3.43134 1.45991 0
M  V30 5885 N 560.2 0.0768682 1.57412 0
M  V30 5886 C 561.163 -0.873949 2.11884 0
M  V30 5887 C 562.163 -1.22301 1.04398 0
M  V30 5888 O 563.353 -1.15545 1.30365 0
M  V30 5889 C 560.485 -2.17575 2.62438 0
M  V30 5890 H 561.678 -0.401278 2.97203 0
M  V30 5891 H 559.231 -0.171904 1.55352 0
M  V30 5892 H 559.966 -2.69368 1.80587 0
M  V30 5893 H 559.751 -1.93534 3.41009 0
M  V30 5894 H 561.241 -2.85631 3.04639 0
M  V30 5895 N 561.678 -1.56367 -0.196722 0
M  V30 5896 C 562.903 -1.84991 -0.937714 0
M  V30 5897 C 563.328 -0.660244 -1.76132 0
M  V30 5898 O 562.686 0.390967 -1.77034 0
M  V30 5899 C 562.734 -3.11828 -1.81096 0
M  V30 5900 O 561.838 -2.92266 -2.90955 0
M  V30 5901 H 561.179 -0.609193 -0.264159 0
M  V30 5902 H 563.709 -2.03595 -0.202529 0
M  V30 5903 H 563.719 -3.42579 -2.21594 0
M  V30 5904 H 562.394 -3.98037 -1.2058 0
M  V30 5905 H 560.971 -2.72809 -2.54224 0
M  V30 5906 N 563.156 0.464375 -1.50603 0
M  V30 5907 C 564.381 1.24372 -1.65971 0
M  V30 5908 C 564.806 1.84901 -0.345453 0
M  V30 5909 O 564.164 1.67596 0.691457 0
M  V30 5910 C 564.212 2.32331 -2.7578 0
M  V30 5911 O 563.316 3.37146 -2.375 0
M  V30 5912 H 562.657 0.365604 -0.554283 0
M  V30 5913 H 565.187 0.55183 -1.97018 0
M  V30 5914 H 565.197 2.77539 -2.99059 0
M  V30 5915 H 563.872 1.87648 -3.71162 0
M  V30 5916 H 562.449 2.97602 -2.24694 0
M  V30 5917 N 564.634 1.40294 0.718013 0
M  V30 5918 C 565.582 1.40536 1.85344 0
M  V30 5919 C 566.576 0.286192 1.66965 0
M  V30 5920 O 567.782 0.457105 1.74099 0
M  V30 5921 H 564.157 0.439236 0.61039 0
M  V30 5922 H 566.128 2.36275 1.82255 0
M  V30 5923 C 564.877 1.28245 3.23185 0
M  V30 5924 H 564.2 2.1364 3.37932 0
M  V30 5925 H 565.64 1.32474 4.02774 0
M  V30 5926 C 564.099 -0.0075503 3.36899 0
M  V30 5927 O 564.629 -0.971391 3.89778 0
M  V30 5928 N 562.835 -0.0762479 2.905 0
M  V30 5929 H 562.382 0.708819 2.47656 0
M  V30 5930 H 562.34 -0.938846 3.00055 0
M  V30 5931 N 566.112 -0.949982 1.2575 0
M  V30 5932 C 567.044 -2.05088 1.02331 0
M  V30 5933 C 568.057 -1.62795 -0.0133247 0
M  V30 5934 O 569.246 -1.77067 0.225759 0
M  V30 5935 C 566.346 -3.34794 0.525924 0
M  V30 5936 C 565.519 -4.05903 1.62978 0
M  V30 5937 C 564.578 -5.1388 1.13196 0
M  V30 5938 O 563.604 -5.39072 1.82729 0
M  V30 5939 N 564.806 -5.80495 -0.0242926 0
M  V30 5940 H 567.571 -2.25747 1.97125 0
M  V30 5941 H 565.132 -1.11886 1.17018 0
M  V30 5942 H 567.124 -4.04312 0.177263 0
M  V30 5943 H 565.694 -3.10872 -0.328202 0
M  V30 5944 H 564.914 -3.3042 2.1498 0
M  V30 5945 H 566.202 -4.50166 2.37124 0
M  V30 5946 H 565.6 -5.62454 -0.605184 0
M  V30 5947 H 564.157 -6.51043 -0.313947 0
M  V30 5948 N 567.59 -1.07411 -1.15328 0
M  V30 5949 C 568.522 -0.652924 -2.19703 0
M  V30 5950 C 569.535 0.294869 -1.60107 0
M  V30 5951 O 570.724 0.0840932 -1.78302 0
M  V30 5952 C 567.824 0.061434 -3.38844 0
M  V30 5953 C 566.997 -0.902696 -4.27984 0
M  V30 5954 C 566.056 -0.225521 -5.25717 0
M  V30 5955 O 565.082 -0.86676 -5.62562 0
M  V30 5956 N 566.284 1.02858 -5.71315 0
M  V30 5957 H 569.049 -1.55081 -2.56457 0
M  V30 5958 H 566.61 -0.958883 -1.30449 0
M  V30 5959 H 568.602 0.525145 -4.01278 0
M  V30 5960 H 567.172 0.861269 -3.00501 0
M  V30 5961 H 566.392 -1.54551 -3.6264 0
M  V30 5962 H 567.68 -1.55636 -4.84412 0
M  V30 5963 H 567.078 1.56948 -5.43492 0
M  V30 5964 H 565.635 1.43596 -6.35786 0
M  V30 5965 N 569.068 1.32177 -0.85831 0
M  V30 5966 C 570.484 1.49873 -0.548656 0
M  V30 5967 C 570.684 1.79278 0.919874 0
M  V30 5968 O 569.74 1.86451 1.70271 0
M  V30 5969 C 571.053 2.64043 -1.4388 0
M  V30 5970 C 572.601 2.77928 -1.43961 0
M  V30 5971 C 573.076 3.95182 -2.31506 0
M  V30 5972 N 574.567 4.0245 -2.29321 0
M  V30 5973 C 575.302 4.9242 -2.93786 0
M  V30 5974 N 574.798 5.87373 -3.67376 0
M  V30 5975 N 576.591 4.85572 -2.83155 0
M  V30 5976 H 568.742 1.11357 -1.80868 0
M  V30 5977 H 571.005 0.549175 -0.772729 0
M  V30 5978 H 570.711 2.49055 -2.48324 0
M  V30 5979 H 570.585 3.59912 -1.12885 0
M  V30 5980 H 572.972 2.92338 -0.402813 0
M  V30 5981 H 573.053 1.82762 -1.78974 0
M  V30 5982 H 572.697 3.81531 -3.35256 0
M  V30 5983 H 572.627 4.89633 -1.93823 0
M  V30 5984 H 575.118 3.34507 -1.75822 0
M  V30 5985 H 575.431 6.52728 -4.13722 0
M  V30 5986 H 573.776 5.87388 -3.71484 0
M  V30 5987 H 576.967 4.10363 -2.25211 0
M  V30 5988 H 577.14 5.55486 -3.33676 0
M  V30 5989 N 570.547 0.616602 1.45037 0
M  V30 5990 C 571.793 0.115501 2.02471 0
M  V30 5991 C 572.126 -1.25406 1.4828 0
M  V30 5992 O 571.401 -1.82922 0.661051 0
M  V30 5993 C 571.684 0.0863588 3.59996 0
M  V30 5994 C 571.537 1.48723 4.24501 0
M  V30 5995 C 572.856 -0.596762 4.36035 0
M  V30 5996 H 569.975 0.0434461 0.735718 0
M  V30 5997 H 572.617 0.7903 1.72784 0
M  V30 5998 H 570.767 -0.488277 3.85419 0
M  V30 5999 H 572.439 2.10964 4.10234 0
M  V30 6000 H 570.682 2.04534 3.82555 0
M  V30 6001 H 571.353 1.419 5.3345 0
M  V30 6002 H 573.829 -0.10824 4.15959 0
M  V30 6003 H 572.705 -0.586289 5.4576 0
M  V30 6004 H 572.966 -1.66451 4.09569 0
M  V30 6005 N 572.025 -1.5352 0.356285 0
M  V30 6006 C 572.988 -2.24071 -0.482182 0
M  V30 6007 C 573.988 -1.24531 -1.01729 0
M  V30 6008 O 575.178 -1.48876 -0.904513 0
M  V30 6009 C 572.31 -2.97025 -1.67299 0
M  V30 6010 H 573.503 -2.99596 0.135031 0
M  V30 6011 H 571.056 -1.55928 0.107825 0
M  V30 6012 H 571.791 -2.25719 -2.32855 0
M  V30 6013 H 571.576 -3.7005 -1.29636 0
M  V30 6014 H 573.066 -3.50683 -2.26741 0
M  V30 6015 N 573.503 -0.0852151 -1.57369 0
M  V30 6016 C 574.731 0.58946 -1.98325 0
M  V30 6017 C 575.146 1.62333 -0.96403 0
M  V30 6018 O 574.503 1.82438 0.0476395 0
M  V30 6019 C 574.554 1.24604 -3.39347 0
M  V30 6020 O 574.275 0.253532 -4.37366 0
M  V30 6021 C 575.776 2.00726 -3.95252 0
M  V30 6022 H 572.996 0.158783 -0.651942 0
M  V30 6023 H 575.54 -0.161584 -2.03861 0
M  V30 6024 H 573.695 1.94808 -3.34856 0
M  V30 6025 H 574.109 0.726207 -5.19448 0
M  V30 6026 H 575.583 2.42039 -4.96106 0
M  V30 6027 H 576.06 2.86919 -3.32527 0
M  V30 6028 H 576.666 1.3536 -4.03185 0
M  V30 6029 N 574.981 1.5647 0.188427 0
M  V30 6030 C 576.227 1.81281 0.909124 0
M  V30 6031 C 576.56 0.66034 1.82628 0
M  V30 6032 O 575.835 -0.338737 1.91528 0
M  V30 6033 C 576.118 3.16388 1.7196 0
M  V30 6034 C 575.971 4.42137 0.826714 0
M  V30 6035 C 577.29 3.48256 2.69083 0
M  V30 6036 H 574.409 0.659457 0.329068 0
M  V30 6037 H 577.051 1.89182 0.176156 0
M  V30 6038 H 575.201 3.09784 2.34448 0
M  V30 6039 H 576.873 4.60794 0.216025 0
M  V30 6040 H 575.116 4.33594 0.133792 0
M  V30 6041 H 575.787 5.33184 1.42893 0
M  V30 6042 H 578.263 3.55203 2.16726 0
M  V30 6043 H 577.139 4.43899 3.2287 0
M  V30 6044 H 577.4 2.72088 3.48455 0
M  V30 6045 N 576.459 -0.456382 1.50847 0
M  V30 6046 C 577.705 -1.20914 1.62811 0
M  V30 6047 C 578.038 -1.91301 0.334304 0
M  V30 6048 O 577.313 -1.82775 -0.665098 0
M  V30 6049 C 577.596 -2.24122 2.81853 0
M  V30 6050 C 577.449 -1.57944 4.21158 0
M  V30 6051 C 578.768 -3.25295 2.96431 0
M  V30 6052 H 575.887 -0.438233 0.592554 0
M  V30 6053 H 578.529 -0.50091 1.83278 0
M  V30 6054 H 576.679 -2.84524 2.64534 0
M  V30 6055 H 578.351 -1.01025 4.50102 0
M  V30 6056 H 576.594 -0.882185 4.24735 0
M  V30 6057 H 577.265 -2.33014 5.00408 0
M  V30 6058 H 579.741 -2.7493 3.12335 0
M  V30 6059 H 578.617 -3.94822 3.81322 0
M  V30 6060 H 578.878 -3.90286 2.07676 0
M  V30 6061 N 577.937 -1.40673 -0.710563 0
M  V30 6062 C 578.9 -1.4108 -1.80635 0
M  V30 6063 C 579.9 -0.303783 -1.57904 0
M  V30 6064 O 581.09 -0.562937 -1.64853 0
M  V30 6065 C 578.222 -1.20748 -3.18799 0
M  V30 6066 H 579.415 -2.38612 -1.81671 0
M  V30 6067 H 576.968 -1.26595 -0.916704 0
M  V30 6068 H 577.703 -0.239964 -3.23411 0
M  V30 6069 H 577.488 -2.00941 -3.36698 0
M  V30 6070 H 578.978 -1.23833 -3.98817 0
M  V30 6071 N 579.415 0.9433 -1.26252 0
M  V30 6072 C 580.365 2.02746 -1.04297 0
M  V30 6073 C 581.349 1.60882 0.0239435 0
M  V30 6074 O 582.541 1.75947 -0.192757 0
M  V30 6075 C 579.67 3.36585 -0.6757 0
M  V30 6076 C 578.756 3.84939 -1.77996 0
M  V30 6077 N 579.147 4.05966 -3.01704 0
M  V30 6078 C 577.445 4.13833 -1.66308 0
M  V30 6079 C 578.146 4.45987 -3.73458 0
M  V30 6080 N 577.122 4.52569 -3.01135 0
M  V30 6081 H 580.924 2.17012 -1.98199 0
M  V30 6082 H 578.438 1.12898 -1.16738 0
M  V30 6083 H 580.435 4.13896 -0.499571 0
M  V30 6084 H 579.095 3.2369 0.255863 0
M  V30 6085 H 580.106 3.92716 -3.37631 0
M  V30 6086 H 576.783 4.09739 -0.801267 0
M  V30 6087 H 578.173 4.70465 -4.79701 0
M  V30 6088 N 580.893 1.08022 1.14757 0
M  V30 6089 C 581.803 0.718292 2.23333 0
M  V30 6090 C 582.819 -0.273477 1.71837 0
M  V30 6091 O 583.995 -0.118406 2.01052 0
M  V30 6092 C 581.06 0.128855 3.4646 0
M  V30 6093 C 580.121 1.17473 4.12915 0
M  V30 6094 C 579.354 0.61333 5.30164 0
M  V30 6095 O 579.577 -0.568458 5.6756 0
M  V30 6096 O 578.511 1.3615 5.86299 0
M  V30 6097 H 582.337 1.62394 2.56636 0
M  V30 6098 H 579.922 0.853628 1.22611 0
M  V30 6099 H 581.804 -0.197249 4.20938 0
M  V30 6100 H 580.479 -0.750014 3.14891 0
M  V30 6101 H 579.386 1.5533 3.40328 0
M  V30 6102 H 580.719 2.02574 4.48581 0
M  V30 6103 N 582.371 -1.3172 0.865308 0
M  V30 6104 C 583.301 -2.31109 0.333302 0
M  V30 6105 C 584.282 -1.60148 -0.573301 0
M  V30 6106 O 585.467 -1.87882 -0.491305 0
M  V30 6107 C 582.597 -3.44104 -0.470078 0
M  V30 6108 C 581.551 -4.26623 0.343021 0
M  V30 6109 C 580.877 -5.31482 -0.585756 0
M  V30 6110 C 582.177 -4.98001 1.57456 0
M  V30 6111 H 583.871 -2.75855 1.1638 0
M  V30 6112 H 581.417 -1.3262 0.561069 0
M  V30 6113 H 583.37 -4.12682 -0.852752 0
M  V30 6114 H 582.094 -2.98112 -1.33404 0
M  V30 6115 H 580.753 -3.59707 0.707583 0
M  V30 6116 H 580.401 -4.81741 -1.44686 0
M  V30 6117 H 580.101 -5.87582 -0.0456494 0
M  V30 6118 H 581.625 -6.0292 -0.965375 0
M  V30 6119 H 583.039 -5.59201 1.26359 0
M  V30 6120 H 581.436 -5.63876 2.05339 0
M  V30 6121 H 582.506 -4.25253 2.32997 0
M  V30 6122 N 583.85 -0.624285 -1.44708 0
M  V30 6123 C 585.096 -0.126237 -2.02407 0
M  V30 6124 C 585.428 1.24618 -1.48943 0
M  V30 6125 O 584.704 1.82569 -0.670742 0
M  V30 6126 C 584.986 -0.105449 -3.59946 0
M  V30 6127 C 584.84 -1.50972 -4.23707 0
M  V30 6128 C 586.159 0.573629 -4.36346 0
M  V30 6129 H 583.278 -0.0473472 -0.735478 0
M  V30 6130 H 585.92 -0.799452 -1.72362 0
M  V30 6131 H 584.07 0.46783 -3.85673 0
M  V30 6132 H 585.742 -2.13136 -4.0911 0
M  V30 6133 H 583.985 -2.0656 -3.81465 0
M  V30 6134 H 584.656 -1.44727 -5.32689 0
M  V30 6135 H 587.132 0.0861787 -4.16011 0
M  V30 6136 H 586.008 0.557338 -5.46063 0
M  V30 6137 H 586.269 1.64276 -4.10446 0
M  V30 6138 N 585.328 1.53329 -0.364422 0
M  V30 6139 C 586.278 2.22472 0.499024 0
M  V30 6140 C 587.262 1.21952 1.0496 0
M  V30 6141 O 588.454 1.47405 0.979836 0
M  V30 6142 C 585.583 3.01659 1.6388 0
M  V30 6143 C 584.669 4.09555 1.10116 0
M  V30 6144 N 585.06 5.04988 0.286414 0
M  V30 6145 C 583.358 4.2424 1.37608 0
M  V30 6146 C 584.059 5.81699 -0.00781682 0
M  V30 6147 N 583.035 5.40394 0.589494 0
M  V30 6148 H 586.837 2.93611 -0.130284 0
M  V30 6149 H 584.351 1.61483 -0.172377 0
M  V30 6150 H 586.348 3.4971 2.26954 0
M  V30 6151 H 585.008 2.32051 2.27118 0
M  V30 6152 H 586.019 5.17847 -0.0742839 0
M  V30 6153 H 582.696 3.65858 2.01133 0
M  V30 6154 H 584.086 6.68587 -0.666394 0
M  V30 6155 N 586.806 0.0935595 1.57322 0
M  V30 6156 C 587.738 -0.895923 2.10964 0
M  V30 6157 C 588.751 -1.24705 1.04654 0
M  V30 6158 O 589.94 -1.20044 1.32105 0
M  V30 6159 C 587.04 -2.20546 2.57318 0
M  V30 6160 C 586.213 -2.0299 3.87445 0
M  V30 6161 C 585.272 -3.17443 4.19662 0
M  V30 6162 O 584.298 -2.91474 4.88909 0
M  V30 6163 N 585.5 -4.43168 3.74943 0
M  V30 6164 H 588.265 -0.437788 2.96485 0
M  V30 6165 H 585.826 -0.0915863 1.61641 0
M  V30 6166 H 587.818 -2.9606 2.75917 0
M  V30 6167 H 586.388 -2.57789 1.76816 0
M  V30 6168 H 585.608 -1.11815 3.78009 0
M  V30 6169 H 586.896 -1.88535 4.7258 0
M  V30 6170 H 586.294 -4.67149 3.19043 0
M  V30 6171 H 584.851 -5.15637 3.987 0
M  V30 6172 N 588.284 -1.56567 -0.180126 0
M  V30 6173 C 589.53 -1.82658 -0.894859 0
M  V30 6174 C 589.885 -0.672826 -1.80252 0
M  V30 6175 O 589.178 0.331227 -1.88715 0
M  V30 6176 C 589.372 -3.1252 -1.73395 0
M  V30 6177 C 589.201 -4.40417 -0.909028 0
M  V30 6178 C 587.971 -5.01872 -0.587562 0
M  V30 6179 C 590.169 -5.13669 -0.254698 0
M  V30 6180 N 588.151 -6.13373 0.254428 0
M  V30 6181 C 589.522 -6.18373 0.448837 0
M  V30 6182 C 591.577 -4.97603 -0.171958 0
M  V30 6183 C 590.28 -7.08753 1.22725 0
M  V30 6184 C 592.306 -5.88418 0.593101 0
M  V30 6185 C 591.668 -6.92579 1.28503 0
M  V30 6186 H 587.767 -0.719493 -0.306356 0
M  V30 6187 H 590.351 -1.94021 -0.16247 0
M  V30 6188 H 588.522 -3.02365 -2.43783 0
M  V30 6189 H 590.254 -3.2664 -2.38931 0
M  V30 6190 H 587.009 -4.64666 -0.915557 0
M  V30 6191 H 587.433 -6.73721 0.665474 0
M  V30 6192 H 592.075 -4.17089 -0.692555 0
M  V30 6193 H 589.793 -7.88718 1.75923 0
M  V30 6194 H 593.379 -5.78059 0.658674 0
M  V30 6195 H 592.259 -7.61638 1.86754 0
M  V30 6196 N 589.762 0.448376 -1.51087 0
M  V30 6197 C 591.009 1.19872 -1.63209 0
M  V30 6198 C 591.337 1.91451 -0.343062 0
M  V30 6199 O 590.592 1.83789 0.672321 0
M  V30 6200 C 590.891 2.24866 -2.77795 0
M  V30 6201 C 590.557 1.70378 -4.17471 0
M  V30 6202 C 589.219 1.55241 -4.55471 0
M  V30 6203 C 591.571 1.30203 -5.04675 0
M  V30 6204 C 588.899 0.983844 -5.78392 0
M  V30 6205 C 591.251 0.747798 -6.28165 0
M  V30 6206 C 589.915 0.583233 -6.64947 0
M  V30 6207 H 589.185 0.438642 -0.597222 0
M  V30 6208 H 591.832 0.49136 -1.85089 0
M  V30 6209 H 590.137 3.01598 -2.50092 0
M  V30 6210 H 591.834 2.82723 -2.84374 0
M  V30 6211 H 588.424 1.83134 -3.87505 0
M  V30 6212 H 592.608 1.40723 -4.75932 0
M  V30 6213 H 587.864 0.844007 -6.05546 0
M  V30 6214 H 592.038 0.427927 -6.95084 0
M  V30 6215 H 589.665 0.140532 -7.6007 0
M  V30 6216 N 591.24 1.41047 0.703093 0
M  V30 6217 C 592.488 1.39723 1.4602 0
M  V30 6218 C 592.809 0.00461257 1.94999 0
M  V30 6219 O 592.079 -0.952292 1.71196 0
M  V30 6220 H 590.659 0.514281 0.541779 0
M  V30 6221 H 593.321 1.76217 0.832678 0
M  V30 6222 H 592.417 2.07982 2.32701 0
M  V30 6223 N 592.718 -0.936591 1.26751 0
M  V30 6224 C 593.666 -2.0573 1.08527 0
M  V30 6225 C 594.66 -1.69397 0.0108784 0
M  V30 6226 O 595.866 -1.79215 0.167915 0
M  V30 6227 H 592.241 -0.673691 0.334133 0
M  V30 6228 H 594.212 -2.1825 2.03493 0
M  V30 6229 C 592.961 -3.39738 0.739845 0
M  V30 6230 H 592.284 -3.68174 1.55845 0
M  V30 6231 H 593.724 -4.18955 0.652149 0
M  V30 6232 C 592.183 -3.32292 -0.555288 0
M  V30 6233 O 592.713 -3.68794 -1.59229 0
M  V30 6234 N 590.919 -2.85394 -0.54762 0
M  V30 6235 H 590.466 -2.55886 0.296667 0
M  V30 6236 H 590.424 -2.80795 -1.41427 0
M  V30 6237 N 594.196 -1.08629 -1.14182 0
M  V30 6238 C 595.445 -0.812271 -1.84621 0
M  V30 6239 C 595.758 0.664313 -1.83973 0
M  V30 6240 O 596.964 1.05357 -2.50224 0
M  V30 6241 C 595.42 -1.4031 -3.31423 0
M  V30 6242 C 595.028 -2.91164 -3.40481 0
M  V30 6243 C 596.772 -1.20767 -4.06959 0
M  V30 6244 C 594.679 -3.43373 -4.81507 0
M  V30 6245 H 593.609 -0.30019 -0.691666 0
M  V30 6246 H 596.26 -1.30798 -1.28701 0
M  V30 6247 H 594.642 -0.835096 -3.87094 0
M  V30 6248 H 595.816 -3.5412 -2.94848 0
M  V30 6249 H 594.131 -3.09646 -2.78403 0
M  V30 6250 H 596.728 -1.57237 -5.11058 0
M  V30 6251 H 597.071 -0.147664 -4.16038 0
M  V30 6252 H 597.604 -1.74274 -3.57594 0
M  V30 6253 H 594.343 -4.48958 -4.77616 0
M  V30 6254 H 593.863 -2.85176 -5.27669 0
M  V30 6255 H 595.542 -3.40095 -5.50404 0
M  V30 6256 N 595.674 1.31259 -0.872281 0
M  V30 6257 C 596.92 1.96913 -0.485083 0
M  V30 6258 C 597.253 1.68774 0.960667 0
M  V30 6259 O 596.528 0.985495 1.67685 0
M  V30 6260 C 596.811 3.52299 -0.745502 0
M  V30 6261 C 596.664 3.90002 -2.24095 0
M  V30 6262 C 597.983 4.39582 -0.213516 0
M  V30 6263 H 595.102 0.715252 -0.177716 0
M  V30 6264 H 597.744 1.55347 -1.09395 0
M  V30 6265 H 595.894 3.87835 -0.227276 0
M  V30 6266 H 597.566 3.64555 -2.82661 0
M  V30 6267 H 595.809 3.38526 -2.71261 0
M  V30 6268 H 596.48 4.98352 -2.37381 0
M  V30 6269 H 598.956 4.10882 -0.656902 0
M  V30 6270 H 597.832 5.47251 -0.42516 0
M  V30 6271 H 598.093 4.33158 0.884666 0
M  V30 6272 N 597.152 0.631951 1.44375 0
M  V30 6273 C 598.38 0.143867 2.06399 0
M  V30 6274 C 598.795 -1.18188 1.47231 0
M  V30 6275 O 598.152 -1.72511 0.595498 0
M  V30 6276 C 598.203 0.0238253 3.61492 0
M  V30 6277 O 597.924 1.29715 4.18456 0
M  V30 6278 C 599.425 -0.492856 4.40552 0
M  V30 6279 H 596.645 0.0800542 0.666207 0
M  V30 6280 H 599.189 0.866586 1.85231 0
M  V30 6281 H 597.344 -0.649338 3.81919 0
M  V30 6282 H 597.758 1.14252 5.11905 0
M  V30 6283 H 599.232 -0.525861 5.49489 0
M  V30 6284 H 599.709 -1.52006 4.12057 0
M  V30 6285 H 600.315 0.147085 4.25046 0
M  V30 6286 N 598.631 -1.53133 0.372548 0
M  V30 6287 C 599.564 -2.22328 -0.514361 0
M  V30 6288 C 600.542 -1.21776 -1.07747 0
M  V30 6289 O 601.726 -1.50704 -1.13228 0
M  V30 6290 C 598.853 -2.92343 -1.71035 0
M  V30 6291 C 597.899 -4.07026 -1.27405 0
M  V30 6292 S 598.732 -5.34821 -0.269526 0
M  V30 6293 C 599.888 -6.08352 -1.47168 0
M  V30 6294 H 600.121 -2.9721 0.0732683 0
M  V30 6295 H 597.654 -1.53603 0.156673 0
M  V30 6296 H 599.612 -3.33296 -2.39634 0
M  V30 6297 H 598.273 -2.17173 -2.26925 0
M  V30 6298 H 597.466 -4.55056 -2.16656 0
M  V30 6299 H 597.068 -3.68001 -0.66719 0
M  V30 6300 H 599.36 -6.33507 -2.40157 0
M  V30 6301 H 600.303 -7.0053 -1.03263 0
M  V30 6302 H 600.711 -5.38893 -1.6809 0
M  V30 6303 N 600.109 -0.101901 -1.5727 0
M  V30 6304 C 601.386 0.602832 -1.86079 0
M  V30 6305 C 601.766 1.85912 -1 0
M  V30 6306 O 601.114 2.28379 -0.0742488 0
M  V30 6307 C 601.324 0.911694 -3.36881 0
M  V30 6308 C 602.672 1.2722 -4.05093 0
M  V30 6309 O 603.696 1.0025 -3.41802 0
M  V30 6310 O 602.555 1.7776 -5.16782 0
M  V30 6311 H 599.649 0.302366 -0.769743 0
M  V30 6312 H 602.195 -0.135113 -1.69161 0
M  V30 6313 H 600.967 0.0207256 -3.91295 0
M  V30 6314 H 600.59 1.70538 -3.59169 0
M  V30 6315 N 601.587 1.56661 0.17182 0
M  V30 6316 C 602.833 1.8313 0.88516 0
M  V30 6317 C 603.188 0.682376 1.79893 0
M  V30 6318 O 602.481 -0.321215 1.88888 0
M  V30 6319 C 602.675 3.13435 1.71736 0
M  V30 6320 C 602.504 4.40892 0.885659 0
M  V30 6321 C 601.274 5.02177 0.560939 0
M  V30 6322 C 603.472 5.13797 0.227454 0
M  V30 6323 N 601.454 6.13229 -0.286953 0
M  V30 6324 C 602.825 6.18127 -0.481625 0
M  V30 6325 C 604.88 4.97687 0.145567 0
M  V30 6326 C 603.583 7.08092 -1.26482 0
M  V30 6327 C 605.609 5.88096 -0.624298 0
M  V30 6328 C 604.971 6.91888 -1.32174 0
M  V30 6329 H 601.07 0.721107 0.302536 0
M  V30 6330 H 603.654 1.94104 0.152178 0
M  V30 6331 H 601.825 3.03653 2.42176 0
M  V30 6332 H 603.557 3.27903 2.37196 0
M  V30 6333 H 600.312 4.65145 0.890902 0
M  V30 6334 H 600.736 6.73359 -0.701193 0
M  V30 6335 H 605.378 4.17451 0.670426 0
M  V30 6336 H 603.096 7.87774 -1.80103 0
M  V30 6337 H 606.682 5.77702 -0.689321 0
M  V30 6338 H 605.562 7.60637 -1.90791 0
M  V30 6339 N 603.065 -0.440357 1.51323 0
M  V30 6340 C 604.311 -1.18874 1.65047 0
M  V30 6341 C 604.666 -1.88988 0.360742 0
M  V30 6342 O 603.959 -1.80479 -0.643272 0
M  V30 6343 C 604.153 -2.2339 2.78984 0
M  V30 6344 C 603.982 -1.63534 4.18911 0
M  V30 6345 C 602.752 -1.42158 4.84891 0
M  V30 6346 C 604.95 -1.11324 5.02107 0
M  V30 6347 N 602.932 -0.778679 6.08942 0
M  V30 6348 C 604.303 -0.595421 6.17134 0
M  V30 6349 C 606.358 -1.00471 4.87658 0
M  V30 6350 C 605.061 0.0202557 7.19297 0
M  V30 6351 C 607.087 -0.402928 5.90026 0
M  V30 6352 C 606.449 0.10436 7.04323 0
M  V30 6353 H 602.548 -0.422771 0.657866 0
M  V30 6354 H 605.132 -0.485814 1.88542 0
M  V30 6355 H 603.303 -2.91074 2.57158 0
M  V30 6356 H 605.035 -2.90366 2.81904 0
M  V30 6357 H 601.79 -1.68247 4.42707 0
M  V30 6358 H 602.214 -0.474755 6.75333 0
M  V30 6359 H 606.856 -1.38278 3.99548 0
M  V30 6360 H 604.574 0.410468 8.07057 0
M  V30 6361 H 608.16 -0.320897 5.80914 0
M  V30 6362 H 607.04 0.562697 7.82179 0
M  V30 6363 N 604.543 -1.41418 -0.695603 0
M  V30 6364 C 605.453 -1.45622 -1.83933 0
M  V30 6365 C 606.469 -0.346825 -1.70508 0
M  V30 6366 O 607.645 -0.59454 -1.92424 0
M  V30 6367 C 604.71 -1.33627 -3.19914 0
M  V30 6368 C 603.771 -2.54882 -3.45447 0
M  V30 6369 C 603.004 -2.43449 -4.7494 0
M  V30 6370 O 603.227 -1.45905 -5.51424 0
M  V30 6371 O 602.161 -3.33206 -5.01256 0
M  V30 6372 H 605.987 -2.42114 -1.83342 0
M  V30 6373 H 603.572 -1.22956 -0.848658 0
M  V30 6374 H 605.454 -1.29221 -4.01098 0
M  V30 6375 H 604.129 -0.402508 -3.21188 0
M  V30 6376 H 603.036 -2.64865 -2.64192 0
M  V30 6377 H 604.369 -3.47087 -3.48987 0
M  V30 6378 N 606.021 0.929856 -1.27246 0
M  V30 6379 C 607.298 1.65544 -1.04186 0
M  V30 6380 C 607.678 2.06796 0.424097 0
M  V30 6381 O 607.026 1.80053 1.40688 0
M  V30 6382 C 607.236 2.85912 -2.00138 0
M  V30 6383 C 608.584 3.57305 -2.29387 0
M  V30 6384 O 609.608 2.96036 -1.98094 0
M  V30 6385 O 608.467 4.67688 -2.82719 0
M  V30 6386 H 605.561 0.725473 -0.397011 0
M  V30 6387 H 608.107 0.980583 -1.38501 0
M  V30 6388 H 606.879 2.52403 -2.99013 0
M  V30 6389 H 606.502 3.61118 -1.66371 0
M  V30 6390 N 607.499 1.09233 1.13605 0
M  V30 6391 C 608.429 0.751738 2.21068 0
M  V30 6392 C 609.41 -0.269688 1.67948 0
M  V30 6393 O 610.595 -0.13819 1.93708 0
M  V30 6394 C 607.725 0.16935 3.46887 0
M  V30 6395 C 606.679 1.12007 4.13084 0
M  V30 6396 C 606.005 0.399483 5.33206 0
M  V30 6397 C 607.305 2.46168 4.6065 0
M  V30 6398 H 608.999 1.65024 2.49815 0
M  V30 6399 H 606.545 0.794905 1.20072 0
M  V30 6400 H 608.498 -0.0809824 4.21322 0
M  V30 6401 H 607.222 -0.764335 3.1753 0
M  V30 6402 H 605.881 1.35564 3.40614 0
M  V30 6403 H 605.529 -0.538277 5.00112 0
M  V30 6404 H 605.229 1.03337 5.78442 0
M  V30 6405 H 606.753 0.157403 6.10397 0
M  V30 6406 H 608.167 2.26829 5.26518 0
M  V30 6407 H 606.564 3.05326 5.1662 0
M  V30 6408 H 607.634 3.07076 3.75276 0
M  V30 6409 N 608.977 -1.30795 0.87923 0
M  V30 6410 C 610.223 -1.97035 0.50487 0
M  V30 6411 C 610.578 -1.68182 -0.934484 0
M  V30 6412 O 609.871 -0.972953 -1.65058 0
M  V30 6413 C 610.065 -3.50287 0.709476 0
M  V30 6414 C 609.894 -3.94035 2.16717 0
M  V30 6415 C 608.664 -4.1992 2.81061 0
M  V30 6416 C 610.862 -4.07288 3.1404 0
M  V30 6417 N 608.844 -4.50088 4.17486 0
M  V30 6418 C 610.215 -4.41273 4.35521 0
M  V30 6419 C 612.27 -3.89696 3.09906 0
M  V30 6420 C 610.973 -4.59501 5.534 0
M  V30 6421 C 612.999 -4.09122 4.27052 0
M  V30 6422 C 612.361 -4.43447 5.47297 0
M  V30 6423 H 608.46 -0.746181 0.233962 0
M  V30 6424 H 611.044 -1.5814 1.13577 0
M  V30 6425 H 609.215 -3.8825 0.108108 0
M  V30 6426 H 610.947 -4.03567 0.302585 0
M  V30 6427 H 607.702 -4.12906 2.3196 0
M  V30 6428 H 608.126 -4.69316 4.87926 0
M  V30 6429 H 612.768 -3.62239 2.18043 0
M  V30 6430 H 610.486 -4.85802 6.45773 0
M  V30 6431 H 614.072 -3.96985 4.25316 0
M  V30 6432 H 612.952 -4.58171 6.36435 0
M  V30 6433 N 610.455 -0.639598 -1.44038 0
M  V30 6434 C 611.385 0.0469443 -2.33453 0
M  V30 6435 C 612.366 0.82609 -1.48694 0
M  V30 6436 O 613.551 0.790285 -1.77393 0
M  V30 6437 C 610.681 1.02338 -3.3188 0
M  V30 6438 C 609.635 0.355284 -4.26523 0
M  V30 6439 C 608.961 1.44221 -5.14883 0
M  V30 6440 C 610.261 -0.743798 -5.16977 0
M  V30 6441 H 611.955 -0.699735 -2.91108 0
M  V30 6442 H 609.501 -0.337946 -1.39978 0
M  V30 6443 H 611.454 1.51247 -3.93322 0
M  V30 6444 H 610.178 1.80105 -2.72451 0
M  V30 6445 H 608.837 -0.113239 -3.66425 0
M  V30 6446 H 608.485 2.21097 -4.51802 0
M  V30 6447 H 608.185 1.00052 -5.79019 0
M  V30 6448 H 609.709 1.93295 -5.79197 0
M  V30 6449 H 611.123 -0.337444 -5.72306 0
M  V30 6450 H 609.52 -1.10914 -5.89761 0
M  V30 6451 H 610.59 -1.60745 -4.57481 0
M  V30 6452 N 611.933 1.52934 -0.380664 0
M  V30 6453 C 612.881 2.27727 0.47361 0
M  V30 6454 C 613.875 1.31288 1.0705 0
M  V30 6455 O 615.081 1.4886 1.01197 0
M  V30 6456 H 611.456 0.732189 0.171475 0
M  V30 6457 H 613.427 2.97864 -0.178785 0
M  V30 6458 C 612.176 3.0904 1.59341 0
M  V30 6459 H 611.499 3.831 1.14343 0
M  V30 6460 H 612.939 3.64527 2.16555 0
M  V30 6461 C 611.398 2.20813 2.54447 0
M  V30 6462 O 611.928 1.82907 3.57642 0
M  V30 6463 N 610.134 1.85145 2.23986 0
M  V30 6464 H 609.681 2.16169 1.40103 0
M  V30 6465 H 609.639 1.26402 2.87871 0
M  V30 6466 N 613.412 0.11024 1.57214 0
M  V30 6467 C 614.322 -0.857077 2.18383 0
M  V30 6468 C 615.338 -1.29915 1.1575 0
M  V30 6469 O 616.514 -1.36394 1.48184 0
M  V30 6470 C 613.579 -2.09264 2.76423 0
M  V30 6471 C 612.64 -1.70333 3.94063 0
M  V30 6472 C 611.873 -2.87999 4.49324 0
M  V30 6473 O 612.096 -4.0317 4.03497 0
M  V30 6474 O 611.03 -2.6559 5.40135 0
M  V30 6475 H 614.856 -0.366561 3.0148 0
M  V30 6476 H 612.441 -0.114914 1.48957 0
M  V30 6477 H 614.323 -2.81644 3.13456 0
M  V30 6478 H 612.998 -2.57339 1.96363 0
M  V30 6479 H 611.905 -0.950864 3.61814 0
M  V30 6480 H 613.238 -1.27007 4.75531 0
M  V30 6481 N 614.89 -1.56749 -0.16351 0
M  V30 6482 C 616.138 -1.82074 -0.87713 0
M  V30 6483 C 616.459 -0.688503 -1.82441 0
M  V30 6484 O 615.729 0.291085 -1.93725 0
M  V30 6485 H 614.309 -0.671677 -0.326893 0
M  V30 6486 H 616.971 -1.9423 -0.161459 0
M  V30 6487 H 616.067 -2.76407 -1.44934 0
M  V30 6488 N 616.368 0.432326 -1.51554 0
M  V30 6489 C 617.615 1.18134 -1.64471 0
M  V30 6490 C 617.943 1.91076 -0.363349 0
M  V30 6491 O 617.198 1.84492 0.65279 0
M  V30 6492 C 617.497 2.21907 -2.80164 0
M  V30 6493 C 617.163 1.65941 -4.19255 0
M  V30 6494 C 615.825 1.50401 -4.57092 0
M  V30 6495 C 618.177 1.24843 -5.06027 0
M  V30 6496 C 615.505 0.922443 -5.79403 0
M  V30 6497 C 617.857 0.68113 -6.28922 0
M  V30 6498 C 616.521 0.512673 -6.65528 0
M  V30 6499 H 615.791 0.432283 -0.601841 0
M  V30 6500 H 618.438 0.471701 -1.856 0
M  V30 6501 H 616.743 2.98928 -2.53277 0
M  V30 6502 H 618.44 2.79691 -2.87357 0
M  V30 6503 H 615.03 1.79014 -3.89425 0
M  V30 6504 H 619.214 1.35667 -4.77397 0
M  V30 6505 H 614.47 0.779733 -6.06408 0
M  V30 6506 H 618.644 0.35418 -6.95499 0
M  V30 6507 H 616.271 0.0599084 -7.60176 0
M  V30 6508 N 617.846 1.41785 0.688094 0
M  V30 6509 C 618.809 1.43936 1.78368 0
M  V30 6510 C 619.809 0.328866 1.57401 0
M  V30 6511 O 620.999 0.589093 1.63937 0
M  V30 6512 C 618.131 1.25804 3.16838 0
M  V30 6513 H 619.324 2.41472 1.77852 0
M  V30 6514 H 616.877 1.28037 0.896448 0
M  V30 6515 H 617.612 0.291386 3.22988 0
M  V30 6516 H 617.397 2.06272 3.33458 0
M  V30 6517 H 618.887 1.30162 3.96797 0
M  V30 6518 N 619.324 -0.923095 1.27737 0
M  V30 6519 C 620.549 -1.71054 1.17283 0
M  V30 6520 C 620.974 -1.86208 -0.266153 0
M  V30 6521 O 620.332 -1.36545 -1.1927 0
M  V30 6522 C 620.38 -3.0854 1.86642 0
M  V30 6523 O 619.484 -3.95528 1.16752 0
M  V30 6524 H 618.825 -0.524136 0.407649 0
M  V30 6525 H 621.355 -1.15487 1.6889 0
M  V30 6526 H 621.365 -3.58828 1.94182 0
M  V30 6527 H 620.04 -2.96828 2.91317 0
M  V30 6528 H 618.617 -3.53967 1.17312 0
M  V30 6529 N 620.802 -1.09834 -1.13024 0
M  V30 6530 C 622.049 -0.83695 -1.84395 0
M  V30 6531 C 622.377 0.637463 -1.83757 0
M  V30 6532 O 621.632 1.48554 -1.27398 0
M  V30 6533 C 621.931 -1.32263 -3.32026 0
M  V30 6534 C 621.597 -2.80739 -3.52841 0
M  V30 6535 C 620.259 -3.21286 -3.5823 0
M  V30 6536 C 622.611 -3.76449 -3.60466 0
M  V30 6537 C 619.939 -4.56308 -3.68781 0
M  V30 6538 C 622.291 -5.11266 -3.72546 0
M  V30 6539 C 620.955 -5.51397 -3.76189 0
M  V30 6540 H 620.225 -0.306262 -0.674748 0
M  V30 6541 H 622.872 -1.37385 -1.33408 0
M  V30 6542 H 621.177 -0.705618 -3.85394 0
M  V30 6543 H 622.874 -1.09695 -3.85705 0
M  V30 6544 H 619.464 -2.48363 -3.49305 0
M  V30 6545 H 623.648 -3.46234 -3.55578 0
M  V30 6546 H 618.904 -4.86832 -3.69871 0
M  V30 6547 H 623.078 -5.85279 -3.77388 0
M  V30 6548 H 620.705 -6.56017 -3.84117 0
M  V30 6549 N 622.28 1.30327 -0.886154 0
M  V30 6550 C 623.527 1.96097 -0.505192 0
M  V30 6551 C 623.855 1.69952 0.945868 0
M  V30 6552 O 623.11 0.997653 1.68361 0
M  V30 6553 C 623.409 3.49906 -0.728042 0
M  V30 6554 C 623.075 3.96103 -2.15437 0
M  V30 6555 C 621.737 4.08428 -2.5444 0
M  V30 6556 C 624.089 4.20177 -3.08384 0
M  V30 6557 C 621.417 4.42189 -3.85598 0
M  V30 6558 C 623.769 4.55407 -4.39075 0
M  V30 6559 C 622.433 4.65941 -4.7797 0
M  V30 6560 H 621.703 0.71757 -0.184863 0
M  V30 6561 H 624.35 1.55171 -1.12223 0
M  V30 6562 H 622.655 3.9179 -0.027978 0
M  V30 6563 H 624.352 3.98869 -0.412862 0
M  V30 6564 H 620.942 3.87017 -1.84162 0
M  V30 6565 H 625.126 4.10134 -2.7947 0
M  V30 6566 H 620.382 4.48544 -4.15473 0
M  V30 6567 H 624.556 4.72986 -5.11133 0
M  V30 6568 H 622.183 4.91856 -5.79639 0
M  V30 6569 N 623.758 0.647228 1.43697 0
M  V30 6570 C 624.668 -0.0487997 2.34549 0
M  V30 6571 C 625.684 -0.818586 1.53542 0
M  V30 6572 O 626.86 -0.767195 1.86215 0
M  V30 6573 C 623.925 -1.00734 3.31743 0
M  V30 6574 C 622.986 -0.23515 4.28655 0
M  V30 6575 C 622.219 -1.14803 5.21206 0
M  V30 6576 O 622.442 -2.38717 5.18045 0
M  V30 6577 O 621.376 -0.623667 5.9866 0
M  V30 6578 H 625.202 0.698863 2.9555 0
M  V30 6579 H 622.787 0.407412 1.43738 0
M  V30 6580 H 624.669 -1.55837 3.91526 0
M  V30 6581 H 623.344 -1.73534 2.73254 0
M  V30 6582 H 622.251 0.359319 3.7237 0
M  V30 6583 H 623.584 0.453152 4.9011 0
M  V30 6584 N 625.236 -1.5273 0.388769 0
M  V30 6585 C 626.483 -2.01573 -0.19359 0
M  V30 6586 C 626.811 -1.27525 -1.46859 0
M  V30 6587 O 626.066 -0.363926 -1.92286 0
M  V30 6588 C 626.365 -3.53765 -0.508445 0
M  V30 6589 C 626.031 -4.4582 0.674947 0
M  V30 6590 C 624.693 -4.70703 0.999596 0
M  V30 6591 C 627.045 -5.00138 1.46666 0
M  V30 6592 C 624.373 -5.47155 2.11751 0
M  V30 6593 C 626.725 -5.77812 2.57518 0
M  V30 6594 C 625.389 -6.00975 2.90492 0
M  V30 6595 H 624.659 -0.737606 -0.0708397 0
M  V30 6596 H 627.306 -1.84134 0.526006 0
M  V30 6597 H 625.611 -3.69274 -1.30936 0
M  V30 6598 H 627.308 -3.8905 -0.971664 0
M  V30 6599 H 623.898 -4.26616 0.411906 0
M  V30 6600 H 628.082 -4.8084 1.22909 0
M  V30 6601 H 623.338 -5.63314 2.3767 0
M  V30 6602 H 627.512 -6.18904 3.19267 0
M  V30 6603 H 625.139 -6.59998 3.77236 0
M  V30 6604 N 626.714 -0.118576 -1.57153 0
M  V30 6605 C 627.644 0.828436 -2.1831 0
M  V30 6606 C 628.625 1.27758 -1.12303 0
M  V30 6607 O 629.81 1.34026 -1.40537 0
M  V30 6608 C 626.94 2.07876 -2.78217 0
M  V30 6609 C 625.894 1.76742 -3.89803 0
M  V30 6610 C 625.22 3.08801 -4.36516 0
M  V30 6611 C 626.52 1.03606 -5.11921 0
M  V30 6612 H 628.214 0.318824 -2.97698 0
M  V30 6613 H 625.76 0.151911 -1.43196 0
M  V30 6614 H 627.713 2.74584 -3.19659 0
M  V30 6615 H 626.437 2.61161 -1.96118 0
M  V30 6616 H 625.096 1.12424 -3.48936 0
M  V30 6617 H 624.744 3.6002 -3.51276 0
M  V30 6618 H 624.444 2.88743 -5.11763 0
M  V30 6619 H 625.968 3.76627 -4.80608 0
M  V30 6620 H 627.382 1.60467 -5.50385 0
M  V30 6621 H 625.779 0.936454 -5.92748 0
M  V30 6622 H 626.849 0.0227421 -4.84895 0
M  V30 6623 N 628.193 1.56834 0.155195 0
M  V30 6624 C 629.441 1.82536 0.867462 0
M  V30 6625 C 629.762 0.698168 1.82073 0
M  V30 6626 O 629.032 -0.280807 1.93877 0
M  V30 6627 H 627.612 0.673401 0.323327 0
M  V30 6628 H 630.274 1.94313 0.151156 0
M  V30 6629 H 629.37 2.77171 1.43466 0
M  V30 6630 N 629.671 -0.424282 1.51781 0
M  V30 6631 C 630.917 -1.17434 1.6534 0
M  V30 6632 C 631.25 -1.90549 0.374806 0
M  V30 6633 O 630.525 -1.84145 -0.626179 0
M  V30 6634 C 630.808 -2.18093 2.86544 0
M  V30 6635 C 630.661 -1.48975 4.24413 0
M  V30 6636 C 631.98 -3.18934 3.03264 0
M  V30 6637 H 629.099 -0.425566 0.601716 0
M  V30 6638 H 631.741 -0.461921 1.84299 0
M  V30 6639 H 629.891 -2.78849 2.7051 0
M  V30 6640 H 631.563 -0.914551 4.52143 0
M  V30 6641 H 629.806 -0.791893 4.26511 0
M  V30 6642 H 630.477 -2.22347 5.05238 0
M  V30 6643 H 632.953 -2.68243 3.18096 0
M  V30 6644 H 631.829 -3.86645 3.89611 0
M  V30 6645 H 632.09 -3.85793 2.15908 0
M  V30 6646 N 631.149 -1.42148 -0.680565 0
M  V30 6647 C 632.097 -1.45401 -1.81552 0
M  V30 6648 C 633.091 -0.33036 -1.66147 0
M  V30 6649 O 634.297 -0.503103 -1.72826 0
M  V30 6650 H 630.672 -0.455265 -0.59853 0
M  V30 6651 H 632.643 -2.41024 -1.75926 0
M  V30 6652 C 631.392 -1.36769 -3.19671 0
M  V30 6653 H 630.715 -2.22525 -3.32149 0
M  V30 6654 H 632.155 -1.43106 -3.9912 0
M  V30 6655 C 630.614 -0.0817752 -3.36801 0
M  V30 6656 O 631.144 0.867707 -3.92216 0
M  V30 6657 N 629.35 -0.000799811 -2.906 0
M  V30 6658 H 628.897 -0.774231 -2.4569 0
M  V30 6659 H 628.855 0.858961 -3.02439 0
M  V30 6660 N 632.627 0.916307 -1.28225 0
M  V30 6661 C 633.577 2.00488 -1.08574 0
M  V30 6662 C 634.561 1.60897 -0.0101874 0
M  V30 6663 O 635.753 1.75499 -0.230034 0
M  V30 6664 C 632.882 3.35076 -0.746943 0
M  V30 6665 C 631.968 3.81077 -1.86121 0
M  V30 6666 N 632.359 3.99475 -3.10247 0
M  V30 6667 C 630.657 4.10212 -1.75048 0
M  V30 6668 C 631.358 4.37965 -3.82834 0
M  V30 6669 N 630.334 4.4608 -3.10667 0
M  V30 6670 H 634.136 2.1276 -2.02757 0
M  V30 6671 H 631.65 1.10397 -1.19107 0
M  V30 6672 H 633.647 4.12743 -0.587252 0
M  V30 6673 H 632.307 3.2416 0.187146 0
M  V30 6674 H 633.318 3.85466 -3.45885 0
M  V30 6675 H 629.995 4.07947 -0.887999 0
M  V30 6676 H 631.385 4.60183 -4.89572 0
M  V30 6677 N 634.105 1.10431 1.1244 0
M  V30 6678 C 635.068 0.756542 2.16354 0
M  V30 6679 C 636.068 -0.21899 1.59302 0
M  V30 6680 O 637.258 0.00415969 1.742 0
M  V30 6681 C 634.39 0.120612 3.40687 0
M  V30 6682 H 635.583 1.67696 2.48632 0
M  V30 6683 H 633.136 0.904832 1.27446 0
M  V30 6684 H 633.871 -0.810536 3.14008 0
M  V30 6685 H 633.656 0.822693 3.83372 0
M  V30 6686 H 635.146 -0.106945 4.17463 0
M  V30 6687 N 635.583 -1.29855 0.893053 0
M  V30 6688 C 636.493 -2.31661 0.370157 0
M  V30 6689 C 637.509 -1.65677 -0.531723 0
M  V30 6690 O 638.685 -1.9691 -0.422902 0
M  V30 6691 C 635.75 -3.44388 -0.399741 0
M  V30 6692 C 634.811 -4.2598 0.532861 0
M  V30 6693 C 634.044 -5.33324 -0.200388 0
M  V30 6694 O 634.267 -5.52305 -1.42531 0
M  V30 6695 O 633.201 -6.00188 0.453668 0
M  V30 6696 H 637.027 -2.78354 1.2146 0
M  V30 6697 H 634.612 -1.34171 0.657153 0
M  V30 6698 H 636.494 -4.13037 -0.835358 0
M  V30 6699 H 635.169 -2.99815 -1.22035 0
M  V30 6700 H 634.076 -3.59998 1.01746 0
M  V30 6701 H 635.409 -4.74178 1.3197 0
M  V30 6702 N 637.061 -0.65484 -1.43351 0
M  V30 6703 C 638.289 -0.176685 -2.06144 0
M  V30 6704 C 638.704 1.15831 -1.49093 0
M  V30 6705 O 638.061 1.71542 -0.622868 0
M  V30 6706 C 638.112 -0.0813326 -3.61408 0
M  V30 6707 O 637.833 -1.36355 -4.1634 0
M  V30 6708 C 639.334 0.422706 -4.4128 0
M  V30 6709 H 636.554 -0.0906429 -0.66485 0
M  V30 6710 H 639.098 -0.895945 -1.83829 0
M  V30 6711 H 637.253 0.588496 -3.82904 0
M  V30 6712 H 637.667 -1.22381 -5.10023 0
M  V30 6713 H 639.141 0.438375 -5.50257 0
M  V30 6714 H 639.618 1.45432 -4.14423 0
M  V30 6715 H 640.224 -0.214687 -4.24758 0
M  V30 6716 N 638.539 1.52521 -0.396863 0
M  V30 6717 C 639.816 1.94112 0.240842 0
M  V30 6718 C 640.196 1.33288 1.637 0
M  V30 6719 O 639.544 0.503901 2.22875 0
M  V30 6720 C 639.754 3.48033 0.259567 0
M  V30 6721 C 641.102 4.21822 0.484866 0
M  V30 6722 O 642.126 3.54579 0.339453 0
M  V30 6723 O 640.985 5.41042 0.770412 0
M  V30 6724 H 638.079 0.812973 0.151671 0
M  V30 6725 H 640.625 1.63572 -0.451918 0
M  V30 6726 H 639.397 3.84655 -0.718078 0
M  V30 6727 H 639.02 3.84899 0.996937 0
M  V30 6728 N 640.017 0.126909 1.57088 0
M  V30 6729 C 641.263 -0.523662 1.96543 0
M  V30 6730 C 641.618 -1.63783 1.0096 0
M  V30 6731 O 640.911 -1.91556 0.0410175 0
M  V30 6732 C 641.105 -1.095 3.40212 0
M  V30 6733 C 640.934 -0.037715 4.49684 0
M  V30 6734 C 639.704 0.396823 5.03739 0
M  V30 6735 C 641.902 0.746245 5.08857 0
M  V30 6736 N 639.884 1.43905 5.96795 0
M  V30 6737 C 641.255 1.63947 5.97931 0
M  V30 6738 C 643.31 0.796259 4.91492 0
M  V30 6739 C 642.013 2.57837 6.715 0
M  V30 6740 C 644.039 1.7229 5.65747 0
M  V30 6741 C 643.401 2.60369 6.54513 0
M  V30 6742 H 639.5 -0.161016 0.765244 0
M  V30 6743 H 642.084 0.21686 1.93489 0
M  V30 6744 H 640.255 -1.80521 3.43899 0
M  V30 6745 H 641.987 -1.71054 3.66773 0
M  V30 6746 H 638.742 0.00290406 4.736 0
M  V30 6747 H 639.166 1.95932 6.48027 0
M  V30 6748 H 643.808 0.129412 4.22602 0
M  V30 6749 H 641.526 3.25532 7.39631 0
M  V30 6750 H 645.112 1.76715 5.54313 0
M  V30 6751 H 643.992 3.30906 7.10965 0
M  V30 6752 N 641.495 -1.56914 -0.146875 0
M  V30 6753 C 642.427 -1.94878 -1.20645 0
M  V30 6754 C 643.44 -0.844633 -1.39175 0
M  V30 6755 O 644.629 -1.12304 -1.38744 0
M  V30 6756 C 641.729 -2.20769 -2.57127 0
M  V30 6757 C 640.902 -3.52053 -2.59572 0
M  V30 6758 C 639.961 -3.66482 -3.77594 0
M  V30 6759 O 638.987 -4.38873 -3.62462 0
M  V30 6760 N 640.189 -3.03156 -4.95052 0
M  V30 6761 H 642.954 -2.86374 -0.883757 0
M  V30 6762 H 640.515 -1.58366 -0.336436 0
M  V30 6763 H 642.507 -2.27664 -3.34591 0
M  V30 6764 H 641.077 -1.35538 -2.81688 0
M  V30 6765 H 640.297 -3.56598 -1.68023 0
M  V30 6766 H 641.585 -4.38396 -2.58238 0
M  V30 6767 H 640.983 -2.44258 -5.10249 0
M  V30 6768 H 639.54 -3.15611 -5.70292 0
M  V30 6769 N 642.974 0.416227 -1.52004 0
M  V30 6770 C 643.907 1.52736 -1.6955 0
M  V30 6771 C 644.885 1.53264 -0.54305 0
M  V30 6772 O 646.069 1.72077 -0.769527 0
M  V30 6773 C 643.196 2.91283 -1.72835 0
M  V30 6774 C 642.242 3.08695 -2.94295 0
M  V30 6775 S 643.075 2.82758 -4.54762 0
M  V30 6776 C 644.231 4.23548 -4.60823 0
M  V30 6777 H 644.464 1.37623 -2.63528 0
M  V30 6778 H 641.997 0.607335 -1.41954 0
M  V30 6779 H 643.955 3.71134 -1.75413 0
M  V30 6780 H 642.616 3.03742 -0.799966 0
M  V30 6781 H 641.809 4.10042 -2.93056 0
M  V30 6782 H 641.411 2.36699 -2.89568 0
M  V30 6783 H 643.703 5.17078 -4.37763 0
M  V30 6784 H 644.646 4.29813 -5.62731 0
M  V30 6785 H 645.054 4.08188 -3.89927 0
M  V30 6786 N 644.452 1.42507 0.673017 0
M  V30 6787 C 645.868 1.25472 0.986355 0
M  V30 6788 C 646.068 0.160181 2.00862 0
M  V30 6789 O 645.124 -0.467993 2.48125 0
M  V30 6790 C 646.437 2.61219 1.48947 0
M  V30 6791 C 647.985 2.68589 1.60715 0
M  V30 6792 C 648.46 4.04707 2.14422 0
M  V30 6793 N 649.951 4.0667 2.21752 0
M  V30 6794 C 650.686 5.0881 2.64386 0
M  V30 6795 N 650.182 6.21332 3.0646 0
M  V30 6796 N 651.975 4.96166 2.64151 0
M  V30 6797 H 644.126 2.124 -0.00378532 0
M  V30 6798 H 646.389 0.946046 0.0608367 0
M  V30 6799 H 646.095 3.42179 0.812812 0
M  V30 6800 H 645.969 2.85261 2.46791 0
M  V30 6801 H 648.356 1.87974 2.27486 0
M  V30 6802 H 648.437 2.48333 0.613552 0
M  V30 6803 H 648.081 4.8578 1.48258 0
M  V30 6804 H 648.011 4.22315 3.14575 0
M  V30 6805 H 650.502 3.25438 1.92089 0
M  V30 6806 H 650.815 6.95118 3.37684 0
M  V30 6807 H 649.16 6.24835 3.04313 0
M  V30 6808 H 652.351 4.07334 2.30644 0
M  V30 6809 H 652.524 5.759 2.97057 0
M  V30 6810 N 645.93 -0.909495 1.28709 0
M  V30 6811 C 647.207 -1.63865 1.06806 0
M  V30 6812 C 647.587 -2.07445 -0.391143 0
M  V30 6813 O 646.935 -1.82269 -1.37805 0
M  V30 6814 C 647.145 -2.82692 2.04661 0
M  V30 6815 C 648.493 -3.5361 2.35042 0
M  V30 6816 O 649.517 -2.92847 2.02779 0
M  V30 6817 O 648.376 -4.63131 2.90124 0
M  V30 6818 H 645.47 -0.719065 0.408502 0
M  V30 6819 H 648.016 -0.958424 1.40044 0
M  V30 6820 H 646.788 -2.47614 3.0299 0
M  V30 6821 H 646.411 -3.58426 1.72095 0
M  V30 6822 N 647.408 -1.11026 -1.11852 0
M  V30 6823 C 648.34 -0.72249 -2.17515 0
M  V30 6824 C 649.353 0.243782 -1.60964 0
M  V30 6825 O 650.542 0.0273252 -1.78479 0
M  V30 6826 C 647.642 -0.0463979 -3.38868 0
M  V30 6827 C 646.815 -1.0384 -4.24895 0
M  V30 6828 C 645.874 -0.392659 -5.24733 0
M  V30 6829 O 644.9 -1.0453 -5.5952 0
M  V30 6830 N 646.102 0.846296 -5.74298 0
M  V30 6831 H 648.867 -1.63161 -2.51393 0
M  V30 6832 H 646.428 -0.999899 -1.27333 0
M  V30 6833 H 648.42 0.397215 -4.02746 0
M  V30 6834 H 646.99 0.765231 -3.03089 0
M  V30 6835 H 646.21 -1.6601 -3.57539 0
M  V30 6836 H 647.498 -1.70968 -4.79215 0
M  V30 6837 H 646.896 1.39578 -5.4821 0
M  V30 6838 H 645.453 1.23296 -6.40032 0
M  V30 6839 N 648.886 1.2938 -0.899927 0
M  V30 6840 C 649.819 2.25911 -0.322386 0
M  V30 6841 C 650.797 1.52447 0.565567 0
M  V30 6842 O 651.981 1.81404 0.512324 0
M  V30 6843 C 649.108 3.3436 0.540455 0
M  V30 6844 C 648.154 4.25579 -0.280211 0
M  V30 6845 S 648.987 5.08526 -1.67814 0
M  V30 6846 C 650.143 6.20476 -0.822224 0
M  V30 6847 H 650.376 2.7455 -1.1406 0
M  V30 6848 H 647.909 1.37606 -0.700285 0
M  V30 6849 H 649.867 3.97303 1.0325 0
M  V30 6850 H 648.528 2.84416 1.33291 0
M  V30 6851 H 647.721 5.02574 0.378915 0
M  V30 6852 H 647.323 3.67287 -0.705405 0
M  V30 6853 H 649.615 6.77485 -0.0457138 0
M  V30 6854 H 650.558 6.90606 -1.56426 0
M  V30 6855 H 650.966 5.63243 -0.37651 0
M  V30 6856 N 650.364 0.662433 1.43002 0
M  V30 6857 C 651.294 -0.00979809 2.33498 0
M  V30 6858 C 652.275 -0.802329 1.49989 0
M  V30 6859 O 653.46 -0.761964 1.78627 0
M  V30 6860 C 650.59 -0.970446 3.33466 0
M  V30 6861 C 649.544 -0.287383 4.27034 0
M  V30 6862 C 648.87 -1.36012 5.17112 0
M  V30 6863 C 650.17 0.82595 5.15728 0
M  V30 6864 H 651.864 0.745959 2.89958 0
M  V30 6865 H 649.41 0.360172 1.39423 0
M  V30 6866 H 651.363 -1.44971 3.95679 0
M  V30 6867 H 650.087 -1.75748 2.75282 0
M  V30 6868 H 648.746 0.17152 3.66199 0
M  V30 6869 H 648.394 -2.13882 4.55262 0
M  V30 6870 H 648.094 -0.908276 5.80538 0
M  V30 6871 H 649.618 -1.84056 5.82199 0
M  V30 6872 H 651.032 0.42845 5.71697 0
M  V30 6873 H 649.429 1.20282 5.87922 0
M  V30 6874 H 650.499 1.68003 4.54866 0
M  V30 6875 N 651.842 -1.52309 0.404946 0
M  V30 6876 C 652.772 -2.29805 -0.41376 0
M  V30 6877 C 653.753 -1.3384 -1.0498 0
M  V30 6878 O 654.938 -1.62745 -1.05961 0
M  V30 6879 C 652.068 -3.11639 -1.53292 0
M  V30 6880 C 651.022 -4.15616 -1.02211 0
M  V30 6881 C 650.348 -4.8577 -2.23455 0
M  V30 6882 C 651.648 -5.2224 -0.0790725 0
M  V30 6883 H 653.342 -2.98493 0.232878 0
M  V30 6884 H 650.888 -1.43552 0.113441 0
M  V30 6885 H 652.841 -3.64618 -2.11262 0
M  V30 6886 H 651.565 -2.40712 -2.20738 0
M  V30 6887 H 650.224 -3.63641 -0.46484 0
M  V30 6888 H 649.872 -4.11376 -2.89445 0
M  V30 6889 H 649.572 -5.56058 -1.89929 0
M  V30 6890 H 651.096 -5.4156 -2.82038 0
M  V30 6891 H 652.51 -5.70485 -0.567438 0
M  V30 6892 H 650.907 -5.99867 0.167167 0
M  V30 6893 H 651.977 -4.77078 0.867447 0
M  V30 6894 N 653.32 -0.135238 -1.57019 0
M  V30 6895 C 654.23 0.822226 -2.19719 0
M  V30 6896 C 655.246 1.28057 -1.17802 0
M  V30 6897 O 656.422 1.3402 -1.50335 0
M  V30 6898 C 653.487 2.0484 -2.79717 0
M  V30 6899 C 652.548 1.64042 -3.96723 0
M  V30 6900 C 651.781 2.80814 -4.53849 0
M  V30 6901 O 652.004 3.967 -4.0986 0
M  V30 6902 O 650.938 2.56963 -5.44292 0
M  V30 6903 H 654.764 0.318552 -3.02025 0
M  V30 6904 H 652.349 0.0912021 -1.49121 0
M  V30 6905 H 654.231 2.76622 -3.17897 0
M  V30 6906 H 652.906 2.54182 -2.00432 0
M  V30 6907 H 651.813 0.893182 -3.63281 0
M  V30 6908 H 653.146 1.19426 -4.77492 0
M  V30 6909 N 654.798 1.5699 0.138552 0
M  V30 6910 C 656.075 1.74741 0.87891 0
M  V30 6911 C 656.455 0.705522 1.98961 0
M  V30 6912 O 655.803 -0.274066 2.2685 0
M  V30 6913 C 656.013 3.1909 1.4136 0
M  V30 6914 C 657.361 3.81023 1.87368 0
M  V30 6915 O 658.385 3.22571 1.51084 0
M  V30 6916 O 657.244 4.83722 2.54312 0
M  V30 6917 H 654.338 0.714781 0.415953 0
M  V30 6918 H 656.884 1.69248 0.123817 0
M  V30 6919 H 655.656 3.86424 0.61579 0
M  V30 6920 H 655.279 3.29043 2.23196 0
M  V30 6921 N 656.276 -0.40816 1.52223 0
M  V30 6922 C 657.522 -1.15673 1.66576 0
M  V30 6923 C 657.855 -1.90141 0.394996 0
M  V30 6924 O 657.13 -1.84798 -0.606613 0
M  V30 6925 C 657.413 -2.15042 2.88841 0
M  V30 6926 C 657.266 -1.44465 4.25969 0
M  V30 6927 C 658.585 -3.15699 3.0663 0
M  V30 6928 H 655.704 -0.41916 0.606196 0
M  V30 6929 H 658.346 -0.442348 1.84779 0
M  V30 6930 H 656.496 -2.75964 2.73452 0
M  V30 6931 H 658.168 -0.866544 4.53088 0
M  V30 6932 H 656.411 -0.746612 4.27327 0
M  V30 6933 H 657.082 -2.16976 5.07568 0
M  V30 6934 H 659.558 -2.64854 3.20923 0
M  V30 6935 H 658.434 -3.82491 3.9369 0
M  V30 6936 H 658.695 -3.83481 2.19987 0
M  V30 6937 N 657.755 -1.42862 -0.66545 0
M  V30 6938 C 658.685 -1.49867 -1.79059 0
M  V30 6939 C 659.666 -0.354394 -1.66367 0
M  V30 6940 O 660.851 -0.569969 -1.85647 0
M  V30 6941 C 657.981 -1.40943 -3.17415 0
M  V30 6942 C 656.935 -2.53495 -3.44854 0
M  V30 6943 C 656.261 -2.29626 -4.82883 0
M  V30 6944 C 657.561 -3.95781 -3.40815 0
M  V30 6945 H 659.255 -2.44037 -1.73453 0
M  V30 6946 H 656.801 -1.17456 -0.833071 0
M  V30 6947 H 658.754 -1.4445 -3.95869 0
M  V30 6948 H 657.478 -0.432716 -3.23721 0
M  V30 6949 H 656.137 -2.4932 -2.68766 0
M  V30 6950 H 655.785 -1.30226 -4.8585 0
M  V30 6951 H 655.485 -3.05065 -5.02204 0
M  V30 6952 H 657.009 -2.34897 -5.63609 0
M  V30 6953 H 658.423 -4.01508 -4.09224 0
M  V30 6954 H 656.82 -4.71148 -3.71672 0
M  V30 6955 H 657.89 -4.21786 -2.39216 0
M  V30 6956 N 659.233 0.902656 -1.29189 0
M  V30 6957 C 660.644 1.46809 -1.15343 0
M  V30 6958 C 660.995 1.94568 0.252517 0
M  V30 6959 O 660.12 1.83454 1.14777 0
M  V30 6960 C 660.715 2.66829 -2.08776 0
M  V30 6961 C 659.274 3.19518 -1.98961 0
M  V30 6962 C 658.421 1.92212 -1.99874 0
M  V30 6963 H 661.372 0.714282 -1.41717 0
M  V30 6964 H 661.393 3.42465 -1.65826 0
M  V30 6965 H 660.905 2.32039 -3.11094 0
M  V30 6966 H 659.006 3.59008 -0.99721 0
M  V30 6967 H 659.119 3.84016 -2.86477 0
M  V30 6968 H 657.483 2.0979 -1.44431 0
M  V30 6969 H 658.266 1.59702 -3.03891 0
M  V30 6970 N 660.711 1.11618 1.11262 0
M  V30 6971 C 661.957 0.867463 1.83311 0
M  V30 6972 C 662.29 -0.605366 1.84524 0
M  V30 6973 O 661.565 -1.44704 1.29965 0
M  V30 6974 C 661.848 1.43207 3.30399 0
M  V30 6975 C 661.701 2.97265 3.3757 0
M  V30 6976 C 663.02 1.08454 4.26528 0
M  V30 6977 H 660.139 0.316578 0.665543 0
M  V30 6978 H 662.781 1.38137 1.30454 0
M  V30 6979 H 660.931 0.994982 3.75543 0
M  V30 6980 H 662.603 3.49591 3.00971 0
M  V30 6981 H 660.846 3.33237 2.77733 0
M  V30 6982 H 661.517 3.31859 4.41105 0
M  V30 6983 H 663.993 1.4619 3.89574 0
M  V30 6984 H 662.869 1.50633 5.27826 0
M  V30 6985 H 663.13 -0.00444568 4.421 0
M  V30 6986 N 662.189 -1.289 0.906776 0
M  V30 6987 C 663.121 -2.26556 0.347159 0
M  V30 6988 C 664.134 -1.54589 -0.51049 0
M  V30 6989 O 665.323 -1.75489 -0.326501 0
M  V30 6990 C 662.423 -3.3484 -0.523024 0
M  V30 6991 C 661.596 -4.36296 0.310515 0
M  V30 6992 C 660.655 -5.23879 -0.493634 0
M  V30 6993 O 659.681 -5.69127 0.0913569 0
M  V30 6994 N 660.883 -5.51946 -1.7982 0
M  V30 6995 H 663.648 -2.75212 1.18652 0
M  V30 6996 H 661.209 -1.42309 0.771996 0
M  V30 6997 H 663.201 -3.90366 -1.06756 0
M  V30 6998 H 661.771 -2.85946 -1.26309 0
M  V30 6999 H 660.991 -3.80331 1.03644 0
M  V30 7000 H 662.279 -5.01113 0.881106 0
M  V30 7001 H 661.677 -5.17006 -2.2961 0
M  V30 7002 H 660.234 -6.10258 -2.28971 0
M  V30 7003 N 663.667 -0.670007 -1.42649 0
M  V30 7004 C 664.577 0.0114788 -2.34597 0
M  V30 7005 C 665.593 0.794055 -1.54825 0
M  V30 7006 O 666.769 0.737472 -1.87412 0
M  V30 7007 C 663.834 0.954436 -3.33304 0
M  V30 7008 C 662.895 0.166925 -4.28975 0
M  V30 7009 C 662.128 1.06497 -5.22967 0
M  V30 7010 O 662.351 2.30446 -5.21777 0
M  V30 7011 O 661.285 0.528347 -5.99577 0
M  V30 7012 H 665.111 -0.745794 -2.944 0
M  V30 7013 H 662.696 -0.430228 -1.43071 0
M  V30 7014 H 664.578 1.49589 -3.93956 0
M  V30 7015 H 663.253 1.69164 -2.7598 0
M  V30 7016 H 662.16 -0.418515 -3.71752 0
M  V30 7017 H 663.493 -0.531067 -4.89327 0
M  V30 7018 N 665.145 1.52092 -0.413018 0
M  V30 7019 C 666.422 1.94356 0.22024 0
M  V30 7020 C 666.802 1.35017 1.62277 0
M  V30 7021 O 666.15 0.527511 2.22328 0
M  V30 7022 C 666.36 3.48289 0.222638 0
M  V30 7023 C 667.708 4.22313 0.440098 0
M  V30 7024 O 668.732 3.54919 0.301826 0
M  V30 7025 O 667.591 5.41829 0.712984 0
M  V30 7026 H 664.685 0.814536 0.14304 0
M  V30 7027 H 667.231 1.63083 -0.469242 0
M  V30 7028 H 666.003 3.83872 -0.758836 0
M  V30 7029 H 665.626 3.85934 0.956057 0
M  V30 7030 N 666.623 0.143563 1.56945 0
M  V30 7031 C 667.9 -0.553285 1.87612 0
M  V30 7032 C 668.28 -1.83195 1.04894 0
M  V30 7033 O 667.628 -2.28102 0.134773 0
M  V30 7034 C 667.838 -0.822055 3.3918 0
M  V30 7035 C 669.186 -1.16435 4.08324 0
M  V30 7036 O 670.21 -0.911522 3.4434 0
M  V30 7037 O 669.069 -1.63996 5.21313 0
M  V30 7038 H 666.163 -0.281851 0.777489 0
M  V30 7039 H 668.709 0.179916 1.68744 0
M  V30 7040 H 667.481 0.0830265 3.91212 0
M  V30 7041 H 667.104 -1.60956 3.63564 0
M  V30 7042 N 668.101 -1.57061 -0.130224 0
M  V30 7043 C 669.326 -1.88802 -0.858409 0
M  V30 7044 C 669.751 -0.734353 -1.73173 0
M  V30 7045 O 669.109 0.315529 -1.78533 0
M  V30 7046 C 669.157 -3.19228 -1.67708 0
M  V30 7047 O 668.261 -3.04343 -2.78297 0
M  V30 7048 H 667.602 -0.619849 -0.238083 0
M  V30 7049 H 670.132 -2.04271 -0.115995 0
M  V30 7050 H 670.142 -3.51669 -2.06864 0
M  V30 7051 H 668.817 -4.02793 -1.0359 0
M  V30 7052 H 667.394 -2.83346 -2.42425 0
M  V30 7053 N 669.579 0.400081 -1.52437 0
M  V30 7054 C 670.509 1.4947 -1.7939 0
M  V30 7055 C 671.49 1.57383 -0.645329 0
M  V30 7056 O 672.675 1.72511 -0.891826 0
M  V30 7057 C 669.805 2.87201 -1.95276 0
M  V30 7058 C 668.759 2.94134 -3.10917 0
M  V30 7059 C 668.085 4.34207 -3.1204 0
M  V30 7060 C 669.385 2.64791 -4.50203 0
M  V30 7061 H 671.079 1.27165 -2.71052 0
M  V30 7062 H 668.625 0.610312 -1.30427 0
M  V30 7063 H 670.578 3.63772 -2.12715 0
M  V30 7064 H 669.302 3.10819 -1.00294 0
M  V30 7065 H 667.961 2.20009 -2.93243 0
M  V30 7066 H 667.609 4.54848 -2.14761 0
M  V30 7067 H 667.309 4.39768 -3.89715 0
M  V30 7068 H 668.833 5.127 -3.31619 0
M  V30 7069 H 670.247 3.31083 -4.68035 0
M  V30 7070 H 668.644 2.81717 -5.29864 0
M  V30 7071 H 669.714 1.60184 -4.57678 0
M  V30 7072 N 671.057 1.43213 0.657864 0
M  V30 7073 C 671.99 1.42456 1.78273 0
M  V30 7074 C 672.968 0.286598 1.60054 0
M  V30 7075 O 674.152 0.479467 1.823 0
M  V30 7076 C 671.279 1.23169 3.15511 0
M  V30 7077 C 670.325 2.40181 3.52442 0
M  V30 7078 S 671.158 4.02729 3.52944 0
M  V30 7079 C 672.314 3.85816 4.92846 0
M  V30 7080 H 672.547 2.37642 1.78644 0
M  V30 7081 H 670.08 1.30188 0.830084 0
M  V30 7082 H 672.038 1.12728 3.94719 0
M  V30 7083 H 670.699 0.295398 3.12708 0
M  V30 7084 H 669.892 2.22478 4.52239 0
M  V30 7085 H 669.494 2.47224 2.80636 0
M  V30 7086 H 671.786 3.47853 5.81381 0
M  V30 7087 H 672.729 4.85348 5.15599 0
M  V30 7088 H 673.137 3.18361 4.66162 0
M  V30 7089 N 672.536 -0.895792 1.29666 0
M  V30 7090 C 673.761 -1.68528 1.20885 0
M  V30 7091 C 674.186 -1.8673 -0.226595 0
M  V30 7092 O 673.544 -1.39044 -1.16347 0
M  V30 7093 C 673.592 -3.04512 1.93144 0
M  V30 7094 O 672.696 -3.92963 1.25115 0
M  V30 7095 H 672.037 -0.515371 0.418675 0
M  V30 7096 H 674.567 -1.11878 1.71302 0
M  V30 7097 H 674.577 -3.54628 2.0175 0
M  V30 7098 H 673.252 -2.90582 2.97548 0
M  V30 7099 H 671.829 -3.51399 1.24794 0
M  V30 7100 N 674.014 -1.12206 -1.10668 0
M  V30 7101 C 675.239 -0.898938 -1.86906 0
M  V30 7102 C 675.664 0.546346 -1.79991 0
M  V30 7103 O 675.022 1.38655 -1.1681 0
M  V30 7104 C 675.07 -1.37529 -3.33344 0
M  V30 7105 O 674.174 -0.55218 -4.08687 0
M  V30 7106 H 673.515 -0.323163 -0.580053 0
M  V30 7107 H 676.045 -1.49355 -1.39837 0
M  V30 7108 H 676.055 -1.3733 -3.84193 0
M  V30 7109 H 674.73 -2.42767 -3.37693 0
M  V30 7110 H 673.307 -0.620947 -3.67694 0
M  V30 7111 N 675.492 1.28418 -0.913599 0
M  V30 7112 C 676.442 2.24928 -0.373042 0
M  V30 7113 C 677.426 1.52444 0.514753 0
M  V30 7114 O 678.618 1.73414 0.3545 0
M  V30 7115 C 675.747 3.41124 0.385896 0
M  V30 7116 C 674.833 4.20929 -0.51761 0
M  V30 7117 N 675.224 4.78777 -1.63113 0
M  V30 7118 C 673.522 4.44865 -0.317969 0
M  V30 7119 C 674.223 5.38822 -2.19193 0
M  V30 7120 N 673.199 5.22974 -1.48321 0
M  V30 7121 H 677.001 2.67224 -1.22346 0
M  V30 7122 H 674.515 1.43187 -0.766236 0
M  V30 7123 H 676.512 4.09347 0.789997 0
M  V30 7124 H 675.172 3.00362 1.23341 0
M  V30 7125 H 676.183 4.77148 -2.01372 0
M  V30 7126 H 672.86 4.14614 0.49004 0
M  V30 7127 H 674.25 5.94615 -3.12861 0
M  V30 7128 N 676.97 0.677563 1.42291 0
M  V30 7129 C 678.381 0.277912 1.8462 0
M  V30 7130 C 678.732 -1.18048 1.56714 0
M  V30 7131 O 677.857 -1.90404 1.02836 0
M  V30 7132 C 678.452 0.497619 3.35126 0
M  V30 7133 C 677.011 0.152063 3.76093 0
M  V30 7134 C 676.158 0.78872 2.65847 0
M  V30 7135 H 679.109 0.879527 1.32098 0
M  V30 7136 H 679.13 -0.24939 3.79682 0
M  V30 7137 H 678.642 1.55913 3.55405 0
M  V30 7138 H 676.743 -0.905896 3.6142 0
M  V30 7139 H 676.856 0.594514 4.75397 0
M  V30 7140 H 675.22 0.219813 2.5375 0
M  V30 7141 H 676.003 1.85374 2.88949 0
M  V30 7142 N 678.448 -1.51871 0.421078 0
M  V30 7143 C 679.697 -2.01125 -0.152206 0
M  V30 7144 C 680.01 -1.3106 -1.45199 0
M  V30 7145 O 681.216 -1.71195 -2.10724 0
M  V30 7146 C 679.672 -3.58458 -0.3218 0
M  V30 7147 C 679.28 -4.37448 0.96659 0
M  V30 7148 C 681.024 -4.15908 -0.84973 0
M  V30 7149 C 678.931 -5.86451 0.763529 0
M  V30 7150 H 677.861 -0.751556 -0.0606565 0
M  V30 7151 H 680.512 -1.75115 0.548354 0
M  V30 7152 H 678.894 -3.80847 -1.08498 0
M  V30 7153 H 680.068 -4.26814 1.73684 0
M  V30 7154 H 678.383 -3.91373 1.42183 0
M  V30 7155 H 680.98 -5.24922 -1.01788 0
M  V30 7156 H 681.323 -3.74031 -1.82774 0
M  V30 7157 H 681.856 -3.97535 -0.145297 0
M  V30 7158 H 678.595 -6.3271 1.71344 0
M  V30 7159 H 678.115 -5.99791 0.0327889 0
M  V30 7160 H 679.794 -6.45697 0.410354 0
M  V30 7161 N 679.926 -0.151884 -1.56866 0
M  V30 7162 C 681.175 0.497992 -1.95456 0
M  V30 7163 C 681.488 1.6569 -1.03953 0
M  V30 7164 O 682.694 2.37173 -1.32142 0
M  V30 7165 C 681.15 0.93732 -3.4748 0
M  V30 7166 C 680.758 -0.194921 -4.47576 0
M  V30 7167 C 682.502 1.55671 -3.94926 0
M  V30 7168 C 680.409 0.26295 -5.90815 0
M  V30 7169 H 679.339 0.189811 -0.729717 0
M  V30 7170 H 681.99 -0.237011 -1.81963 0
M  V30 7171 H 680.372 1.72773 -3.56322 0
M  V30 7172 H 681.546 -0.971951 -4.50433 0
M  V30 7173 H 679.861 -0.72303 -4.10075 0
M  V30 7174 H 682.458 1.91099 -4.99385 0
M  V30 7175 H 682.801 2.44748 -3.36755 0
M  V30 7176 H 683.334 0.831109 -3.89021 0
M  V30 7177 H 680.073 -0.592568 -6.52816 0
M  V30 7178 H 679.593 1.00575 -5.91308 0
M  V30 7179 H 681.272 0.713333 -6.43056 0
M  V30 7180 N 681.404 1.57128 0.121893 0
M  V30 7181 C 682.65 1.84974 0.831418 0
M  V30 7182 C 682.983 0.737204 1.79663 0
M  V30 7183 O 682.258 -0.257199 1.92792 0
M  V30 7184 C 682.541 3.23397 1.58386 0
M  V30 7185 C 682.394 4.45246 0.638445 0
M  V30 7186 C 683.713 3.59355 2.54071 0
M  V30 7187 H 680.832 0.67282 0.300803 0
M  V30 7188 H 683.474 1.89759 0.0957587 0
M  V30 7189 H 681.624 3.19449 2.21098 0
M  V30 7190 H 683.296 4.61295 0.0203925 0
M  V30 7191 H 681.539 4.33771 -0.05023 0
M  V30 7192 H 682.21 5.38765 1.20151 0
M  V30 7193 H 684.686 3.64075 2.01465 0
M  V30 7194 H 683.562 4.57193 3.03752 0
M  V30 7195 H 683.823 2.86622 3.36601 0
M  V30 7196 N 682.882 -0.391992 1.52647 0
M  V30 7197 C 684.11 -1.1586 1.71418 0
M  V30 7198 C 684.525 -1.8381 0.431216 0
M  V30 7199 O 683.882 -1.7256 -0.594085 0
M  V30 7200 C 683.933 -2.20888 2.86165 0
M  V30 7201 O 683.654 -1.5571 4.09495 0
M  V30 7202 C 685.155 -3.103 3.1659 0
M  V30 7203 H 682.375 -0.347494 0.574011 0
M  V30 7204 H 684.919 -0.458972 1.99283 0
M  V30 7205 H 683.074 -2.86492 2.6077 0
M  V30 7206 H 683.488 -2.25474 4.73563 0
M  V30 7207 H 684.962 -3.8003 4.00351 0
M  V30 7208 H 685.439 -3.73639 2.30848 0
M  V30 7209 H 686.045 -2.50345 3.43813 0
M  V30 7210 N 684.36 -1.4356 -0.65026 0
M  V30 7211 C 685.606 -1.45549 -1.41221 0
M  V30 7212 C 685.939 -0.0805472 -1.94033 0
M  V30 7213 O 685.214 0.899043 -1.72475 0
M  V30 7214 C 685.497 -2.50028 -2.59148 0
M  V30 7215 C 685.35 -3.96808 -2.1181 0
M  V30 7216 C 686.669 -2.51212 -3.61359 0
M  V30 7217 H 683.788 -0.529967 -0.512156 0
M  V30 7218 H 686.43 -1.75127 -0.736933 0
M  V30 7219 H 684.58 -2.24937 -3.16758 0
M  V30 7220 H 686.252 -4.32966 -1.59178 0
M  V30 7221 H 684.495 -4.09498 -1.43156 0
M  V30 7222 H 685.166 -4.6553 -2.96625 0
M  V30 7223 H 687.642 -2.73583 -3.13515 0
M  V30 7224 H 686.518 -3.26252 -4.41419 0
M  V30 7225 H 686.779 -1.54701 -4.1415 0
M  V30 7226 N 685.838 0.888903 -1.30139 0
M  V30 7227 C 687.066 1.67358 -1.21651 0
M  V30 7228 C 687.481 1.87499 0.221246 0
M  V30 7229 O 686.838 1.41969 1.14677 0
M  V30 7230 C 686.889 3.05213 -1.93719 0
M  V30 7231 O 686.61 2.85984 -3.31881 0
M  V30 7232 C 688.111 3.9964 -1.9184 0
M  V30 7233 H 685.331 0.522365 -0.42116 0
M  V30 7234 H 687.875 1.11086 -1.71698 0
M  V30 7235 H 686.03 3.5823 -1.4748 0
M  V30 7236 H 686.444 3.73411 -3.68327 0
M  V30 7237 H 687.918 4.93749 -2.46811 0
M  V30 7238 H 688.395 4.29955 -0.896409 0
M  V30 7239 H 689.001 3.52558 -2.37872 0
M  V30 7240 N 687.317 1.12792 1.10072 0
M  V30 7241 C 688.545 0.908506 1.85886 0
M  V30 7242 C 688.96 -0.542408 1.80841 0
M  V30 7243 O 688.317 -1.37517 1.1998 0
M  V30 7244 C 688.368 1.37973 3.34134 0
M  V30 7245 O 688.089 2.77378 3.39106 0
M  V30 7246 C 689.59 1.1978 4.26811 0
M  V30 7247 H 686.81 0.3244 0.587372 0
M  V30 7248 H 689.354 1.49882 1.39125 0
M  V30 7249 H 687.509 0.832566 3.78348 0
M  V30 7250 H 687.923 2.98144 4.31521 0
M  V30 7251 H 689.397 1.57635 5.29014 0
M  V30 7252 H 689.874 0.138768 4.38981 0
M  V30 7253 H 690.48 1.73266 3.88406 0
M  V30 7254 N 688.795 -1.27931 0.920396 0
M  V30 7255 C 690.206 -1.76707 0.602616 0
M  V30 7256 C 690.557 -1.75249 -0.882159 0
M  V30 7257 O 689.682 -1.35135 -1.69019 0
M  V30 7258 C 690.277 -3.20884 1.08714 0
M  V30 7259 C 688.836 -3.67356 0.820157 0
M  V30 7260 C 687.983 -2.47525 1.25006 0
M  V30 7261 H 690.934 -1.14301 1.10095 0
M  V30 7262 H 690.955 -3.78045 0.431535 0
M  V30 7263 H 690.467 -3.21913 2.1678 0
M  V30 7264 H 688.568 -3.7178 -0.247012 0
M  V30 7265 H 688.681 -4.57181 1.43257 0
M  V30 7266 H 687.045 -2.45765 0.668698 0
M  V30 7267 H 687.828 -2.51269 2.3392 0
M  V30 7268 N 690.273 -0.685099 -1.4193 0
M  V30 7269 C 691.55 -0.140152 -1.95097 0
M  V30 7270 C 691.93 1.34745 -1.62502 0
M  V30 7271 O 691.278 2.08872 -0.926534 0
M  V30 7272 C 691.488 -0.420268 -3.4646 0
M  V30 7273 C 692.836 -0.342338 -4.23218 0
M  V30 7274 O 693.86 -0.354592 -3.54431 0
M  V30 7275 O 692.719 -0.293404 -5.45712 0
M  V30 7276 H 689.813 -0.00885998 -0.826953 0
M  V30 7277 H 692.359 -0.760539 -1.51703 0
M  V30 7278 H 691.131 -1.45037 -3.63428 0
M  V30 7279 H 690.754 0.231616 -3.96925 0
M  V30 7280 N 691.751 1.51645 -0.429126 0
M  V30 7281 C 692.661 2.31288 0.392809 0
M  V30 7282 C 693.677 1.39852 1.03525 0
M  V30 7283 O 694.853 1.72926 1.03241 0
M  V30 7284 C 691.918 3.13347 1.48372 0
M  V30 7285 C 690.979 4.20551 0.862268 0
M  V30 7286 C 690.212 4.98688 1.9012 0
M  V30 7287 O 690.435 4.77359 3.12225 0
M  V30 7288 O 689.369 5.83005 1.4963 0
M  V30 7289 H 693.195 3.02609 -0.257138 0
M  V30 7290 H 690.78 1.48163 -0.191851 0
M  V30 7291 H 692.662 3.64387 2.1166 0
M  V30 7292 H 691.337 2.44799 2.1179 0
M  V30 7293 H 690.244 3.73609 0.191568 0
M  V30 7294 H 691.577 4.91449 0.271704 0
M  V30 7295 N 693.229 0.160201 1.56784 0
M  V30 7296 C 694.478 -0.487619 1.95717 0
M  V30 7297 C 694.791 -1.65136 1.0483 0
M  V30 7298 O 695.997 -2.36468 1.33398 0
M  V30 7299 C 694.453 -0.91888 3.47972 0
M  V30 7300 C 694.061 0.218655 4.47466 0
M  V30 7301 C 695.805 -1.53575 3.95746 0
M  V30 7302 C 693.712 -0.231614 5.90946 0
M  V30 7303 H 692.642 -0.185939 0.730714 0
M  V30 7304 H 695.293 0.246657 1.81835 0
M  V30 7305 H 693.675 -1.70881 3.57234 0
M  V30 7306 H 694.849 0.995825 4.49911 0
M  V30 7307 H 693.164 0.744767 4.09685 0
M  V30 7308 H 695.761 -1.88448 5.00391 0
M  V30 7309 H 696.104 -2.42959 3.38048 0
M  V30 7310 H 696.637 -0.810467 3.89456 0
M  V30 7311 H 693.376 0.62718 6.52493 0
M  V30 7312 H 692.896 -0.974379 5.91833 0
M  V30 7313 H 694.575 -0.67922 6.43425 0
M  V30 7314 N 694.707 -1.5719 -0.113559 0
M  V30 7315 C 695.935 -1.89328 -0.834422 0
M  V30 7316 C 696.35 -0.752018 -1.73177 0
M  V30 7317 O 695.707 0.276912 -1.80387 0
M  V30 7318 C 695.758 -3.20962 -1.66329 0
M  V30 7319 O 695.479 -4.30695 -0.802069 0
M  V30 7320 C 696.98 -3.6684 -2.48884 0
M  V30 7321 H 694.2 -0.626769 -0.239587 0
M  V30 7322 H 696.744 -2.04273 -0.0963195 0
M  V30 7323 H 694.899 -3.0767 -2.35409 0
M  V30 7324 H 695.313 -5.06175 -1.37431 0
M  V30 7325 H 696.787 -4.61692 -3.02563 0
M  V30 7326 H 697.264 -2.93765 -3.26495 0
M  V30 7327 H 697.87 -3.82938 -1.85036 0
M  V30 7328 N 696.185 0.383891 -1.52853 0
M  V30 7329 C 697.41 1.154 -1.7233 0
M  V30 7330 C 697.835 1.82809 -0.44298 0
M  V30 7331 O 697.193 1.71026 0.601645 0
M  V30 7332 C 697.241 2.17386 -2.87708 0
M  V30 7333 O 696.345 3.24082 -2.55038 0
M  V30 7334 H 695.686 0.335709 -0.572883 0
M  V30 7335 H 698.216 0.44662 -1.99666 0
M  V30 7336 H 698.226 2.61296 -3.1335 0
M  V30 7337 H 696.901 1.6771 -3.80587 0
M  V30 7338 H 695.478 2.85273 -2.40153 0
M  V30 7339 N 697.663 1.43903 0.642637 0
M  V30 7340 C 698.909 1.46296 1.40447 0
M  V30 7341 C 699.242 0.0908361 1.93987 0
M  V30 7342 O 698.517 -0.889884 1.72949 0
M  V30 7343 C 698.8 2.51399 2.57819 0
M  V30 7344 C 698.653 3.97926 2.09702 0
M  V30 7345 C 699.972 2.53125 3.60022 0
M  V30 7346 H 697.091 0.532676 0.509338 0
M  V30 7347 H 699.733 1.75515 0.727635 0
M  V30 7348 H 697.883 2.26614 3.1556 0
M  V30 7349 H 699.555 4.33804 1.5688 0
M  V30 7350 H 697.798 4.10252 1.40982 0
M  V30 7351 H 698.469 4.67096 2.94152 0
M  V30 7352 H 700.945 2.75242 3.12059 0
M  V30 7353 H 699.821 3.28589 4.39682 0
M  V30 7354 H 700.082 1.56895 4.13324 0
M  V30 7355 N 699.141 -0.881989 1.30609 0
M  V30 7356 C 700.388 -1.63405 1.19604 0
M  V30 7357 C 700.716 -1.92905 -0.248574 0
M  V30 7358 O 699.971 -1.55062 -1.19391 0
M  V30 7359 C 700.27 -2.97999 1.97311 0
M  V30 7360 C 699.936 -2.88039 3.46907 0
M  V30 7361 C 698.598 -2.85029 3.877 0
M  V30 7362 C 700.95 -2.75948 4.42156 0
M  V30 7363 C 698.278 -2.67772 5.2203 0
M  V30 7364 C 700.63 -2.60228 5.76597 0
M  V30 7365 C 699.294 -2.55595 6.16626 0
M  V30 7366 H 698.564 -0.597941 0.437662 0
M  V30 7367 H 701.211 -1.02524 1.61744 0
M  V30 7368 H 699.516 -3.62847 1.47815 0
M  V30 7369 H 701.213 -3.55156 1.86186 0
M  V30 7370 H 697.803 -2.91192 3.14492 0
M  V30 7371 H 701.987 -2.77337 4.1158 0
M  V30 7372 H 697.243 -2.62601 5.52133 0
M  V30 7373 H 701.417 -2.49847 6.50038 0
M  V30 7374 H 699.044 -2.41981 7.20659 0
M  V30 7375 N 700.619 -1.13374 -1.09472 0
M  V30 7376 C 701.896 -0.806329 -1.78207 0
M  V30 7377 C 702.276 0.702191 -1.99079 0
M  V30 7378 O 701.624 1.63931 -1.59182 0
M  V30 7379 C 701.834 -1.59271 -3.10538 0
M  V30 7380 C 703.182 -1.78509 -3.85253 0
M  V30 7381 O 704.206 -1.55866 -3.20288 0
M  V30 7382 O 703.065 -2.16287 -5.01879 0
M  V30 7383 H 700.159 -0.29435 -0.772843 0
M  V30 7384 H 702.705 -1.23833 -1.16033 0
M  V30 7385 H 701.477 -2.61792 -2.90828 0
M  V30 7386 H 701.1 -1.15562 -3.80436 0
M  V30 7387 N 702.098 1.27442 -0.927168 0
M  V30 7388 C 703.346 1.94007 -0.566203 0
M  V30 7389 C 703.667 1.7323 0.895345 0
M  V30 7390 O 702.937 1.07973 1.63459 0
M  V30 7391 H 701.517 0.717917 -0.206409 0
M  V30 7392 H 704.179 1.55161 -1.17945 0
M  V30 7393 H 703.275 3.02401 -0.772028 0
M  V30 7394 N 703.576 0.692616 1.41565 0
M  V30 7395 C 704.825 0.219452 2.00503 0
M  V30 7396 C 705.138 -1.18683 1.55479 0
M  V30 7397 O 706.344 -1.75731 2.06956 0
M  V30 7398 C 704.8 0.341451 3.58277 0
M  V30 7399 C 704.408 1.75291 4.12283 0
M  V30 7400 C 706.152 -0.0720899 4.24439 0
M  V30 7401 C 704.059 1.82673 5.62481 0
M  V30 7402 H 702.989 0.0782874 0.749925 0
M  V30 7403 H 705.64 0.860386 1.62079 0
M  V30 7404 H 704.022 -0.367683 3.94289 0
M  V30 7405 H 705.196 2.49057 3.87695 0
M  V30 7406 H 703.511 2.11587 3.58636 0
M  V30 7407 H 706.108 -0.0373385 5.34687 0
M  V30 7408 H 706.451 -1.11034 4.0122 0
M  V30 7409 H 706.984 0.586663 3.9345 0
M  V30 7410 H 703.723 2.84539 5.90523 0
M  V30 7411 H 703.243 1.13288 5.89004 0
M  V30 7412 H 704.922 1.58827 6.27203 0
M  V30 7413 N 705.054 -1.51416 0.437162 0
M  V30 7414 C 706.279 -2.0699 -0.130424 0
M  V30 7415 C 706.704 -1.30249 -1.35709 0
M  V30 7416 O 706.062 -0.340388 -1.78076 0
M  V30 7417 C 706.11 -3.5801 -0.43142 0
M  V30 7418 O 705.214 -3.8345 -1.5179 0
M  V30 7419 H 704.555 -0.663997 -0.00194339 0
M  V30 7420 H 707.085 -1.95029 0.618445 0
M  V30 7421 H 707.095 -4.02261 -0.681926 0
M  V30 7422 H 705.77 -4.13291 0.465137 0
M  V30 7423 H 704.347 -3.51062 -1.25737 0
M  V30 7424 N 706.532 -0.168513 -1.56696 0
M  V30 7425 C 707.762 0.482802 -2.0088 0
M  V30 7426 C 708.17 1.57537 -1.0478 0
M  V30 7427 O 707.513 1.83656 -0.0402746 0
M  V30 7428 C 707.575 1.1236 -3.4149 0
M  V30 7429 C 707.239 0.173027 -4.56672 0
M  V30 7430 C 708.236 -0.607565 -5.16338 0
M  V30 7431 C 705.921 0.0696691 -5.02252 0
M  V30 7432 C 707.915 -1.47874 -6.2001 0
M  V30 7433 C 705.602 -0.805096 -6.05773 0
M  V30 7434 C 706.6 -1.57789 -6.64524 0
M  V30 7435 O 706.288 -2.43804 -7.66038 0
M  V30 7436 H 706.02 0.128246 -0.663723 0
M  V30 7437 H 708.574 -0.266532 -2.03663 0
M  V30 7438 H 706.804 1.921 -3.35611 0
M  V30 7439 H 708.493 1.67683 -3.69645 0
M  V30 7440 H 709.259 -0.53787 -4.82008 0
M  V30 7441 H 705.138 0.660957 -4.56237 0
M  V30 7442 H 708.682 -2.0824 -6.65794 0
M  V30 7443 H 704.579 -0.876005 -6.39528 0
M  V30 7444 H 705.347 -2.37289 -7.83349 0
M  V30 7445 N 708.01 1.57248 0.105221 0
M  V30 7446 C 709.235 1.90143 0.828264 0
M  V30 7447 C 709.66 0.761811 1.71983 0
M  V30 7448 O 709.018 -0.287086 1.79013 0
M  V30 7449 C 709.066 3.21856 1.62608 0
M  V30 7450 O 708.17 3.08732 2.7342 0
M  V30 7451 H 707.511 0.623558 0.228192 0
M  V30 7452 H 710.041 2.0443 0.0834826 0
M  V30 7453 H 710.051 3.54916 2.01243 0
M  V30 7454 H 708.726 4.0439 0.971687 0
M  V30 7455 H 707.303 2.87167 2.37886 0
M  V30 7456 N 709.488 -0.375779 1.53054 0
M  V30 7457 C 710.435 -1.45978 1.78771 0
M  V30 7458 C 711.405 -1.53625 0.631552 0
M  V30 7459 O 712.59 -1.69674 0.872667 0
M  V30 7460 C 709.73 -2.8305 1.97425 0
M  V30 7461 C 708.843 -2.84451 3.25134 0
M  V30 7462 C 707.978 -4.13034 3.34031 0
M  V30 7463 C 707.017 -4.08536 4.55812 0
M  V30 7464 N 706.154 -5.2875 4.61918 0
M  V30 7465 H 710.994 -1.23349 2.71273 0
M  V30 7466 H 708.531 -0.598147 1.3439 0
M  V30 7467 H 710.489 -3.62666 2.06225 0
M  V30 7468 H 709.119 -3.04101 1.0827 0
M  V30 7469 H 708.171 -1.97127 3.25338 0
M  V30 7470 H 709.483 -2.76998 4.14818 0
M  V30 7471 H 708.637 -5.0106 3.42087 0
M  V30 7472 H 707.376 -4.23226 2.42345 0
M  V30 7473 H 706.381 -3.18897 4.47867 0
M  V30 7474 H 707.606 -3.99955 5.48828 0
M  V30 7475 H 705.552 -5.39547 3.73129 0
M  V30 7476 H 705.469 -5.23426 5.45492 0
M  V30 7477 H 706.737 -6.18637 4.74245 0
M  V30 7478 N 710.966 -1.44241 -0.634997 0
M  V30 7479 C 712.214 -1.46531 -1.39187 0
M  V30 7480 C 712.535 -0.0976441 -1.94755 0
M  V30 7481 O 711.805 0.869528 -1.75545 0
M  V30 7482 H 710.385 -0.539544 -0.516625 0
M  V30 7483 H 713.047 -1.79989 -0.747655 0
M  V30 7484 H 712.143 -2.18848 -2.22513 0
M  V30 7485 N 712.444 0.87505 -1.31075 0
M  V30 7486 C 713.669 1.66583 -1.23551 0
M  V30 7487 C 714.094 1.87067 0.19686 0
M  V30 7488 O 713.452 1.40877 1.1412 0
M  V30 7489 C 713.5 3.01401 -1.97965 0
M  V30 7490 O 712.604 3.90923 -1.31351 0
M  V30 7491 H 711.945 0.508645 -0.426821 0
M  V30 7492 H 714.475 1.09139 -1.7306 0
M  V30 7493 H 714.485 3.51374 -2.07366 0
M  V30 7494 H 713.16 2.85812 -3.02133 0
M  V30 7495 H 711.737 3.49369 -1.30368 0
M  V30 7496 N 713.922 1.13953 1.08869 0
M  V30 7497 C 715.147 0.928559 1.85452 0
M  V30 7498 C 715.572 -0.517642 1.80837 0
M  V30 7499 O 714.93 -1.36779 1.19001 0
M  V30 7500 C 714.978 1.42814 3.31114 0
M  V30 7501 O 714.082 0.617129 4.07756 0
M  V30 7502 H 713.423 0.33235 0.574839 0
M  V30 7503 H 715.953 1.5156 1.37443 0
M  V30 7504 H 715.963 1.43425 3.8196 0
M  V30 7505 H 714.638 2.48109 3.33788 0
M  V30 7506 H 713.215 0.679365 3.66659 0
M  V30 7507 N 715.4 -1.26948 0.933913 0
M  V30 7508 C 716.649 -1.93378 0.573409 0
M  V30 7509 C 716.962 -1.74148 -0.890614 0
M  V30 7510 O 718.168 -2.34971 -1.36017 0
M  V30 7511 C 716.624 -3.46449 0.974747 0
M  V30 7512 C 716.232 -3.74425 2.45988 0
M  V30 7513 C 717.976 -4.18924 0.685791 0
M  V30 7514 C 715.883 -5.209 2.8003 0
M  V30 7515 H 714.813 -0.723952 0.210736 0
M  V30 7516 H 717.464 -1.44143 1.13557 0
M  V30 7517 H 715.846 -3.94528 0.341181 0
M  V30 7518 H 717.02 -3.37079 3.14188 0
M  V30 7519 H 715.335 -3.15167 2.72138 0
M  V30 7520 H 717.932 -5.26786 0.916546 0
M  V30 7521 H 718.275 -4.14587 -0.377217 0
M  V30 7522 H 718.808 -3.76687 1.27874 0
M  V30 7523 H 715.547 -5.30332 3.85264 0
M  V30 7524 H 715.067 -5.59369 2.16485 0
M  V30 7525 H 716.746 -5.88837 2.68105 0
M  V30 7526 N 716.879 -0.700114 -1.41195 0
M  V30 7527 C 717.809 -0.0521132 -2.33442 0
M  V30 7528 C 718.79 0.76228 -1.52063 0
M  V30 7529 O 719.975 0.714336 -1.80585 0
M  V30 7530 C 717.105 0.881693 -3.35922 0
M  V30 7531 C 716.059 0.174062 -4.27646 0
M  V30 7532 C 715.385 1.22254 -5.20536 0
M  V30 7533 C 716.685 -0.962396 -5.13357 0
M  V30 7534 H 718.379 -0.822574 -2.87879 0
M  V30 7535 H 715.925 -0.397011 -1.38419 0
M  V30 7536 H 717.878 1.34429 -3.99383 0
M  V30 7537 H 716.602 1.68387 -2.79845 0
M  V30 7538 H 715.261 -0.268551 -3.65615 0
M  V30 7539 H 714.909 2.01736 -4.60773 0
M  V30 7540 H 714.609 0.754038 -5.82742 0
M  V30 7541 H 716.133 1.68555 -5.86874 0
M  V30 7542 H 717.547 -0.579875 -5.7036 0
M  V30 7543 H 715.944 -1.35828 -5.84526 0
M  V30 7544 H 717.014 -1.80003 -4.50252 0
M  V30 7545 N 718.357 1.51182 -0.445186 0
M  V30 7546 C 719.773 1.59299 -0.0978954 0
M  V30 7547 C 719.973 1.4555 1.39346 0
M  V30 7548 O 719.029 1.30073 2.16419 0
M  V30 7549 C 720.342 2.94133 -0.625005 0
M  V30 7550 C 721.89 3.07463 -0.586137 0
M  V30 7551 C 722.365 4.44832 -1.09035 0
M  V30 7552 N 723.856 4.51173 -1.04867 0
M  V30 7553 C 724.591 5.55804 -1.40959 0
M  V30 7554 N 724.087 6.67816 -1.84375 0
M  V30 7555 N 725.88 5.46205 -1.32726 0
M  V30 7556 H 718.031 1.58363 -1.41544 0
M  V30 7557 H 720.294 0.746946 -0.58376 0
M  V30 7558 H 720 3.09589 -1.66876 0
M  V30 7559 H 719.874 3.77161 -0.0542262 0
M  V30 7560 H 722.261 2.9167 0.448646 0
M  V30 7561 H 722.342 2.26255 -1.19341 0
M  V30 7562 H 721.986 4.61372 -2.12364 0
M  V30 7563 H 721.916 5.24591 -0.459539 0
M  V30 7564 H 724.407 3.70783 -0.729932 0
M  V30 7565 H 724.72 7.43683 -2.10131 0
M  V30 7566 H 723.065 6.69003 -1.88308 0
M  V30 7567 H 726.256 4.57583 -0.986678 0
M  V30 7568 H 726.429 6.27634 -1.61182 0
M  V30 7569 N 719.835 0.176821 1.56605 0
M  V30 7570 C 720.768 -0.790135 2.14084 0
M  V30 7571 C 721.746 -1.22219 1.07244 0
M  V30 7572 O 722.93 -1.31298 1.35252 0
M  V30 7573 C 720.057 -2.06475 2.68488 0
M  V30 7574 C 719.103 -1.77628 3.87751 0
M  V30 7575 S 719.936 -0.940612 5.27174 0
M  V30 7576 C 721.092 -2.22577 5.84988 0
M  V30 7577 H 721.325 -0.30144 2.95768 0
M  V30 7578 H 718.858 -0.0379279 1.54353 0
M  V30 7579 H 720.816 -2.79683 3.00479 0
M  V30 7580 H 719.477 -2.52457 1.8688 0
M  V30 7581 H 718.67 -2.72215 4.24164 0
M  V30 7582 H 718.272 -1.12512 3.56675 0
M  V30 7583 H 720.564 -3.17992 5.98237 0
M  V30 7584 H 721.507 -1.90624 6.81959 0
M  V30 7585 H 721.915 -2.34588 5.13448 0
M  V30 7586 N 721.313 -1.57302 -0.09688 0
M  V30 7587 C 722.243 -2.0497 -1.11846 0
M  V30 7588 C 723.224 -0.938278 -1.41882 0
M  V30 7589 O 724.409 -1.20943 -1.51942 0
M  V30 7590 C 721.539 -2.47264 -2.43881 0
M  V30 7591 C 720.493 -3.62053 -2.28257 0
M  V30 7592 C 719.819 -3.90318 -3.65453 0
M  V30 7593 C 721.119 -4.93005 -1.72461 0
M  V30 7594 H 722.813 -2.90567 -0.721888 0
M  V30 7595 H 720.359 -1.39786 -0.345803 0
M  V30 7596 H 722.312 -2.7922 -3.15617 0
M  V30 7597 H 721.036 -1.58664 -2.8547 0
M  V30 7598 H 719.695 -3.30341 -1.58967 0
M  V30 7599 H 719.343 -2.98889 -4.04567 0
M  V30 7600 H 719.043 -4.67597 -3.55846 0
M  V30 7601 H 720.567 -4.24747 -4.3866 0
M  V30 7602 H 721.981 -5.23354 -2.34036 0
M  V30 7603 H 720.378 -5.74436 -1.73618 0
M  V30 7604 H 721.448 -4.80053 -0.683898 0
M  V30 7605 N 722.791 0.367657 -1.53252 0
M  V30 7606 C 723.701 1.47415 -1.82499 0
M  V30 7607 C 724.717 1.58711 -0.713222 0
M  V30 7608 O 725.893 1.74644 -1.00306 0
M  V30 7609 C 722.958 2.82706 -2.00694 0
M  V30 7610 C 722.019 2.80955 -3.24596 0
M  V30 7611 C 721.252 4.09793 -3.41914 0
M  V30 7612 O 721.475 5.05852 -2.63572 0
M  V30 7613 O 720.409 4.15731 -4.3526 0
M  V30 7614 H 724.235 1.25624 -2.765 0
M  V30 7615 H 721.82 0.557559 -1.38606 0
M  V30 7616 H 723.702 3.62873 -2.14246 0
M  V30 7617 H 722.377 3.04479 -1.09883 0
M  V30 7618 H 721.284 1.99494 -3.16469 0
M  V30 7619 H 722.617 2.64136 -4.15323 0
M  V30 7620 N 724.269 1.44576 0.627338 0
M  V30 7621 C 725.546 1.38033 1.38586 0
M  V30 7622 C 725.926 0.0409468 2.1106 0
M  V30 7623 O 725.274 -0.976582 2.0658 0
M  V30 7624 C 725.484 2.58102 2.34913 0
M  V30 7625 C 726.832 3.02332 2.98129 0
M  V30 7626 O 727.856 2.58334 2.45238 0
M  V30 7627 O 726.715 3.78628 3.94085 0
M  V30 7628 H 723.809 0.546801 0.620434 0
M  V30 7629 H 726.355 1.56672 0.652077 0
M  V30 7630 H 725.127 3.4719 1.80485 0
M  V30 7631 H 724.75 2.41696 3.15703 0
M  V30 7632 N 725.747 -0.868086 1.31537 0
M  V30 7633 C 726.993 -1.62359 1.2252 0
M  V30 7634 C 727.348 -1.91204 -0.214169 0
M  V30 7635 O 726.641 -1.5339 -1.14813 0
M  V30 7636 C 726.835 -2.95889 2.0046 0
M  V30 7637 C 726.664 -2.80082 3.5183 0
M  V30 7638 C 725.434 -2.7917 4.21179 0
M  V30 7639 C 727.632 -2.54805 4.46743 0
M  V30 7640 N 725.614 -2.54433 5.58692 0
M  V30 7641 C 726.985 -2.39349 5.71937 0
M  V30 7642 C 729.04 -2.40165 4.36148 0
M  V30 7643 C 727.743 -2.1074 6.87736 0
M  V30 7644 C 729.769 -2.12945 5.51732 0
M  V30 7645 C 729.131 -1.98278 6.75918 0
M  V30 7646 H 725.23 -0.598381 0.503452 0
M  V30 7647 H 727.814 -1.02156 1.65748 0
M  V30 7648 H 725.985 -3.54095 1.59598 0
M  V30 7649 H 727.717 -3.60734 1.83447 0
M  V30 7650 H 724.472 -2.91621 3.73168 0
M  V30 7651 H 724.896 -2.45029 6.31102 0
M  V30 7652 H 729.538 -2.50231 3.408 0
M  V30 7653 H 727.256 -1.99412 7.8311 0
M  V30 7654 H 730.842 -2.02415 5.45454 0
M  V30 7655 H 729.722 -1.77514 7.63845 0
M  V30 7656 N 727.225 -1.14528 -1.08264 0
M  V30 7657 C 728.474 -0.908992 -1.80056 0
M  V30 7658 C 728.787 0.565859 -1.87236 0
M  V30 7659 O 729.993 0.919454 -2.55457 0
M  V30 7660 C 728.449 -1.57681 -3.23519 0
M  V30 7661 C 728.057 -3.08803 -3.24569 0
M  V30 7662 C 729.801 -1.4217 -3.99985 0
M  V30 7663 C 727.708 -3.68414 -4.62629 0
M  V30 7664 H 726.638 -0.336432 -0.674781 0
M  V30 7665 H 729.289 -1.37437 -1.21587 0
M  V30 7666 H 727.671 -1.03911 -3.82124 0
M  V30 7667 H 728.845 -3.69252 -2.75663 0
M  V30 7668 H 727.16 -3.23968 -2.61598 0
M  V30 7669 H 729.757 -1.84106 -5.02005 0
M  V30 7670 H 730.1 -0.367989 -4.1467 0
M  V30 7671 H 730.633 -1.92984 -3.47853 0
M  V30 7672 H 727.372 -4.73644 -4.53147 0
M  V30 7673 H 726.892 -3.12746 -5.11811 0
M  V30 7674 H 728.571 -3.68793 -5.31602 0
M  V30 7675 N 728.703 1.26451 -0.940633 0
M  V30 7676 C 729.65 2.264 -0.448497 0
M  V30 7677 C 730.62 1.5866 0.491546 0
M  V30 7678 O 731.805 1.86389 0.407874 0
M  V30 7679 C 728.945 3.43956 0.280715 0
M  V30 7680 C 728.058 4.26374 -0.694937 0
M  V30 7681 C 727.193 5.31171 0.0554186 0
M  V30 7682 C 726.232 6.05266 -0.912091 0
M  V30 7683 N 725.369 7.01833 -0.193524 0
M  V30 7684 H 730.209 2.67869 -1.30576 0
M  V30 7685 H 727.746 1.31707 -0.655112 0
M  V30 7686 H 729.704 4.10941 0.71994 0
M  V30 7687 H 728.334 3.03403 1.10212 0
M  V30 7688 H 727.386 3.59183 -1.25267 0
M  V30 7689 H 728.698 4.77748 -1.43382 0
M  V30 7690 H 727.852 6.04166 0.553951 0
M  V30 7691 H 726.591 4.80634 0.827183 0
M  V30 7692 H 725.596 5.31099 -1.42175 0
M  V30 7693 H 726.821 6.57893 -1.68385 0
M  V30 7694 H 724.767 6.53607 0.559758 0
M  V30 7695 H 724.684 7.50957 -0.871744 0
M  V30 7696 H 725.952 7.78983 0.283932 0
M  V30 7697 N 730.181 0.707592 1.40822 0
M  V30 7698 C 731.592 0.317011 1.83989 0
M  V30 7699 C 731.943 -1.14697 1.59182 0
M  V30 7700 O 731.068 -1.8818 1.06852 0
M  V30 7701 C 731.663 0.568593 3.33995 0
M  V30 7702 C 730.222 0.231804 3.75686 0
M  V30 7703 C 729.369 0.844933 2.64114 0
M  V30 7704 H 732.32 0.907349 1.30203 0
M  V30 7705 H 732.341 -0.168798 3.80125 0
M  V30 7706 H 731.853 1.63417 3.52018 0
M  V30 7707 H 729.954 -0.82903 3.6326 0
M  V30 7708 H 730.067 0.695219 4.74029 0
M  V30 7709 H 728.431 0.273588 2.53226 0
M  V30 7710 H 729.214 1.91462 2.84951 0
M  V30 7711 N 731.66 -1.50943 0.453197 0
M  V30 7712 C 732.57 -2.31884 -0.355963 0
M  V30 7713 C 733.586 -1.41481 -1.01287 0
M  V30 7714 O 734.762 -1.74546 -1.00477 0
M  V30 7715 C 731.827 -3.15668 -1.43369 0
M  V30 7716 C 730.888 -4.2187 -0.795253 0
M  V30 7717 C 730.121 -5.0165 -1.82162 0
M  V30 7718 O 730.344 -4.82266 -3.04592 0
M  V30 7719 O 729.278 -5.85311 -1.40336 0
M  V30 7720 H 733.104 -3.02162 0.305248 0
M  V30 7721 H 730.689 -1.47839 0.215398 0
M  V30 7722 H 732.571 -3.67709 -2.05836 0
M  V30 7723 H 731.246 -2.48137 -2.07869 0
M  V30 7724 H 730.153 -3.73867 -0.132106 0
M  V30 7725 H 731.486 -4.9182 -0.193484 0
M  V30 7726 N 733.138 -0.185124 -1.56509 0
M  V30 7727 C 734.086 0.756505 -2.19954 0
M  V30 7728 C 735.08 1.22725 -1.16769 0
M  V30 7729 O 736.286 1.1913 -1.34937 0
M  V30 7730 H 732.661 0.262279 -0.704779 0
M  V30 7731 H 734.632 0.197587 -2.97745 0
M  V30 7732 C 733.381 1.96975 -2.86524 0
M  V30 7733 H 732.704 1.61658 -3.65659 0
M  V30 7734 H 734.144 2.60719 -3.34367 0
M  V30 7735 C 732.603 2.80219 -1.87027 0
M  V30 7736 O 733.133 3.77821 -1.36433 0
M  V30 7737 N 731.339 2.4551 -1.55477 0
M  V30 7738 H 730.886 1.66199 -1.96813 0
M  V30 7739 H 730.844 3.01493 -0.891597 0
M  V30 7740 N 734.616 1.57351 0.0885366 0
M  V30 7741 C 735.863 1.86419 0.790824 0
M  V30 7742 C 736.191 0.774561 1.78412 0
M  V30 7743 O 735.446 -0.23119 1.9433 0
M  V30 7744 C 735.745 3.22098 1.5488 0
M  V30 7745 C 735.411 4.4548 0.697025 0
M  V30 7746 C 734.073 4.78975 0.462237 0
M  V30 7747 C 736.425 5.21094 0.105315 0
M  V30 7748 C 733.753 5.85507 -0.374016 0
M  V30 7749 C 736.105 6.28509 -0.718298 0
M  V30 7750 C 734.769 6.60515 -0.963116 0
M  V30 7751 H 734.039 0.682157 0.289383 0
M  V30 7752 H 736.686 1.91429 0.0520961 0
M  V30 7753 H 734.991 3.12803 2.35927 0
M  V30 7754 H 736.688 3.41819 2.09669 0
M  V30 7755 H 733.278 4.19255 0.890137 0
M  V30 7756 H 737.462 4.95544 0.273856 0
M  V30 7757 H 732.718 6.08713 -0.572606 0
M  V30 7758 H 736.892 6.86268 -1.18362 0
M  V30 7759 H 734.519 7.42893 -1.6129 0
M  V30 7760 N 736.094 -0.359525 1.53444 0
M  V30 7761 C 737.026 -1.46098 1.76602 0
M  V30 7762 C 738.039 -1.49395 0.646912 0
M  V30 7763 O 739.228 -1.52765 0.923307 0
M  V30 7764 C 736.328 -2.84836 1.83635 0
M  V30 7765 C 735.501 -3.05164 3.13358 0
M  V30 7766 C 734.56 -4.24051 3.11556 0
M  V30 7767 O 733.586 -4.18935 3.85334 0
M  V30 7768 N 734.788 -5.31775 2.328 0
M  V30 7769 H 737.553 -1.2661 2.71643 0
M  V30 7770 H 735.114 -0.549294 1.52297 0
M  V30 7771 H 737.106 -3.62516 1.799 0
M  V30 7772 H 735.676 -2.97542 0.958509 0
M  V30 7773 H 734.896 -2.15091 3.30348 0
M  V30 7774 H 736.184 -3.15619 3.99076 0
M  V30 7775 H 735.582 -5.38796 1.7238 0
M  V30 7776 H 734.139 -6.0801 2.34877 0
M  V30 7777 N 737.572 -1.44907 -0.619662 0
M  V30 7778 C 738.519 -1.52654 -1.73105 0
M  V30 7779 C 739.489 -0.373334 -1.6185 0
M  V30 7780 O 740.674 -0.585143 -1.81606 0
M  V30 7781 C 737.814 -1.48769 -3.11387 0
M  V30 7782 C 736.927 -2.74551 -3.33535 0
M  V30 7783 C 736.062 -2.62421 -4.61854 0
M  V30 7784 C 735.101 -3.83312 -4.77219 0
M  V30 7785 N 734.238 -3.69789 -5.96826 0
M  V30 7786 H 739.078 -2.47605 -1.65819 0
M  V30 7787 H 736.615 -1.22875 -0.808719 0
M  V30 7788 H 738.573 -1.44507 -3.91374 0
M  V30 7789 H 737.203 -0.573783 -3.1766 0
M  V30 7790 H 736.255 -2.88953 -2.47408 0
M  V30 7791 H 737.567 -3.64253 -3.40765 0
M  V30 7792 H 736.721 -2.56056 -5.50019 0
M  V30 7793 H 735.46 -1.70298 -4.57001 0
M  V30 7794 H 734.465 -3.90049 -3.87481 0
M  V30 7795 H 735.69 -4.76486 -4.83878 0
M  V30 7796 H 733.636 -2.80426 -5.93041 0
M  V30 7797 H 733.553 -4.53116 -6.05163 0
M  V30 7798 H 734.821 -3.67335 -6.87521 0
M  V30 7799 N 739.05 0.861098 -1.31996 0
M  V30 7800 C 740.298 1.61162 -1.21947 0
M  V30 7801 C 740.619 1.93751 0.220351 0
M  V30 7802 O 739.889 1.59069 1.14341 0
M  V30 7803 H 738.469 0.597485 -0.448353 0
M  V30 7804 H 741.131 1.03039 -1.65436 0
M  V30 7805 H 740.227 2.55138 -1.79752 0
M  V30 7806 N 740.528 1.15101 1.07655 0
M  V30 7807 C 741.768 0.934462 1.81789 0
M  V30 7808 C 742.132 -0.529101 1.84566 0
M  V30 7809 O 743.333 -0.863868 2.5454 0
M  V30 7810 C 741.604 1.52817 3.23082 0
M  V30 7811 S 743.163 1.45429 4.14 0
M  V30 7812 H 739.981 0.336379 0.626395 0
M  V30 7813 H 742.583 1.46593 1.29347 0
M  V30 7814 H 741.287 2.58635 3.18647 0
M  V30 7815 H 740.818 0.995432 3.80598 0
M  V30 7816 H 742.833 0.445058 4.942 0
M  V30 7817 N 742.006 -1.2595 0.947325 0
M  V30 7818 C 742.938 -2.25336 0.41906 0
M  V30 7819 C 743.951 -1.56135 -0.461051 0
M  V30 7820 O 745.14 -1.76438 -0.270505 0
M  V30 7821 C 742.24 -3.36334 -0.416233 0
M  V30 7822 C 741.413 -4.35088 0.449162 0
M  V30 7823 C 740.472 -5.25185 -0.326716 0
M  V30 7824 O 739.498 -5.68548 0.272374 0
M  V30 7825 N 740.7 -5.57388 -1.6217 0
M  V30 7826 H 743.465 -2.71298 1.27348 0
M  V30 7827 H 741.026 -1.39781 0.81688 0
M  V30 7828 H 743.018 -3.93564 -0.942826 0
M  V30 7829 H 741.588 -2.89819 -1.17148 0
M  V30 7830 H 740.808 -3.76841 1.15692 0
M  V30 7831 H 742.096 -4.98056 1.04008 0
M  V30 7832 H 741.494 -5.2405 -2.13046 0
M  V30 7833 H 740.051 -6.17234 -2.0944 0
M  V30 7834 N 743.484 -0.715051 -1.40445 0
M  V30 7835 C 744.417 -0.0112426 -2.28197 0
M  V30 7836 C 745.395 0.768211 -1.43308 0
M  V30 7837 O 746.579 0.754961 -1.72721 0
M  V30 7838 C 743.706 0.991453 -3.23864 0
M  V30 7839 C 742.752 0.302873 -4.25423 0
M  V30 7840 S 743.585 -0.968852 -5.26663 0
M  V30 7841 C 744.741 0.0317538 -6.25892 0
M  V30 7842 H 744.974 -0.755467 -2.87541 0
M  V30 7843 H 742.507 -0.506054 -1.45871 0
M  V30 7844 H 744.465 1.56475 -3.79507 0
M  V30 7845 H 743.126 1.70838 -2.63578 0
M  V30 7846 H 742.319 1.06086 -4.92709 0
M  V30 7847 H 741.921 -0.197853 -3.73476 0
M  V30 7848 H 744.213 0.878764 -6.71777 0
M  V30 7849 H 745.156 -0.607698 -7.05488 0
M  V30 7850 H 745.564 0.39524 -5.63115 0
M  V30 7851 N 744.962 1.50701 -0.461195 0
M  V30 7852 C 746.192 2.06381 0.0950376 0
M  V30 7853 C 746.6 1.32627 1.34933 0
M  V30 7854 O 745.943 0.386137 1.79596 0
M  V30 7855 C 746.005 3.56558 0.458965 0
M  V30 7856 C 745.669 4.51732 -0.691891 0
M  V30 7857 C 746.666 4.95594 -1.57105 0
M  V30 7858 C 744.351 4.94542 -0.879407 0
M  V30 7859 C 746.345 5.80963 -2.62223 0
M  V30 7860 C 744.032 5.79695 -1.93382 0
M  V30 7861 C 745.03 6.22806 -2.80359 0
M  V30 7862 O 744.718 7.06265 -3.83986 0
M  V30 7863 H 744.45 0.676 0.000687488 0
M  V30 7864 H 747.004 1.94974 -0.646087 0
M  V30 7865 H 745.234 3.65832 1.25314 0
M  V30 7866 H 746.923 3.94647 0.949124 0
M  V30 7867 H 747.689 4.63197 -1.43783 0
M  V30 7868 H 743.568 4.60513 -0.211907 0
M  V30 7869 H 747.112 6.14533 -3.30143 0
M  V30 7870 H 743.009 6.11506 -2.06715 0
M  V30 7871 H 743.777 7.24494 -3.80855 0
M  V30 7872 N 746.441 0.193421 1.56409 0
M  V30 7873 C 747.371 -0.723334 2.22014 0
M  V30 7874 C 748.352 -1.22254 1.1827 0
M  V30 7875 O 749.537 -1.27168 1.46771 0
M  V30 7876 C 746.667 -1.94366 2.87818 0
M  V30 7877 C 745.621 -1.57943 3.97791 0
M  V30 7878 C 744.947 -2.87623 4.50752 0
M  V30 7879 C 746.247 -0.790639 5.16281 0
M  V30 7880 H 747.941 -0.176426 2.9888 0
M  V30 7881 H 745.487 -0.0834166 1.43758 0
M  V30 7882 H 747.44 -2.5902 3.32396 0
M  V30 7883 H 746.164 -2.51507 2.08355 0
M  V30 7884 H 744.823 -0.956482 3.53903 0
M  V30 7885 H 744.471 -3.4285 3.68053 0
M  V30 7886 H 744.171 -2.63998 5.24956 0
M  V30 7887 H 745.695 -3.53268 4.9803 0
M  V30 7888 H 747.109 -1.34024 5.57414 0
M  V30 7889 H 745.506 -0.65258 5.96541 0
M  V30 7890 H 746.576 0.208633 4.84451 0
M  V30 7891 N 747.919 -1.57396 -0.0801906 0
M  V30 7892 C 748.829 -2.06451 -1.11423 0
M  V30 7893 C 749.845 -0.992352 -1.42928 0
M  V30 7894 O 751.021 -1.30651 -1.53272 0
M  V30 7895 C 748.086 -2.49164 -2.41077 0
M  V30 7896 C 747.147 -3.70641 -2.16619 0
M  V30 7897 C 746.38 -4.11307 -3.40092 0
M  V30 7898 O 746.603 -3.51922 -4.48895 0
M  V30 7899 O 745.537 -5.04157 -3.288 0
M  V30 7900 H 749.363 -2.94857 -0.727519 0
M  V30 7901 H 746.948 -1.46484 -0.293743 0
M  V30 7902 H 748.83 -2.77196 -3.17396 0
M  V30 7903 H 747.505 -1.6389 -2.79145 0
M  V30 7904 H 746.412 -3.47703 -1.38033 0
M  V30 7905 H 747.745 -4.5674 -1.83437 0
M  V30 7906 N 749.397 0.351382 -1.53633 0
M  V30 7907 C 750.344 1.43115 -1.81071 0
M  V30 7908 C 751.314 1.52601 -0.655913 0
M  V30 7909 O 752.499 1.68264 -0.89955 0
M  V30 7910 C 749.639 2.79874 -2.01903 0
M  V30 7911 C 748.752 2.79242 -3.29618 0
M  V30 7912 C 747.887 4.07667 -3.40559 0
M  V30 7913 C 746.926 4.01233 -4.62254 0
M  V30 7914 N 746.063 5.21334 -4.70271 0
M  V30 7915 H 750.903 1.19017 -2.73201 0
M  V30 7916 H 748.44 0.576691 -1.35324 0
M  V30 7917 H 750.398 3.5934 -2.11969 0
M  V30 7918 H 749.028 3.0234 -1.13094 0
M  V30 7919 H 748.08 1.91927 -3.28433 0
M  V30 7920 H 749.392 2.70363 -4.19172 0
M  V30 7921 H 748.546 4.95555 -3.50015 0
M  V30 7922 H 747.285 4.19317 -2.49047 0
M  V30 7923 H 746.29 3.11732 -4.52884 0
M  V30 7924 H 747.515 3.91173 -5.55122 0
M  V30 7925 H 745.461 5.33543 -3.81665 0
M  V30 7926 H 745.378 5.14681 -5.5375 0
M  V30 7927 H 746.646 6.11014 -4.84027 0
M  V30 7928 N 750.875 1.45233 0.611969 0
M  V30 7929 C 752.105 1.52318 1.39581 0
M  V30 7930 C 752.513 0.153093 1.8858 0
M  V30 7931 O 751.856 -0.854792 1.62601 0
M  V30 7932 C 751.918 2.4426 2.63775 0
M  V30 7933 C 751.582 3.91079 2.36445 0
M  V30 7934 C 752.579 4.81099 1.97079 0
M  V30 7935 C 750.264 4.35958 2.49492 0
M  V30 7936 C 752.258 6.14002 1.71115 0
M  V30 7937 C 749.945 5.68903 2.23142 0
M  V30 7938 C 750.943 6.57744 1.84015 0
M  V30 7939 O 750.631 7.88226 1.5797 0
M  V30 7940 H 750.363 0.518428 0.43383 0
M  V30 7941 H 752.917 1.91067 0.753837 0
M  V30 7942 H 751.147 2.00474 3.30677 0
M  V30 7943 H 752.836 2.42077 3.25812 0
M  V30 7944 H 753.602 4.47692 1.86539 0
M  V30 7945 H 749.481 3.67053 2.78914 0
M  V30 7946 H 753.025 6.83305 1.405 0
M  V30 7947 H 748.922 6.01866 2.33297 0
M  V30 7948 H 749.69 8.00211 1.72058 0
M  V30 7949 N 752.353 -0.854086 1.3245 0
M  V30 7950 C 753.285 -1.96932 1.17262 0
M  V30 7951 C 754.298 -1.62445 0.107469 0
M  V30 7952 O 755.487 -1.74904 0.356481 0
M  V30 7953 C 752.587 -3.29971 0.772817 0
M  V30 7954 C 751.76 -3.92695 1.92638 0
M  V30 7955 C 750.819 -5.04068 1.51003 0
M  V30 7956 O 749.845 -5.24032 2.22213 0
M  V30 7957 N 751.047 -5.79076 0.406371 0
M  V30 7958 H 753.812 -2.10503 2.13327 0
M  V30 7959 H 751.373 -1.02897 1.24995 0
M  V30 7960 H 753.365 -4.01883 0.476684 0
M  V30 7961 H 751.935 -3.1245 -0.0967 0
M  V30 7962 H 751.155 -3.13563 2.38897 0
M  V30 7963 H 752.443 -4.31337 2.69863 0
M  V30 7964 H 751.841 -5.65393 -0.186302 0
M  V30 7965 H 750.398 -6.51579 0.169846 0
M  V30 7966 N 753.831 -1.1567 -1.07043 0
M  V30 7967 C 755.078 -0.933517 -1.79699 0
M  V30 7968 C 755.406 0.539162 -1.86878 0
M  V30 7969 O 754.661 1.41592 -1.35093 0
M  V30 7970 C 754.96 -1.49677 -3.24548 0
M  V30 7971 C 754.626 -2.99047 -3.37463 0
M  V30 7972 C 753.288 -3.39824 -3.40695 0
M  V30 7973 C 755.64 -3.95027 -3.40004 0
M  V30 7974 C 752.968 -4.75215 -3.44075 0
M  V30 7975 C 755.32 -5.30295 -3.44921 0
M  V30 7976 C 753.984 -5.70562 -3.46432 0
M  V30 7977 H 753.254 -0.341598 -0.657565 0
M  V30 7978 H 755.901 -1.44263 -1.25938 0
M  V30 7979 H 754.206 -0.908915 -3.81111 0
M  V30 7980 H 755.903 -1.29986 -3.79348 0
M  V30 7981 H 752.493 -2.6653 -3.35648 0
M  V30 7982 H 756.677 -3.64596 -3.36725 0
M  V30 7983 H 751.933 -5.05754 -3.43545 0
M  V30 7984 H 756.107 -6.0446 -3.45833 0
M  V30 7985 H 753.734 -6.75456 -3.48803 0
M  V30 7986 N 755.309 1.25446 -0.953992 0
M  V30 7987 C 756.256 2.25912 -0.472485 0
M  V30 7988 C 757.226 1.59173 0.47469 0
M  V30 7989 O 758.411 1.86812 0.388082 0
M  V30 7990 C 755.551 3.44235 0.244218 0
M  V30 7991 C 754.664 4.25613 -0.740121 0
M  V30 7992 C 753.799 5.312 -0.000922267 0
M  V30 7993 C 752.838 6.04265 -0.976236 0
M  V30 7994 N 751.975 7.01589 -0.267952 0
M  V30 7995 H 756.815 2.66469 -1.3341 0
M  V30 7996 H 754.352 1.31005 -0.669045 0
M  V30 7997 H 756.31 4.11682 0.676314 0
M  V30 7998 H 754.94 3.04554 1.06988 0
M  V30 7999 H 753.992 3.57834 -1.2907 0
M  V30 8000 H 755.304 4.762 -1.48441 0
M  V30 8001 H 754.458 6.04719 0.48984 0
M  V30 8002 H 753.197 4.81484 0.776159 0
M  V30 8003 H 752.202 5.29561 -1.478 0
M  V30 8004 H 753.427 6.5607 -1.75354 0
M  V30 8005 H 751.373 6.54164 0.490403 0
M  V30 8006 H 751.29 7.4999 -0.951344 0
M  V30 8007 H 752.558 7.7924 0.201294 0
M  V30 8008 N 756.787 0.722489 1.40064 0
M  V30 8009 C 757.735 0.063329 2.32514 0
M  V30 8010 C 758.729 -0.73953 1.52405 0
M  V30 8011 O 759.935 -0.642122 1.68157 0
M  V30 8012 H 756.31 0.00167692 0.751998 0
M  V30 8013 H 758.281 0.859656 2.85749 0
M  V30 8014 C 757.03 -0.839219 3.3742 0
M  V30 8015 H 756.353 -0.230836 3.99133 0
M  V30 8016 H 757.793 -1.26827 4.04587 0
M  V30 8017 C 756.252 -1.96783 2.73456 0
M  V30 8018 O 756.782 -3.05933 2.60323 0
M  V30 8019 N 754.988 -1.75351 2.31734 0
M  V30 8020 H 754.535 -0.865787 2.42615 0
M  V30 8021 H 754.493 -2.51043 1.89275 0
M  V30 8022 N 758.265 -1.50454 0.469181 0
M  V30 8023 C 759.228 -2.2703 -0.314643 0
M  V30 8024 C 760.228 -1.31734 -0.922111 0
M  V30 8025 O 761.418 -1.55176 -0.791588 0
M  V30 8026 C 758.55 -3.08616 -1.44806 0
M  V30 8027 H 759.743 -2.97769 0.356892 0
M  V30 8028 H 757.296 -1.54698 0.223191 0
M  V30 8029 H 758.031 -2.42369 -2.1547 0
M  V30 8030 H 757.816 -3.78647 -1.01829 0
M  V30 8031 H 759.306 -3.66536 -2.00103 0
M  V30 8032 N 759.743 -0.201713 -1.56304 0
M  V30 8033 C 760.69 0.716499 -2.19397 0
M  V30 8034 C 761.66 1.20494 -1.14326 0
M  V30 8035 O 762.845 1.26763 -1.42604 0
M  V30 8036 C 759.985 1.92762 -2.86246 0
M  V30 8037 C 759.098 1.47993 -4.0586 0
M  V30 8038 C 758.233 2.64706 -4.60547 0
M  V30 8039 C 757.272 2.16576 -5.72504 0
M  V30 8040 N 756.409 3.26491 -6.21569 0
M  V30 8041 H 761.249 0.171724 -2.97505 0
M  V30 8042 H 758.786 0.073016 -1.46919 0
M  V30 8043 H 760.744 2.6384 -3.23178 0
M  V30 8044 H 759.374 2.44559 -2.10691 0
M  V30 8045 H 758.426 0.66477 -3.74546 0
M  V30 8046 H 759.738 1.08686 -4.86815 0
M  V30 8047 H 758.892 3.43898 -4.99819 0
M  V30 8048 H 757.631 3.0729 -3.78713 0
M  V30 8049 H 756.636 1.3584 -5.32755 0
M  V30 8050 H 757.861 1.75015 -6.56161 0
M  V30 8051 H 755.807 3.68594 -5.42655 0
M  V30 8052 H 755.724 2.91374 -6.97594 0
M  V30 8053 H 756.992 4.05877 -6.65495 0
M  V30 8054 N 761.222 1.57436 0.0718424 0
M  V30 8055 C 762.45 1.91474 0.783932 0
M  V30 8056 C 762.865 0.797669 1.71122 0
M  V30 8057 O 762.222 -0.228989 1.81058 0
M  V30 8058 C 762.273 3.25259 1.57761 0
M  V30 8059 O 761.994 4.3267 0.687596 0
M  V30 8060 C 763.495 3.7331 2.3907 0
M  V30 8061 H 760.715 0.632901 0.222885 0
M  V30 8062 H 763.259 2.04457 0.0421262 0
M  V30 8063 H 761.414 3.13804 2.27169 0
M  V30 8064 H 761.828 5.09641 1.23962 0
M  V30 8065 H 763.302 4.69551 2.90216 0
M  V30 8066 H 763.779 3.02318 3.18591 0
M  V30 8067 H 764.385 3.8771 1.74818 0
M  V30 8068 N 762.7 -0.34323 1.53817 0
M  V30 8069 C 763.925 -1.1079 1.75329 0
M  V30 8070 C 764.35 -1.81571 0.491293 0
M  V30 8071 O 763.708 -1.72561 -0.556089 0
M  V30 8072 C 763.756 -2.09681 2.9337 0
M  V30 8073 O 762.86 -3.17207 2.63541 0
M  V30 8074 H 762.201 -0.320402 0.581583 0
M  V30 8075 H 764.731 -0.393525 2.0078 0
M  V30 8076 H 764.741 -2.52897 3.20168 0
M  V30 8077 H 763.416 -1.5756 3.84899 0
M  V30 8078 H 761.993 -2.78806 2.47632 0
M  V30 8079 N 764.178 -1.45556 -0.604258 0
M  V30 8080 C 765.455 -1.40221 -1.36373 0
M  V30 8081 C 765.835 -0.0745195 -2.10968 0
M  V30 8082 O 765.183 0.943594 -2.08107 0
M  V30 8083 C 765.393 -2.61807 -2.30777 0
M  V30 8084 C 766.741 -3.07037 -2.93281 0
M  V30 8085 O 767.765 -2.62203 -2.41097 0
M  V30 8086 O 766.624 -3.8485 -3.88011 0
M  V30 8087 H 763.718 -0.556602 -0.611656 0
M  V30 8088 H 766.264 -1.57689 -0.627069 0
M  V30 8089 H 765.036 -3.50017 -1.74939 0
M  V30 8090 H 764.659 -2.46688 -3.11818 0
M  V30 8091 N 765.656 0.84705 -1.32902 0
M  V30 8092 C 766.903 1.60176 -1.23894 0
M  V30 8093 C 767.231 1.93496 0.197341 0
M  V30 8094 O 766.486 1.58173 1.15238 0
M  V30 8095 C 766.785 2.92663 -2.05142 0
M  V30 8096 C 766.451 2.7874 -3.54422 0
M  V30 8097 C 765.113 2.7465 -3.95121 0
M  V30 8098 C 767.465 2.64128 -4.49317 0
M  V30 8099 C 764.793 2.53837 -5.28946 0
M  V30 8100 C 767.145 2.44849 -5.83294 0
M  V30 8101 C 765.809 2.39156 -6.23186 0
M  V30 8102 H 765.079 0.586127 -0.453361 0
M  V30 8103 H 767.726 0.981994 -1.64405 0
M  V30 8104 H 766.031 3.588 -1.57383 0
M  V30 8105 H 767.728 3.50095 -1.95537 0
M  V30 8106 H 764.318 2.82751 -3.22102 0
M  V30 8107 H 768.502 2.66327 -4.18788 0
M  V30 8108 H 763.758 2.4787 -5.58901 0
M  V30 8109 H 767.932 2.32524 -6.56434 0
M  V30 8110 H 765.559 2.22789 -7.26821 0
M  V30 8111 N 767.134 1.16236 1.06428 0
M  V30 8112 C 768.38 0.954417 1.79617 0
M  V30 8113 C 768.735 -0.512411 1.85451 0
M  V30 8114 O 768.028 -1.37523 1.33409 0
M  V30 8115 C 768.222 1.51396 3.2375 0
M  V30 8116 C 768.051 3.03367 3.31962 0
M  V30 8117 C 766.821 3.71996 3.41975 0
M  V30 8118 C 769.019 4.01075 3.21937 0
M  V30 8119 N 767.001 5.11688 3.39187 0
M  V30 8120 C 768.372 5.27142 3.26376 0
M  V30 8121 C 770.427 3.92917 3.05812 0
M  V30 8122 C 769.13 6.46 3.16348 0
M  V30 8123 C 771.156 5.11344 2.97121 0
M  V30 8124 C 770.518 6.36291 3.02181 0
M  V30 8125 H 766.617 0.403007 0.670156 0
M  V30 8126 H 769.201 1.47605 1.26968 0
M  V30 8127 H 767.372 1.01883 3.74799 0
M  V30 8128 H 769.104 1.2439 3.85109 0
M  V30 8129 H 765.859 3.22623 3.46715 0
M  V30 8130 H 766.283 5.84676 3.41297 0
M  V30 8131 H 770.925 2.97172 3.00746 0
M  V30 8132 H 768.643 7.41968 3.2017 0
M  V30 8133 H 772.229 5.06801 2.85734 0
M  V30 8134 H 771.109 7.26389 2.95513 0
M  V30 8135 N 768.612 -1.24939 0.960631 0
M  V30 8136 C 769.575 -2.239 0.49006 0
M  V30 8137 C 770.575 -1.55497 -0.409535 0
M  V30 8138 O 771.765 -1.72978 -0.205984 0
M  V30 8139 C 768.897 -3.39654 -0.291193 0
M  V30 8140 H 770.09 -2.67044 1.36482 0
M  V30 8141 H 767.643 -1.37429 0.744505 0
M  V30 8142 H 768.378 -3.01939 -1.18336 0
M  V30 8143 H 768.163 -3.90496 0.354276 0
M  V30 8144 H 769.653 -4.13125 -0.609693 0
M  V30 8145 N 770.09 -0.729906 -1.39679 0
M  V30 8146 C 771.053 -0.0951668 -2.29002 0
M  V30 8147 C 772.053 0.672471 -1.46063 0
M  V30 8148 O 773.243 0.502245 -1.66803 0
M  V30 8149 C 770.375 0.874631 -3.29489 0
M  V30 8150 H 771.568 -0.882062 -2.86635 0
M  V30 8151 H 769.121 -0.495424 -1.4824 0
M  V30 8152 H 769.856 1.68807 -2.76902 0
M  V30 8153 H 769.641 0.326893 -3.90735 0
M  V30 8154 H 771.131 1.31548 -3.96339 0
M  V30 8155 N 771.568 1.50203 -0.477153 0
M  V30 8156 C 772.498 2.31517 0.303646 0
M  V30 8157 C 773.479 1.38696 0.984753 0
M  V30 8158 O 774.664 1.67615 0.980758 0
M  V30 8159 C 771.794 3.18598 1.38249 0
M  V30 8160 C 770.748 4.2002 0.822645 0
M  V30 8161 C 770.074 4.95878 2.00024 0
M  V30 8162 C 771.374 5.22023 -0.170185 0
M  V30 8163 H 773.068 2.97042 -0.375027 0
M  V30 8164 H 770.614 1.42848 -0.181802 0
M  V30 8165 H 772.567 3.74282 1.93625 0
M  V30 8166 H 771.291 2.5097 2.09002 0
M  V30 8167 H 769.95 3.65445 0.290813 0
M  V30 8168 H 769.598 4.24717 2.69489 0
M  V30 8169 H 769.298 5.64487 1.63183 0
M  V30 8170 H 770.822 5.54399 2.55878 0
M  V30 8171 H 772.236 5.72543 0.294606 0
M  V30 8172 H 770.633 5.98386 -0.453181 0
M  V30 8173 H 771.703 4.72396 -1.09408 0
M  V30 8174 N 773.046 0.209999 1.56195 0
M  V30 8175 C 773.956 -0.716459 2.23392 0
M  V30 8176 C 774.972 -1.22291 1.23778 0
M  V30 8177 O 776.148 -1.26694 1.56558 0
M  V30 8178 C 773.213 -1.91261 2.89172 0
M  V30 8179 C 772.274 -1.44927 4.04097 0
M  V30 8180 C 771.507 -2.5884 4.66731 0
M  V30 8181 O 771.73 -3.76693 4.2832 0
M  V30 8182 O 770.664 -2.30701 5.55932 0
M  V30 8183 H 774.49 -0.174089 3.03201 0
M  V30 8184 H 772.075 -0.0199505 1.49387 0
M  V30 8185 H 773.957 -2.6114 3.30733 0
M  V30 8186 H 772.632 -2.4433 2.12331 0
M  V30 8187 H 771.539 -0.718839 3.67129 0
M  V30 8188 H 772.872 -0.965084 4.82646 0
M  V30 8189 N 774.524 -1.57472 -0.0634922 0
M  V30 8190 C 775.434 -2.07621 -1.09227 0
M  V30 8191 C 776.45 -1.00746 -1.41867 0
M  V30 8192 O 777.626 -1.32269 -1.51878 0
M  V30 8193 C 774.691 -2.51707 -2.38421 0
M  V30 8194 C 773.752 -3.72917 -2.12676 0
M  V30 8195 C 772.985 -4.14891 -3.3571 0
M  V30 8196 O 773.208 -3.56663 -4.45137 0
M  V30 8197 O 772.142 -5.07616 -3.23434 0
M  V30 8198 H 775.968 -2.95612 -0.696205 0
M  V30 8199 H 773.553 -1.46787 -0.27819 0
M  V30 8200 H 775.435 -2.80547 -3.14438 0
M  V30 8201 H 774.11 -1.66842 -2.77391 0
M  V30 8202 H 773.017 -3.49148 -1.34337 0
M  V30 8203 H 774.35 -4.5866 -1.78583 0
M  V30 8204 N 776.003 0.335068 -1.53997 0
M  V30 8205 C 776.966 1.39481 -1.81872 0
M  V30 8206 C 777.966 1.4524 -0.690078 0
M  V30 8207 O 779.156 1.45467 -0.958377 0
M  V30 8208 C 776.288 2.78329 -1.9684 0
M  V30 8209 H 777.481 1.16024 -2.76547 0
M  V30 8210 H 775.034 0.569926 -1.45539 0
M  V30 8211 H 775.769 3.07058 -1.04337 0
M  V30 8212 H 775.554 2.75544 -2.78958 0
M  V30 8213 H 777.044 3.55016 -2.19894 0
M  V30 8214 N 777.481 1.45874 0.596531 0
M  V30 8215 C 778.706 1.54247 1.38646 0
M  V30 8216 C 779.131 0.179571 1.87241 0
M  V30 8217 O 778.489 -0.837831 1.6078 0
M  V30 8218 C 778.537 2.54015 2.55946 0
M  V30 8219 O 777.641 2.06561 3.5694 0
M  V30 8220 H 776.982 0.519555 0.413471 0
M  V30 8221 H 779.512 1.91327 0.724936 0
M  V30 8222 H 779.522 2.73179 3.03047 0
M  V30 8223 H 778.197 3.52994 2.19928 0
M  V30 8224 H 776.774 1.97324 3.16414 0
M  V30 8225 N 778.959 -0.83999 1.33349 0
M  V30 8226 C 780.375 -1.13049 1.12659 0
M  V30 8227 C 780.575 -2.01328 -0.0832613 0
M  V30 8228 O 779.631 -2.40669 -0.763856 0
M  V30 8229 C 780.944 -1.79366 2.41347 0
M  V30 8230 C 782.492 -1.91937 2.47243 0
M  V30 8231 C 782.967 -2.6167 3.75889 0
M  V30 8232 N 784.458 -2.69184 3.76954 0
M  V30 8233 C 785.193 -3.23827 4.73206 0
M  V30 8234 N 784.689 -3.79166 5.79832 0
M  V30 8235 N 786.482 -3.22068 4.60683 0
M  V30 8236 H 778.633 -0.252432 2.10895 0
M  V30 8237 H 780.896 -0.174501 0.931801 0
M  V30 8238 H 780.602 -1.2196 3.29877 0
M  V30 8239 H 780.476 -2.79396 2.53412 0
M  V30 8240 H 782.863 -2.48498 1.59163 0
M  V30 8241 H 782.944 -0.908604 2.39119 0
M  V30 8242 H 782.588 -2.05769 4.64351 0
M  V30 8243 H 782.518 -3.63217 3.81289 0
M  V30 8244 H 785.009 -2.2994 2.99893 0
M  V30 8245 H 785.322 -4.19061 6.49313 0
M  V30 8246 H 783.667 -3.77457 5.83568 0
M  V30 8247 H 786.858 -2.78092 3.7654 0
M  V30 8248 H 787.031 -3.64351 5.35866 0
M  V30 8249 N 780.437 -1.16799 -1.0581 0
M  V30 8250 C 781.367 -0.902241 -2.15364 0
M  V30 8251 C 782.348 0.153351 -1.69407 0
M  V30 8252 O 783.533 0.00442032 -1.94199 0
M  V30 8253 C 780.663 -0.407911 -3.44896 0
M  V30 8254 C 779.617 -1.40197 -4.04387 0
M  V30 8255 C 778.943 -0.765848 -5.29187 0
M  V30 8256 C 780.243 -2.77316 -4.42598 0
M  V30 8257 H 781.937 -1.81841 -2.37853 0
M  V30 8258 H 779.483 -0.875731 -1.14311 0
M  V30 8259 H 781.436 -0.20945 -4.20879 0
M  V30 8260 H 780.16 0.54378 -3.22041 0
M  V30 8261 H 778.819 -1.58707 -3.30466 0
M  V30 8262 H 778.467 0.192482 -5.02632 0
M  V30 8263 H 778.167 -1.42939 -5.69949 0
M  V30 8264 H 779.691 -0.577519 -6.07863 0
M  V30 8265 H 781.105 -2.62561 -5.09642 0
M  V30 8266 H 779.502 -3.4019 -4.94359 0
M  V30 8267 H 780.572 -3.32199 -3.53231 0
M  V30 8268 N 781.915 1.24427 -0.967243 0
M  V30 8269 C 783.326 1.74349 -0.667785 0
M  V30 8270 C 783.677 1.78403 0.816509 0
M  V30 8271 O 782.802 1.41315 1.63887 0
M  V30 8272 C 783.397 3.16628 -1.20548 0
M  V30 8273 C 781.956 3.64059 -0.955934 0
M  V30 8274 C 781.103 2.42715 -1.34106 0
M  V30 8275 H 784.054 1.10136 -1.14262 0
M  V30 8276 H 784.075 3.76183 -0.571547 0
M  V30 8277 H 783.587 3.13646 -2.28578 0
M  V30 8278 H 781.688 3.72441 0.108858 0
M  V30 8279 H 781.801 4.51549 -1.60126 0
M  V30 8280 H 780.165 2.43114 -0.759452 0
M  V30 8281 H 780.948 2.42414 -2.43085 0
M  V30 8282 N 783.393 0.737304 1.3929 0
M  V30 8283 C 784.639 0.286681 2.00763 0
M  V30 8284 C 784.972 -1.12388 1.58375 0
M  V30 8285 O 784.247 -1.76661 0.813699 0
M  V30 8286 C 784.53 0.391147 3.57969 0
M  V30 8287 C 784.383 1.84165 4.1037 0
M  V30 8288 C 785.702 -0.225072 4.39524 0
M  V30 8289 H 782.821 0.105642 0.729389 0
M  V30 8290 H 785.463 0.933892 1.65464 0
M  V30 8291 H 783.613 -0.159875 3.88171 0
M  V30 8292 H 785.285 2.44972 3.90879 0
M  V30 8293 H 783.528 2.3622 3.63844 0
M  V30 8294 H 784.199 1.866 5.19504 0
M  V30 8295 H 786.675 0.244677 4.1538 0
M  V30 8296 H 785.551 -0.121646 5.48765 0
M  V30 8297 H 785.812 -1.31141 4.22202 0
M  V30 8298 N 784.871 -1.49948 0.485112 0
M  V30 8299 C 785.818 -2.28819 -0.301729 0
M  V30 8300 C 786.788 -1.34496 -0.974683 0
M  V30 8301 O 787.973 -1.63444 -0.984418 0
M  V30 8302 C 785.113 -3.16758 -1.36961 0
M  V30 8303 C 784.226 -4.26125 -0.710027 0
M  V30 8304 C 783.361 -5.01302 -1.75699 0
M  V30 8305 C 782.4 -6.02525 -1.07841 0
M  V30 8306 N 781.537 -6.70927 -2.06886 0
M  V30 8307 H 786.377 -2.95604 0.377127 0
M  V30 8308 H 783.914 -1.45764 0.197826 0
M  V30 8309 H 785.872 -3.66106 -2.00056 0
M  V30 8310 H 784.502 -2.51991 -2.01744 0
M  V30 8311 H 783.554 -3.80385 0.0338278 0
M  V30 8312 H 784.866 -4.98493 -0.175079 0
M  V30 8313 H 784.02 -5.54438 -2.46339 0
M  V30 8314 H 782.759 -4.28672 -2.32577 0
M  V30 8315 H 781.764 -5.48635 -0.357706 0
M  V30 8316 H 782.989 -6.77134 -0.516345 0
M  V30 8317 H 780.935 -6.01079 -2.62755 0
M  V30 8318 H 780.852 -7.39216 -1.58414 0
M  V30 8319 H 782.12 -7.28675 -2.76863 0
M  V30 8320 N 786.349 -0.21828 -1.56081 0
M  V30 8321 C 787.259 0.704602 -2.23769 0
M  V30 8322 C 788.275 1.21633 -1.24425 0
M  V30 8323 O 789.451 1.25862 -1.57228 0
M  V30 8324 C 786.516 1.89725 -2.90182 0
M  V30 8325 C 785.577 1.42782 -4.0486 0
M  V30 8326 C 784.81 2.56361 -4.68097 0
M  V30 8327 O 785.033 3.74417 -4.30312 0
M  V30 8328 O 783.967 2.2775 -5.57148 0
M  V30 8329 H 787.793 0.158007 -3.03289 0
M  V30 8330 H 785.378 0.0120279 -1.49395 0
M  V30 8331 H 787.26 2.59382 -3.32113 0
M  V30 8332 H 785.935 2.432 -2.13624 0
M  V30 8333 H 784.842 0.699359 -3.67505 0
M  V30 8334 H 786.175 0.939474 -4.83151 0
M  V30 8335 N 787.827 1.57504 0.0551401 0
M  V30 8336 C 789.073 1.88334 0.752216 0
M  V30 8337 C 789.406 0.812742 1.76375 0
M  V30 8338 O 788.681 -0.175198 1.93709 0
M  V30 8339 C 788.964 3.29824 1.44528 0
M  V30 8340 C 788.817 4.47553 0.449026 0
M  V30 8341 C 790.136 3.69808 2.38601 0
M  V30 8342 H 787.255 0.684973 0.271995 0
M  V30 8343 H 789.897 1.89994 0.0151895 0
M  V30 8344 H 788.047 3.28539 2.07351 0
M  V30 8345 H 789.719 4.60967 -0.175277 0
M  V30 8346 H 787.962 4.33168 -0.234162 0
M  V30 8347 H 788.633 5.43376 0.971917 0
M  V30 8348 H 791.109 3.72293 1.85842 0
M  V30 8349 H 789.985 4.69665 2.84088 0
M  V30 8350 H 790.246 3.00641 3.24141 0
M  V30 8351 N 789.305 -0.326896 1.54172 0
M  V30 8352 C 790.238 -1.42591 1.78166 0
M  V30 8353 C 791.216 -1.49837 0.631484 0
M  V30 8354 O 792.4 -1.67298 0.868544 0
M  V30 8355 C 789.527 -2.8071 1.89524 0
M  V30 8356 C 788.573 -2.91012 3.11792 0
M  V30 8357 S 789.406 -2.55763 4.70474 0
M  V30 8358 C 790.562 -3.9596 4.84733 0
M  V30 8359 H 790.795 -1.22024 2.71104 0
M  V30 8360 H 788.328 -0.523539 1.45253 0
M  V30 8361 H 790.286 -3.60276 1.96753 0
M  V30 8362 H 788.947 -2.98562 0.975696 0
M  V30 8363 H 788.14 -3.92258 3.16464 0
M  V30 8364 H 787.742 -2.19414 3.02876 0
M  V30 8365 H 790.034 -4.90676 4.67166 0
M  V30 8366 H 790.977 -3.96273 5.86833 0
M  V30 8367 H 791.385 -3.8476 4.13062 0
M  V30 8368 N 790.784 -1.46188 -0.588786 0
M  V30 8369 C 792.061 -1.41659 -1.34878 0
M  V30 8370 C 792.441 -0.0968913 -2.10878 0
M  V30 8371 O 791.789 0.921468 -2.09096 0
M  V30 8372 C 791.999 -2.6424 -2.27988 0
M  V30 8373 C 793.347 -3.1013 -2.90008 0
M  V30 8374 O 794.371 -2.64745 -2.38303 0
M  V30 8375 O 793.23 -3.88944 -3.83908 0
M  V30 8376 H 790.324 -0.563058 -0.605718 0
M  V30 8377 H 792.87 -1.58346 -0.610309 0
M  V30 8378 H 791.642 -3.51853 -1.71217 0
M  V30 8379 H 791.265 -2.49982 -3.09184 0
M  V30 8380 N 792.262 0.832906 -1.33792 0
M  V30 8381 C 793.49 1.62048 -1.28639 0
M  V30 8382 C 793.905 1.88269 0.141522 0
M  V30 8383 O 793.262 1.46706 1.08553 0
M  V30 8384 C 793.313 2.96722 -2.0649 0
M  V30 8385 O 793.034 2.7165 -3.43712 0
M  V30 8386 C 794.535 3.91144 -2.08617 0
M  V30 8387 H 791.755 0.504032 -0.442937 0
M  V30 8388 H 794.299 1.03704 -1.76255 0
M  V30 8389 H 792.454 3.51652 -1.62541 0
M  V30 8390 H 792.868 3.57453 -3.83833 0
M  V30 8391 H 794.342 4.82837 -2.67531 0
M  V30 8392 H 794.819 4.25766 -1.07796 0
M  V30 8393 H 795.425 3.42152 -2.52611 0
M  V30 8394 N 793.74 1.17359 1.05189 0
M  V30 8395 C 794.986 0.973414 1.78595 0
M  V30 8396 C 795.341 -0.492713 1.85984 0
M  V30 8397 O 794.634 -1.361 1.3486 0
M  V30 8398 C 794.828 1.54821 3.22126 0
M  V30 8399 C 794.657 3.06871 3.28725 0
M  V30 8400 C 793.427 3.75602 3.38011 0
M  V30 8401 C 795.625 4.04467 3.17665 0
M  V30 8402 N 793.607 5.15257 3.33741 0
M  V30 8403 C 794.978 5.30574 3.20766 0
M  V30 8404 C 797.033 3.96138 3.01627 0
M  V30 8405 C 795.736 6.49319 3.09479 0
M  V30 8406 C 797.762 5.14467 2.91681 0
M  V30 8407 C 797.124 6.3946 2.95416 0
M  V30 8408 H 793.223 0.410092 0.665844 0
M  V30 8409 H 795.807 1.48944 1.25395 0
M  V30 8410 H 793.978 1.05853 3.73697 0
M  V30 8411 H 795.71 1.28467 3.83768 0
M  V30 8412 H 792.465 3.26282 3.43273 0
M  V30 8413 H 792.889 5.88263 3.35076 0
M  V30 8414 H 797.531 3.00345 2.97578 0
M  V30 8415 H 795.249 7.45322 3.12283 0
M  V30 8416 H 798.835 5.09803 2.80343 0
M  V30 8417 H 797.715 7.29483 2.87792 0
M  V30 8418 N 795.218 -1.23913 0.973828 0
M  V30 8419 C 796.446 -1.96195 0.656891 0
M  V30 8420 C 796.861 -1.72166 -0.774876 0
M  V30 8421 O 796.218 -1.0091 -1.52064 0
M  V30 8422 C 796.269 -3.49342 0.929638 0
M  V30 8423 O 795.99 -3.72553 2.30512 0
M  V30 8424 C 797.491 -4.38833 0.627739 0
M  V30 8425 H 794.711 -0.624841 0.244572 0
M  V30 8426 H 797.255 -1.57579 1.30343 0
M  V30 8427 H 795.41 -3.85999 0.329216 0
M  V30 8428 H 795.824 -4.66893 2.3898 0
M  V30 8429 H 797.298 -5.45117 0.868991 0
M  V30 8430 H 797.775 -4.37009 -0.438104 0
M  V30 8431 H 798.381 -4.07773 1.20834 0
M  V30 8432 N 796.696 -0.74468 -1.38897 0
M  V30 8433 C 798.112 -0.421302 -1.53939 0
M  V30 8434 C 798.312 1.06668 -1.70951 0
M  V30 8435 O 797.368 1.85278 -1.71547 0
M  V30 8436 C 798.681 -1.21278 -2.75159 0
M  V30 8437 C 800.229 -1.20196 -2.89001 0
M  V30 8438 C 800.704 -1.97621 -4.13171 0
M  V30 8439 N 802.195 -1.94836 -4.2023 0
M  V30 8440 C 802.93 -2.51545 -5.15279 0
M  V30 8441 N 802.426 -3.1693 -6.16058 0
M  V30 8442 N 804.219 -2.41524 -5.07565 0
M  V30 8443 H 796.37 -1.70914 -1.26103 0
M  V30 8444 H 798.633 -0.724058 -0.611919 0
M  V30 8445 H 798.339 -2.26609 -2.68963 0
M  V30 8446 H 798.213 -0.823677 -3.68097 0
M  V30 8447 H 800.6 -0.156742 -2.94683 0
M  V30 8448 H 800.681 -1.63051 -1.97099 0
M  V30 8449 H 800.325 -3.02149 -4.0825 0
M  V30 8450 H 800.255 -1.52166 -5.04136 0
M  V30 8451 H 802.746 -1.4721 -3.48048 0
M  V30 8452 H 803.059 -3.57644 -6.85062 0
M  V30 8453 H 801.404 -3.21023 -6.16417 0
M  V30 8454 H 804.595 -1.90077 -4.27771 0
M  V30 8455 H 804.768 -2.86016 -5.81462 0
M  V30 8456 N 798.174 1.49689 -0.493057 0
M  V30 8457 C 799.106 2.26867 0.326195 0
M  V30 8458 C 800.119 1.33083 0.937697 0
M  V30 8459 O 801.308 1.58427 0.822382 0
M  V30 8460 C 798.408 3.0519 1.4735 0
M  V30 8461 C 797.581 4.26491 0.970767 0
M  V30 8462 C 796.64 4.86926 1.99473 0
M  V30 8463 O 795.666 5.47221 1.56647 0
M  V30 8464 N 796.868 4.75871 3.32456 0
M  V30 8465 H 799.633 2.97816 -0.335547 0
M  V30 8466 H 797.194 1.58602 -0.325129 0
M  V30 8467 H 799.186 3.42496 2.15589 0
M  V30 8468 H 797.756 2.369 2.03954 0
M  V30 8469 H 796.976 3.94036 0.113529 0
M  V30 8470 H 798.264 5.05092 0.613156 0
M  V30 8471 H 797.662 4.2797 3.69944 0
M  V30 8472 H 796.219 5.17383 3.96431 0
M  V30 8473 N 799.652 0.226554 1.55963 0
M  V30 8474 C 800.585 -0.721625 2.1649 0
M  V30 8475 C 801.563 -1.18745 1.11078 0
M  V30 8476 O 802.747 -1.26929 1.3936 0
M  V30 8477 C 799.874 -1.97828 2.74921 0
M  V30 8478 C 798.92 -1.65202 3.93206 0
M  V30 8479 S 799.753 -0.772419 5.299 0
M  V30 8480 C 800.909 -2.03853 5.91773 0
M  V30 8481 H 801.142 -0.207192 2.96577 0
M  V30 8482 H 798.675 0.0111976 1.54396 0
M  V30 8483 H 800.633 -2.69982 3.09225 0
M  V30 8484 H 799.294 -2.46384 1.94817 0
M  V30 8485 H 798.487 -2.58583 4.32609 0
M  V30 8486 H 798.089 -1.01108 3.60074 0
M  V30 8487 H 800.381 -2.98799 6.08051 0
M  V30 8488 H 801.324 -1.68831 6.87678 0
M  V30 8489 H 801.732 -2.18134 5.20651 0
M  V30 8490 N 801.13 -1.57531 -0.0467866 0
M  V30 8491 C 802.378 -1.88078 -0.739656 0
M  V30 8492 C 802.699 -0.821936 -1.76831 0
M  V30 8493 O 801.969 0.146582 -1.95351 0
M  V30 8494 H 800.549 -0.694075 -0.276169 0
M  V30 8495 H 803.211 -1.94893 -0.0169391 0
M  V30 8496 H 802.307 -2.86396 -1.24031 0
M  V30 8497 N 802.608 0.318715 -1.54344 0
M  V30 8498 C 803.838 1.07394 -1.76494 0
M  V30 8499 C 804.246 1.82031 -0.515881 0
M  V30 8500 O 803.589 1.7609 0.52325 0
M  V30 8501 C 803.651 2.11401 -2.90775 0
M  V30 8502 C 803.315 1.56118 -4.29507 0
M  V30 8503 C 804.312 1.00043 -5.10184 0
M  V30 8504 C 801.997 1.60215 -4.76063 0
M  V30 8505 C 803.991 0.487993 -6.35529 0
M  V30 8506 C 801.678 1.08584 -6.01376 0
M  V30 8507 C 802.676 0.529714 -6.80943 0
M  V30 8508 O 802.364 0.0211823 -8.03897 0
M  V30 8509 H 802.096 0.325061 -0.592715 0
M  V30 8510 H 804.65 0.36901 -2.02058 0
M  V30 8511 H 802.88 2.85524 -2.60793 0
M  V30 8512 H 804.569 2.72683 -3.00664 0
M  V30 8513 H 805.335 0.961811 -4.75367 0
M  V30 8514 H 801.214 2.02441 -4.14172 0
M  V30 8515 H 804.758 0.0532608 -6.9758 0
M  V30 8516 H 800.655 1.12155 -6.35682 0
M  V30 8517 H 801.423 0.136151 -8.18387 0
M  V30 8518 N 804.086 1.46499 0.581025 0
M  V30 8519 C 805.497 1.4604 1.16315 0
M  V30 8520 C 805.848 0.202154 1.95156 0
M  V30 8521 O 804.973 -0.694638 2.04948 0
M  V30 8522 C 805.568 2.64593 2.11604 0
M  V30 8523 C 804.127 2.6717 2.65136 0
M  V30 8524 C 803.274 2.38753 1.4104 0
M  V30 8525 H 806.225 1.54354 0.368871 0
M  V30 8526 H 806.246 2.40207 2.95095 0
M  V30 8527 H 805.758 3.56154 1.54194 0
M  V30 8528 H 803.859 1.79685 3.26411 0
M  V30 8529 H 803.972 3.67182 3.07757 0
M  V30 8530 H 802.336 1.88845 1.70908 0
M  V30 8531 H 803.119 3.32493 0.854588 0
M  V30 8532 N 805.565 -0.825799 1.34232 0
M  V30 8533 C 806.811 -1.58419 1.26614 0
M  V30 8534 C 807.144 -1.93503 -0.164341 0
M  V30 8535 O 806.419 -1.59785 -1.109 0
M  V30 8536 C 806.702 -2.8856 2.15418 0
M  V30 8537 C 806.555 -2.60075 3.66989 0
M  V30 8538 C 807.874 -3.90107 2.03726 0
M  V30 8539 H 804.993 -0.574794 0.461282 0
M  V30 8540 H 807.635 -0.951519 1.64457 0
M  V30 8541 H 805.785 -3.42553 1.83275 0
M  V30 8542 H 807.457 -2.12414 4.09485 0
M  V30 8543 H 805.7 -1.93565 3.88221 0
M  V30 8544 H 806.371 -3.52866 4.24488 0
M  V30 8545 H 808.847 -3.45459 2.31942 0
M  V30 8546 H 807.723 -4.78976 2.68092 0
M  V30 8547 H 807.984 -4.30329 1.01337 0
M  V30 8548 N 807.043 -1.17915 -1.04565 0
M  V30 8549 C 807.973 -0.925033 -2.14395 0
M  V30 8550 C 808.954 0.135375 -1.6956 0
M  V30 8551 O 810.139 -0.0161774 -1.94193 0
M  V30 8552 C 807.269 -0.444469 -3.44444 0
M  V30 8553 C 806.223 -1.44478 -4.02877 0
M  V30 8554 C 805.549 -0.821933 -5.28345 0
M  V30 8555 C 806.849 -2.81995 -4.39632 0
M  V30 8556 H 808.543 -1.84354 -2.35911 0
M  V30 8557 H 806.089 -0.887806 -1.13375 0
M  V30 8558 H 808.042 -0.254078 -4.20633 0
M  V30 8559 H 806.766 0.509592 -3.226 0
M  V30 8560 H 805.425 -1.62203 -3.28764 0
M  V30 8561 H 805.073 0.139161 -5.02807 0
M  V30 8562 H 804.773 -1.48976 -5.68401 0
M  V30 8563 H 806.297 -0.641959 -6.07216 0
M  V30 8564 H 807.711 -2.67952 -5.06828 0
M  V30 8565 H 806.108 -3.45414 -4.90723 0
M  V30 8566 H 807.178 -3.35927 -3.49687 0
M  V30 8567 N 808.521 1.23394 -0.980386 0
M  V30 8568 C 809.469 2.26872 -0.513018 0
M  V30 8569 C 810.463 1.63853 0.429948 0
M  V30 8570 O 811.669 1.77417 0.303842 0
M  V30 8571 H 808.044 0.737398 -0.147473 0
M  V30 8572 H 810.015 2.63654 -1.39746 0
M  V30 8573 C 808.764 3.47289 0.168962 0
M  V30 8574 H 808.087 3.96033 -0.547546 0
M  V30 8575 H 809.527 4.21502 0.459616 0
M  V30 8576 C 807.986 3.06425 1.40019 0
M  V30 8577 O 808.516 3.14708 2.49643 0
M  V30 8578 N 806.722 2.61339 1.27084 0
M  V30 8579 H 806.269 2.54799 0.378872 0
M  V30 8580 H 806.227 2.34364 2.09573 0
M  V30 8581 N 809.999 0.752036 1.385 0
M  V30 8582 C 811.245 0.307958 2.00448 0
M  V30 8583 C 811.578 -1.10702 1.59558 0
M  V30 8584 O 810.853 -1.75788 0.832391 0
M  V30 8585 C 811.136 0.429092 3.57534 0
M  V30 8586 C 810.989 1.88507 4.08393 0
M  V30 8587 C 812.308 -0.178442 4.39738 0
M  V30 8588 H 809.427 0.113373 0.728228 0
M  V30 8589 H 812.069 0.951389 1.64465 0
M  V30 8590 H 810.219 -0.118695 3.88319 0
M  V30 8591 H 811.891 2.49104 3.88259 0
M  V30 8592 H 810.134 2.40066 3.61318 0
M  V30 8593 H 810.805 1.92099 5.17496 0
M  V30 8594 H 813.281 0.28872 4.15097 0
M  V30 8595 H 812.157 -0.0634349 5.48863 0
M  V30 8596 H 812.418 -1.26655 4.23569 0
M  V30 8597 N 811.477 -1.49425 0.500989 0
M  V30 8598 C 812.425 -2.30771 -0.291149 0
M  V30 8599 C 813.419 -1.3938 -0.962787 0
M  V30 8600 O 814.625 -1.56431 -0.890477 0
M  V30 8601 H 811 -0.743499 -0.11275 0
M  V30 8602 H 812.971 -2.95501 0.414917 0
M  V30 8603 C 811.72 -3.20725 -1.34279 0
M  V30 8604 H 811.043 -3.90975 -0.83538 0
M  V30 8605 H 812.483 -3.80583 -1.86903 0
M  V30 8606 C 810.942 -2.40334 -2.36095 0
M  V30 8607 O 811.472 -2.10749 -3.41976 0
M  V30 8608 N 809.678 -2.02359 -2.08565 0
M  V30 8609 H 809.225 -2.26619 -1.22482 0
M  V30 8610 H 809.183 -1.48878 -2.76916 0
M  V30 8611 N 812.955 -0.234822 -1.55841 0
M  V30 8612 C 814.203 0.392483 -1.98252 0
M  V30 8613 C 814.524 1.59344 -1.12404 0
M  V30 8614 O 813.794 1.94834 -0.204055 0
M  V30 8615 H 812.374 0.147999 -0.732192 0
M  V30 8616 H 815.036 -0.330804 -1.92072 0
M  V30 8617 H 814.132 0.709829 -3.03921 0
M  V30 8618 N 814.433 1.57553 0.0384317 0
M  V30 8619 C 815.679 1.89121 0.732199 0
M  V30 8620 C 816.012 0.831404 1.75503 0
M  V30 8621 O 815.287 -0.154642 1.93884 0
M  V30 8622 C 815.57 3.31338 1.41021 0
M  V30 8623 C 815.423 4.48004 0.401532 0
M  V30 8624 C 816.742 3.72318 2.34665 0
M  V30 8625 H 813.861 0.687819 0.264715 0
M  V30 8626 H 816.503 1.89999 -0.00496279 0
M  V30 8627 H 814.653 3.3072 2.03854 0
M  V30 8628 H 816.325 4.60755 -0.224159 0
M  V30 8629 H 814.568 4.32895 -0.280092 0
M  V30 8630 H 815.239 5.44377 0.91423 0
M  V30 8631 H 817.715 3.74243 1.81883 0
M  V30 8632 H 816.591 4.72652 2.7909 0
M  V30 8633 H 816.852 3.04062 3.20934 0
M  V30 8634 N 815.911 -0.310526 1.54511 0
M  V30 8635 C 816.858 -1.38264 1.84802 0
M  V30 8636 C 817.828 -1.50808 0.696141 0
M  V30 8637 O 819.013 -1.6582 0.943846 0
M  V30 8638 C 816.153 -2.74422 2.09252 0
M  V30 8639 C 815.266 -2.70405 3.36906 0
M  V30 8640 C 814.401 -3.98495 3.51248 0
M  V30 8641 C 813.44 -3.88836 4.72729 0
M  V30 8642 N 812.577 -5.08683 4.83928 0
M  V30 8643 H 817.417 -1.11732 2.76261 0
M  V30 8644 H 814.954 -0.540609 1.36806 0
M  V30 8645 H 816.912 -3.53593 2.21422 0
M  V30 8646 H 815.542 -2.99235 1.2107 0
M  V30 8647 H 814.594 -1.83151 3.33406 0
M  V30 8648 H 815.906 -2.59155 4.26193 0
M  V30 8649 H 815.06 -4.861 3.63031 0
M  V30 8650 H 813.799 -4.12567 2.60077 0
M  V30 8651 H 812.804 -2.99615 4.60989 0
M  V30 8652 H 814.029 -3.76318 5.65298 0
M  V30 8653 H 811.975 -5.23236 3.95677 0
M  V30 8654 H 811.892 -4.99819 5.67201 0
M  V30 8655 H 813.16 -5.97966 5.00057 0
M  V30 8656 N 817.389 -1.46805 -0.573248 0
M  V30 8657 C 818.337 -1.58468 -1.70267 0
M  V30 8658 C 819.331 -0.452694 -1.63239 0
M  V30 8659 O 820.537 -0.629915 -1.68618 0
M  V30 8660 H 816.912 -0.498408 -0.56311 0
M  V30 8661 H 818.883 -2.5341 -1.57563 0
M  V30 8662 C 817.632 -1.60104 -3.08645 0
M  V30 8663 H 816.955 -2.4655 -3.14727 0
M  V30 8664 H 818.395 -1.72318 -3.87405 0
M  V30 8665 C 816.854 -0.33138 -3.35266 0
M  V30 8666 O 817.384 0.57438 -3.97572 0
M  V30 8667 N 815.59 -0.216358 -2.89793 0
M  V30 8668 H 815.137 -0.954345 -2.3927 0
M  V30 8669 H 815.095 0.632253 -3.07977 0
M  V30 8670 N 818.867 0.818669 -1.34668 0
M  V30 8671 C 820.116 1.57017 -1.26604 0
M  V30 8672 C 820.429 1.94936 0.161036 0
M  V30 8673 O 821.635 2.69051 0.36386 0
M  V30 8674 C 820.091 2.83305 -2.2196 0
M  V30 8675 C 819.699 2.52671 -3.69948 0
M  V30 8676 C 821.443 3.61324 -2.22813 0
M  V30 8677 C 819.35 3.75178 -4.5716 0
M  V30 8678 H 818.28 0.589323 -0.470335 0
M  V30 8679 H 820.931 0.900956 -1.59859 0
M  V30 8680 H 819.313 3.51874 -1.81661 0
M  V30 8681 H 820.487 1.92186 -4.18809 0
M  V30 8682 H 818.802 1.8792 -3.71584 0
M  V30 8683 H 821.399 4.52294 -2.85192 0
M  V30 8684 H 821.742 3.97759 -1.22857 0
M  V30 8685 H 822.275 2.99703 -2.61578 0
M  V30 8686 H 819.014 3.43861 -5.58068 0
M  V30 8687 H 818.534 4.34931 -4.13031 0
M  V30 8688 H 820.213 4.42542 -4.71981 0
M  V30 8689 N 820.346 1.18468 1.03938 0
M  V30 8690 C 821.574 1.00576 1.80809 0
M  V30 8691 C 821.989 -0.445786 1.83462 0
M  V30 8692 O 821.346 -1.30964 1.27101 0
M  V30 8693 C 821.397 1.55491 3.26351 0
M  V30 8694 O 821.118 2.94963 3.23926 0
M  V30 8695 C 822.619 1.42236 4.19862 0
M  V30 8696 H 819.839 0.35508 0.56935 0
M  V30 8697 H 822.383 1.57046 1.30984 0
M  V30 8698 H 820.538 1.03195 3.73403 0
M  V30 8699 H 820.952 3.20598 4.15111 0
M  V30 8700 H 822.426 1.85455 5.19914 0
M  V30 8701 H 822.903 0.371267 4.37628 0
M  V30 8702 H 823.509 1.9361 3.78675 0
M  V30 8703 N 821.824 -1.22873 0.986916 0
M  V30 8704 C 822.756 -2.23889 0.490537 0
M  V30 8705 C 823.769 -1.57523 -0.411144 0
M  V30 8706 O 824.958 -1.7721 -0.214236 0
M  V30 8707 C 822.058 -3.37488 -0.30902 0
M  V30 8708 C 821.231 -4.33438 0.587354 0
M  V30 8709 C 820.29 -5.25958 -0.159467 0
M  V30 8710 O 819.316 -5.67394 0.453115 0
M  V30 8711 N 820.518 -5.62265 -1.44355 0
M  V30 8712 H 823.283 -2.67109 1.35914 0
M  V30 8713 H 820.844 -1.37111 0.860937 0
M  V30 8714 H 822.836 -3.96365 -0.817139 0
M  V30 8715 H 821.406 -2.934 -1.07868 0
M  V30 8716 H 820.626 -3.72969 1.27622 0
M  V30 8717 H 821.914 -4.94495 1.19801 0
M  V30 8718 H 821.312 -5.30562 -1.96266 0
M  V30 8719 H 819.869 -6.23585 -1.89698 0
M  V30 8720 N 823.302 -0.75937 -1.38099 0
M  V30 8721 C 824.249 -0.135508 -2.30402 0
M  V30 8722 C 825.219 0.703356 -1.50473 0
M  V30 8723 O 826.404 0.658287 -1.79084 0
M  V30 8724 C 823.544 0.747228 -3.36913 0
M  V30 8725 C 822.657 -0.106893 -4.31868 0
M  V30 8726 C 821.792 0.779388 -5.25451 0
M  V30 8727 C 820.831 -0.0780179 -6.1205 0
M  V30 8728 N 819.968 0.765545 -6.97914 0
M  V30 8729 H 824.808 -0.9282 -2.83176 0
M  V30 8730 H 822.345 -0.46935 -1.39411 0
M  V30 8731 H 824.303 1.27371 -3.97281 0
M  V30 8732 H 822.933 1.50565 -2.85535 0
M  V30 8733 H 821.985 -0.751063 -3.72912 0
M  V30 8734 H 823.297 -0.768798 -4.9284 0
M  V30 8735 H 822.451 1.37282 -5.90964 0
M  V30 8736 H 821.19 1.47501 -4.6486 0
M  V30 8737 H 820.195 -0.684078 -5.45528 0
M  V30 8738 H 821.42 -0.770786 -6.74712 0
M  V30 8739 H 819.366 1.44601 -6.39864 0
M  V30 8740 H 819.283 0.160666 -7.55829 0
M  V30 8741 H 820.551 1.34377 -7.6783 0
M  V30 8742 N 824.78 1.49157 -0.508906 0
M  V30 8743 C 826.196 1.58741 -0.165372 0
M  V30 8744 C 826.396 1.5133 1.33047 0
M  V30 8745 O 825.452 1.39135 2.10707 0
M  V30 8746 C 826.765 2.91217 -0.749194 0
M  V30 8747 C 828.313 3.047 -0.716015 0
M  V30 8748 C 828.788 4.39807 -1.27804 0
M  V30 8749 N 830.279 4.46319 -1.23908 0
M  V30 8750 C 831.014 5.49325 -1.64406 0
M  V30 8751 N 830.51 6.59395 -2.12534 0
M  V30 8752 N 832.303 5.40084 -1.55773 0
M  V30 8753 H 824.454 1.52217 -1.48134 0
M  V30 8754 H 826.717 0.721514 -0.614915 0
M  V30 8755 H 826.423 3.02233 -1.79856 0
M  V30 8756 H 826.297 3.76592 -0.214144 0
M  V30 8757 H 828.684 2.9331 0.324535 0
M  V30 8758 H 828.765 2.2099 -1.2883 0
M  V30 8759 H 828.409 4.5195 -2.31741 0
M  V30 8760 H 828.339 5.2217 -0.681623 0
M  V30 8761 H 830.83 3.67354 -0.886537 0
M  V30 8762 H 831.143 7.34102 -2.41485 0
M  V30 8763 H 829.488 6.60414 -2.16513 0
M  V30 8764 H 832.679 4.52986 -1.17987 0
M  V30 8765 H 832.852 6.20233 -1.87657 0
M  V30 8766 N 826.258 0.243083 1.55714 0
M  V30 8767 C 827.505 -0.38272 1.9885 0
M  V30 8768 C 827.833 -1.58225 1.13115 0
M  V30 8769 O 827.088 -1.94861 0.181067 0
M  V30 8770 C 827.387 -0.839621 3.47398 0
M  V30 8771 C 827.053 0.251737 4.50197 0
M  V30 8772 C 825.715 0.551487 4.78029 0
M  V30 8773 C 828.067 0.988728 5.11736 0
M  V30 8774 C 825.395 1.59237 5.64677 0
M  V30 8775 C 827.747 2.0191 5.99512 0
M  V30 8776 C 826.411 2.32554 6.2568 0
M  V30 8777 H 825.681 -0.140047 0.727645 0
M  V30 8778 H 828.328 0.35011 1.88272 0
M  V30 8779 H 826.633 -1.65159 3.55288 0
M  V30 8780 H 828.33 -1.33404 3.78159 0
M  V30 8781 H 824.92 0.00796741 4.28599 0
M  V30 8782 H 829.104 0.7704 4.90284 0
M  V30 8783 H 824.36 1.83517 5.83208 0
M  V30 8784 H 828.534 2.59511 6.46241 0
M  V30 8785 H 826.161 3.13349 6.92616 0
M  V30 8786 N 827.736 -1.57571 -0.0300757 0
M  V30 8787 C 828.666 -2.0953 -1.03051 0
M  V30 8788 C 829.647 -0.99761 -1.37774 0
M  V30 8789 O 830.832 -1.27279 -1.46676 0
M  V30 8790 C 827.962 -2.57385 -2.33174 0
M  V30 8791 C 826.916 -3.71409 -2.12696 0
M  V30 8792 C 826.242 -4.05467 -3.4857 0
M  V30 8793 C 827.542 -4.99877 -1.51396 0
M  V30 8794 H 829.236 -2.93367 -0.597999 0
M  V30 8795 H 826.782 -1.41127 -0.286203 0
M  V30 8796 H 828.735 -2.92355 -3.03491 0
M  V30 8797 H 827.459 -1.70629 -2.78484 0
M  V30 8798 H 826.118 -3.36786 -1.44813 0
M  V30 8799 H 825.766 -3.15779 -3.91526 0
M  V30 8800 H 825.466 -4.82269 -3.35694 0
M  V30 8801 H 826.99 -4.4297 -4.2025 0
M  V30 8802 H 828.404 -5.3281 -2.11629 0
M  V30 8803 H 826.801 -5.81283 -1.49098 0
M  V30 8804 H 827.871 -4.82522 -0.479676 0
M  V30 8805 N 829.214 0.302327 -1.54673 0
M  V30 8806 C 830.144 1.37759 -1.88533 0
M  V30 8807 C 831.125 1.52961 -0.744113 0
M  V30 8808 O 832.31 1.6649 -0.999731 0
M  V30 8809 C 829.44 2.74201 -2.13146 0
M  V30 8810 C 828.394 2.73765 -3.28993 0
M  V30 8811 C 827.72 4.13483 -3.39022 0
M  V30 8812 C 829.02 2.35624 -4.66132 0
M  V30 8813 H 830.714 1.0967 -2.78591 0
M  V30 8814 H 828.26 0.52613 -1.34044 0
M  V30 8815 H 830.213 3.49508 -2.35419 0
M  V30 8816 H 828.937 3.03812 -1.19858 0
M  V30 8817 H 827.596 2.00914 -3.06642 0
M  V30 8818 H 827.244 4.40269 -2.43253 0
M  V30 8819 H 826.944 4.14093 -4.16894 0
M  V30 8820 H 828.468 4.90572 -3.63553 0
M  V30 8821 H 829.882 3.00647 -4.88143 0
M  V30 8822 H 828.279 2.47449 -5.46707 0
M  V30 8823 H 829.349 1.30753 -4.66939 0
M  V30 8824 N 830.692 1.47107 0.565454 0
M  V30 8825 C 831.969 1.43787 1.32607 0
M  V30 8826 C 832.349 0.130428 2.10697 0
M  V30 8827 O 831.697 -0.888086 2.10536 0
M  V30 8828 C 831.907 2.67833 2.23755 0
M  V30 8829 C 833.255 3.14704 2.85037 0
M  V30 8830 O 834.279 2.68503 2.34061 0
M  V30 8831 O 833.138 3.95002 3.77671 0
M  V30 8832 H 830.232 0.572623 0.596684 0
M  V30 8833 H 832.778 1.59296 0.58504 0
M  V30 8834 H 831.55 3.54532 1.65597 0
M  V30 8835 H 831.173 2.54869 3.05168 0
M  V30 8836 N 832.17 -0.811516 1.35101 0
M  V30 8837 C 833.581 -1.38515 1.25182 0
M  V30 8838 C 833.932 -1.95846 -0.117883 0
M  V30 8839 O 833.057 -1.90925 -1.01866 0
M  V30 8840 C 833.652 -2.51813 2.26662 0
M  V30 8841 C 832.211 -3.05052 2.20499 0
M  V30 8842 C 831.358 -1.77987 2.12641 0
M  V30 8843 H 834.309 -0.614959 1.46301 0
M  V30 8844 H 834.33 -3.30228 1.89023 0
M  V30 8845 H 833.842 -2.10057 3.2634 0
M  V30 8846 H 831.943 -3.51285 1.24215 0
M  V30 8847 H 832.056 -3.63368 3.1225 0
M  V30 8848 H 830.42 -1.99342 1.5854 0
M  V30 8849 H 831.203 -1.38389 3.14171 0
M  V30 8850 N 833.648 -1.19017 -1.03309 0
M  V30 8851 C 835.064 -0.941483 -1.28873 0
M  V30 8852 C 835.264 0.388587 -1.97718 0
M  V30 8853 O 834.32 1.12111 -2.26246 0
M  V30 8854 C 835.633 -2.11249 -2.13996 0
M  V30 8855 C 837.181 -2.15164 -2.27318 0
M  V30 8856 C 837.656 -3.31704 -3.15811 0
M  V30 8857 N 839.147 -3.31613 -3.23399 0
M  V30 8858 C 839.882 -4.18431 -3.9205 0
M  V30 8859 N 839.378 -5.15397 -4.62966 0
M  V30 8860 N 841.171 -4.06321 -3.88406 0
M  V30 8861 H 833.322 -2.04599 -0.570343 0
M  V30 8862 H 835.585 -0.894406 -0.314232 0
M  V30 8863 H 835.291 -3.07482 -1.70727 0
M  V30 8864 H 835.165 -2.07955 -3.14697 0
M  V30 8865 H 837.552 -1.19504 -2.6982 0
M  V30 8866 H 837.633 -2.22513 -1.26182 0
M  V30 8867 H 837.277 -4.2764 -2.74019 0
M  V30 8868 H 837.207 -3.21592 -4.16997 0
M  V30 8869 H 839.698 -2.6142 -2.72888 0
M  V30 8870 H 840.011 -5.78 -5.12968 0
M  V30 8871 H 838.356 -5.19349 -4.61846 0
M  V30 8872 H 841.547 -3.29849 -3.3214 0
M  V30 8873 H 841.72 -4.74196 -4.41635 0
M  V30 8874 N 835.127 1.22348 -0.993418 0
M  V30 8875 C 836.09 2.22522 -0.549251 0
M  V30 8876 C 837.09 1.56529 0.368164 0
M  V30 8877 O 838.28 1.73463 0.16005 0
M  V30 8878 C 835.412 3.40307 0.201037 0
M  V30 8879 H 836.605 2.63332 -1.43515 0
M  V30 8880 H 834.158 1.35407 -0.78068 0
M  V30 8881 H 834.893 3.0497 1.10289 0
M  V30 8882 H 834.678 3.8942 -0.457685 0
M  V30 8883 H 836.168 4.14597 0.499946 0
M  V30 8884 N 836.605 0.766683 1.37694 0
M  V30 8885 C 837.553 0.137269 2.32195 0
M  V30 8886 C 838.547 -0.69067 1.54681 0
M  V30 8887 O 839.753 -0.588299 1.70115 0
M  V30 8888 H 836.128 0.0256003 0.751564 0
M  V30 8889 H 838.099 0.950129 2.82869 0
M  V30 8890 C 836.848 -0.731446 3.39919 0
M  V30 8891 H 836.171 -0.103738 3.99665 0
M  V30 8892 H 837.611 -1.13891 4.08417 0
M  V30 8893 C 836.07 -1.87984 2.79578 0
M  V30 8894 O 836.6 -2.97496 2.69924 0
M  V30 8895 N 834.806 -1.6789 2.37195 0
M  V30 8896 H 834.353 -0.788162 2.45246 0
M  V30 8897 H 834.311 -2.44894 1.97165 0
M  V30 8898 N 838.083 -1.48885 0.516809 0
M  V30 8899 C 839.494 -1.86557 0.0729921 0
M  V30 8900 C 839.845 -1.42767 -1.34581 0
M  V30 8901 O 838.97 -0.812514 -2.00567 0
M  V30 8902 C 839.565 -3.38567 0.125686 0
M  V30 8903 C 838.124 -3.75481 -0.262867 0
M  V30 8904 C 837.271 -2.72913 0.491281 0
M  V30 8905 H 840.222 -1.40978 0.728767 0
M  V30 8906 H 840.243 -3.74629 -0.665831 0
M  V30 8907 H 839.755 -3.70408 1.15842 0
M  V30 8908 H 837.856 -3.49251 -1.29824 0
M  V30 8909 H 837.969 -4.79052 0.067579 0
M  V30 8910 H 836.333 -2.54627 -0.0608525 0
M  V30 8911 H 837.116 -3.07599 1.5244 0
M  V30 8912 N 839.561 -0.251338 -1.55583 0
M  V30 8913 C 840.786 0.379136 -2.03905 0
M  V30 8914 C 841.211 1.50428 -1.12929 0
M  V30 8915 O 840.569 1.80882 -0.123114 0
M  V30 8916 C 840.617 0.86009 -3.50193 0
M  V30 8917 O 839.721 1.96932 -3.62342 0
M  V30 8918 H 839.062 0.0820183 -0.658915 0
M  V30 8919 H 841.592 -0.378692 -2.01065 0
M  V30 8920 H 841.602 1.16214 -3.91099 0
M  V30 8921 H 840.277 0.0367559 -4.15884 0
M  V30 8922 H 838.854 1.67163 -3.33333 0
M  V30 8923 N 841.039 1.57585 0.0217189 0
M  V30 8924 C 841.971 2.03849 1.04777 0
M  V30 8925 C 842.984 0.952558 1.32023 0
M  V30 8926 O 844.173 1.22974 1.29381 0
M  V30 8927 C 841.273 2.40504 2.3877 0
M  V30 8928 C 840.446 3.71566 2.30775 0
M  V30 8929 C 839.505 3.95329 3.47277 0
M  V30 8930 O 838.531 4.66289 3.26441 0
M  V30 8931 N 839.733 3.41536 4.69397 0
M  V30 8932 H 842.498 2.92491 0.653395 0
M  V30 8933 H 840.059 1.60538 0.209527 0
M  V30 8934 H 842.051 2.53532 3.15442 0
M  V30 8935 H 840.621 1.57494 2.70027 0
M  V30 8936 H 839.841 3.68822 1.39155 0
M  V30 8937 H 841.129 4.5753 2.22584 0
M  V30 8938 H 840.527 2.84033 4.89226 0
M  V30 8939 H 839.084 3.59932 5.43408 0
M  V30 8940 N 842.517 -0.29412 1.54831 0
M  V30 8941 C 843.928 -0.866651 1.65366 0
M  V30 8942 C 844.279 -1.87834 0.56681 0
M  V30 8943 O 843.404 -2.14374 -0.295389 0
M  V30 8944 C 843.999 -1.57869 2.99771 0
M  V30 8945 C 842.558 -2.09954 3.12404 0
M  V30 8946 C 841.705 -0.934492 2.6108 0
M  V30 8947 H 844.656 -0.0709551 1.58541 0
M  V30 8948 H 844.677 -2.44462 2.91579 0
M  V30 8949 H 844.189 -0.84212 3.78853 0
M  V30 8950 H 842.29 -2.86637 2.38055 0
M  V30 8951 H 842.403 -2.32934 4.18663 0
M  V30 8952 H 840.767 -1.32199 2.17705 0
M  V30 8953 H 841.55 -0.211768 3.42646 0
M  V30 8954 N 843.995 -1.47404 -0.557645 0
M  V30 8955 C 845.406 -1.47872 -1.13977 0
M  V30 8956 C 845.757 -0.233176 -1.94809 0
M  V30 8957 O 844.882 0.661945 -2.06027 0
M  V30 8958 C 845.477 -2.67926 -2.07368 0
M  V30 8959 C 844.036 -2.71354 -2.60852 0
M  V30 8960 C 843.183 -2.40967 -1.37223 0
M  V30 8961 H 846.134 -1.54921 -0.344268 0
M  V30 8962 H 846.155 -2.44871 -2.91236 0
M  V30 8963 H 845.667 -3.58562 -1.48509 0
M  V30 8964 H 843.768 -1.84855 -3.23511 0
M  V30 8965 H 843.881 -3.72032 -3.01876 0
M  V30 8966 H 842.245 -1.91541 -1.67882 0
M  V30 8967 H 843.028 -3.33811 -0.801583 0
M  V30 8968 N 845.473 0.80434 -1.35529 0
M  V30 8969 C 846.698 1.598 -1.32207 0
M  V30 8970 C 847.123 1.87848 0.0974226 0
M  V30 8971 O 846.481 1.46728 1.06492 0
M  V30 8972 C 846.529 2.90483 -2.13663 0
M  V30 8973 O 845.633 3.83411 -1.51888 0
M  V30 8974 H 844.974 0.485305 -0.453183 0
M  V30 8975 H 847.504 0.998119 -1.78602 0
M  V30 8976 H 847.514 3.39888 -2.257 0
M  V30 8977 H 846.189 2.69395 -3.16859 0
M  V30 8978 H 844.766 3.41967 -1.48704 0
M  V30 8979 N 846.951 1.19563 1.02676 0
M  V30 8980 C 848.228 0.908857 1.73203 0
M  V30 8981 C 848.608 -0.584928 2.02834 0
M  V30 8982 O 847.956 -1.54372 1.68469 0
M  V30 8983 C 848.166 1.77105 3.00724 0
M  V30 8984 C 849.514 2.00667 3.7419 0
M  V30 8985 O 850.538 1.74274 3.10656 0
M  V30 8986 O 849.397 2.4518 4.88415 0
M  V30 8987 H 846.491 0.338909 0.754367 0
M  V30 8988 H 849.037 1.30387 1.08616 0
M  V30 8989 H 847.809 2.78303 2.7507 0
M  V30 8990 H 847.432 1.37546 3.73051 0
M  V30 8991 N 848.429 -1.21819 0.999893 0
M  V30 8992 C 849.359 -2.26282 0.576096 0
M  V30 8993 C 850.34 -1.65317 -0.400537 0
M  V30 8994 O 851.525 -1.92028 -0.28964 0
M  V30 8995 C 848.655 -3.47147 -0.103145 0
M  V30 8996 C 847.609 -4.20594 0.792745 0
M  V30 8997 C 846.935 -5.34696 -0.0198026 0
M  V30 8998 C 848.235 -4.78533 2.09293 0
M  V30 8999 H 849.929 -2.61984 1.4493 0
M  V30 9000 H 847.475 -1.25935 0.698316 0
M  V30 9001 H 849.428 -4.1939 -0.411068 0
M  V30 9002 H 848.152 -3.1056 -1.01094 0
M  V30 9003 H 846.811 -3.50194 1.08442 0
M  V30 9004 H 846.459 -4.94352 -0.928729 0
M  V30 9005 H 846.159 -5.84764 0.576661 0
M  V30 9006 H 847.683 -6.09752 -0.321659 0
M  V30 9007 H 849.097 -5.42682 1.8485 0
M  V30 9008 H 847.494 -5.38968 2.63881 0
M  V30 9009 H 848.564 -3.98197 2.76708 0
M  V30 9010 N 849.908 -0.773975 -1.37286 0
M  V30 9011 C 851.156 -0.338636 -1.99243 0
M  V30 9012 C 851.477 1.08919 -1.61746 0
M  V30 9013 O 850.747 1.74822 -0.88397 0
M  V30 9014 H 849.327 -0.12222 -0.736934 0
M  V30 9015 H 851.989 -0.992595 -1.67731 0
M  V30 9016 H 851.085 -0.418055 -3.09287 0
M  V30 9017 N 851.386 1.48609 -0.524698 0
M  V30 9018 C 852.616 2.06599 0.00741868 0
M  V30 9019 C 853.024 1.3823 1.29186 0
M  V30 9020 O 852.367 0.461962 1.77797 0
M  V30 9021 C 852.429 3.58184 0.307324 0
M  V30 9022 C 852.093 4.48391 -0.882864 0
M  V30 9023 C 853.09 4.88485 -1.77984 0
M  V30 9024 C 850.775 4.90367 -1.08837 0
M  V30 9025 C 852.769 5.69319 -2.86627 0
M  V30 9026 C 850.456 5.70972 -2.17794 0
M  V30 9027 C 851.454 6.10355 -3.06523 0
M  V30 9028 O 851.142 6.89343 -4.13596 0
M  V30 9029 H 850.874 0.675421 -0.0279846 0
M  V30 9030 H 853.428 1.92058 -0.7282 0
M  V30 9031 H 851.658 3.70818 1.09685 0
M  V30 9032 H 853.347 3.98318 0.780886 0
M  V30 9033 H 854.113 4.56682 -1.63299 0
M  V30 9034 H 849.992 4.592 -0.407035 0
M  V30 9035 H 853.536 5.99978 -3.55911 0
M  V30 9036 H 849.433 6.02188 -2.32465 0
M  V30 9037 H 850.201 7.07689 -4.1124 0
M  V30 9038 N 852.864 0.259585 1.55447 0
M  V30 9039 C 854.092 -0.365392 2.03648 0
M  V30 9040 C 854.507 -1.50613 1.13847 0
M  V30 9041 O 853.864 -1.81837 0.155414 0
M  V30 9042 C 853.915 -0.861172 3.51093 0
M  V30 9043 O 853.636 0.234121 4.37474 0
M  V30 9044 C 855.137 -1.55555 4.15111 0
M  V30 9045 H 852.357 -0.0853439 0.66555 0
M  V30 9046 H 854.901 0.387151 2.00802 0
M  V30 9047 H 853.056 -1.56385 3.54433 0
M  V30 9048 H 853.47 -0.1444 5.24301 0
M  V30 9049 H 854.944 -1.85403 5.19932 0
M  V30 9050 H 855.421 -2.48185 3.62355 0
M  V30 9051 H 856.027 -0.89712 4.15731 0
M  V30 9052 N 854.342 -1.57594 -0.0133615 0
M  V30 9053 C 855.588 -1.91105 -0.696457 0
M  V30 9054 C 855.943 -0.859872 -1.72116 0
M  V30 9055 O 855.236 0.129579 -1.91161 0
M  V30 9056 C 855.43 -3.29121 -1.39336 0
M  V30 9057 C 855.259 -4.47565 -0.437666 0
M  V30 9058 C 854.029 -5.05272 -0.0529454 0
M  V30 9059 C 856.227 -5.13479 0.290537 0
M  V30 9060 N 854.209 -6.07232 0.902355 0
M  V30 9061 C 855.58 -6.10147 1.10097 0
M  V30 9062 C 857.635 -4.96627 0.355804 0
M  V30 9063 C 856.338 -6.91778 1.97069 0
M  V30 9064 C 858.364 -5.78833 1.21271 0
M  V30 9065 C 857.726 -6.75083 2.01102 0
M  V30 9066 H 853.825 -0.747882 -0.228464 0
M  V30 9067 H 856.409 -1.94651 0.0438462 0
M  V30 9068 H 854.58 -3.26474 -2.10403 0
M  V30 9069 H 856.312 -3.501 -2.03008 0
M  V30 9070 H 853.067 -4.71747 -0.418486 0
M  V30 9071 H 853.491 -6.6289 1.37498 0
M  V30 9072 H 858.133 -4.22077 -0.247105 0
M  V30 9073 H 855.851 -7.65662 2.58433 0
M  V30 9074 H 859.437 -5.67838 1.26694 0
M  V30 9075 H 858.317 -7.37587 2.66337 0
M  V30 9076 N 855.82 0.285905 -1.54985 0
M  V30 9077 C 856.768 1.37302 -1.87752 0
M  V30 9078 C 857.762 1.51763 -0.752616 0
M  V30 9079 O 858.968 1.53701 -0.936805 0
M  V30 9080 H 855.343 0.458935 -0.59572 0
M  V30 9081 H 857.314 1.0691 -2.78591 0
M  V30 9082 C 856.063 2.72885 -2.15474 0
M  V30 9083 H 855.386 2.62545 -3.01513 0
M  V30 9084 H 856.826 3.47925 -2.42331 0
M  V30 9085 C 855.285 3.22989 -0.958124 0
M  V30 9086 O 855.815 4.01268 -0.186219 0
M  V30 9087 N 854.021 2.80503 -0.759354 0
M  V30 9088 H 853.568 2.16961 -1.38874 0
M  V30 9089 H 853.526 3.14375 0.0396937 0
M  V30 9090 N 857.298 1.47698 0.54982 0
M  V30 9091 C 858.547 1.53961 1.30303 0
M  V30 9092 C 858.86 0.209731 1.94472 0
M  V30 9093 O 860.066 0.150418 2.71083 0
M  V30 9094 C 858.522 2.71436 2.36328 0
M  V30 9095 C 858.13 4.10983 1.78316 0
M  V30 9096 C 859.874 2.86996 3.12783 0
M  V30 9097 C 857.781 5.19747 2.82164 0
M  V30 9098 H 856.711 0.573098 0.489975 0
M  V30 9099 H 859.362 1.73989 0.583089 0
M  V30 9100 H 857.744 2.44801 3.11269 0
M  V30 9101 H 858.918 4.47552 1.09697 0
M  V30 9102 H 857.233 4.00371 1.1442 0
M  V30 9103 H 859.83 3.65422 3.90347 0
M  V30 9104 H 860.173 1.95712 3.67427 0
M  V30 9105 H 860.706 3.13436 2.44954 0
M  V30 9106 H 857.445 6.12932 2.32366 0
M  V30 9107 H 856.965 4.87688 3.49171 0
M  V30 9108 H 858.644 5.47014 3.4552 0
M  V30 9109 N 858.776 -0.797141 1.35954 0
M  V30 9110 C 860.187 -1.37179 1.26644 0
M  V30 9111 C 860.538 -1.9596 -0.0971046 0
M  V30 9112 O 859.663 -1.91994 -0.998355 0
M  V30 9113 C 860.258 -2.49395 2.2932 0
M  V30 9114 C 858.817 -3.02697 2.23722 0
M  V30 9115 C 857.964 -1.75721 2.14517 0
M  V30 9116 H 860.915 -0.599407 1.46945 0
M  V30 9117 H 860.936 -3.28204 1.92515 0
M  V30 9118 H 860.448 -2.06584 3.2855 0
M  V30 9119 H 858.549 -3.49948 1.27934 0
M  V30 9120 H 858.662 -3.60036 3.16087 0
M  V30 9121 H 857.026 -1.97649 1.60646 0
M  V30 9122 H 857.809 -1.35049 3.15621 0
M  V30 9123 N 860.254 -1.20106 -1.0204 0
M  V30 9124 C 861.5 -1.01039 -1.75838 0
M  V30 9125 C 861.833 0.456819 -1.88751 0
M  V30 9126 O 861.108 1.33919 -1.41053 0
M  V30 9127 C 861.391 -1.69009 -3.17975 0
M  V30 9128 C 861.244 -3.2315 -3.1288 0
M  V30 9129 C 862.563 -1.42005 -4.16561 0
M  V30 9130 H 859.682 -0.368465 -0.638281 0
M  V30 9131 H 862.324 -1.48066 -1.19064 0
M  V30 9132 H 860.474 -1.29026 -3.66449 0
M  V30 9133 H 862.146 -3.72402 -2.72239 0
M  V30 9134 H 860.389 -3.54253 -2.50374 0
M  V30 9135 H 861.06 -3.65862 -4.13339 0
M  V30 9136 H 863.536 -1.76685 -3.76725 0
M  V30 9137 H 862.412 -1.92101 -5.14187 0
M  V30 9138 H 862.673 -0.346884 -4.40737 0
M  V30 9139 N 861.732 1.21287 -1.00634 0
M  V30 9140 C 862.679 2.23705 -0.567876 0
M  V30 9141 C 863.649 1.61043 0.406753 0
M  V30 9142 O 864.834 1.88289 0.308499 0
M  V30 9143 C 861.974 3.44961 0.097996 0
M  V30 9144 C 861.087 4.22091 -0.919972 0
M  V30 9145 C 860.222 5.30718 -0.226222 0
M  V30 9146 C 859.261 5.99581 -1.23165 0
M  V30 9147 N 858.398 6.99821 -0.565278 0
M  V30 9148 H 863.238 2.60571 -1.44592 0
M  V30 9149 H 860.775 1.28049 -0.724006 0
M  V30 9150 H 862.733 4.1418 0.501097 0
M  V30 9151 H 861.363 3.08818 0.939744 0
M  V30 9152 H 860.415 3.52038 -1.44131 0
M  V30 9153 H 861.727 4.69476 -1.68505 0
M  V30 9154 H 860.881 6.06253 0.232917 0
M  V30 9155 H 859.62 4.84343 0.571247 0
M  V30 9156 H 858.625 5.22816 -1.70128 0
M  V30 9157 H 859.85 6.48042 -2.03022 0
M  V30 9158 H 857.796 6.55656 0.212508 0
M  V30 9159 H 857.713 7.4528 -1.26858 0
M  V30 9160 H 858.981 7.79393 -0.129389 0
M  V30 9161 N 863.21 0.781244 1.36873 0
M  V30 9162 C 864.456 0.359455 2.00199 0
M  V30 9163 C 864.811 -1.05495 1.60899 0
M  V30 9164 O 864.104 -1.7173 0.849664 0
M  V30 9165 C 864.298 0.45146 3.54537 0
M  V30 9166 C 864.127 1.87326 4.08826 0
M  V30 9167 C 862.897 2.49606 4.39346 0
M  V30 9168 C 865.095 2.8342 4.29159 0
M  V30 9169 N 863.077 3.8346 4.79408 0
M  V30 9170 C 864.448 4.02091 4.71935 0
M  V30 9171 C 866.503 2.80583 4.11312 0
M  V30 9172 C 865.206 5.18322 4.98733 0
M  V30 9173 C 867.232 3.95995 4.39251 0
M  V30 9174 C 866.594 5.13409 4.82276 0
M  V30 9175 H 862.693 0.178778 0.76129 0
M  V30 9176 H 865.277 1.0171 1.66022 0
M  V30 9177 H 863.448 -0.176055 3.88001 0
M  V30 9178 H 865.18 0.00670219 4.04699 0
M  V30 9179 H 861.935 2.01149 4.28761 0
M  V30 9180 H 862.359 4.52306 5.03735 0
M  V30 9181 H 867.001 1.90974 3.77212 0
M  V30 9182 H 864.719 6.08524 5.31718 0
M  V30 9183 H 868.305 3.95152 4.2702 0
M  V30 9184 H 867.185 6.01232 5.03478 0
M  V30 9185 N 864.689 -1.48329 0.532571 0
M  V30 9186 C 865.917 -2.069 0.00354299 0
M  V30 9187 C 866.332 -1.38876 -1.27902 0
M  V30 9188 O 865.689 -0.477119 -1.76153 0
M  V30 9189 C 865.74 -3.60821 -0.221416 0
M  V30 9190 O 865.461 -4.26291 1.01034 0
M  V30 9191 C 866.962 -4.36194 -0.790531 0
M  V30 9192 H 864.182 -0.670103 0.0346836 0
M  V30 9193 H 866.726 -1.90682 0.738955 0
M  V30 9194 H 864.881 -3.76636 -0.906884 0
M  V30 9195 H 865.295 -5.18475 0.792683 0
M  V30 9196 H 866.769 -5.44657 -0.897347 0
M  V30 9197 H 867.246 -4.00798 -1.79605 0
M  V30 9198 H 867.852 -4.25064 -0.141546 0
M  V30 9199 N 866.167 -0.267825 -1.55308 0
M  V30 9200 C 867.077 0.633055 -2.25897 0
M  V30 9201 C 868.093 1.17613 -1.28231 0
M  V30 9202 O 869.269 1.20797 -1.61153 0
M  V30 9203 C 866.334 1.80397 -2.96071 0
M  V30 9204 C 865.395 1.29829 -4.09198 0
M  V30 9205 C 864.628 2.4134 -4.76016 0
M  V30 9206 O 864.851 3.60537 -4.42006 0
M  V30 9207 O 863.785 2.09909 -5.64111 0
M  V30 9208 H 867.611 0.0614381 -3.03638 0
M  V30 9209 H 865.196 -0.0355072 -1.49358 0
M  V30 9210 H 867.078 2.48685 -3.40197 0
M  V30 9211 H 865.753 2.36281 -2.21253 0
M  V30 9212 H 864.66 0.582086 -3.69544 0
M  V30 9213 H 865.993 0.785288 -4.85895 0
M  V30 9214 N 867.645 1.57599 0.00500368 0
M  V30 9215 C 868.922 1.81561 0.727654 0
M  V30 9216 C 869.302 0.871604 1.92266 0
M  V30 9217 O 868.65 -0.0808232 2.28357 0
M  V30 9218 C 868.86 3.29922 1.13809 0
M  V30 9219 C 870.208 3.95531 1.54403 0
M  V30 9220 O 871.232 3.34215 1.23202 0
M  V30 9221 O 870.091 5.03535 2.12402 0
M  V30 9222 H 867.185 0.747462 0.353878 0
M  V30 9223 H 869.731 1.69688 -0.0200667 0
M  V30 9224 H 868.503 3.90253 0.286078 0
M  V30 9225 H 868.126 3.46775 1.94507 0
M  V30 9226 N 869.123 -0.277682 1.55134 0
M  V30 9227 C 870.071 -1.36305 1.88478 0
M  V30 9228 C 871.065 -1.51362 0.760654 0
M  V30 9229 O 872.271 -1.53202 0.944943 0
M  V30 9230 H 868.646 -0.45577 0.598146 0
M  V30 9231 H 870.617 -1.05431 2.79154 0
M  V30 9232 C 869.366 -2.71739 2.16918 0
M  V30 9233 H 868.689 -2.60942 3.02901 0
M  V30 9234 H 870.129 -3.46635 2.44172 0
M  V30 9235 C 868.588 -3.22476 0.975239 0
M  V30 9236 O 869.118 -4.01164 0.207497 0
M  V30 9237 N 867.324 -2.80097 0.774219 0
M  V30 9238 H 866.871 -2.16221 1.40022 0
M  V30 9239 H 866.829 -3.14392 -0.023021 0
M  V30 9240 N 870.601 -1.47988 -0.541979 0
M  V30 9241 C 871.85 -1.5465 -1.29485 0
M  V30 9242 C 872.163 -0.220041 -1.94358 0
M  V30 9243 O 873.369 -0.164792 -2.70999 0
M  V30 9244 C 871.825 -2.72685 -2.34885 0
M  V30 9245 C 871.433 -4.11923 -1.76134 0
M  V30 9246 C 873.177 -2.88651 -3.11257 0
M  V30 9247 C 871.084 -5.21237 -2.79404 0
M  V30 9248 H 870.014 -0.575688 -0.486928 0
M  V30 9249 H 872.665 -1.74296 -0.573853 0
M  V30 9250 H 871.047 -2.46448 -3.09966 0
M  V30 9251 H 872.221 -4.48128 -1.07322 0
M  V30 9252 H 870.536 -4.00972 -1.12295 0
M  V30 9253 H 873.133 -3.67487 -3.88404 0
M  V30 9254 H 873.476 -1.97658 -3.66384 0
M  V30 9255 H 874.009 -3.14731 -2.43288 0
M  V30 9256 H 870.748 -6.14156 -2.29113 0
M  V30 9257 H 870.268 -4.89533 -3.4658 0
M  V30 9258 H 871.947 -5.48839 -3.42615 0
M  V30 9259 N 872.079 0.78992 -1.36375 0
M  V30 9260 C 873.307 1.57873 -1.3373 0
M  V30 9261 C 873.722 1.88624 0.0815544 0
M  V30 9262 O 873.079 1.50085 1.03831 0
M  V30 9263 C 873.13 2.90003 -2.15825 0
M  V30 9264 O 872.851 2.60578 -3.5218 0
M  V30 9265 C 874.352 3.84309 -2.20955 0
M  V30 9266 H 871.572 0.489685 -0.458748 0
M  V30 9267 H 874.116 0.980436 -1.79465 0
M  V30 9268 H 872.271 3.46303 -1.73646 0
M  V30 9269 H 872.685 3.4506 -3.95011 0
M  V30 9270 H 874.159 4.74081 -2.82756 0
M  V30 9271 H 874.636 4.22121 -1.21287 0
M  V30 9272 H 875.242 3.33942 -2.63368 0
M  V30 9273 N 873.557 1.20646 1.01402 0
M  V30 9274 C 874.782 1.04462 1.79172 0
M  V30 9275 C 875.207 -0.401588 1.83763 0
M  V30 9276 O 874.565 -1.28934 1.27459 0
M  V30 9277 C 874.613 1.63583 3.21361 0
M  V30 9278 O 873.717 0.875198 4.03006 0
M  V30 9279 H 873.058 0.368235 0.552539 0
M  V30 9280 H 875.588 1.59994 1.27526 0
M  V30 9281 H 875.598 1.67426 3.72065 0
M  V30 9282 H 874.273 2.68835 3.17334 0
M  V30 9283 H 872.85 0.911172 3.61597 0
M  V30 9284 N 875.035 -1.20752 1.01276 0
M  V30 9285 C 876.26 -1.94547 0.718769 0
M  V30 9286 C 876.685 -1.7404 -0.713563 0
M  V30 9287 O 876.043 -1.03221 -1.49047 0
M  V30 9288 C 876.091 -3.44823 1.05497 0
M  V30 9289 O 875.195 -4.12072 0.164516 0
M  V30 9290 H 874.536 -0.607931 0.267051 0
M  V30 9291 H 877.066 -1.53292 1.35509 0
M  V30 9292 H 877.076 -3.95427 1.00507 0
M  V30 9293 H 875.751 -3.59072 2.09858 0
M  V30 9294 H 874.328 -3.71909 0.271615 0
M  V30 9295 N 876.513 -0.788492 -1.36457 0
M  V30 9296 C 877.759 -0.360995 -1.99561 0
M  V30 9297 C 878.092 1.06433 -1.62437 0
M  V30 9298 O 877.367 1.7352 -0.878705 0
M  V30 9299 C 877.65 -0.523735 -3.56271 0
M  V30 9300 C 877.503 -1.99268 -4.03252 0
M  V30 9301 C 878.822 0.0617908 -4.40057 0
M  V30 9302 H 875.941 -0.13264 -0.724966 0
M  V30 9303 H 878.583 -0.994659 -1.61884 0
M  V30 9304 H 876.733 0.0156979 -3.88497 0
M  V30 9305 H 878.405 -2.59311 -3.81518 0
M  V30 9306 H 876.648 -2.49561 -3.54826 0
M  V30 9307 H 877.319 -2.05752 -5.12221 0
M  V30 9308 H 879.795 -0.398674 -4.14186 0
M  V30 9309 H 878.671 -0.0821089 -5.48839 0
M  V30 9310 H 878.932 1.15381 -4.26778 0
M  V30 9311 N 877.991 1.48044 -0.54043 0
M  V30 9312 C 878.921 2.32597 0.205178 0
M  V30 9313 C 879.902 1.42748 0.925041 0
M  V30 9314 O 881.087 1.71624 0.908784 0
M  V30 9315 C 878.217 3.24175 1.24612 0
M  V30 9316 C 877.171 4.23131 0.64376 0
M  V30 9317 C 876.497 5.03915 1.78812 0
M  V30 9318 C 877.797 5.20831 -0.39144 0
M  V30 9319 H 879.491 2.95184 -0.500676 0
M  V30 9320 H 877.037 1.41948 -0.242225 0
M  V30 9321 H 878.99 3.82158 1.77576 0
M  V30 9322 H 877.714 2.59608 1.98169 0
M  V30 9323 H 876.373 3.66349 0.135554 0
M  V30 9324 H 876.021 4.35765 2.51232 0
M  V30 9325 H 875.721 5.709 1.39094 0
M  V30 9326 H 877.245 5.64753 2.32134 0
M  V30 9327 H 878.659 5.73277 0.0515064 0
M  V30 9328 H 877.056 5.95926 -0.706569 0
M  V30 9329 H 878.126 4.6733 -1.29345 0
M  V30 9330 N 879.47 0.276058 1.55163 0
M  V30 9331 C 880.717 -0.340455 1.99618 0
M  V30 9332 C 881.045 -1.5579 1.16446 0
M  V30 9333 O 880.3 -1.94433 0.222359 0
M  V30 9334 C 880.599 -0.765744 3.491 0
M  V30 9335 C 880.265 0.347174 4.49561 0
M  V30 9336 C 878.927 0.65276 4.76752 0
M  V30 9337 C 881.279 1.09705 5.09523 0
M  V30 9338 C 878.607 1.71179 5.61173 0
M  V30 9339 C 880.959 2.14581 5.95095 0
M  V30 9340 C 879.623 2.45773 6.20606 0
M  V30 9341 H 878.893 -0.124581 0.730452 0
M  V30 9342 H 881.54 0.389966 1.87487 0
M  V30 9343 H 879.845 -1.57585 3.58712 0
M  V30 9344 H 881.542 -1.25352 3.80904 0
M  V30 9345 H 878.132 0.0988779 4.28486 0
M  V30 9346 H 882.316 0.874223 4.8854 0
M  V30 9347 H 877.572 1.95846 5.79184 0
M  V30 9348 H 881.746 2.7316 6.40591 0
M  V30 9349 H 879.373 3.27969 6.85813 0
M  V30 9350 N 880.948 -1.576 0.00335426 0
M  V30 9351 C 881.896 -2.09759 -1.00517 0
M  V30 9352 C 882.89 -1.01833 -1.35375 0
M  V30 9353 O 884.096 -1.20294 -1.339 0
M  V30 9354 H 880.471 -0.669821 -0.341825 0
M  V30 9355 H 882.442 -2.93478 -0.539718 0
M  V30 9356 C 881.191 -2.6189 -2.28711 0
M  V30 9357 H 880.514 -3.44571 -2.02758 0
M  V30 9358 H 881.954 -3.02061 -2.97548 0
M  V30 9359 C 880.413 -1.53455 -2.99922 0
M  V30 9360 O 880.943 -0.919402 -3.91037 0
M  V30 9361 N 879.149 -1.2612 -2.61806 0
M  V30 9362 H 878.696 -1.76329 -1.87792 0
M  V30 9363 H 878.654 -0.537872 -3.09765 0
M  V30 9364 N 882.426 0.269451 -1.5528 0
M  V30 9365 C 883.842 0.616827 -1.47199 0
M  V30 9366 C 884.042 1.89354 -0.68901 0
M  V30 9367 O 883.098 2.51631 -0.209287 0
M  V30 9368 C 884.411 0.740492 -2.9144 0
M  V30 9369 C 885.959 0.834312 -3.01676 0
M  V30 9370 C 886.434 0.989725 -4.47178 0
M  V30 9371 N 887.925 1.05516 -4.51022 0
M  V30 9372 C 888.66 1.19427 -5.60825 0
M  V30 9373 N 888.156 1.30035 -6.80487 0
M  V30 9374 N 889.949 1.22566 -5.48575 0
M  V30 9375 H 882.1 -0.568962 -2.04638 0
M  V30 9376 H 884.363 -0.193153 -0.928114 0
M  V30 9377 H 884.069 -0.127234 -3.5147 0
M  V30 9378 H 883.943 1.61965 -3.40657 0
M  V30 9379 H 886.33 1.6925 -2.4174 0
M  V30 9380 H 886.411 -0.0695298 -2.55705 0
M  V30 9381 H 886.055 0.136179 -5.07717 0
M  V30 9382 H 885.985 1.90827 -4.90808 0
M  V30 9383 H 888.476 0.985434 -3.64825 0
M  V30 9384 H 888.789 1.40494 -7.59922 0
M  V30 9385 H 887.134 1.27033 -6.83292 0
M  V30 9386 H 890.325 1.13911 -4.54029 0
M  V30 9387 H 890.498 1.33063 -6.34191 0
M  V30 9388 N 883.904 1.48273 0.534124 0
M  V30 9389 C 885.129 1.59988 1.31979 0
M  V30 9390 C 885.554 0.258824 1.86311 0
M  V30 9391 O 884.912 -0.768885 1.64188 0
M  V30 9392 C 884.96 2.64642 2.44943 0
M  V30 9393 O 884.064 2.21515 3.47858 0
M  V30 9394 H 883.405 0.536625 0.391063 0
M  V30 9395 H 885.935 1.94229 0.643135 0
M  V30 9396 H 885.945 2.85786 2.91187 0
M  V30 9397 H 884.62 3.62004 2.04758 0
M  V30 9398 H 883.197 2.10567 3.0776 0
M  V30 9399 N 885.382 -0.782676 1.36792 0
M  V30 9400 C 886.292 -1.92679 1.33835 0
M  V30 9401 C 887.308 -1.72344 0.23952 0
M  V30 9402 O 888.484 -1.95766 0.473045 0
M  V30 9403 C 885.549 -3.27644 1.1336 0
M  V30 9404 C 884.61 -3.6071 2.32781 0
M  V30 9405 C 883.843 -4.89234 2.13273 0
M  V30 9406 O 884.066 -5.59468 1.11136 0
M  V30 9407 O 883 -5.21112 3.01208 0
M  V30 9408 H 886.826 -1.98124 2.30175 0
M  V30 9409 H 884.411 -0.923887 1.17408 0
M  V30 9410 H 886.293 -4.08394 1.03886 0
M  V30 9411 H 884.968 -3.23076 0.200868 0
M  V30 9412 H 883.875 -2.80238 2.47825 0
M  V30 9413 H 885.208 -3.70008 3.24584 0
M  V30 9414 N 886.86 -1.21182 -1.00761 0
M  V30 9415 C 887.807 -0.968741 -2.09485 0
M  V30 9416 C 888.777 0.104325 -1.65772 0
M  V30 9417 O 889.962 -0.0422587 -1.90753 0
M  V30 9418 C 887.102 -0.536686 -3.40901 0
M  V30 9419 C 886.215 -1.6789 -3.98041 0
M  V30 9420 C 885.35 -1.19627 -5.17555 0
M  V30 9421 C 884.389 -2.31099 -5.66798 0
M  V30 9422 N 883.526 -1.83988 -6.77564 0
M  V30 9423 H 888.366 -1.89952 -2.29613 0
M  V30 9424 H 885.903 -0.946688 -1.12589 0
M  V30 9425 H 887.861 -0.26745 -4.16342 0
M  V30 9426 H 886.491 0.357092 -3.20819 0
M  V30 9427 H 885.543 -2.06284 -3.19611 0
M  V30 9428 H 886.855 -2.51794 -4.30582 0
M  V30 9429 H 886.009 -0.883539 -6.00232 0
M  V30 9430 H 884.748 -0.327244 -4.86601 0
M  V30 9431 H 883.753 -2.63178 -4.82719 0
M  V30 9432 H 884.978 -3.18493 -5.99782 0
M  V30 9433 H 882.924 -0.994257 -6.48422 0
M  V30 9434 H 882.841 -2.61466 -7.09346 0
M  V30 9435 H 884.109 -1.55741 -7.63783 0
M  V30 9436 N 888.338 1.20213 -1.01915 0
M  V30 9437 C 889.248 2.26763 -0.601311 0
M  V30 9438 C 890.264 1.70185 0.362369 0
M  V30 9439 O 891.44 2.00165 0.222682 0
M  V30 9440 C 888.505 3.46662 0.0512879 0
M  V30 9441 C 887.566 4.18459 -0.958659 0
M  V30 9442 C 886.799 5.32634 -0.337107 0
M  V30 9443 O 887.022 5.63841 0.86251 0
M  V30 9444 O 885.956 5.9258 -1.05511 0
M  V30 9445 H 889.782 2.64725 -1.48844 0
M  V30 9446 H 887.367 1.2688 -0.788784 0
M  V30 9447 H 889.249 4.19345 0.41564 0
M  V30 9448 H 887.924 3.1057 0.912572 0
M  V30 9449 H 886.831 3.47937 -1.37442 0
M  V30 9450 H 888.164 4.58498 -1.78999 0
M  V30 9451 N 889.816 0.795718 1.36037 0
M  V30 9452 C 891.064 0.370291 1.98679 0
M  V30 9453 C 891.385 -1.06332 1.63458 0
M  V30 9454 O 890.655 -1.73394 0.911671 0
M  V30 9455 H 889.235 0.133928 0.734896 0
M  V30 9456 H 891.897 1.01915 1.6613 0
M  V30 9457 H 890.993 0.467207 3.08583 0
M  V30 9458 N 891.294 -1.47756 0.548274 0
M  V30 9459 C 892.543 -2.01691 0.0187961 0
M  V30 9460 C 892.856 -1.42894 -1.33569 0
M  V30 9461 O 894.062 -1.88438 -1.95457 0
M  V30 9462 C 892.518 -3.59896 -0.016847 0
M  V30 9463 C 892.126 -4.27683 1.33385 0
M  V30 9464 C 893.87 -4.21614 -0.494188 0
M  V30 9465 C 891.777 -5.7787 1.2578 0
M  V30 9466 H 890.707 -0.753993 0.00325648 0
M  V30 9467 H 893.358 -1.69838 0.694792 0
M  V30 9468 H 891.74 -3.88672 -0.758304 0
M  V30 9469 H 892.914 -4.10559 2.09232 0
M  V30 9470 H 891.229 -3.77915 1.7484 0
M  V30 9471 H 893.826 -5.3166 -0.569342 0
M  V30 9472 H 894.169 -3.88176 -1.50417 0
M  V30 9473 H 894.702 -3.97336 0.192138 0
M  V30 9474 H 891.441 -6.15912 2.2435 0
M  V30 9475 H 890.961 -5.97355 0.540997 0
M  V30 9476 H 892.64 -6.39897 0.956109 0
M  V30 9477 N 892.772 -0.284283 -1.55015 0
M  V30 9478 C 894 0.332948 -2.04203 0
M  V30 9479 C 894.415 1.48783 -1.16229 0
M  V30 9480 O 893.772 1.81567 -0.184323 0
M  V30 9481 C 893.823 0.805207 -3.52418 0
M  V30 9482 O 893.544 -0.303689 -4.37046 0
M  V30 9483 C 895.045 1.48931 -4.17534 0
M  V30 9484 H 892.265 0.0747447 -0.666824 0
M  V30 9485 H 894.809 -0.419048 -2.00161 0
M  V30 9486 H 892.964 1.50727 -3.56876 0
M  V30 9487 H 893.378 0.0609703 -5.24465 0
M  V30 9488 H 894.852 1.77108 -5.22816 0
M  V30 9489 H 895.329 2.42389 -3.66257 0
M  V30 9490 H 895.935 0.830867 -4.17105 0
M  V30 9491 N 894.251 1.57596 -0.0117121 0
M  V30 9492 C 895.181 2.12188 0.9746 0
M  V30 9493 C 896.162 1.03379 1.35081 0
M  V30 9494 O 897.347 1.31123 1.4325 0
M  V30 9495 C 894.477 2.63477 2.26268 0
M  V30 9496 C 893.431 3.76917 2.02774 0
M  V30 9497 C 892.757 4.14566 3.37697 0
M  V30 9498 C 894.057 5.03715 1.38089 0
M  V30 9499 H 895.751 2.9485 0.520007 0
M  V30 9500 H 893.297 1.41836 0.248685 0
M  V30 9501 H 895.25 3.00299 2.95633 0
M  V30 9502 H 893.974 1.77953 2.73862 0
M  V30 9503 H 892.633 3.40507 1.35832 0
M  V30 9504 H 892.281 3.26048 3.83016 0
M  V30 9505 H 891.981 4.91 3.22789 0
M  V30 9506 H 893.505 4.53956 4.08358 0
M  V30 9507 H 894.919 5.38233 1.97428 0
M  V30 9508 H 893.316 5.85032 1.33634 0
M  V30 9509 H 894.386 4.83624 0.351575 0
M  V30 9510 N 895.729 -0.261212 1.5542 0
M  V30 9511 C 896.677 -1.34298 1.89913 0
M  V30 9512 C 897.671 -1.50547 0.776665 0
M  V30 9513 O 898.877 -1.52191 0.961139 0
M  V30 9514 H 895.252 -0.4494 0.602946 0
M  V30 9515 H 897.223 -1.02464 2.80256 0
M  V30 9516 C 895.972 -2.69423 2.19788 0
M  V30 9517 H 895.295 -2.57715 3.05652 0
M  V30 9518 H 896.735 -3.44026 2.47835 0
M  V30 9519 C 895.194 -3.21423 1.00939 0
M  V30 9520 O 895.724 -4.00921 0.250034 0
M  V30 9521 N 893.93 -2.7926 0.803883 0
M  V30 9522 H 893.477 -2.14724 1.42308 0
M  V30 9523 H 893.435 -3.14398 0.0103257 0
M  V30 9524 N 897.207 -1.48554 -0.526253 0
M  V30 9525 C 898.432 -1.60686 -1.31129 0
M  V30 9526 C 898.857 -0.268701 -1.86171 0
M  V30 9527 O 898.215 0.760167 -1.64594 0
M  V30 9528 C 898.263 -2.65938 -2.43536 0
M  V30 9529 O 897.367 -2.23356 -3.46678 0
M  V30 9530 H 896.708 -0.538691 -0.388211 0
M  V30 9531 H 899.238 -1.94567 -0.632826 0
M  V30 9532 H 899.248 -2.87327 -2.89668 0
M  V30 9533 H 897.923 -3.63085 -2.02835 0
M  V30 9534 H 896.5 -2.12196 -3.06639 0
M  V30 9535 N 898.685 0.775411 -1.37205 0
M  V30 9536 C 899.91 1.5696 -1.35567 0
M  V30 9537 C 900.335 1.88012 0.0575554 0
M  V30 9538 O 899.693 1.48954 1.03355 0
M  V30 9539 C 899.741 2.85886 -2.19776 0
M  V30 9540 O 898.845 3.80103 -1.59987 0
M  V30 9541 H 898.186 0.475583 -0.463375 0
M  V30 9542 H 900.716 0.96001 -1.80679 0
M  V30 9543 H 900.726 3.35024 -2.32859 0
M  V30 9544 H 899.401 2.62613 -3.22502 0
M  V30 9545 H 897.978 3.38736 -1.55924 0
M  V30 9546 N 900.163 1.21714 1.00117 0
M  V30 9547 C 901.111 0.976937 2.11089 0
M  V30 9548 C 902.105 -0.0771295 1.69224 0
M  V30 9549 O 903.311 0.0745945 1.79845 0
M  V30 9550 H 899.686 0.298687 0.690138 0
M  V30 9551 H 901.657 1.91881 2.28526 0
M  V30 9552 C 900.406 0.562369 3.43122 0
M  V30 9553 H 899.729 1.36509 3.75773 0
M  V30 9554 H 901.169 0.433642 4.21777 0
M  V30 9555 C 899.628 -0.727148 3.28959 0
M  V30 9556 O 900.158 -1.78171 3.60025 0
M  V30 9557 N 898.364 -0.695129 2.82164 0
M  V30 9558 H 897.911 0.163346 2.57082 0
M  V30 9559 H 897.869 -1.55822 2.73069 0
M  V30 9560 N 901.641 -1.19671 1.02551 0
M  V30 9561 C 903.052 -1.70964 0.750208 0
M  V30 9562 C 903.403 -1.82095 -0.730461 0
M  V30 9563 O 902.528 -1.48974 -1.56958 0
M  V30 9564 C 903.123 -3.10516 1.35518 0
M  V30 9565 C 901.682 -3.59083 1.12854 0
M  V30 9566 C 900.829 -2.36041 1.45534 0
M  V30 9567 H 903.78 -1.04559 1.19386 0
M  V30 9568 H 903.801 -3.73028 0.750378 0
M  V30 9569 H 903.313 -3.02383 2.43282 0
M  V30 9570 H 901.414 -3.72536 0.0689627 0
M  V30 9571 H 901.527 -4.43395 1.81488 0
M  V30 9572 H 899.891 -2.39214 0.87458 0
M  V30 9573 H 900.674 -2.3054 2.54374 0
M  V30 9574 N 903.119 -0.802921 -1.35613 0
M  V30 9575 C 904.344 -0.392846 -2.03645 0
M  V30 9576 C 904.769 0.987075 -1.6012 0
M  V30 9577 O 904.127 1.63849 -0.776101 0
M  V30 9578 C 904.175 -0.480208 -3.57388 0
M  V30 9579 O 903.279 0.507751 -4.09262 0
M  V30 9580 H 902.62 -0.16464 -0.643265 0
M  V30 9581 H 905.15 -1.08779 -1.73287 0
M  V30 9582 H 905.16 -0.348683 -4.06507 0
M  V30 9583 H 903.835 -1.48675 -3.88418 0
M  V30 9584 H 902.412 0.336769 -3.71376 0
M  V30 9585 N 904.597 1.47463 -0.556102 0
M  V30 9586 C 905.845 2.02075 -0.0315712 0
M  V30 9587 C 906.166 1.43292 1.32259 0
M  V30 9588 O 905.436 0.60771 1.86236 0
M  V30 9589 H 904.016 0.74695 -0.0086816 0
M  V30 9590 H 906.678 1.80879 -0.725859 0
M  V30 9591 H 905.774 3.12047 0.0573538 0
M  V30 9592 N 906.075 0.2925 1.54862 0
M  V30 9593 C 907.023 -0.603186 2.24643 0
M  V30 9594 C 908.017 -1.1439 1.24946 0
M  V30 9595 O 909.223 -1.09552 1.42823 0
M  V30 9596 H 905.598 -0.213105 0.721173 0
M  V30 9597 H 907.569 0.00799278 2.98399 0
M  V30 9598 C 906.318 -1.76769 2.99413 0
M  V30 9599 H 905.641 -1.36084 3.75927 0
M  V30 9600 H 907.081 -2.37066 3.51533 0
M  V30 9601 C 905.54 -2.66669 2.05886 0
M  V30 9602 O 906.07 -3.67525 1.62136 0
M  V30 9603 N 904.276 -2.34216 1.7202 0
M  V30 9604 H 903.823 -1.52246 2.07795 0
M  V30 9605 H 903.781 -2.94635 1.09717 0
M  V30 9606 N 907.553 -1.57587 0.0200696 0
M  V30 9607 C 908.516 -2.08595 -0.949767 0
M  V30 9608 C 909.516 -0.999215 -1.25985 0
M  V30 9609 O 910.706 -1.26115 -1.2017 0
M  V30 9610 C 907.838 -2.54424 -2.26895 0
M  V30 9611 H 909.031 -2.95563 -0.508161 0
M  V30 9612 H 906.584 -1.54631 -0.227798 0
M  V30 9613 H 907.319 -1.70758 -2.75703 0
M  V30 9614 H 907.104 -3.3381 -2.05702 0
M  V30 9615 H 908.594 -2.94144 -2.96427 0
M  V30 9616 N 909.032 0.252966 -1.55557 0
M  V30 9617 C 910.279 0.981852 -1.77104 0
M  V30 9618 C 910.607 1.85547 -0.583305 0
M  V30 9619 O 909.862 1.90836 0.43359 0
M  V30 9620 C 910.161 1.87785 -3.04091 0
M  V30 9621 C 909.827 1.16009 -4.35721 0
M  V30 9622 C 908.489 0.961697 -4.71492 0
M  V30 9623 C 910.841 0.650884 -5.1712 0
M  V30 9624 C 908.169 0.241704 -5.86202 0
M  V30 9625 C 910.521 -0.0556124 -6.32576 0
M  V30 9626 C 909.185 -0.265536 -6.66972 0
M  V30 9627 H 908.455 0.359285 -0.64807 0
M  V30 9628 H 911.102 0.252443 -1.89829 0
M  V30 9629 H 909.407 2.67412 -2.86353 0
M  V30 9630 H 911.104 2.44339 -3.17961 0
M  V30 9631 H 907.694 1.32465 -4.07616 0
M  V30 9632 H 911.878 0.791719 -4.89944 0
M  V30 9633 H 907.134 0.0685292 -6.11362 0
M  V30 9634 H 911.308 -0.457839 -6.94893 0
M  V30 9635 H 908.935 -0.8254 -7.55706 0
M  V30 9636 N 910.51 1.48831 0.518367 0
M  V30 9637 C 911.44 1.67119 1.63075 0
M  V30 9638 C 912.421 0.519948 1.61958 0
M  V30 9639 O 913.606 0.753824 1.78972 0
M  V30 9640 C 910.736 1.72158 3.01627 0
M  V30 9641 C 909.69 2.86898 3.17606 0
M  V30 9642 C 909.016 2.77035 4.57335 0
M  V30 9643 C 910.316 4.28057 2.99274 0
M  V30 9644 H 912.01 2.60248 1.48025 0
M  V30 9645 H 909.556 1.2524 0.710694 0
M  V30 9646 H 911.509 1.83539 3.7933 0
M  V30 9647 H 910.233 0.756157 3.17726 0
M  V30 9648 H 908.892 2.75091 2.42323 0
M  V30 9649 H 908.54 1.78438 4.70286 0
M  V30 9650 H 908.24 3.54036 4.6897 0
M  V30 9651 H 909.764 2.904 5.37122 0
M  V30 9652 H 911.178 4.40636 3.6676 0
M  V30 9653 H 909.575 5.06145 3.22393 0
M  V30 9654 H 910.645 4.4371 1.95574 0
M  V30 9655 N 911.988 -0.768124 1.37614 0
M  V30 9656 C 912.935 -1.88151 1.33671 0
M  V30 9657 C 913.905 -1.64871 0.201645 0
M  V30 9658 O 915.09 -1.86739 0.391582 0
M  V30 9659 C 912.23 -3.25264 1.15314 0
M  V30 9660 C 911.343 -3.60473 2.38082 0
M  V30 9661 C 910.478 -4.86814 2.12569 0
M  V30 9662 C 909.517 -5.14765 3.31184 0
M  V30 9663 N 908.654 -6.32295 3.052 0
M  V30 9664 H 913.494 -1.90857 2.28862 0
M  V30 9665 H 911.031 -0.933048 1.13722 0
M  V30 9666 H 912.989 -4.04364 1.02691 0
M  V30 9667 H 911.619 -3.21924 0.237689 0
M  V30 9668 H 910.671 -2.7633 2.61431 0
M  V30 9669 H 911.983 -3.77065 3.26532 0
M  V30 9670 H 911.137 -5.73826 1.96999 0
M  V30 9671 H 909.876 -4.72333 1.21462 0
M  V30 9672 H 908.881 -4.26227 3.4729 0
M  V30 9673 H 910.106 -5.31153 4.23147 0
M  V30 9674 H 908.052 -6.19166 2.16726 0
M  V30 9675 H 907.969 -6.4932 3.87195 0
M  V30 9676 H 909.237 -7.22234 2.93254 0
M  V30 9677 N 913.466 -1.22244 -0.994698 0
M  V30 9678 C 914.715 -1.04005 -1.72817 0
M  V30 9679 C 915.028 0.425413 -1.90918 0
M  V30 9680 O 916.234 0.727429 -2.61574 0
M  V30 9681 C 914.69 -1.81244 -3.10932 0
M  V30 9682 C 914.298 -3.32028 -3.00768 0
M  V30 9683 C 916.042 -1.71448 -3.88337 0
M  V30 9684 C 913.949 -4.01716 -4.34026 0
M  V30 9685 H 912.879 -0.385559 -0.647966 0
M  V30 9686 H 915.53 -1.46077 -1.11058 0
M  V30 9687 H 913.912 -1.3197 -3.73363 0
M  V30 9688 H 915.086 -3.88682 -2.47513 0
M  V30 9689 H 913.401 -3.4248 -2.36846 0
M  V30 9690 H 915.998 -2.20836 -4.86965 0
M  V30 9691 H 916.341 -0.674568 -4.10798 0
M  V30 9692 H 916.874 -2.18256 -3.3258 0
M  V30 9693 H 913.613 -5.05952 -4.16765 0
M  V30 9694 H 913.133 -3.49849 -4.87202 0
M  V30 9695 H 914.812 -4.0721 -5.02782 0
M  V30 9696 N 914.944 1.19125 -1.03184 0
M  V30 9697 C 915.892 2.24492 -0.608781 0
M  V30 9698 C 916.886 1.65529 0.360065 0
M  V30 9699 O 918.092 1.78546 0.22832 0
M  V30 9700 H 914.467 0.73048 -0.178616 0
M  V30 9701 H 916.438 2.5749 -1.50803 0
M  V30 9702 C 915.187 3.47693 0.0215126 0
M  V30 9703 H 914.51 3.93354 -0.715024 0
M  V30 9704 H 915.95 4.23072 0.280429 0
M  V30 9705 C 914.409 3.12088 1.26896 0
M  V30 9706 O 914.939 3.25013 2.36071 0
M  V30 9707 N 913.145 2.66494 1.15886 0
M  V30 9708 H 912.692 2.56176 0.270463 0
M  V30 9709 H 912.65 2.43042 1.99444 0
M  V30 9710 N 916.422 0.810101 1.35185 0
M  V30 9711 C 917.833 0.452616 1.81131 0
M  V30 9712 C 918.184 -1.02573 1.67252 0
M  V30 9713 O 917.309 -1.79735 1.20516 0
M  V30 9714 C 917.904 0.814775 3.28857 0
M  V30 9715 C 916.463 0.509839 3.72931 0
M  V30 9716 C 915.61 1.03852 2.57119 0
M  V30 9717 H 918.561 1.00143 1.23114 0
M  V30 9718 H 918.582 0.113635 3.8033 0
M  V30 9719 H 918.094 1.89078 3.38926 0
M  V30 9720 H 916.195 -0.557289 3.68409 0
M  V30 9721 H 916.308 1.04493 4.67566 0
M  V30 9722 H 914.672 0.460671 2.50499 0
M  V30 9723 H 915.455 2.12071 2.69964 0
M  V30 9724 N 917.9 -1.47166 0.563914 0
M  V30 9725 C 919.177 -1.95586 -0.0236172 0
M  V30 9726 C 919.557 -1.50655 -1.47872 0
M  V30 9727 O 918.905 -0.748479 -2.15894 0
M  V30 9728 C 919.115 -3.48762 0.128841 0
M  V30 9729 C 920.463 -4.24598 -0.0130544 0
M  V30 9730 O 921.487 -3.56155 0.0567242 0
M  V30 9731 O 920.346 -5.46253 -0.164332 0
M  V30 9732 H 917.44 -0.824793 -0.0603789 0
M  V30 9733 H 919.986 -1.57536 0.63091 0
M  V30 9734 H 918.758 -3.74291 1.14113 0
M  V30 9735 H 918.381 -3.93594 -0.56299 0
M  V30 9736 N 919.378 -0.300708 -1.54705 0
M  V30 9737 C 920.328 0.590589 -2.20218 0
M  V30 9738 C 921.312 1.09913 -1.17507 0
M  V30 9739 O 922.504 1.03995 -1.43227 0
M  V30 9740 C 919.633 1.76214 -2.94625 0
M  V30 9741 C 918.719 1.26957 -4.04651 0
M  V30 9742 N 919.11 0.494982 -5.03372 0
M  V30 9743 C 917.408 1.55033 -4.18188 0
M  V30 9744 C 918.109 0.232724 -5.81234 0
M  V30 9745 N 917.085 0.812443 -5.37494 0
M  V30 9746 H 920.887 -0.00876354 -2.93899 0
M  V30 9747 H 918.401 -0.105456 -1.62057 0
M  V30 9748 H 920.398 2.41221 -3.40027 0
M  V30 9749 H 919.058 2.36519 -2.22461 0
M  V30 9750 H 920.069 0.13991 -5.17711 0
M  V30 9751 H 916.746 2.16089 -3.57228 0
M  V30 9752 H 918.136 -0.389362 -6.70771 0
M  V30 9753 N 920.856 1.57574 -0.0284266 0
M  V30 9754 C 922.105 1.9095 0.649704 0
M  V30 9755 C 922.418 0.906421 1.7333 0
M  V30 9756 O 923.624 1.1314 2.46803 0
M  V30 9757 C 922.08 3.39061 1.20687 0
M  V30 9758 C 921.688 4.47726 0.156597 0
M  V30 9759 C 923.432 3.81505 1.86156 0
M  V30 9760 C 921.339 5.86935 0.725365 0
M  V30 9761 H 920.269 0.712589 0.24644 0
M  V30 9762 H 922.92 1.83261 -0.0936143 0
M  V30 9763 H 921.302 3.41679 2.00178 0
M  V30 9764 H 922.476 4.56667 -0.6158 0
M  V30 9765 H 920.791 4.14481 -0.399288 0
M  V30 9766 H 923.388 4.82865 2.29665 0
M  V30 9767 H 923.731 3.16529 2.70398 0
M  V30 9768 H 924.264 3.81307 1.13356 0
M  V30 9769 H 921.003 6.55453 -0.0789081 0
M  V30 9770 H 920.523 5.81602 1.46627 0
M  V30 9771 H 922.202 6.35483 1.21532 0
M  V30 9772 N 922.334 -0.244713 1.55689 0
M  V30 9773 C 923.582 -0.970525 1.77272 0
M  V30 9774 C 923.903 -1.85771 0.592804 0
M  V30 9775 O 923.173 -1.91952 -0.391323 0
M  V30 9776 H 921.753 -0.361342 0.653789 0
M  V30 9777 H 924.415 -0.262134 1.93129 0
M  V30 9778 H 923.511 -1.59096 2.68505 0
M  V30 9779 N 923.813 -1.49104 -0.510467 0
M  V30 9780 C 925.06 -1.58112 -1.26518 0
M  V30 9781 C 925.388 -0.263603 -1.92705 0
M  V30 9782 O 924.643 0.747743 -1.80852 0
M  V30 9783 C 924.942 -2.68259 -2.36161 0
M  V30 9784 C 924.608 -4.10069 -1.87495 0
M  V30 9785 C 923.27 -4.48662 -1.73942 0
M  V30 9786 C 925.622 -4.98859 -1.5096 0
M  V30 9787 C 922.95 -5.73829 -1.22217 0
M  V30 9788 C 925.302 -6.24535 -1.00691 0
M  V30 9789 C 923.966 -6.61967 -0.857691 0
M  V30 9790 H 923.236 -0.578574 -0.462962 0
M  V30 9791 H 925.883 -1.82899 -0.567475 0
M  V30 9792 H 924.188 -2.37407 -3.11681 0
M  V30 9793 H 925.885 -2.7244 -2.9424 0
M  V30 9794 H 922.475 -3.79601 -1.99001 0
M  V30 9795 H 926.659 -4.69706 -1.60282 0
M  V30 9796 H 921.915 -6.01539 -1.09368 0
M  V30 9797 H 926.089 -6.9272 -0.71498 0
M  V30 9798 H 923.716 -7.58839 -0.454702 0
M  V30 9799 N 925.291 0.760815 -1.38019 0
M  V30 9800 C 926.521 1.54776 -1.3685 0
M  V30 9801 C 926.929 1.89146 0.0453971 0
M  V30 9802 O 926.272 1.52746 1.0205 0
M  V30 9803 C 926.334 2.87923 -2.15269 0
M  V30 9804 C 925.998 2.76131 -3.64144 0
M  V30 9805 C 926.995 2.46417 -4.57794 0
M  V30 9806 C 924.68 2.9381 -4.07408 0
M  V30 9807 C 926.674 2.34525 -5.92686 0
M  V30 9808 C 924.361 2.81539 -5.42383 0
M  V30 9809 C 925.359 2.51938 -6.34836 0
M  V30 9810 O 925.047 2.39713 -7.67329 0
M  V30 9811 H 924.779 0.485776 -0.470104 0
M  V30 9812 H 927.333 0.949939 -1.82113 0
M  V30 9813 H 925.563 3.49867 -1.64712 0
M  V30 9814 H 927.252 3.49389 -2.06596 0
M  V30 9815 H 928.018 2.32433 -4.25676 0
M  V30 9816 H 923.897 3.15849 -3.35799 0
M  V30 9817 H 927.441 2.11342 -6.64816 0
M  V30 9818 H 923.338 2.95093 -5.741 0
M  V30 9819 H 924.106 2.5498 -7.77771 0
M  V30 9820 N 926.769 1.22769 0.988202 0
M  V30 9821 C 928.185 0.988665 1.2529 0
M  V30 9822 C 928.385 -0.314938 1.99024 0
M  V30 9823 O 927.441 -1.03637 2.30251 0
M  V30 9824 C 928.754 2.19046 2.06009 0
M  V30 9825 C 930.302 2.23452 2.19176 0
M  V30 9826 C 930.777 3.43196 3.03283 0
M  V30 9827 N 932.268 3.43387 3.10869 0
M  V30 9828 C 933.003 4.32693 3.7625 0
M  V30 9829 N 932.499 5.32224 4.43519 0
M  V30 9830 N 934.292 4.20457 3.73058 0
M  V30 9831 H 926.443 2.06575 0.494014 0
M  V30 9832 H 928.706 0.905452 0.28082 0
M  V30 9833 H 928.412 3.13607 1.59197 0
M  V30 9834 H 928.286 2.19492 3.06763 0
M  V30 9835 H 930.673 1.29436 2.65199 0
M  V30 9836 H 930.754 2.27042 1.17836 0
M  V30 9837 H 930.398 4.37515 2.57959 0
M  V30 9838 H 930.328 3.36847 4.04774 0
M  V30 9839 H 932.819 2.71368 2.62998 0
M  V30 9840 H 933.132 5.9664 4.91163 0
M  V30 9841 H 931.477 5.36133 4.42252 0
M  V30 9842 H 934.668 3.41949 3.19669 0
M  V30 9843 H 934.841 4.90261 4.23731 0
M  V30 9844 N 928.247 -1.18576 1.03814 0
M  V30 9845 C 929.493 -1.88773 0.741132 0
M  V30 9846 C 929.826 -1.79993 -0.729127 0
M  V30 9847 O 929.101 -1.19851 -1.53186 0
M  V30 9848 C 929.384 -3.39352 1.20468 0
M  V30 9849 C 929.237 -3.56955 2.73684 0
M  V30 9850 C 930.556 -4.32901 0.792741 0
M  V30 9851 H 927.675 -0.685482 0.270708 0
M  V30 9852 H 930.317 -1.39523 1.2897 0
M  V30 9853 H 928.467 -3.81427 0.737974 0
M  V30 9854 H 930.139 -3.2399 3.28372 0
M  V30 9855 H 928.382 -2.99696 3.13632 0
M  V30 9856 H 929.053 -4.62598 3.01176 0
M  V30 9857 H 931.529 -3.98592 1.1943 0
M  V30 9858 H 930.405 -5.36828 1.14486 0
M  V30 9859 H 930.666 -4.41052 -0.304295 0
M  V30 9860 N 929.725 -0.817259 -1.34754 0
M  V30 9861 C 930.673 -0.223352 -2.31525 0
M  V30 9862 C 931.667 0.632785 -1.57137 0
M  V30 9863 O 932.873 0.524757 -1.72181 0
M  V30 9864 H 929.248 -0.0534765 -0.750096 0
M  V30 9865 H 931.219 -1.05446 -2.79148 0
M  V30 9866 C 929.968 0.604784 -3.424 0
M  V30 9867 H 929.291 -0.0446664 -3.99775 0
M  V30 9868 H 930.731 0.986543 -4.12363 0
M  V30 9869 C 929.19 1.77478 -2.86362 0
M  V30 9870 O 929.72 2.87273 -2.8078 0
M  V30 9871 N 927.926 1.58971 -2.43263 0
M  V30 9872 H 927.473 0.696598 -2.48003 0
M  V30 9873 H 927.431 2.37408 -2.06119 0
M  V30 9874 N 931.203 1.46865 -0.571711 0
M  V30 9875 C 932.433 2.06518 -0.0583129 0
M  V30 9876 C 932.841 1.4227 1.24723 0
M  V30 9877 O 932.184 0.518293 1.76237 0
M  V30 9878 C 932.246 3.5898 0.193214 0
M  V30 9879 C 931.91 4.45355 -1.02507 0
M  V30 9880 C 932.907 4.82575 -1.93435 0
M  V30 9881 C 930.592 4.86656 -1.24382 0
M  V30 9882 C 932.586 5.59912 -3.04595 0
M  V30 9883 C 930.273 5.63754 -2.35849 0
M  V30 9884 C 931.271 6.00294 -3.25785 0
M  V30 9885 O 930.959 6.75836 -4.35318 0
M  V30 9886 H 930.691 0.674188 -0.0494584 0
M  V30 9887 H 933.245 1.89644 -0.788934 0
M  V30 9888 H 931.475 3.7412 0.978319 0
M  V30 9889 H 933.164 4.006 0.653769 0
M  V30 9890 H 933.93 4.51256 -1.77745 0
M  V30 9891 H 929.809 4.57672 -0.55292 0
M  V30 9892 H 933.353 5.88351 -3.74818 0
M  V30 9893 H 929.25 5.94487 -2.51506 0
M  V30 9894 H 930.018 6.94247 -4.33547 0
M  V30 9895 N 932.681 0.308908 1.54543 0
M  V30 9896 C 933.591 -0.572939 2.27496 0
M  V30 9897 C 934.607 -1.14171 1.31305 0
M  V30 9898 O 935.783 -1.16481 1.64299 0
M  V30 9899 C 932.848 -1.72483 3.0075 0
M  V30 9900 C 931.909 -1.18934 4.12496 0
M  V30 9901 C 931.142 -2.28634 4.82247 0
M  V30 9902 O 931.365 -3.48691 4.5141 0
M  V30 9903 O 930.299 -1.94879 5.69478 0
M  V30 9904 H 934.125 0.0190877 3.03694 0
M  V30 9905 H 931.71 0.0750943 1.49211 0
M  V30 9906 H 933.592 -2.39578 3.46671 0
M  V30 9907 H 932.267 -2.30332 2.2744 0
M  V30 9908 H 931.174 -0.483904 3.70957 0
M  V30 9909 H 932.507 -0.656185 4.87806 0
M  V30 9910 N 934.159 -1.57557 0.0367827 0
M  V30 9911 C 935.405 -1.92399 -0.641133 0
M  V30 9912 C 935.738 -0.914191 -1.71336 0
M  V30 9913 O 935.013 0.0619616 -1.94401 0
M  V30 9914 C 935.296 -3.37689 -1.25052 0
M  V30 9915 C 935.149 -4.4941 -0.187326 0
M  V30 9916 C 936.468 -3.8309 -2.16634 0
M  V30 9917 H 933.587 -0.699666 -0.231597 0
M  V30 9918 H 936.229 -1.89759 0.0956083 0
M  V30 9919 H 934.379 -3.40069 -1.87843 0
M  V30 9920 H 936.051 -4.59161 0.443736 0
M  V30 9921 H 934.294 -4.31065 0.486313 0
M  V30 9922 H 934.965 -5.48119 -0.653459 0
M  V30 9923 H 937.441 -3.82494 -1.63821 0
M  V30 9924 H 936.317 -4.85429 -2.56222 0
M  V30 9925 H 936.578 -3.19028 -3.06062 0
M  V30 9926 N 935.637 0.236453 -1.55816 0
M  V30 9927 C 936.6 1.27633 -1.90375 0
M  V30 9928 C 937.6 1.40557 -0.781048 0
M  V30 9929 O 938.79 1.39078 -1.04895 0
M  V30 9930 C 935.922 2.65247 -2.14142 0
M  V30 9931 H 937.115 0.982019 -2.83366 0
M  V30 9932 H 934.668 0.476215 -1.48869 0
M  V30 9933 H 935.403 2.99801 -1.23653 0
M  V30 9934 H 935.188 2.57246 -2.95917 0
M  V30 9935 H 936.678 3.40313 -2.42026 0
M  V30 9936 N 937.115 1.49373 0.502552 0
M  V30 9937 C 938.343 1.62488 1.28084 0
M  V30 9938 C 938.758 0.295667 1.86471 0
M  V30 9939 O 938.115 -0.718664 1.67754 0
M  V30 9940 C 938.166 2.69249 2.4122 0
M  V30 9941 O 937.887 3.97014 1.85234 0
M  V30 9942 C 939.388 2.93054 3.32617 0
M  V30 9943 H 936.608 0.547068 0.388533 0
M  V30 9944 H 939.152 1.95394 0.603452 0
M  V30 9945 H 937.307 2.39125 3.04792 0
M  V30 9946 H 937.721 4.55809 2.59496 0
M  V30 9947 H 939.195 3.71493 4.08285 0
M  V30 9948 H 939.672 2.02911 3.89517 0
M  V30 9949 H 940.278 3.24589 2.74813 0
M  V30 9950 N 938.594 -0.753485 1.38421 0
M  V30 9951 C 939.84 -1.51391 1.35839 0
M  V30 9952 C 940.195 -1.92331 -0.0513518 0
M  V30 9953 O 939.488 -1.62568 -1.01401 0
M  V30 9954 C 939.682 -2.77836 2.24816 0
M  V30 9955 C 939.511 -2.49257 3.74301 0
M  V30 9956 C 938.281 -2.42471 4.43324 0
M  V30 9957 C 940.479 -2.16027 4.6673 0
M  V30 9958 N 938.461 -2.06168 5.78246 0
M  V30 9959 C 939.832 -1.90016 5.90164 0
M  V30 9960 C 941.887 -2.02337 4.54933 0
M  V30 9961 C 940.59 -1.51696 7.03122 0
M  V30 9962 C 942.616 -1.65419 5.67794 0
M  V30 9963 C 941.978 -1.40281 6.9029 0
M  V30 9964 H 938.077 -0.553561 0.552354 0
M  V30 9965 H 940.661 -0.877409 1.73809 0
M  V30 9966 H 938.832 -3.39295 1.89034 0
M  V30 9967 H 940.564 -3.43889 2.13359 0
M  V30 9968 H 937.319 -2.58946 3.9654 0
M  V30 9969 H 937.743 -1.90662 6.49598 0
M  V30 9970 H 942.385 -2.20447 3.60781 0
M  V30 9971 H 940.103 -1.32325 7.97192 0
M  V30 9972 H 943.689 -1.55459 5.60646 0
M  V30 9973 H 942.569 -1.12139 7.76141 0
M  V30 9974 N 940.072 -1.23292 -0.981677 0
M  V30 9975 C 941.349 -0.972514 -1.6971 0
M  V30 9976 C 941.729 0.509244 -2.04866 0
M  V30 9977 O 941.077 1.48013 -1.74082 0
M  V30 9978 C 941.287 -1.88144 -2.93943 0
M  V30 9979 C 942.635 -2.14416 -3.66485 0
M  V30 9980 O 943.659 -1.85684 -3.03974 0
M  V30 9981 O 942.518 -2.63139 -4.78978 0
M  V30 9982 H 939.612 -0.366673 -0.741269 0
M  V30 9983 H 942.158 -1.34328 -1.03701 0
M  V30 9984 H 940.93 -2.8832 -2.64551 0
M  V30 9985 H 940.553 -1.51296 -3.67689 0
M  V30 9986 N 941.55 1.18024 -1.04442 0
M  V30 9987 C 942.775 1.92573 -0.770097 0
M  V30 9988 C 943.2 1.75871 0.667169 0
M  V30 9989 O 942.558 1.07136 1.46258 0
M  V30 9990 C 942.606 3.41904 -1.14602 0
M  V30 9991 O 941.71 4.11491 -0.273712 0
M  V30 9992 H 941.051 0.600636 -0.283076 0
M  V30 9993 H 943.581 1.49645 -1.39526 0
M  V30 9994 H 943.591 3.92623 -1.10956 0
M  V30 9995 H 942.266 3.53382 -2.19304 0
M  V30 9996 H 940.843 3.71059 -0.370124 0
M  V30 9997 N 943.028 0.824394 1.34319 0
M  V30 9998 C 944.277 0.40956 1.97498 0
M  V30 9999 C 944.59 -1.03323 1.66083 0
M  V30 10000 O 945.796 -1.55205 2.22764 0
M  V30 10001 C 944.252 0.681384 3.53391 0
M  V30 10002 C 943.86 2.1379 3.93698 0
M  V30 10003 C 945.604 0.332788 4.23194 0
M  V30 10004 C 943.511 2.35453 5.42509 0
M  V30 10005 H 942.441 0.149409 0.739049 0
M  V30 10006 H 945.092 1.01095 1.5314 0
M  V30 10007 H 943.474 0.00980375 3.95999 0
M  V30 10008 H 944.648 2.84876 3.62191 0
M  V30 10009 H 942.963 2.44807 3.36836 0
M  V30 10010 H 945.56 0.472463 5.32609 0
M  V30 10011 H 945.903 -0.722862 4.09976 0
M  V30 10012 H 946.436 0.959005 3.86067 0
M  V30 10013 H 943.175 3.39529 5.60714 0
M  V30 10014 H 942.695 1.68912 5.75525 0
M  V30 10015 H 944.374 2.17885 6.09209 0
M  V30 10016 N 944.506 -1.46559 0.579492 0
M  V30 10017 C 945.469 -2.28739 -0.145371 0
M  V30 10018 C 946.469 -1.38211 -0.821854 0
M  V30 10019 O 947.659 -1.6062 -0.674302 0
M  V30 10020 C 944.791 -3.18507 -1.21515 0
M  V30 10021 H 945.984 -2.94301 0.576786 0
M  V30 10022 H 943.537 -1.52616 0.337327 0
M  V30 10023 H 944.272 -2.57685 -1.96899 0
M  V30 10024 H 944.057 -3.85157 -0.734616 0
M  V30 10025 H 945.547 -3.80369 -1.72363 0
M  V30 10026 N 945.984 -0.3171 -1.54377 0
M  V30 10027 C 947.212 0.289558 -2.04864 0
M  V30 10028 C 947.627 1.46284 -1.19359 0
M  V30 10029 O 946.984 1.81135 -0.222795 0
M  V30 10030 C 947.035 0.730273 -3.54047 0
M  V30 10031 O 946.756 -0.396325 -4.36304 0
M  V30 10032 C 948.257 1.40041 -4.20599 0
M  V30 10033 H 945.477 0.0605836 -0.668259 0
M  V30 10034 H 948.021 -0.461411 -1.99227 0
M  V30 10035 H 946.176 1.43123 -3.59992 0
M  V30 10036 H 946.59 -0.0502901 -5.24476 0
M  V30 10037 H 948.064 1.65979 -5.26455 0
M  V30 10038 H 948.541 2.34565 -3.71316 0
M  V30 10039 H 949.147 0.742206 -4.18774 0
M  V30 10040 N 947.462 1.57535 -0.0451378 0
M  V30 10041 C 948.425 2.1008 0.916461 0
M  V30 10042 C 949.425 1.01913 1.2438 0
M  V30 10043 O 950.615 1.2801 1.18148 0
M  V30 10044 C 947.747 2.58001 2.22818 0
M  V30 10045 H 948.94 2.96334 0.461076 0
M  V30 10046 H 946.493 1.54974 0.203169 0
M  V30 10047 H 947.228 1.75123 2.72951 0
M  V30 10048 H 947.013 3.3704 2.00366 0
M  V30 10049 H 948.503 2.98822 2.9171 0
M  V30 10050 N 948.94 -0.228186 1.55939 0
M  V30 10051 C 949.87 -1.28607 1.94891 0
M  V30 10052 C 950.851 -1.49236 0.816245 0
M  V30 10053 O 952.036 -1.61531 1.07803 0
M  V30 10054 C 949.166 -2.63719 2.25986 0
M  V30 10055 C 948.12 -2.57757 3.4168 0
M  V30 10056 C 947.446 -3.96837 3.58364 0
M  V30 10057 C 948.746 -2.13116 4.76843 0
M  V30 10058 H 950.44 -0.962531 2.83506 0
M  V30 10059 H 947.986 -0.461577 1.36402 0
M  V30 10060 H 949.939 -3.37878 2.51826 0
M  V30 10061 H 948.663 -2.97747 1.34217 0
M  V30 10062 H 947.322 -1.86055 3.15878 0
M  V30 10063 H 946.97 -4.28162 2.63982 0
M  V30 10064 H 946.67 -3.93731 4.36176 0
M  V30 10065 H 948.194 -4.72668 3.86545 0
M  V30 10066 H 949.608 -2.77015 5.01932 0
M  V30 10067 H 948.005 -2.21083 5.57891 0
M  V30 10068 H 949.075 -1.08326 4.72645 0
M  V30 10069 N 950.418 -1.49637 -0.494624 0
M  V30 10070 C 951.643 -1.63431 -1.27691 0
M  V30 10071 C 952.068 -0.30813 -1.85559 0
M  V30 10072 O 951.426 0.725083 -1.66169 0
M  V30 10073 C 951.474 -2.71043 -2.3784 0
M  V30 10074 O 950.578 -2.3066 -3.41862 0
M  V30 10075 H 949.919 -0.546804 -0.376698 0
M  V30 10076 H 952.449 -1.95866 -0.591413 0
M  V30 10077 H 952.459 -2.93406 -2.83508 0
M  V30 10078 H 951.134 -3.67306 -1.95088 0
M  V30 10079 H 949.711 -2.18652 -3.02069 0
M  V30 10080 N 951.896 0.746133 -1.38819 0
M  V30 10081 C 952.826 1.87344 -1.39372 0
M  V30 10082 C 953.807 1.68123 -0.258583 0
M  V30 10083 O 954.992 1.88606 -0.462769 0
M  V30 10084 C 952.122 3.24962 -1.22543 0
M  V30 10085 C 951.076 3.58799 -2.33339 0
M  V30 10086 C 950.402 4.95235 -2.01609 0
M  V30 10087 C 951.702 3.62911 -3.75624 0
M  V30 10088 H 953.396 1.87138 -2.33709 0
M  V30 10089 H 950.942 0.898937 -1.12495 0
M  V30 10090 H 952.895 4.03488 -1.21554 0
M  V30 10091 H 951.619 3.25667 -0.246707 0
M  V30 10092 H 950.278 2.82596 -2.33527 0
M  V30 10093 H 949.926 4.92508 -1.02202 0
M  V30 10094 H 949.626 5.18843 -2.75819 0
M  V30 10095 H 951.15 5.76131 -2.02251 0
M  V30 10096 H 952.564 4.31535 -3.77426 0
M  V30 10097 H 950.961 3.98031 -4.491 0
M  V30 10098 H 952.031 2.62967 -4.07402 0
M  V30 10099 N 953.375 1.23811 0.975125 0
M  V30 10100 C 954.323 1.02149 2.0897 0
M  V30 10101 C 955.317 -0.0412172 1.6935 0
M  V30 10102 O 956.523 0.112726 1.79647 0
M  V30 10103 H 952.898 0.313259 0.683647 0
M  V30 10104 H 954.869 1.96686 2.24404 0
M  V30 10105 C 953.618 0.635023 3.41852 0
M  V30 10106 H 952.941 1.44449 3.72793 0
M  V30 10107 H 954.381 0.52301 4.20762 0
M  V30 10108 C 952.84 -0.657207 3.30428 0
M  V30 10109 O 953.37 -1.70494 3.63723 0
M  V30 10110 N 951.576 -0.635122 2.83575 0
M  V30 10111 H 951.123 0.21784 2.56677 0
M  V30 10112 H 951.081 -1.49995 2.76313 0
M  V30 10113 N 954.853 -1.17469 1.05066 0
M  V30 10114 C 955.803 -2.19388 0.620713 0
M  V30 10115 C 956.787 -1.5722 -0.34214 0
M  V30 10116 O 957.979 -1.76279 -0.159574 0
M  V30 10117 C 955.108 -3.433 -0.00438518 0
M  V30 10118 C 954.194 -4.12569 0.982218 0
M  V30 10119 N 954.585 -4.57683 2.15313 0
M  V30 10120 C 952.883 -4.38575 0.810416 0
M  V30 10121 C 953.584 -5.11124 2.77719 0
M  V30 10122 N 952.56 -5.0325 2.05525 0
M  V30 10123 H 956.362 -2.51971 1.51287 0
M  V30 10124 H 953.876 -1.33784 0.920625 0
M  V30 10125 H 955.873 -4.15591 -0.330161 0
M  V30 10126 H 954.533 -3.12209 -0.89195 0
M  V30 10127 H 955.544 -4.51812 2.53154 0
M  V30 10128 H 952.221 -4.17492 -0.0262078 0
M  V30 10129 H 953.611 -5.56161 3.77008 0
M  V30 10130 N 956.331 -0.831506 -1.3388 0
M  V30 10131 C 957.278 -0.257449 -2.2936 0
M  V30 10132 C 958.248 0.622604 -1.5399 0
M  V30 10133 O 959.433 0.562432 -1.82322 0
M  V30 10134 C 956.573 0.567587 -3.404 0
M  V30 10135 C 955.686 -0.335666 -4.30694 0
M  V30 10136 C 954.821 0.499762 -5.28844 0
M  V30 10137 C 953.86 -0.402343 -6.10776 0
M  V30 10138 N 952.997 0.39452 -7.00991 0
M  V30 10139 H 957.837 -1.077 -2.77857 0
M  V30 10140 H 955.374 -0.542589 -1.36727 0
M  V30 10141 H 957.332 1.06133 -4.03474 0
M  V30 10142 H 955.962 1.35217 -2.93115 0
M  V30 10143 H 955.014 -0.94768 -3.68406 0
M  V30 10144 H 956.326 -1.02896 -4.88072 0
M  V30 10145 H 955.48 1.05763 -5.9741 0
M  V30 10146 H 954.219 1.22652 -4.72025 0
M  V30 10147 H 953.224 -0.972288 -5.41135 0
M  V30 10148 H 954.449 -1.12735 -6.69677 0
M  V30 10149 H 952.395 1.1048 -6.4663 0
M  V30 10150 H 952.312 -0.240209 -7.55618 0
M  V30 10151 H 953.58 0.934867 -7.73874 0
M  V30 10152 N 957.809 1.4625 -0.587256 0
M  V30 10153 C 959.037 2.06744 -0.08033 0
M  V30 10154 C 959.452 1.43527 1.2266 0
M  V30 10155 O 958.809 0.542168 1.74261 0
M  V30 10156 C 958.86 3.61394 0.0873469 0
M  V30 10157 O 958.581 4.22247 -1.16785 0
M  V30 10158 C 960.082 4.38828 0.628095 0
M  V30 10159 H 957.302 0.668354 -0.0595301 0
M  V30 10160 H 959.846 1.87808 -0.809217 0
M  V30 10161 H 958.001 3.79742 0.766473 0
M  V30 10162 H 958.415 5.15176 -0.984565 0
M  V30 10163 H 959.889 5.47613 0.694583 0
M  V30 10164 H 960.366 4.07188 1.64606 0
M  V30 10165 H 960.972 4.25297 -0.0163115 0
M  V30 10166 N 959.287 0.325282 1.54207 0
M  V30 10167 C 960.534 -0.276775 2.006 0
M  V30 10168 C 960.862 -1.52007 1.21343 0
M  V30 10169 O 960.117 -1.93627 0.284104 0
M  V30 10170 C 960.416 -0.654292 3.5136 0
M  V30 10171 C 960.082 0.490023 4.48229 0
M  V30 10172 C 958.744 0.804104 4.74434 0
M  V30 10173 C 961.096 1.2586 5.05775 0
M  V30 10174 C 958.424 1.88945 5.55443 0
M  V30 10175 C 960.776 2.33405 5.87967 0
M  V30 10176 C 959.44 2.65393 6.12473 0
M  V30 10177 H 958.71 -0.101279 0.734046 0
M  V30 10178 H 961.357 0.449416 1.86152 0
M  V30 10179 H 959.662 -1.46093 3.63544 0
M  V30 10180 H 961.359 -1.13171 3.84699 0
M  V30 10181 H 957.949 0.235147 4.27954 0
M  V30 10182 H 962.133 1.02921 4.85511 0
M  V30 10183 H 957.389 2.14174 5.7266 0
M  V30 10184 H 961.563 2.93402 6.31576 0
M  V30 10185 H 959.19 3.49622 6.75032 0
M  V30 10186 N 960.765 -1.57509 0.0534917 0
M  V30 10187 C 961.99 -1.97511 -0.632794 0
M  V30 10188 C 962.415 -0.930947 -1.63447 0
M  V30 10189 O 961.773 0.105558 -1.80992 0
M  V30 10190 C 961.821 -3.3658 -1.29407 0
M  V30 10191 O 960.925 -3.3467 -2.40977 0
M  V30 10192 H 960.266 -0.643349 -0.16431 0
M  V30 10193 H 962.796 -2.04232 0.12258 0
M  V30 10194 H 962.806 -3.73359 -1.64521 0
M  V30 10195 H 961.481 -4.12113 -0.559976 0
M  V30 10196 H 960.058 -3.09639 -2.07793 0
M  V30 10197 N 962.243 0.219913 -1.56058 0
M  V30 10198 C 963.468 0.965073 -1.83579 0
M  V30 10199 C 963.893 1.77092 -0.634024 0
M  V30 10200 O 963.251 1.76434 0.417205 0
M  V30 10201 C 963.299 1.85705 -3.09105 0
M  V30 10202 O 962.403 2.95261 -2.87914 0
M  V30 10203 H 961.744 0.273173 -0.605204 0
M  V30 10204 H 964.274 0.23273 -2.03272 0
M  V30 10205 H 964.284 2.26655 -3.39252 0
M  V30 10206 H 962.959 1.26476 -3.96203 0
M  V30 10207 H 961.536 2.58246 -2.69005 0
M  V30 10208 N 963.721 1.49897 0.486681 0
M  V30 10209 C 964.684 1.67086 1.56891 0
M  V30 10210 C 965.684 0.54209 1.51387 0
M  V30 10211 O 966.874 0.80883 1.54284 0
M  V30 10212 C 964.006 1.68159 2.96539 0
M  V30 10213 H 965.199 2.63626 1.42974 0
M  V30 10214 H 962.752 1.39143 0.711954 0
M  V30 10215 H 963.487 0.732562 3.15918 0
M  V30 10216 H 963.272 2.50147 3.01942 0
M  V30 10217 H 964.762 1.83466 3.7514 0
M  V30 10218 N 965.199 -0.738761 1.39212 0
M  V30 10219 C 966.476 -1.48982 1.26742 0
M  V30 10220 C 966.856 -2.10732 -0.12466 0
M  V30 10221 O 966.204 -1.98287 -1.13554 0
M  V30 10222 C 966.414 -2.54427 2.38889 0
M  V30 10223 C 967.762 -3.20915 2.78027 0
M  V30 10224 O 968.786 -2.64738 2.38311 0
M  V30 10225 O 967.645 -4.22558 3.46565 0
M  V30 10226 H 964.739 -0.661395 0.496473 0
M  V30 10227 H 967.285 -0.772907 1.51077 0
M  V30 10228 H 966.057 -2.07151 3.3197 0
M  V30 10229 H 965.68 -3.33682 2.162 0
M  V30 10230 N 966.677 -1.24326 -0.968545 0
M  V30 10231 C 968.093 -1.00847 -1.23701 0
M  V30 10232 C 968.293 0.283235 -1.99499 0
M  V30 10233 O 967.349 0.999607 -2.31871 0
M  V30 10234 C 968.662 -2.22295 -2.02498 0
M  V30 10235 C 970.21 -2.26911 -2.15593 0
M  V30 10236 C 970.685 -3.47978 -2.97784 0
M  V30 10237 N 972.176 -3.48289 -3.05367 0
M  V30 10238 C 972.911 -4.38625 -3.69318 0
M  V30 10239 N 972.407 -5.39213 -4.34995 0
M  V30 10240 N 974.2 -4.26339 -3.66322 0
M  V30 10241 H 966.351 -2.07335 -0.461087 0
M  V30 10242 H 968.614 -0.909805 -0.26638 0
M  V30 10243 H 968.32 -3.161 -1.54188 0
M  V30 10244 H 968.194 -2.24344 -3.03232 0
M  V30 10245 H 970.581 -1.33639 -2.63106 0
M  V30 10246 H 970.662 -2.28888 -1.14209 0
M  V30 10247 H 970.306 -4.41564 -2.50965 0
M  V30 10248 H 970.236 -3.43244 -3.99364 0
M  V30 10249 H 972.727 -2.75517 -2.58648 0
M  V30 10250 H 973.04 -6.04378 -4.81608 0
M  V30 10251 H 971.385 -5.43101 -4.33667 0
M  V30 10252 H 974.576 -3.46991 -3.14189 0
M  V30 10253 H 974.749 -4.9694 -4.15878 0
M  V30 10254 N 968.156 1.1691 -1.05688 0
M  V30 10255 C 969.119 2.19297 -0.666433 0
M  V30 10256 C 970.119 1.5826 0.284674 0
M  V30 10257 O 971.309 1.74068 0.0678757 0
M  V30 10258 C 968.441 3.40894 0.0203656 0
M  V30 10259 H 969.634 2.55354 -1.57272 0
M  V30 10260 H 967.187 1.31078 -0.851359 0
M  V30 10261 H 967.922 3.10388 0.939686 0
M  V30 10262 H 967.707 3.86446 -0.663464 0
M  V30 10263 H 969.197 4.16664 0.279475 0
M  V30 10264 N 969.634 0.838594 1.33437 0
M  V30 10265 C 970.859 0.446701 2.02532 0
M  V30 10266 C 971.284 -0.944275 1.62681 0
M  V30 10267 O 970.642 -1.61733 0.81927 0
M  V30 10268 C 970.69 0.574794 3.55989 0
M  V30 10269 O 969.794 -0.399063 4.10465 0
M  V30 10270 H 969.135 0.181637 0.638674 0
M  V30 10271 H 971.665 1.13335 1.70342 0
M  V30 10272 H 971.675 0.456339 4.0544 0
M  V30 10273 H 970.35 1.58921 3.8434 0
M  V30 10274 H 968.927 -0.238187 3.72139 0
M  V30 10275 N 971.112 -1.45937 0.595003 0
M  V30 10276 C 972.042 -2.33198 -0.11871 0
M  V30 10277 C 973.023 -1.46083 -0.871423 0
M  V30 10278 O 974.208 -1.74879 -0.844461 0
M  V30 10279 C 971.338 -3.28576 -1.12495 0
M  V30 10280 C 970.292 -4.25229 -0.486275 0
M  V30 10281 C 969.618 -5.10204 -1.59986 0
M  V30 10282 C 970.918 -5.19019 0.584473 0
M  V30 10283 H 972.612 -2.93122 0.609886 0
M  V30 10284 H 970.158 -1.40951 0.294742 0
M  V30 10285 H 972.111 -3.88485 -1.6327 0
M  V30 10286 H 970.835 -2.66784 -1.88398 0
M  V30 10287 H 969.494 -3.666 0.000507962 0
M  V30 10288 H 969.142 -4.44789 -2.34886 0
M  V30 10289 H 968.842 -5.75669 -1.1781 0
M  V30 10290 H 970.366 -5.7298 -2.11014 0
M  V30 10291 H 971.78 -5.73073 0.161297 0
M  V30 10292 H 970.177 -5.92893 0.927256 0
M  V30 10293 H 971.247 -4.62208 1.46601 0
M  V30 10294 N 972.59 -0.333456 -1.54032 0
M  V30 10295 C 973.839 0.267081 -1.99924 0
M  V30 10296 C 974.152 1.52463 -1.22534 0
M  V30 10297 O 975.358 2.20178 -1.58852 0
M  V30 10298 C 973.814 0.526456 -3.56029 0
M  V30 10299 C 973.422 -0.714607 -4.42264 0
M  V30 10300 C 975.166 1.0864 -4.10363 0
M  V30 10301 C 973.073 -0.42659 -5.89859 0
M  V30 10302 H 972.003 0.103577 -0.746852 0
M  V30 10303 H 974.654 -0.447218 -1.77967 0
M  V30 10304 H 973.036 1.3012 -3.74012 0
M  V30 10305 H 974.21 -1.48968 -4.36056 0
M  V30 10306 H 972.525 -1.19547 -3.9887 0
M  V30 10307 H 975.122 1.31668 -5.18235 0
M  V30 10308 H 975.465 2.03884 -3.62956 0
M  V30 10309 H 975.998 0.37261 -3.96051 0
M  V30 10310 H 972.737 -1.34847 -6.4148 0
M  V30 10311 H 972.257 0.310588 -5.98995 0
M  V30 10312 H 973.936 -0.0400807 -6.46988 0
M  V30 10313 N 974.068 1.57479 -0.061844 0
M  V30 10314 C 975.345 1.84484 0.649993 0
M  V30 10315 C 975.725 0.952366 1.88396 0
M  V30 10316 O 975.073 0.0161035 2.28494 0
M  V30 10317 C 975.283 3.34452 0.997133 0
M  V30 10318 C 976.631 4.01724 1.37488 0
M  V30 10319 O 977.655 3.3914 1.08916 0
M  V30 10320 O 976.514 5.12091 1.90854 0
M  V30 10321 H 973.608 0.761798 0.321858 0
M  V30 10322 H 976.154 1.6945 -0.0920192 0
M  V30 10323 H 974.926 3.91115 0.120301 0
M  V30 10324 H 974.549 3.54713 1.79624 0
M  V30 10325 N 975.546 -0.211634 1.56173 0
M  V30 10326 C 976.823 -0.959467 1.70451 0
M  V30 10327 C 977.203 -2.02036 0.611942 0
M  V30 10328 O 976.551 -2.25325 -0.37959 0
M  V30 10329 C 976.761 -1.56092 3.12148 0
M  V30 10330 C 978.109 -2.04939 3.71867 0
M  V30 10331 O 979.133 -1.65966 3.15172 0
M  V30 10332 O 977.992 -2.766 4.71333 0
M  V30 10333 H 975.086 -0.448844 0.6946 0
M  V30 10334 H 977.632 -0.202633 1.68486 0
M  V30 10335 H 976.404 -0.79538 3.83131 0
M  V30 10336 H 976.027 -2.38303 3.18273 0
M  V30 10337 N 977.024 -1.50153 -0.478725 0
M  V30 10338 C 977.987 -1.67916 -1.56003 0
M  V30 10339 C 978.987 -0.550111 -1.51097 0
M  V30 10340 O 980.177 -0.817001 -1.53853 0
M  V30 10341 C 977.309 -1.6973 -2.95643 0
M  V30 10342 H 978.502 -2.6438 -1.41573 0
M  V30 10343 H 976.055 -1.39519 -0.704565 0
M  V30 10344 H 976.79 -0.749306 -3.15525 0
M  V30 10345 H 976.575 -2.51745 -3.00611 0
M  V30 10346 H 978.065 -1.85453 -3.74162 0
M  V30 10347 N 978.502 0.731368 -1.39602 0
M  V30 10348 C 979.749 1.491 -1.37024 0
M  V30 10349 C 980.077 1.94473 0.0326423 0
M  V30 10350 O 979.332 1.6737 1.01418 0
M  V30 10351 C 979.631 2.74224 -2.29208 0
M  V30 10352 C 979.297 2.477 -3.7677 0
M  V30 10353 C 977.959 2.40175 -4.16976 0
M  V30 10354 C 980.311 2.25098 -4.70086 0
M  V30 10355 C 977.639 2.08095 -5.48556 0
M  V30 10356 C 979.991 1.94534 -6.01946 0
M  V30 10357 C 978.655 1.85481 -6.41212 0
M  V30 10358 H 977.925 0.545595 -0.501405 0
M  V30 10359 H 980.572 0.839127 -1.72136 0
M  V30 10360 H 978.877 3.44171 -1.87225 0
M  V30 10361 H 980.574 3.32264 -2.24504 0
M  V30 10362 H 977.164 2.54436 -3.44906 0
M  V30 10363 H 981.348 2.29876 -4.39853 0
M  V30 10364 H 976.604 1.99611 -5.77897 0
M  V30 10365 H 980.778 1.76054 -6.73779 0
M  V30 10366 H 978.405 1.60389 -7.43088 0
M  V30 10367 N 979.98 1.24838 0.961938 0
M  V30 10368 C 980.943 1.04674 2.03902 0
M  V30 10369 C 981.943 0.00204674 1.608 0
M  V30 10370 O 983.133 0.243555 1.72489 0
M  V30 10371 C 980.265 0.587736 3.35795 0
M  V30 10372 H 981.458 2.00278 2.23223 0
M  V30 10373 H 979.011 1.07142 1.138 0
M  V30 10374 H 979.746 -0.371244 3.22168 0
M  V30 10375 H 979.531 1.34182 3.68426 0
M  V30 10376 H 981.021 0.467867 4.14971 0
M  V30 10377 N 981.458 -1.16348 1.06306 0
M  V30 10378 C 982.388 -2.2291 0.695234 0
M  V30 10379 C 983.369 -1.67208 -0.312343 0
M  V30 10380 O 984.554 -1.93293 -0.187442 0
M  V30 10381 C 981.684 -3.47205 0.0810149 0
M  V30 10382 C 980.638 -4.15801 1.01458 0
M  V30 10383 C 979.964 -5.3405 0.263656 0
M  V30 10384 C 981.264 -4.66766 2.34365 0
M  V30 10385 H 982.958 -2.53934 1.58613 0
M  V30 10386 H 980.504 -1.22056 0.76409 0
M  V30 10387 H 982.457 -4.2098 -0.18818 0
M  V30 10388 H 981.181 -3.15482 -0.844897 0
M  V30 10389 H 979.84 -3.43954 1.26852 0
M  V30 10390 H 979.488 -4.9858 -0.665378 0
M  V30 10391 H 979.188 -5.80885 0.88582 0
M  V30 10392 H 980.712 -6.106 0.00200994 0
M  V30 10393 H 982.126 -5.3212 2.13356 0
M  V30 10394 H 980.523 -5.24223 2.9208 0
M  V30 10395 H 981.593 -3.82969 2.97426 0
M  V30 10396 N 982.937 -0.845659 -1.3299 0
M  V30 10397 C 983.9 -0.288905 -2.27372 0
M  V30 10398 C 984.9 0.546263 -1.51237 0
M  V30 10399 O 986.09 0.359072 -1.70459 0
M  V30 10400 C 983.222 0.59224 -3.35716 0
M  V30 10401 H 984.415 -1.12181 -2.78128 0
M  V30 10402 H 981.968 -0.619276 -1.43508 0
M  V30 10403 H 982.703 1.44732 -2.90212 0
M  V30 10404 H 982.488 -0.00543255 -3.921 0
M  V30 10405 H 983.978 0.974848 -4.06062 0
M  V30 10406 N 984.415 1.45619 -0.602734 0
M  V30 10407 C 985.831 1.57368 -0.26599 0
M  V30 10408 C 986.031 1.59485 1.23154 0
M  V30 10409 O 985.087 1.52254 2.01432 0
M  V30 10410 C 986.4 2.85863 -0.932881 0
M  V30 10411 C 987.948 2.9953 -0.908344 0
M  V30 10412 C 988.423 4.30789 -1.55515 0
M  V30 10413 N 989.914 4.37536 -1.52042 0
M  V30 10414 C 990.649 5.37758 -1.99008 0
M  V30 10415 N 990.145 6.44544 -2.54038 0
M  V30 10416 N 991.938 5.29085 -1.89805 0
M  V30 10417 H 984.089 1.42489 -1.57514 0
M  V30 10418 H 986.352 0.680948 -0.659556 0
M  V30 10419 H 986.058 2.90183 -1.98713 0
M  V30 10420 H 985.932 3.74467 -0.453209 0
M  V30 10421 H 988.319 2.9478 0.137344 0
M  V30 10422 H 988.4 2.12349 -1.42623 0
M  V30 10423 H 988.044 4.36297 -2.60014 0
M  V30 10424 H 987.974 5.16778 -1.01232 0
M  V30 10425 H 990.465 3.60972 -1.11837 0
M  V30 10426 H 990.778 7.17258 -2.87682 0
M  V30 10427 H 989.123 6.45308 -2.58075 0
M  V30 10428 H 992.314 4.44566 -1.46556 0
M  V30 10429 H 992.487 6.07043 -2.26722 0
M  V30 10430 N 985.893 0.34162 1.53853 0
M  V30 10431 C 986.856 -0.503541 2.236 0
M  V30 10432 C 987.856 -1.02912 1.23554 0
M  V30 10433 O 989.046 -0.918678 1.48007 0
M  V30 10434 C 986.178 -1.70126 2.95415 0
M  V30 10435 H 987.371 0.106437 2.99711 0
M  V30 10436 H 984.924 0.0929408 1.56023 0
M  V30 10437 H 985.659 -2.34999 2.23486 0
M  V30 10438 H 985.444 -1.33161 3.68796 0
M  V30 10439 H 986.934 -2.30077 3.48503 0
M  V30 10440 N 987.371 -1.57444 0.0701946 0
M  V30 10441 C 988.303 -2.09611 -0.927142 0
M  V30 10442 C 989.316 -1.02791 -1.26245 0
M  V30 10443 O 990.505 -1.30309 -1.21992 0
M  V30 10444 C 987.605 -2.54015 -2.24342 0
M  V30 10445 C 986.778 -3.84389 -2.08719 0
M  V30 10446 C 985.837 -4.14904 -3.23638 0
M  V30 10447 O 984.863 -4.84528 -2.98699 0
M  V30 10448 N 986.065 -3.68322 -4.48686 0
M  V30 10449 H 988.83 -2.95803 -0.481753 0
M  V30 10450 H 986.391 -1.61487 -0.115572 0
M  V30 10451 H 988.383 -2.71492 -3.00124 0
M  V30 10452 H 986.953 -1.72969 -2.60385 0
M  V30 10453 H 986.173 -3.76308 -1.17415 0
M  V30 10454 H 987.461 -4.69729 -1.9553 0
M  V30 10455 H 986.859 -3.12073 -4.71834 0
M  V30 10456 H 985.416 -3.91002 -5.21499 0
M  V30 10457 N 988.849 0.203349 -1.56283 0
M  V30 10458 C 989.779 1.2549 -1.96912 0
M  V30 10459 C 990.76 1.47919 -0.839884 0
M  V30 10460 O 991.945 1.59795 -1.10359 0
M  V30 10461 C 989.075 2.6009 -2.30153 0
M  V30 10462 C 988.029 2.52289 -3.45738 0
M  V30 10463 C 987.355 3.91086 -3.64632 0
M  V30 10464 C 988.655 2.05503 -4.80173 0
M  V30 10465 H 990.349 0.917306 -2.85002 0
M  V30 10466 H 987.895 0.439818 -1.37119 0
M  V30 10467 H 989.848 3.33829 -2.5717 0
M  V30 10468 H 988.572 2.95574 -1.38937 0
M  V30 10469 H 987.231 1.81006 -3.18798 0
M  V30 10470 H 986.879 4.23908 -2.7076 0
M  V30 10471 H 986.579 3.86742 -4.42385 0
M  V30 10472 H 988.103 4.66459 -3.94016 0
M  V30 10473 H 989.517 2.68995 -5.06275 0
M  V30 10474 H 987.914 2.1218 -5.61337 0
M  V30 10475 H 988.984 1.00793 -4.74309 0
M  V30 10476 N 990.327 1.50405 0.470755 0
M  V30 10477 C 991.257 1.72222 1.57676 0
M  V30 10478 C 992.238 0.57121 1.60222 0
M  V30 10479 O 993.423 0.810381 1.76484 0
M  V30 10480 C 990.553 1.81666 2.95998 0
M  V30 10481 C 989.507 2.96857 3.08318 0
M  V30 10482 C 988.833 2.91445 4.4829 0
M  V30 10483 C 990.133 4.37361 2.85504 0
M  V30 10484 H 991.827 2.64825 1.39671 0
M  V30 10485 H 989.373 1.27438 0.67049 0
M  V30 10486 H 991.326 1.95514 3.73299 0
M  V30 10487 H 990.05 0.856856 3.1516 0
M  V30 10488 H 988.709 2.82661 2.33449 0
M  V30 10489 H 988.357 1.93309 4.64371 0
M  V30 10490 H 988.057 3.68776 4.57469 0
M  V30 10491 H 989.581 3.07341 5.27611 0
M  V30 10492 H 990.995 4.52081 3.52555 0
M  V30 10493 H 989.392 5.16145 3.06127 0
M  V30 10494 H 990.462 4.49708 1.81359 0
M  V30 10495 N 991.805 -0.723954 1.39988 0
M  V30 10496 C 993.082 -1.4763 1.28316 0
M  V30 10497 C 993.462 -2.10852 -0.102302 0
M  V30 10498 O 992.81 -1.9948 -1.11445 0
M  V30 10499 C 993.02 -2.51878 2.41574 0
M  V30 10500 C 994.368 -3.17948 2.81415 0
M  V30 10501 O 995.392 -2.62195 2.41106 0
M  V30 10502 O 994.251 -4.18858 3.51027 0
M  V30 10503 H 991.345 -0.656092 0.50346 0
M  V30 10504 H 993.891 -0.75684 1.51888 0
M  V30 10505 H 992.663 -2.03618 3.34149 0
M  V30 10506 H 992.286 -3.3137 2.19727 0
M  V30 10507 N 993.283 -1.25346 -0.955304 0
M  V30 10508 C 994.513 -1.12629 -1.732 0
M  V30 10509 C 994.921 0.322748 -1.86427 0
M  V30 10510 O 994.264 1.23381 -1.36099 0
M  V30 10511 C 994.326 -1.7064 -3.16421 0
M  V30 10512 C 993.99 -3.19632 -3.26626 0
M  V30 10513 C 994.987 -4.1663 -3.10991 0
M  V30 10514 C 992.672 -3.59829 -3.50468 0
M  V30 10515 C 994.666 -5.51806 -3.19043 0
M  V30 10516 C 992.353 -4.95143 -3.58157 0
M  V30 10517 C 993.351 -5.90941 -3.42459 0
M  V30 10518 O 993.039 -7.23792 -3.49828 0
M  V30 10519 H 992.771 -0.393646 -0.549562 0
M  V30 10520 H 995.325 -1.66184 -1.20715 0
M  V30 10521 H 993.555 -1.11532 -3.70267 0
M  V30 10522 H 995.244 -1.53032 -3.75947 0
M  V30 10523 H 996.01 -3.86915 -2.92441 0
M  V30 10524 H 991.889 -2.8576 -3.61749 0
M  V30 10525 H 995.433 -6.26559 -3.06707 0
M  V30 10526 H 991.33 -5.24525 -3.76224 0
M  V30 10527 H 992.098 -7.31879 -3.66463 0
M  V30 10528 N 994.761 1.15782 -1.06922 0
M  V30 10529 C 995.708 2.2038 -0.685659 0
M  V30 10530 C 996.678 1.62972 0.320816 0
M  V30 10531 O 997.863 1.8966 0.208258 0
M  V30 10532 C 995.003 3.44995 -0.084998 0
M  V30 10533 C 994.116 4.16621 -1.14242 0
M  V30 10534 C 993.251 5.28773 -0.507226 0
M  V30 10535 C 992.29 5.92209 -1.54774 0
M  V30 10536 N 991.427 6.9584 -0.935443 0
M  V30 10537 H 996.267 2.5254 -1.58201 0
M  V30 10538 H 993.804 1.24031 -0.790864 0
M  V30 10539 H 995.762 4.16254 0.280845 0
M  V30 10540 H 994.392 3.13365 0.774725 0
M  V30 10541 H 993.444 3.43903 -1.62589 0
M  V30 10542 H 994.756 4.59884 -1.93154 0
M  V30 10543 H 993.91 6.06635 -0.0887719 0
M  V30 10544 H 992.649 4.8669 0.313704 0
M  V30 10545 H 991.654 5.13063 -1.97602 0
M  V30 10546 H 992.879 6.3637 -2.37088 0
M  V30 10547 H 990.825 6.5586 -0.135339 0
M  V30 10548 H 990.742 7.37508 -1.66186 0
M  V30 10549 H 992.01 7.77611 -0.542346 0
M  V30 10550 N 996.239 0.8527 1.3254 0
M  V30 10551 C 997.485 0.455798 1.97612 0
M  V30 10552 C 997.818 -0.985616 1.6733 0
M  V30 10553 O 997.093 -1.69129 0.960493 0
M  V30 10554 C 997.376 0.69312 3.53366 0
M  V30 10555 C 997.229 2.18281 3.93285 0
M  V30 10556 C 998.548 0.148236 4.3985 0
M  V30 10557 H 995.667 0.167078 0.717812 0
M  V30 10558 H 998.309 1.07076 1.56954 0
M  V30 10559 H 996.459 0.169677 3.88129 0
M  V30 10560 H 998.131 2.77218 3.68711 0
M  V30 10561 H 996.374 2.66206 3.42515 0
M  V30 10562 H 997.045 2.29957 5.01821 0
M  V30 10563 H 999.521 0.595834 4.11812 0
M  V30 10564 H 998.397 0.343873 5.47822 0
M  V30 10565 H 998.658 -0.948872 4.31797 0
M  V30 10566 N 997.718 -1.45297 0.610449 0
M  V30 10567 C 998.681 -2.28995 -0.0968194 0
M  V30 10568 C 999.681 -1.39923 -0.792353 0
M  V30 10569 O 1000.87 -1.62014 -0.64008 0
M  V30 10570 C 998.003 -3.21013 -1.14731 0
M  V30 10571 H 999.196 -2.93012 0.639082 0
M  V30 10572 H 996.749 -1.51867 0.369624 0
M  V30 10573 H 997.484 -2.61803 -1.91388 0
M  V30 10574 H 997.269 -3.86628 -0.652753 0
M  V30 10575 H 998.759 -3.8394 -1.64256 0
M  V30 10576 N 999.196 -0.349774 -1.5367 0
M  V30 10577 C 1000.13 0.496338 -2.28164 0
M  V30 10578 C 1001.11 1.09737 -1.29968 0
M  V30 10579 O 1002.29 1.11759 -1.58819 0
M  V30 10580 C 999.422 1.64428 -3.0591 0
M  V30 10581 C 998.376 1.17127 -4.11661 0
M  V30 10582 C 997.702 2.40822 -4.77398 0
M  V30 10583 C 999.002 0.267293 -5.21616 0
M  V30 10584 H 1000.7 -0.125117 -2.99138 0
M  V30 10585 H 998.242 -0.0616152 -1.43868 0
M  V30 10586 H 1000.19 2.2427 -3.56765 0
M  V30 10587 H 998.919 2.29272 -2.32598 0
M  V30 10588 H 997.578 0.595634 -3.61729 0
M  V30 10589 H 997.226 3.04088 -4.00674 0
M  V30 10590 H 996.926 2.09852 -5.48849 0
M  V30 10591 H 998.45 3.01378 -5.3104 0
M  V30 10592 H 999.864 0.772734 -5.68068 0
M  V30 10593 H 998.261 0.0491991 -6.0008 0
M  V30 10594 H 999.331 -0.694892 -4.79895 0
M  V30 10595 N 1000.67 1.57404 -0.0785433 0
M  V30 10596 C 1001.62 2.14316 0.903949 0
M  V30 10597 C 1002.62 1.08176 1.30362 0
M  V30 10598 O 1003.82 1.26546 1.28008 0
M  V30 10599 H 1000.2 0.685367 0.309477 0
M  V30 10600 H 1002.17 2.95719 0.399081 0
M  V30 10601 C 1000.92 2.72504 2.15956 0
M  V30 10602 H 1000.24 3.53853 1.86087 0
M  V30 10603 H 1001.68 3.15914 2.82798 0
M  V30 10604 C 1000.14 1.6759 2.92259 0
M  V30 10605 O 1000.67 1.10492 3.86205 0
M  V30 10606 N 998.875 1.38467 2.5549 0
M  V30 10607 H 998.422 1.85088 1.79166 0
M  V30 10608 H 998.38 0.685053 3.06846 0
M  V30 10609 N 1002.15 -0.195058 1.56388 0
M  V30 10610 C 1003.08 -1.24444 1.97575 0
M  V30 10611 C 1004.06 -1.47471 0.847717 0
M  V30 10612 O 1005.25 -1.59208 1.11205 0
M  V30 10613 C 1002.38 -2.58866 2.31529 0
M  V30 10614 C 1001.33 -2.50451 3.47071 0
M  V30 10615 C 1000.66 -3.89146 3.667 0
M  V30 10616 C 1001.96 -2.02953 4.81256 0
M  V30 10617 H 1003.65 -0.902178 2.85484 0
M  V30 10618 H 1001.2 -0.43254 1.3735 0
M  V30 10619 H 1003.15 -3.3246 2.58936 0
M  V30 10620 H 1001.87 -2.94833 1.40502 0
M  V30 10621 H 1000.53 -1.79313 3.19754 0
M  V30 10622 H 1000.18 -4.22466 2.73004 0
M  V30 10623 H 999.882 -3.84391 4.44429 0
M  V30 10624 H 1001.41 -4.64363 3.96484 0
M  V30 10625 H 1002.82 -2.66306 5.07695 0
M  V30 10626 H 1001.22 -2.092 5.62455 0
M  V30 10627 H 1002.29 -0.982757 4.74837 0
M  V30 10628 N 1003.63 -1.50653 -0.462772 0
M  V30 10629 C 1004.86 -1.65826 -1.23731 0
M  V30 10630 C 1005.27 -0.345002 -1.85621 0
M  V30 10631 O 1004.63 0.673935 -1.69601 0
M  V30 10632 C 1004.68 -2.7555 -2.33997 0
M  V30 10633 O 1004.4 -4.01785 -1.74643 0
M  V30 10634 C 1005.9 -3.0177 -3.2473 0
M  V30 10635 H 1003.12 -0.557177 -0.373892 0
M  V30 10636 H 1005.67 -1.96925 -0.551434 0
M  V30 10637 H 1003.82 -2.47122 -2.98345 0
M  V30 10638 H 1004.24 -4.62529 -2.4732 0
M  V30 10639 H 1005.71 -3.82188 -3.98292 0
M  V30 10640 H 1006.19 -2.13167 -3.84001 0
M  V30 10641 H 1006.79 -3.31761 -2.66111 0
M  V30 10642 N 1005.11 0.71652 -1.4037 0
M  V30 10643 C 1006.06 1.8306 -1.40562 0
M  V30 10644 C 1007.03 1.64009 -0.262697 0
M  V30 10645 O 1008.21 1.85157 -0.460619 0
M  V30 10646 C 1005.35 3.2076 -1.27307 0
M  V30 10647 C 1004.46 3.51389 -2.51296 0
M  V30 10648 C 1003.6 4.78589 -2.30491 0
M  V30 10649 C 1002.64 5.02119 -3.50061 0
M  V30 10650 N 1001.77 6.20533 -3.28457 0
M  V30 10651 H 1006.61 1.82231 -2.35788 0
M  V30 10652 H 1004.15 0.890198 -1.17106 0
M  V30 10653 H 1006.11 4.00274 -1.17628 0
M  V30 10654 H 1004.74 3.2082 -0.357005 0
M  V30 10655 H 1003.79 2.66436 -2.71507 0
M  V30 10656 H 1005.1 3.64686 -3.40302 0
M  V30 10657 H 1004.26 5.66119 -2.1816 0
M  V30 10658 H 1003 4.67499 -1.38909 0
M  V30 10659 H 1002 4.13044 -3.6287 0
M  V30 10660 H 1003.23 5.15082 -4.42569 0
M  V30 10661 H 1001.17 6.10695 -2.39556 0
M  V30 10662 H 1001.09 6.34502 -4.11027 0
M  V30 10663 H 1002.36 7.10853 -3.19857 0
M  V30 10664 N 1006.59 1.25851 0.948643 0
M  V30 10665 C 1007.82 1.13546 1.726 0
M  V30 10666 C 1008.22 -0.312857 1.86595 0
M  V30 10667 O 1007.57 -1.22657 1.36751 0
M  V30 10668 C 1007.63 1.72315 3.15512 0
M  V30 10669 C 1007.29 3.2136 3.24926 0
M  V30 10670 C 1008.29 4.18274 3.08777 0
M  V30 10671 C 1005.98 3.61683 3.48555 0
M  V30 10672 C 1007.97 5.53491 3.16112 0
M  V30 10673 C 1005.66 4.97035 3.55526 0
M  V30 10674 C 1006.65 5.92749 3.3932 0
M  V30 10675 O 1006.34 7.25637 3.45985 0
M  V30 10676 H 1006.07 0.396555 0.547467 0
M  V30 10677 H 1008.63 1.66822 1.19832 0
M  V30 10678 H 1006.86 1.13494 3.6967 0
M  V30 10679 H 1008.55 1.55024 3.7513 0
M  V30 10680 H 1009.31 3.88461 2.90385 0
M  V30 10681 H 1005.19 2.87674 3.60229 0
M  V30 10682 H 1008.74 6.28177 3.0338 0
M  V30 10683 H 1004.63 5.26512 3.73437 0
M  V30 10684 H 1005.4 7.33812 3.62577 0
M  V30 10685 N 1008.06 -1.15214 1.07534 0
M  V30 10686 C 1008.99 -2.2216 0.718837 0
M  V30 10687 C 1009.98 -1.6753 -0.29459 0
M  V30 10688 O 1011.16 -1.93481 -0.166931 0
M  V30 10689 C 1008.29 -3.471 0.117836 0
M  V30 10690 C 1007.24 -4.14701 1.05862 0
M  V30 10691 C 1006.57 -5.3374 0.320284 0
M  V30 10692 C 1007.87 -4.64254 2.39302 0
M  V30 10693 H 1009.56 -2.52237 1.61297 0
M  V30 10694 H 1007.11 -1.21239 0.776992 0
M  V30 10695 H 1009.06 -4.21156 -0.143519 0
M  V30 10696 H 1007.79 -3.16361 -0.811389 0
M  V30 10697 H 1006.45 -3.42589 1.30493 0
M  V30 10698 H 1006.09 -4.99257 -0.61246 0
M  V30 10699 H 1005.79 -5.79912 0.947381 0
M  V30 10700 H 1007.32 -6.10563 0.0667721 0
M  V30 10701 H 1008.73 -5.29827 2.18988 0
M  V30 10702 H 1007.13 -5.21095 2.97623 0
M  V30 10703 H 1008.2 -3.79793 3.01472 0
M  V30 10704 N 1009.54 -0.859717 -1.32086 0
M  V30 10705 C 1010.49 -0.306042 -2.28762 0
M  V30 10706 C 1011.46 0.589801 -1.55276 0
M  V30 10707 O 1012.64 0.523633 -1.83474 0
M  V30 10708 C 1009.78 0.495256 -3.41528 0
M  V30 10709 C 1008.9 -0.426947 -4.29885 0
M  V30 10710 C 1008.03 0.387474 -5.29785 0
M  V30 10711 C 1007.07 -0.531807 -6.09785 0
M  V30 10712 N 1006.21 0.245741 -7.0167 0
M  V30 10713 H 1011.05 -1.1357 -2.7551 0
M  V30 10714 H 1008.59 -0.571468 -1.35546 0
M  V30 10715 H 1010.54 0.97551 -4.05635 0
M  V30 10716 H 1009.17 1.28969 -2.95917 0
M  V30 10717 H 1008.23 -1.02561 -3.66313 0
M  V30 10718 H 1009.54 -1.13226 -4.85779 0
M  V30 10719 H 1008.69 0.930677 -5.99519 0
M  V30 10720 H 1007.43 1.12612 -4.74521 0
M  V30 10721 H 1006.44 -1.08685 -5.3895 0
M  V30 10722 H 1007.66 -1.26915 -6.67135 0
M  V30 10723 H 1005.61 0.967391 -6.48828 0
M  V30 10724 H 1005.52 -0.400432 -7.54939 0
M  V30 10725 H 1006.79 0.770507 -7.75683 0
M  V30 10726 N 1011.02 1.44971 -0.618145 0
M  V30 10727 C 1012.44 1.57077 -0.282666 0
M  V30 10728 C 1012.64 1.60782 1.21456 0
M  V30 10729 O 1011.69 1.54382 1.99806 0
M  V30 10730 C 1013.01 2.84858 -0.963148 0
M  V30 10731 C 1014.55 2.9855 -0.940062 0
M  V30 10732 C 1015.03 4.29115 -1.60076 0
M  V30 10733 N 1016.52 4.35899 -1.56674 0
M  V30 10734 C 1017.25 5.35617 -2.04701 0
M  V30 10735 N 1016.75 6.41813 -2.6086 0
M  V30 10736 N 1018.54 5.27042 -1.95406 0
M  V30 10737 H 1010.69 1.4081 -1.59017 0
M  V30 10738 H 1012.96 0.673914 -0.666741 0
M  V30 10739 H 1012.66 2.88059 -2.0178 0
M  V30 10740 H 1012.54 3.73966 -0.492901 0
M  V30 10741 H 1014.92 2.94909 0.10607 0
M  V30 10742 H 1015.01 2.10825 -1.44868 0
M  V30 10743 H 1014.65 4.33514 -2.64627 0
M  V30 10744 H 1014.58 5.15675 -1.06708 0
M  V30 10745 H 1017.07 3.59766 -1.15659 0
M  V30 10746 H 1017.38 7.14166 -2.95273 0
M  V30 10747 H 1015.73 6.42534 -2.64905 0
M  V30 10748 H 1018.92 4.42987 -1.51263 0
M  V30 10749 H 1019.09 6.04604 -2.33147 0
M  V30 10750 N 1012.5 0.357919 1.53482 0
M  V30 10751 C 1013.41 -0.500273 2.29204 0
M  V30 10752 C 1014.42 -1.09936 1.3487 0
M  V30 10753 O 1015.6 -1.11195 1.67921 0
M  V30 10754 C 1012.67 -1.62828 3.06085 0
M  V30 10755 C 1011.73 -1.05751 4.16071 0
M  V30 10756 C 1010.96 -2.13176 4.89277 0
M  V30 10757 O 1011.18 -3.34153 4.62274 0
M  V30 10758 O 1010.12 -1.76663 5.7539 0
M  V30 10759 H 1013.94 0.115696 3.0348 0
M  V30 10760 H 1011.53 0.122527 1.48897 0
M  V30 10761 H 1013.41 -2.28427 3.54117 0
M  V30 10762 H 1012.08 -2.22979 2.34653 0
M  V30 10763 H 1010.99 -0.365642 3.72309 0
M  V30 10764 H 1012.32 -0.500661 4.89647 0
M  V30 10765 N 1013.98 -1.5736 0.0868897 0
M  V30 10766 C 1014.89 -2.17087 -0.889402 0
M  V30 10767 C 1015.9 -1.13809 -1.31619 0
M  V30 10768 O 1017.08 -1.46143 -1.38579 0
M  V30 10769 C 1014.14 -2.73286 -2.13344 0
M  V30 10770 C 1013.2 -3.91491 -1.76164 0
M  V30 10771 C 1012.44 -4.45 -2.94637 0
M  V30 10772 O 1012.66 -3.97467 -4.09116 0
M  V30 10773 O 1011.59 -5.36133 -2.73579 0
M  V30 10774 H 1015.42 -3.00902 -0.411275 0
M  V30 10775 H 1013.01 -1.4877 -0.137015 0
M  V30 10776 H 1014.89 -3.0924 -2.86266 0
M  V30 10777 H 1013.56 -1.92521 -2.60225 0
M  V30 10778 H 1012.47 -3.60363 -1.00447 0
M  V30 10779 H 1013.8 -4.73593 -1.34053 0
M  V30 10780 N 1015.45 0.186762 -1.56489 0
M  V30 10781 C 1016.4 1.25084 -1.96104 0
M  V30 10782 C 1017.4 1.4667 -0.847609 0
M  V30 10783 O 1018.6 1.47432 -1.03266 0
M  V30 10784 H 1014.98 0.420121 -0.623701 0
M  V30 10785 H 1016.95 0.889761 -2.84826 0
M  V30 10786 C 1015.7 2.5863 -2.32392 0
M  V30 10787 H 1015.02 2.42838 -3.176 0
M  V30 10788 H 1016.46 3.3181 -2.63967 0
M  V30 10789 C 1014.92 3.16241 -1.16159 0
M  V30 10790 O 1015.45 3.99272 -0.441034 0
M  V30 10791 N 1013.66 2.75106 -0.936206 0
M  V30 10792 H 1013.2 2.0769 -1.5239 0
M  V30 10793 H 1013.16 3.13991 -0.160317 0
M  V30 10794 N 1016.93 1.50896 0.454776 0
M  V30 10795 C 1018.18 1.62699 1.20562 0
M  V30 10796 C 1018.51 0.334943 1.91594 0
M  V30 10797 O 1017.76 -0.680106 1.83502 0
M  V30 10798 C 1018.06 2.76839 2.26042 0
M  V30 10799 C 1017.73 4.16745 1.72147 0
M  V30 10800 C 1016.39 4.54809 1.5717 0
M  V30 10801 C 1018.74 5.04118 1.32341 0
M  V30 10802 C 1016.07 5.7797 1.00835 0
M  V30 10803 C 1018.42 6.27842 0.774419 0
M  V30 10804 C 1017.09 6.64694 0.611415 0
M  V30 10805 H 1016.36 0.595358 0.441169 0
M  V30 10806 H 1019 1.84879 0.499202 0
M  V30 10807 H 1017.31 2.48812 3.02655 0
M  V30 10808 H 1019 2.83173 2.83926 0
M  V30 10809 H 1015.59 3.86725 1.84775 0
M  V30 10810 H 1019.78 4.75331 1.42739 0
M  V30 10811 H 1015.03 6.05183 0.869669 0
M  V30 10812 H 1019.21 6.94896 0.457389 0
M  V30 10813 H 1016.84 7.60004 0.172751 0
M  V30 10814 N 1018.41 -0.709066 1.40748 0
M  V30 10815 C 1019.34 -1.83583 1.4429 0
M  V30 10816 C 1020.32 -1.67378 0.303067 0
M  V30 10817 O 1021.51 -1.87312 0.512612 0
M  V30 10818 C 1018.64 -3.21599 1.31116 0
M  V30 10819 C 1017.59 -3.52486 2.4277 0
M  V30 10820 C 1016.92 -4.89716 2.14668 0
M  V30 10821 C 1018.22 -3.52824 3.85113 0
M  V30 10822 H 1019.91 -1.80876 2.38588 0
M  V30 10823 H 1017.46 -0.868795 1.14839 0
M  V30 10824 H 1019.41 -4.00123 1.32209 0
M  V30 10825 H 1018.13 -3.24898 0.332965 0
M  V30 10826 H 1016.79 -2.76305 2.40937 0
M  V30 10827 H 1016.44 -4.89625 1.15224 0
M  V30 10828 H 1016.14 -5.11347 2.89478 0
M  V30 10829 H 1017.66 -5.70566 2.17455 0
M  V30 10830 H 1019.08 -4.21377 3.88734 0
M  V30 10831 H 1017.48 -3.85984 4.59496 0
M  V30 10832 H 1018.55 -2.52073 4.14231 0
M  V30 10833 N 1019.89 -1.26353 -0.941956 0
M  V30 10834 C 1021.3 -1.10774 -1.50287 0
M  V30 10835 C 1021.65 0.312229 -1.937 0
M  V30 10836 O 1020.78 1.20364 -1.79838 0
M  V30 10837 C 1021.37 -2.00473 -2.73123 0
M  V30 10838 C 1019.93 -1.89042 -3.25485 0
M  V30 10839 C 1019.08 -1.93869 -1.98267 0
M  V30 10840 H 1022.03 -1.39454 -0.757523 0
M  V30 10841 H 1022.05 -1.55216 -3.47402 0
M  V30 10842 H 1021.56 -3.03812 -2.41495 0
M  V30 10843 H 1019.66 -0.886341 -3.61904 0
M  V30 10844 H 1019.78 -2.74533 -3.92643 0
M  V30 10845 H 1018.14 -1.37912 -2.14132 0
M  V30 10846 H 1018.92 -2.98837 -1.68972 0
M  V30 10847 N 1021.37 1.14642 -1.08144 0
M  V30 10848 C 1022.61 1.86115 -0.820533 0
M  V30 10849 C 1022.97 1.81208 0.646635 0
M  V30 10850 O 1022.26 1.22997 1.46909 0
M  V30 10851 C 1022.46 3.33953 -1.2732 0
M  V30 10852 C 1022.28 3.53254 -2.78283 0
M  V30 10853 C 1021.05 3.68259 -3.45996 0
M  V30 10854 C 1023.25 3.504 -3.76463 0
M  V30 10855 N 1021.23 3.75692 -4.85519 0
M  V30 10856 C 1022.61 3.64045 -5.01868 0
M  V30 10857 C 1024.66 3.33722 -3.69505 0
M  V30 10858 C 1023.36 3.62734 -6.21141 0
M  V30 10859 C 1025.39 3.33713 -4.88251 0
M  V30 10860 C 1024.75 3.47896 -6.12493 0
M  V30 10861 H 1020.85 0.697829 -0.352929 0
M  V30 10862 H 1023.43 1.3742 -1.37927 0
M  V30 10863 H 1021.61 3.81245 -0.742066 0
M  V30 10864 H 1023.34 3.93174 -0.958991 0
M  V30 10865 H 1020.09 3.69376 -2.96409 0
M  V30 10866 H 1020.52 3.83133 -5.58156 0
M  V30 10867 H 1025.16 3.2167 -2.74387 0
M  V30 10868 H 1022.88 3.73563 -7.16573 0
M  V30 10869 H 1026.46 3.22025 -4.84553 0
M  V30 10870 H 1025.34 3.47833 -7.02838 0
M  V30 10871 N 1022.85 0.866709 1.31628 0
M  V30 10872 C 1023.78 0.277328 2.27516 0
M  V30 10873 C 1024.79 -0.557786 1.52946 0
M  V30 10874 O 1025.98 -0.38031 1.74402 0
M  V30 10875 C 1023.08 -0.625742 3.33073 0
M  V30 10876 C 1022.25 0.176204 4.37045 0
M  V30 10877 C 1021.31 -0.654497 5.22114 0
M  V30 10878 O 1020.34 -0.0836961 5.69138 0
M  V30 10879 N 1021.54 -1.96708 5.46156 0
M  V30 10880 H 1024.3 1.10133 2.78731 0
M  V30 10881 H 1021.87 0.72787 1.44616 0
M  V30 10882 H 1023.86 -1.18709 3.86898 0
M  V30 10883 H 1022.43 -1.35042 2.81926 0
M  V30 10884 H 1021.65 0.918999 3.83338 0
M  V30 10885 H 1022.94 0.726594 5.03585 0
M  V30 10886 H 1022.33 -2.454 5.09701 0
M  V30 10887 H 1020.89 -2.47629 6.02929 0
M  V30 10888 N 1024.32 -1.44642 0.625825 0
M  V30 10889 C 1025.74 -1.56925 0.290992 0
M  V30 10890 C 1025.94 -1.61424 -1.20601 0
M  V30 10891 O 1025 -1.55439 -1.98985 0
M  V30 10892 C 1026.31 -2.84343 0.978242 0
M  V30 10893 C 1027.86 -2.98047 0.955882 0
M  V30 10894 C 1028.33 -4.2826 1.62349 0
M  V30 10895 N 1029.82 -4.35062 1.58983 0
M  V30 10896 C 1030.56 -5.34524 2.07538 0
M  V30 10897 N 1030.05 -6.4042 2.6426 0
M  V30 10898 N 1031.85 -5.25998 1.98198 0
M  V30 10899 H 1024 -1.39965 1.59761 0
M  V30 10900 H 1026.26 -0.670368 0.670306 0
M  V30 10901 H 1025.97 -2.86985 2.03304 0
M  V30 10902 H 1025.84 -3.73699 0.512726 0
M  V30 10903 H 1028.23 -2.94961 -0.0904292 0
M  V30 10904 H 1028.31 -2.10053 1.45984 0
M  V30 10905 H 1027.95 -4.32105 2.66923 0
M  V30 10906 H 1027.88 -5.15102 1.09441 0
M  V30 10907 H 1030.37 -3.59147 1.17565 0
M  V30 10908 H 1030.69 -7.1259 2.99056 0
M  V30 10909 H 1029.03 -6.41121 2.68308 0
M  V30 10910 H 1032.22 -4.42178 1.5361 0
M  V30 10911 H 1032.4 -6.03359 2.3635 0
M  V30 10912 N 1025.8 -0.366053 -1.5329 0
M  V30 10913 C 1027.05 0.223824 -2.01561 0
M  V30 10914 C 1027.38 1.48382 -1.25286 0
M  V30 10915 O 1026.66 1.91385 -0.34669 0
M  V30 10916 C 1026.94 0.5153 -3.56394 0
M  V30 10917 C 1026.79 -0.758357 -4.43361 0
M  V30 10918 C 1028.11 1.31568 -4.19974 0
M  V30 10919 H 1025.23 0.0798751 -0.732659 0
M  V30 10920 H 1027.87 -0.491038 -1.83545 0
M  V30 10921 H 1026.02 1.12429 -3.71876 0
M  V30 10922 H 1027.69 -1.39584 -4.39675 0
M  V30 10923 H 1025.94 -1.37862 -4.11311 0
M  V30 10924 H 1026.61 -0.509366 -5.49645 0
M  V30 10925 H 1029.08 0.800514 -4.08327 0
M  V30 10926 H 1027.96 1.48837 -5.28336 0
M  V30 10927 H 1028.22 2.32432 -3.76069 0
M  V30 10928 N 1027.28 1.57312 -0.0952337 0
M  V30 10929 C 1028.53 1.93533 0.568131 0
M  V30 10930 C 1028.84 0.979121 1.6933 0
M  V30 10931 O 1030.05 1.23506 2.41782 0
M  V30 10932 C 1028.5 3.43875 1.06198 0
M  V30 10933 C 1028.11 4.47988 -0.0334397 0
M  V30 10934 C 1029.86 3.89057 1.69807 0
M  V30 10935 C 1027.76 5.89483 0.475774 0
M  V30 10936 H 1026.69 0.7224 0.215995 0
M  V30 10937 H 1029.34 1.82699 -0.171257 0
M  V30 10938 H 1027.73 3.49862 1.85506 0
M  V30 10939 H 1028.9 4.53644 -0.808934 0
M  V30 10940 H 1027.21 4.12415 -0.574725 0
M  V30 10941 H 1029.81 4.92171 2.08978 0
M  V30 10942 H 1030.15 3.27713 2.5673 0
M  V30 10943 H 1030.69 3.85772 0.970815 0
M  V30 10944 H 1027.43 6.54528 -0.356837 0
M  V30 10945 H 1026.95 5.87297 1.21827 0
M  V30 10946 H 1028.63 6.40066 0.944697 0
M  V30 10947 N 1028.76 -0.17846 1.56586 0
M  V30 10948 C 1029.98 -0.916061 1.86073 0
M  V30 10949 C 1030.41 -1.75349 0.680754 0
M  V30 10950 O 1029.77 -1.77479 -0.37028 0
M  V30 10951 C 1029.81 -1.77445 3.1392 0
M  V30 10952 O 1028.92 -2.87524 2.95641 0
M  V30 10953 H 1028.26 -0.257031 0.612234 0
M  V30 10954 H 1030.79 -0.178755 2.03818 0
M  V30 10955 H 1030.8 -2.1758 3.45142 0
M  V30 10956 H 1029.47 -1.15927 3.99417 0
M  V30 10957 H 1028.05 -2.51023 2.75757 0
M  V30 10958 N 1030.24 -1.51135 -0.446768 0
M  V30 10959 C 1031.2 -1.71187 -1.52406 0
M  V30 10960 C 1032.2 -0.582037 -1.49897 0
M  V30 10961 O 1033.39 -0.849452 -1.52085 0
M  V30 10962 C 1030.52 -1.75962 -2.91976 0
M  V30 10963 H 1031.71 -2.67324 -1.35934 0
M  V30 10964 H 1029.27 -1.40982 -0.674813 0
M  V30 10965 H 1030 -0.816065 -3.13864 0
M  V30 10966 H 1029.79 -2.58065 -2.95203 0
M  V30 10967 H 1031.28 -1.93347 -3.70144 0
M  V30 10968 N 1031.71 0.701592 -1.41122 0
M  V30 10969 C 1032.96 1.46376 -1.40363 0
M  V30 10970 C 1033.29 1.94197 -0.0105442 0
M  V30 10971 O 1032.57 1.69121 0.960637 0
M  V30 10972 C 1032.85 2.67994 -2.40523 0
M  V30 10973 C 1032.7 2.25977 -3.88914 0
M  V30 10974 C 1034.02 3.70181 -2.38022 0
M  V30 10975 H 1031.14 0.530929 -0.511159 0
M  V30 10976 H 1033.78 0.799588 -1.72356 0
M  V30 10977 H 1031.93 3.24661 -2.13372 0
M  V30 10978 H 1033.61 1.74684 -4.26946 0
M  V30 10979 H 1031.85 1.57826 -4.04071 0
M  V30 10980 H 1032.52 3.13215 -4.54533 0
M  V30 10981 H 1035 3.23174 -2.62103 0
M  V30 10982 H 1033.87 4.52894 -3.10127 0
M  V30 10983 H 1034.13 4.19458 -1.3967 0
M  V30 10984 N 1033.19 1.2685 0.935242 0
M  V30 10985 C 1034.42 1.15538 1.71635 0
M  V30 10986 C 1034.83 -0.288698 1.8658 0
M  V30 10987 O 1034.19 -1.19721 1.37743 0
M  V30 10988 C 1034.24 1.8259 3.11999 0
M  V30 10989 O 1033.96 3.21355 2.97763 0
M  V30 10990 C 1035.46 1.77307 4.06297 0
M  V30 10991 H 1032.68 0.402055 0.537208 0
M  V30 10992 H 1035.23 1.67582 1.17203 0
M  V30 10993 H 1033.38 1.3447 3.63313 0
M  V30 10994 H 1033.8 3.54626 3.86446 0
M  V30 10995 H 1035.27 2.28851 5.02326 0
M  V30 10996 H 1035.75 0.740823 4.32907 0
M  V30 10997 H 1036.35 2.25007 3.60904 0
M  V30 10998 N 1034.67 -1.14067 1.0875 0
M  V30 10999 C 1035.9 -1.88767 0.839682 0
M  V30 11000 C 1036.31 -1.79024 -0.612119 0
M  V30 11001 O 1035.65 -1.14986 -1.43262 0
M  V30 11002 C 1035.71 -3.39333 1.18716 0
M  V30 11003 C 1035.38 -3.72858 2.64245 0
M  V30 11004 C 1036.37 -3.72683 3.62496 0
M  V30 11005 C 1034.06 -4.0273 3.0019 0
M  V30 11006 C 1036.05 -4.01909 4.9472 0
M  V30 11007 C 1033.74 -4.31618 4.32607 0
M  V30 11008 C 1034.74 -4.31192 5.29682 0
M  V30 11009 O 1034.43 -4.59377 6.59718 0
M  V30 11010 H 1034.16 -0.604665 0.302253 0
M  V30 11011 H 1036.71 -1.45364 1.45115 0
M  V30 11012 H 1034.94 -3.83205 0.518707 0
M  V30 11013 H 1036.63 -3.95346 0.919599 0
M  V30 11014 H 1037.4 -3.49688 3.3607 0
M  V30 11015 H 1033.28 -4.02213 2.25268 0
M  V30 11016 H 1036.82 -4.01491 5.70483 0
M  V30 11017 H 1032.72 -4.54083 4.58779 0
M  V30 11018 H 1033.49 -4.77078 6.65086 0
M  V30 11019 N 1036.15 -0.873678 -1.31166 0
M  V30 11020 C 1037.4 -0.482577 -1.95842 0
M  V30 11021 C 1037.71 0.970881 -1.69804 0
M  V30 11022 O 1038.92 1.4683 -2.28371 0
M  V30 11023 C 1037.37 -0.812074 -3.50619 0
M  V30 11024 C 1036.98 -2.28254 -3.85492 0
M  V30 11025 C 1038.72 -0.489624 -4.21667 0
M  V30 11026 C 1036.63 -2.55426 -5.33396 0
M  V30 11027 H 1035.56 -0.176736 -0.732994 0
M  V30 11028 H 1038.21 -1.06709 -1.49283 0
M  V30 11029 H 1036.59 -0.156769 -3.9569 0
M  V30 11030 H 1037.77 -2.98122 -3.51369 0
M  V30 11031 H 1036.08 -2.5714 -3.27518 0
M  V30 11032 H 1038.68 -0.669811 -5.30488 0
M  V30 11033 H 1039.02 0.570204 -4.12376 0
M  V30 11034 H 1039.56 -1.10163 -3.82242 0
M  V30 11035 H 1036.3 -3.60106 -5.47726 0
M  V30 11036 H 1035.82 -1.90156 -5.68859 0
M  V30 11037 H 1037.49 -2.40345 -6.00702 0
M  V30 11038 N 1037.63 1.44308 -0.633487 0
M  V30 11039 C 1038.88 2.01239 -0.136356 0
M  V30 11040 C 1039.19 1.50438 1.25011 0
M  V30 11041 O 1040.39 1.99513 1.84138 0
M  V30 11042 C 1038.85 3.59382 -0.193011 0
M  V30 11043 C 1038.46 4.19178 -1.58093 0
M  V30 11044 C 1040.2 4.23778 0.247534 0
M  V30 11045 C 1038.11 5.69553 -1.59258 0
M  V30 11046 H 1037.04 0.752521 -0.0472109 0
M  V30 11047 H 1039.69 1.65498 -0.79263 0
M  V30 11048 H 1038.07 3.92432 0.530408 0
M  V30 11049 H 1039.25 3.97662 -2.32813 0
M  V30 11050 H 1037.56 3.67079 -1.96576 0
M  V30 11051 H 1040.16 5.34075 0.258401 0
M  V30 11052 H 1040.5 3.96285 1.27529 0
M  V30 11053 H 1041.03 3.9554 -0.423469 0
M  V30 11054 H 1037.77 6.01784 -2.59878 0
M  V30 11055 H 1037.29 5.93185 -0.888352 0
M  V30 11056 H 1038.97 6.33234 -1.32756 0
M  V30 11057 N 1039.1 0.374177 1.53094 0
M  V30 11058 C 1040.33 -0.215903 2.06273 0
M  V30 11059 C 1040.75 -1.40979 1.24526 0
M  V30 11060 O 1040.11 -1.79331 0.266462 0
M  V30 11061 C 1040.16 -0.579089 3.5592 0
M  V30 11062 O 1039.26 -1.67516 3.76845 0
M  V30 11063 H 1038.61 -0.0293981 0.663349 0
M  V30 11064 H 1041.14 0.537271 1.9742 0
M  V30 11065 H 1041.15 -0.847678 3.99097 0
M  V30 11066 H 1039.82 0.293843 4.14861 0
M  V30 11067 H 1038.4 -1.40146 3.45563 0
M  V30 11068 N 1040.58 -1.57259 0.103575 0
M  V30 11069 C 1041.52 -2.10165 -0.889141 0
M  V30 11070 C 1042.49 -1.01426 -1.27089 0
M  V30 11071 O 1043.68 -1.2898 -1.37465 0
M  V30 11072 C 1040.8 -2.58564 -2.18774 0
M  V30 11073 C 1039.85 -3.79043 -1.95522 0
M  V30 11074 S 1040.68 -5.22213 -1.18551 0
M  V30 11075 C 1041.84 -5.73968 -2.49623 0
M  V30 11076 H 1042.07 -2.9404 -0.439083 0
M  V30 11077 H 1039.61 -1.54008 -0.10989 0
M  V30 11078 H 1041.56 -2.87106 -2.93395 0
M  V30 11079 H 1040.22 -1.749 -2.609 0
M  V30 11080 H 1039.42 -4.11004 -2.91705 0
M  V30 11081 H 1039.02 -3.51038 -1.29028 0
M  V30 11082 H 1041.31 -5.82752 -3.45553 0
M  V30 11083 H 1042.25 -6.72324 -2.22229 0
M  V30 11084 H 1042.66 -5.01946 -2.58284 0
M  V30 11085 N 1042.06 0.170153 -1.56679 0
M  V30 11086 C 1043.31 0.886592 -1.8206 0
M  V30 11087 C 1043.64 1.82194 -0.680839 0
M  V30 11088 O 1042.89 1.92866 0.331822 0
M  V30 11089 C 1043.19 1.71402 -3.13618 0
M  V30 11090 C 1042.86 0.927489 -4.41258 0
M  V30 11091 C 1041.52 0.710417 -4.75927 0
M  V30 11092 C 1043.87 0.375855 -5.19843 0
M  V30 11093 C 1041.2 -0.0693691 -5.86659 0
M  V30 11094 C 1043.55 -0.390849 -6.31391 0
M  V30 11095 C 1042.21 -0.61871 -6.64626 0
M  V30 11096 H 1041.48 0.324427 -0.666204 0
M  V30 11097 H 1044.13 0.151464 -1.909 0
M  V30 11098 H 1042.44 2.51858 -3.00125 0
M  V30 11099 H 1044.13 2.27141 -3.30466 0
M  V30 11100 H 1040.72 1.10672 -4.14065 0
M  V30 11101 H 1044.91 0.530897 -4.93452 0
M  V30 11102 H 1040.16 -0.255637 -6.10865 0
M  V30 11103 H 1044.34 -0.825544 -6.9149 0
M  V30 11104 H 1041.96 -1.22482 -7.50268 0
M  V30 11105 N 1043.54 1.5137 0.438746 0
M  V30 11106 C 1044.45 1.75424 1.55768 0
M  V30 11107 C 1045.46 0.638409 1.61865 0
M  V30 11108 O 1046.64 0.9205 1.79133 0
M  V30 11109 C 1043.71 1.87288 2.9176 0
M  V30 11110 C 1042.77 3.11137 2.95791 0
M  V30 11111 C 1042 3.22425 4.25297 0
M  V30 11112 O 1042.22 2.39688 5.17596 0
M  V30 11113 O 1041.16 4.15393 4.35583 0
M  V30 11114 H 1044.98 2.70339 1.38386 0
M  V30 11115 H 1042.57 1.35854 0.621609 0
M  V30 11116 H 1044.45 1.97085 3.72472 0
M  V30 11117 H 1043.12 0.955599 3.09273 0
M  V30 11118 H 1042.03 3.06819 2.1404 0
M  V30 11119 H 1043.36 4.02549 2.83223 0
M  V30 11120 N 1045.02 -0.694098 1.41492 0
M  V30 11121 C 1046.29 -1.44875 1.31418 0
M  V30 11122 C 1046.67 -2.11022 -0.0575538 0
M  V30 11123 O 1046.02 -2.01799 -1.07188 0
M  V30 11124 C 1046.23 -2.46698 2.46863 0
M  V30 11125 C 1047.58 -3.11907 2.88095 0
M  V30 11126 O 1048.6 -2.57022 2.46613 0
M  V30 11127 O 1047.46 -4.11318 3.59833 0
M  V30 11128 H 1044.56 -0.645266 0.517263 0
M  V30 11129 H 1047.1 -0.724452 1.53459 0
M  V30 11130 H 1045.87 -1.96485 3.38392 0
M  V30 11131 H 1045.5 -3.26634 2.26706 0
M  V30 11132 N 1046.49 -1.27344 -0.928501 0
M  V30 11133 C 1047.77 -1.04362 -1.65433 0
M  V30 11134 C 1048.15 0.421896 -2.06841 0
M  V30 11135 O 1047.5 1.40496 -1.80203 0
M  V30 11136 C 1047.71 -2.00442 -2.85699 0
M  V30 11137 C 1049.06 -2.29767 -3.57061 0
M  V30 11138 O 1050.08 -1.98409 -2.95825 0
M  V30 11139 O 1048.94 -2.83217 -4.67387 0
M  V30 11140 H 1046.03 -0.397783 -0.72505 0
M  V30 11141 H 1048.58 -1.38606 -0.979109 0
M  V30 11142 H 1047.35 -2.99281 -2.52085 0
M  V30 11143 H 1046.98 -1.66755 -3.60941 0
M  V30 11144 N 1047.97 1.13488 -1.09353 0
M  V30 11145 C 1048.92 2.18876 -0.732251 0
M  V30 11146 C 1049.89 1.63616 0.286175 0
M  V30 11147 O 1051.07 1.90059 0.167981 0
M  V30 11148 C 1048.21 3.44737 -0.158157 0
M  V30 11149 C 1047.33 4.14104 -1.23053 0
M  V30 11150 C 1046.46 5.27578 -0.619272 0
M  V30 11151 C 1045.5 5.88793 -1.67301 0
M  V30 11152 N 1044.64 6.937 -1.08283 0
M  V30 11153 H 1049.48 2.49128 -1.63522 0
M  V30 11154 H 1047.02 1.22326 -0.816995 0
M  V30 11155 H 1048.97 4.16756 0.192488 0
M  V30 11156 H 1047.6 3.14938 0.708082 0
M  V30 11157 H 1046.66 3.40376 -1.69847 0
M  V30 11158 H 1047.97 4.55683 -2.02865 0
M  V30 11159 H 1047.12 6.0631 -0.217428 0
M  V30 11160 H 1045.86 4.87246 0.210399 0
M  V30 11161 H 1044.87 5.08756 -2.0844 0
M  V30 11162 H 1046.09 6.31197 -2.50533 0
M  V30 11163 H 1044.04 6.55426 -0.274426 0
M  V30 11164 H 1043.95 7.33817 -1.81792 0
M  V30 11165 H 1045.22 7.76286 -0.707167 0
M  V30 11166 N 1049.45 0.880621 1.30701 0
M  V30 11167 C 1050.36 0.348034 2.32004 0
M  V30 11168 C 1051.38 -0.547508 1.65162 0
M  V30 11169 O 1052.55 -0.441673 1.96497 0
M  V30 11170 C 1049.62 -0.432585 3.43991 0
M  V30 11171 C 1048.68 0.492189 4.26469 0
M  V30 11172 C 1047.91 -0.25127 5.33108 0
M  V30 11173 O 1048.14 -1.47795 5.5092 0
M  V30 11174 O 1047.07 0.396376 6.00593 0
M  V30 11175 H 1050.9 1.18798 2.79501 0
M  V30 11176 H 1048.48 0.64432 1.34792 0
M  V30 11177 H 1050.36 -0.874733 4.12221 0
M  V30 11178 H 1049.04 -1.2489 2.98637 0
M  V30 11179 H 1047.94 0.983058 3.60953 0
M  V30 11180 H 1049.28 1.27439 4.75416 0
M  V30 11181 N 1050.93 -1.4397 0.641131 0
M  V30 11182 C 1051.86 -2.33458 -0.04446 0
M  V30 11183 C 1052.84 -1.48781 -0.824507 0
M  V30 11184 O 1054.03 -1.77477 -0.788397 0
M  V30 11185 C 1051.16 -3.31989 -1.01984 0
M  V30 11186 C 1050.11 -4.2656 -0.350745 0
M  V30 11187 C 1049.44 -5.15036 -1.43673 0
M  V30 11188 C 1050.74 -5.16897 0.749299 0
M  V30 11189 H 1052.43 -2.91034 0.702832 0
M  V30 11190 H 1049.98 -1.39942 0.339435 0
M  V30 11191 H 1051.93 -3.93483 -1.50828 0
M  V30 11192 H 1050.65 -2.72643 -1.79815 0
M  V30 11193 H 1049.31 -3.66413 0.117139 0
M  V30 11194 H 1048.96 -4.52037 -2.20617 0
M  V30 11195 H 1048.66 -5.79125 -0.994358 0
M  V30 11196 H 1050.18 -5.79403 -1.92678 0
M  V30 11197 H 1051.6 -5.7227 0.343534 0
M  V30 11198 H 1049.99 -5.89643 1.11541 0
M  V30 11199 H 1051.06 -4.5731 1.61232 0
M  V30 11200 N 1052.41 -0.382291 -1.52893 0
M  V30 11201 C 1053.64 0.202114 -2.05609 0
M  V30 11202 C 1054.05 1.4164 -1.25438 0
M  V30 11203 O 1053.39 1.81359 -0.292324 0
M  V30 11204 C 1053.45 0.64356 -3.53693 0
M  V30 11205 C 1053.11 -0.456305 -4.54716 0
M  V30 11206 C 1054.11 -1.3115 -5.03086 0
M  V30 11207 C 1051.8 -0.621329 -4.98442 0
M  V30 11208 C 1053.79 -2.3169 -5.938 0
M  V30 11209 C 1051.48 -1.63008 -5.88958 0
M  V30 11210 C 1052.48 -2.47629 -6.36529 0
M  V30 11211 O 1052.16 -3.46781 -7.25257 0
M  V30 11212 H 1051.9 0.0358014 -0.675051 0
M  V30 11213 H 1054.45 -0.543935 -1.98067 0
M  V30 11214 H 1052.68 1.44148 -3.58829 0
M  V30 11215 H 1054.37 1.15284 -3.89184 0
M  V30 11216 H 1055.13 -1.19528 -4.70041 0
M  V30 11217 H 1051.01 0.027593 -4.60992 0
M  V30 11218 H 1054.56 -2.97776 -6.30853 0
M  V30 11219 H 1050.45 -1.74671 -6.21418 0
M  V30 11220 H 1051.22 -3.42707 -7.433 0
M  V30 11221 N 1053.89 1.57202 -0.111913 0
M  V30 11222 C 1055.3 1.82039 0.414591 0
M  V30 11223 C 1055.65 1.02863 1.67074 0
M  V30 11224 O 1054.77 0.263068 2.14795 0
M  V30 11225 C 1055.37 3.3019 0.758953 0
M  V30 11226 C 1053.93 3.55732 1.23012 0
M  V30 11227 C 1053.07 2.76301 0.235226 0
M  V30 11228 H 1056.02 1.55078 -0.337142 0
M  V30 11229 H 1056.05 3.44431 1.61701 0
M  V30 11230 H 1055.56 3.87788 -0.155473 0
M  V30 11231 H 1053.66 3.03483 2.16169 0
M  V30 11232 H 1053.77 4.64333 1.18034 0
M  V30 11233 H 1052.14 2.44287 0.720822 0
M  V30 11234 H 1052.92 3.36655 -0.672173 0
M  V30 11235 N 1055.36 -0.161842 1.56767 0
M  V30 11236 C 1056.3 -1.22927 1.9226 0
M  V30 11237 C 1057.27 -1.42309 0.786562 0
M  V30 11238 O 1058.46 -1.57163 1.04078 0
M  V30 11239 C 1055.59 -2.59069 2.18177 0
M  V30 11240 C 1054.63 -2.56368 3.40849 0
M  V30 11241 S 1055.46 -2.04518 4.94907 0
M  V30 11242 C 1056.62 -3.42418 5.23928 0
M  V30 11243 H 1056.85 -0.926377 2.82499 0
M  V30 11244 H 1054.39 -0.366822 1.49979 0
M  V30 11245 H 1056.34 -3.37421 2.33789 0
M  V30 11246 H 1055.01 -2.86554 1.28629 0
M  V30 11247 H 1054.2 -3.56551 3.56213 0
M  V30 11248 H 1053.8 -1.86116 3.24402 0
M  V30 11249 H 1056.09 -4.38461 5.16486 0
M  V30 11250 H 1057.04 -3.3192 6.25487 0
M  V30 11251 H 1057.44 -3.38868 4.51474 0
M  V30 11252 N 1056.84 -1.516 -0.430713 0
M  V30 11253 C 1058.09 -1.63829 -1.17657 0
M  V30 11254 C 1058.4 -0.363605 -1.92191 0
M  V30 11255 O 1059.61 -0.365358 -2.6903 0
M  V30 11256 C 1058.07 -2.89357 -2.14011 0
M  V30 11257 C 1057.67 -4.23854 -1.45094 0
M  V30 11258 C 1059.42 -3.10944 -2.88988 0
M  V30 11259 C 1057.32 -5.40526 -2.3997 0
M  V30 11260 H 1056.25 -0.610221 -0.442884 0
M  V30 11261 H 1058.91 -1.78073 -0.442984 0
M  V30 11262 H 1057.29 -2.68762 -2.90832 0
M  V30 11263 H 1058.46 -4.54854 -0.737853 0
M  V30 11264 H 1056.78 -4.08197 -0.822429 0
M  V30 11265 H 1059.37 -3.95286 -3.60074 0
M  V30 11266 H 1059.72 -2.24291 -3.50712 0
M  V30 11267 H 1060.25 -3.3191 -2.19272 0
M  V30 11268 H 1056.99 -6.29459 -1.82925 0
M  V30 11269 H 1056.51 -5.13893 -3.09313 0
M  V30 11270 H 1058.19 -5.72741 -3.00959 0
M  V30 11271 N 1058.32 0.686584 -1.41858 0
M  V30 11272 C 1059.23 1.83002 -1.46791 0
M  V30 11273 C 1060.25 1.70284 -0.357675 0
M  V30 11274 O 1061.42 1.92042 -0.606781 0
M  V30 11275 C 1058.49 3.19056 -1.35661 0
M  V30 11276 C 1057.55 3.43817 -2.57077 0
M  V30 11277 C 1056.78 4.7338 -2.46469 0
M  V30 11278 O 1057 5.50483 -1.49413 0
M  V30 11279 O 1055.94 4.99124 -3.36391 0
M  V30 11280 H 1059.76 1.81797 -2.43277 0
M  V30 11281 H 1057.35 0.840812 -1.23494 0
M  V30 11282 H 1059.23 4.00267 -1.31773 0
M  V30 11283 H 1057.91 3.20925 -0.422951 0
M  V30 11284 H 1056.81 2.625 -2.66541 0
M  V30 11285 H 1058.15 3.4677 -3.49302 0
M  V30 11286 N 1059.8 1.27835 0.921735 0
M  V30 11287 C 1060.71 1.12904 2.05645 0
M  V30 11288 C 1061.72 0.0575704 1.73905 0
M  V30 11289 O 1062.9 0.265261 1.99645 0
M  V30 11290 C 1059.96 0.783957 3.3772 0
M  V30 11291 C 1059.03 1.93694 3.8312 0
M  V30 11292 C 1058.26 1.60823 5.08893 0
M  V30 11293 O 1058.48 0.518873 5.68035 0
M  V30 11294 O 1057.42 2.44932 5.49811 0
M  V30 11295 H 1061.24 2.08143 2.21157 0
M  V30 11296 H 1058.83 1.07078 1.04185 0
M  V30 11297 H 1060.71 0.605107 4.17033 0
M  V30 11298 H 1059.38 -0.138849 3.23402 0
M  V30 11299 H 1058.29 2.17089 3.04669 0
M  V30 11300 H 1059.62 2.84016 4.0199 0
M  V30 11301 N 1061.28 -1.12907 1.09954 0
M  V30 11302 C 1062.51 -1.87866 0.859656 0
M  V30 11303 C 1062.91 -1.79664 -0.593096 0
M  V30 11304 O 1062.26 -1.16499 -1.42034 0
M  V30 11305 C 1062.32 -3.38055 1.22308 0
M  V30 11306 C 1061.98 -3.70035 2.68185 0
M  V30 11307 C 1062.98 -3.68817 3.66428 0
M  V30 11308 C 1060.66 -3.99523 3.04444 0
M  V30 11309 C 1062.66 -3.96639 4.98955 0
M  V30 11310 C 1060.35 -4.27006 4.37161 0
M  V30 11311 C 1061.34 -4.25549 5.34225 0
M  V30 11312 O 1061.03 -4.52354 6.64553 0
M  V30 11313 H 1060.76 -0.601425 0.308649 0
M  V30 11314 H 1063.32 -1.43817 1.46649 0
M  V30 11315 H 1061.55 -3.82634 0.559322 0
M  V30 11316 H 1063.24 -3.94348 0.961479 0
M  V30 11317 H 1064 -3.46104 3.3976 0
M  V30 11318 H 1059.88 -3.99801 2.29521 0
M  V30 11319 H 1063.43 -3.95418 5.74709 0
M  V30 11320 H 1059.32 -4.49192 4.6357 0
M  V30 11321 H 1060.09 -4.69997 6.70108 0
M  V30 11322 N 1062.75 -0.88754 -1.30232 0
M  V30 11323 C 1064 -0.507279 -1.96043 0
M  V30 11324 C 1064.33 0.944059 -1.70052 0
M  V30 11325 O 1063.58 1.68255 -0.999444 0
M  V30 11326 C 1063.88 -0.731765 -3.49828 0
M  V30 11327 C 1063.55 -2.15858 -3.95874 0
M  V30 11328 C 1062.21 -2.54875 -4.08157 0
M  V30 11329 C 1064.56 -3.0883 -4.19849 0
M  V30 11330 C 1061.89 -3.86069 -4.41778 0
M  V30 11331 C 1064.24 -4.39559 -4.5494 0
M  V30 11332 C 1062.91 -4.78465 -4.65432 0
M  V30 11333 H 1062.18 -0.185627 -0.717373 0
M  V30 11334 H 1064.82 -1.12388 -1.55052 0
M  V30 11335 H 1063.13 -0.0321473 -3.91787 0
M  V30 11336 H 1064.83 -0.417107 -3.98825 0
M  V30 11337 H 1061.42 -1.84574 -3.86821 0
M  V30 11338 H 1065.6 -2.79906 -4.09837 0
M  V30 11339 H 1060.86 -4.1595 -4.48102 0
M  V30 11340 H 1065.03 -5.11636 -4.72442 0
M  V30 11341 H 1062.66 -5.80162 -4.91239 0
M  V30 11342 N 1064.23 1.43628 -0.648757 0
M  V30 11343 C 1065.16 2.29045 0.0841858 0
M  V30 11344 C 1066.18 1.42262 0.791537 0
M  V30 11345 O 1067.37 1.66243 0.650039 0
M  V30 11346 C 1064.47 3.19075 1.14212 0
M  V30 11347 C 1063.64 4.34372 0.513799 0
M  V30 11348 C 1062.7 5.05307 1.46803 0
M  V30 11349 O 1061.72 5.60729 0.978346 0
M  V30 11350 N 1062.93 5.08393 2.80209 0
M  V30 11351 H 1065.69 2.9259 -0.648948 0
M  V30 11352 H 1063.25 1.54268 -0.491209 0
M  V30 11353 H 1065.24 3.63395 1.78119 0
M  V30 11354 H 1063.81 2.57161 1.77728 0
M  V30 11355 H 1063.03 3.93024 -0.304262 0
M  V30 11356 H 1064.32 5.08745 0.0749871 0
M  V30 11357 H 1063.72 4.64729 3.22557 0
M  V30 11358 H 1062.28 5.56445 3.3943 0
M  V30 11359 N 1065.71 0.390394 1.52688 0
M  V30 11360 C 1066.96 -0.191067 2.01195 0
M  V30 11361 C 1067.28 -1.47229 1.27862 0
M  V30 11362 O 1066.55 -1.91793 0.399007 0
M  V30 11363 H 1065.13 -0.073596 0.743366 0
M  V30 11364 H 1067.79 0.522334 1.8777 0
M  V30 11365 H 1066.89 -0.40051 3.0952 0
M  V30 11366 N 1067.19 -1.57141 0.120249 0
M  V30 11367 C 1068.12 -2.12454 -0.859987 0
M  V30 11368 C 1069.13 -1.06755 -1.22911 0
M  V30 11369 O 1070.32 -1.34124 -1.17784 0
M  V30 11370 C 1067.42 -2.61024 -2.16147 0
M  V30 11371 C 1066.6 -3.90835 -1.96385 0
M  V30 11372 C 1065.65 -4.2499 -3.10274 0
M  V30 11373 O 1064.68 -4.93786 -2.83133 0
M  V30 11374 N 1065.88 -3.82411 -4.36741 0
M  V30 11375 H 1068.65 -2.97186 -0.387402 0
M  V30 11376 H 1066.21 -1.61773 -0.0641376 0
M  V30 11377 H 1068.2 -2.80903 -2.91334 0
M  V30 11378 H 1066.77 -1.81166 -2.5475 0
M  V30 11379 H 1065.99 -3.79853 -1.05383 0
M  V30 11380 H 1067.28 -4.75712 -1.80487 0
M  V30 11381 H 1066.68 -3.26926 -4.61666 0
M  V30 11382 H 1065.23 -4.07395 -5.08795 0
M  V30 11383 N 1068.67 0.153526 -1.5685 0
M  V30 11384 C 1069.91 0.868517 -1.83261 0
M  V30 11385 C 1070.25 1.81112 -0.700857 0
M  V30 11386 O 1069.52 1.92235 0.295989 0
M  V30 11387 C 1069.8 1.6487 -3.2014 0
M  V30 11388 C 1069.66 0.728021 -4.43869 0
M  V30 11389 C 1070.98 2.61259 -3.54163 0
M  V30 11390 H 1068.09 0.314297 -0.666623 0
M  V30 11391 H 1070.74 0.133971 -1.89527 0
M  V30 11392 H 1068.89 2.2749 -3.1493 0
M  V30 11393 H 1070.56 0.113328 -4.61161 0
M  V30 11394 H 1068.8 0.0371744 -4.33784 0
M  V30 11395 H 1069.47 1.30981 -5.36235 0
M  V30 11396 H 1071.95 2.0876 -3.59942 0
M  V30 11397 H 1070.82 3.12902 -4.50981 0
M  V30 11398 H 1071.09 3.42307 -2.79782 0
M  V30 11399 N 1070.14 1.51827 0.422667 0
M  V30 11400 C 1071.09 1.74198 1.51406 0
M  V30 11401 C 1072.06 0.584013 1.55494 0
M  V30 11402 O 1073.25 0.820079 1.72277 0
M  V30 11403 C 1070.39 1.88627 2.88988 0
M  V30 11404 C 1069.5 3.16233 2.94314 0
M  V30 11405 C 1068.63 3.21172 4.2311 0
M  V30 11406 C 1067.67 4.43033 4.2236 0
M  V30 11407 N 1066.81 4.4544 5.42704 0
M  V30 11408 H 1071.65 2.67352 1.31632 0
M  V30 11409 H 1069.19 1.32487 0.63919 0
M  V30 11410 H 1071.15 1.94976 3.68837 0
M  V30 11411 H 1069.78 0.988673 3.07287 0
M  V30 11412 H 1068.83 3.19123 2.07039 0
M  V30 11413 H 1070.14 4.06104 2.89623 0
M  V30 11414 H 1069.29 3.26517 5.11343 0
M  V30 11415 H 1068.03 2.29216 4.30478 0
M  V30 11416 H 1067.04 4.37849 3.32518 0
M  V30 11417 H 1068.26 5.3627 4.16643 0
M  V30 11418 H 1066.21 3.56361 5.50766 0
M  V30 11419 H 1066.13 5.29138 5.39953 0
M  V30 11420 H 1067.39 4.54997 6.32928 0
M  V30 11421 N 1071.62 -0.679052 1.4222 0
M  V30 11422 C 1073.03 -1.25953 1.37815 0
M  V30 11423 C 1073.38 -1.96077 0.0693215 0
M  V30 11424 O 1072.51 -1.99765 -0.832047 0
M  V30 11425 C 1073.1 -2.29063 2.49631 0
M  V30 11426 C 1071.66 -2.82647 2.48571 0
M  V30 11427 C 1070.81 -1.56909 2.28637 0
M  V30 11428 H 1073.76 -0.472714 1.51496 0
M  V30 11429 H 1073.78 -3.10708 2.19638 0
M  V30 11430 H 1073.29 -1.77996 3.44876 0
M  V30 11431 H 1071.4 -3.37846 1.57132 0
M  V30 11432 H 1071.51 -3.31952 3.45463 0
M  V30 11433 H 1069.87 -1.83323 1.76819 0
M  V30 11434 H 1070.66 -1.07814 3.25931 0
M  V30 11435 N 1073.1 -1.28322 -0.914942 0
M  V30 11436 C 1074.35 -1.14785 -1.65853 0
M  V30 11437 C 1074.66 0.303135 -1.93237 0
M  V30 11438 O 1075.87 0.559606 -2.6567 0
M  V30 11439 C 1074.32 -2.00652 -2.98776 0
M  V30 11440 C 1073.93 -3.50483 -2.79044 0
M  V30 11441 C 1075.68 -1.95798 -3.76648 0
M  V30 11442 C 1073.58 -4.28505 -4.076 0
M  V30 11443 H 1072.51 -0.425987 -0.622135 0
M  V30 11444 H 1075.16 -1.52844 -1.01543 0
M  V30 11445 H 1073.55 -1.55447 -3.64214 0
M  V30 11446 H 1074.72 -4.03636 -2.22293 0
M  V30 11447 H 1073.04 -3.5685 -2.14586 0
M  V30 11448 H 1075.63 -2.51359 -4.71935 0
M  V30 11449 H 1075.98 -0.934455 -4.05677 0
M  V30 11450 H 1076.51 -2.38965 -3.18026 0
M  V30 11451 H 1073.25 -5.31433 -3.83744 0
M  V30 11452 H 1072.77 -3.80125 -4.63966 0
M  V30 11453 H 1074.45 -4.3836 -4.75867 0
M  V30 11454 N 1074.58 1.12322 -1.10551 0
M  V30 11455 C 1075.54 2.16273 -0.758844 0
M  V30 11456 C 1076.54 1.59325 0.217294 0
M  V30 11457 O 1077.73 1.74199 -0.00601346 0
M  V30 11458 C 1074.86 3.40674 -0.124238 0
M  V30 11459 H 1076.06 2.48454 -1.6796 0
M  V30 11460 H 1073.61 1.2735 -0.906188 0
M  V30 11461 H 1074.34 3.14094 0.807194 0
M  V30 11462 H 1074.13 3.83284 -0.826772 0
M  V30 11463 H 1075.62 4.17474 0.102502 0
M  V30 11464 N 1076.06 0.894434 1.2976 0
M  V30 11465 C 1077.33 0.437365 1.90648 0
M  V30 11466 C 1077.71 -1.08261 1.81226 0
M  V30 11467 O 1077.06 -1.92213 1.23557 0
M  V30 11468 C 1077.27 0.946047 3.35933 0
M  V30 11469 C 1078.62 0.986621 4.12978 0
M  V30 11470 O 1079.64 0.893356 3.44815 0
M  V30 11471 O 1078.5 1.12591 5.34776 0
M  V30 11472 H 1075.6 0.135436 0.815835 0
M  V30 11473 H 1078.14 0.983955 1.38262 0
M  V30 11474 H 1076.91 1.98998 3.3692 0
M  V30 11475 H 1076.54 0.379164 3.95788 0
M  V30 11476 N 1077.53 -1.43282 0.656365 0
M  V30 11477 C 1078.76 -2.06641 0.177245 0
M  V30 11478 C 1079.18 -1.48893 -1.14946 0
M  V30 11479 O 1078.54 -0.600099 -1.7108 0
M  V30 11480 C 1078.59 -3.60453 0.10299 0
M  V30 11481 O 1077.69 -4.01687 -0.933895 0
M  V30 11482 H 1077.04 -0.656978 0.096314 0
M  V30 11483 H 1079.57 -1.83733 0.900178 0
M  V30 11484 H 1079.58 -4.07923 -0.079291 0
M  V30 11485 H 1078.25 -4.01861 1.07147 0
M  V30 11486 H 1076.83 -3.65801 -0.724148 0
M  V30 11487 N 1079.01 -0.398486 -1.52479 0
M  V30 11488 C 1079.94 0.423498 -2.29627 0
M  V30 11489 C 1080.92 1.05547 -1.33394 0
M  V30 11490 O 1082.11 1.0665 -1.62294 0
M  V30 11491 C 1079.24 1.54612 -3.10986 0
M  V30 11492 C 1078.19 1.03971 -4.15179 0
M  V30 11493 C 1077.52 2.25512 -4.84818 0
M  V30 11494 C 1078.82 0.10121 -5.22202 0
M  V30 11495 H 1080.51 -0.220222 -2.98589 0
M  V30 11496 H 1078.06 -0.107355 -1.43599 0
M  V30 11497 H 1080.01 2.12806 -3.63719 0
M  V30 11498 H 1078.74 2.21756 -2.39774 0
M  V30 11499 H 1077.4 0.480251 -3.63441 0
M  V30 11500 H 1077.04 2.91187 -4.10145 0
M  V30 11501 H 1076.74 1.92285 -5.55248 0
M  V30 11502 H 1078.27 2.84331 -5.40359 0
M  V30 11503 H 1079.68 0.591617 -5.70239 0
M  V30 11504 H 1078.08 -0.141737 -5.99933 0
M  V30 11505 H 1079.15 -0.847216 -4.77441 0
M  V30 11506 N 1080.49 1.57075 -0.12858 0
M  V30 11507 C 1081.74 1.95134 0.526046 0
M  V30 11508 C 1082.06 1.01337 1.66601 0
M  V30 11509 O 1081.33 0.0714361 1.9577 0
M  V30 11510 H 1079.91 0.720468 0.19732 0
M  V30 11511 H 1082.57 1.93874 -0.199767 0
M  V30 11512 H 1081.67 2.98406 0.914332 0
M  V30 11513 N 1081.97 -0.145205 1.5693 0
M  V30 11514 C 1083.22 -0.85395 1.84606 0
M  V30 11515 C 1083.57 -1.78709 0.712811 0
M  V30 11516 O 1082.86 -1.89406 -0.289108 0
M  V30 11517 C 1083.06 -1.66391 3.16305 0
M  V30 11518 C 1082.89 -0.810698 4.42332 0
M  V30 11519 C 1081.66 -0.475623 5.03057 0
M  V30 11520 C 1083.85 -0.140213 5.14109 0
M  V30 11521 N 1081.84 0.390996 6.12654 0
M  V30 11522 C 1083.21 0.586471 6.1722 0
M  V30 11523 C 1085.26 -0.0610725 4.97863 0
M  V30 11524 C 1083.97 1.38483 7.05844 0
M  V30 11525 C 1085.99 0.724026 5.86951 0
M  V30 11526 C 1085.35 1.43899 6.89545 0
M  V30 11527 H 1081.45 -0.290253 0.726138 0
M  V30 11528 H 1084.04 -0.119211 1.94335 0
M  V30 11529 H 1082.21 -2.36987 3.0772 0
M  V30 11530 H 1083.94 -2.31596 3.31882 0
M  V30 11531 H 1080.69 -0.811824 4.6659 0
M  V30 11532 H 1081.12 0.815383 6.72072 0
M  V30 11533 H 1085.76 -0.599475 4.18529 0
M  V30 11534 H 1083.48 1.93448 7.84604 0
M  V30 11535 H 1087.06 0.787276 5.76449 0
M  V30 11536 H 1085.94 2.03674 7.57289 0
M  V30 11537 N 1083.45 -1.52049 -0.414609 0
M  V30 11538 C 1084.4 -1.75603 -1.52533 0
M  V30 11539 C 1085.39 -0.622965 -1.57529 0
M  V30 11540 O 1086.6 -0.804886 -1.61002 0
M  V30 11541 H 1082.97 -0.555222 -0.507181 0
M  V30 11542 H 1084.94 -2.68666 -1.2985 0
M  V30 11543 C 1083.69 -1.9188 -2.89961 0
M  V30 11544 H 1083.01 -2.78483 -2.86857 0
M  V30 11545 H 1084.45 -2.12363 -3.66985 0
M  V30 11546 C 1082.91 -0.684453 -3.29874 0
M  V30 11547 O 1083.44 0.150256 -4.01419 0
M  V30 11548 N 1081.65 -0.521936 -2.85874 0
M  V30 11549 H 1081.2 -1.20229 -2.27822 0
M  V30 11550 H 1081.15 0.302655 -3.1294 0
M  V30 11551 N 1084.93 0.6715 -1.42579 0
M  V30 11552 C 1086.2 1.42766 -1.33706 0
M  V30 11553 C 1086.58 2.11086 0.0239748 0
M  V30 11554 O 1085.93 2.03479 1.03964 0
M  V30 11555 C 1086.14 2.42739 -2.50756 0
M  V30 11556 C 1087.49 3.07284 -2.93021 0
M  V30 11557 O 1088.51 2.53066 -2.50671 0
M  V30 11558 O 1087.37 4.05541 -3.66331 0
M  V30 11559 H 1084.47 0.636955 -0.527463 0
M  V30 11560 H 1087.01 0.699946 -1.54593 0
M  V30 11561 H 1085.78 1.91076 -3.41476 0
M  V30 11562 H 1085.41 3.22986 -2.31874 0
M  V30 11563 N 1086.4 1.28806 0.908124 0
M  V30 11564 C 1087.37 1.13228 1.99279 0
M  V30 11565 C 1088.37 0.0702456 1.60646 0
M  V30 11566 O 1089.56 0.316494 1.71301 0
M  V30 11567 C 1086.69 0.729629 3.33 0
M  V30 11568 H 1087.88 2.09566 2.14528 0
M  V30 11569 H 1085.43 1.11872 1.09153 0
M  V30 11570 H 1086.17 -0.234268 3.23453 0
M  V30 11571 H 1085.95 1.49688 3.62403 0
M  V30 11572 H 1087.44 0.643449 4.12613 0
M  V30 11573 N 1087.88 -1.11734 1.11145 0
M  V30 11574 C 1089.13 -1.83043 0.856717 0
M  V30 11575 C 1089.45 -1.84901 -0.619407 0
M  V30 11576 O 1088.72 -1.31738 -1.44989 0
M  V30 11577 H 1087.3 -0.677823 0.31395 0
M  V30 11578 H 1089.96 -1.35262 1.40322 0
M  V30 11579 H 1089.06 -2.87005 1.22616 0
M  V30 11580 N 1089.36 -0.901303 -1.29284 0
M  V30 11581 C 1090.64 -0.44747 -1.90413 0
M  V30 11582 C 1091.02 1.07298 -1.81797 0
M  V30 11583 O 1090.36 1.91555 -1.24574 0
M  V30 11584 C 1090.57 -0.963849 -3.35427 0
M  V30 11585 C 1091.92 -1.00851 -4.12449 0
M  V30 11586 O 1092.95 -0.91163 -3.44337 0
M  V30 11587 O 1091.81 -1.15426 -5.34171 0
M  V30 11588 H 1088.9 -0.13976 -0.815105 0
M  V30 11589 H 1091.45 -0.991274 -1.37738 0
M  V30 11590 H 1090.22 -2.00782 -3.3586 0
M  V30 11591 H 1089.84 -0.400149 -3.95581 0
M  V30 11592 N 1090.84 1.42931 -0.663954 0
M  V30 11593 C 1091.79 2.27958 0.0436184 0
M  V30 11594 C 1092.77 1.40493 0.784258 0
M  V30 11595 O 1093.96 1.64035 0.664956 0
M  V30 11596 C 1091.09 3.28357 1.00183 0
M  V30 11597 C 1090.18 4.23308 0.259099 0
M  V30 11598 N 1090.57 5.00502 -0.730182 0
M  V30 11599 C 1088.87 4.43199 0.499061 0
M  V30 11600 C 1089.57 5.69771 -1.17201 0
M  V30 11601 N 1088.54 5.41258 -0.504105 0
M  V30 11602 H 1092.35 2.85061 -0.715348 0
M  V30 11603 H 1089.86 1.54764 -0.492117 0
M  V30 11604 H 1091.86 3.88061 1.52362 0
M  V30 11605 H 1090.52 2.72815 1.76074 0
M  V30 11606 H 1091.53 5.0588 -1.10932 0
M  V30 11607 H 1088.21 3.98713 1.23831 0
M  V30 11608 H 1089.6 6.41718 -1.99117 0
M  V30 11609 N 1092.32 0.406567 1.52266 0
M  V30 11610 C 1093.56 -0.170305 2.02084 0
M  V30 11611 C 1093.89 -1.45008 1.29176 0
M  V30 11612 O 1093.17 -1.90399 0.39731 0
M  V30 11613 C 1093.45 -0.420627 3.57635 0
M  V30 11614 C 1093.31 0.87564 4.41194 0
M  V30 11615 C 1094.62 -1.20387 4.23314 0
M  V30 11616 H 1091.74 -0.0604219 0.734519 0
M  V30 11617 H 1094.39 0.539529 1.82179 0
M  V30 11618 H 1092.54 -1.0253 3.74726 0
M  V30 11619 H 1094.21 1.51192 4.35819 0
M  V30 11620 H 1092.45 1.48718 4.07511 0
M  V30 11621 H 1093.12 0.654916 5.48101 0
M  V30 11622 H 1095.6 -0.691972 4.10306 0
M  V30 11623 H 1094.47 -1.34776 5.32096 0
M  V30 11624 H 1094.73 -2.2238 3.82099 0
M  V30 11625 N 1093.79 -1.57004 0.136909 0
M  V30 11626 C 1095.02 -2.00156 -0.523936 0
M  V30 11627 C 1095.44 -1.01688 -1.59075 0
M  V30 11628 O 1094.79 -0.0123678 -1.82496 0
M  V30 11629 C 1094.85 -3.4326 -1.13379 0
M  V30 11630 O 1094.57 -4.37963 -0.109598 0
M  V30 11631 C 1096.07 -4.01637 -1.87623 0
M  V30 11632 H 1093.29 -0.65681 -0.137263 0
M  V30 11633 H 1095.83 -2.03219 0.228522 0
M  V30 11634 H 1093.99 -3.4108 -1.83693 0
M  V30 11635 H 1094.4 -5.21555 -0.55503 0
M  V30 11636 H 1095.87 -5.03795 -2.25597 0
M  V30 11637 H 1096.35 -3.41781 -2.75831 0
M  V30 11638 H 1096.96 -4.07417 -1.22031 0
M  V30 11639 N 1095.27 0.136881 -1.57004 0
M  V30 11640 C 1096.22 1.16869 -1.99023 0
M  V30 11641 C 1097.19 1.42137 -0.859435 0
M  V30 11642 O 1098.37 1.54303 -1.12229 0
M  V30 11643 C 1095.51 2.49466 -2.38455 0
M  V30 11644 C 1094.63 2.31286 -3.64871 0
M  V30 11645 C 1093.76 3.56989 -3.9336 0
M  V30 11646 C 1092.8 3.33889 -5.13015 0
M  V30 11647 N 1091.94 4.51748 -5.37464 0
M  V30 11648 H 1096.78 0.803366 -2.86967 0
M  V30 11649 H 1094.32 0.385216 -1.41967 0
M  V30 11650 H 1096.27 3.26794 -2.59348 0
M  V30 11651 H 1094.9 2.83926 -1.53577 0
M  V30 11652 H 1093.96 1.44962 -3.51696 0
M  V30 11653 H 1095.27 2.10183 -4.52355 0
M  V30 11654 H 1094.42 4.42742 -4.14806 0
M  V30 11655 H 1093.16 3.81106 -3.04318 0
M  V30 11656 H 1092.17 2.46525 -4.91432 0
M  V30 11657 H 1093.39 3.1116 -6.03619 0
M  V30 11658 H 1091.34 4.76019 -4.51377 0
M  V30 11659 H 1091.25 4.33684 -6.19237 0
M  V30 11660 H 1092.52 5.38686 -5.63416 0
M  V30 11661 N 1096.75 1.52266 0.40654 0
M  V30 11662 C 1097.68 1.78755 1.50229 0
M  V30 11663 C 1098.66 0.638652 1.57655 0
M  V30 11664 O 1099.85 0.884505 1.72888 0
M  V30 11665 C 1096.98 1.94057 2.88026 0
M  V30 11666 C 1095.93 3.09667 2.95449 0
M  V30 11667 C 1095.26 3.10196 4.35526 0
M  V30 11668 C 1096.56 4.49077 2.66697 0
M  V30 11669 H 1098.25 2.70511 1.28313 0
M  V30 11670 H 1095.8 1.30167 0.615836 0
M  V30 11671 H 1097.75 2.11171 3.64671 0
M  V30 11672 H 1096.47 0.989755 3.11242 0
M  V30 11673 H 1095.13 2.92308 2.2125 0
M  V30 11674 H 1094.78 2.12831 4.55754 0
M  V30 11675 H 1094.48 3.87847 4.41416 0
M  V30 11676 H 1096 3.29443 5.14101 0
M  V30 11677 H 1097.42 4.66628 3.33064 0
M  V30 11678 H 1095.82 5.28665 2.8396 0
M  V30 11679 H 1096.89 4.56995 1.62122 0
M  V30 11680 N 1098.23 -0.663929 1.42933 0
M  V30 11681 C 1099.16 -1.78899 1.50058 0
M  V30 11682 C 1100.14 -1.66329 0.356164 0
M  V30 11683 O 1101.32 -1.85587 0.571944 0
M  V30 11684 C 1098.45 -3.17265 1.41281 0
M  V30 11685 C 1097.41 -3.44584 2.53861 0
M  V30 11686 C 1096.73 -4.82638 2.3014 0
M  V30 11687 C 1098.03 -3.40394 3.96143 0
M  V30 11688 H 1099.73 -1.73194 2.44222 0
M  V30 11689 H 1097.27 -0.83182 1.17545 0
M  V30 11690 H 1099.23 -3.95715 1.44872 0
M  V30 11691 H 1097.95 -3.23675 0.43616 0
M  V30 11692 H 1096.61 -2.685 2.49606 0
M  V30 11693 H 1096.26 -4.85711 1.30743 0
M  V30 11694 H 1095.96 -5.01879 3.056 0
M  V30 11695 H 1097.48 -5.63359 2.35497 0
M  V30 11696 H 1098.9 -4.08796 4.01943 0
M  V30 11697 H 1097.29 -3.7117 4.71543 0
M  V30 11698 H 1098.36 -2.38767 4.22041 0
M  V30 11699 N 1099.71 -1.29285 -0.901281 0
M  V30 11700 C 1101.12 -1.07263 -1.18182 0
M  V30 11701 C 1101.32 0.177087 -2.0072 0
M  V30 11702 O 1100.38 0.875292 -2.36844 0
M  V30 11703 C 1101.69 -2.32717 -1.9043 0
M  V30 11704 C 1103.24 -2.3802 -2.03262 0
M  V30 11705 C 1103.71 -3.63273 -2.7892 0
M  V30 11706 N 1105.21 -3.63986 -2.86475 0
M  V30 11707 C 1105.94 -4.57585 -3.45549 0
M  V30 11708 N 1105.44 -5.61513 -4.05801 0
M  V30 11709 N 1107.23 -4.45157 -3.43208 0
M  V30 11710 H 1099.38 -2.09487 -0.350536 0
M  V30 11711 H 1101.64 -0.922647 -0.217778 0
M  V30 11712 H 1101.35 -3.23828 -1.37216 0
M  V30 11713 H 1101.22 -2.40102 -2.90913 0
M  V30 11714 H 1103.61 -1.47398 -2.55652 0
M  V30 11715 H 1103.69 -2.3462 -1.01916 0
M  V30 11716 H 1103.34 -4.54246 -2.27206 0
M  V30 11717 H 1103.27 -3.6393 -3.80608 0
M  V30 11718 H 1105.76 -2.8884 -2.43679 0
M  V30 11719 H 1106.07 -6.29058 -4.48894 0
M  V30 11720 H 1104.41 -5.65325 -4.04268 0
M  V30 11721 H 1107.61 -3.63158 -2.95354 0
M  V30 11722 H 1107.78 -5.18286 -3.88952 0
M  V30 11723 N 1101.18 1.11143 -1.11736 0
M  V30 11724 C 1102.41 1.87285 -0.891007 0
M  V30 11725 C 1102.83 1.79758 0.553971 0
M  V30 11726 O 1102.19 1.16221 1.39149 0
M  V30 11727 C 1102.24 3.33924 -1.36114 0
M  V30 11728 O 1101.34 4.08917 -0.534851 0
M  V30 11729 H 1100.69 0.581418 -0.320701 0
M  V30 11730 H 1103.22 1.40469 -1.4876 0
M  V30 11731 H 1103.23 3.84772 -1.35701 0
M  V30 11732 H 1101.9 3.38719 -2.41334 0
M  V30 11733 H 1100.48 3.67954 -0.605355 0
M  V30 11734 N 1102.66 0.908147 1.28804 0
M  V30 11735 C 1103.89 0.553431 1.9988 0
M  V30 11736 C 1104.31 -0.856714 1.67458 0
M  V30 11737 O 1103.67 -1.57163 0.903849 0
M  V30 11738 C 1103.72 0.762688 3.52442 0
M  V30 11739 O 1102.82 -0.180924 4.12003 0
M  V30 11740 H 1102.16 0.215237 0.628147 0
M  V30 11741 H 1104.69 1.22205 1.64095 0
M  V30 11742 H 1104.7 0.670612 4.02451 0
M  V30 11743 H 1103.38 1.79071 3.75375 0
M  V30 11744 H 1101.96 -0.0405897 3.72878 0
M  V30 11745 N 1104.14 -1.42577 0.671525 0
M  V30 11746 C 1105.39 -2.01882 0.192716 0
M  V30 11747 C 1105.72 -1.52959 -1.19654 0
M  V30 11748 O 1104.99 -0.730404 -1.80265 0
M  V30 11749 C 1105.28 -3.59404 0.223734 0
M  V30 11750 C 1105.13 -4.18514 1.64821 0
M  V30 11751 C 1106.45 -4.37996 -0.429858 0
M  V30 11752 H 1103.57 -0.733523 0.0715026 0
M  V30 11753 H 1106.21 -1.69641 0.855689 0
M  V30 11754 H 1104.36 -3.87003 -0.340776 0
M  V30 11755 H 1106.03 -4.01881 2.26472 0
M  V30 11756 H 1104.28 -3.74467 2.1899 0
M  V30 11757 H 1104.95 -5.27643 1.62162 0
M  V30 11758 H 1107.42 -4.16069 0.0506433 0
M  V30 11759 H 1106.3 -5.476 -0.377503 0
M  V30 11760 H 1106.56 -4.15625 -1.50693 0
M  V30 11761 N 1105.62 -0.414636 -1.52048 0
M  V30 11762 C 1106.55 0.399119 -2.30064 0
M  V30 11763 C 1107.53 1.04126 -1.34506 0
M  V30 11764 O 1108.71 1.04923 -1.63416 0
M  V30 11765 C 1105.84 1.51305 -3.12608 0
M  V30 11766 C 1104.8 0.995621 -4.16259 0
M  V30 11767 C 1104.12 2.20357 -4.87183 0
M  V30 11768 C 1105.42 0.0458178 -5.2228 0
M  V30 11769 H 1107.12 -0.251879 -2.98339 0
M  V30 11770 H 1104.66 -0.122579 -1.43477 0
M  V30 11771 H 1106.62 2.08936 -3.65956 0
M  V30 11772 H 1105.34 2.19201 -2.42113 0
M  V30 11773 H 1104 0.441676 -3.6393 0
M  V30 11774 H 1103.65 2.8682 -4.13211 0
M  V30 11775 H 1103.35 1.86385 -5.57256 0
M  V30 11776 H 1104.87 2.78584 -5.43345 0
M  V30 11777 H 1106.29 0.531102 -5.70835 0
M  V30 11778 H 1104.68 -0.20536 -5.99749 0
M  V30 11779 H 1105.75 -0.897807 -4.76516 0
M  V30 11780 N 1107.1 1.56929 -0.145233 0
M  V30 11781 C 1108.34 1.95681 0.50532 0
M  V30 11782 C 1108.67 1.03098 1.65516 0
M  V30 11783 O 1107.94 0.0921961 1.95683 0
M  V30 11784 H 1106.52 0.72252 0.189668 0
M  V30 11785 H 1109.18 1.93651 -0.220318 0
M  V30 11786 H 1108.27 2.99359 0.882631 0
M  V30 11787 N 1108.58 -0.128553 1.57075 0
M  V30 11788 C 1109.82 -0.83801 1.84347 0
M  V30 11789 C 1110.15 -1.80325 0.728906 0
M  V30 11790 O 1109.41 -1.93678 -0.280571 0
M  V30 11791 C 1109.7 -1.63027 3.18052 0
M  V30 11792 C 1109.37 -0.810171 4.43562 0
M  V30 11793 C 1108.03 -0.583984 4.77643 0
M  V30 11794 C 1110.38 -0.237896 5.20657 0
M  V30 11795 C 1107.71 0.224887 5.86269 0
M  V30 11796 C 1110.06 0.558114 6.30133 0
M  V30 11797 C 1108.73 0.794706 6.62752 0
M  V30 11798 H 1108 -0.30665 0.674572 0
M  V30 11799 H 1110.65 -0.100797 1.91235 0
M  V30 11800 H 1108.95 -2.43812 3.06697 0
M  V30 11801 H 1110.65 -2.183 3.36372 0
M  V30 11802 H 1107.24 -0.996547 4.16854 0
M  V30 11803 H 1111.42 -0.399881 4.94686 0
M  V30 11804 H 1106.68 0.417507 6.09973 0
M  V30 11805 H 1110.85 1.00859 6.89058 0
M  V30 11806 H 1108.48 1.42331 7.46757 0
M  V30 11807 N 1110.05 -1.5248 -0.398459 0
M  V30 11808 C 1111.02 -1.75949 -1.46883 0
M  V30 11809 C 1112.02 -0.629431 -1.47969 0
M  V30 11810 O 1113.21 -0.897407 -1.49306 0
M  V30 11811 C 1110.34 -1.85162 -2.8623 0
M  V30 11812 H 1111.53 -2.71513 -1.2736 0
M  V30 11813 H 1109.08 -1.43058 -0.629619 0
M  V30 11814 H 1109.82 -0.915505 -3.11109 0
M  V30 11815 H 1109.6 -2.67326 -2.86844 0
M  V30 11816 H 1111.09 -2.05025 -3.63805 0
M  V30 11817 N 1111.53 0.65634 -1.43283 0
M  V30 11818 C 1112.77 1.4281 -1.46235 0
M  V30 11819 C 1113.14 1.9182 -0.0830126 0
M  V30 11820 O 1114.34 2.68797 0.0127701 0
M  V30 11821 C 1112.61 2.58008 -2.47319 0
M  V30 11822 S 1114.17 3.46582 -2.69122 0
M  V30 11823 H 1110.98 0.487523 -0.517534 0
M  V30 11824 H 1113.59 0.762298 -1.80026 0
M  V30 11825 H 1112.29 2.20271 -3.46279 0
M  V30 11826 H 1111.82 3.29441 -2.15016 0
M  V30 11827 H 1113.84 4.54629 -1.98813 0
M  V30 11828 N 1113.01 1.29761 0.894412 0
M  V30 11829 C 1113.96 1.15341 1.99912 0
M  V30 11830 C 1114.93 0.0453488 1.66038 0
M  V30 11831 O 1116.11 0.213829 1.89598 0
M  V30 11832 C 1113.25 0.841432 3.34685 0
M  V30 11833 C 1112.36 2.03046 3.81309 0
M  V30 11834 C 1111.5 1.65739 5.04682 0
M  V30 11835 C 1110.54 2.81191 5.43689 0
M  V30 11836 N 1109.68 2.44244 6.58247 0
M  V30 11837 H 1114.52 2.09854 2.11578 0
M  V30 11838 H 1112.05 1.04421 1.03608 0
M  V30 11839 H 1114.01 0.641211 4.12243 0
M  V30 11840 H 1112.64 -0.066797 3.22731 0
M  V30 11841 H 1111.69 2.34222 2.9974 0
M  V30 11842 H 1113 2.89538 4.06164 0
M  V30 11843 H 1112.16 1.42036 5.8984 0
M  V30 11844 H 1110.9 0.764019 4.81678 0
M  V30 11845 H 1109.9 3.0557 4.57064 0
M  V30 11846 H 1111.13 3.712 5.68672 0
M  V30 11847 H 1109.07 1.57402 6.36837 0
M  V30 11848 H 1108.99 3.24269 6.82924 0
M  V30 11849 H 1110.26 2.23875 7.46659 0
M  V30 11850 N 1114.49 -1.10549 1.12324 0
M  V30 11851 C 1115.42 -2.16081 0.733768 0
M  V30 11852 C 1116.4 -1.60266 -0.274511 0
M  V30 11853 O 1117.58 -1.87743 -0.168742 0
M  V30 11854 C 1114.71 -3.38591 0.0858914 0
M  V30 11855 C 1113.76 -4.13097 1.0608 0
M  V30 11856 S 1114.59 -4.68821 2.5878 0
M  V30 11857 C 1115.74 -5.94644 1.95319 0
M  V30 11858 H 1115.98 -2.48784 1.62769 0
M  V30 11859 H 1113.51 -1.22318 0.942209 0
M  V30 11860 H 1115.47 -4.09533 -0.281538 0
M  V30 11861 H 1114.13 -3.04129 -0.785122 0
M  V30 11862 H 1113.32 -5.00934 0.555095 0
M  V30 11863 H 1112.92 -3.4796 1.37112 0
M  V30 11864 H 1115.22 -6.65004 1.29523 0
M  V30 11865 H 1116.16 -6.49875 2.81191 0
M  V30 11866 H 1116.57 -5.4662 1.40951 0
M  V30 11867 N 1115.97 -0.914965 -1.28321 0
M  V30 11868 C 1117.21 -0.547665 -1.94538 0
M  V30 11869 C 1117.53 0.911834 -1.72368 0
M  V30 11870 O 1116.8 1.64481 -1.06408 0
M  V30 11871 H 1115.38 -0.199549 -0.719853 0
M  V30 11872 H 1118.05 -1.16459 -1.5628 0
M  V30 11873 H 1117.14 -0.743138 -3.03124 0
M  V30 11874 N 1117.44 1.42219 -0.679077 0
M  V30 11875 C 1118.72 1.95155 -0.13188 0
M  V30 11876 C 1119.1 1.6193 1.35433 0
M  V30 11877 O 1118.45 0.917672 2.09263 0
M  V30 11878 C 1118.66 3.46635 -0.405578 0
M  V30 11879 C 1120.01 4.23359 -0.324394 0
M  V30 11880 O 1121.03 3.54578 -0.339564 0
M  V30 11881 O 1119.89 5.45831 -0.270268 0
M  V30 11882 H 1116.98 0.826983 -0.00535438 0
M  V30 11883 H 1119.53 1.52024 -0.754101 0
M  V30 11884 H 1118.3 3.6404 -1.43495 0
M  V30 11885 H 1117.92 3.96823 0.248439 0
M  V30 11886 N 1118.92 0.422693 1.51826 0
M  V30 11887 C 1120.34 0.0742364 1.59427 0
M  V30 11888 C 1120.54 -1.41491 1.43466 0
M  V30 11889 O 1119.59 -2.18326 1.26846 0
M  V30 11890 C 1120.91 0.581272 2.95028 0
M  V30 11891 C 1122.45 0.54043 3.08299 0
M  V30 11892 C 1122.93 1.0242 4.46401 0
M  V30 11893 N 1124.42 0.981576 4.5268 0
M  V30 11894 C 1125.16 1.32693 5.57835 0
M  V30 11895 N 1124.65 1.74441 6.70479 0
M  V30 11896 N 1126.44 1.24603 5.48115 0
M  V30 11897 H 1118.6 1.39178 1.60447 0
M  V30 11898 H 1120.86 0.572607 0.75553 0
M  V30 11899 H 1120.56 1.62261 3.12032 0
M  V30 11900 H 1120.44 -0.00176969 3.772 0
M  V30 11901 H 1122.83 -0.491895 2.90971 0
M  V30 11902 H 1122.91 1.15969 2.28002 0
M  V30 11903 H 1122.55 2.05491 4.64474 0
M  V30 11904 H 1122.48 0.381613 5.25215 0
M  V30 11905 H 1124.97 0.674808 3.71826 0
M  V30 11906 H 1125.28 1.99068 7.46721 0
M  V30 11907 H 1123.63 1.78356 6.71725 0
M  V30 11908 H 1126.82 0.918641 4.58997 0
M  V30 11909 H 1126.99 1.51847 6.29958 0
M  V30 11910 N 1120.4 -1.5685 0.153553 0
M  V30 11911 C 1121.31 -2.20664 -0.796528 0
M  V30 11912 C 1122.33 -1.19289 -1.26674 0
M  V30 11913 O 1123.5 -1.51889 -1.32256 0
M  V30 11914 C 1120.57 -2.82088 -2.01561 0
M  V30 11915 C 1119.63 -3.9861 -1.59401 0
M  V30 11916 C 1118.86 -4.57096 -2.75498 0
M  V30 11917 O 1119.08 -4.14462 -3.9189 0
M  V30 11918 O 1118.02 -5.47254 -2.50593 0
M  V30 11919 H 1121.84 -3.02376 -0.283282 0
M  V30 11920 H 1119.43 -1.49218 -0.0737927 0
M  V30 11921 H 1121.31 -3.21103 -2.72893 0
M  V30 11922 H 1119.99 -2.03385 -2.51826 0
M  V30 11923 H 1118.89 -3.64299 -0.850725 0
M  V30 11924 H 1120.23 -4.78853 -1.13845 0
M  V30 11925 N 1121.88 0.120221 -1.57141 0
M  V30 11926 C 1122.84 1.13159 -1.99318 0
M  V30 11927 C 1123.84 1.34376 -0.883158 0
M  V30 11928 O 1125.03 1.30914 -1.14922 0
M  V30 11929 C 1122.16 2.48632 -2.33227 0
M  V30 11930 H 1123.36 0.769119 -2.8987 0
M  V30 11931 H 1120.91 0.364475 -1.51991 0
M  V30 11932 H 1121.64 2.89802 -1.45551 0
M  V30 11933 H 1121.43 2.34587 -3.14184 0
M  V30 11934 H 1122.92 3.21423 -2.66603 0
M  V30 11935 N 1123.36 1.52689 0.390367 0
M  V30 11936 C 1124.29 1.80338 1.48325 0
M  V30 11937 C 1125.27 0.655338 1.56969 0
M  V30 11938 O 1126.45 0.902792 1.7194 0
M  V30 11939 C 1123.58 1.97101 2.85952 0
M  V30 11940 C 1122.54 3.12783 2.92148 0
M  V30 11941 C 1121.86 3.14798 4.32211 0
M  V30 11942 C 1123.16 4.5188 2.61919 0
M  V30 11943 H 1124.86 2.71857 1.25437 0
M  V30 11944 H 1122.4 1.30813 0.601995 0
M  V30 11945 H 1124.36 2.15027 3.62411 0
M  V30 11946 H 1123.08 1.02271 3.10174 0
M  V30 11947 H 1121.74 2.94638 2.18137 0
M  V30 11948 H 1121.39 2.17653 4.53471 0
M  V30 11949 H 1121.09 3.92507 4.37278 0
M  V30 11950 H 1122.61 3.34877 5.10578 0
M  V30 11951 H 1124.02 4.70134 3.28096 0
M  V30 11952 H 1122.42 5.31647 2.78337 0
M  V30 11953 H 1123.49 4.58689 1.57266 0
M  V30 11954 N 1124.83 -0.648732 1.43629 0
M  V30 11955 C 1125.78 -1.78269 1.49409 0
M  V30 11956 C 1126.78 -1.6537 0.367288 0
M  V30 11957 O 1127.98 -1.71663 0.541476 0
M  V30 11958 H 1124.36 -0.58824 0.468484 0
M  V30 11959 H 1126.33 -1.70514 2.44883 0
M  V30 11960 C 1125.08 -3.16545 1.43856 0
M  V30 11961 H 1124.4 -3.2711 2.29868 0
M  V30 11962 H 1125.84 -3.95833 1.51961 0
M  V30 11963 C 1124.3 -3.36535 0.156779 0
M  V30 11964 O 1124.83 -3.94052 -0.780124 0
M  V30 11965 N 1123.04 -2.90526 0.0655319 0
M  V30 11966 H 1122.58 -2.43904 0.828768 0
M  V30 11967 H 1122.54 -3.04277 -0.791379 0
M  V30 11968 N 1126.31 -1.30234 -0.887518 0
M  V30 11969 C 1127.26 -1.16302 -2.01436 0
M  V30 11970 C 1128.25 -0.0755422 -1.69231 0
M  V30 11971 O 1129.46 -0.236213 -1.78443 0
M  V30 11972 H 1125.84 -0.35961 -0.660443 0
M  V30 11973 H 1127.81 -2.11677 -2.10322 0
M  V30 11974 C 1126.56 -0.869009 -3.36665 0
M  V30 11975 H 1125.88 -1.69787 -3.61956 0
M  V30 11976 H 1127.32 -0.811621 -4.16159 0
M  V30 11977 C 1125.78 0.428021 -3.3417 0
M  V30 11978 O 1126.31 1.45033 -3.74604 0
M  V30 11979 N 1124.51 0.438264 -2.87276 0
M  V30 11980 H 1124.06 -0.394142 -2.54567 0
M  V30 11981 H 1124.02 1.30604 -2.85989 0
M  V30 11982 N 1127.79 1.09952 -1.12909 0
M  V30 11983 C 1128.75 2.14615 -0.804548 0
M  V30 11984 C 1129.75 1.5975 0.18345 0
M  V30 11985 O 1130.94 1.74147 -0.0429623 0
M  V30 11986 C 1128.08 3.40333 -0.196471 0
M  V30 11987 H 1129.27 2.44835 -1.73193 0
M  V30 11988 H 1126.82 1.25399 -0.932997 0
M  V30 11989 H 1127.56 3.15735 0.740388 0
M  V30 11990 H 1127.34 3.81444 -0.907886 0
M  V30 11991 H 1128.83 4.17598 0.0139264 0
M  V30 11992 N 1129.27 0.921757 1.27833 0
M  V30 11993 C 1130.49 0.574599 1.99281 0
M  V30 11994 C 1130.92 -0.838905 1.68357 0
M  V30 11995 O 1130.28 -1.56196 0.920468 0
M  V30 11996 C 1130.32 0.800027 3.51613 0
M  V30 11997 O 1129.43 -0.137215 4.12172 0
M  V30 11998 H 1128.77 0.221887 0.625829 0
M  V30 11999 H 1131.3 1.23939 1.62789 0
M  V30 12000 H 1131.31 0.71326 4.01717 0
M  V30 12001 H 1129.98 1.83042 3.73455 0
M  V30 12002 H 1128.56 -0.00103872 3.729 0
M  V30 12003 N 1130.75 -1.41857 0.686609 0
M  V30 12004 C 1131.97 -2.06219 0.221037 0
M  V30 12005 C 1132.4 -1.51298 -1.11762 0
M  V30 12006 O 1131.75 -0.636253 -1.69769 0
M  V30 12007 C 1131.8 -3.60153 0.179425 0
M  V30 12008 O 1130.91 -4.03577 -0.848481 0
M  V30 12009 H 1130.25 -0.654787 0.110228 0
M  V30 12010 H 1132.78 -1.81783 0.938948 0
M  V30 12011 H 1132.79 -4.07999 0.00725332 0
M  V30 12012 H 1131.46 -3.99498 1.15647 0
M  V30 12013 H 1130.04 -3.67255 -0.646393 0
M  V30 12014 N 1132.22 -0.430739 -1.51599 0
M  V30 12015 C 1133.15 0.374695 -2.30474 0
M  V30 12016 C 1134.14 1.02694 -1.35602 0
M  V30 12017 O 1135.32 1.03184 -1.6452 0
M  V30 12018 C 1132.45 1.47981 -3.14196 0
M  V30 12019 C 1131.4 0.951415 -4.17291 0
M  V30 12020 C 1130.73 2.15177 -4.89492 0
M  V30 12021 C 1132.03 -0.00957951 -5.22299 0
M  V30 12022 H 1133.72 -0.283508 -2.98055 0
M  V30 12023 H 1131.27 -0.13779 -1.43339 0
M  V30 12024 H 1133.22 2.05043 -3.68151 0
M  V30 12025 H 1131.95 2.16621 -2.44424 0
M  V30 12026 H 1130.61 0.403052 -3.64378 0
M  V30 12027 H 1130.25 2.82421 -4.1623 0
M  V30 12028 H 1129.95 1.80464 -5.59202 0
M  V30 12029 H 1131.48 2.72806 -5.46269 0
M  V30 12030 H 1132.89 0.470527 -5.71366 0
M  V30 12031 H 1131.29 -0.268959 -5.99497 0
M  V30 12032 H 1132.36 -0.948297 -4.75537 0
M  V30 12033 N 1133.7 1.56767 -0.161869 0
M  V30 12034 C 1134.95 1.96594 0.485496 0
M  V30 12035 C 1135.28 1.04743 1.63887 0
M  V30 12036 O 1134.53 0.079602 1.95538 0
M  V30 12037 C 1134.83 3.42567 1.01894 0
M  V30 12038 C 1134.5 4.50897 -0.0175419 0
M  V30 12039 C 1133.16 4.80249 -0.302429 0
M  V30 12040 C 1135.51 5.16181 -0.721572 0
M  V30 12041 C 1132.84 5.72187 -1.2969 0
M  V30 12042 C 1135.19 6.09191 -1.70496 0
M  V30 12043 C 1133.86 6.36915 -1.99739 0
M  V30 12044 H 1133.13 0.719388 0.177656 0
M  V30 12045 H 1135.77 1.89837 -0.251839 0
M  V30 12046 H 1134.08 3.4623 1.83391 0
M  V30 12047 H 1135.77 3.70719 1.52867 0
M  V30 12048 H 1132.36 4.28062 0.21468 0
M  V30 12049 H 1136.55 4.93624 -0.514681 0
M  V30 12050 H 1131.8 5.91953 -1.52974 0
M  V30 12051 H 1135.98 6.58849 -2.25591 0
M  V30 12052 H 1133.61 7.07958 -2.76948 0
M  V30 12053 N 1135.18 -0.111886 1.57202 0
M  V30 12054 C 1136.09 -1.1556 2.04165 0
M  V30 12055 C 1137.11 -1.44898 0.963354 0
M  V30 12056 O 1138.28 -1.55873 1.27536 0
M  V30 12057 C 1135.35 -2.46048 2.44256 0
M  V30 12058 C 1134.41 -2.24043 3.66201 0
M  V30 12059 C 1133.64 -3.4831 4.04371 0
M  V30 12060 O 1133.86 -4.55895 3.42806 0
M  V30 12061 O 1132.8 -3.38891 4.9743 0
M  V30 12062 H 1136.62 -0.786778 2.93332 0
M  V30 12063 H 1134.21 -0.323196 1.45862 0
M  V30 12064 H 1136.09 -3.22916 2.70745 0
M  V30 12065 H 1134.77 -2.8239 1.58233 0
M  V30 12066 H 1133.67 -1.4501 3.44852 0
M  V30 12067 H 1135.01 -1.92602 4.52952 0
M  V30 12068 N 1136.66 -1.52894 -0.382264 0
M  V30 12069 C 1137.59 -1.74413 -1.48703 0
M  V30 12070 C 1138.6 -0.624663 -1.50339 0
M  V30 12071 O 1139.79 -0.900527 -1.54119 0
M  V30 12072 C 1136.89 -1.79387 -2.8753 0
M  V30 12073 C 1136.07 -3.08794 -3.09783 0
M  V30 12074 C 1135.12 -3.05226 -4.2863 0
M  V30 12075 O 1134.15 -3.79073 -4.24609 0
M  V30 12076 N 1135.35 -2.2488 -5.35172 0
M  V30 12077 H 1138.12 -2.69734 -1.30628 0
M  V30 12078 H 1135.68 -1.51465 -0.571842 0
M  V30 12079 H 1137.67 -1.74498 -3.65147 0
M  V30 12080 H 1136.24 -0.914233 -2.98932 0
M  V30 12081 H 1135.46 -3.27118 -2.19971 0
M  V30 12082 H 1136.75 -3.94347 -3.21509 0
M  V30 12083 H 1136.15 -1.64363 -5.41296 0
M  V30 12084 H 1134.7 -2.25825 -6.1143 0
M  V30 12085 N 1138.14 0.641106 -1.43971 0
M  V30 12086 C 1139.38 1.40118 -1.4744 0
M  V30 12087 C 1139.74 1.92131 -0.101647 0
M  V30 12088 O 1139.03 1.70112 0.881614 0
M  V30 12089 C 1139.23 2.59092 -2.46183 0
M  V30 12090 C 1139.05 2.18725 -3.92924 0
M  V30 12091 C 1137.82 2.06475 -4.6119 0
M  V30 12092 C 1140.02 1.78255 -4.82421 0
M  V30 12093 N 1138 1.59566 -5.928 0
M  V30 12094 C 1139.38 1.42517 -6.03398 0
M  V30 12095 C 1141.43 1.65546 -4.69573 0
M  V30 12096 C 1140.13 0.953428 -7.12953 0
M  V30 12097 C 1142.16 1.19776 -5.79144 0
M  V30 12098 C 1141.52 0.84983 -6.99255 0
M  V30 12099 H 1137.62 0.507917 -0.594596 0
M  V30 12100 H 1140.2 0.736517 -1.80232 0
M  V30 12101 H 1138.38 3.232 -2.15398 0
M  V30 12102 H 1140.11 3.25847 -2.40012 0
M  V30 12103 H 1136.86 2.26615 -4.15863 0
M  V30 12104 H 1137.29 1.38438 -6.62694 0
M  V30 12105 H 1141.93 1.91081 -3.77158 0
M  V30 12106 H 1139.65 0.68558 -8.05187 0
M  V30 12107 H 1143.23 1.10415 -5.71226 0
M  V30 12108 H 1142.11 0.501081 -7.82597 0
M  V30 12109 N 1139.62 1.30703 0.880598 0
M  V30 12110 C 1140.55 1.20033 2.00286 0
M  V30 12111 C 1141.53 0.0899614 1.69862 0
M  V30 12112 O 1142.71 0.272747 1.92275 0
M  V30 12113 C 1139.84 0.895902 3.35546 0
M  V30 12114 C 1138.8 1.96468 3.80242 0
M  V30 12115 C 1138.12 1.51316 5.12843 0
M  V30 12116 C 1139.42 3.37637 3.98496 0
M  V30 12117 H 1141.12 2.13922 2.0947 0
M  V30 12118 H 1138.66 1.02989 1.00644 0
M  V30 12119 H 1140.61 0.807899 4.13583 0
M  V30 12120 H 1139.34 -0.0786636 3.26505 0
M  V30 12121 H 1138 2.0424 3.04437 0
M  V30 12122 H 1137.65 0.52674 5.00234 0
M  V30 12123 H 1137.35 2.22807 5.43719 0
M  V30 12124 H 1138.87 1.43903 5.93401 0
M  V30 12125 H 1140.28 3.326 4.66959 0
M  V30 12126 H 1138.68 4.07253 4.40755 0
M  V30 12127 H 1139.75 3.79205 3.02211 0
M  V30 12128 N 1141.09 -1.09351 1.1349 0
M  V30 12129 C 1142.04 -2.18099 0.808426 0
M  V30 12130 C 1143.04 -1.68099 -0.209571 0
M  V30 12131 O 1144.24 -1.79877 -0.0666417 0
M  V30 12132 H 1140.62 -0.711432 0.243658 0
M  V30 12133 H 1142.59 -2.42867 1.73373 0
M  V30 12134 C 1141.34 -3.46475 0.291615 0
M  V30 12135 H 1140.66 -3.85319 1.06627 0
M  V30 12136 H 1142.1 -4.23878 0.101616 0
M  V30 12137 C 1140.56 -3.22245 -0.982827 0
M  V30 12138 O 1141.09 -3.44947 -2.0585 0
M  V30 12139 N 1139.29 -2.75845 -0.914218 0
M  V30 12140 H 1138.84 -2.57571 -0.03872 0
M  V30 12141 H 1138.8 -2.60011 -1.76753 0
M  V30 12142 N 1142.57 -0.928524 -1.27343 0
M  V30 12143 C 1143.82 -0.568267 -1.93946 0
M  V30 12144 C 1144.14 0.893501 -1.73325 0
M  V30 12145 O 1143.41 1.63344 -1.08147 0
M  V30 12146 H 1141.99 -0.207173 -0.717696 0
M  V30 12147 H 1144.65 -1.1811 -1.55036 0
M  V30 12148 H 1143.75 -0.775246 -3.02318 0
M  V30 12149 N 1144.05 1.41491 -0.694123 0
M  V30 12150 C 1145.28 2.05579 -0.233466 0
M  V30 12151 C 1145.69 1.5223 1.11675 0
M  V30 12152 O 1145.05 0.669937 1.69759 0
M  V30 12153 C 1145.1 3.61047 -0.180967 0
M  V30 12154 O 1144.82 4.12421 -1.47785 0
M  V30 12155 C 1146.32 4.42278 0.300853 0
M  V30 12156 H 1143.54 0.662097 -0.108943 0
M  V30 12157 H 1146.09 1.81288 -0.946299 0
M  V30 12158 H 1144.24 3.84381 0.482678 0
M  V30 12159 H 1144.66 5.06454 -1.364 0
M  V30 12160 H 1146.13 5.51256 0.286464 0
M  V30 12161 H 1146.61 4.18276 1.33948 0
M  V30 12162 H 1147.21 4.24004 -0.331741 0
M  V30 12163 N 1145.53 0.438773 1.51369 0
M  V30 12164 C 1146.77 -0.127401 2.02399 0
M  V30 12165 C 1147.11 -1.42235 1.32223 0
M  V30 12166 O 1146.38 -1.89513 0.437607 0
M  V30 12167 C 1146.66 -0.344673 3.58447 0
M  V30 12168 C 1146.52 0.969027 4.39238 0
M  V30 12169 C 1147.84 -1.11381 4.25773 0
M  V30 12170 H 1144.96 -0.0448281 0.735635 0
M  V30 12171 H 1147.6 0.57805 1.80993 0
M  V30 12172 H 1145.75 -0.945582 3.76817 0
M  V30 12173 H 1147.42 1.60403 4.32514 0
M  V30 12174 H 1145.66 1.57329 4.04265 0
M  V30 12175 H 1146.33 0.771029 5.46589 0
M  V30 12176 H 1148.81 -0.604785 4.11681 0
M  V30 12177 H 1147.69 -1.23459 5.34835 0
M  V30 12178 H 1147.95 -2.14225 3.8673 0
M  V30 12179 N 1147.01 -1.56678 0.170181 0
M  V30 12180 C 1148.23 -2.0166 -0.484543 0
M  V30 12181 C 1148.66 -1.04962 -1.56091 0
M  V30 12182 O 1148.01 -0.0289887 -1.81277 0
M  V30 12183 C 1148.06 -3.45252 -1.04084 0
M  V30 12184 O 1147.17 -3.51623 -2.15488 0
M  V30 12185 H 1146.51 -0.653765 -0.116135 0
M  V30 12186 H 1149.04 -2.02761 0.273737 0
M  V30 12187 H 1149.05 -3.84534 -1.36373 0
M  V30 12188 H 1147.72 -4.15131 -0.252738 0
M  V30 12189 H 1146.3 -3.242 -1.84252 0
M  V30 12190 N 1148.48 0.103547 -1.57259 0
M  V30 12191 C 1149.41 1.12714 -2.04494 0
M  V30 12192 C 1150.39 1.42278 -0.932255 0
M  V30 12193 O 1151.58 1.52453 -1.20298 0
M  V30 12194 C 1148.71 2.44927 -2.46228 0
M  V30 12195 C 1147.66 2.2979 -3.61082 0
M  V30 12196 C 1146.99 3.67105 -3.88765 0
M  V30 12197 C 1148.29 1.7455 -4.9227 0
M  V30 12198 H 1149.98 0.734198 -2.90258 0
M  V30 12199 H 1147.53 0.351725 -1.39638 0
M  V30 12200 H 1149.48 3.16798 -2.77879 0
M  V30 12201 H 1148.21 2.8614 -1.57453 0
M  V30 12202 H 1146.87 1.60366 -3.29664 0
M  V30 12203 H 1146.51 4.05831 -2.97171 0
M  V30 12204 H 1146.21 3.57825 -4.66084 0
M  V30 12205 H 1147.74 4.40456 -4.22884 0
M  V30 12206 H 1149.15 2.36253 -5.22358 0
M  V30 12207 H 1147.55 1.76051 -5.73695 0
M  V30 12208 H 1148.62 0.704242 -4.79759 0
M  V30 12209 N 1149.96 1.53094 0.37415 0
M  V30 12210 C 1151.37 1.60641 0.951381 0
M  V30 12211 C 1151.72 0.468474 1.90525 0
M  V30 12212 O 1150.85 -0.406347 2.12551 0
M  V30 12213 C 1151.44 2.91166 1.73228 0
M  V30 12214 C 1150 3.01077 2.25898 0
M  V30 12215 C 1149.15 2.55873 1.06885 0
M  V30 12216 H 1152.1 1.57959 0.153214 0
M  V30 12217 H 1152.12 2.78487 2.59278 0
M  V30 12218 H 1151.63 3.73968 1.03778 0
M  V30 12219 H 1149.73 2.22844 2.98615 0
M  V30 12220 H 1149.85 4.05998 2.54367 0
M  V30 12221 H 1148.21 2.10544 1.43329 0
M  V30 12222 H 1148.99 3.41084 0.38947 0
M  V30 12223 N 1151.44 -0.633461 1.44309 0
M  V30 12224 C 1152.69 -1.39513 1.47187 0
M  V30 12225 C 1153.02 -1.93926 0.103186 0
M  V30 12226 O 1152.29 -1.73512 -0.878853 0
M  V30 12227 C 1152.58 -2.56213 2.53036 0
M  V30 12228 C 1152.43 -2.07164 3.99253 0
M  V30 12229 C 1153.75 -3.58403 2.55412 0
M  V30 12230 H 1150.87 -0.505936 0.535908 0
M  V30 12231 H 1153.51 -0.716445 1.75975 0
M  V30 12232 H 1151.66 -3.14111 2.28619 0
M  V30 12233 H 1153.33 -1.54115 4.34795 0
M  V30 12234 H 1151.57 -1.38367 4.11141 0
M  V30 12235 H 1152.25 -2.91172 4.6896 0
M  V30 12236 H 1154.72 -3.103 2.77224 0
M  V30 12237 H 1153.6 -4.37581 3.31382 0
M  V30 12238 H 1153.86 -4.12316 1.59523 0
M  V30 12239 N 1152.92 -1.31168 -0.873655 0
M  V30 12240 C 1153.87 -1.18432 -2.00191 0
M  V30 12241 C 1154.86 -0.0934873 -1.69142 0
M  V30 12242 O 1156.07 -0.255126 -1.78183 0
M  V30 12243 H 1152.44 -0.366594 -0.656592 0
M  V30 12244 H 1154.41 -2.13896 -2.08065 0
M  V30 12245 C 1153.16 -0.904668 -3.35725 0
M  V30 12246 H 1152.48 -1.73617 -3.60135 0
M  V30 12247 H 1153.92 -0.855715 -4.15275 0
M  V30 12248 C 1152.38 0.392554 -3.34605 0
M  V30 12249 O 1152.91 1.41052 -3.76121 0
M  V30 12250 N 1151.12 0.40777 -2.87725 0
M  V30 12251 H 1150.67 -0.42112 -2.54134 0
M  V30 12252 H 1150.62 1.27564 -2.87358 0
M  V30 12253 N 1154.4 1.08748 -1.14068 0
M  V30 12254 C 1155.33 2.17591 -0.84714 0
M  V30 12255 C 1156.31 1.68962 0.196415 0
M  V30 12256 O 1157.49 1.94125 0.0538415 0
M  V30 12257 C 1154.62 3.45823 -0.320005 0
M  V30 12258 C 1153.58 4.07824 -1.2986 0
M  V30 12259 C 1152.9 5.30965 -0.630925 0
M  V30 12260 C 1154.2 4.49512 -2.65963 0
M  V30 12261 H 1155.9 2.42404 -1.75729 0
M  V30 12262 H 1153.44 1.16502 -0.846356 0
M  V30 12263 H 1155.4 4.21276 -0.102271 0
M  V30 12264 H 1154.12 3.20553 0.625561 0
M  V30 12265 H 1152.78 3.34398 -1.50245 0
M  V30 12266 H 1152.43 5.01979 0.320337 0
M  V30 12267 H 1152.13 5.73402 -1.28388 0
M  V30 12268 H 1153.65 6.09136 -0.422635 0
M  V30 12269 H 1155.06 5.16159 -2.49506 0
M  V30 12270 H 1153.46 5.02857 -3.27498 0
M  V30 12271 H 1154.53 3.6157 -3.23102 0
M  V30 12272 N 1155.87 0.935264 1.26849 0
M  V30 12273 C 1157.29 0.636661 1.46352 0
M  V30 12274 C 1157.49 -0.811823 1.84423 0
M  V30 12275 O 1156.55 -1.58902 1.9623 0
M  V30 12276 C 1157.86 1.59301 2.55036 0
M  V30 12277 C 1159.41 1.60207 2.68892 0
M  V30 12278 C 1159.88 2.54558 3.80742 0
M  V30 12279 N 1161.37 2.52809 3.88126 0
M  V30 12280 C 1162.11 3.225 4.74111 0
M  V30 12281 N 1161.6 4.01598 5.64527 0
M  V30 12282 N 1163.4 3.11481 4.67906 0
M  V30 12283 H 1155.55 1.8716 1.00423 0
M  V30 12284 H 1157.81 0.803968 0.502334 0
M  V30 12285 H 1157.52 2.62671 2.33874 0
M  V30 12286 H 1157.39 1.34052 3.52576 0
M  V30 12287 H 1159.78 0.575649 2.89431 0
M  V30 12288 H 1159.86 1.89508 1.71815 0
M  V30 12289 H 1159.5 3.57314 3.60956 0
M  V30 12290 H 1159.43 2.22549 4.77263 0
M  V30 12291 H 1161.92 1.9537 3.2348 0
M  V30 12292 H 1162.24 4.51742 6.27016 0
M  V30 12293 H 1160.58 4.057 5.64298 0
M  V30 12294 H 1163.77 2.49175 3.9627 0
M  V30 12295 H 1163.95 3.66064 5.34697 0
M  V30 12296 N 1157.35 -1.41121 0.701616 0
M  V30 12297 C 1158.28 -2.33436 0.0545974 0
M  V30 12298 C 1159.26 -1.52144 -0.760662 0
M  V30 12299 O 1160.45 -1.80661 -0.712414 0
M  V30 12300 C 1157.58 -3.36015 -0.878117 0
M  V30 12301 C 1156.53 -4.27664 -0.169511 0
M  V30 12302 C 1155.86 -5.20666 -1.21699 0
M  V30 12303 C 1157.16 -5.13254 0.967859 0
M  V30 12304 H 1158.85 -2.87791 0.825637 0
M  V30 12305 H 1156.4 -1.38377 0.398484 0
M  V30 12306 H 1158.35 -3.99526 -1.34004 0
M  V30 12307 H 1157.08 -2.80024 -1.68089 0
M  V30 12308 H 1155.73 -3.65586 0.272441 0
M  V30 12309 H 1155.38 -4.60987 -2.01246 0
M  V30 12310 H 1155.08 -5.82822 -0.747836 0
M  V30 12311 H 1156.61 -5.87053 -1.6793 0
M  V30 12312 H 1158.02 -5.70298 0.585944 0
M  V30 12313 H 1156.42 -5.84381 1.3645 0
M  V30 12314 H 1157.49 -4.5006 1.80483 0
M  V30 12315 N 1158.83 -0.446794 -1.51134 0
M  V30 12316 C 1159.76 0.350229 -2.30858 0
M  V30 12317 C 1160.74 1.0125 -1.36684 0
M  V30 12318 O 1161.93 1.01433 -1.65605 0
M  V30 12319 C 1159.06 1.4464 -3.15748 0
M  V30 12320 C 1158.01 0.907102 -4.18277 0
M  V30 12321 C 1157.34 2.09974 -4.91747 0
M  V30 12322 C 1158.64 -0.0649758 -5.2226 0
M  V30 12323 H 1160.33 -0.315105 -2.97737 0
M  V30 12324 H 1157.88 -0.152985 -1.43185 0
M  V30 12325 H 1159.83 2.01127 -3.70305 0
M  V30 12326 H 1158.55 2.14016 -2.46708 0
M  V30 12327 H 1157.21 0.364382 -3.64785 0
M  V30 12328 H 1156.86 2.77991 -4.19202 0
M  V30 12329 H 1156.56 1.74523 -5.61084 0
M  V30 12330 H 1158.08 2.66996 -5.49131 0
M  V30 12331 H 1159.5 0.4099 -5.71833 0
M  V30 12332 H 1157.9 -0.332529 -5.99178 0
M  V30 12333 H 1158.97 -0.998681 -4.74504 0
M  V30 12334 N 1160.31 1.56586 -0.178487 0
M  V30 12335 C 1161.55 1.9739 0.465306 0
M  V30 12336 C 1161.89 1.06474 1.6241 0
M  V30 12337 O 1161.16 0.113316 1.9417 0
M  V30 12338 C 1161.45 3.47577 0.941408 0
M  V30 12339 C 1161.3 4.49271 -0.218054 0
M  V30 12340 C 1162.62 4.01038 1.81263 0
M  V30 12341 H 1159.74 0.717676 0.167663 0
M  V30 12342 H 1162.38 1.88128 -0.266067 0
M  V30 12343 H 1160.53 3.556 1.56463 0
M  V30 12344 H 1162.2 4.53301 -0.855332 0
M  V30 12345 H 1160.44 4.24936 -0.872441 0
M  V30 12346 H 1161.11 5.51776 0.157315 0
M  V30 12347 H 1163.59 3.9569 1.28718 0
M  V30 12348 H 1162.47 5.06526 2.11476 0
M  V30 12349 H 1162.73 3.45288 2.76096 0
M  V30 12350 N 1161.79 -0.095206 1.57312 0
M  V30 12351 C 1163.02 -0.811092 1.90013 0
M  V30 12352 C 1163.42 -1.72807 0.770359 0
M  V30 12353 O 1162.77 -1.81755 -0.266615 0
M  V30 12354 C 1162.83 -1.67744 3.17966 0
M  V30 12355 C 1162.49 -0.932301 4.47389 0
M  V30 12356 C 1163.49 -0.262161 5.19239 0
M  V30 12357 C 1161.18 -0.906414 4.94054 0
M  V30 12358 C 1163.17 0.423898 6.35989 0
M  V30 12359 C 1160.86 -0.216569 6.10716 0
M  V30 12360 C 1161.85 0.447408 6.81533 0
M  V30 12361 O 1161.54 1.12619 7.95972 0
M  V30 12362 H 1161.27 -0.237154 0.633035 0
M  V30 12363 H 1163.83 -0.0768976 2.05256 0
M  V30 12364 H 1162.06 -2.45387 2.98868 0
M  V30 12365 H 1163.75 -2.26988 3.36498 0
M  V30 12366 H 1164.51 -0.273621 4.84228 0
M  V30 12367 H 1160.39 -1.41267 4.38822 0
M  V30 12368 H 1163.94 0.942727 6.91201 0
M  V30 12369 H 1159.83 -0.202955 6.45181 0
M  V30 12370 H 1160.6 1.03308 8.11954 0
M  V30 12371 N 1163.26 -1.53291 -0.366026 0
M  V30 12372 C 1164.68 -1.43053 -0.707669 0
M  V30 12373 C 1164.88 -0.56925 -1.93292 0
M  V30 12374 O 1163.94 -0.0515214 -2.52447 0
M  V30 12375 C 1165.25 -2.86239 -0.921292 0
M  V30 12376 C 1166.8 -2.95868 -1.02133 0
M  V30 12377 C 1167.27 -4.40114 -1.26743 0
M  V30 12378 N 1168.76 -4.43541 -1.33514 0
M  V30 12379 C 1169.5 -5.52259 -1.54264 0
M  V30 12380 N 1168.99 -6.71024 -1.72335 0
M  V30 12381 N 1170.79 -5.39836 -1.5663 0
M  V30 12382 H 1162.94 -2.07795 0.43988 0
M  V30 12383 H 1165.2 -0.938376 0.134736 0
M  V30 12384 H 1164.91 -3.51578 -0.0928042 0
M  V30 12385 H 1164.78 -3.29862 -1.82951 0
M  V30 12386 H 1167.17 -2.30683 -1.84036 0
M  V30 12387 H 1167.25 -2.5564 -0.0905097 0
M  V30 12388 H 1166.89 -5.05872 -0.453409 0
M  V30 12389 H 1166.82 -4.77914 -2.21146 0
M  V30 12390 H 1169.31 -3.57949 -1.21165 0
M  V30 12391 H 1169.63 -7.49649 -1.8774 0
M  V30 12392 H 1167.97 -6.7401 -1.69514 0
M  V30 12393 H 1171.16 -4.46017 -1.4208 0
M  V30 12394 H 1171.34 -6.24629 -1.72461 0
M  V30 12395 N 1164.74 0.6258 -1.44643 0
M  V30 12396 C 1165.97 1.41028 -1.50979 0
M  V30 12397 C 1166.38 1.88717 -0.135092 0
M  V30 12398 O 1165.72 1.61778 0.870268 0
M  V30 12399 C 1165.79 2.66094 -2.41732 0
M  V30 12400 C 1165.45 2.40166 -3.88805 0
M  V30 12401 C 1166.45 2.01661 -4.79196 0
M  V30 12402 C 1164.13 2.53641 -4.33557 0
M  V30 12403 C 1166.13 1.76966 -6.12341 0
M  V30 12404 C 1163.81 2.2856 -5.66748 0
M  V30 12405 C 1164.81 1.90282 -6.55959 0
M  V30 12406 O 1164.5 1.65484 -7.86683 0
M  V30 12407 H 1164.23 0.438757 -0.514265 0
M  V30 12408 H 1166.78 0.772034 -1.90339 0
M  V30 12409 H 1165.01 3.32575 -1.97309 0
M  V30 12410 H 1166.7 3.28107 -2.38957 0
M  V30 12411 H 1167.47 1.90802 -4.45892 0
M  V30 12412 H 1163.35 2.82404 -3.64375 0
M  V30 12413 H 1166.89 1.47014 -6.81933 0
M  V30 12414 H 1162.79 2.3903 -5.99612 0
M  V30 12415 H 1163.56 1.79686 -7.98533 0
M  V30 12416 N 1166.22 1.31629 0.866686 0
M  V30 12417 C 1167.47 1.21263 1.61678 0
M  V30 12418 C 1167.79 -0.228562 1.93656 0
M  V30 12419 O 1167.06 -1.15014 1.58583 0
M  V30 12420 H 1165.64 0.445817 0.59938 0
M  V30 12421 H 1168.3 1.64998 1.03739 0
M  V30 12422 H 1167.4 1.78669 2.55898 0
M  V30 12423 N 1167.7 -1.08142 1.14644 0
M  V30 12424 C 1168.63 -2.14476 0.779437 0
M  V30 12425 C 1169.61 -1.60812 -0.240454 0
M  V30 12426 O 1170.79 -1.88059 -0.128881 0
M  V30 12427 C 1167.92 -3.38333 0.157692 0
M  V30 12428 C 1166.97 -4.10754 1.14819 0
M  V30 12429 S 1167.8 -4.63227 2.68666 0
M  V30 12430 C 1168.96 -5.90367 2.07888 0
M  V30 12431 H 1169.19 -2.45276 1.68009 0
M  V30 12432 H 1166.72 -1.20292 0.967942 0
M  V30 12433 H 1168.68 -4.10038 -0.194607 0
M  V30 12434 H 1167.34 -3.05726 -0.720435 0
M  V30 12435 H 1166.53 -4.99644 0.661226 0
M  V30 12436 H 1166.14 -3.44974 1.44462 0
M  V30 12437 H 1168.43 -6.62107 1.43599 0
M  V30 12438 H 1169.37 -6.43764 2.94913 0
M  V30 12439 H 1169.78 -5.43507 1.52514 0
M  V30 12440 N 1169.18 -0.941978 -1.26351 0
M  V30 12441 C 1170.11 -0.409504 -2.25512 0
M  V30 12442 C 1171.12 0.467665 -1.55938 0
M  V30 12443 O 1172.31 0.277982 -1.76322 0
M  V30 12444 C 1169.41 0.430487 -3.36155 0
M  V30 12445 C 1168.58 -0.430714 -4.35274 0
M  V30 12446 C 1167.64 0.348976 -5.25042 0
M  V30 12447 O 1166.67 -0.24827 -5.68658 0
M  V30 12448 N 1167.87 1.64531 -5.56695 0
M  V30 12449 H 1170.64 -1.26196 -2.71836 0
M  V30 12450 H 1168.2 -0.810947 -1.40126 0
M  V30 12451 H 1170.19 0.959501 -3.93161 0
M  V30 12452 H 1168.76 1.18375 -2.8932 0
M  V30 12453 H 1167.98 -1.14093 -3.77328 0
M  V30 12454 H 1169.27 -1.01896 -4.98492 0
M  V30 12455 H 1168.67 2.15266 -5.23142 0
M  V30 12456 H 1167.22 2.12055 -6.16341 0
M  V30 12457 N 1170.66 1.40747 -0.709091 0
M  V30 12458 C 1171.6 2.32564 -0.0411392 0
M  V30 12459 C 1172.6 1.51692 0.75404 0
M  V30 12460 O 1173.8 1.67537 0.658139 0
M  V30 12461 H 1170.18 0.75198 0.00549889 0
M  V30 12462 H 1172.15 2.86556 -0.83235 0
M  V30 12463 C 1170.9 3.36604 0.871378 0
M  V30 12464 H 1170.22 3.98895 0.268912 0
M  V30 12465 H 1171.66 4.03359 1.30682 0
M  V30 12466 C 1170.12 2.71566 1.99384 0
M  V30 12467 O 1170.65 2.57392 3.08403 0
M  V30 12468 N 1168.86 2.3005 1.77554 0
M  V30 12469 H 1168.4 2.41778 0.888898 0
M  V30 12470 H 1168.36 1.8687 2.52838 0
M  V30 12471 N 1172.13 0.454803 1.50895 0
M  V30 12472 C 1173.36 -0.106259 2.07128 0
M  V30 12473 C 1173.78 -1.3418 1.31823 0
M  V30 12474 O 1173.14 -1.77667 0.361147 0
M  V30 12475 C 1173.19 -0.389609 3.58489 0
M  V30 12476 O 1172.29 -1.47305 3.85195 0
M  V30 12477 H 1171.63 0.00580588 0.663975 0
M  V30 12478 H 1174.16 0.641163 1.94294 0
M  V30 12479 H 1174.17 -0.634934 4.03029 0
M  V30 12480 H 1172.85 0.513338 4.1272 0
M  V30 12481 H 1171.43 -1.21631 3.52506 0
M  V30 12482 N 1173.61 -1.56489 0.186789 0
M  V30 12483 C 1174.86 -1.96952 -0.453261 0
M  V30 12484 C 1175.18 -1.07451 -1.62725 0
M  V30 12485 O 1174.45 -0.144046 -1.9537 0
M  V30 12486 H 1173.03 -0.727295 -0.170445 0
M  V30 12487 H 1175.69 -1.92999 0.271584 0
M  V30 12488 H 1174.79 -3.01594 -0.802951 0
M  V30 12489 N 1175.09 0.086862 -1.5736 0
M  V30 12490 C 1176.04 1.12359 -2.03662 0
M  V30 12491 C 1177.03 1.40982 -0.939169 0
M  V30 12492 O 1178.24 1.40566 -1.12433 0
M  V30 12493 H 1174.61 0.379605 -0.649156 0
M  V30 12494 H 1176.58 0.706822 -2.89908 0
M  V30 12495 C 1175.33 2.43327 -2.48369 0
M  V30 12496 H 1174.66 2.22148 -3.324 0
M  V30 12497 H 1176.1 3.14351 -2.84534 0
M  V30 12498 C 1174.55 3.08214 -1.36036 0
M  V30 12499 O 1175.08 3.95659 -0.694063 0
M  V30 12500 N 1173.29 2.68596 -1.10927 0
M  V30 12501 H 1172.84 1.97578 -1.6529 0
M  V30 12502 H 1172.8 3.12336 -0.359679 0
M  V30 12503 N 1176.57 1.53483 0.357892 0
M  V30 12504 C 1177.48 1.83434 1.4625 0
M  V30 12505 C 1178.49 0.723313 1.58254 0
M  V30 12506 O 1179.67 1.01416 1.74002 0
M  V30 12507 C 1176.73 2.0249 2.81423 0
M  V30 12508 C 1175.8 3.26378 2.78883 0
M  V30 12509 C 1175.03 3.44516 4.07608 0
M  V30 12510 O 1175.25 2.66787 5.04163 0
M  V30 12511 O 1174.19 4.37898 4.12952 0
M  V30 12512 H 1178.01 2.77294 1.23861 0
M  V30 12513 H 1175.6 1.38958 0.548722 0
M  V30 12514 H 1177.48 2.16552 3.61501 0
M  V30 12515 H 1176.15 1.11819 3.03773 0
M  V30 12516 H 1175.06 3.17733 1.97475 0
M  V30 12517 H 1176.39 4.16996 2.61486 0
M  V30 12518 N 1178.05 -0.61812 1.44973 0
M  V30 12519 C 1179.29 -1.37343 1.47715 0
M  V30 12520 C 1179.61 -1.95239 0.118784 0
M  V30 12521 O 1180.81 -2.7149 0.0237981 0
M  V30 12522 C 1179.27 -2.48732 2.60116 0
M  V30 12523 C 1178.88 -1.97294 4.02218 0
M  V30 12524 C 1180.62 -3.25831 2.72093 0
M  V30 12525 C 1178.53 -3.06102 5.06019 0
M  V30 12526 H 1177.46 -0.516175 0.549617 0
M  V30 12527 H 1180.11 -0.663617 1.7108 0
M  V30 12528 H 1178.49 -3.2235 2.30014 0
M  V30 12529 H 1179.67 -1.30455 4.41948 0
M  V30 12530 H 1177.98 -1.32972 3.94598 0
M  V30 12531 H 1180.58 -4.06968 3.46815 0
M  V30 12532 H 1180.92 -3.76156 1.7836 0
M  V30 12533 H 1181.45 -2.59309 3.01668 0
M  V30 12534 H 1178.19 -2.60706 6.01426 0
M  V30 12535 H 1177.71 -3.71541 4.70869 0
M  V30 12536 H 1179.39 -3.70662 5.30301 0
M  V30 12537 N 1179.52 -1.32087 -0.859693 0
M  V30 12538 C 1180.75 -1.25486 -1.6513 0
M  V30 12539 C 1181.17 0.175015 -1.87284 0
M  V30 12540 O 1180.53 1.12468 -1.42199 0
M  V30 12541 C 1180.58 -2.01469 -2.9907 0
M  V30 12542 O 1179.68 -1.35904 -3.89363 0
M  V30 12543 H 1179.02 -0.432728 -0.503629 0
M  V30 12544 H 1181.55 -1.74322 -1.07112 0
M  V30 12545 H 1181.56 -2.11452 -3.4893 0
M  V30 12546 H 1180.24 -3.05448 -2.82266 0
M  V30 12547 H 1178.82 -1.34437 -3.47823 0
M  V30 12548 N 1181 1.07532 -1.15215 0
M  V30 12549 C 1182.25 1.8052 -0.937234 0
M  V30 12550 C 1182.6 1.84954 0.530084 0
M  V30 12551 O 1181.9 1.32091 1.3879 0
M  V30 12552 C 1182.09 3.2518 -1.483 0
M  V30 12553 C 1181.92 3.34841 -3.00185 0
M  V30 12554 C 1180.69 3.45509 -3.68716 0
M  V30 12555 C 1182.89 3.25749 -3.97985 0
M  V30 12556 N 1180.87 3.44055 -5.08429 0
M  V30 12557 C 1182.24 3.31391 -5.24004 0
M  V30 12558 C 1184.29 3.09547 -3.89981 0
M  V30 12559 C 1183 3.22498 -6.42952 0
M  V30 12560 C 1185.02 3.01987 -5.08486 0
M  V30 12561 C 1184.39 3.08239 -6.33378 0
M  V30 12562 H 1180.48 0.673971 -0.396594 0
M  V30 12563 H 1183.07 1.2837 -1.46387 0
M  V30 12564 H 1181.24 3.75754 -0.983021 0
M  V30 12565 H 1182.97 3.86279 -1.20709 0
M  V30 12566 H 1179.73 3.49778 -3.193 0
M  V30 12567 H 1180.15 3.4686 -5.81392 0
M  V30 12568 H 1184.79 3.03568 -2.94289 0
M  V30 12569 H 1182.51 3.27236 -7.38879 0
M  V30 12570 H 1186.1 2.90557 -5.04051 0
M  V30 12571 H 1184.98 3.02431 -7.23537 0
M  V30 12572 N 1182.48 0.948665 1.2585 0
M  V30 12573 C 1183.43 0.455115 2.28104 0
M  V30 12574 C 1184.42 -0.471508 1.62706 0
M  V30 12575 O 1185.63 -0.348895 1.76586 0
M  V30 12576 H 1182 0.128659 0.740912 0
M  V30 12577 H 1183.97 1.32991 2.67125 0
M  V30 12578 C 1182.72 -0.25729 3.46747 0
M  V30 12579 H 1182.05 0.44658 3.97298 0
M  V30 12580 H 1183.49 -0.566736 4.20195 0
M  V30 12581 C 1181.95 -1.47772 3.02762 0
M  V30 12582 O 1182.48 -2.57571 3.08253 0
M  V30 12583 N 1180.68 -1.33694 2.5802 0
M  V30 12584 H 1180.23 -0.443595 2.53752 0
M  V30 12585 H 1180.19 -2.1547 2.28954 0
M  V30 12586 N 1183.96 -1.40369 0.716545 0
M  V30 12587 C 1185.19 -2.04884 0.265757 0
M  V30 12588 C 1185.6 -1.54095 -1.09779 0
M  V30 12589 O 1184.94 -0.692944 -1.70129 0
M  V30 12590 C 1185 -3.59103 0.16887 0
M  V30 12591 C 1184.67 -4.32785 1.46786 0
M  V30 12592 C 1185.66 -4.6067 2.40997 0
M  V30 12593 C 1183.35 -4.71676 1.72705 0
M  V30 12594 C 1185.34 -5.26432 3.59372 0
M  V30 12595 C 1183.03 -5.3717 2.91362 0
M  V30 12596 C 1184.03 -5.64478 3.84517 0
M  V30 12597 O 1183.71 -6.28618 5.01093 0
M  V30 12598 H 1183.45 -0.665794 0.117025 0
M  V30 12599 H 1186 -1.80746 0.975698 0
M  V30 12600 H 1184.23 -3.82064 -0.597023 0
M  V30 12601 H 1185.92 -4.05145 -0.247483 0
M  V30 12602 H 1186.69 -4.31087 2.22236 0
M  V30 12603 H 1182.56 -4.49789 1.0105 0
M  V30 12604 H 1186.11 -5.47663 4.321 0
M  V30 12605 H 1182.01 -5.66173 3.1003 0
M  V30 12606 H 1182.77 -6.47115 5.01183 0
M  V30 12607 N 1185.44 -0.462799 -1.50652 0
M  V30 12608 C 1186.66 0.0929761 -2.06691 0
M  V30 12609 C 1187.08 1.34241 -1.32758 0
M  V30 12610 O 1186.44 1.78187 -0.394427 0
M  V30 12611 C 1186.49 0.389492 -3.59396 0
M  V30 12612 O 1186.21 -0.810379 -4.3054 0
M  V30 12613 C 1187.71 0.993147 -4.32032 0
M  V30 12614 H 1184.93 -0.00338664 -0.670991 0
M  V30 12615 H 1187.47 -0.649201 -1.93922 0
M  V30 12616 H 1185.63 1.08159 -3.71995 0
M  V30 12617 H 1186.04 -0.54996 -5.21609 0
M  V30 12618 H 1187.52 1.15044 -5.39878 0
M  V30 12619 H 1187.99 1.98106 -3.91983 0
M  V30 12620 H 1188.6 0.339677 -4.23941 0
M  V30 12621 N 1186.91 1.56388 -0.195085 0
M  V30 12622 C 1187.84 2.22091 0.720971 0
M  V30 12623 C 1188.83 1.184 1.22128 0
M  V30 12624 O 1190.01 1.46907 1.27012 0
M  V30 12625 C 1187.14 2.88025 1.94059 0
M  V30 12626 C 1186.09 3.97959 1.5752 0
M  V30 12627 C 1185.42 4.51058 2.87143 0
M  V30 12628 C 1186.72 5.16365 0.785145 0
M  V30 12629 H 1188.41 2.98898 0.173245 0
M  V30 12630 H 1185.96 1.43767 0.0818868 0
M  V30 12631 H 1187.91 3.32671 2.58666 0
M  V30 12632 H 1186.64 2.08623 2.51285 0
M  V30 12633 H 1185.3 3.54004 0.952715 0
M  V30 12634 H 1184.94 3.68418 3.42458 0
M  V30 12635 H 1184.64 5.25237 2.63439 0
M  V30 12636 H 1186.17 4.98406 3.52738 0
M  V30 12637 H 1187.58 5.57556 1.33431 0
M  V30 12638 H 1185.98 5.9661 0.646231 0
M  V30 12639 H 1187.05 4.84428 -0.213789 0
M  V30 12640 N 1188.39 -0.0785156 1.57404 0
M  V30 12641 C 1189.3 -1.11203 2.0657 0
M  V30 12642 C 1190.32 -1.42822 0.993872 0
M  V30 12643 O 1191.49 -1.53133 1.30814 0
M  V30 12644 C 1188.56 -2.40812 2.4942 0
M  V30 12645 C 1187.62 -2.16225 3.70871 0
M  V30 12646 C 1186.85 -3.39654 4.11668 0
M  V30 12647 O 1187.08 -4.48521 3.524 0
M  V30 12648 O 1186.01 -3.28263 5.04507 0
M  V30 12649 H 1189.84 -0.724381 2.94935 0
M  V30 12650 H 1187.42 -0.292184 1.46515 0
M  V30 12651 H 1189.3 -3.17101 2.77534 0
M  V30 12652 H 1187.98 -2.7897 1.64187 0
M  V30 12653 H 1186.89 -1.37663 3.4785 0
M  V30 12654 H 1188.22 -1.82951 4.56935 0
M  V30 12655 N 1189.87 -1.5367 -0.349747 0
M  V30 12656 C 1190.8 -1.77528 -1.4497 0
M  V30 12657 C 1191.82 -0.656412 -1.4898 0
M  V30 12658 O 1193 -0.933016 -1.52174 0
M  V30 12659 C 1190.1 -1.85445 -2.8366 0
M  V30 12660 C 1189.28 -3.15295 -3.03163 0
M  V30 12661 C 1188.34 -3.1425 -4.22059 0
M  V30 12662 O 1187.36 -3.87994 -4.16472 0
M  V30 12663 N 1188.56 -2.36181 -5.30282 0
M  V30 12664 H 1191.33 -2.72444 -1.24877 0
M  V30 12665 H 1188.89 -1.52644 -0.539586 0
M  V30 12666 H 1190.88 -1.82204 -3.61364 0
M  V30 12667 H 1189.45 -0.977436 -2.96926 0
M  V30 12668 H 1188.67 -3.31711 -2.12983 0
M  V30 12669 H 1189.96 -4.01078 -3.13072 0
M  V30 12670 H 1189.36 -1.75808 -5.37688 0
M  V30 12671 H 1187.92 -2.38744 -6.06502 0
M  V30 12672 N 1191.35 0.610423 -1.45298 0
M  V30 12673 C 1192.58 1.39419 -1.52466 0
M  V30 12674 C 1192.99 1.88563 -0.1551 0
M  V30 12675 O 1192.33 1.62692 0.853061 0
M  V30 12676 C 1192.39 2.63515 -2.44541 0
M  V30 12677 C 1192.06 2.36028 -3.91331 0
M  V30 12678 C 1193.05 1.96567 -4.81308 0
M  V30 12679 C 1190.74 2.49028 -4.36223 0
M  V30 12680 C 1192.73 1.70461 -6.14184 0
M  V30 12681 C 1190.42 2.22536 -5.6914 0
M  V30 12682 C 1191.42 1.83314 -6.5794 0
M  V30 12683 O 1191.1 1.57131 -7.88394 0
M  V30 12684 H 1190.84 0.433278 -0.518889 0
M  V30 12685 H 1193.39 0.751803 -1.91147 0
M  V30 12686 H 1191.62 3.30463 -2.00826 0
M  V30 12687 H 1193.31 3.25554 -2.42424 0
M  V30 12688 H 1194.08 1.86062 -4.4789 0
M  V30 12689 H 1189.95 2.78524 -3.67349 0
M  V30 12690 H 1193.5 1.39773 -6.83454 0
M  V30 12691 H 1189.4 2.32657 -6.02114 0
M  V30 12692 H 1190.16 1.71207 -8.00394 0
M  V30 12693 N 1192.83 1.32541 0.852676 0
M  V30 12694 C 1193.76 1.17471 1.96807 0
M  V30 12695 C 1194.77 0.109198 1.62433 0
M  V30 12696 O 1195.96 0.358342 1.74866 0
M  V30 12697 C 1193.06 0.776328 3.29888 0
M  V30 12698 C 1192.23 1.93055 3.9249 0
M  V30 12699 C 1191.29 1.51539 5.03907 0
M  V30 12700 O 1190.32 2.22771 5.23796 0
M  V30 12701 N 1191.52 0.412533 5.79032 0
M  V30 12702 H 1194.29 2.13551 2.10276 0
M  V30 12703 H 1191.85 1.25104 1.02764 0
M  V30 12704 H 1193.84 0.48096 4.01832 0
M  V30 12705 H 1192.41 -0.0933749 3.12461 0
M  V30 12706 H 1191.63 2.39231 3.13309 0
M  V30 12707 H 1192.92 2.70321 4.3105 0
M  V30 12708 H 1192.31 -0.180286 5.65413 0
M  V30 12709 H 1190.87 0.17678 6.5156 0
M  V30 12710 N 1194.3 -1.0692 1.15784 0
M  V30 12711 C 1195.25 -2.14235 0.858616 0
M  V30 12712 C 1196.22 -1.65006 -0.190295 0
M  V30 12713 O 1197.41 -1.90715 -0.0568853 0
M  V30 12714 C 1194.55 -3.43229 0.35888 0
M  V30 12715 C 1193.66 -4.06225 1.46987 0
M  V30 12716 C 1192.79 -5.2307 0.925812 0
M  V30 12717 C 1191.83 -5.78037 2.01345 0
M  V30 12718 N 1190.97 -6.86206 1.48544 0
M  V30 12719 H 1195.81 -2.3917 1.77769 0
M  V30 12720 H 1193.35 -1.17354 0.886925 0
M  V30 12721 H 1195.31 -4.17169 0.0508198 0
M  V30 12722 H 1193.94 -3.18531 -0.523259 0
M  V30 12723 H 1192.99 -3.29895 1.89403 0
M  V30 12724 H 1194.3 -4.43081 2.29088 0
M  V30 12725 H 1193.45 -6.04011 0.570555 0
M  V30 12726 H 1192.19 -4.87644 0.0740371 0
M  V30 12727 H 1191.2 -4.95738 2.37748 0
M  V30 12728 H 1192.42 -6.15517 2.86907 0
M  V30 12729 H 1190.37 -6.52711 0.656092 0
M  V30 12730 H 1190.29 -7.2197 2.24266 0
M  V30 12731 H 1191.55 -7.70842 1.15856 0
M  V30 12732 N 1195.78 -0.955326 -1.25345 0
M  V30 12733 C 1197.01 -0.627693 -1.97149 0
M  V30 12734 C 1197.43 0.800349 -1.70997 0
M  V30 12735 O 1196.78 1.53545 -0.986417 0
M  V30 12736 C 1196.83 -0.877675 -3.50684 0
M  V30 12737 O 1196.55 -2.24957 -3.75934 0
M  V30 12738 C 1198.06 -0.562524 -4.39716 0
M  V30 12739 H 1195.28 -0.235269 -0.628402 0
M  V30 12740 H 1197.82 -1.27989 -1.59496 0
M  V30 12741 H 1195.97 -0.271878 -3.86445 0
M  V30 12742 H 1196.39 -2.32022 -4.70389 0
M  V30 12743 H 1197.86 -0.787972 -5.46347 0
M  V30 12744 H 1198.34 0.50293 -4.36311 0
M  V30 12745 H 1198.95 -1.14767 -4.09522 0
M  V30 12746 N 1197.26 1.39987 -0.723979 0
M  V30 12747 C 1198.49 2.0556 -0.275634 0
M  V30 12748 C 1198.91 1.54207 1.07711 0
M  V30 12749 O 1198.27 0.681041 1.68022 0
M  V30 12750 C 1198.32 3.59551 -0.27485 0
M  V30 12751 O 1197.42 4.05685 0.741182 0
M  V30 12752 H 1196.76 0.651634 -0.12755 0
M  V30 12753 H 1199.29 1.79229 -0.986814 0
M  V30 12754 H 1199.3 4.07837 -0.115425 0
M  V30 12755 H 1197.98 3.96291 -1.26198 0
M  V30 12756 H 1196.55 3.6884 0.548795 0
M  V30 12757 N 1198.74 0.470782 1.50404 0
M  V30 12758 C 1199.67 -0.313458 2.31386 0
M  V30 12759 C 1200.65 -0.990623 1.38278 0
M  V30 12760 O 1201.84 -0.987854 1.67198 0
M  V30 12761 C 1198.97 -1.39599 3.18009 0
M  V30 12762 C 1197.92 -0.840443 4.19667 0
M  V30 12763 C 1197.25 -2.02124 4.95025 0
M  V30 12764 C 1198.55 0.148055 5.2209 0
M  V30 12765 H 1200.24 0.362432 2.97198 0
M  V30 12766 H 1197.79 0.175745 1.42924 0
M  V30 12767 H 1199.74 -1.9521 3.73458 0
M  V30 12768 H 1198.46 -2.10064 2.50081 0
M  V30 12769 H 1197.12 -0.306302 3.65318 0
M  V30 12770 H 1196.77 -2.71286 4.23571 0
M  V30 12771 H 1196.47 -1.65574 5.6379 0
M  V30 12772 H 1197.99 -2.58226 5.5331 0
M  V30 12773 H 1199.41 -0.318874 5.72413 0
M  V30 12774 H 1197.8 0.427811 5.98573 0
M  V30 12775 H 1198.87 1.07404 4.72855 0
M  V30 12776 N 1200.22 -1.56282 0.203376 0
M  V30 12777 C 1201.18 -2.18233 -0.700489 0
M  V30 12778 C 1202.18 -1.13908 -1.13497 0
M  V30 12779 O 1203.37 -1.39246 -1.04672 0
M  V30 12780 C 1200.5 -2.79107 -1.95735 0
M  V30 12781 H 1201.7 -2.99469 -0.160649 0
M  V30 12782 H 1199.25 -1.56232 -0.0462475 0
M  V30 12783 H 1199.98 -2.01691 -2.53951 0
M  V30 12784 H 1199.77 -3.55486 -1.65446 0
M  V30 12785 H 1201.26 -3.2665 -2.60172 0
M  V30 12786 N 1201.7 0.070167 -1.57444 0
M  V30 12787 C 1202.63 1.10996 -2.0053 0
M  V30 12788 C 1203.64 1.3489 -0.91151 0
M  V30 12789 O 1204.83 1.33102 -1.18938 0
M  V30 12790 C 1201.93 2.46053 -2.33048 0
M  V30 12791 C 1201.1 2.42092 -3.64294 0
M  V30 12792 C 1200.16 3.5927 -3.84463 0
M  V30 12793 O 1199.19 3.40625 -4.5603 0
M  V30 12794 N 1200.39 4.79677 -3.26941 0
M  V30 12795 H 1203.15 0.743029 -2.90343 0
M  V30 12796 H 1200.72 0.258794 -1.59818 0
M  V30 12797 H 1202.71 3.23089 -2.43712 0
M  V30 12798 H 1201.28 2.74742 -1.49116 0
M  V30 12799 H 1200.5 1.5043 -3.64368 0
M  V30 12800 H 1201.79 2.36548 -4.50469 0
M  V30 12801 H 1201.18 4.97729 -2.68855 0
M  V30 12802 H 1199.74 5.54219 -3.43051 0
M  V30 12803 N 1203.17 1.53854 0.341593 0
M  V30 12804 C 1204.08 1.84975 1.44297 0
M  V30 12805 C 1205.1 0.740057 1.57477 0
M  V30 12806 O 1206.28 1.03256 1.72917 0
M  V30 12807 C 1203.34 2.05464 2.79259 0
M  V30 12808 C 1202.4 3.29318 2.75405 0
M  V30 12809 C 1201.63 3.4882 4.03931 0
M  V30 12810 O 1201.86 2.7212 5.01305 0
M  V30 12811 O 1200.79 4.42253 4.08284 0
M  V30 12812 H 1204.62 2.78592 1.20913 0
M  V30 12813 H 1202.2 1.39532 0.533953 0
M  V30 12814 H 1204.08 2.20374 3.59184 0
M  V30 12815 H 1202.76 1.15035 3.0257 0
M  V30 12816 H 1201.67 3.1981 1.94094 0
M  V30 12817 H 1203 4.19746 2.57049 0
M  V30 12818 N 1204.65 -0.602709 1.4562 0
M  V30 12819 C 1205.6 -1.71312 1.54664 0
M  V30 12820 C 1206.57 -1.61403 0.392197 0
M  V30 12821 O 1207.75 -1.80911 0.606297 0
M  V30 12822 C 1204.89 -3.09629 1.52393 0
M  V30 12823 C 1204.01 -3.30308 2.78425 0
M  V30 12824 C 1203.14 -4.5876 2.67793 0
M  V30 12825 C 1202.18 -4.72713 3.88855 0
M  V30 12826 N 1201.32 -5.92469 3.76729 0
M  V30 12827 H 1206.16 -1.62918 2.49523 0
M  V30 12828 H 1203.69 -0.794324 1.2381 0
M  V30 12829 H 1205.65 -3.89661 1.49064 0
M  V30 12830 H 1204.28 -3.16968 0.610816 0
M  V30 12831 H 1203.33 -2.44018 2.9182 0
M  V30 12832 H 1204.65 -3.36491 3.68205 0
M  V30 12833 H 1203.8 -5.46993 2.62457 0
M  V30 12834 H 1202.54 -4.54983 1.75619 0
M  V30 12835 H 1201.54 -3.82903 3.94545 0
M  V30 12836 H 1202.77 -4.78284 4.82101 0
M  V30 12837 H 1200.72 -5.89728 2.87328 0
M  V30 12838 H 1200.63 -5.99833 4.60148 0
M  V30 12839 H 1201.9 -6.83187 3.75334 0
M  V30 12840 N 1206.13 -1.32992 -0.845635 0
M  V30 12841 C 1207.04 -1.24701 -1.98713 0
M  V30 12842 C 1208.06 -0.158864 -1.73273 0
M  V30 12843 O 1209.23 -0.381209 -1.97759 0
M  V30 12844 C 1206.3 -0.979524 -3.32575 0
M  V30 12845 C 1205.36 -2.15701 -3.71176 0
M  V30 12846 C 1204.59 -1.90219 -4.98651 0
M  V30 12847 O 1204.81 -0.849171 -5.64044 0
M  V30 12848 O 1203.75 -2.76571 -5.34595 0
M  V30 12849 H 1207.57 -2.20683 -2.08645 0
M  V30 12850 H 1205.16 -1.12971 -0.97765 0
M  V30 12851 H 1207.04 -0.847219 -4.12796 0
M  V30 12852 H 1205.72 -0.0499398 -3.23661 0
M  V30 12853 H 1204.62 -2.34483 -2.91494 0
M  V30 12854 H 1205.96 -3.0697 -3.84747 0
M  V30 12855 N 1207.61 1.06304 -1.1635 0
M  V30 12856 C 1208.55 2.13776 -0.869965 0
M  V30 12857 C 1209.52 1.65105 0.181541 0
M  V30 12858 O 1210.71 1.90743 0.0467705 0
M  V30 12859 C 1207.85 3.43034 -0.377077 0
M  V30 12860 C 1206.96 4.0544 -1.4914 0
M  V30 12861 C 1206.1 5.22572 -0.953538 0
M  V30 12862 C 1205.14 5.76961 -2.04407 0
M  V30 12863 N 1204.27 6.85409 -1.52181 0
M  V30 12864 H 1209.11 2.38224 -1.79034 0
M  V30 12865 H 1206.65 1.16882 -0.893136 0
M  V30 12866 H 1208.61 4.17136 -0.0729426 0
M  V30 12867 H 1207.24 3.18804 0.506359 0
M  V30 12868 H 1206.29 3.28886 -1.9115 0
M  V30 12869 H 1207.6 4.41859 -2.31434 0
M  V30 12870 H 1206.76 6.037 -0.602579 0
M  V30 12871 H 1205.5 4.87598 -0.099897 0
M  V30 12872 H 1204.5 4.9447 -2.40373 0
M  V30 12873 H 1205.73 6.13987 -2.90167 0
M  V30 12874 H 1203.67 6.52354 -0.690697 0
M  V30 12875 H 1203.59 7.2077 -2.28092 0
M  V30 12876 H 1204.86 7.70217 -1.19942 0
M  V30 12877 N 1209.09 0.96196 1.24836 0
M  V30 12878 C 1210.02 0.506241 2.27946 0
M  V30 12879 C 1211 -0.451183 1.64007 0
M  V30 12880 O 1212.18 -0.348552 1.91046 0
M  V30 12881 C 1209.31 -0.209846 3.46665 0
M  V30 12882 C 1208.27 0.663035 4.22833 0
M  V30 12883 C 1207.59 -0.184216 5.34383 0
M  V30 12884 C 1208.89 1.94479 4.84742 0
M  V30 12885 H 1210.59 1.36805 2.66317 0
M  V30 12886 H 1208.13 0.65926 1.28023 0
M  V30 12887 H 1210.08 -0.539838 4.17928 0
M  V30 12888 H 1208.81 -1.10596 3.07305 0
M  V30 12889 H 1207.47 0.976216 3.53363 0
M  V30 12890 H 1207.12 -1.08031 4.91262 0
M  V30 12891 H 1206.82 0.39657 5.8626 0
M  V30 12892 H 1208.34 -0.509009 6.08475 0
M  V30 12893 H 1209.75 1.68074 5.48109 0
M  V30 12894 H 1208.15 2.47183 5.46828 0
M  V30 12895 H 1209.22 2.64332 4.06517 0
M  V30 12896 N 1210.56 -1.39601 0.731392 0
M  V30 12897 C 1211.49 -2.33268 0.1041 0
M  V30 12898 C 1212.47 -1.53724 -0.728219 0
M  V30 12899 O 1213.66 -1.82131 -0.673933 0
M  V30 12900 C 1210.79 -3.37802 -0.806646 0
M  V30 12901 C 1209.74 -4.27928 -0.0787588 0
M  V30 12902 C 1209.07 -5.23131 -1.10628 0
M  V30 12903 C 1210.37 -5.11086 1.07651 0
M  V30 12904 H 1212.06 -2.85975 0.886496 0
M  V30 12905 H 1209.61 -1.375 0.427746 0
M  V30 12906 H 1211.56 -4.02278 -1.25499 0
M  V30 12907 H 1210.29 -2.83527 -1.62112 0
M  V30 12908 H 1208.95 -3.64926 0.349926 0
M  V30 12909 H 1208.59 -4.65152 -1.91422 0
M  V30 12910 H 1208.29 -5.84277 -0.624043 0
M  V30 12911 H 1209.82 -5.90483 -1.5544 0
M  V30 12912 H 1211.23 -5.68927 0.706781 0
M  V30 12913 H 1209.63 -5.81356 1.48814 0
M  V30 12914 H 1210.7 -4.46131 1.89988 0
M  V30 12915 N 1212.04 -0.478751 -1.50152 0
M  V30 12916 C 1213.27 0.0709455 -2.06478 0
M  V30 12917 C 1213.68 1.33376 -1.34192 0
M  V30 12918 O 1213.02 1.79133 -0.40707 0
M  V30 12919 C 1213.09 0.417322 -3.5707 0
M  V30 12920 C 1212.75 -0.744563 -4.50894 0
M  V30 12921 C 1213.75 -1.62879 -4.93727 0
M  V30 12922 C 1211.43 -0.937062 -4.93482 0
M  V30 12923 C 1213.43 -2.68985 -5.77863 0
M  V30 12924 C 1211.11 -2.00134 -5.77399 0
M  V30 12925 C 1212.11 -2.87609 -6.19492 0
M  V30 12926 O 1211.8 -3.92203 -7.01735 0
M  V30 12927 H 1211.53 -0.00720177 -0.675962 0
M  V30 12928 H 1214.08 -0.668797 -1.94207 0
M  V30 12929 H 1212.31 1.21036 -3.6727 0
M  V30 12930 H 1214 0.903002 -3.95728 0
M  V30 12931 H 1214.77 -1.49179 -4.61488 0
M  V30 12932 H 1210.65 -0.265636 -4.60234 0
M  V30 12933 H 1214.19 -3.37293 -6.10639 0
M  V30 12934 H 1210.09 -2.13837 -6.09052 0
M  V30 12935 H 1210.86 -3.89284 -7.2 0
M  V30 12936 N 1213.52 1.56172 -0.211661 0
M  V30 12937 C 1214.77 1.97648 0.421871 0
M  V30 12938 C 1215.09 1.10026 1.60995 0
M  V30 12939 O 1214.36 0.175109 1.95116 0
M  V30 12940 H 1212.94 0.729914 0.158852 0
M  V30 12941 H 1215.6 1.92542 -0.302254 0
M  V30 12942 H 1214.7 3.02834 0.754868 0
M  V30 12943 N 1215 -0.0618163 1.57479 0
M  V30 12944 C 1215.93 -1.07252 2.07411 0
M  V30 12945 C 1216.91 -1.39756 0.969649 0
M  V30 12946 O 1218.09 -1.4921 1.24298 0
M  V30 12947 C 1215.22 -2.38313 2.52635 0
M  V30 12948 C 1214.18 -2.20136 3.67048 0
M  V30 12949 C 1213.5 -3.56668 3.98361 0
M  V30 12950 C 1214.8 -1.61437 4.96725 0
M  V30 12951 H 1216.5 -0.656983 2.92103 0
M  V30 12952 H 1214.04 -0.314579 1.40522 0
M  V30 12953 H 1216 -3.09319 2.86181 0
M  V30 12954 H 1214.72 -2.81865 1.64984 0
M  V30 12955 H 1213.38 -1.51569 3.338 0
M  V30 12956 H 1213.03 -3.97809 3.07826 0
M  V30 12957 H 1212.73 -3.45342 4.75408 0
M  V30 12958 H 1214.25 -4.2909 4.34413 0
M  V30 12959 H 1215.67 -2.2232 5.28438 0
M  V30 12960 H 1214.06 -1.60779 5.78161 0
M  V30 12961 H 1215.13 -0.576795 4.81457 0
M  V30 12962 N 1216.48 -1.54033 -0.333429 0
M  V30 12963 C 1217.44 -1.82021 -1.39288 0
M  V30 12964 C 1218.44 -0.691623 -1.45166 0
M  V30 12965 O 1219.63 -0.959925 -1.45365 0
M  V30 12966 C 1216.76 -1.97136 -2.78119 0
M  V30 12967 H 1217.95 -2.76671 -1.1573 0
M  V30 12968 H 1215.51 -1.45599 -0.568376 0
M  V30 12969 H 1216.24 -1.04663 -3.06946 0
M  V30 12970 H 1216.03 -2.79251 -2.75247 0
M  V30 12971 H 1217.52 -2.20271 -3.54782 0
M  V30 12972 N 1217.95 0.594978 -1.45938 0
M  V30 12973 C 1219.18 1.38482 -1.54394 0
M  V30 12974 C 1219.6 1.87222 -0.181563 0
M  V30 12975 O 1218.96 1.60869 0.836119 0
M  V30 12976 C 1219.01 2.55676 -2.54287 0
M  V30 12977 O 1218.11 3.5672 -2.06941 0
M  V30 12978 H 1217.46 0.412918 -0.519995 0
M  V30 12979 H 1219.99 0.722899 -1.91404 0
M  V30 12980 H 1220 3.02756 -2.73501 0
M  V30 12981 H 1218.67 2.19552 -3.53228 0
M  V30 12982 H 1217.25 3.16204 -1.97661 0
M  V30 12983 N 1219.43 1.33438 0.838571 0
M  V30 12984 C 1220.68 1.25097 1.5962 0
M  V30 12985 C 1221.01 -0.182798 1.93338 0
M  V30 12986 O 1220.29 -1.1242 1.5872 0
M  V30 12987 C 1220.57 2.12655 2.90603 0
M  V30 12988 C 1220.42 3.64491 2.63565 0
M  V30 12989 C 1221.74 1.99994 3.92033 0
M  V30 12990 H 1218.86 0.455776 0.579169 0
M  V30 12991 H 1221.5 1.63542 0.967169 0
M  V30 12992 H 1219.65 1.79998 3.44286 0
M  V30 12993 H 1221.32 4.0744 2.16312 0
M  V30 12994 H 1219.57 3.86356 1.9726 0
M  V30 12995 H 1220.24 4.21101 3.569 0
M  V30 12996 H 1222.71 2.28635 3.47657 0
M  V30 12997 H 1221.59 2.63509 4.81512 0
M  V30 12998 H 1221.85 0.972263 4.31277 0
M  V30 12999 N 1220.91 -1.05686 1.16912 0
M  V30 13000 C 1221.86 -2.13312 0.88129 0
M  V30 13001 C 1222.83 -1.65199 -0.172783 0
M  V30 13002 O 1224.01 -1.90765 -0.0366542 0
M  V30 13003 C 1221.15 -3.42829 0.395264 0
M  V30 13004 C 1220.27 -4.04643 1.51288 0
M  V30 13005 C 1219.4 -5.22059 0.981238 0
M  V30 13006 C 1218.44 -5.75869 2.07464 0
M  V30 13007 N 1217.58 -6.84592 1.55813 0
M  V30 13008 H 1222.42 -2.37271 1.80295 0
M  V30 13009 H 1219.95 -1.16407 0.899322 0
M  V30 13010 H 1221.91 -4.17092 0.0950633 0
M  V30 13011 H 1220.54 -3.19068 -0.489445 0
M  V30 13012 H 1219.59 -3.27867 1.92891 0
M  V30 13013 H 1220.91 -4.40626 2.33774 0
M  V30 13014 H 1220.06 -6.03372 0.634586 0
M  V30 13015 H 1218.8 -4.87538 0.125754 0
M  V30 13016 H 1217.8 -4.93188 2.42992 0
M  V30 13017 H 1219.03 -6.12439 2.93419 0
M  V30 13018 H 1216.97 -6.51978 0.725283 0
M  V30 13019 H 1216.89 -7.19551 2.31911 0
M  V30 13020 H 1218.16 -7.6957 1.24025 0
M  V30 13021 N 1222.39 -0.968567 -1.24324 0
M  V30 13022 C 1223.34 -0.491346 -2.27351 0
M  V30 13023 C 1224.33 0.445563 -1.63435 0
M  V30 13024 O 1225.54 0.320758 -1.77119 0
M  V30 13025 H 1221.91 -0.14043 -0.738772 0
M  V30 13026 H 1223.88 -1.37224 -2.64976 0
M  V30 13027 C 1222.63 0.202093 -3.47112 0
M  V30 13028 H 1221.95 -0.50973 -3.96537 0
M  V30 13029 H 1223.39 0.499815 -4.21044 0
M  V30 13030 C 1221.85 1.42937 -3.05075 0
M  V30 13031 O 1222.38 2.52635 -3.12312 0
M  V30 13032 N 1220.59 1.29572 -2.60114 0
M  V30 13033 H 1220.14 0.403169 -2.54425 0
M  V30 13034 H 1220.09 2.118 -2.32353 0
M  V30 13035 N 1223.87 1.39211 -0.738786 0
M  V30 13036 C 1225.11 2.00733 -0.288817 0
M  V30 13037 C 1225.45 1.58494 1.1222 0
M  V30 13038 O 1224.72 0.815579 1.76575 0
M  V30 13039 C 1225 3.57928 -0.394956 0
M  V30 13040 C 1224.86 4.10174 -1.84601 0
M  V30 13041 C 1226.18 4.39548 0.220395 0
M  V30 13042 H 1223.29 0.729276 -0.106418 0
M  V30 13043 H 1225.94 1.65365 -0.935652 0
M  V30 13044 H 1224.09 3.88188 0.155744 0
M  V30 13045 H 1225.76 3.90618 -2.45388 0
M  V30 13046 H 1224 3.63593 -2.36607 0
M  V30 13047 H 1224.67 5.19305 -1.87152 0
M  V30 13048 H 1227.15 4.15354 -0.249098 0
M  V30 13049 H 1226.02 5.48778 0.115806 0
M  V30 13050 H 1226.29 4.22341 1.30691 0
M  V30 13051 N 1225.34 0.486708 1.49896 0
M  V30 13052 C 1226.57 -0.0600816 2.06813 0
M  V30 13053 C 1226.99 -1.32112 1.34877 0
M  V30 13054 O 1226.34 -1.77537 0.422725 0
M  V30 13055 C 1226.4 -0.332266 3.5997 0
M  V30 13056 O 1226.12 0.878771 4.29196 0
M  V30 13057 C 1227.62 -0.924289 4.33557 0
M  V30 13058 H 1224.84 0.0140611 0.670853 0
M  V30 13059 H 1227.38 0.67997 1.92864 0
M  V30 13060 H 1225.54 -1.02227 3.73669 0
M  V30 13061 H 1225.95 0.632873 5.20668 0
M  V30 13062 H 1227.42 -1.06441 5.4164 0
M  V30 13063 H 1227.9 -1.91844 3.95085 0
M  V30 13064 H 1228.51 -0.272189 4.24428 0
M  V30 13065 N 1226.82 -1.56058 0.219941 0
M  V30 13066 C 1227.75 -2.2321 -0.685547 0
M  V30 13067 C 1228.73 -1.20328 -1.20229 0
M  V30 13068 O 1229.92 -1.48909 -1.24659 0
M  V30 13069 C 1227.05 -2.91076 -1.89452 0
M  V30 13070 C 1226 -4.00415 -1.51169 0
M  V30 13071 C 1225.33 -4.55569 -2.79931 0
M  V30 13072 C 1226.63 -5.17549 -0.702896 0
M  V30 13073 H 1228.32 -2.99136 -0.125671 0
M  V30 13074 H 1225.87 -1.43879 -0.0590043 0
M  V30 13075 H 1227.82 -3.36744 -2.53341 0
M  V30 13076 H 1226.55 -2.12594 -2.47934 0
M  V30 13077 H 1225.21 -3.55475 -0.896275 0
M  V30 13078 H 1224.85 -3.73819 -3.36553 0
M  V30 13079 H 1224.55 -5.29361 -2.55049 0
M  V30 13080 H 1226.08 -5.03955 -3.44764 0
M  V30 13081 H 1227.49 -5.59608 -1.24544 0
M  V30 13082 H 1225.89 -5.97563 -0.551234 0
M  V30 13083 H 1226.96 -4.84027 0.29083 0
M  V30 13084 N 1228.3 0.053464 -1.57509 0
M  V30 13085 C 1229.23 1.06151 -2.07977 0
M  V30 13086 C 1230.21 1.3924 -0.977047 0
M  V30 13087 O 1231.4 1.48549 -1.25087 0
M  V30 13088 C 1228.53 2.36969 -2.53895 0
M  V30 13089 C 1227.48 2.18186 -3.6821 0
M  V30 13090 C 1226.81 3.54551 -4.00247 0
M  V30 13091 C 1228.11 1.588 -4.97574 0
M  V30 13092 H 1229.8 0.641483 -2.92447 0
M  V30 13093 H 1227.35 0.307122 -1.40687 0
M  V30 13094 H 1229.3 3.07797 -2.87817 0
M  V30 13095 H 1228.02 2.80986 -1.66476 0
M  V30 13096 H 1226.68 1.49796 -3.34599 0
M  V30 13097 H 1226.33 3.96171 -3.09932 0
M  V30 13098 H 1226.03 3.42816 -4.77232 0
M  V30 13099 H 1227.56 4.2678 -4.36682 0
M  V30 13100 H 1228.97 2.19515 -5.29609 0
M  V30 13101 H 1227.37 1.57711 -5.79006 0
M  V30 13102 H 1228.44 0.551254 -4.81756 0
M  V30 13103 N 1229.78 1.54207 0.325255 0
M  V30 13104 C 1231 1.7661 1.08736 0
M  V30 13105 C 1231.43 0.512449 1.80985 0
M  V30 13106 O 1230.79 -0.535913 1.73198 0
M  V30 13107 C 1230.84 2.95797 2.06243 0
M  V30 13108 O 1229.94 2.67225 3.14109 0
M  V30 13109 H 1229.28 0.585282 0.313593 0
M  V30 13110 H 1231.81 2.01225 0.370066 0
M  V30 13111 H 1231.82 3.23097 2.49143 0
M  V30 13112 H 1230.5 3.86712 1.53058 0
M  V30 13113 H 1229.07 2.50869 2.75897 0
M  V30 13114 N 1231.26 -0.58723 1.46251 0
M  V30 13115 C 1232.67 -0.910129 1.31106 0
M  V30 13116 C 1232.87 -1.99557 0.279141 0
M  V30 13117 O 1231.93 -2.50466 -0.319867 0
M  V30 13118 C 1233.24 -1.33177 2.69601 0
M  V30 13119 C 1234.79 -1.44486 2.77656 0
M  V30 13120 C 1235.27 -1.90018 4.16722 0
M  V30 13121 N 1236.76 -1.97219 4.19117 0
M  V30 13122 C 1237.49 -2.33714 5.23608 0
M  V30 13123 N 1236.99 -2.69034 6.3843 0
M  V30 13124 N 1238.78 -2.3423 5.10972 0
M  V30 13125 H 1230.93 0.12987 2.12003 0
M  V30 13126 H 1233.19 -0.00456718 0.947989 0
M  V30 13127 H 1232.9 -0.608243 3.464 0
M  V30 13128 H 1232.77 -2.29421 2.99409 0
M  V30 13129 H 1235.16 -2.15926 2.01147 0
M  V30 13130 H 1235.24 -0.465047 2.51537 0
M  V30 13131 H 1234.89 -1.19159 4.93724 0
M  V30 13132 H 1234.82 -2.88949 4.40245 0
M  V30 13133 H 1237.31 -1.72431 3.36268 0
M  V30 13134 H 1237.62 -2.95822 7.13939 0
M  V30 13135 H 1235.97 -2.66683 6.41798 0
M  V30 13136 H 1239.16 -2.06056 4.20308 0
M  V30 13137 H 1239.33 -2.62345 5.92519 0
M  V30 13138 N 1232.74 -1.33881 -0.831482 0
M  V30 13139 C 1233.97 -1.28625 -1.61676 0
M  V30 13140 C 1234.37 0.143588 -1.88654 0
M  V30 13141 O 1233.72 1.09847 -1.47239 0
M  V30 13142 C 1233.78 -2.00022 -2.98716 0
M  V30 13143 C 1233.44 -3.49309 -2.94674 0
M  V30 13144 C 1234.44 -4.44375 -2.69864 0
M  V30 13145 C 1232.12 -3.91596 -3.14576 0
M  V30 13146 C 1234.12 -5.79703 -2.64996 0
M  V30 13147 C 1231.81 -5.27026 -3.09333 0
M  V30 13148 C 1232.8 -6.20892 -2.84575 0
M  V30 13149 O 1232.49 -7.53841 -2.79248 0
M  V30 13150 H 1232.22 -0.444235 -0.50954 0
M  V30 13151 H 1234.78 -1.76933 -1.04326 0
M  V30 13152 H 1233.01 -1.46316 -3.57951 0
M  V30 13153 H 1234.7 -1.88168 -3.59649 0
M  V30 13154 H 1235.46 -4.13027 -2.54231 0
M  V30 13155 H 1231.34 -3.18938 -3.32865 0
M  V30 13156 H 1234.89 -6.5294 -2.45591 0
M  V30 13157 H 1230.78 -5.57996 -3.24516 0
M  V30 13158 H 1231.55 -7.63476 -2.95037 0
M  V30 13159 N 1234.21 1.05064 -1.1747 0
M  V30 13160 C 1235.14 2.14786 -0.915936 0
M  V30 13161 C 1236.12 1.69502 0.142561 0
M  V30 13162 O 1237.31 1.94198 -0.00794522 0
M  V30 13163 C 1234.44 3.44629 -0.429864 0
M  V30 13164 C 1233.39 4.03486 -1.42769 0
M  V30 13165 C 1232.72 5.28689 -0.799528 0
M  V30 13166 C 1234.02 4.40823 -2.80129 0
M  V30 13167 H 1235.71 2.3669 -1.83352 0
M  V30 13168 H 1233.26 1.13751 -0.882992 0
M  V30 13169 H 1235.21 4.20737 -0.236245 0
M  V30 13170 H 1233.94 3.22381 0.523263 0
M  V30 13171 H 1232.6 3.29449 -1.60808 0
M  V30 13172 H 1232.24 5.02744 0.160474 0
M  V30 13173 H 1231.94 5.69028 -1.46565 0
M  V30 13174 H 1233.47 6.07483 -0.616212 0
M  V30 13175 H 1234.88 5.07959 -2.65801 0
M  V30 13176 H 1233.28 4.92183 -3.43331 0
M  V30 13177 H 1234.35 3.51108 -3.34441 0
M  V30 13178 N 1235.69 0.975146 1.23809 0
M  V30 13179 C 1236.97 0.557725 1.8748 0
M  V30 13180 C 1237.35 -0.965164 1.87744 0
M  V30 13181 O 1236.7 -1.83966 1.35531 0
M  V30 13182 C 1236.91 1.15777 3.29236 0
M  V30 13183 C 1238.25 1.24726 4.05868 0
M  V30 13184 O 1239.28 1.11084 3.38436 0
M  V30 13185 O 1238.14 1.46373 5.26533 0
M  V30 13186 H 1235.23 0.187045 0.80557 0
M  V30 13187 H 1237.78 1.06989 1.31725 0
M  V30 13188 H 1236.55 2.20023 3.23583 0
M  V30 13189 H 1236.17 0.630103 3.92575 0
M  V30 13190 N 1237.17 -1.38817 0.746158 0
M  V30 13191 C 1238.1 -2.33144 0.128836 0
M  V30 13192 C 1239.08 -1.54487 -0.711873 0
M  V30 13193 O 1240.27 -1.82836 -0.654577 0
M  V30 13194 C 1237.4 -3.38639 -0.770772 0
M  V30 13195 C 1236.35 -4.27987 -0.0333669 0
M  V30 13196 C 1235.68 -5.24274 -1.05073 0
M  V30 13197 C 1236.98 -5.09915 1.13066 0
M  V30 13198 H 1238.67 -2.85019 0.916778 0
M  V30 13199 H 1236.22 -1.37039 0.442306 0
M  V30 13200 H 1238.17 -4.03587 -1.21225 0
M  V30 13201 H 1236.89 -2.8523 -1.59095 0
M  V30 13202 H 1235.55 -3.64534 0.388612 0
M  V30 13203 H 1235.2 -4.67156 -1.86478 0
M  V30 13204 H 1234.9 -5.84906 -0.562037 0
M  V30 13205 H 1236.42 -5.92099 -1.49169 0
M  V30 13206 H 1237.84 -5.68145 0.767084 0
M  V30 13207 H 1236.23 -5.79744 1.54972 0
M  V30 13208 H 1237.3 -4.4409 1.94709 0
M  V30 13209 N 1238.65 -0.49465 -1.49636 0
M  V30 13210 C 1239.58 0.276606 -2.31856 0
M  V30 13211 C 1240.56 0.968499 -1.39836 0
M  V30 13212 O 1241.74 0.96113 -1.68748 0
M  V30 13213 C 1238.87 1.34522 -3.20189 0
M  V30 13214 C 1237.83 0.773571 -4.20951 0
M  V30 13215 C 1237.15 1.94223 -4.98178 0
M  V30 13216 C 1238.45 -0.231096 -5.21788 0
M  V30 13217 H 1240.15 -0.409668 -2.96584 0
M  V30 13218 H 1237.69 -0.198461 -1.42626 0
M  V30 13219 H 1239.65 1.89244 -3.76517 0
M  V30 13220 H 1238.37 2.06059 -2.53392 0
M  V30 13221 H 1237.03 0.248144 -3.65759 0
M  V30 13222 H 1236.68 2.64514 -4.27834 0
M  V30 13223 H 1236.38 1.56584 -5.66353 0
M  V30 13224 H 1237.9 2.49391 -5.57348 0
M  V30 13225 H 1239.32 0.227768 -5.72847 0
M  V30 13226 H 1237.71 -0.522984 -5.97817 0
M  V30 13227 H 1238.78 -1.14914 -4.71087 0
M  V30 13228 N 1240.13 1.55939 -0.228214 0
M  V30 13229 C 1241.07 2.20581 0.679157 0
M  V30 13230 C 1242.04 1.16355 1.18536 0
M  V30 13231 O 1243.23 1.44735 1.24324 0
M  V30 13232 C 1240.37 2.89477 1.87875 0
M  V30 13233 C 1239.48 4.08313 1.41083 0
M  V30 13234 C 1238.62 4.64974 2.56851 0
M  V30 13235 C 1237.65 5.76098 2.06828 0
M  V30 13236 N 1236.79 6.27021 3.15894 0
M  V30 13237 H 1241.63 2.97753 0.121203 0
M  V30 13238 H 1239.17 1.47021 0.0480688 0
M  V30 13239 H 1241.13 3.2761 2.58317 0
M  V30 13240 H 1239.76 2.14811 2.40948 0
M  V30 13241 H 1238.81 3.75621 0.601102 0
M  V30 13242 H 1240.12 4.8859 1.00408 0
M  V30 13243 H 1239.27 5.05584 3.35365 0
M  V30 13244 H 1238.01 3.83875 3.00818 0
M  V30 13245 H 1237.02 5.34984 1.26778 0
M  V30 13246 H 1238.24 6.59037 1.63852 0
M  V30 13247 H 1236.19 5.48833 3.5933 0
M  V30 13248 H 1236.11 7.02439 2.79491 0
M  V30 13249 H 1237.37 6.72289 3.94523 0
M  V30 13250 N 1241.6 -0.0451101 1.57535 0
M  V30 13251 C 1242.88 -0.773625 1.79651 0
M  V30 13252 C 1243.26 -1.94422 0.822391 0
M  V30 13253 O 1242.61 -2.28077 -0.138913 0
M  V30 13254 C 1242.82 -1.22168 3.26919 0
M  V30 13255 C 1244.17 -1.64419 3.91474 0
M  V30 13256 O 1245.19 -1.31668 3.30971 0
M  V30 13257 O 1244.05 -2.25148 4.97967 0
M  V30 13258 H 1241.14 -0.372786 0.738214 0
M  V30 13259 H 1243.69 -0.0231245 1.69684 0
M  V30 13260 H 1242.46 -0.385302 3.89398 0
M  V30 13261 H 1242.09 -2.03269 3.41713 0
M  V30 13262 N 1243.08 -1.54377 -0.317073 0
M  V30 13263 C 1244.31 -1.76865 -1.07362 0
M  V30 13264 C 1244.73 -0.520354 -1.81488 0
M  V30 13265 O 1244.08 0.509213 -1.75252 0
M  V30 13266 C 1244.13 -2.96598 -2.06668 0
M  V30 13267 O 1243.85 -4.16602 -1.35552 0
M  V30 13268 C 1245.36 -3.31348 -2.94489 0
M  V30 13269 H 1242.58 -0.590277 -0.319083 0
M  V30 13270 H 1245.12 -2.01284 -0.361227 0
M  V30 13271 H 1243.27 -2.74433 -2.73432 0
M  V30 13272 H 1243.69 -4.83996 -2.02108 0
M  V30 13273 H 1245.16 -4.1841 -3.60051 0
M  V30 13274 H 1245.64 -2.48797 -3.61935 0
M  V30 13275 H 1246.25 -3.55614 -2.33278 0
M  V30 13276 N 1244.56 0.579466 -1.4656 0
M  V30 13277 C 1245.51 1.70937 -1.57744 0
M  V30 13278 C 1246.5 1.6343 -0.44577 0
M  V30 13279 O 1247.71 1.68884 -0.622762 0
M  V30 13280 H 1244.08 0.565218 -0.496017 0
M  V30 13281 H 1246.05 1.58636 -2.52739 0
M  V30 13282 C 1244.8 3.09321 -1.58794 0
M  V30 13283 H 1244.13 3.1577 -2.45213 0
M  V30 13284 H 1245.57 3.88132 -1.70674 0
M  V30 13285 C 1244.03 3.35404 -0.317165 0
M  V30 13286 O 1244.56 3.97325 0.591228 0
M  V30 13287 N 1242.76 2.89883 -0.204071 0
M  V30 13288 H 1242.31 2.39672 -0.944194 0
M  V30 13289 H 1242.27 3.07706 0.645303 0
M  V30 13290 N 1246.04 1.3432 0.824371 0
M  V30 13291 C 1246.97 1.2842 1.95014 0
M  V30 13292 C 1247.95 0.161925 1.69328 0
M  V30 13293 O 1249.13 0.354052 1.90945 0
M  V30 13294 C 1246.26 1.03741 3.31444 0
M  V30 13295 C 1245.22 2.12419 3.71567 0
M  V30 13296 C 1244.54 1.72931 5.05963 0
M  V30 13297 C 1245.84 3.54235 3.83817 0
M  V30 13298 H 1247.54 2.22614 2.00209 0
M  V30 13299 H 1245.08 1.07165 0.961856 0
M  V30 13300 H 1247.04 0.982586 4.09784 0
M  V30 13301 H 1245.76 0.0598892 3.26545 0
M  V30 13302 H 1244.42 2.16968 2.955 0
M  V30 13303 H 1244.07 0.738433 4.9755 0
M  V30 13304 H 1243.77 2.45668 5.3378 0
M  V30 13305 H 1245.29 1.68941 5.86763 0
M  V30 13306 H 1246.71 3.52106 4.52432 0
M  V30 13307 H 1245.1 4.25581 4.23085 0
M  V30 13308 H 1246.17 3.91682 2.85856 0
M  V30 13309 N 1247.52 -1.0444 1.18026 0
M  V30 13310 C 1248.77 -1.7697 0.9677 0
M  V30 13311 C 1249.08 -1.88995 -0.503994 0
M  V30 13312 O 1250.28 -2.58342 -0.834968 0
M  V30 13313 C 1248.74 -3.1816 1.68232 0
M  V30 13314 C 1248.35 -3.14241 3.19307 0
M  V30 13315 C 1250.09 -3.95095 1.55244 0
M  V30 13316 C 1248 -4.50266 3.83425 0
M  V30 13317 H 1246.93 -0.663355 0.358436 0
M  V30 13318 H 1249.58 -1.17003 1.4136 0
M  V30 13319 H 1247.96 -3.78501 1.16418 0
M  V30 13320 H 1249.14 -2.63373 3.78115 0
M  V30 13321 H 1247.45 -2.50805 3.32394 0
M  V30 13322 H 1250.05 -4.95681 2.00511 0
M  V30 13323 H 1250.39 -4.13236 0.504125 0
M  V30 13324 H 1250.92 -3.4132 2.04317 0
M  V30 13325 H 1247.66 -4.37329 4.88286 0
M  V30 13326 H 1247.18 -5.01251 3.29404 0
M  V30 13327 H 1248.86 -5.1919 3.86071 0
M  V30 13328 N 1248.99 -0.981699 -1.2329 0
M  V30 13329 C 1249.94 -0.52269 -2.24803 0
M  V30 13330 C 1250.91 0.439116 -1.6019 0
M  V30 13331 O 1252.1 0.346372 -1.8763 0
M  V30 13332 C 1249.24 0.167477 -3.44693 0
M  V30 13333 C 1248.35 -0.834744 -4.23858 0
M  V30 13334 C 1247.48 -0.119249 -5.31066 0
M  V30 13335 C 1246.52 -1.1106 -6.0194 0
M  V30 13336 N 1245.66 -0.424167 -7.00818 0
M  V30 13337 H 1250.5 -1.39312 -2.63431 0
M  V30 13338 H 1248.04 -0.698061 -1.29482 0
M  V30 13339 H 1250 0.584442 -4.13086 0
M  V30 13340 H 1248.63 1.00177 -3.06862 0
M  V30 13341 H 1247.68 -1.37009 -3.5487 0
M  V30 13342 H 1248.99 -1.59012 -4.72776 0
M  V30 13343 H 1248.14 0.355015 -6.0566 0
M  V30 13344 H 1246.88 0.668714 -4.83094 0
M  V30 13345 H 1245.89 -1.5956 -5.26138 0
M  V30 13346 H 1247.11 -1.89924 -6.52001 0
M  V30 13347 H 1245.06 0.344564 -6.55094 0
M  V30 13348 H 1244.98 -1.11817 -7.47685 0
M  V30 13349 H 1246.24 0.0276655 -7.79495 0
M  V30 13350 N 1250.47 1.3842 -0.753509 0
M  V30 13351 C 1251.7 2.04403 -0.320449 0
M  V30 13352 C 1252.12 1.5683 1.05118 0
M  V30 13353 O 1251.47 0.741335 1.66765 0
M  V30 13354 C 1251.52 3.59954 -0.333937 0
M  V30 13355 O 1251.24 4.05782 -1.65144 0
M  V30 13356 C 1252.75 4.43156 0.112997 0
M  V30 13357 H 1249.97 0.656881 -0.136927 0
M  V30 13358 H 1252.51 1.77112 -1.02234 0
M  V30 13359 H 1250.66 3.86083 0.319215 0
M  V30 13360 H 1251.08 5.00213 -1.57757 0
M  V30 13361 H 1252.55 5.51975 0.0523995 0
M  V30 13362 H 1253.03 4.23581 1.16087 0
M  V30 13363 H 1253.64 4.22216 -0.511278 0
M  V30 13364 N 1251.95 0.502579 1.49372 0
M  V30 13365 C 1252.88 -0.311743 2.2707 0
M  V30 13366 C 1253.9 -0.929204 1.33677 0
M  V30 13367 O 1255.08 -0.812277 1.58948 0
M  V30 13368 C 1252.18 -1.45404 3.06122 0
M  V30 13369 C 1251.36 -0.943591 4.27101 0
M  V30 13370 C 1250.42 -1.96368 4.88186 0
M  V30 13371 O 1249.44 -1.5316 5.48207 0
M  V30 13372 N 1250.64 -3.29419 4.77978 0
M  V30 13373 H 1253.41 0.354503 2.97596 0
M  V30 13374 H 1250.97 0.335222 1.58392 0
M  V30 13375 H 1252.96 -2.13404 3.43862 0
M  V30 13376 H 1251.53 -2.02441 2.38194 0
M  V30 13377 H 1250.75 -0.0884372 3.94101 0
M  V30 13378 H 1252.04 -0.580983 5.05472 0
M  V30 13379 H 1251.44 -3.67211 4.30317 0
M  V30 13380 H 1250 -3.93129 5.19897 0
M  V30 13381 N 1253.43 -1.55816 0.23648 0
M  V30 13382 C 1254.71 -1.90565 -0.440933 0
M  V30 13383 C 1255.09 -1.15585 -1.76645 0
M  V30 13384 O 1254.43 -0.269949 -2.269 0
M  V30 13385 C 1254.64 -3.43462 -0.61925 0
M  V30 13386 C 1255.99 -4.14516 -0.91989 0
M  V30 13387 O 1257.02 -3.49144 -0.705496 0
M  V30 13388 O 1255.87 -5.3013 -1.32759 0
M  V30 13389 H 1252.97 -0.79285 -0.235199 0
M  V30 13390 H 1255.51 -1.67378 0.279774 0
M  V30 13391 H 1254.29 -3.90029 0.315124 0
M  V30 13392 H 1253.91 -3.72478 -1.39089 0
M  V30 13393 N 1254.91 0.036755 -1.57557 0
M  V30 13394 C 1256.15 0.730186 -1.89199 0
M  V30 13395 C 1256.49 1.75414 -0.833271 0
M  V30 13396 O 1255.76 1.93901 0.152579 0
M  V30 13397 C 1256.04 1.40669 -3.31488 0
M  V30 13398 C 1255.9 0.396764 -4.48047 0
M  V30 13399 C 1257.22 2.34268 -3.72567 0
M  V30 13400 H 1254.33 0.263983 -0.6881 0
M  V30 13401 H 1256.98 -0.0069847 -1.89999 0
M  V30 13402 H 1255.13 2.03502 -3.30937 0
M  V30 13403 H 1256.8 -0.229062 -4.60731 0
M  V30 13404 H 1255.04 -0.284698 -4.32865 0
M  V30 13405 H 1255.71 0.908436 -5.44474 0
M  V30 13406 H 1258.19 1.81485 -3.74436 0
M  V30 13407 H 1257.06 2.78587 -4.72949 0
M  V30 13408 H 1257.33 3.20611 -3.04403 0
M  V30 13409 N 1256.39 1.54543 0.308881 0
M  V30 13410 C 1257.63 1.73449 1.04506 0
M  V30 13411 C 1257.96 0.516034 1.8753 0
M  V30 13412 O 1257.22 -0.502106 1.89149 0
M  V30 13413 C 1257.51 2.97124 1.98626 0
M  V30 13414 C 1257.18 4.31256 1.31641 0
M  V30 13415 C 1255.84 4.67719 1.13105 0
M  V30 13416 C 1258.19 5.14437 0.836888 0
M  V30 13417 C 1255.52 5.84949 0.452878 0
M  V30 13418 C 1257.87 6.32365 0.172473 0
M  V30 13419 C 1256.54 6.67495 -0.0249143 0
M  V30 13420 H 1255.81 0.634697 0.382415 0
M  V30 13421 H 1258.46 1.88795 0.320714 0
M  V30 13422 H 1256.76 2.76526 2.77562 0
M  V30 13423 H 1258.46 3.08946 2.55643 0
M  V30 13424 H 1255.05 4.02576 1.47074 0
M  V30 13425 H 1259.23 4.86772 0.967834 0
M  V30 13426 H 1254.49 6.10717 0.288886 0
M  V30 13427 H 1258.66 6.96092 -0.207027 0
M  V30 13428 H 1256.29 7.5819 -0.552425 0
M  V30 13429 N 1257.86 -0.571685 1.46866 0
M  V30 13430 C 1259.09 -1.35524 1.56336 0
M  V30 13431 C 1259.51 -1.87647 0.208359 0
M  V30 13432 O 1258.86 -1.64219 -0.796136 0
M  V30 13433 C 1258.91 -2.53518 2.57703 0
M  V30 13434 O 1258.64 -2.03552 3.87941 0
M  V30 13435 C 1260.14 -3.45925 2.77219 0
M  V30 13436 H 1257.36 -0.41363 0.528348 0
M  V30 13437 H 1259.9 -0.693943 1.92366 0
M  V30 13438 H 1258.06 -3.15615 2.24647 0
M  V30 13439 H 1258.47 -2.80476 4.43208 0
M  V30 13440 H 1259.94 -4.2517 3.52043 0
M  V30 13441 H 1260.42 -3.98559 1.8452 0
M  V30 13442 H 1261.03 -2.89655 3.11416 0
M  V30 13443 N 1259.34 -1.34755 -0.817236 0
M  V30 13444 C 1260.59 -1.2762 -1.5761 0
M  V30 13445 C 1260.92 0.152017 -1.93604 0
M  V30 13446 O 1260.2 1.09881 -1.60488 0
M  V30 13447 C 1260.48 -2.17251 -2.87183 0
M  V30 13448 C 1260.33 -3.68638 -2.57733 0
M  V30 13449 C 1261.65 -2.06206 -3.88802 0
M  V30 13450 H 1258.77 -0.464933 -0.571845 0
M  V30 13451 H 1261.41 -1.6506 -0.941028 0
M  V30 13452 H 1259.56 -1.85452 -3.41379 0
M  V30 13453 H 1261.23 -4.10829 -2.09802 0
M  V30 13454 H 1259.48 -3.89445 -1.91089 0
M  V30 13455 H 1260.15 -4.26726 -3.50156 0
M  V30 13456 H 1262.62 -2.34137 -3.43975 0
M  V30 13457 H 1261.5 -2.71136 -4.77259 0
M  V30 13458 H 1261.76 -1.04075 -4.29675 0
M  V30 13459 N 1260.82 1.03812 -1.18578 0
M  V30 13460 C 1262.07 1.76455 -0.977071 0
M  V30 13461 C 1262.38 1.8926 0.493964 0
M  V30 13462 O 1263.59 2.58781 0.821256 0
M  V30 13463 C 1262.04 3.17264 -1.69917 0
M  V30 13464 C 1261.65 3.12543 -3.20969 0
M  V30 13465 C 1263.4 3.94266 -1.57337 0
M  V30 13466 C 1261.3 4.48226 -3.85807 0
M  V30 13467 H 1260.23 0.661445 -0.361949 0
M  V30 13468 H 1262.88 1.16252 -1.41978 0
M  V30 13469 H 1261.27 3.77878 -1.18424 0
M  V30 13470 H 1262.44 2.61364 -3.79507 0
M  V30 13471 H 1260.75 2.49039 -3.33719 0
M  V30 13472 H 1263.35 4.9461 -2.03137 0
M  V30 13473 H 1263.69 4.12963 -0.526033 0
M  V30 13474 H 1264.23 3.40232 -2.06124 0
M  V30 13475 H 1260.97 4.34734 -4.90599 0
M  V30 13476 H 1260.49 4.99497 -3.32058 0
M  V30 13477 H 1262.17 5.17135 -3.88819 0
M  V30 13478 N 1262.3 0.988223 1.22768 0
M  V30 13479 C 1263.71 0.69816 1.4352 0
M  V30 13480 C 1263.91 -0.732872 1.877 0
M  V30 13481 O 1262.97 -1.50436 2.02793 0
M  V30 13482 C 1264.28 1.69975 2.4805 0
M  V30 13483 C 1265.83 1.71467 2.61855 0
M  V30 13484 C 1266.31 2.70477 3.69603 0
M  V30 13485 N 1267.8 2.69043 3.77055 0
M  V30 13486 C 1268.53 3.42319 4.60006 0
M  V30 13487 N 1268.03 4.2518 5.46986 0
M  V30 13488 N 1269.82 3.31047 4.54274 0
M  V30 13489 H 1261.97 1.91251 0.923948 0
M  V30 13490 H 1264.23 0.82455 0.467783 0
M  V30 13491 H 1263.94 2.72354 2.22523 0
M  V30 13492 H 1263.81 1.48885 3.46573 0
M  V30 13493 H 1266.2 0.697889 2.86729 0
M  V30 13494 H 1266.28 1.96625 1.63622 0
M  V30 13495 H 1265.93 3.72302 3.45476 0
M  V30 13496 H 1265.86 2.42591 4.67394 0
M  V30 13497 H 1268.35 2.08914 3.14902 0
M  V30 13498 H 1268.66 4.77929 6.07292 0
M  V30 13499 H 1267.01 4.29268 5.46584 0
M  V30 13500 H 1270.2 2.65758 3.85345 0
M  V30 13501 H 1270.37 3.88413 5.1869 0
M  V30 13502 N 1263.78 -1.38018 0.760839 0
M  V30 13503 C 1265.01 -2.03934 0.330804 0
M  V30 13504 C 1265.41 -1.57509 -1.04821 0
M  V30 13505 O 1264.76 -0.746718 -1.67839 0
M  V30 13506 C 1264.82 -3.58384 0.28303 0
M  V30 13507 C 1264.48 -4.27896 1.6048 0
M  V30 13508 C 1265.48 -4.52769 2.5553 0
M  V30 13509 C 1263.16 -4.65943 1.87624 0
M  V30 13510 C 1265.16 -5.14732 3.75938 0
M  V30 13511 C 1262.85 -5.27629 3.08304 0
M  V30 13512 C 1263.84 -5.51959 4.02281 0
M  V30 13513 O 1263.53 -6.12358 5.20838 0
M  V30 13514 H 1263.26 -0.661733 0.138148 0
M  V30 13515 H 1265.82 -1.77551 1.03271 0
M  V30 13516 H 1264.05 -3.83769 -0.47517 0
M  V30 13517 H 1265.74 -4.05727 -0.118464 0
M  V30 13518 H 1266.5 -4.23798 2.35839 0
M  V30 13519 H 1262.38 -4.46346 1.15308 0
M  V30 13520 H 1265.93 -5.33639 4.49305 0
M  V30 13521 H 1261.82 -5.56023 3.27886 0
M  V30 13522 H 1262.59 -6.30842 5.21517 0
M  V30 13523 N 1265.25 -0.510493 -1.49103 0
M  V30 13524 C 1266.5 0.0325393 -2.01674 0
M  V30 13525 C 1266.82 1.37162 -1.39448 0
M  V30 13526 O 1268.02 2.00189 -1.83402 0
M  V30 13527 C 1266.48 0.108433 -3.59737 0
M  V30 13528 C 1266.09 -1.22458 -4.30939 0
M  V30 13529 C 1267.83 0.601326 -4.20219 0
M  V30 13530 C 1265.74 -1.11033 -5.80884 0
M  V30 13531 H 1264.67 0.0159333 -0.753832 0
M  V30 13532 H 1267.32 -0.651344 -1.71551 0
M  V30 13533 H 1265.7 0.856974 -3.86616 0
M  V30 13534 H 1266.87 -1.98715 -4.15751 0
M  V30 13535 H 1265.19 -1.65166 -3.82242 0
M  V30 13536 H 1267.79 0.704462 -5.30039 0
M  V30 13537 H 1268.13 1.60247 -3.84222 0
M  V30 13538 H 1268.66 -0.0909561 -3.97696 0
M  V30 13539 H 1265.4 -2.08603 -6.21422 0
M  V30 13540 H 1264.92 -0.388798 -5.98539 0
M  V30 13541 H 1266.6 -0.792949 -6.42123 0
M  V30 13542 N 1266.73 1.55688 -0.24474 0
M  V30 13543 C 1267.96 2.03743 0.387776 0
M  V30 13544 C 1268.38 1.1229 1.50906 0
M  V30 13545 O 1267.74 0.115445 1.80932 0
M  V30 13546 C 1267.79 3.49825 0.874927 0
M  V30 13547 O 1266.89 3.61504 1.98466 0
M  V30 13548 H 1266.23 0.658561 0.0848107 0
M  V30 13549 H 1268.76 2.01224 -0.370165 0
M  V30 13550 H 1268.77 3.90603 1.17871 0
M  V30 13551 H 1267.45 4.15864 0.0543852 0
M  V30 13552 H 1266.02 3.32622 1.68574 0
M  V30 13553 N 1268.21 -0.0283989 1.57574 0
M  V30 13554 C 1269.44 -0.729772 1.93282 0
M  V30 13555 C 1269.85 -1.69384 0.842959 0
M  V30 13556 O 1269.19 -1.82722 -0.189286 0
M  V30 13557 C 1269.25 -1.54107 3.24794 0
M  V30 13558 C 1268.92 -0.741709 4.50941 0
M  V30 13559 C 1269.91 -0.0416985 5.19883 0
M  V30 13560 C 1267.6 -0.696053 4.97454 0
M  V30 13561 C 1269.59 0.693261 6.33619 0
M  V30 13562 C 1267.28 0.042651 6.11085 0
M  V30 13563 C 1268.28 0.736067 6.79022 0
M  V30 13564 O 1267.97 1.46278 7.9048 0
M  V30 13565 H 1267.7 -0.210092 0.642524 0
M  V30 13566 H 1270.25 0.0102277 2.05397 0
M  V30 13567 H 1268.48 -2.3249 3.09007 0
M  V30 13568 H 1270.17 -2.12512 3.45823 0
M  V30 13569 H 1270.94 -0.0679975 4.84952 0
M  V30 13570 H 1266.82 -1.22528 4.44419 0
M  V30 13571 H 1270.36 1.23504 6.8658 0
M  V30 13572 H 1266.26 0.0708708 6.45461 0
M  V30 13573 H 1267.02 1.37652 8.06842 0
M  V30 13574 N 1269.69 -1.54705 -0.300681 0
M  V30 13575 C 1270.64 -1.86433 -1.39087 0
M  V30 13576 C 1271.63 -0.738101 -1.52474 0
M  V30 13577 O 1272.84 -0.922096 -1.54588 0
M  V30 13578 H 1269.21 -0.591314 -0.464599 0
M  V30 13579 H 1271.18 -2.77558 -1.09563 0
M  V30 13580 C 1269.93 -2.1286 -2.74929 0
M  V30 13581 H 1269.25 -2.98994 -2.6541 0
M  V30 13582 H 1270.69 -2.39 -3.50222 0
M  V30 13583 C 1269.15 -0.92726 -3.23888 0
M  V30 13584 O 1269.68 -0.147921 -4.01428 0
M  V30 13585 N 1267.89 -0.732553 -2.81215 0
M  V30 13586 H 1267.44 -1.36797 -2.18276 0
M  V30 13587 H 1267.39 0.0696902 -3.14323 0
M  V30 13588 N 1271.17 0.563888 -1.47167 0
M  V30 13589 C 1272.39 1.35176 -1.57297 0
M  V30 13590 C 1272.82 1.86794 -0.221235 0
M  V30 13591 O 1272.17 1.62606 0.801809 0
M  V30 13592 C 1272.22 2.50225 -2.59654 0
M  V30 13593 O 1271.33 3.5225 -2.14461 0
M  V30 13594 H 1270.67 0.401795 -0.528637 0
M  V30 13595 H 1273.2 0.682137 -1.92894 0
M  V30 13596 H 1273.21 2.96886 -2.79862 0
M  V30 13597 H 1271.88 2.1201 -3.57805 0
M  V30 13598 H 1270.46 3.1194 -2.04323 0
M  V30 13599 N 1272.64 1.35187 0.810078 0
M  V30 13600 C 1273.87 1.31181 1.59609 0
M  V30 13601 C 1274.28 -0.113556 1.88859 0
M  V30 13602 O 1273.63 -1.07491 1.48968 0
M  V30 13603 C 1273.69 2.04749 2.95496 0
M  V30 13604 C 1273.35 3.53952 2.89079 0
M  V30 13605 C 1274.35 4.48612 2.6276 0
M  V30 13606 C 1272.03 3.96551 3.08306 0
M  V30 13607 C 1274.03 5.83846 2.5574 0
M  V30 13608 C 1271.71 5.31881 3.00909 0
M  V30 13609 C 1272.71 6.2534 2.74661 0
M  V30 13610 O 1272.4 7.58188 2.6722 0
M  V30 13611 H 1272.13 0.452285 0.502408 0
M  V30 13612 H 1274.69 1.78571 1.01497 0
M  V30 13613 H 1272.92 1.51992 3.55577 0
M  V30 13614 H 1274.61 1.93866 3.5661 0
M  V30 13615 H 1275.37 4.1702 2.47628 0
M  V30 13616 H 1271.25 3.24194 3.27749 0
M  V30 13617 H 1274.79 6.56765 2.35172 0
M  V30 13618 H 1270.69 5.63088 3.15598 0
M  V30 13619 H 1271.46 7.68073 2.82853 0
M  V30 13620 N 1274.12 -1.03182 1.19127 0
M  V30 13621 C 1275.37 -1.76184 0.990134 0
M  V30 13622 C 1275.69 -1.88986 -0.480546 0
M  V30 13623 O 1274.96 -1.4213 -1.34817 0
M  V30 13624 H 1273.54 -0.652668 0.363364 0
M  V30 13625 H 1276.2 -1.24481 1.49968 0
M  V30 13626 H 1275.3 -2.77119 1.43568 0
M  V30 13627 N 1275.6 -0.99472 -1.22242 0
M  V30 13628 C 1276.55 -0.546504 -2.24236 0
M  V30 13629 C 1277.52 0.422101 -1.60647 0
M  V30 13630 O 1278.7 0.326452 -1.87987 0
M  V30 13631 C 1275.84 0.130909 -3.44852 0
M  V30 13632 C 1274.96 -0.879653 -4.22949 0
M  V30 13633 C 1274.09 -0.175569 -5.3091 0
M  V30 13634 C 1273.13 -1.17438 -6.00729 0
M  V30 13635 N 1272.27 -0.498474 -7.00328 0
M  V30 13636 H 1277.11 -1.42099 -2.61939 0
M  V30 13637 H 1274.64 -0.711755 -1.28734 0
M  V30 13638 H 1276.6 0.540596 -4.13683 0
M  V30 13639 H 1275.23 0.96917 -3.07907 0
M  V30 13640 H 1274.28 -1.40765 -3.53397 0
M  V30 13641 H 1275.6 -1.64017 -4.71062 0
M  V30 13642 H 1274.75 0.290756 -6.06003 0
M  V30 13643 H 1273.49 0.617438 -4.83776 0
M  V30 13644 H 1272.49 -1.65131 -5.24416 0
M  V30 13645 H 1273.72 -1.96829 -6.4995 0
M  V30 13646 H 1271.66 0.275063 -6.55423 0
M  V30 13647 H 1271.58 -1.19741 -7.46457 0
M  V30 13648 H 1272.85 -0.0550119 -7.79481 0
M  V30 13649 N 1277.08 1.37613 -0.768148 0
M  V30 13650 C 1278.03 2.3218 -0.13974 0
M  V30 13651 C 1279.02 1.54754 0.689023 0
M  V30 13652 O 1280.23 1.70177 0.586489 0
M  V30 13653 H 1276.6 0.751536 -0.0264001 0
M  V30 13654 H 1278.57 2.82768 -0.953139 0
M  V30 13655 C 1277.32 3.39997 0.727829 0
M  V30 13656 H 1276.64 3.99676 0.0994851 0
M  V30 13657 H 1278.08 4.08538 1.13456 0
M  V30 13658 C 1276.54 2.79778 1.87686 0
M  V30 13659 O 1277.07 2.70241 2.97208 0
M  V30 13660 N 1275.28 2.37373 1.67637 0
M  V30 13661 H 1274.83 2.4533 0.785552 0
M  V30 13662 H 1274.78 1.97426 2.44684 0
M  V30 13663 N 1278.56 0.518393 1.4883 0
M  V30 13664 C 1279.49 -0.297703 2.2625 0
M  V30 13665 C 1280.47 -0.955096 1.31593 0
M  V30 13666 O 1281.65 -0.981776 1.60914 0
M  V30 13667 C 1278.78 -1.42065 3.07466 0
M  V30 13668 C 1277.82 -0.875854 4.1741 0
M  V30 13669 S 1278.66 0.247153 5.34929 0
M  V30 13670 C 1279.81 -0.878544 6.19703 0
M  V30 13671 H 1280.05 0.359358 2.9512 0
M  V30 13672 H 1277.58 0.303976 1.51378 0
M  V30 13673 H 1279.54 -2.06398 3.54838 0
M  V30 13674 H 1278.2 -2.04939 2.38031 0
M  V30 13675 H 1277.39 -1.71793 4.73818 0
M  V30 13676 H 1276.99 -0.30943 3.72718 0
M  V30 13677 H 1279.29 -1.77986 6.53703 0
M  V30 13678 H 1280.23 -0.3527 7.07221 0
M  V30 13679 H 1280.64 -1.15372 5.52584 0
M  V30 13680 N 1280.03 -1.55556 0.252993 0
M  V30 13681 C 1281 -2.20351 -0.630705 0
M  V30 13682 C 1282 -1.17461 -1.09816 0
M  V30 13683 O 1283.19 -1.42505 -1.00189 0
M  V30 13684 C 1280.32 -2.85192 -1.86757 0
M  V30 13685 H 1281.51 -2.99829 -0.0652939 0
M  V30 13686 H 1279.07 -1.563 0.00347982 0
M  V30 13687 H 1279.8 -2.09669 -2.47406 0
M  V30 13688 H 1279.59 -3.60569 -1.54053 0
M  V30 13689 H 1281.08 -3.34762 -2.49648 0
M  V30 13690 N 1281.51 0.0200419 -1.57587 0
M  V30 13691 C 1282.76 0.704552 -1.90808 0
M  V30 13692 C 1283.11 1.72479 -0.852568 0
M  V30 13693 O 1282.41 1.91105 0.137682 0
M  V30 13694 C 1282.6 1.40729 -3.28527 0
M  V30 13695 C 1282.43 0.456634 -4.47376 0
M  V30 13696 C 1281.2 0.0743638 -5.05245 0
M  V30 13697 C 1283.4 -0.268767 -5.13597 0
M  V30 13698 N 1281.38 -0.876606 -6.07609 0
M  V30 13699 C 1282.75 -1.07509 -6.10608 0
M  V30 13700 C 1284.81 -0.334748 -4.96773 0
M  V30 13701 C 1283.51 -1.94135 -6.92607 0
M  V30 13702 C 1285.53 -1.18816 -5.79342 0
M  V30 13703 C 1284.9 -1.98238 -6.7593 0
M  V30 13704 H 1281 0.231633 -0.746907 0
M  V30 13705 H 1283.58 -0.0355944 -1.94667 0
M  V30 13706 H 1281.75 2.11785 -3.25579 0
M  V30 13707 H 1283.48 2.04491 -3.49236 0
M  V30 13708 H 1280.24 0.43848 -4.71566 0
M  V30 13709 H 1280.66 -1.34687 -6.63467 0
M  V30 13710 H 1285.3 0.264995 -4.21969 0
M  V30 13711 H 1283.02 -2.55185 -7.6675 0
M  V30 13712 H 1286.61 -1.24286 -5.6837 0
M  V30 13713 H 1285.49 -2.63208 -7.38709 0
M  V30 13714 N 1282.99 1.54862 0.292472 0
M  V30 13715 C 1283.94 1.87168 1.38097 0
M  V30 13716 C 1284.93 0.746176 1.52081 0
M  V30 13717 O 1286.14 0.930281 1.54097 0
M  V30 13718 H 1282.51 0.593769 0.461456 0
M  V30 13719 H 1284.48 2.78135 1.0809 0
M  V30 13720 C 1283.23 2.14315 2.73796 0
M  V30 13721 H 1282.56 3.00398 2.63821 0
M  V30 13722 H 1284 2.40853 3.48949 0
M  V30 13723 C 1282.46 0.944424 3.23392 0
M  V30 13724 O 1282.99 0.169208 4.01343 0
M  V30 13725 N 1281.19 0.747456 2.80823 0
M  V30 13726 H 1280.74 1.37953 2.17547 0
M  V30 13727 H 1280.7 -0.0530199 3.14355 0
M  V30 13728 N 1284.47 -0.556076 1.47464 0
M  V30 13729 C 1285.71 -1.31283 1.55358 0
M  V30 13730 C 1286.07 -1.91212 0.213492 0
M  V30 13731 O 1285.36 -1.74963 -0.780934 0
M  V30 13732 C 1285.56 -2.44298 2.6087 0
M  V30 13733 C 1285.39 -1.95444 4.05008 0
M  V30 13734 C 1284.16 -1.79235 4.72443 0
M  V30 13735 C 1286.35 -1.49825 4.91993 0
M  V30 13736 N 1284.34 -1.24732 6.01095 0
M  V30 13737 C 1285.71 -1.07095 6.1068 0
M  V30 13738 C 1287.76 -1.37887 4.78426 0
M  V30 13739 C 1286.46 -0.536134 7.17299 0
M  V30 13740 C 1288.49 -0.858066 5.85142 0
M  V30 13741 C 1287.85 -0.440699 7.0302 0
M  V30 13742 H 1283.95 -0.472387 0.623197 0
M  V30 13743 H 1286.54 -0.630184 1.84219 0
M  V30 13744 H 1284.71 -3.10092 2.33875 0
M  V30 13745 H 1286.44 -3.11299 2.58601 0
M  V30 13746 H 1283.19 -2.01984 4.28368 0
M  V30 13747 H 1283.62 -0.995659 6.69638 0
M  V30 13748 H 1288.26 -1.68766 3.87657 0
M  V30 13749 H 1285.98 -0.214967 8.07814 0
M  V30 13750 H 1289.56 -0.769235 5.76692 0
M  V30 13751 H 1288.44 -0.0439514 7.84188 0
M  V30 13752 N 1285.95 -1.35615 -0.802897 0
M  V30 13753 C 1287.2 -1.28428 -1.55528 0
M  V30 13754 C 1287.51 0.138275 -1.95111 0
M  V30 13755 O 1288.72 0.332435 -2.69457 0
M  V30 13756 C 1287.17 -2.25251 -2.80696 0
M  V30 13757 C 1286.78 -3.72871 -2.48336 0
M  V30 13758 C 1288.52 -2.27014 -3.58699 0
M  V30 13759 C 1286.43 -4.61507 -3.69817 0
M  V30 13760 H 1285.36 -0.47718 -0.583794 0
M  V30 13761 H 1288.01 -1.609 -0.882238 0
M  V30 13762 H 1286.39 -1.85755 -3.4973 0
M  V30 13763 H 1287.57 -4.21024 -1.87285 0
M  V30 13764 H 1285.88 -3.73752 -1.83571 0
M  V30 13765 H 1288.48 -2.90451 -4.48935 0
M  V30 13766 H 1288.82 -1.27491 -3.96298 0
M  V30 13767 H 1289.36 -2.65058 -2.9663 0
M  V30 13768 H 1286.09 -5.62043 -3.37324 0
M  V30 13769 H 1285.61 -4.18079 -4.30081 0
M  V30 13770 H 1287.29 -4.77113 -4.37004 0
M  V30 13771 N 1287.43 1.02549 -1.19673 0
M  V30 13772 C 1288.36 2.10991 -0.8953 0
M  V30 13773 C 1289.37 1.62405 0.113373 0
M  V30 13774 O 1290.56 1.7812 -0.116485 0
M  V30 13775 C 1287.66 3.37394 -0.319124 0
M  V30 13776 C 1286.83 4.15154 -1.37718 0
M  V30 13777 C 1285.89 5.19867 -0.81393 0
M  V30 13778 O 1284.92 5.49285 -1.49246 0
M  V30 13779 N 1286.12 5.79248 0.381089 0
M  V30 13780 H 1288.88 2.37438 -1.82875 0
M  V30 13781 H 1286.45 1.18867 -1.09919 0
M  V30 13782 H 1288.44 4.04637 0.0716106 0
M  V30 13783 H 1287.01 3.08267 0.518681 0
M  V30 13784 H 1286.23 3.4301 -1.94262 0
M  V30 13785 H 1287.52 4.63892 -2.09003 0
M  V30 13786 H 1286.91 5.5767 0.949791 0
M  V30 13787 H 1285.47 6.47882 0.713563 0
M  V30 13788 N 1288.9 1.00119 1.21713 0
M  V30 13789 C 1289.83 0.578504 2.2622 0
M  V30 13790 C 1290.81 -0.398777 1.6536 0
M  V30 13791 O 1292 -0.287596 1.92059 0
M  V30 13792 C 1289.13 -0.0994508 3.47158 0
M  V30 13793 C 1288.08 0.79722 4.2051 0
M  V30 13794 C 1287.41 -0.0141125 5.34698 0
M  V30 13795 C 1288.71 2.09802 4.7831 0
M  V30 13796 H 1290.4 1.45208 2.6183 0
M  V30 13797 H 1287.95 0.699656 1.2586 0
M  V30 13798 H 1289.9 -0.406605 4.19434 0
M  V30 13799 H 1288.63 -1.00763 3.10667 0
M  V30 13800 H 1287.29 1.08814 3.50079 0
M  V30 13801 H 1286.93 -0.923468 4.9445 0
M  V30 13802 H 1286.63 0.582883 5.84702 0
M  V30 13803 H 1288.16 -0.31517 6.09786 0
M  V30 13804 H 1289.57 1.85427 5.42485 0
M  V30 13805 H 1287.97 2.64455 5.38687 0
M  V30 13806 H 1289.04 2.77132 3.97902 0
M  V30 13807 N 1290.38 -1.37203 0.775435 0
M  V30 13808 C 1291.33 -2.32102 0.152051 0
M  V30 13809 C 1292.32 -1.55117 -0.680806 0
M  V30 13810 O 1293.53 -1.70486 -0.577455 0
M  V30 13811 H 1289.9 -0.751386 0.0303853 0
M  V30 13812 H 1291.88 -2.82259 0.968121 0
M  V30 13813 C 1290.62 -3.40378 -0.709788 0
M  V30 13814 H 1289.95 -3.99723 -0.0782879 0
M  V30 13815 H 1291.39 -4.09134 -1.11288 0
M  V30 13816 C 1289.85 -2.80769 -1.862 0
M  V30 13817 O 1290.38 -2.71813 -2.95771 0
M  V30 13818 N 1288.58 -2.38259 -1.66376 0
M  V30 13819 H 1288.13 -2.45743 -0.772531 0
M  V30 13820 H 1288.09 -1.98721 -2.43634 0
M  V30 13821 N 1291.86 -0.526279 -1.48553 0
M  V30 13822 C 1293.11 0.00107127 -2.034 0
M  V30 13823 C 1293.46 1.32343 -1.39654 0
M  V30 13824 O 1292.75 1.84071 -0.531835 0
M  V30 13825 C 1292.95 0.184075 -3.56926 0
M  V30 13826 C 1292.78 -1.11899 -4.35556 0
M  V30 13827 C 1291.55 -1.67784 -4.76631 0
M  V30 13828 C 1293.74 -2.02868 -4.72598 0
M  V30 13829 N 1291.73 -2.92418 -5.39783 0
M  V30 13830 C 1293.1 -3.12078 -5.35731 0
M  V30 13831 C 1295.15 -2.03239 -4.54531 0
M  V30 13832 C 1293.86 -4.21719 -5.82705 0
M  V30 13833 C 1295.88 -3.11872 -5.02484 0
M  V30 13834 C 1295.24 -4.19801 -5.65638 0
M  V30 13835 H 1291.34 -0.0410153 -0.780924 0
M  V30 13836 H 1293.93 -0.706739 -1.8142 0
M  V30 13837 H 1292.1 0.860966 -3.78737 0
M  V30 13838 H 1293.83 0.710699 -3.98411 0
M  V30 13839 H 1290.58 -1.2197 -4.57625 0
M  V30 13840 H 1291.01 -3.55862 -5.75927 0
M  V30 13841 H 1295.65 -1.21092 -4.05088 0
M  V30 13842 H 1293.37 -5.04647 -6.31155 0
M  V30 13843 H 1296.95 -3.1321 -4.90297 0
M  V30 13844 H 1295.83 -5.02475 -6.0207 0
M  V30 13845 N 1293.34 1.5542 -0.261239 0
M  V30 13846 C 1294.61 1.91243 0.41056 0
M  V30 13847 C 1294.99 1.1838 1.74784 0
M  V30 13848 O 1294.34 0.306013 2.26442 0
M  V30 13849 C 1294.55 3.44404 0.56453 0
M  V30 13850 C 1295.9 4.15927 0.853827 0
M  V30 13851 O 1296.92 3.50222 0.649861 0
M  V30 13852 O 1295.78 5.32175 1.24308 0
M  V30 13853 H 1292.88 0.796491 0.222555 0
M  V30 13854 H 1295.42 1.66912 -0.306367 0
M  V30 13855 H 1294.2 3.89478 -0.377134 0
M  V30 13856 H 1293.82 3.74644 1.33145 0
M  V30 13857 N 1294.82 -0.0116844 1.57596 0
M  V30 13858 C 1296.05 -0.70923 1.94045 0
M  V30 13859 C 1296.45 -1.6848 0.860877 0
M  V30 13860 O 1295.8 -1.82913 -0.169896 0
M  V30 13861 C 1295.86 -1.50653 3.2641 0
M  V30 13862 C 1295.52 -0.693838 4.51702 0
M  V30 13863 C 1296.52 0.0134445 5.19898 0
M  V30 13864 C 1294.2 -0.643252 4.98164 0
M  V30 13865 C 1296.2 0.760426 6.32848 0
M  V30 13866 C 1293.89 0.107462 6.11006 0
M  V30 13867 C 1294.88 0.808045 6.78203 0
M  V30 13868 O 1294.57 1.54654 7.88884 0
M  V30 13869 H 1294.3 -0.203265 0.644716 0
M  V30 13870 H 1296.86 0.0320123 2.05375 0
M  V30 13871 H 1295.09 -2.29199 3.11456 0
M  V30 13872 H 1296.78 -2.08832 3.48058 0
M  V30 13873 H 1297.54 -0.016558 4.84997 0
M  V30 13874 H 1293.42 -1.17807 4.45693 0
M  V30 13875 H 1296.97 1.30779 6.85232 0
M  V30 13876 H 1292.86 0.139327 6.4535 0
M  V30 13877 H 1293.63 1.46202 8.05337 0
M  V30 13878 N 1296.29 -1.55015 -0.284256 0
M  V30 13879 C 1297.22 -1.90128 -1.3555 0
M  V30 13880 C 1298.2 -0.761914 -1.52082 0
M  V30 13881 O 1299.39 -1.01909 -1.65312 0
M  V30 13882 C 1296.52 -2.16332 -2.71695 0
M  V30 13883 C 1295.47 -3.32166 -2.69907 0
M  V30 13884 C 1294.8 -3.43824 -4.09498 0
M  V30 13885 C 1296.1 -4.6885 -2.30168 0
M  V30 13886 H 1297.79 -2.79852 -1.06411 0
M  V30 13887 H 1295.34 -1.34649 -0.510451 0
M  V30 13888 H 1297.29 -2.39482 -3.46737 0
M  V30 13889 H 1296.02 -1.23395 -3.02392 0
M  V30 13890 H 1294.68 -3.08965 -1.97322 0
M  V30 13891 H 1294.32 -2.48375 -4.374 0
M  V30 13892 H 1294.02 -4.21698 -4.092 0
M  V30 13893 H 1295.55 -3.69254 -4.86296 0
M  V30 13894 H 1296.96 -4.91619 -2.9493 0
M  V30 13895 H 1295.36 -5.49558 -2.41052 0
M  V30 13896 H 1296.43 -4.68433 -1.25294 0
M  V30 13897 N 1297.77 0.548248 -1.47757 0
M  V30 13898 C 1299.02 1.30694 -1.55071 0
M  V30 13899 C 1299.35 1.92994 -0.216075 0
M  V30 13900 O 1298.63 1.78341 0.776196 0
M  V30 13901 C 1298.91 2.41024 -2.67543 0
M  V30 13902 C 1298.76 1.83534 -4.10652 0
M  V30 13903 C 1300.08 3.42902 -2.75874 0
M  V30 13904 H 1297.2 0.47383 -0.564494 0
M  V30 13905 H 1299.84 0.612628 -1.79852 0
M  V30 13906 H 1297.99 3.00248 -2.46543 0
M  V30 13907 H 1299.66 1.28503 -4.4304 0
M  V30 13908 H 1297.91 1.14161 -4.18509 0
M  V30 13909 H 1298.58 2.63335 -4.85138 0
M  V30 13910 H 1301.05 2.9361 -2.94843 0
M  V30 13911 H 1299.93 4.17516 -3.5633 0
M  V30 13912 H 1300.19 4.02314 -1.83291 0
M  V30 13913 N 1299.25 1.36039 0.795694 0
M  V30 13914 C 1300.2 1.29902 1.92946 0
M  V30 13915 C 1301.19 0.191943 1.68309 0
M  V30 13916 O 1302.4 0.358577 1.76392 0
M  V30 13917 H 1298.77 0.404252 0.634101 0
M  V30 13918 H 1300.74 2.25663 1.95241 0
M  V30 13919 C 1299.49 1.09887 3.29879 0
M  V30 13920 H 1298.82 1.94318 3.494 0
M  V30 13921 H 1300.26 1.09638 4.0958 0
M  V30 13922 C 1298.71 -0.196802 3.36325 0
M  V30 13923 O 1299.24 -1.18883 3.83705 0
M  V30 13924 N 1297.45 -0.239325 2.89613 0
M  V30 13925 H 1297 0.568571 2.51247 0
M  V30 13926 H 1296.96 -1.10593 2.94307 0
M  V30 13927 N 1300.73 -1.01913 1.20215 0
M  V30 13928 C 1302.14 -1.27766 0.956459 0
M  V30 13929 C 1302.34 -1.98158 -0.365486 0
M  V30 13930 O 1301.4 -2.27539 -1.09463 0
M  V30 13931 C 1302.71 -2.11516 2.13732 0
M  V30 13932 C 1304.26 -2.24792 2.17802 0
M  V30 13933 C 1304.74 -3.11919 3.35367 0
M  V30 13934 N 1306.23 -3.19507 3.35364 0
M  V30 13935 C 1306.96 -3.8714 4.22978 0
M  V30 13936 N 1306.46 -4.5692 5.20765 0
M  V30 13937 N 1308.25 -3.83638 4.10827 0
M  V30 13938 H 1300.4 -0.546426 2.05251 0
M  V30 13939 H 1302.67 -0.303772 0.898012 0
M  V30 13940 H 1302.37 -1.67127 3.09453 0
M  V30 13941 H 1302.25 -3.12249 2.11614 0
M  V30 13942 H 1304.63 -2.68407 1.22645 0
M  V30 13943 H 1304.71 -1.23576 2.2397 0
M  V30 13944 H 1304.36 -2.6901 4.30809 0
M  V30 13945 H 1304.29 -4.13215 3.26436 0
M  V30 13946 H 1306.78 -2.69819 2.64587 0
M  V30 13947 H 1307.09 -5.06188 5.83947 0
M  V30 13948 H 1305.44 -4.55753 5.24704 0
M  V30 13949 H 1308.63 -3.28268 3.33703 0
M  V30 13950 H 1308.8 -4.36071 4.79318 0
M  V30 13951 N 1302.21 -1.00763 -1.2118 0
M  V30 13952 C 1303.44 -0.709715 -1.94027 0
M  V30 13953 C 1303.84 0.732135 -1.7446 0
M  V30 13954 O 1303.19 1.50731 -1.05004 0
M  V30 13955 C 1303.25 -0.95427 -3.46603 0
M  V30 13956 C 1302.91 -2.38347 -3.89923 0
M  V30 13957 C 1303.91 -3.36383 -3.96412 0
M  V30 13958 C 1301.6 -2.72183 -4.22163 0
M  V30 13959 C 1303.59 -4.66321 -4.34538 0
M  V30 13960 C 1301.28 -4.02336 -4.59966 0
M  V30 13961 C 1302.27 -4.99216 -4.66125 0
M  V30 13962 O 1301.96 -6.27041 -5.03065 0
M  V30 13963 H 1301.69 -0.260545 -0.623773 0
M  V30 13964 H 1304.25 -1.34922 -1.54872 0
M  V30 13965 H 1302.48 -0.257599 -3.85841 0
M  V30 13966 H 1304.17 -0.649333 -4.00673 0
M  V30 13967 H 1304.93 -3.11578 -3.71677 0
M  V30 13968 H 1300.81 -1.97468 -4.16566 0
M  V30 13969 H 1304.36 -5.41938 -4.3926 0
M  V30 13970 H 1300.25 -4.26924 -4.84155 0
M  V30 13971 H 1301.02 -6.31196 -5.21089 0
M  V30 13972 N 1303.68 1.3679 -0.7827 0
M  V30 13973 C 1304.91 2.03678 -0.363734 0
M  V30 13974 C 1305.33 1.59024 1.01768 0
M  V30 13975 O 1304.68 0.776541 1.65155 0
M  V30 13976 C 1304.74 3.59165 -0.410213 0
M  V30 13977 O 1304.46 4.02188 -1.73714 0
M  V30 13978 C 1305.96 4.43296 0.018972 0
M  V30 13979 H 1303.18 0.653828 -0.150829 0
M  V30 13980 H 1305.72 1.74903 -1.05968 0
M  V30 13981 H 1303.88 3.86673 0.237249 0
M  V30 13982 H 1304.29 4.96754 -1.68332 0
M  V30 13983 H 1305.76 5.51962 -0.0646943 0
M  V30 13984 H 1306.24 4.25948 1.07076 0
M  V30 13985 H 1306.85 4.21036 -0.600721 0
M  V30 13986 N 1305.16 0.53415 1.48272 0
M  V30 13987 C 1306.09 -0.215037 2.32508 0
M  V30 13988 C 1307.07 -0.931083 1.42355 0
M  V30 13989 O 1308.26 -0.916051 1.71237 0
M  V30 13990 C 1305.39 -1.25985 3.23643 0
M  V30 13991 C 1304.34 -0.661692 4.22854 0
M  V30 13992 C 1303.67 -1.80946 5.03153 0
M  V30 13993 C 1304.97 0.369358 5.20992 0
M  V30 13994 H 1306.66 0.488158 2.95394 0
M  V30 13995 H 1304.21 0.236206 1.4205 0
M  V30 13996 H 1306.16 -1.79195 3.81402 0
M  V30 13997 H 1304.89 -1.99268 2.58766 0
M  V30 13998 H 1303.54 -0.151082 3.66289 0
M  V30 13999 H 1303.19 -2.53077 4.34696 0
M  V30 14000 H 1302.89 -1.41513 5.70305 0
M  V30 14001 H 1304.42 -2.34526 5.63764 0
M  V30 14002 H 1305.83 -0.0758076 5.7325 0
M  V30 14003 H 1304.23 0.681301 5.9622 0
M  V30 14004 H 1305.3 1.27363 4.67875 0
M  V30 14005 N 1306.64 -1.55279 0.269478 0
M  V30 14006 C 1307.59 -2.23723 -0.636468 0
M  V30 14007 C 1308.58 -1.23234 -1.16232 0
M  V30 14008 O 1309.79 -1.41181 -1.1166 0
M  V30 14009 H 1306.16 -0.71793 -0.223788 0
M  V30 14010 H 1308.13 -2.98378 -0.0363057 0
M  V30 14011 C 1306.88 -2.96755 -1.81195 0
M  V30 14012 H 1306.21 -3.73865 -1.4165 0
M  V30 14013 H 1307.65 -3.47975 -2.42258 0
M  V30 14014 C 1306.11 -2.01905 -2.69696 0
M  V30 14015 O 1306.64 -1.56662 -3.69892 0
M  V30 14016 N 1304.84 -1.68524 -2.36744 0
M  V30 14017 H 1304.39 -2.05512 -1.55314 0
M  V30 14018 H 1304.35 -1.05331 -2.96231 0
M  V30 14019 N 1308.12 0.00332656 -1.576 0
M  V30 14020 C 1309.07 1.01406 -2.09331 0
M  V30 14021 C 1310.06 1.35806 -1.01258 0
M  V30 14022 O 1311.27 1.34409 -1.19726 0
M  V30 14023 H 1307.64 0.344661 -0.668366 0
M  V30 14024 H 1309.61 0.552154 -2.93247 0
M  V30 14025 C 1308.36 2.29819 -2.60918 0
M  V30 14026 H 1307.68 2.04216 -3.43709 0
M  V30 14027 H 1309.12 2.98826 -3.00797 0
M  V30 14028 C 1307.58 3.0057 -1.52182 0
M  V30 14029 O 1308.11 3.91423 -0.902817 0
M  V30 14030 N 1306.32 2.62338 -1.25009 0
M  V30 14031 H 1305.87 1.88538 -1.75531 0
M  V30 14032 H 1305.82 3.0999 -0.524736 0
M  V30 14033 N 1309.6 1.55164 0.276031 0
M  V30 14034 C 1311.01 1.46936 0.623061 0
M  V30 14035 C 1311.21 0.680977 1.89644 0
M  V30 14036 O 1310.27 0.198618 2.51718 0
M  V30 14037 C 1311.58 2.91123 0.752839 0
M  V30 14038 C 1313.13 3.01319 0.847093 0
M  V30 14039 C 1313.6 4.46755 1.00867 0
M  V30 14040 N 1315.1 4.5057 1.07427 0
M  V30 14041 C 1315.83 5.60314 1.21804 0
M  V30 14042 N 1315.33 6.7993 1.32919 0
M  V30 14043 N 1317.12 5.4805 1.2489 0
M  V30 14044 H 1309.27 2.04877 -0.560282 0
M  V30 14045 H 1311.53 0.928925 -0.189217 0
M  V30 14046 H 1311.24 3.51521 -0.112333 0
M  V30 14047 H 1311.11 3.39967 1.63408 0
M  V30 14048 H 1313.5 2.41021 1.70274 0
M  V30 14049 H 1313.58 2.55733 -0.0586896 0
M  V30 14050 H 1313.23 5.07655 0.1577 0
M  V30 14051 H 1313.16 4.89995 1.92906 0
M  V30 14052 H 1315.65 3.64404 1.00089 0
M  V30 14053 H 1315.96 7.59319 1.43714 0
M  V30 14054 H 1314.3 6.82747 1.29929 0
M  V30 14055 H 1317.5 4.53542 1.15834 0
M  V30 14056 H 1317.67 6.33621 1.3575 0
M  V30 14057 N 1311.07 -0.540404 1.48045 0
M  V30 14058 C 1312.02 -1.66695 1.62221 0
M  V30 14059 C 1313.02 -1.6219 0.488943 0
M  V30 14060 O 1314.22 -1.67173 0.66732 0
M  V30 14061 H 1310.6 -0.551868 0.510828 0
M  V30 14062 H 1312.57 -1.51879 2.56856 0
M  V30 14063 C 1311.32 -3.05002 1.6694 0
M  V30 14064 H 1310.64 -3.09157 2.53499 0
M  V30 14065 H 1312.08 -3.8347 1.80904 0
M  V30 14066 C 1310.54 -3.34445 0.40598 0
M  V30 14067 O 1311.07 -3.98753 -0.485676 0
M  V30 14068 N 1309.28 -2.8924 0.280857 0
M  V30 14069 H 1308.82 -2.37085 1.00741 0
M  V30 14070 H 1308.78 -3.09309 -0.563493 0
M  V30 14071 N 1312.55 -1.36459 -0.788468 0
M  V30 14072 C 1313.48 -1.33545 -1.91541 0
M  V30 14073 C 1314.46 -0.206762 -1.68839 0
M  V30 14074 O 1315.65 -0.404553 -1.89939 0
M  V30 14075 C 1312.78 -1.12492 -3.28577 0
M  V30 14076 C 1311.73 -2.22196 -3.65805 0
M  V30 14077 C 1311.06 -1.86285 -5.01201 0
M  V30 14078 C 1312.36 -3.64286 -3.7429 0
M  V30 14079 H 1314.05 -2.27844 -1.94236 0
M  V30 14080 H 1311.6 -1.09677 -0.933105 0
M  V30 14081 H 1313.55 -1.09089 -4.07035 0
M  V30 14082 H 1312.28 -0.146446 -3.26272 0
M  V30 14083 H 1310.93 -2.24727 -2.89644 0
M  V30 14084 H 1310.58 -0.87009 -4.95417 0
M  V30 14085 H 1310.28 -2.59734 -5.27079 0
M  V30 14086 H 1311.81 -1.84439 -5.82078 0
M  V30 14087 H 1313.22 -3.63977 -4.42937 0
M  V30 14088 H 1311.62 -4.36648 -4.11653 0
M  V30 14089 H 1312.69 -3.99123 -2.75371 0
M  V30 14090 N 1314.03 1.01274 -1.20754 0
M  V30 14091 C 1315.28 1.74586 -1.01804 0
M  V30 14092 C 1315.6 1.89727 0.450419 0
M  V30 14093 O 1314.87 1.44257 1.32539 0
M  V30 14094 H 1313.45 0.646804 -0.373702 0
M  V30 14095 H 1316.11 1.22079 -1.5193 0
M  V30 14096 H 1315.21 2.748 -1.47958 0
M  V30 14097 N 1315.51 1.01404 1.20644 0
M  V30 14098 C 1316.93 0.728446 1.42006 0
M  V30 14099 C 1317.13 -0.692894 1.89212 0
M  V30 14100 O 1316.18 -1.46101 2.05939 0
M  V30 14101 C 1317.49 1.75198 2.44389 0
M  V30 14102 C 1319.04 1.76983 2.58159 0
M  V30 14103 C 1319.52 2.78256 3.63782 0
M  V30 14104 N 1321.01 2.7698 3.71263 0
M  V30 14105 C 1321.74 3.51999 4.52641 0
M  V30 14106 N 1321.24 4.36687 5.37844 0
M  V30 14107 N 1323.03 3.40608 4.47149 0
M  V30 14108 H 1315.18 1.93168 0.883172 0
M  V30 14109 H 1317.45 0.834287 0.450187 0
M  V30 14110 H 1317.15 2.77013 2.16695 0
M  V30 14111 H 1317.03 1.56203 3.43337 0
M  V30 14112 H 1319.41 0.758551 2.85184 0
M  V30 14113 H 1319.49 2.00051 1.59415 0
M  V30 14114 H 1319.14 3.79546 3.37501 0
M  V30 14115 H 1319.07 2.5245 4.62143 0
M  V30 14116 H 1321.56 2.15546 3.104 0
M  V30 14117 H 1321.87 4.90703 5.97018 0
M  V30 14118 H 1320.22 4.40766 5.37355 0
M  V30 14119 H 1323.41 2.73872 3.79621 0
M  V30 14120 H 1323.58 3.99327 5.10335 0
M  V30 14121 N 1316.99 -1.36373 0.789944 0
M  V30 14122 C 1318.24 -1.98476 0.359165 0
M  V30 14123 C 1318.55 -1.634 -1.07517 0
M  V30 14124 O 1319.76 -2.18742 -1.60824 0
M  V30 14125 C 1318.21 -3.55011 0.591228 0
M  V30 14126 C 1317.82 -3.99011 2.03701 0
M  V30 14127 C 1319.56 -4.23903 0.224979 0
M  V30 14128 C 1317.47 -5.48325 2.2157 0
M  V30 14129 H 1316.4 -0.742612 0.130552 0
M  V30 14130 H 1319.05 -1.55664 0.971652 0
M  V30 14131 H 1317.43 -3.95895 -0.0909788 0
M  V30 14132 H 1318.61 -3.69324 2.75566 0
M  V30 14133 H 1316.92 -3.42957 2.36155 0
M  V30 14134 H 1319.52 -5.33638 0.336764 0
M  V30 14135 H 1319.86 -4.08004 -0.826964 0
M  V30 14136 H 1320.4 -3.88383 0.860443 0
M  V30 14137 H 1317.13 -5.69173 3.25149 0
M  V30 14138 H 1316.65 -5.79637 1.54211 0
M  V30 14139 H 1318.33 -6.14556 2.0231 0
M  V30 14140 N 1318.47 -0.542005 -1.47987 0
M  V30 14141 C 1319.71 -0.0123299 -2.02796 0
M  V30 14142 C 1320.04 1.32789 -1.41707 0
M  V30 14143 O 1319.32 1.86048 -0.567119 0
M  V30 14144 C 1319.6 0.0969277 -3.5997 0
M  V30 14145 C 1319.46 -1.26931 -4.31519 0
M  V30 14146 C 1320.77 0.817854 -4.32434 0
M  V30 14147 H 1317.89 -0.00595479 -0.736976 0
M  V30 14148 H 1320.54 -0.70136 -1.76581 0
M  V30 14149 H 1318.69 0.683755 -3.82436 0
M  V30 14150 H 1320.36 -1.89817 -4.20437 0
M  V30 14151 H 1318.6 -1.84804 -3.92467 0
M  V30 14152 H 1319.27 -1.14573 -5.39979 0
M  V30 14153 H 1321.75 0.319749 -4.1487 0
M  V30 14154 H 1320.62 0.863225 -5.4207 0
M  V30 14155 H 1320.88 1.87075 -4.00569 0
M  V30 14156 N 1319.94 1.55134 -0.277709 0
M  V30 14157 C 1321.17 2.04061 0.341601 0
M  V30 14158 C 1321.59 1.15597 1.49274 0
M  V30 14159 O 1320.94 0.176625 1.81643 0
M  V30 14160 C 1320.99 3.52074 0.820139 0
M  V30 14161 O 1320.72 4.37171 -0.28516 0
M  V30 14162 C 1322.22 4.16899 1.507 0
M  V30 14163 H 1319.44 0.666501 0.0775708 0
M  V30 14164 H 1321.98 2.00336 -0.410559 0
M  V30 14165 H 1320.14 3.56233 1.52238 0
M  V30 14166 H 1320.55 5.24434 0.0832022 0
M  V30 14167 H 1322.02 5.22061 1.79323 0
M  V30 14168 H 1322.5 3.65227 2.43939 0
M  V30 14169 H 1323.11 4.16749 0.848541 0
M  V30 14170 N 1321.42 0.00503138 1.57599 0
M  V30 14171 C 1322.67 -0.677979 1.89964 0
M  V30 14172 C 1322.98 -1.74657 0.88059 0
M  V30 14173 O 1324.19 -2.48455 1.09463 0
M  V30 14174 C 1322.65 -1.25708 3.37232 0
M  V30 14175 C 1322.25 -0.223045 4.47444 0
M  V30 14176 C 1324 -1.91799 3.787 0
M  V30 14177 C 1321.9 -0.812416 5.85793 0
M  V30 14178 H 1320.83 -0.256991 0.708852 0
M  V30 14179 H 1323.49 0.0663988 1.8338 0
M  V30 14180 H 1321.87 -2.05228 3.3867 0
M  V30 14181 H 1323.04 0.54794 4.57531 0
M  V30 14182 H 1321.36 0.337714 4.15028 0
M  V30 14183 H 1323.95 -2.36808 4.79402 0
M  V30 14184 H 1324.3 -2.75067 3.1248 0
M  V30 14185 H 1324.83 -1.19004 3.79583 0
M  V30 14186 H 1321.57 -0.0184031 6.55497 0
M  V30 14187 H 1321.09 -1.55244 5.79361 0
M  V30 14188 H 1322.77 -1.30952 6.33609 0
M  V30 14189 N 1322.9 -1.55308 -0.267798 0
M  V30 14190 C 1323.86 -1.87765 -1.31442 0
M  V30 14191 C 1324.86 -0.752571 -1.42102 0
M  V30 14192 O 1326.05 -1.02072 -1.41163 0
M  V30 14193 C 1323.18 -2.08754 -2.69508 0
M  V30 14194 H 1324.38 -2.8133 -1.03891 0
M  V30 14195 H 1321.93 -1.47879 -0.506111 0
M  V30 14196 H 1322.67 -1.17588 -3.02231 0
M  V30 14197 H 1322.45 -2.90674 -2.63156 0
M  V30 14198 H 1323.94 -2.3512 -3.4512 0
M  V30 14199 N 1324.38 0.532545 -1.4833 0
M  V30 14200 C 1325.29 1.66433 -1.65339 0
M  V30 14201 C 1326.3 1.65541 -0.535939 0
M  V30 14202 O 1327.48 1.84539 -0.806679 0
M  V30 14203 C 1324.54 3.02901 -1.68676 0
M  V30 14204 C 1323.61 3.14669 -2.92031 0
M  V30 14205 C 1322.84 4.44627 -2.95199 0
M  V30 14206 O 1323.06 5.31572 -2.06851 0
M  V30 14207 O 1322 4.60707 -3.87341 0
M  V30 14208 H 1325.82 1.5502 -2.61156 0
M  V30 14209 H 1323.41 0.705348 -1.31701 0
M  V30 14210 H 1325.29 3.84068 -1.73407 0
M  V30 14211 H 1323.96 3.14644 -0.760327 0
M  V30 14212 H 1322.87 2.32807 -2.92834 0
M  V30 14213 H 1324.2 3.07841 -3.8405 0
M  V30 14214 N 1325.86 1.36875 0.78122 0
M  V30 14215 C 1327.27 1.28236 1.35692 0
M  V30 14216 C 1327.62 -0.0742286 1.9606 0
M  V30 14217 O 1326.74 -0.97588 1.93146 0
M  V30 14218 C 1327.34 2.32215 2.46702 0
M  V30 14219 C 1325.9 2.2724 3.00065 0
M  V30 14220 C 1325.04 2.16553 1.73206 0
M  V30 14221 H 1327.99 1.47634 0.582217 0
M  V30 14222 H 1328.02 1.96333 3.25935 0
M  V30 14223 H 1327.53 3.30938 2.02735 0
M  V30 14224 H 1325.63 1.3201 3.48431 0
M  V30 14225 H 1325.74 3.20267 3.56323 0
M  V30 14226 H 1324.11 1.62941 1.95761 0
M  V30 14227 H 1324.89 3.17176 1.31356 0
M  V30 14228 N 1327.33 -1.00632 1.21289 0
M  V30 14229 C 1328.58 -1.74388 1.02932 0
M  V30 14230 C 1328.91 -1.8952 -0.437327 0
M  V30 14231 O 1328.16 -1.42551 -1.3408 0
M  V30 14232 C 1328.46 -3.1598 1.67007 0
M  V30 14233 C 1328.13 -3.208 3.16857 0
M  V30 14234 C 1326.79 -3.21823 3.57748 0
M  V30 14235 C 1329.14 -3.18147 4.12834 0
M  V30 14236 C 1326.47 -3.17877 4.93124 0
M  V30 14237 C 1328.82 -3.15743 5.48169 0
M  V30 14238 C 1327.49 -3.15074 5.88459 0
M  V30 14239 H 1326.76 -0.638133 0.376653 0
M  V30 14240 H 1329.4 -1.17953 1.50862 0
M  V30 14241 H 1327.71 -3.75639 1.11365 0
M  V30 14242 H 1329.41 -3.71764 1.50307 0
M  V30 14243 H 1326 -3.20746 2.84289 0
M  V30 14244 H 1330.18 -3.16519 3.82269 0
M  V30 14245 H 1325.44 -3.15696 5.2359 0
M  V30 14246 H 1329.61 -3.12644 6.22275 0
M  V30 14247 H 1327.24 -3.11771 6.93327 0
M  V30 14248 N 1328.81 -1.02043 -1.20104 0
M  V30 14249 C 1329.76 -0.587332 -2.25063 0
M  V30 14250 C 1330.75 0.375844 -1.65178 0
M  V30 14251 O 1331.96 0.245347 -1.7832 0
M  V30 14252 H 1328.33 -0.171637 -0.732151 0
M  V30 14253 H 1330.31 -1.48339 -2.58917 0
M  V30 14254 C 1329.05 0.0546893 -3.47657 0
M  V30 14255 H 1328.38 -0.677457 -3.94018 0
M  V30 14256 H 1329.82 0.320786 -4.22785 0
M  V30 14257 C 1328.28 1.29869 -3.10863 0
M  V30 14258 O 1328.81 2.39161 -3.22746 0
M  V30 14259 N 1327.01 1.18423 -2.65376 0
M  V30 14260 H 1326.56 0.294895 -2.55906 0
M  V30 14261 H 1326.52 2.01755 -2.41128 0
M  V30 14262 N 1330.29 1.35952 -0.797165 0
M  V30 14263 C 1331.52 2.0328 -0.385316 0
M  V30 14264 C 1331.93 1.60095 1.00076 0
M  V30 14265 O 1331.29 0.794014 1.64322 0
M  V30 14266 C 1331.34 3.5871 -0.448284 0
M  V30 14267 O 1331.06 4.00323 -1.7797 0
M  V30 14268 C 1332.56 4.43291 -0.0280465 0
M  V30 14269 H 1329.78 0.652192 -0.157756 0
M  V30 14270 H 1332.33 1.73769 -1.07817 0
M  V30 14271 H 1330.48 3.86903 0.196224 0
M  V30 14272 H 1330.9 4.94941 -1.73592 0
M  V30 14273 H 1332.37 5.51862 -0.123234 0
M  V30 14274 H 1332.85 4.27059 1.02552 0
M  V30 14275 H 1333.45 4.20375 -0.645343 0
M  V30 14276 N 1331.77 0.549846 1.47697 0
M  V30 14277 C 1332.68 -0.205286 2.337 0
M  V30 14278 C 1333.69 -0.919271 1.47734 0
M  V30 14279 O 1334.87 -0.889808 1.80678 0
M  V30 14280 C 1331.94 -1.22658 3.24278 0
M  V30 14281 C 1331 -0.520815 4.26129 0
M  V30 14282 C 1330.23 -1.49345 5.12378 0
M  V30 14283 O 1330.45 -2.72772 5.00951 0
M  V30 14284 O 1329.39 -1.02197 5.93161 0
M  V30 14285 H 1333.21 0.499982 2.99556 0
M  V30 14286 H 1330.8 0.310538 1.46137 0
M  V30 14287 H 1332.68 -1.8163 3.80248 0
M  V30 14288 H 1331.35 -1.9139 2.61059 0
M  V30 14289 H 1330.26 0.109906 3.73939 0
M  V30 14290 H 1331.59 0.124922 4.92041 0
M  V30 14291 N 1333.25 -1.54984 0.285932 0
M  V30 14292 C 1334.18 -2.25916 -0.590259 0
M  V30 14293 C 1335.16 -1.25319 -1.15018 0
M  V30 14294 O 1336.34 -1.54062 -1.18231 0
M  V30 14295 C 1333.47 -2.98849 -1.76936 0
M  V30 14296 C 1332.43 -4.06466 -1.3405 0
M  V30 14297 C 1331.75 -4.67032 -2.60356 0
M  V30 14298 C 1333.05 -5.20064 -0.482754 0
M  V30 14299 H 1334.75 -2.994 0.00131571 0
M  V30 14300 H 1332.29 -1.44 0.00207281 0
M  V30 14301 H 1334.25 -3.47186 -2.3883 0
M  V30 14302 H 1332.97 -2.22918 -2.38694 0
M  V30 14303 H 1331.63 -3.58957 -0.7447 0
M  V30 14304 H 1331.28 -3.87757 -3.20396 0
M  V30 14305 H 1330.98 -5.39703 -2.32368 0
M  V30 14306 H 1332.5 -5.18124 -3.23079 0
M  V30 14307 H 1333.91 -5.64387 -1.00697 0
M  V30 14308 H 1332.31 -5.99363 -0.297291 0
M  V30 14309 H 1333.38 -4.82358 0.495861 0
M  V30 14310 N 1334.72 -0.0133892 -1.57594 0
M  V30 14311 C 1335.66 1.00211 -2.06132 0
M  V30 14312 C 1336.67 1.29869 -0.98173 0
M  V30 14313 O 1337.86 1.2661 -1.25826 0
M  V30 14314 C 1334.96 2.33354 -2.45763 0
M  V30 14315 C 1334.13 2.22441 -3.76615 0
M  V30 14316 C 1333.19 3.38385 -4.02967 0
M  V30 14317 O 1332.22 3.15973 -4.73445 0
M  V30 14318 N 1333.42 4.61672 -3.51908 0
M  V30 14319 H 1336.18 0.588079 -2.93874 0
M  V30 14320 H 1333.74 0.173714 -1.60965 0
M  V30 14321 H 1335.74 3.09716 -2.60496 0
M  V30 14322 H 1334.31 2.66451 -1.6347 0
M  V30 14323 H 1333.53 1.30905 -3.7183 0
M  V30 14324 H 1334.81 2.12337 -4.62375 0
M  V30 14325 H 1334.21 4.82777 -2.9486 0
M  V30 14326 H 1332.77 5.35256 -3.71947 0
M  V30 14327 N 1336.2 1.55448 0.259558 0
M  V30 14328 C 1337.13 1.9226 1.32508 0
M  V30 14329 C 1338.11 0.786012 1.5085 0
M  V30 14330 O 1339.3 1.04526 1.6367 0
M  V30 14331 C 1336.43 2.20627 2.68218 0
M  V30 14332 C 1335.38 3.36418 2.64589 0
M  V30 14333 C 1334.71 3.50295 4.03977 0
M  V30 14334 C 1336.01 4.72452 2.2268 0
M  V30 14335 H 1337.7 2.81509 1.01945 0
M  V30 14336 H 1335.25 1.35444 0.488965 0
M  V30 14337 H 1337.2 2.44968 3.42883 0
M  V30 14338 H 1335.93 1.28191 3.00391 0
M  V30 14339 H 1334.58 3.12065 1.92382 0
M  V30 14340 H 1334.23 2.55302 4.33394 0
M  V30 14341 H 1333.93 4.28155 4.02439 0
M  V30 14342 H 1335.46 3.76944 4.8036 0
M  V30 14343 H 1336.87 4.96249 2.87071 0
M  V30 14344 H 1335.27 5.53323 2.32279 0
M  V30 14345 H 1336.34 4.70367 1.17826 0
M  V30 14346 N 1337.68 -0.524672 1.4861 0
M  V30 14347 C 1338.93 -1.27958 1.58108 0
M  V30 14348 C 1339.28 -1.90716 0.254003 0
M  V30 14349 O 1338.57 -1.7658 -0.743646 0
M  V30 14350 C 1338.77 -2.3871 2.65993 0
M  V30 14351 C 1338.6 -1.86809 4.09063 0
M  V30 14352 C 1337.37 -1.69174 4.76139 0
M  V30 14353 C 1339.57 -1.39355 4.9506 0
M  V30 14354 N 1337.55 -1.11954 6.03605 0
M  V30 14355 C 1338.92 -0.941175 6.12815 0
M  V30 14356 C 1340.97 -1.27708 4.81243 0
M  V30 14357 C 1339.68 -0.383863 7.18275 0
M  V30 14358 C 1341.7 -0.733756 5.8683 0
M  V30 14359 C 1341.06 -0.291479 7.03797 0
M  V30 14360 H 1337.16 -0.459061 0.633077 0
M  V30 14361 H 1339.75 -0.590966 1.85515 0
M  V30 14362 H 1337.92 -3.05061 2.404 0
M  V30 14363 H 1339.65 -3.05744 2.65146 0
M  V30 14364 H 1336.41 -1.92852 4.32556 0
M  V30 14365 H 1336.83 -0.853395 6.716 0
M  V30 14366 H 1341.47 -1.60506 3.91149 0
M  V30 14367 H 1339.19 -0.0435691 8.08088 0
M  V30 14368 H 1342.78 -0.646737 5.78194 0
M  V30 14369 H 1341.66 0.122396 7.84104 0
M  V30 14370 N 1339.16 -1.37287 -0.77395 0
M  V30 14371 C 1340.09 -1.28746 -1.89624 0
M  V30 14372 C 1341.1 -0.203715 -1.6152 0
M  V30 14373 O 1342.29 -0.459684 -1.72479 0
M  V30 14374 C 1339.39 -0.967342 -3.24801 0
M  V30 14375 C 1338.57 -2.1561 -3.80567 0
M  V30 14376 C 1337.62 -1.80661 -4.94215 0
M  V30 14377 O 1336.65 -2.5293 -5.09917 0
M  V30 14378 N 1337.85 -0.749424 -5.75642 0
M  V30 14379 H 1340.62 -2.25447 -1.97468 0
M  V30 14380 H 1338.18 -1.30883 -0.952956 0
M  V30 14381 H 1340.17 -0.714421 -3.98344 0
M  V30 14382 H 1338.74 -0.0889573 -3.12473 0
M  V30 14383 H 1337.96 -2.57091 -2.98828 0
M  V30 14384 H 1339.25 -2.94993 -4.14556 0
M  V30 14385 H 1338.65 -0.149673 -5.65502 0
M  V30 14386 H 1337.2 -0.556358 -6.49421 0
M  V30 14387 N 1340.64 0.999871 -1.21821 0
M  V30 14388 C 1341.57 2.08597 -0.925334 0
M  V30 14389 C 1342.55 1.62087 0.129103 0
M  V30 14390 O 1343.73 1.885 -0.000975316 0
M  V30 14391 C 1340.86 3.36443 -0.390388 0
M  V30 14392 C 1339.9 4.01869 -1.42842 0
M  V30 14393 S 1340.74 4.43618 -2.99938 0
M  V30 14394 C 1341.89 5.74644 -2.48064 0
M  V30 14395 H 1342.13 2.33119 -1.84507 0
M  V30 14396 H 1339.66 1.13339 -1.04851 0
M  V30 14397 H 1341.62 4.10405 -0.0883221 0
M  V30 14398 H 1340.28 3.09963 0.508115 0
M  V30 14399 H 1339.47 4.93902 -1.00385 0
M  V30 14400 H 1339.07 3.34202 -1.67883 0
M  V30 14401 H 1341.37 6.50642 -1.88869 0
M  V30 14402 H 1342.31 6.21919 -3.3856 0
M  V30 14403 H 1342.72 5.31709 -1.89593 0
M  V30 14404 N 1342.11 1.02678 1.19562 0
M  V30 14405 C 1343.02 0.615738 2.26375 0
M  V30 14406 C 1344.04 -0.351525 1.70412 0
M  V30 14407 O 1345.22 -0.209932 2.00303 0
M  V30 14408 C 1342.28 -0.0292135 3.46688 0
M  V30 14409 C 1341.34 0.985284 4.1784 0
M  V30 14410 C 1340.58 0.371016 5.32409 0
M  V30 14411 O 1340.8 -0.826591 5.64379 0
M  V30 14412 O 1339.73 1.09282 5.91896 0
M  V30 14413 H 1343.56 1.50526 2.63772 0
M  V30 14414 H 1341.14 0.796847 1.26375 0
M  V30 14415 H 1343.03 -0.38893 4.19601 0
M  V30 14416 H 1341.7 -0.892778 3.11145 0
M  V30 14417 H 1340.61 1.39655 3.47055 0
M  V30 14418 H 1341.94 1.81915 4.57349 0
M  V30 14419 N 1343.59 -1.35528 0.804364 0
M  V30 14420 C 1344.82 -2.03604 0.395013 0
M  V30 14421 C 1345.24 -1.60225 -0.985371 0
M  V30 14422 O 1344.6 -0.777844 -1.63766 0
M  V30 14423 C 1344.65 -3.57337 0.484011 0
M  V30 14424 O 1343.75 -4.09316 -0.503395 0
M  V30 14425 H 1343.09 -0.643089 0.165325 0
M  V30 14426 H 1345.62 -1.73171 1.08963 0
M  V30 14427 H 1345.63 -4.0647 0.353009 0
M  V30 14428 H 1344.31 -3.8826 1.49088 0
M  V30 14429 H 1342.89 -3.71412 -0.332817 0
M  V30 14430 N 1345.07 -0.557671 -1.47404 0
M  V30 14431 C 1346.32 -0.0337884 -2.02472 0
M  V30 14432 C 1346.65 1.31624 -1.43197 0
M  V30 14433 O 1345.9 1.86989 -0.577366 0
M  V30 14434 C 1346.2 0.108324 -3.57236 0
M  V30 14435 C 1345.87 -1.17088 -4.35432 0
M  V30 14436 C 1344.53 -1.5214 -4.56516 0
M  V30 14437 C 1346.88 -2.01854 -4.80525 0
M  V30 14438 C 1344.21 -2.71803 -5.19942 0
M  V30 14439 C 1346.56 -3.2072 -5.45272 0
M  V30 14440 C 1345.22 -3.56085 -5.64588 0
M  V30 14441 H 1344.49 -0.012364 -0.740897 0
M  V30 14442 H 1347.14 -0.729276 -1.7707 0
M  V30 14443 H 1345.45 0.886781 -3.81633 0
M  V30 14444 H 1347.14 0.529031 -3.97495 0
M  V30 14445 H 1343.73 -0.887952 -4.19301 0
M  V30 14446 H 1347.92 -1.76081 -4.64014 0
M  V30 14447 H 1343.17 -2.99371 -5.33092 0
M  V30 14448 H 1347.35 -3.86689 -5.79176 0
M  V30 14449 H 1344.97 -4.48903 -6.13506 0
M  V30 14450 N 1346.55 1.54831 -0.294147 0
M  V30 14451 C 1347.8 2.00001 0.317135 0
M  V30 14452 C 1348.12 1.18256 1.54421 0
M  V30 14453 O 1347.38 0.245035 1.9416 0
M  V30 14454 C 1347.68 3.4997 0.72495 0
M  V30 14455 C 1347.34 4.49126 -0.399616 0
M  V30 14456 C 1346.01 4.75958 -0.708354 0
M  V30 14457 C 1348.36 5.08208 -1.15644 0
M  V30 14458 C 1345.69 5.59137 -1.77716 0
M  V30 14459 C 1348.04 5.9255 -2.21512 0
M  V30 14460 C 1346.7 6.17695 -2.52999 0
M  V30 14461 H 1345.97 0.731856 0.116048 0
M  V30 14462 H 1348.62 1.87019 -0.41182 0
M  V30 14463 H 1346.92 3.60526 1.53388 0
M  V30 14464 H 1348.62 3.82341 1.20898 0
M  V30 14465 H 1345.21 4.28341 -0.148877 0
M  V30 14466 H 1349.4 4.87486 -0.931178 0
M  V30 14467 H 1344.65 5.76859 -2.02592 0
M  V30 14468 H 1348.83 6.37359 -2.80617 0
M  V30 14469 H 1346.45 6.81939 -3.35951 0
M  V30 14470 N 1348.03 0.0217466 1.57585 0
M  V30 14471 C 1348.99 -0.947546 2.08696 0
M  V30 14472 C 1349.99 -1.25879 1.00055 0
M  V30 14473 O 1351.18 -1.20035 1.26242 0
M  V30 14474 C 1348.31 -2.26624 2.54665 0
M  V30 14475 H 1349.51 -0.505016 2.95617 0
M  V30 14476 H 1347.06 -0.226152 1.54655 0
M  V30 14477 H 1347.79 -2.75521 1.71052 0
M  V30 14478 H 1347.58 -2.05347 3.34028 0
M  V30 14479 H 1349.07 -2.96114 2.94459 0
M  V30 14480 N 1349.51 -1.55583 -0.251311 0
M  V30 14481 C 1350.45 -1.89946 -1.31108 0
M  V30 14482 C 1351.42 -0.753209 -1.4804 0
M  V30 14483 O 1352.61 -1.00646 -1.62095 0
M  V30 14484 C 1349.75 -2.19576 -2.66233 0
M  V30 14485 C 1348.86 -3.46983 -2.57345 0
M  V30 14486 C 1348 -3.66206 -3.84794 0
M  V30 14487 C 1347.03 -4.87229 -3.70505 0
M  V30 14488 N 1346.17 -5.02996 -4.89836 0
M  V30 14489 H 1351.01 -2.80325 -1.01104 0
M  V30 14490 H 1348.55 -1.3877 -0.487986 0
M  V30 14491 H 1350.51 -2.3476 -3.44882 0
M  V30 14492 H 1349.14 -1.32406 -2.94395 0
M  V30 14493 H 1348.19 -3.40156 -1.70289 0
M  V30 14494 H 1349.5 -4.35776 -2.42695 0
M  V30 14495 H 1348.65 -3.81324 -4.71886 0
M  V30 14496 H 1347.39 -2.75638 -4.02337 0
M  V30 14497 H 1346.4 -4.72092 -2.81797 0
M  V30 14498 H 1347.62 -5.79253 -3.54462 0
M  V30 14499 H 1345.57 -4.15364 -5.07748 0
M  V30 14500 H 1345.49 -5.8587 -4.778 0
M  V30 14501 H 1346.75 -5.22521 -5.78439 0
M  V30 14502 N 1350.98 0.516783 -1.48886 0
M  V30 14503 C 1352.21 1.2944 -1.61024 0
M  V30 14504 C 1352.62 1.87195 -0.274705 0
M  V30 14505 O 1351.96 1.67787 0.747868 0
M  V30 14506 C 1352.03 2.4743 -2.60804 0
M  V30 14507 C 1351.69 2.10663 -4.05549 0
M  V30 14508 C 1352.69 1.65559 -4.92835 0
M  V30 14509 C 1350.37 2.20782 -4.51177 0
M  V30 14510 C 1352.37 1.31057 -6.23781 0
M  V30 14511 C 1350.05 1.85891 -5.82141 0
M  V30 14512 C 1351.05 1.41101 -6.68266 0
M  V30 14513 O 1350.74 1.06674 -7.96791 0
M  V30 14514 H 1350.47 0.399402 -0.545394 0
M  V30 14515 H 1353.03 0.628719 -1.95541 0
M  V30 14516 H 1351.26 3.17023 -2.21435 0
M  V30 14517 H 1352.94 3.09478 -2.62637 0
M  V30 14518 H 1353.71 1.57201 -4.58817 0
M  V30 14519 H 1349.59 2.54598 -3.84319 0
M  V30 14520 H 1353.13 0.960245 -6.9096 0
M  V30 14521 H 1349.03 1.93894 -6.15691 0
M  V30 14522 H 1349.8 1.19958 -8.09662 0
M  V30 14523 N 1352.46 1.37696 0.766659 0
M  V30 14524 C 1353.87 1.29668 1.34324 0
M  V30 14525 C 1354.22 -0.0534297 1.96127 0
M  V30 14526 O 1353.35 -0.95534 1.94171 0
M  V30 14527 C 1353.94 2.34818 2.44225 0
M  V30 14528 C 1352.5 2.3041 2.97638 0
M  V30 14529 C 1351.65 2.18378 1.70899 0
M  V30 14530 H 1354.6 1.48244 0.566526 0
M  V30 14531 H 1354.62 1.99778 3.23835 0
M  V30 14532 H 1354.13 3.3307 1.99214 0
M  V30 14533 H 1352.23 1.35698 3.47011 0
M  V30 14534 H 1352.35 3.24028 3.52906 0
M  V30 14535 H 1350.71 1.65008 1.94021 0
M  V30 14536 H 1351.49 3.18551 1.27985 0
M  V30 14537 N 1353.94 -0.993397 1.22349 0
M  V30 14538 C 1354.87 -2.08543 0.950925 0
M  V30 14539 C 1355.88 -1.62648 -0.0702741 0
M  V30 14540 O 1357.07 -1.77748 0.16367 0
M  V30 14541 C 1354.17 -3.36429 0.408466 0
M  V30 14542 C 1353.35 -4.11356 1.48676 0
M  V30 14543 C 1352.41 -5.17526 0.951478 0
M  V30 14544 O 1351.43 -5.45135 1.63757 0
M  V30 14545 N 1352.63 -5.80055 -0.227378 0
M  V30 14546 H 1355.4 -2.32506 1.89106 0
M  V30 14547 H 1352.96 -1.15911 1.13032 0
M  V30 14548 H 1354.95 -4.04684 0.0356968 0
M  V30 14549 H 1353.52 -3.09534 -0.436767 0
M  V30 14550 H 1352.74 -3.37739 2.03288 0
M  V30 14551 H 1354.03 -4.58187 2.21228 0
M  V30 14552 H 1353.43 -5.59992 -0.801601 0
M  V30 14553 H 1351.98 -6.49546 -0.541538 0
M  V30 14554 N 1355.42 -1.03311 -1.19015 0
M  V30 14555 C 1356.38 -0.622114 -2.20596 0
M  V30 14556 C 1357.38 0.316502 -1.57654 0
M  V30 14557 O 1358.57 0.102932 -1.73896 0
M  V30 14558 C 1355.7 0.0890432 -3.40784 0
M  V30 14559 H 1356.9 -1.52095 -2.58471 0
M  V30 14560 H 1354.45 -0.824777 -1.32767 0
M  V30 14561 H 1355.18 1.00203 -3.08431 0
M  V30 14562 H 1354.97 -0.58547 -3.87704 0
M  V30 14563 H 1356.46 0.363366 -4.16016 0
M  V30 14564 N 1356.9 1.35099 -0.81154 0
M  V30 14565 C 1358.14 1.98233 -0.393453 0
M  V30 14566 C 1358.46 1.64688 1.04417 0
M  V30 14567 O 1357.73 0.931845 1.72318 0
M  V30 14568 H 1356.31 0.733283 -0.142496 0
M  V30 14569 H 1358.98 1.6493 -1.03847 0
M  V30 14570 H 1358.07 3.08017 -0.503188 0
M  V30 14571 N 1358.37 0.56548 1.47106 0
M  V30 14572 C 1359.34 -0.167191 2.28589 0
M  V30 14573 C 1360.34 -0.835005 1.3742 0
M  V30 14574 O 1361.53 -0.689598 1.59969 0
M  V30 14575 C 1358.66 -1.24548 3.17333 0
M  V30 14576 H 1359.85 0.548677 2.94838 0
M  V30 14577 H 1357.4 0.322749 1.52931 0
M  V30 14578 H 1358.14 -1.99348 2.55794 0
M  V30 14579 H 1357.92 -0.771335 3.84438 0
M  V30 14580 H 1359.41 -1.75985 3.78707 0
M  V30 14581 N 1359.85 -1.54672 0.302354 0
M  V30 14582 C 1361.1 -1.99771 -0.305919 0
M  V30 14583 C 1361.42 -1.19225 -1.54306 0
M  V30 14584 O 1360.69 -0.288569 -1.93763 0
M  V30 14585 H 1359.27 -0.737934 -0.116026 0
M  V30 14586 H 1361.93 -1.90452 0.413997 0
M  V30 14587 H 1361.03 -3.06719 -0.577024 0
M  V30 14588 N 1361.33 -0.0301034 -1.57571 0
M  V30 14589 C 1362.24 0.967086 -2.1374 0
M  V30 14590 C 1363.26 1.35636 -1.0899 0
M  V30 14591 O 1364.43 1.43758 -1.41052 0
M  V30 14592 C 1361.5 2.23058 -2.65417 0
M  V30 14593 C 1360.56 1.90163 -3.84885 0
M  V30 14594 C 1359.79 3.10488 -4.34088 0
M  V30 14595 O 1360.01 4.23179 -3.8246 0
M  V30 14596 O 1358.95 2.92729 -5.25921 0
M  V30 14597 H 1362.77 0.519486 -2.99224 0
M  V30 14598 H 1360.36 0.190559 -1.4818 0
M  V30 14599 H 1362.24 2.97229 -2.98719 0
M  V30 14600 H 1360.92 2.66997 -1.83015 0
M  V30 14601 H 1359.82 1.13373 -3.56507 0
M  V30 14602 H 1361.16 1.51039 -4.68453 0
M  V30 14603 N 1362.81 1.55714 0.243056 0
M  V30 14604 C 1363.76 1.90638 1.30099 0
M  V30 14605 C 1364.73 0.761049 1.47639 0
M  V30 14606 O 1365.91 1.01505 1.61559 0
M  V30 14607 C 1363.05 2.20985 2.65065 0
M  V30 14608 C 1362.16 3.48343 2.55501 0
M  V30 14609 C 1361.3 3.68241 3.82847 0
M  V30 14610 C 1360.34 4.89187 3.67916 0
M  V30 14611 N 1359.47 5.05586 4.87162 0
M  V30 14612 H 1364.31 2.80857 0.996155 0
M  V30 14613 H 1361.85 1.39027 0.480619 0
M  V30 14614 H 1363.81 2.36585 3.43632 0
M  V30 14615 H 1362.44 1.33966 2.93689 0
M  V30 14616 H 1361.49 3.41054 1.68483 0
M  V30 14617 H 1362.8 4.37057 2.4038 0
M  V30 14618 H 1361.96 3.83822 4.69857 0
M  V30 14619 H 1360.7 2.77768 4.00869 0
M  V30 14620 H 1359.7 4.7358 2.79289 0
M  V30 14621 H 1360.93 5.81124 3.51385 0
M  V30 14622 H 1358.87 4.18051 5.05538 0
M  V30 14623 H 1358.79 5.88395 4.74686 0
M  V30 14624 H 1360.06 5.25582 5.7566 0
M  V30 14625 N 1364.29 -0.50888 1.49158 0
M  V30 14626 C 1365.7 -1.09054 1.51539 0
M  V30 14627 C 1366.05 -1.93938 0.297099 0
M  V30 14628 O 1365.17 -2.08092 -0.593849 0
M  V30 14629 C 1365.77 -1.98447 2.74599 0
M  V30 14630 C 1364.33 -2.5179 2.79783 0
M  V30 14631 C 1363.47 -1.29227 2.45348 0
M  V30 14632 H 1366.43 -0.293148 1.55969 0
M  V30 14633 H 1366.45 -2.83028 2.54314 0
M  V30 14634 H 1365.96 -1.3664 3.63251 0
M  V30 14635 H 1364.06 -3.17258 1.95392 0
M  V30 14636 H 1364.17 -2.89481 3.81756 0
M  V30 14637 H 1362.54 -1.61494 1.96957 0
M  V30 14638 H 1363.32 -0.6914 3.36266 0
M  V30 14639 N 1365.76 -1.381 -0.759346 0
M  V30 14640 C 1367.18 -1.19171 -1.06162 0
M  V30 14641 C 1367.38 -0.0364043 -2.01467 0
M  V30 14642 O 1366.44 0.619635 -2.44779 0
M  V30 14643 C 1367.75 -2.51569 -1.64723 0
M  V30 14644 C 1369.3 -2.58201 -1.76921 0
M  V30 14645 C 1369.77 -3.9076 -2.38894 0
M  V30 14646 N 1371.26 -3.92269 -2.46331 0
M  V30 14647 C 1372 -4.91595 -2.95164 0
M  V30 14648 N 1371.49 -6.01318 -3.44075 0
M  V30 14649 N 1373.29 -4.7899 -2.94152 0
M  V30 14650 H 1365.44 -2.12021 -0.126788 0
M  V30 14651 H 1367.7 -0.940517 -0.118877 0
M  V30 14652 H 1367.41 -3.36535 -1.02162 0
M  V30 14653 H 1367.28 -2.69551 -2.6386 0
M  V30 14654 H 1369.67 -1.73634 -2.38611 0
M  V30 14655 H 1369.75 -2.44092 -0.765047 0
M  V30 14656 H 1369.39 -4.75747 -1.7784 0
M  V30 14657 H 1369.32 -4.02179 -3.39941 0
M  V30 14658 H 1371.81 -3.13015 -2.11731 0
M  V30 14659 H 1372.13 -6.73046 -3.79776 0
M  V30 14660 H 1370.47 -6.04946 -3.42148 0
M  V30 14661 H 1373.66 -3.92385 -2.55248 0
M  V30 14662 H 1373.84 -5.5655 -3.31897 0
M  V30 14663 N 1367.24 0.986894 -1.22875 0
M  V30 14664 C 1368.15 2.11232 -1.02069 0
M  V30 14665 C 1369.17 1.73969 0.0328424 0
M  V30 14666 O 1370.34 2.00754 -0.161197 0
M  V30 14667 C 1367.41 3.41337 -0.60747 0
M  V30 14668 C 1366.47 3.92665 -1.73531 0
M  V30 14669 C 1365.7 5.1656 -1.34171 0
M  V30 14670 O 1365.93 5.69964 -0.223106 0
M  V30 14671 O 1364.86 5.61791 -2.16041 0
M  V30 14672 H 1368.69 2.3167 -1.96374 0
M  V30 14673 H 1366.27 1.09607 -1.01522 0
M  V30 14674 H 1368.15 4.19613 -0.387661 0
M  V30 14675 H 1366.83 3.22244 0.306653 0
M  V30 14676 H 1365.74 3.15534 -2.0097 0
M  V30 14677 H 1367.07 4.162 -2.62751 0
M  V30 14678 N 1368.72 1.0394 1.18466 0
M  V30 14679 C 1369.65 0.587413 2.21545 0
M  V30 14680 C 1370.67 -0.34227 1.59161 0
M  V30 14681 O 1371.85 -0.136988 1.77974 0
M  V30 14682 C 1368.95 -0.161999 3.38513 0
M  V30 14683 C 1368.13 0.775243 4.30475 0
M  V30 14684 C 1367.19 0.0693526 5.26154 0
M  V30 14685 O 1366.21 0.69937 5.64887 0
M  V30 14686 N 1367.41 -1.19773 5.68009 0
M  V30 14687 H 1370.18 1.47399 2.60948 0
M  V30 14688 H 1367.74 0.919734 1.33239 0
M  V30 14689 H 1369.73 -0.644041 3.99542 0
M  V30 14690 H 1368.3 -0.950099 2.97812 0
M  V30 14691 H 1367.52 1.43717 3.67068 0
M  V30 14692 H 1368.81 1.41187 4.88819 0
M  V30 14693 H 1368.21 -1.73013 5.38593 0
M  V30 14694 H 1366.77 -1.62407 6.31243 0
M  V30 14695 N 1370.2 -1.34667 0.818693 0
M  V30 14696 C 1371.44 -1.98708 0.405359 0
M  V30 14697 C 1371.78 -1.64767 -1.02788 0
M  V30 14698 O 1371.05 -0.91714 -1.71519 0
M  V30 14699 C 1371.34 -3.55016 0.602966 0
M  V30 14700 C 1371.19 -3.98713 2.08201 0
M  V30 14701 C 1372.51 -4.40085 0.0362489 0
M  V30 14702 H 1369.63 -0.721831 0.148756 0
M  V30 14703 H 1372.27 -1.59628 1.03047 0
M  V30 14704 H 1370.42 -3.88435 0.0708453 0
M  V30 14705 H 1372.09 -3.75647 2.67745 0
M  V30 14706 H 1370.33 -3.49179 2.57403 0
M  V30 14707 H 1371 -5.0751 2.17111 0
M  V30 14708 H 1373.48 -4.13195 0.490837 0
M  V30 14709 H 1372.36 -5.4852 0.204344 0
M  V30 14710 H 1372.62 -4.29243 -1.05845 0
M  V30 14711 N 1371.68 -0.573274 -1.46804 0
M  V30 14712 C 1372.61 0.153316 -2.32996 0
M  V30 14713 C 1373.59 0.893013 -1.44773 0
M  V30 14714 O 1374.77 0.870329 -1.73606 0
M  V30 14715 C 1371.9 1.1736 -3.2687 0
M  V30 14716 C 1370.86 0.549347 -4.2446 0
M  V30 14717 C 1370.18 1.67542 -5.07773 0
M  V30 14718 C 1371.48 -0.50736 -5.1983 0
M  V30 14719 H 1373.18 -0.566305 -2.93995 0
M  V30 14720 H 1370.72 -0.273785 -1.41373 0
M  V30 14721 H 1372.68 1.6902 -3.86019 0
M  V30 14722 H 1371.4 1.92337 -2.63958 0
M  V30 14723 H 1370.06 0.0539142 -3.6656 0
M  V30 14724 H 1369.71 2.41463 -4.41253 0
M  V30 14725 H 1369.41 1.26343 -5.73856 0
M  V30 14726 H 1370.93 2.19496 -5.69784 0
M  V30 14727 H 1372.34 -0.0762061 -5.73249 0
M  V30 14728 H 1370.74 -0.839139 -5.94204 0
M  V30 14729 H 1371.81 -1.39723 -4.64333 0
M  V30 14730 N 1373.15 1.5451 -0.310553 0
M  V30 14731 C 1374.06 2.27557 0.570518 0
M  V30 14732 C 1375.08 1.31426 1.14032 0
M  V30 14733 O 1376.26 1.64423 1.16306 0
M  V30 14734 C 1373.32 3.00933 1.72163 0
M  V30 14735 C 1372.38 4.12623 1.18495 0
M  V30 14736 C 1371.62 4.8249 2.28121 0
M  V30 14737 O 1371.84 4.5178 3.48211 0
M  V30 14738 O 1370.77 5.69686 1.94273 0
M  V30 14739 H 1374.6 3.03692 -0.0223195 0
M  V30 14740 H 1372.18 1.49203 -0.0766821 0
M  V30 14741 H 1374.07 3.46925 2.39208 0
M  V30 14742 H 1372.74 2.27685 2.3009 0
M  V30 14743 H 1371.65 3.71008 0.479956 0
M  V30 14744 H 1372.98 4.87876 0.650994 0
M  V30 14745 N 1374.63 0.0384594 1.57553 0
M  V30 14746 C 1375.86 -0.648077 1.96488 0
M  V30 14747 C 1376.28 -1.65123 0.915414 0
M  V30 14748 O 1375.63 -1.82216 -0.101779 0
M  V30 14749 C 1375.68 -1.34623 3.35498 0
M  V30 14750 O 1375.41 -0.383261 4.3642 0
M  V30 14751 C 1376.91 -2.12372 3.89119 0
M  V30 14752 H 1374.13 -0.178068 0.646941 0
M  V30 14753 H 1376.67 0.100993 2.0425 0
M  V30 14754 H 1374.83 -2.04663 3.28926 0
M  V30 14755 H 1375.24 -0.880095 5.17063 0
M  V30 14756 H 1376.71 -2.5666 4.88702 0
M  V30 14757 H 1377.19 -2.96664 3.23863 0
M  V30 14758 H 1377.8 -1.4727 3.98988 0
M  V30 14759 N 1376.11 -1.55841 -0.234795 0
M  V30 14760 C 1377.36 -1.78502 -0.96254 0
M  V30 14761 C 1377.69 -0.605832 -1.84508 0
M  V30 14762 O 1376.97 0.395446 -1.90438 0
M  V30 14763 C 1377.25 -3.11144 -1.81277 0
M  V30 14764 C 1377.1 -4.39488 -0.957607 0
M  V30 14765 C 1378.42 -3.40114 -2.79304 0
M  V30 14766 H 1375.54 -0.649397 -0.348501 0
M  V30 14767 H 1378.18 -1.88575 -0.23224 0
M  V30 14768 H 1376.33 -3.02687 -2.43542 0
M  V30 14769 H 1378 -4.59949 -0.352726 0
M  V30 14770 H 1376.25 -4.33005 -0.262454 0
M  V30 14771 H 1376.92 -5.28707 -1.58659 0
M  V30 14772 H 1379.39 -3.48612 -2.27175 0
M  V30 14773 H 1378.27 -4.34118 -3.35906 0
M  V30 14774 H 1378.53 -2.61623 -3.56378 0
M  V30 14775 N 1377.59 0.500963 -1.49426 0
M  V30 14776 C 1378.54 1.6025 -1.66098 0
M  V30 14777 C 1379.51 1.58318 -0.502453 0
M  V30 14778 O 1380.69 1.76304 -0.729482 0
M  V30 14779 C 1377.83 2.98396 -1.73361 0
M  V30 14780 C 1376.94 3.10343 -3.00518 0
M  V30 14781 C 1376.08 4.39222 -2.9876 0
M  V30 14782 C 1375.12 4.44803 -4.20496 0
M  V30 14783 N 1374.26 5.6511 -4.16648 0
M  V30 14784 H 1379.1 1.45342 -2.60153 0
M  V30 14785 H 1376.63 0.707147 -1.28988 0
M  V30 14786 H 1378.59 3.78467 -1.75553 0
M  V30 14787 H 1377.22 3.12007 -0.827718 0
M  V30 14788 H 1376.27 2.23336 -3.07937 0
M  V30 14789 H 1377.58 3.10327 -3.90511 0
M  V30 14790 H 1376.74 5.27613 -2.99515 0
M  V30 14791 H 1375.48 4.41804 -2.06545 0
M  V30 14792 H 1374.48 3.54814 -4.19985 0
M  V30 14793 H 1375.71 4.43937 -5.13903 0
M  V30 14794 H 1373.65 5.68533 -3.2727 0
M  V30 14795 H 1373.57 5.6671 -5.00376 0
M  V30 14796 H 1374.84 6.55708 -4.21506 0
M  V30 14797 N 1379.07 1.38501 0.752011 0
M  V30 14798 C 1380.02 1.35975 1.88716 0
M  V30 14799 C 1381.01 0.245392 1.67613 0
M  V30 14800 O 1382.22 0.414514 1.75162 0
M  V30 14801 H 1378.59 0.424221 0.620919 0
M  V30 14802 H 1380.56 2.3176 1.87962 0
M  V30 14803 C 1379.31 1.20326 3.26216 0
M  V30 14804 H 1378.63 2.05336 3.43041 0
M  V30 14805 H 1380.07 1.22613 4.05884 0
M  V30 14806 C 1378.53 -0.0897029 3.36781 0
M  V30 14807 O 1379.06 -1.06615 3.87293 0
M  V30 14808 N 1377.27 -0.147065 2.90228 0
M  V30 14809 H 1376.82 0.648216 2.49311 0
M  V30 14810 H 1376.77 -1.01174 2.97676 0
M  V30 14811 N 1380.55 -0.980364 1.23396 0
M  V30 14812 C 1381.49 -2.09401 1.01262 0
M  V30 14813 C 1382.49 -1.69331 -0.0483957 0
M  V30 14814 O 1383.69 -1.79693 0.105109 0
M  V30 14815 H 1380.07 -0.684969 0.310358 0
M  V30 14816 H 1382.04 -2.25236 1.95732 0
M  V30 14817 C 1380.79 -3.42118 0.620526 0
M  V30 14818 H 1380.11 -3.73402 1.42868 0
M  V30 14819 H 1381.55 -4.2098 0.505169 0
M  V30 14820 C 1380.01 -3.30146 -0.671208 0
M  V30 14821 O 1380.54 -3.62997 -1.72034 0
M  V30 14822 N 1378.75 -2.83303 -0.647137 0
M  V30 14823 H 1378.29 -2.56767 0.206957 0
M  V30 14824 H 1378.25 -2.75675 -1.51165 0
M  V30 14825 N 1382.02 -1.04567 -1.17913 0
M  V30 14826 C 1383.27 -0.747179 -1.8735 0
M  V30 14827 C 1383.59 0.728274 -1.81537 0
M  V30 14828 O 1384.79 1.14048 -2.46385 0
M  V30 14829 C 1383.25 -1.28629 -3.36129 0
M  V30 14830 C 1382.86 -2.79073 -3.5046 0
M  V30 14831 C 1384.6 -1.06455 -4.10935 0
M  V30 14832 C 1382.51 -3.26316 -4.93226 0
M  V30 14833 H 1381.44 -0.275807 -0.701745 0
M  V30 14834 H 1384.09 -1.26215 -1.33199 0
M  V30 14835 H 1382.47 -0.699151 -3.89779 0
M  V30 14836 H 1383.64 -3.43587 -3.07057 0
M  V30 14837 H 1381.96 -2.99716 -2.89066 0
M  V30 14838 H 1384.56 -1.3926 -5.16247 0
M  V30 14839 H 1384.9 -0.00201298 -4.163 0
M  V30 14840 H 1385.43 -1.61656 -3.63472 0
M  V30 14841 H 1382.17 -4.31972 -4.93032 0
M  V30 14842 H 1381.69 -2.6654 -5.37323 0
M  V30 14843 H 1383.37 -3.2063 -5.61966 0
M  V30 14844 N 1383.5 1.34231 -0.825823 0
M  V30 14845 C 1384.41 2.33245 -0.251803 0
M  V30 14846 C 1385.43 1.62756 0.615334 0
M  V30 14847 O 1386.6 1.94503 0.522547 0
M  V30 14848 C 1383.67 3.41908 0.574456 0
M  V30 14849 C 1382.73 4.2814 -0.315422 0
M  V30 14850 C 1381.96 5.31613 0.471496 0
M  V30 14851 O 1382.19 5.44337 1.70449 0
M  V30 14852 O 1381.12 6.01719 -0.147691 0
M  V30 14853 H 1384.95 2.84174 -1.07139 0
M  V30 14854 H 1382.53 1.37341 -0.588032 0
M  V30 14855 H 1384.41 4.08252 1.04444 0
M  V30 14856 H 1383.09 2.93217 1.37132 0
M  V30 14857 H 1381.99 3.64709 -0.832963 0
M  V30 14858 H 1383.33 4.80279 -1.07672 0
M  V30 14859 N 1384.98 0.581051 1.46498 0
M  V30 14860 C 1386.23 0.07442 2.03264 0
M  V30 14861 C 1386.58 -1.27069 1.44469 0
M  V30 14862 O 1385.87 -1.8197 0.599785 0
M  V30 14863 C 1386.07 -0.0514774 3.57363 0
M  V30 14864 C 1385.9 1.27988 4.31102 0
M  V30 14865 C 1384.67 1.85358 4.70075 0
M  V30 14866 C 1386.86 2.20268 4.64743 0
M  V30 14867 N 1384.85 3.1225 5.28558 0
M  V30 14868 C 1386.22 3.31746 5.23779 0
M  V30 14869 C 1388.27 2.19969 4.46675 0
M  V30 14870 C 1386.98 4.43056 5.66652 0
M  V30 14871 C 1389 3.30307 4.90562 0
M  V30 14872 C 1388.36 4.40505 5.49667 0
M  V30 14873 H 1384.46 0.0699705 0.778863 0
M  V30 14874 H 1387.05 0.773585 1.78672 0
M  V30 14875 H 1385.22 -0.719807 3.81672 0
M  V30 14876 H 1386.95 -0.562342 4.00774 0
M  V30 14877 H 1383.7 1.3887 4.52782 0
M  V30 14878 H 1384.13 3.76992 5.62322 0
M  V30 14879 H 1388.77 1.36044 4.00315 0
M  V30 14880 H 1386.49 5.27724 6.11991 0
M  V30 14881 H 1390.07 3.31191 4.78334 0
M  V30 14882 H 1388.95 5.24475 5.83006 0
M  V30 14883 N 1386.46 -1.54343 0.318742 0
M  V30 14884 C 1387.39 -2.27118 -0.542206 0
M  V30 14885 C 1388.37 -1.27731 -1.12334 0
M  V30 14886 O 1389.55 -1.56535 -1.14937 0
M  V30 14887 C 1386.68 -3.02535 -1.70558 0
M  V30 14888 C 1385.64 -4.09218 -1.25398 0
M  V30 14889 C 1384.96 -4.72449 -2.50391 0
M  V30 14890 C 1386.26 -5.20971 -0.372332 0
M  V30 14891 H 1387.96 -2.9933 0.0648226 0
M  V30 14892 H 1385.5 -1.43963 0.0326168 0
M  V30 14893 H 1387.46 -3.52174 -2.31412 0
M  V30 14894 H 1386.18 -2.27931 -2.33912 0
M  V30 14895 H 1384.84 -3.60455 -0.668392 0
M  V30 14896 H 1384.49 -3.94466 -3.12099 0
M  V30 14897 H 1384.19 -5.4451 -2.20868 0
M  V30 14898 H 1385.71 -5.2486 -3.12016 0
M  V30 14899 H 1387.13 -5.66396 -0.887029 0
M  V30 14900 H 1385.52 -5.99859 -0.17009 0
M  V30 14901 H 1386.59 -4.81198 0.598064 0
M  V30 14902 N 1387.94 -0.0468143 -1.5753 0
M  V30 14903 C 1388.88 0.929065 -2.11275 0
M  V30 14904 C 1389.85 1.31166 -1.01905 0
M  V30 14905 O 1391.04 1.40189 -1.29428 0
M  V30 14906 C 1388.18 2.20012 -2.65873 0
M  V30 14907 C 1387.29 1.8724 -3.89314 0
M  V30 14908 C 1386.43 3.08772 -4.32242 0
M  V30 14909 C 1385.46 2.719 -5.48395 0
M  V30 14910 N 1384.6 3.86112 -5.86397 0
M  V30 14911 H 1389.44 0.463854 -2.94368 0
M  V30 14912 H 1386.98 0.217338 -1.45486 0
M  V30 14913 H 1388.94 2.94383 -2.95626 0
M  V30 14914 H 1387.57 2.64118 -1.85584 0
M  V30 14915 H 1386.62 1.03037 -3.6618 0
M  V30 14916 H 1387.93 1.56096 -4.73746 0
M  V30 14917 H 1387.08 3.91446 -4.63525 0
M  V30 14918 H 1385.82 3.4309 -3.46613 0
M  V30 14919 H 1384.83 1.87642 -5.16789 0
M  V30 14920 H 1386.05 2.38779 -6.35737 0
M  V30 14921 H 1384 4.2024 -5.03721 0
M  V30 14922 H 1383.92 3.58652 -6.65511 0
M  V30 14923 H 1385.18 4.69438 -6.22293 0
M  V30 14924 N 1389.41 1.55964 0.226527 0
M  V30 14925 C 1390.35 1.88487 1.30405 0
M  V30 14926 C 1391.36 0.772723 1.43293 0
M  V30 14927 O 1392.55 1.05099 1.44279 0
M  V30 14928 C 1389.65 2.074 2.68027 0
M  V30 14929 C 1388.82 3.38389 2.77149 0
M  V30 14930 C 1387.88 3.46795 3.95752 0
M  V30 14931 O 1386.91 4.19862 3.84323 0
M  V30 14932 N 1388.11 2.77573 5.09836 0
M  V30 14933 H 1390.87 2.81506 1.02833 0
M  V30 14934 H 1388.43 1.56449 0.416581 0
M  V30 14935 H 1390.43 2.10344 3.45742 0
M  V30 14936 H 1389 1.2103 2.8822 0
M  V30 14937 H 1388.22 3.47586 1.8595 0
M  V30 14938 H 1389.5 4.24688 2.8021 0
M  V30 14939 H 1388.9 2.17979 5.22017 0
M  V30 14940 H 1387.46 2.86185 5.85612 0
M  V30 14941 N 1390.89 -0.493031 1.4969 0
M  V30 14942 C 1391.84 -1.59075 1.63337 0
M  V30 14943 C 1392.83 -1.53298 0.488721 0
M  V30 14944 O 1394.02 -1.60693 0.742071 0
M  V30 14945 C 1391.15 -2.97646 1.71061 0
M  V30 14946 C 1390.23 -3.08389 2.9113 0
M  V30 14947 N 1390.62 -2.89001 4.15105 0
M  V30 14948 C 1388.92 -3.395 2.89233 0
M  V30 14949 C 1389.62 -3.04136 4.95859 0
M  V30 14950 N 1388.6 -3.33367 4.2938 0
M  V30 14951 H 1392.4 -1.42751 2.56903 0
M  V30 14952 H 1389.92 -0.699325 1.46571 0
M  V30 14953 H 1391.91 -3.76546 1.78938 0
M  V30 14954 H 1390.57 -3.15034 0.786376 0
M  V30 14955 H 1391.58 -2.65017 4.44957 0
M  V30 14956 H 1388.26 -3.63014 2.06221 0
M  V30 14957 H 1389.65 -2.93571 6.04372 0
M  V30 14958 N 1392.37 -1.38898 -0.744656 0
M  V30 14959 C 1393.79 -1.20291 -1.04892 0
M  V30 14960 C 1393.99 -0.0577705 -2.01417 0
M  V30 14961 O 1393.04 0.593638 -2.45422 0
M  V30 14962 C 1394.36 -2.53302 -1.62045 0
M  V30 14963 C 1395.9 -2.60063 -1.74173 0
M  V30 14964 C 1396.38 -3.93272 -2.34736 0
M  V30 14965 N 1397.87 -3.9486 -2.42157 0
M  V30 14966 C 1398.6 -4.94698 -2.89933 0
M  V30 14967 N 1398.1 -6.04934 -3.37678 0
M  V30 14968 N 1399.89 -4.82083 -2.89055 0
M  V30 14969 H 1392.04 -2.12144 -0.104294 0
M  V30 14970 H 1394.31 -0.941725 -0.108895 0
M  V30 14971 H 1394.01 -3.376 -0.985868 0
M  V30 14972 H 1393.89 -2.72335 -2.60986 0
M  V30 14973 H 1396.27 -1.76155 -2.36756 0
M  V30 14974 H 1396.36 -2.44889 -0.739115 0
M  V30 14975 H 1396 -4.77607 -1.72784 0
M  V30 14976 H 1395.93 -4.05762 -3.35656 0
M  V30 14977 H 1398.42 -3.15243 -2.08399 0
M  V30 14978 H 1398.73 -6.77036 -3.72616 0
M  V30 14979 H 1397.08 -6.08541 -3.35712 0
M  V30 14980 H 1400.27 -3.9507 -2.51072 0
M  V30 14981 H 1400.44 -5.60039 -3.25975 0
M  V30 14982 N 1393.85 0.973806 -1.23914 0
M  V30 14983 C 1394.8 2.08861 -1.02372 0
M  V30 14984 C 1395.79 1.69354 0.039415 0
M  V30 14985 O 1397 1.79635 -0.114637 0
M  V30 14986 H 1393.37 0.683313 -0.313986 0
M  V30 14987 H 1395.34 2.24195 -1.96924 0
M  V30 14988 C 1394.09 3.41784 -0.638661 0
M  V30 14989 H 1393.41 3.72639 -1.44846 0
M  V30 14990 H 1394.85 4.20706 -0.527487 0
M  V30 14991 C 1393.31 3.30497 0.65369 0
M  V30 14992 O 1393.84 3.63905 1.70107 0
M  V30 14993 N 1392.05 2.83642 0.632104 0
M  V30 14994 H 1391.6 2.56654 -0.220571 0
M  V30 14995 H 1391.55 2.76472 1.49701 0
M  V30 14996 N 1395.33 1.05191 1.17357 0
M  V30 14997 C 1396.55 0.782373 1.91537 0
M  V30 14998 C 1396.97 -0.661935 1.76816 0
M  V30 14999 O 1396.33 -1.45221 1.10531 0
M  V30 15000 C 1396.38 1.15357 3.426 0
M  V30 15001 O 1396.1 2.54119 3.56869 0
M  V30 15002 C 1397.6 0.910167 4.33856 0
M  V30 15003 H 1394.82 0.284461 0.607719 0
M  V30 15004 H 1397.36 1.40259 1.48821 0
M  V30 15005 H 1395.52 0.578107 3.83062 0
M  V30 15006 H 1395.93 2.68668 4.50464 0
M  V30 15007 H 1397.41 1.21964 5.38358 0
M  V30 15008 H 1397.88 -0.154624 4.38928 0
M  V30 15009 H 1398.49 1.46947 3.99107 0
M  V30 15010 N 1396.8 -1.33791 0.83293 0
M  V30 15011 C 1398.05 -1.97233 0.422127 0
M  V30 15012 C 1398.37 -1.66738 -1.02264 0
M  V30 15013 O 1399.57 -2.23747 -1.53783 0
M  V30 15014 C 1398.03 -3.5295 0.703872 0
M  V30 15015 C 1397.64 -3.92329 2.16292 0
M  V30 15016 C 1399.38 -4.22973 0.359727 0
M  V30 15017 C 1397.29 -5.40999 2.38903 0
M  V30 15018 H 1396.22 -0.738082 0.154112 0
M  V30 15019 H 1398.87 -1.52494 1.02068 0
M  V30 15020 H 1397.25 -3.95985 0.0350184 0
M  V30 15021 H 1398.42 -3.6037 2.87176 0
M  V30 15022 H 1396.74 -3.35271 2.46947 0
M  V30 15023 H 1399.34 -5.32297 0.506366 0
M  V30 15024 H 1399.68 -4.10428 -0.696743 0
M  V30 15025 H 1400.21 -3.85449 0.983568 0
M  V30 15026 H 1396.95 -5.58541 3.43093 0
M  V30 15027 H 1396.47 -5.74438 1.72573 0
M  V30 15028 H 1398.15 -6.07809 2.2176 0
M  V30 15029 N 1398.28 -0.588812 -1.46187 0
M  V30 15030 C 1399.7 -0.250962 -1.57615 0
M  V30 15031 C 1399.9 1.2467 -1.58302 0
M  V30 15032 O 1398.95 2.02876 -1.50325 0
M  V30 15033 C 1400.27 -0.905561 -2.8674 0
M  V30 15034 C 1401.82 -0.879721 -3.00383 0
M  V30 15035 C 1402.29 -1.51398 -4.32253 0
M  V30 15036 N 1403.78 -1.4786 -4.38967 0
M  V30 15037 C 1404.52 -1.93868 -5.39632 0
M  V30 15038 N 1404.01 -2.47876 -6.46938 0
M  V30 15039 N 1405.81 -1.84748 -5.30872 0
M  V30 15040 H 1397.96 -1.56148 -1.43985 0
M  V30 15041 H 1400.22 -0.653028 -0.68721 0
M  V30 15042 H 1399.93 -1.95935 -2.92066 0
M  V30 15043 H 1399.8 -0.417456 -3.74883 0
M  V30 15044 H 1402.19 0.165466 -2.94636 0
M  V30 15045 H 1402.27 -1.40591 -2.137 0
M  V30 15046 H 1401.91 -2.55839 -4.38758 0
M  V30 15047 H 1401.84 -0.962965 -5.17721 0
M  V30 15048 H 1404.33 -1.08387 -3.62023 0
M  V30 15049 H 1404.65 -2.80824 -7.1997 0
M  V30 15050 H 1402.99 -2.51905 -6.47741 0
M  V30 15051 H 1406.18 -1.42307 -4.45944 0
M  V30 15052 H 1406.35 -2.20919 -6.09179 0
M  V30 15053 N 1399.76 1.54172 -0.326923 0
M  V30 15054 C 1400.67 2.28149 0.546351 0
M  V30 15055 C 1401.69 1.32628 1.12631 0
M  V30 15056 O 1402.86 1.65647 1.14556 0
M  V30 15057 C 1399.93 3.02742 1.68962 0
M  V30 15058 C 1398.99 4.13856 1.14112 0
M  V30 15059 C 1398.22 4.84882 2.2299 0
M  V30 15060 O 1398.44 4.55448 3.43399 0
M  V30 15061 O 1397.38 5.71714 1.8822 0
M  V30 15062 H 1401.2 3.03651 -0.0545288 0
M  V30 15063 H 1398.79 1.49113 -0.0925027 0
M  V30 15064 H 1400.67 3.49443 2.35515 0
M  V30 15065 H 1399.35 2.30113 2.27662 0
M  V30 15066 H 1398.25 3.71497 0.440579 0
M  V30 15067 H 1399.59 4.88539 0.599211 0
M  V30 15068 N 1401.24 0.0551678 1.57503 0
M  V30 15069 C 1402.48 -0.612713 1.93952 0
M  V30 15070 C 1402.84 -1.68215 0.933889 0
M  V30 15071 O 1402.13 -1.91544 -0.0463465 0
M  V30 15072 C 1402.33 -1.24895 3.34867 0
M  V30 15073 C 1402.16 -0.242666 4.49045 0
M  V30 15074 C 1400.93 0.16678 5.05025 0
M  V30 15075 C 1403.12 0.513505 5.1173 0
M  V30 15076 N 1401.11 1.16551 6.02735 0
M  V30 15077 C 1402.48 1.3652 6.04783 0
M  V30 15078 C 1404.53 0.571384 4.94611 0
M  V30 15079 C 1403.23 2.26959 6.82556 0
M  V30 15080 C 1405.26 1.46322 5.73013 0
M  V30 15081 C 1404.62 2.30262 6.65702 0
M  V30 15082 H 1400.72 -0.195733 0.757108 0
M  V30 15083 H 1403.31 0.128432 1.94276 0
M  V30 15084 H 1401.48 -1.9601 3.35313 0
M  V30 15085 H 1403.21 -1.87595 3.58595 0
M  V30 15086 H 1399.96 -0.212991 4.73121 0
M  V30 15087 H 1400.39 1.66188 6.56285 0
M  V30 15088 H 1405.03 -0.0633664 4.22753 0
M  V30 15089 H 1402.75 2.91477 7.53702 0
M  V30 15090 H 1406.33 1.51262 5.61793 0
M  V30 15091 H 1405.21 2.98153 7.2531 0
M  V30 15092 N 1402.72 -1.56081 -0.218252 0
M  V30 15093 C 1403.96 -1.79247 -0.942157 0
M  V30 15094 C 1404.29 -0.624492 -1.84202 0
M  V30 15095 O 1403.55 0.390973 -1.91755 0
M  V30 15096 C 1403.85 -3.08199 -1.80965 0
M  V30 15097 C 1403.51 -4.38197 -1.06274 0
M  V30 15098 C 1402.17 -4.73517 -0.856432 0
M  V30 15099 C 1404.53 -5.18441 -0.535532 0
M  V30 15100 C 1401.85 -5.86595 -0.111065 0
M  V30 15101 C 1404.21 -6.32295 0.196507 0
M  V30 15102 C 1402.87 -6.66215 0.414041 0
M  V30 15103 H 1402.14 -0.655913 -0.34476 0
M  V30 15104 H 1404.79 -1.90344 -0.210095 0
M  V30 15105 H 1403.09 -2.92238 -2.60967 0
M  V30 15106 H 1404.79 -3.23325 -2.37196 0
M  V30 15107 H 1401.38 -4.10466 -1.23352 0
M  V30 15108 H 1405.56 -4.91586 -0.682386 0
M  V30 15109 H 1400.82 -6.11363 0.0676711 0
M  V30 15110 H 1404.99 -6.93701 0.612516 0
M  V30 15111 H 1402.62 -7.5368 0.993532 0
M  V30 15112 N 1404.2 0.485086 -1.49949 0
M  V30 15113 C 1405.44 1.23816 -1.60237 0
M  V30 15114 C 1405.77 1.9223 -0.296274 0
M  V30 15115 O 1405.03 1.82095 0.716939 0
M  V30 15116 C 1405.32 2.31573 -2.72229 0
M  V30 15117 C 1404.99 1.80508 -4.13192 0
M  V30 15118 C 1403.65 1.66301 -4.5155 0
M  V30 15119 C 1406 1.42471 -5.0135 0
M  V30 15120 C 1403.33 1.1246 -5.75821 0
M  V30 15121 C 1405.68 0.900757 -6.26154 0
M  V30 15122 C 1404.35 0.74521 -6.63327 0
M  V30 15123 H 1403.62 0.453075 -0.586348 0
M  V30 15124 H 1406.27 0.536349 -1.83836 0
M  V30 15125 H 1404.57 3.07606 -2.42663 0
M  V30 15126 H 1406.27 2.89574 -2.77395 0
M  V30 15127 H 1402.86 1.92529 -3.82924 0
M  V30 15128 H 1407.04 1.52287 -4.72358 0
M  V30 15129 H 1402.3 0.991422 -6.03308 0
M  V30 15130 H 1406.47 0.5973 -6.93834 0
M  V30 15131 H 1404.1 0.325838 -7.59501 0
M  V30 15132 N 1405.67 1.39291 0.737279 0
M  V30 15133 C 1406.62 1.37969 1.87263 0
M  V30 15134 C 1407.62 0.263156 1.67344 0
M  V30 15135 O 1408.82 0.433069 1.74713 0
M  V30 15136 H 1405.2 0.430782 0.616385 0
M  V30 15137 H 1407.17 2.33741 1.85494 0
M  V30 15138 C 1405.92 1.23779 3.24922 0
M  V30 15139 H 1405.24 2.08963 3.40844 0
M  V30 15140 H 1406.68 1.26911 4.04561 0
M  V30 15141 C 1405.14 -0.0539778 3.36857 0
M  V30 15142 O 1405.67 -1.02501 3.88402 0
M  V30 15143 N 1403.87 -0.116275 2.90367 0
M  V30 15144 H 1403.42 0.674622 2.48609 0
M  V30 15145 H 1403.38 -0.980107 2.98733 0
M  V30 15146 N 1407.15 -0.967221 1.24429 0
M  V30 15147 C 1408.08 -2.07966 1.06172 0
M  V30 15148 C 1409.06 -1.70081 -0.0254566 0
M  V30 15149 O 1410.25 -1.93682 0.141705 0
M  V30 15150 C 1407.38 -3.4085 0.666251 0
M  V30 15151 C 1406.33 -3.92692 1.70225 0
M  V30 15152 C 1405.66 -5.21925 1.16183 0
M  V30 15153 C 1406.96 -4.20478 3.09831 0
M  V30 15154 H 1408.65 -2.23497 1.99222 0
M  V30 15155 H 1406.2 -1.07398 0.959255 0
M  V30 15156 H 1408.15 -4.1811 0.52552 0
M  V30 15157 H 1406.87 -3.2522 -0.299939 0
M  V30 15158 H 1405.53 -3.17588 1.83121 0
M  V30 15159 H 1405.18 -5.02655 0.186237 0
M  V30 15160 H 1404.88 -5.57579 1.85416 0
M  V30 15161 H 1406.41 -6.01795 1.03323 0
M  V30 15162 H 1407.82 -4.88442 3.00162 0
M  V30 15163 H 1406.22 -4.67362 3.7642 0
M  V30 15164 H 1407.29 -3.27235 3.57834 0
M  V30 15165 N 1408.63 -1.05812 -1.16797 0
M  V30 15166 C 1409.56 -0.685778 -2.23202 0
M  V30 15167 C 1410.54 0.319428 -1.67074 0
M  V30 15168 O 1411.73 0.195635 -1.93212 0
M  V30 15169 C 1408.86 -0.0662958 -3.47237 0
M  V30 15170 C 1407.81 -0.996943 -4.16227 0
M  V30 15171 C 1407.14 -0.241015 -5.34157 0
M  V30 15172 C 1408.44 -2.32384 -4.67755 0
M  V30 15173 H 1410.13 -1.57535 -2.54604 0
M  V30 15174 H 1407.68 -0.758909 -1.22379 0
M  V30 15175 H 1409.63 0.206024 -4.20896 0
M  V30 15176 H 1408.35 0.858263 -3.15121 0
M  V30 15177 H 1407.01 -1.25393 -3.44488 0
M  V30 15178 H 1406.66 0.686508 -4.98293 0
M  V30 15179 H 1406.36 -0.861188 -5.81255 0
M  V30 15180 H 1407.88 0.0238739 -6.10595 0
M  V30 15181 H 1409.3 -2.11099 -5.3302 0
M  V30 15182 H 1407.69 -2.89855 -5.25456 0
M  V30 15183 H 1408.76 -2.958 -3.84227 0
M  V30 15184 N 1410.11 1.33347 -0.840014 0
M  V30 15185 C 1411.02 2.32965 -0.276527 0
M  V30 15186 C 1412.03 1.634 0.598037 0
M  V30 15187 O 1413.21 1.95046 0.501888 0
M  V30 15188 C 1410.27 3.42498 0.53816 0
M  V30 15189 C 1409.34 4.27781 -0.360814 0
M  V30 15190 C 1408.57 5.32083 0.415085 0
M  V30 15191 O 1408.79 5.46115 1.64666 0
M  V30 15192 O 1407.73 6.01528 -0.211503 0
M  V30 15193 H 1411.55 2.83022 -1.10147 0
M  V30 15194 H 1409.14 1.3671 -0.602566 0
M  V30 15195 H 1411.02 4.09336 1.00108 0
M  V30 15196 H 1409.69 2.94655 1.34015 0
M  V30 15197 H 1408.6 3.63805 -0.871598 0
M  V30 15198 H 1409.93 4.7911 -1.1276 0
M  V30 15199 N 1411.59 0.596556 1.45873 0
M  V30 15200 C 1412.81 0.0916466 2.07197 0
M  V30 15201 C 1413.24 -1.21004 1.44012 0
M  V30 15202 O 1412.59 -1.73415 0.528844 0
M  V30 15203 C 1412.64 -0.0461457 3.6057 0
M  V30 15204 O 1411.75 -1.09919 3.97481 0
M  V30 15205 H 1411.09 0.0690655 0.660398 0
M  V30 15206 H 1413.62 0.823434 1.87299 0
M  V30 15207 H 1413.63 -0.2479 4.07246 0
M  V30 15208 H 1412.3 0.904381 4.05948 0
M  V30 15209 H 1410.88 -0.874788 3.62494 0
M  V30 15210 N 1413.06 -1.53996 0.335095 0
M  V30 15211 C 1414.31 -2.00375 -0.263475 0
M  V30 15212 C 1414.63 -1.22471 -1.51742 0
M  V30 15213 O 1413.9 -0.329604 -1.93107 0
M  V30 15214 H 1412.48 -0.740229 -0.100347 0
M  V30 15215 H 1415.14 -1.89531 0.454302 0
M  V30 15216 H 1414.24 -3.07874 -0.511834 0
M  V30 15217 O 1414.58 -0.203041 -1.60219 0
M  V30 15218 H 1415.27 0.38092 -1.89918 0
M  V30 END ATOM
M  V30 BEGIN BOND
M  V30 END BOND
M  V30 END CTAB
M  END
$$$$
