drugbank_target|Q51911 Peptostreptococcal albumin-binding protein (DB00788; DB03600)
 OpenBabel12092120453D

  0  0  0     0  0            999 V3000
M  V30 BEGIN CTAB
M  V30 COUNTS 6133 6178 0 0 0
M  V30 BEGIN ATOM
M  V30 1 H -0.908 1.98254 -0.117106 0
M  V30 2 N 0 1.576 0 0
M  V30 3 C 0.933 2.03868 1.02534 0
M  V30 4 C 1.911 0.928543 1.3348 0
M  V30 5 O 3.095 1.19667 1.45644 0
M  V30 6 C 0.222 2.43627 2.35294 0
M  V30 7 C -0.732 3.65373 2.2001 0
M  V30 8 S 0.101 5.13292 1.52614 0
M  V30 9 C 1.257 5.56322 2.86805 0
M  V30 10 H 1.49 2.90518 0.631377 0
M  V30 11 H -0.977 1.52953 0.210867 0
M  V30 12 H 0.981 2.67203 3.11629 0
M  V30 13 H -0.358 1.57376 2.7183 0
M  V30 14 H -1.165 3.90944 3.18086 0
M  V30 15 H -1.563 3.418 1.51819 0
M  V30 16 H 0.729 5.58782 3.83104 0
M  V30 17 H 1.672 6.56266 2.65933 0
M  V30 18 H 2.08 4.83886 2.90714 0
M  V30 19 N 1.4781 -0.272755 1.55222 0
M  V30 20 C 2.4251 -1.33716 1.88119 0
M  V30 21 C 3.3951 -1.49066 0.73271 0
M  V30 22 O 4.5801 -1.63469 0.984002 0
M  V30 23 C 1.7201 -2.69238 2.15882 0
M  V30 24 C 0.8331 -2.62108 3.43399 0
M  V30 25 C -0.0319 -3.89811 3.60861 0
M  V30 26 C -0.9929 -3.77193 4.8207 0
M  V30 27 N -1.8559 -4.9673 4.96189 0
M  V30 28 H 2.9841 -1.04962 2.78903 0
M  V30 29 H 0.5211 -0.507088 1.38083 0
M  V30 30 H 2.4791 -3.48089 2.29978 0
M  V30 31 H 1.1091 -2.96194 1.28331 0
M  V30 32 H 0.1611 -1.74967 3.37773 0
M  V30 33 H 1.4731 -2.48685 4.32386 0
M  V30 34 H 0.6271 -4.77103 3.74777 0
M  V30 35 H -0.6339 -4.06102 2.7006 0
M  V30 36 H -1.6289 -2.88284 4.68159 0
M  V30 37 H -0.4039 -3.62421 5.74307 0
M  V30 38 H -2.4579 -5.13431 4.08319 0
M  V30 39 H -2.5409 -4.85839 5.79221 0
M  V30 40 H -1.2729 -5.85594 5.1449 0
M  V30 41 N 2.9562 -1.48159 -0.537278 0
M  V30 42 C 3.8862 -1.65029 -1.6519 0
M  V30 43 C 4.8672 -0.499281 -1.62607 0
M  V30 44 O 6.0522 -0.730972 -1.79918 0
M  V30 45 C 3.1822 -1.68303 -3.03795 0
M  V30 46 C 2.1362 -2.8283 -3.21234 0
M  V30 47 C 1.4622 -2.71189 -4.60826 0
M  V30 48 C 2.7622 -4.24211 -3.04701 0
M  V30 49 H 4.4562 -2.58341 -1.51328 0
M  V30 50 H 2.0022 -1.24325 -0.726585 0
M  V30 51 H 3.9552 -1.78693 -3.81637 0
M  V30 52 H 2.6792 -0.715635 -3.18663 0
M  V30 53 H 1.3382 -2.71983 -2.45807 0
M  V30 54 H 0.9862 -1.72435 -4.7252 0
M  V30 55 H 0.6862 -3.48035 -4.7344 0
M  V30 56 H 2.2102 -2.83537 -5.40777 0
M  V30 57 H 3.6242 -4.3593 -3.72341 0
M  V30 58 H 2.0212 -5.01998 -3.28813 0
M  V30 59 H 3.0912 -4.41184 -2.01209 0
M  V30 60 N 4.4343 0.785586 -1.36625 0
M  V30 61 C 5.3823 1.91978 -1.31329 0
M  V30 62 C 6.3763 1.68162 -0.204416 0
M  V30 63 O 7.5823 1.76122 -0.371645 0
M  V30 64 H 3.9573 0.631087 -0.408942 0
M  V30 65 H 5.9283 1.93562 -2.27104 0
M  V30 66 C 4.6773 3.29055 -1.12329 0
M  V30 67 H 4.0003 3.4795 -1.96903 0
M  V30 68 H 5.4403 4.08756 -1.12671 0
M  V30 69 C 3.8993 3.36461 0.171861 0
M  V30 70 O 4.4293 3.84576 1.16035 0
M  V30 71 N 2.6353 2.89782 0.217846 0
M  V30 72 H 2.1823 2.50819 -0.587183 0
M  V30 73 H 2.1403 2.95119 1.08408 0
M  V30 74 N 5.9124 1.20967 1.01018 0
M  V30 75 C 6.8594 0.964281 2.09691 0
M  V30 76 C 7.8294 -0.107853 1.65749 0
M  V30 77 O 9.0144 0.0381987 1.90762 0
M  V30 78 C 6.1544 0.52943 3.41015 0
M  V30 79 C 5.2674 1.67043 3.98398 0
M  V30 80 C 4.4024 1.18525 5.17808 0
M  V30 81 C 3.4414 2.29892 5.67288 0
M  V30 82 N 2.5784 1.82546 6.77954 0
M  V30 83 H 7.4184 1.89463 2.30017 0
M  V30 84 H 4.9554 0.944289 1.1279 0
M  V30 85 H 6.9134 0.258588 4.16398 0
M  V30 86 H 5.5434 -0.363919 3.20742 0
M  V30 87 H 4.5954 2.05603 3.20049 0
M  V30 88 H 5.9074 2.50877 4.31117 0
M  V30 89 H 5.0614 0.870762 6.00419 0
M  V30 90 H 3.8004 0.316887 4.86669 0
M  V30 91 H 2.8054 2.6215 4.83278 0
M  V30 92 H 4.0304 3.17216 6.00459 0
M  V30 93 H 1.9764 0.980454 6.48632 0
M  V30 94 H 1.8934 2.59956 7.09901 0
M  V30 95 H 3.1614 1.54115 7.64113 0
M  V30 96 N 7.3905 -1.2043 1.01659 0
M  V30 97 C 8.3375 -2.23215 0.586822 0
M  V30 98 C 9.3075 -1.61382 -0.393085 0
M  V30 99 O 10.4925 -1.88544 -0.292525 0
M  V30 100 C 7.6325 -3.45032 -0.0687464 0
M  V30 101 C 6.7455 -4.21296 0.955724 0
M  V30 102 C 5.8805 -5.30507 0.271208 0
M  V30 103 C 4.9195 -5.98515 1.28244 0
M  V30 104 N 4.0565 -6.99316 0.62459 0
M  V30 105 H 8.8965 -2.59336 1.46796 0
M  V30 106 H 6.4335 -1.27431 0.734836 0
M  V30 107 H 8.3915 -4.1459 -0.465965 0
M  V30 108 H 7.0215 -3.09604 -0.913529 0
M  V30 109 H 6.0735 -3.50803 1.4711 0
M  V30 110 H 7.3855 -4.6803 1.72479 0
M  V30 111 H 6.5395 -6.06428 -0.18151 0
M  V30 112 H 5.2785 -4.8481 -0.530163 0
M  V30 113 H 4.2835 -5.21355 1.74554 0
M  V30 114 H 5.5085 -6.46298 2.08509 0
M  V30 115 H 3.4545 -6.55812 -0.156914 0
M  V30 116 H 3.3715 -7.44178 1.33172 0
M  V30 117 H 4.6395 -7.79255 0.195462 0
M  V30 118 N 8.8686 -0.792821 -1.36206 0
M  V30 119 C 9.7986 -0.207853 -2.32573 0
M  V30 120 C 10.7796 0.659055 -1.56813 0
M  V30 121 O 11.9646 0.592176 -1.84951 0
M  V30 122 C 9.0946 0.655449 -3.41059 0
M  V30 123 C 8.0486 -0.111842 -4.27854 0
M  V30 124 C 7.3746 0.872274 -5.27537 0
M  V30 125 C 8.6746 -1.30299 -5.05786 0
M  V30 126 H 10.3686 -1.01294 -2.81744 0
M  V30 127 H 7.9146 -0.48854 -1.3546 0
M  V30 128 H 9.8676 1.07464 -4.07467 0
M  V30 129 H 8.5916 1.49328 -2.90463 0
M  V30 130 H 7.2506 -0.512053 -3.63006 0
M  V30 131 H 6.8986 1.70523 -4.73214 0
M  V30 132 H 6.5986 0.363291 -5.86476 0
M  V30 133 H 8.1226 1.28996 -5.96818 0
M  V30 134 H 9.5366 -0.959379 -5.65216 0
M  V30 135 H 7.9336 -1.7455 -5.74154 0
M  V30 136 H 9.0036 -2.09663 -4.37229 0
M  V30 137 N 10.3467 1.47872 -0.545128 0
M  V30 138 C 11.2767 2.32661 0.197793 0
M  V30 139 C 12.2577 1.43041 0.920504 0
M  V30 140 O 13.4427 1.71912 0.90333 0
M  V30 141 C 10.5727 3.24569 1.23582 0
M  V30 142 C 9.5267 4.23333 0.630323 0
M  V30 143 C 8.8527 5.0448 1.77211 0
M  V30 144 C 10.1527 5.20704 -0.407974 0
M  V30 145 H 11.8467 2.95024 -0.510045 0
M  V30 146 H 9.3927 1.4187 -0.246731 0
M  V30 147 H 11.3457 3.8272 1.76362 0
M  V30 148 H 10.0697 2.60236 1.97344 0
M  V30 149 H 8.7287 3.6639 0.123922 0
M  V30 150 H 8.3767 4.36561 2.49847 0
M  V30 151 H 8.0767 5.71339 1.37281 0
M  V30 152 H 9.6007 5.65487 2.3034 0
M  V30 153 H 11.0147 5.7329 0.033305 0
M  V30 154 H 9.4117 5.95699 -0.725486 0
M  V30 155 H 10.4817 4.66917 -1.30828 0
M  V30 156 N 11.8248 0.280983 1.55075 0
M  V30 157 C 12.7578 -0.645439 2.18882 0
M  V30 158 C 13.7358 -1.14786 1.15165 0
M  V30 159 O 14.9198 -1.21975 1.43716 0
M  V30 160 C 12.0468 -1.88088 2.81674 0
M  V30 161 C 11.0928 -1.51343 3.98745 0
M  V30 162 S 11.9258 -0.586548 5.32278 0
M  V30 163 C 13.0818 -1.83024 5.98543 0
M  V30 164 H 13.3148 -0.1033 2.9712 0
M  V30 165 H 10.8478 0.0652099 1.54262 0
M  V30 166 H 12.8058 -2.58997 3.18482 0
M  V30 167 H 11.4668 -2.39417 2.03318 0
M  V30 168 H 10.6598 -2.43289 4.41392 0
M  V30 169 H 10.2618 -0.884477 3.63391 0
M  V30 170 H 12.5538 -2.77342 6.18133 0
M  V30 171 H 13.4968 -1.44668 6.93164 0
M  V30 172 H 13.9048 -1.99785 5.27964 0
M  V30 173 N 13.3029 -1.57598 0.00835791 0
M  V30 174 C 14.2659 -2.07884 -0.965242 0
M  V30 175 C 15.2659 -0.989825 -1.26725 0
M  V30 176 O 16.4559 -1.25218 -1.21104 0
M  V30 177 C 13.5879 -2.52731 -2.28779 0
M  V30 178 H 14.7809 -2.95178 -0.530112 0
M  V30 179 H 12.3339 -1.54458 -0.239283 0
M  V30 180 H 13.0689 -1.68705 -2.76964 0
M  V30 181 H 12.8539 -3.32272 -2.08177 0
M  V30 182 H 14.3439 -2.91933 -2.98605 0
M  V30 183 N 14.781 0.264519 -1.55364 0
M  V30 184 C 15.744 1.31046 -1.88042 0
M  V30 185 C 16.744 1.41943 -0.755569 0
M  V30 186 O 17.934 1.40947 -1.02369 0
M  V30 187 C 15.066 2.69067 -2.09323 0
M  V30 188 H 16.259 1.03297 -2.81549 0
M  V30 189 H 13.812 0.502989 -1.47986 0
M  V30 190 H 14.547 3.01982 -1.18226 0
M  V30 191 H 14.332 2.62542 -2.91229 0
M  V30 192 H 15.822 3.44623 -2.35848 0
M  V30 193 N 16.2591 1.48442 0.529413 0
M  V30 194 C 17.1891 1.65902 1.64313 0
M  V30 195 C 18.1701 0.507897 1.6234 0
M  V30 196 O 19.3551 0.740503 1.79528 0
M  V30 197 C 16.4851 1.69911 3.02898 0
M  V30 198 C 15.4391 2.8453 3.19729 0
M  V30 199 C 14.7651 2.73629 4.59381 0
M  V30 200 C 16.0651 4.25821 3.02447 0
M  V30 201 H 17.7591 2.5914 1.49955 0
M  V30 202 H 15.3051 1.24709 0.719982 0
M  V30 203 H 17.2581 1.80715 3.80684 0
M  V30 204 H 15.9821 0.732524 3.18279 0
M  V30 205 H 14.6411 2.73283 2.44361 0
M  V30 206 H 14.2891 1.74938 4.71599 0
M  V30 207 H 13.9891 3.50541 4.71588 0
M  V30 208 H 15.5131 2.86401 5.39265 0
M  V30 209 H 16.9271 4.37898 3.70024 0
M  V30 210 H 15.3241 5.03735 3.26146 0
M  V30 211 H 16.3941 4.42244 1.98867 0
M  V30 212 N 17.7372 -0.778329 1.37039 0
M  V30 213 C 18.7002 -1.87301 1.32102 0
M  V30 214 C 19.7002 -1.59198 0.226405 0
M  V30 215 O 20.8902 -1.67403 0.481861 0
M  V30 216 C 18.0222 -3.24309 1.05055 0
M  V30 217 H 19.2152 -1.93093 2.29467 0
M  V30 218 H 16.7682 -0.977358 1.21973 0
M  V30 219 H 17.5032 -3.24196 0.0819373 0
M  V30 220 H 17.2882 -3.46098 1.84279 0
M  V30 221 H 18.7782 -4.04382 1.04234 0
M  V30 222 N 19.2153 -1.21501 -1.00376 0
M  V30 223 C 20.4633 -1.03095 -1.73827 0
M  V30 224 C 20.7843 0.436341 -1.90055 0
M  V30 225 O 20.0543 1.31466 -1.45236 0
M  V30 226 H 18.6343 -0.378487 -0.644016 0
M  V30 227 H 21.2963 -1.52831 -1.20949 0
M  V30 228 H 20.3923 -1.49991 -2.73695 0
M  V30 229 N 20.6934 1.19889 -1.02296 0
M  V30 230 C 21.6564 2.21116 -0.603351 0
M  V30 231 C 22.6564 1.5738 0.329884 0
M  V30 232 O 23.8464 1.73802 0.117702 0
M  V30 233 C 20.9784 3.40696 0.117992 0
M  V30 234 H 22.1714 2.59754 -1.49893 0
M  V30 235 H 19.7244 1.33463 -0.813468 0
M  V30 236 H 20.4594 3.07569 1.0282 0
M  V30 237 H 20.2444 3.88188 -0.552511 0
M  V30 238 H 21.7344 4.15692 0.398696 0
M  V30 239 N 22.1715 0.800033 1.35784 0
M  V30 240 C 23.4205 0.37387 1.98205 0
M  V30 241 C 23.7335 -1.06302 1.64193 0
M  V30 242 O 24.9395 -1.59198 2.19928 0
M  V30 243 C 23.3955 0.617532 3.54562 0
M  V30 244 C 23.0035 2.06654 3.9749 0
M  V30 245 C 24.7475 0.256401 4.23725 0
M  V30 246 C 22.6545 2.2563 5.46667 0
M  V30 247 H 21.5845 0.136055 0.741623 0
M  V30 248 H 24.2355 0.983166 1.54939 0
M  V30 249 H 22.6175 -0.0616248 3.95952 0
M  V30 250 H 23.7915 2.78296 3.67271 0
M  V30 251 H 22.1065 2.38691 3.41197 0
M  V30 252 H 24.7035 0.376318 5.33374 0
M  V30 253 H 25.0465 -0.796692 4.08606 0
M  V30 254 H 25.5795 0.889214 3.87734 0
M  V30 255 H 22.3185 3.2936 5.66747 0
M  V30 256 H 21.8385 1.58504 5.78478 0
M  V30 257 H 23.5175 2.06861 6.1304 0
M  V30 258 N 23.6496 -1.47581 0.552962 0
M  V30 259 C 24.8956 -2.02782 0.0273648 0
M  V30 260 C 25.2286 -1.42687 -1.31734 0
M  V30 261 O 24.5036 -0.580897 -1.85623 0
M  V30 262 C 24.7866 -3.60031 -0.0702371 0
M  V30 263 C 24.6396 -4.30566 1.30126 0
M  V30 264 C 25.9586 -4.33028 -0.785771 0
M  V30 265 H 23.0776 -0.736912 0.0114185 0
M  V30 266 H 25.7196 -1.76056 0.714432 0
M  V30 267 H 23.8696 -3.82932 -0.655382 0
M  V30 268 H 25.5416 -4.19018 1.92929 0
M  V30 269 H 23.7846 -3.91086 1.87709 0
M  V30 270 H 24.4556 -5.39114 1.18573 0
M  V30 271 H 26.9316 -4.15095 -0.288982 0
M  V30 272 H 25.8076 -5.42695 -0.823013 0
M  V30 273 H 26.0686 -4.01945 -1.841 0
M  V30 274 N 25.1277 -0.289203 -1.54924 0
M  V30 275 C 26.3737 0.323998 -2.00195 0
M  V30 276 C 26.7067 1.54441 -1.17735 0
M  V30 277 O 25.9817 1.92875 -0.250878 0
M  V30 278 C 26.2647 0.692276 -3.53383 0
M  V30 279 C 26.1177 -0.536457 -4.46589 0
M  V30 280 C 27.4367 1.52335 -4.12895 0
M  V30 281 H 24.5557 0.116289 -0.727768 0
M  V30 282 H 27.1977 -0.398954 -1.85764 0
M  V30 283 H 25.3477 1.30822 -3.65811 0
M  V30 284 H 27.0197 -1.17499 -4.46085 0
M  V30 285 H 25.2627 -1.17192 -4.1767 0
M  V30 286 H 25.9337 -0.234806 -5.515 0
M  V30 287 H 28.4097 1.00302 -4.0383 0
M  V30 288 H 27.2857 1.74982 -5.20262 0
M  V30 289 H 27.5467 2.50886 -3.64018 0
M  V30 290 N 26.6058 1.57591 -0.0167156 0
M  V30 291 C 27.8538 1.90906 0.663285 0
M  V30 292 C 28.1748 0.892509 1.73376 0
M  V30 293 O 27.4448 -0.0677623 1.95783 0
M  V30 294 H 26.0248 0.704637 0.247983 0
M  V30 295 H 28.6868 1.94803 -0.0615909 0
M  V30 296 H 27.7828 2.9116 1.12393 0
M  V30 297 N 28.0839 -0.256276 1.55502 0
M  V30 298 C 29.3319 -0.983672 1.76545 0
M  V30 299 C 29.6529 -1.86206 0.578982 0
M  V30 300 O 28.9229 -1.91656 -0.405577 0
M  V30 301 H 27.5029 -0.366191 0.651086 0
M  V30 302 H 30.1649 -0.276479 1.92929 0
M  V30 303 H 29.2609 -1.61087 2.67315 0
M  V30 304 N 29.562 -1.4872 -0.521534 0
M  V30 305 C 30.81 -1.56857 -1.27437 0
M  V30 306 C 31.131 -0.247982 -1.93417 0
M  V30 307 O 30.401 0.731151 -1.81744 0
M  V30 308 H 28.981 -0.577885 -0.473347 0
M  V30 309 H 31.643 -1.85233 -0.606205 0
M  V30 310 H 30.739 -2.35402 -2.0492 0
M  V30 311 N 31.0401 0.771051 -1.3745 0
M  V30 312 C 32.2861 1.5319 -1.32894 0
M  V30 313 C 32.6191 1.94008 0.0862511 0
M  V30 314 O 31.8941 1.64124 1.04373 0
M  V30 315 C 32.1771 2.79648 -2.26868 0
M  V30 316 C 32.0301 2.45079 -3.77169 0
M  V30 317 C 33.3491 3.81583 -2.19277 0
M  V30 318 H 30.4681 0.555744 -0.484064 0
M  V30 319 H 33.1101 0.884492 -1.68157 0
M  V30 320 H 31.2601 3.34891 -1.96926 0
M  V30 321 H 32.9321 1.95745 -4.1771 0
M  V30 322 H 31.1751 1.77767 -3.95704 0
M  V30 323 H 31.8461 3.35478 -4.38359 0
M  V30 324 H 34.3221 3.35835 -2.45671 0
M  V30 325 H 33.1981 4.67787 -2.87171 0
M  V30 326 H 33.4591 4.25897 -1.18592 0
M  V30 327 N 32.5182 1.22032 0.997298 0
M  V30 328 C 33.4662 0.983634 2.10778 0
M  V30 329 C 34.4602 -0.0717564 1.69248 0
M  V30 330 O 35.6662 0.080304 1.79821 0
M  V30 331 H 32.0412 0.300877 0.689186 0
M  V30 332 H 34.0122 1.92606 2.27916 0
M  V30 333 C 32.7612 0.57326 3.42942 0
M  V30 334 H 32.0842 1.37702 3.75338 0
M  V30 335 H 33.5242 0.447031 4.21637 0
M  V30 336 C 31.9832 -0.7167 3.29188 0
M  V30 337 O 32.5132 -1.77027 3.60589 0
M  V30 338 N 30.7192 -0.686167 2.82383 0
M  V30 339 H 30.2662 0.171507 2.57028 0
M  V30 340 H 30.2242 -1.54955 2.73562 0
M  V30 341 N 33.9963 -1.19345 1.0293 0
M  V30 342 C 35.2243 -1.92997 0.745644 0
M  V30 343 C 35.6393 -1.75519 -0.695589 0
M  V30 344 O 34.9963 -1.07737 -1.47306 0
M  V30 345 C 35.0473 -3.44741 1.08792 0
M  V30 346 O 34.7683 -3.61658 2.47256 0
M  V30 347 C 36.2693 -4.35515 0.827129 0
M  V30 348 H 33.4893 -0.613042 0.272801 0
M  V30 349 H 36.0333 -1.51473 1.3739 0
M  V30 350 H 34.1883 -3.84097 0.504832 0
M  V30 351 H 34.6023 -4.55514 2.60015 0
M  V30 352 H 36.0763 -5.40589 1.11658 0
M  V30 353 H 36.5533 -4.38552 -0.238436 0
M  V30 354 H 37.1593 -4.01841 1.39297 0
M  V30 355 N 35.4744 -0.807222 -1.35358 0
M  V30 356 C 36.7214 -0.387888 -1.9875 0
M  V30 357 C 37.0494 1.04509 -1.64037 0
M  V30 358 O 36.3044 1.73986 -0.895946 0
M  V30 359 C 36.6034 -0.519036 -3.53611 0
M  V30 360 C 36.2694 -1.91542 -4.08194 0
M  V30 361 C 34.9314 -2.29745 -4.22813 0
M  V30 362 C 37.2834 -2.82896 -4.37744 0
M  V30 363 C 34.6114 -3.58668 -4.643 0
M  V30 364 C 36.9634 -4.11265 -4.8067 0
M  V30 365 C 35.6274 -4.49466 -4.93494 0
M  V30 366 H 34.8974 -0.141938 -0.727279 0
M  V30 367 H 37.5444 -1.02814 -1.6156 0
M  V30 368 H 35.8494 0.204658 -3.91265 0
M  V30 369 H 37.5464 -0.175345 -4.00616 0
M  V30 370 H 34.1364 -1.60862 -3.97268 0
M  V30 371 H 38.3204 -2.54629 -4.26002 0
M  V30 372 H 33.5764 -3.88113 -4.72418 0
M  V30 373 H 37.7504 -4.82153 -5.02496 0
M  V30 374 H 35.3774 -5.49418 -5.25399 0
M  V30 375 N 36.9525 1.47285 -0.560781 0
M  V30 376 C 37.9155 2.28535 0.174488 0
M  V30 377 C 38.9155 1.37153 0.839388 0
M  V30 378 O 40.1055 1.59748 0.694702 0
M  V30 379 C 37.2375 3.16934 1.25561 0
M  V30 380 H 38.4305 2.95012 -0.539262 0
M  V30 381 H 35.9835 1.53034 -0.317865 0
M  V30 382 H 36.7185 2.55157 2.00164 0
M  V30 383 H 36.5035 3.8419 0.783604 0
M  V30 384 H 37.9935 3.78143 1.77193 0
M  V30 385 N 38.4306 0.297415 1.54768 0
M  V30 386 C 39.3936 -0.567375 2.22066 0
M  V30 387 C 40.3936 -1.06409 1.20556 0
M  V30 388 O 41.5836 -0.960691 1.45315 0
M  V30 389 C 38.7156 -1.78517 2.90421 0
M  V30 390 H 39.9086 0.0205534 2.99893 0
M  V30 391 H 37.4616 0.0482163 1.56226 0
M  V30 392 H 38.1966 -2.41303 2.16664 0
M  V30 393 H 37.9816 -1.43669 3.64831 0
M  V30 394 H 39.4716 -2.39964 3.41771 0
M  V30 395 N 39.9087 -1.5758 0.0250728 0
M  V30 396 C 41.1857 -1.82917 -0.692873 0
M  V30 397 C 41.5657 -0.908137 -1.90568 0
M  V30 398 O 40.9137 0.0372298 -2.2847 0
M  V30 399 C 41.1237 -3.32034 -1.07492 0
M  V30 400 C 42.4717 -3.98406 -1.46826 0
M  V30 401 O 43.4957 -3.36505 -1.16801 0
M  V30 402 O 42.3547 -5.07497 -2.02754 0
M  V30 403 H 39.4487 -0.754079 -0.33955 0
M  V30 404 H 41.9947 -1.69619 0.0524456 0
M  V30 405 H 40.7667 -3.90728 -0.211552 0
M  V30 406 H 40.3897 -3.50424 -1.87854 0
M  V30 407 N 41.3868 0.248026 -1.55636 0
M  V30 408 C 42.2968 1.32859 -1.93354 0
M  V30 409 C 43.3128 1.52719 -0.833838 0
M  V30 410 O 44.4888 1.66363 -1.13513 0
M  V30 411 C 41.5538 2.66337 -2.21958 0
M  V30 412 C 40.6148 2.55008 -3.45354 0
M  V30 413 C 39.8478 3.82121 -3.72584 0
M  V30 414 O 40.0708 4.83951 -3.01907 0
M  V30 415 O 39.0048 3.80822 -4.6611 0
M  V30 416 H 42.8308 1.03862 -2.85388 0
M  V30 417 H 40.4158 0.448686 -1.42503 0
M  V30 418 H 42.2978 3.45216 -2.4167 0
M  V30 419 H 40.9728 2.95068 -1.33103 0
M  V30 420 H 39.8798 1.7442 -3.30951 0
M  V30 421 H 41.2128 2.31222 -4.34508 0
M  V30 422 N 42.8649 1.48995 0.513639 0
M  V30 423 C 44.2759 1.5119 1.09537 0
M  V30 424 C 44.6269 0.290906 1.94031 0
M  V30 425 O 43.7519 -0.60049 2.07902 0
M  V30 426 C 44.3469 2.73964 1.99322 0
M  V30 427 C 42.9059 2.78978 2.52682 0
M  V30 428 C 42.0529 2.44934 1.30009 0
M  V30 429 H 45.0039 1.55875 0.298125 0
M  V30 430 H 45.0249 2.53409 2.83838 0
M  V30 431 H 44.5369 3.62813 1.37799 0
M  V30 432 H 42.6379 1.94378 3.1788 0
M  V30 433 H 42.7509 3.8083 2.90698 0
M  V30 434 H 41.1149 1.9644 1.62122 0
M  V30 435 H 41.8979 3.36043 0.702131 0
M  V30 436 N 44.343 -0.763751 1.37857 0
M  V30 437 C 45.591 -1.51957 1.33243 0
M  V30 438 C 45.912 -1.94835 -0.0801709 0
M  V30 439 O 45.182 -1.66894 -1.02582 0
M  V30 440 H 43.762 -0.563626 0.49024 0
M  V30 441 H 46.424 -0.908504 1.7243 0
M  V30 442 H 45.52 -2.41523 1.97669 0
M  V30 443 N 45.8211 -1.22559 -0.990812 0
M  V30 444 C 46.7841 -0.998863 -2.0629 0
M  V30 445 C 47.7841 0.0354834 -1.60761 0
M  V30 446 O 48.9741 -0.203231 -1.7301 0
M  V30 447 C 46.1061 -0.509203 -3.37076 0
M  V30 448 H 47.2991 -1.95014 -2.27837 0
M  V30 449 H 44.8521 -1.04456 -1.16269 0
M  V30 450 H 45.5871 0.446335 -3.21214 0
M  V30 451 H 45.3721 -1.25547 -3.71457 0
M  V30 452 H 46.8621 -0.370888 -4.1595 0
M  V30 453 N 47.2992 1.18797 -1.03562 0
M  V30 454 C 48.5482 1.87978 -0.731235 0
M  V30 455 C 48.8612 1.80911 0.743671 0
M  V30 456 O 50.0672 2.45407 1.16137 0
M  V30 457 C 48.5232 3.3721 -1.25768 0
M  V30 458 C 48.1312 3.52818 -2.76085 0
M  V30 459 C 49.8752 4.11825 -1.0296 0
M  V30 460 C 47.7822 4.9598 -3.22114 0
M  V30 461 H 46.7122 0.704063 -0.269835 0
M  V30 462 H 49.3632 1.34266 -1.25079 0
M  V30 463 H 47.7452 3.90359 -0.666011 0
M  V30 464 H 48.9192 3.09965 -3.40966 0
M  V30 465 H 47.2342 2.91602 -2.97249 0
M  V30 466 H 49.8312 5.17411 -1.34869 0
M  V30 467 H 50.1742 4.16287 0.0333546 0
M  V30 468 H 50.7072 3.64833 -1.58562 0
M  V30 469 H 47.4462 4.96684 -4.27768 0
M  V30 470 H 46.9662 5.39569 -2.61965 0
M  V30 471 H 48.6452 5.6467 -3.15844 0
M  V30 472 N 48.7773 0.814389 1.34928 0
M  V30 473 C 49.7243 0.22822 2.29669 0
M  V30 474 C 50.6943 -0.642164 1.53184 0
M  V30 475 O 51.8793 -0.585605 1.81591 0
M  V30 476 C 49.0193 -0.61089 3.3965 0
M  V30 477 C 48.1323 0.280792 4.31086 0
M  V30 478 C 47.2673 -0.567067 5.28165 0
M  V30 479 C 46.3063 0.324531 6.11239 0
M  V30 480 N 45.4433 -0.483756 7.00431 0
M  V30 481 H 50.2833 1.04153 2.79206 0
M  V30 482 H 47.8203 0.525133 1.37407 0
M  V30 483 H 49.7783 -1.11263 4.0209 0
M  V30 484 H 48.4083 -1.38939 2.91369 0
M  V30 485 H 47.4603 0.900688 3.69583 0
M  V30 486 H 48.7723 0.966723 4.89342 0
M  V30 487 H 47.9263 -1.13363 5.96015 0
M  V30 488 H 46.6653 -1.28654 4.70425 0
M  V30 489 H 45.6703 0.903298 5.42329 0
M  V30 490 H 46.8953 1.04198 6.71059 0
M  V30 491 H 44.8413 -1.18706 6.45171 0
M  V30 492 H 44.7583 0.143965 7.55863 0
M  V30 493 H 46.0263 -1.03334 7.7262 0
M  V30 494 N 50.2554 -1.46986 0.568584 0
M  V30 495 C 51.5014 -2.02741 0.0488709 0
M  V30 496 C 51.8344 -1.44077 -1.30214 0
M  V30 497 O 51.1094 -0.600552 -1.84996 0
M  V30 498 C 51.3924 -3.60086 -0.032047 0
M  V30 499 C 51.2454 -4.29162 1.34686 0
M  V30 500 C 52.5644 -4.33838 -0.739798 0
M  V30 501 H 49.6834 -0.736749 0.0192338 0
M  V30 502 H 52.3254 -1.75289 0.733065 0
M  V30 503 H 50.4754 -3.83606 -0.61473 0
M  V30 504 H 52.1474 -4.16948 1.97362 0
M  V30 505 H 50.3904 -3.89073 1.91846 0
M  V30 506 H 51.0614 -5.37826 1.24285 0
M  V30 507 H 53.5374 -4.15378 -0.244939 0
M  V30 508 H 52.4134 -5.43537 -0.765406 0
M  V30 509 H 52.6744 -4.03875 -1.79827 0
M  V30 510 N 51.7335 -0.305618 -1.54608 0
M  V30 511 C 53.0105 0.355652 -1.92339 0
M  V30 512 C 53.3905 1.71324 -1.23335 0
M  V30 513 O 52.7385 2.25473 -0.370702 0
M  V30 514 C 52.9485 0.46572 -3.45879 0
M  V30 515 C 54.2965 0.734426 -4.182 0
M  V30 516 O 55.3205 0.54935 -3.51938 0
M  V30 517 O 54.1795 1.09024 -5.35515 0
M  V30 518 H 51.2735 0.199666 -0.802535 0
M  V30 519 H 53.8195 -0.354017 -1.65966 0
M  V30 520 H 52.5915 -0.488461 -3.88239 0
M  V30 521 H 52.2145 1.22367 -3.78301 0
M  V30 522 N 53.2116 1.57565 -0.0334293 0
M  V30 523 C 54.1586 2.10478 0.946981 0
M  V30 524 C 55.1286 1.00787 1.32027 0
M  V30 525 O 56.3136 1.28232 1.41284 0
M  V30 526 C 53.4536 2.63994 2.22263 0
M  V30 527 C 52.5666 3.87709 1.90541 0
M  V30 528 C 51.7016 4.29604 3.12433 0
M  V30 529 C 50.7406 5.46065 2.76549 0
M  V30 530 N 49.8776 5.83096 3.9108 0
M  V30 531 H 54.7176 2.93963 0.488846 0
M  V30 532 H 52.2546 1.45296 0.22969 0
M  V30 533 H 54.2126 2.93114 2.96884 0
M  V30 534 H 52.8426 1.83333 2.65685 0
M  V30 535 H 51.8946 3.65291 1.06144 0
M  V30 536 H 53.2066 4.72403 1.60116 0
M  V30 537 H 52.3606 4.60182 3.9537 0
M  V30 538 H 51.0996 3.43685 3.46023 0
M  V30 539 H 50.1046 5.15176 1.92026 0
M  V30 540 H 51.3296 6.33685 2.44171 0
M  V30 541 H 49.2756 5.00132 4.24504 0
M  V30 542 H 49.1926 6.6244 3.64293 0
M  V30 543 H 50.4606 6.18282 4.74708 0
M  V30 544 N 54.6897 -0.239769 1.55765 0
M  V30 545 C 55.6527 -1.28038 1.90103 0
M  V30 546 C 56.6527 -1.40723 0.778055 0
M  V30 547 O 57.8427 -1.39301 1.04599 0
M  V30 548 C 54.9747 -2.65702 2.13577 0
M  V30 549 H 56.1677 -0.988048 2.83157 0
M  V30 550 H 53.7207 -0.479382 1.48767 0
M  V30 551 H 54.4557 -3.00063 1.23015 0
M  V30 552 H 54.2407 -2.57875 2.95369 0
M  V30 553 H 55.7307 -3.40828 2.41301 0
M  V30 554 N 56.1678 -1.49265 -0.50573 0
M  V30 555 C 57.5788 -1.51769 -1.08734 0
M  V30 556 C 57.9298 -0.301192 -1.93874 0
M  V30 557 O 57.0548 0.589456 -2.08217 0
M  V30 558 C 57.6498 -2.75017 -1.97867 0
M  V30 559 C 56.2088 -2.80314 -2.51199 0
M  V30 560 C 55.3558 -2.4562 -1.28709 0
M  V30 561 H 58.3068 -1.56031 -0.289855 0
M  V30 562 H 58.3278 -2.5491 -2.82491 0
M  V30 563 H 57.8398 -3.63539 -1.35873 0
M  V30 564 H 55.9408 -1.96061 -3.16845 0
M  V30 565 H 56.0538 -3.82366 -2.88675 0
M  V30 566 H 54.4178 -1.97297 -1.61078 0
M  V30 567 H 55.2008 -3.36411 -0.6843 0
M  V30 568 N 57.6459 0.756429 -1.3826 0
M  V30 569 C 58.5559 1.9009 -1.37488 0
M  V30 570 C 59.5719 1.71855 -0.272366 0
M  V30 571 O 60.7479 1.94827 -0.510318 0
M  V30 572 C 57.8129 3.25421 -1.19592 0
M  V30 573 C 56.8739 3.56202 -2.39622 0
M  V30 574 C 56.1069 4.85075 -2.2257 0
M  V30 575 O 56.3299 5.57246 -1.21793 0
M  V30 576 O 55.2639 5.15269 -3.11098 0
M  V30 577 H 59.0899 1.93695 -2.33914 0
M  V30 578 H 56.6749 0.901313 -1.1915 0
M  V30 579 H 58.5569 4.06337 -1.11661 0
M  V30 580 H 57.2319 3.22634 -0.262486 0
M  V30 581 H 56.1389 2.75458 -2.53128 0
M  V30 582 H 57.4719 3.63747 -3.31586 0
M  V30 583 N 59.124 1.23083 0.984299 0
M  V30 584 C 60.087 1.00979 2.05757 0
M  V30 585 C 61.087 -0.0269573 1.60777 0
M  V30 586 O 62.277 0.212403 1.729 0
M  V30 587 C 59.409 0.527072 3.36801 0
M  V30 588 H 60.602 1.9622 2.26799 0
M  V30 589 H 58.155 1.05072 1.15714 0
M  V30 590 H 58.89 -0.429294 3.21446 0
M  V30 591 H 58.675 1.27515 3.70786 0
M  V30 592 H 60.165 0.392942 4.15747 0
M  V30 593 N 60.6021 -1.18246 1.0419 0
M  V30 594 C 62.0131 -1.69914 0.773698 0
M  V30 595 C 62.3641 -1.83085 -0.705297 0
M  V30 596 O 61.4891 -1.51123 -1.5489 0
M  V30 597 C 62.0841 -3.08619 1.39784 0
M  V30 598 C 60.6431 -3.57494 1.17792 0
M  V30 599 C 59.7901 -2.34013 1.48773 0
M  V30 600 H 62.7411 -1.02904 1.20816 0
M  V30 601 H 62.7621 -3.71958 0.801714 0
M  V30 602 H 62.2741 -2.99001 2.47426 0
M  V30 603 H 60.3751 -3.72406 0.120295 0
M  V30 604 H 60.4881 -4.40852 1.87581 0
M  V30 605 H 58.8521 -2.37986 0.907463 0
M  V30 606 H 59.6351 -2.27013 2.57527 0
M  V30 607 N 62.0802 -0.821533 -1.34494 0
M  V30 608 C 63.3052 -0.420873 -2.03085 0
M  V30 609 C 63.7302 0.964915 -1.61465 0
M  V30 610 O 63.0882 1.62763 -0.798607 0
M  V30 611 C 63.1362 -0.529414 -3.56693 0
M  V30 612 O 62.2402 0.451302 -4.09923 0
M  V30 613 H 61.5812 -0.173489 -0.640935 0
M  V30 614 H 64.1112 -1.11157 -1.71771 0
M  V30 615 H 64.1212 -0.404671 -4.05988 0
M  V30 616 H 62.7962 -1.54014 -3.86332 0
M  V30 617 H 61.3732 0.285558 -3.71805 0
M  V30 618 N 63.5583 1.46682 -0.576371 0
M  V30 619 C 64.4903 2.28341 0.198231 0
M  V30 620 C 65.5033 1.38141 0.861453 0
M  V30 621 O 66.6923 1.62797 0.732082 0
M  V30 622 C 63.7923 3.12986 1.29972 0
M  V30 623 C 62.9653 4.31271 0.729639 0
M  V30 624 C 62.0243 4.97363 1.71803 0
M  V30 625 O 61.0503 5.55156 1.25658 0
M  V30 626 N 62.2523 4.93796 3.05198 0
M  V30 627 H 65.0173 2.9546 -0.502324 0
M  V30 628 H 62.5783 1.56525 -0.413715 0
M  V30 629 H 64.5703 3.54066 1.96008 0
M  V30 630 H 63.1403 2.47984 1.90323 0
M  V30 631 H 62.3603 3.94052 -0.108012 0
M  V30 632 H 63.6483 5.07739 0.328438 0
M  V30 633 H 63.0463 4.48077 3.45317 0
M  V30 634 H 61.6033 5.38837 3.6674 0
M  V30 635 N 65.0364 0.313813 1.54444 0
M  V30 636 C 65.9464 -0.565714 2.27677 0
M  V30 637 C 66.9624 -1.13754 1.31666 0
M  V30 638 O 68.1384 -1.15959 1.64668 0
M  V30 639 C 65.2034 -1.71528 3.01296 0
M  V30 640 C 64.2644 -1.17624 4.12872 0
M  V30 641 C 63.4974 -2.27102 4.8297 0
M  V30 642 O 63.7204 -3.47256 4.52514 0
M  V30 643 O 62.6544 -1.9307 5.70094 0
M  V30 644 H 66.4804 0.0287296 3.03686 0
M  V30 645 H 64.0654 0.0798312 1.49187 0
M  V30 646 H 65.9474 -2.38476 3.4743 0
M  V30 647 H 64.6224 -2.29608 2.2817 0
M  V30 648 H 63.5294 -0.472124 3.71109 0
M  V30 649 H 64.8624 -0.640695 4.88012 0
M  V30 650 N 66.5145 -1.57545 0.0417849 0
M  V30 651 C 67.4445 -2.14009 -0.933929 0
M  V30 652 C 68.4255 -1.05938 -1.33083 0
M  V30 653 O 69.6105 -1.33833 -1.40721 0
M  V30 654 C 66.7405 -2.67747 -2.21199 0
M  V30 655 C 65.6945 -3.80718 -1.95544 0
M  V30 656 C 65.0205 -4.20935 -3.29724 0
M  V30 657 C 66.3205 -5.06258 -1.28452 0
M  V30 658 H 68.0145 -2.95788 -0.463645 0
M  V30 659 H 65.5605 -1.42285 -0.221573 0
M  V30 660 H 67.5135 -3.05886 -2.89848 0
M  V30 661 H 66.2375 -1.83147 -2.70416 0
M  V30 662 H 64.8965 -3.43037 -1.2931 0
M  V30 663 H 64.5445 -3.33298 -3.76724 0
M  V30 664 H 64.2445 -4.9707 -3.13361 0
M  V30 665 H 65.7685 -4.61666 -3.9962 0
M  V30 666 H 67.1825 -5.41903 -1.8712 0
M  V30 667 H 65.5795 -5.87475 -1.22445 0
M  V30 668 H 66.6495 -4.84207 -0.259219 0
M  V30 669 N 67.9926 0.231505 -1.5589 0
M  V30 670 C 68.9396 1.28682 -1.91598 0
M  V30 671 C 69.9096 1.47071 -0.771974 0
M  V30 672 O 71.0946 1.60802 -1.027 0
M  V30 673 C 68.2346 2.6342 -2.22944 0
M  V30 674 C 67.3476 2.52912 -3.50228 0
M  V30 675 C 66.4826 3.80106 -3.7107 0
M  V30 676 C 65.5216 3.64279 -4.91902 0
M  V30 677 N 64.6586 4.834 -5.09184 0
M  V30 678 H 69.4986 0.975305 -2.81588 0
M  V30 679 H 67.0356 0.470299 -1.39379 0
M  V30 680 H 68.9936 3.41869 -2.39126 0
M  V30 681 H 67.6236 2.92687 -1.36139 0
M  V30 682 H 66.6756 1.6595 -3.42294 0
M  V30 683 H 67.9876 2.37133 -4.38827 0
M  V30 684 H 67.1416 4.66999 -3.87295 0
M  V30 685 H 65.8806 3.98799 -2.80733 0
M  V30 686 H 64.8856 2.7577 -4.75637 0
M  V30 687 H 66.1106 3.47067 -5.83714 0
M  V30 688 H 64.0566 5.02425 -4.21788 0
M  V30 689 H 63.9736 4.70311 -5.91898 0
M  V30 690 H 65.2416 5.71747 -5.29835 0
M  V30 691 N 69.4707 1.49531 0.497807 0
M  V30 692 C 70.4007 1.6935 1.60757 0
M  V30 693 C 71.3817 0.542218 1.61227 0
M  V30 694 O 72.5667 0.778417 1.77917 0
M  V30 695 C 69.6967 1.76298 2.99226 0
M  V30 696 C 68.6507 2.91248 3.13622 0
M  V30 697 C 67.9767 2.83312 4.53474 0
M  V30 698 C 69.2767 4.3214 2.93346 0
M  V30 699 H 70.9707 2.62263 1.44425 0
M  V30 700 H 68.5167 1.26208 0.693367 0
M  V30 701 H 70.4697 1.88749 3.76765 0
M  V30 702 H 69.1937 0.799871 3.16654 0
M  V30 703 H 67.8527 2.78404 2.38509 0
M  V30 704 H 67.5007 1.84902 4.67782 0
M  V30 705 H 67.2007 3.60465 4.64046 0
M  V30 706 H 68.7247 2.97775 5.33069 0
M  V30 707 H 70.1387 4.45649 3.60652 0
M  V30 708 H 68.5357 5.1054 3.15387 0
M  V30 709 H 69.6057 4.46363 1.89441 0
M  V30 710 N 70.9488 -0.749086 1.3866 0
M  V30 711 C 72.1768 -1.53834 1.38358 0
M  V30 712 C 72.5918 -1.88783 -0.0255219 0
M  V30 713 O 71.9488 -1.53101 -0.993292 0
M  V30 714 C 71.9998 -2.83468 2.2434 0
M  V30 715 O 71.7208 -2.50008 3.5976 0
M  V30 716 C 73.2218 -3.7758 2.32267 0
M  V30 717 H 70.4418 -0.47585 0.473083 0
M  V30 718 H 72.9858 -0.926726 1.82297 0
M  V30 719 H 71.1408 -3.40995 1.83851 0
M  V30 720 H 71.5548 -3.33182 4.05081 0
M  V30 721 H 73.0288 -4.65478 2.96706 0
M  V30 722 H 73.5058 -4.18334 1.33765 0
M  V30 723 H 74.1118 -3.25976 2.73166 0
M  V30 724 N 72.4269 -1.23603 -0.977757 0
M  V30 725 C 73.3739 -1.01954 -2.07061 0
M  V30 726 C 74.3439 0.0638697 -1.65977 0
M  V30 727 O 75.5289 -0.0887624 -1.90593 0
M  V30 728 C 72.6689 -0.619658 -3.39491 0
M  V30 729 C 71.7819 -1.77547 -3.93829 0
M  V30 730 C 70.9169 -1.32212 -5.14484 0
M  V30 731 C 69.9559 -2.44852 -5.60994 0
M  V30 732 N 69.0929 -2.00456 -6.72876 0
M  V30 733 H 73.9329 -1.95495 -2.24913 0
M  V30 734 H 71.4699 -0.973861 -1.10247 0
M  V30 735 H 73.4279 -0.368898 -4.15566 0
M  V30 736 H 72.0579 0.278752 -3.21594 0
M  V30 737 H 71.1099 -2.14016 -3.14486 0
M  V30 738 H 72.4219 -2.62219 -4.24314 0
M  V30 739 H 71.5759 -1.02965 -5.97899 0
M  V30 740 H 70.3149 -0.445808 -4.85658 0
M  V30 741 H 69.3199 -2.74871 -4.76157 0
M  V30 742 H 70.5449 -3.33024 -5.91837 0
M  V30 743 H 68.4909 -1.15208 -6.45804 0
M  V30 744 H 68.4079 -2.78687 -7.02759 0
M  V30 745 H 69.6759 -1.7432 -7.59758 0
M  V30 746 N 73.905 1.17692 -1.04816 0
M  V30 747 C 74.815 2.25229 -0.65643 0
M  V30 748 C 75.831 1.71018 0.320761 0
M  V30 749 O 77.007 2.00649 0.173805 0
M  V30 750 C 74.072 3.46684 -0.0332629 0
M  V30 751 C 73.133 4.15997 -1.06042 0
M  V30 752 C 72.366 5.31654 -0.466893 0
M  V30 753 O 72.589 5.65777 0.724758 0
M  V30 754 O 71.523 5.89831 -1.1993 0
M  V30 755 H 75.349 2.61016 -1.55255 0
M  V30 756 H 72.934 1.24919 -0.81949 0
M  V30 757 H 74.816 4.20234 0.313256 0
M  V30 758 H 73.491 3.12703 0.836566 0
M  V30 759 H 72.398 3.44482 -1.45886 0
M  V30 760 H 73.731 4.53996 -1.90127 0
M  V30 761 N 75.3831 0.828654 1.34056 0
M  V30 762 C 76.2931 0.256725 2.33191 0
M  V30 763 C 77.3091 -0.611898 1.62886 0
M  V30 764 O 78.4851 -0.51844 1.94613 0
M  V30 765 C 75.5501 -0.567238 3.42028 0
M  V30 766 C 74.6111 0.324458 4.28072 0
M  V30 767 C 73.8441 -0.460274 5.31712 0
M  V30 768 O 74.0671 -1.693 5.44696 0
M  V30 769 O 73.0011 0.160391 6.01686 0
M  V30 770 H 76.8271 1.07739 2.83947 0
M  V30 771 H 74.4121 0.59093 1.37217 0
M  V30 772 H 76.2941 -1.03582 4.08471 0
M  V30 773 H 74.9691 -1.36513 2.93506 0
M  V30 774 H 73.8761 0.840659 3.64532 0
M  V30 775 H 75.2091 1.08685 4.8005 0
M  V30 776 N 76.8612 -1.46375 0.584142 0
M  V30 777 C 77.8242 -2.28784 -0.138108 0
M  V30 778 C 78.8242 -1.38471 -0.817462 0
M  V30 779 O 80.0142 -1.60833 -0.669199 0
M  V30 780 C 77.1462 -3.18892 -1.20503 0
M  V30 781 H 78.3392 -2.94117 0.586127 0
M  V30 782 H 75.8922 -1.52509 0.342171 0
M  V30 783 H 76.6272 -2.58309 -1.96079 0
M  V30 784 H 76.4122 -3.85388 -0.722384 0
M  V30 785 H 77.9022 -3.80914 -1.71155 0
M  V30 786 N 78.3393 -0.321999 -1.54275 0
M  V30 787 C 79.2493 0.553631 -2.27974 0
M  V30 788 C 80.2653 1.13054 -1.32268 0
M  V30 789 O 81.4413 1.15084 -1.6528 0
M  V30 790 C 78.5063 1.69927 -3.02201 0
M  V30 791 C 77.5673 1.15433 -4.1349 0
M  V30 792 C 76.8003 2.24537 -4.84168 0
M  V30 793 O 77.0233 3.44852 -4.5435 0
M  V30 794 O 75.9573 1.90044 -5.7111 0
M  V30 795 H 79.7833 -0.0448345 -3.03667 0
M  V30 796 H 77.3683 -0.0877418 -1.49142 0
M  V30 797 H 79.2503 2.3663 -3.48689 0
M  V30 798 H 77.9253 2.28395 -2.29385 0
M  V30 799 H 76.8323 0.452436 -3.71354 0
M  V30 800 H 78.1653 0.614805 -4.88345 0
M  V30 801 N 79.8174 1.5752 -0.0501392 0
M  V30 802 C 80.7644 2.1147 0.924603 0
M  V30 803 C 81.7344 1.02182 1.30951 0
M  V30 804 O 82.9194 1.29723 1.39916 0
M  V30 805 C 80.0594 2.66337 2.19451 0
M  V30 806 C 79.1724 3.89708 1.86418 0
M  V30 807 C 78.3074 4.32893 3.07859 0
M  V30 808 C 77.3464 5.48967 2.70742 0
M  V30 809 N 76.4834 5.87211 3.84874 0
M  V30 810 H 81.3234 2.94465 0.457639 0
M  V30 811 H 78.8604 1.45531 0.214266 0
M  V30 812 H 80.8184 2.96247 2.93758 0
M  V30 813 H 79.4484 1.86141 2.63726 0
M  V30 814 H 78.5004 3.66396 1.02264 0
M  V30 815 H 79.8124 4.74074 1.55096 0
M  V30 816 H 78.9664 4.6435 3.90466 0
M  V30 817 H 77.7054 3.47336 3.42358 0
M  V30 818 H 76.7104 5.17183 1.86551 0
M  V30 819 H 77.9354 6.3624 2.37436 0
M  V30 820 H 75.8814 5.04607 4.19175 0
M  V30 821 H 75.7984 6.66266 3.57247 0
M  V30 822 H 77.0664 6.23282 4.68123 0
M  V30 823 N 81.2955 -0.223234 1.56011 0
M  V30 824 C 82.2585 -1.26014 1.9145 0
M  V30 825 C 83.2585 -1.3989 0.792937 0
M  V30 826 O 84.4485 -1.38184 1.0607 0
M  V30 827 C 81.5805 -2.63422 2.16383 0
M  V30 828 H 82.7735 -0.95796 2.84189 0
M  V30 829 H 80.3265 -0.463576 1.49267 0
M  V30 830 H 81.0615 -2.98741 1.2619 0
M  V30 831 H 80.8465 -2.54728 2.98088 0
M  V30 832 H 82.3365 -3.38249 2.44903 0
M  V30 833 N 82.7736 -1.49793 -0.48987 0
M  V30 834 C 83.7036 -1.70201 -1.59856 0
M  V30 835 C 84.6846 -0.55076 -1.60937 0
M  V30 836 O 85.8696 -0.787841 -1.77501 0
M  V30 837 C 82.9996 -1.77882 -2.98287 0
M  V30 838 C 81.9536 -2.92907 -3.12073 0
M  V30 839 C 81.2796 -2.85712 -4.51965 0
M  V30 840 C 82.5796 -4.3369 -2.91051 0
M  V30 841 H 84.2736 -2.63025 -1.43032 0
M  V30 842 H 81.8196 -1.26574 -0.686664 0
M  V30 843 H 83.7726 -1.90744 -3.75759 0
M  V30 844 H 82.4966 -0.816653 -3.16225 0
M  V30 845 H 81.1556 -2.79665 -2.37029 0
M  V30 846 H 80.8036 -1.8738 -4.66795 0
M  V30 847 H 80.5036 -3.62921 -4.62128 0
M  V30 848 H 82.0276 -3.00598 -5.31482 0
M  V30 849 H 83.4416 -4.47555 -3.58284 0
M  V30 850 H 81.8386 -5.12205 -3.12675 0
M  V30 851 H 82.9086 -4.47362 -1.87071 0
M  V30 852 N 84.2517 0.741722 -1.39055 0
M  V30 853 C 85.1987 1.85566 -1.37237 0
M  V30 854 C 86.1687 1.64457 -0.233072 0
M  V30 855 O 87.3537 1.85957 -0.427147 0
M  V30 856 C 84.4937 3.23004 -1.215 0
M  V30 857 C 83.6067 3.55864 -2.44918 0
M  V30 858 C 82.7417 4.82669 -2.21821 0
M  V30 859 C 81.7807 5.08351 -3.40948 0
M  V30 860 N 80.9177 6.26356 -3.17211 0
M  V30 861 H 85.7577 1.86455 -2.32462 0
M  V30 862 H 83.2947 0.911176 -1.15482 0
M  V30 863 H 85.2527 4.02331 -1.10389 0
M  V30 864 H 83.8827 3.21411 -0.29908 0
M  V30 865 H 82.9347 2.7129 -2.66657 0
M  V30 866 H 84.2467 3.70765 -3.33668 0
M  V30 867 H 83.4007 5.69962 -2.07914 0
M  V30 868 H 82.1397 4.69929 -1.30454 0
M  V30 869 H 81.1447 4.19522 -3.55361 0
M  V30 870 H 82.3697 5.22981 -4.33207 0
M  V30 871 H 80.3157 6.14917 -2.28502 0
M  V30 872 H 80.2327 6.41813 -3.99515 0
M  V30 873 H 81.5007 7.16506 -3.06984 0
M  V30 874 N 85.7298 1.2412 0.971189 0
M  V30 875 C 86.6768 1.0305 2.06517 0
M  V30 876 C 87.6468 -0.0550666 1.66009 0
M  V30 877 O 88.8318 0.0988688 1.90544 0
M  V30 878 C 85.9718 0.637653 3.39158 0
M  V30 879 C 85.0848 1.79633 3.92882 0
M  V30 880 C 84.2198 1.34939 5.13775 0
M  V30 881 C 83.2588 2.47823 5.59687 0
M  V30 882 N 82.3958 2.04022 6.71803 0
M  V30 883 H 87.2358 1.96685 2.23873 0
M  V30 884 H 84.7728 0.979694 1.09729 0
M  V30 885 H 86.7308 0.390931 4.15364 0
M  V30 886 H 85.3608 -0.261693 3.21737 0
M  V30 887 H 84.4128 2.15681 3.13346 0
M  V30 888 H 85.7248 2.64466 4.22918 0
M  V30 889 H 84.8788 1.06134 5.97345 0
M  V30 890 H 83.6178 0.471557 4.85415 0
M  V30 891 H 82.6228 2.77392 4.74693 0
M  V30 892 H 83.8478 3.36158 5.90063 0
M  V30 893 H 81.7938 1.18632 6.45184 0
M  V30 894 H 81.7108 2.82409 7.01271 0
M  V30 895 H 82.9788 1.78347 7.58823 0
M  V30 896 N 87.2079 -1.17134 1.05439 0
M  V30 897 C 88.1179 -2.24878 0.668365 0
M  V30 898 C 89.1339 -1.71186 -0.311687 0
M  V30 899 O 90.3099 -2.00738 -0.163161 0
M  V30 900 C 87.3749 -3.46662 0.051648 0
M  V30 901 C 86.4359 -4.15429 1.08246 0
M  V30 902 C 85.6689 -5.31399 0.495082 0
M  V30 903 O 85.8919 -5.66153 -0.694743 0
M  V30 904 O 84.8259 -5.89187 1.23056 0
M  V30 905 H 88.6519 -2.60189 1.56637 0
M  V30 906 H 86.2369 -1.24482 0.826104 0
M  V30 907 H 88.1189 -4.20394 -0.290966 0
M  V30 908 H 86.7939 -3.13142 -0.819971 0
M  V30 909 H 85.7009 -3.43704 1.47711 0
M  V30 910 H 87.0339 -4.52982 1.92532 0
M  V30 911 N 88.686 -0.835752 -1.33615 0
M  V30 912 C 89.633 -0.26473 -2.29277 0
M  V30 913 C 90.603 0.617712 -1.54187 0
M  V30 914 O 91.788 0.556641 -1.825 0
M  V30 915 C 88.928 0.556777 -3.40579 0
M  V30 916 C 88.041 -0.349339 -4.30585 0
M  V30 917 C 87.176 0.482969 -5.29 0
M  V30 918 C 86.215 -0.421732 -6.10645 0
M  V30 919 N 85.352 0.372262 -7.01112 0
M  V30 920 H 90.192 -1.08582 -2.77514 0
M  V30 921 H 87.729 -0.546927 -1.36554 0
M  V30 922 H 89.687 1.04852 -4.03809 0
M  V30 923 H 88.317 1.34286 -2.93542 0
M  V30 924 H 87.369 -0.959372 -3.68104 0
M  V30 925 H 88.681 -1.04445 -4.87742 0
M  V30 926 H 87.835 1.03866 -5.97743 0
M  V30 927 H 86.574 1.21153 -4.72412 0
M  V30 928 H 85.579 -0.989464 -5.40823 0
M  V30 929 H 86.804 -1.14861 -6.69316 0
M  V30 930 H 84.75 1.08426 -6.46977 0
M  V30 931 H 84.667 -0.264198 -7.55538 0
M  V30 932 H 85.935 0.910293 -7.74167 0
M  V30 933 N 90.1641 1.46063 -0.591896 0
M  V30 934 C 91.5751 1.85944 -0.167822 0
M  V30 935 C 91.9261 1.49429 1.27143 0
M  V30 936 O 91.0511 0.913515 1.96173 0
M  V30 937 C 91.6461 3.37489 -0.297794 0
M  V30 938 C 90.2051 3.76332 0.0714732 0
M  V30 939 C 89.3521 2.7006 -0.629509 0
M  V30 940 H 92.3031 1.37087 -0.799555 0
M  V30 941 H 92.3241 3.77532 0.474349 0
M  V30 942 H 91.8361 3.64034 -1.3454 0
M  V30 943 H 89.9371 3.55405 1.11886 0
M  V30 944 H 90.0501 4.78088 -0.311245 0
M  V30 945 H 88.4141 2.54607 -0.0687867 0
M  V30 946 H 89.1971 2.99444 -1.67894 0
M  V30 947 N 91.6422 0.330177 1.54103 0
M  V30 948 C 92.8912 -0.271336 1.99867 0
M  V30 949 C 93.2042 -1.52723 1.22209 0
M  V30 950 O 94.4102 -2.20515 1.58383 0
M  V30 951 C 92.8662 -0.534032 3.55916 0
M  V30 952 C 92.4742 0.705193 4.42415 0
M  V30 953 C 94.2182 -1.09514 4.1013 0
M  V30 954 C 92.1252 0.414035 5.89949 0
M  V30 955 H 91.0552 -0.105166 0.74663 0
M  V30 956 H 93.7062 0.443429 1.78062 0
M  V30 957 H 92.0882 -1.30915 3.73734 0
M  V30 958 H 93.2622 1.4804 4.36372 0
M  V30 959 H 91.5772 1.18698 3.99124 0
M  V30 960 H 94.1742 -1.3277 5.17954 0
M  V30 961 H 94.5172 -2.04656 3.62521 0
M  V30 962 H 95.0502 -0.381038 3.95971 0
M  V30 963 H 91.7892 1.33481 6.41766 0
M  V30 964 H 91.3092 -0.323336 5.98928 0
M  V30 965 H 92.9882 0.0263105 6.46995 0
M  V30 966 N 93.1203 -1.57491 0.0584922 0
M  V30 967 C 94.0833 -2.1085 -0.898617 0
M  V30 968 C 95.0833 -1.02964 -1.23511 0
M  V30 969 O 96.2733 -1.29007 -1.17059 0
M  V30 970 C 93.4053 -2.59881 -2.20623 0
M  V30 971 H 94.5983 -2.96715 -0.435936 0
M  V30 972 H 92.1513 -1.55141 -0.190023 0
M  V30 973 H 92.8863 -1.77431 -2.71457 0
M  V30 974 H 92.6713 -3.38727 -1.97501 0
M  V30 975 H 94.1613 -3.01285 -2.89166 0
M  V30 976 N 94.5984 0.214957 -1.56127 0
M  V30 977 C 95.5454 1.26642 -1.92952 0
M  V30 978 C 96.5154 1.46244 -0.78753 0
M  V30 979 O 97.7004 1.59704 -1.04399 0
M  V30 980 C 94.8404 2.6104 -2.25726 0
M  V30 981 C 93.9534 2.49183 -3.52891 0
M  V30 982 C 93.0884 3.76149 -3.7508 0
M  V30 983 C 92.1274 3.59041 -4.95738 0
M  V30 984 N 91.2644 4.77972 -5.14283 0
M  V30 985 H 96.1044 0.945384 -2.82607 0
M  V30 986 H 93.6414 0.455489 -1.3987 0
M  V30 987 H 95.5994 3.39313 -2.42739 0
M  V30 988 H 94.2294 2.91227 -1.39236 0
M  V30 989 H 93.2814 1.6231 -3.44034 0
M  V30 990 H 94.5934 2.32466 -4.41318 0
M  V30 991 H 93.7474 4.62865 -3.92226 0
M  V30 992 H 92.4864 3.95799 -2.84947 0
M  V30 993 H 91.4914 2.7071 -4.78535 0
M  V30 994 H 92.7164 3.40856 -5.87362 0
M  V30 995 H 90.6624 4.97923 -4.27093 0
M  V30 996 H 90.5794 4.64006 -5.96853 0
M  V30 997 H 91.8474 5.66096 -5.35869 0
M  V30 998 N 96.0765 1.50051 0.48192 0
M  V30 999 C 96.9865 1.7089 1.60728 0
M  V30 1000 C 98.0025 0.591788 1.63627 0
M  V30 1001 O 99.1785 0.868817 1.81696 0
M  V30 1002 C 96.2435 1.78855 2.97005 0
M  V30 1003 C 95.3045 3.02537 3.04581 0
M  V30 1004 C 94.5375 3.10112 4.34357 0
M  V30 1005 O 94.7605 2.24765 5.24249 0
M  V30 1006 O 93.6945 4.02747 4.47301 0
M  V30 1007 H 97.5205 2.66264 1.46072 0
M  V30 1008 H 95.1055 1.34018 0.660264 0
M  V30 1009 H 96.9875 1.86336 3.77964 0
M  V30 1010 H 95.6625 0.866628 3.11883 0
M  V30 1011 H 94.5695 3.00563 2.22739 0
M  V30 1012 H 95.9025 3.94272 2.94636 0
M  V30 1013 N 97.5546 -0.734337 1.39446 0
M  V30 1014 C 98.9706 -1.03997 1.21065 0
M  V30 1015 C 99.1706 -2.01369 0.0727019 0
M  V30 1016 O 98.2266 -2.45856 -0.575426 0
M  V30 1017 C 99.5396 -1.60163 2.54496 0
M  V30 1018 C 101.088 -1.7224 2.61347 0
M  V30 1019 C 101.563 -2.31814 3.95002 0
M  V30 1020 N 103.054 -2.39223 3.96644 0
M  V30 1021 C 103.789 -2.86258 4.96834 0
M  V30 1022 N 103.285 -3.33184 6.07421 0
M  V30 1023 N 105.078 -2.85473 4.84213 0
M  V30 1024 H 97.2286 -0.0885624 2.12215 0
M  V30 1025 H 99.4916 -0.10191 0.942506 0
M  V30 1026 H 99.1976 -0.960811 3.38321 0
M  V30 1027 H 99.0716 -2.5896 2.74262 0
M  V30 1028 H 101.459 -2.35443 1.77906 0
M  V30 1029 H 101.54 -0.720939 2.4543 0
M  V30 1030 H 101.184 -1.69238 4.78875 0
M  V30 1031 H 101.114 -3.32638 4.08239 0
M  V30 1032 H 103.605 -2.06057 3.16779 0
M  V30 1033 H 103.918 -3.67586 6.7978 0
M  V30 1034 H 102.263 -3.31191 6.11013 0
M  V30 1035 H 105.454 -2.48136 3.96921 0
M  V30 1036 H 105.627 -3.21814 5.62441 0
M  V30 1037 N 99.0327 -1.24633 -0.964593 0
M  V30 1038 C 99.9627 -1.06611 -2.07741 0
M  V30 1039 C 100.944 0.0218666 -1.70086 0
M  V30 1040 O 102.129 -0.145793 -1.93652 0
M  V30 1041 C 99.2587 -0.673444 -3.40708 0
M  V30 1042 C 98.2127 -1.71054 -3.92332 0
M  V30 1043 C 97.5387 -1.17285 -5.21678 0
M  V30 1044 C 98.8387 -3.10718 -4.19824 0
M  V30 1045 H 100.533 -1.99693 -2.23076 0
M  V30 1046 H 98.0787 -0.96152 -1.07195 0
M  V30 1047 H 100.032 -0.534345 -4.17998 0
M  V30 1048 H 98.7557 0.293073 -3.25282 0
M  V30 1049 H 97.4147 -1.83791 -3.17201 0
M  V30 1050 H 97.0627 -0.196847 -5.02615 0
M  V30 1051 H 96.7627 -1.86592 -5.57187 0
M  V30 1052 H 98.2867 -1.04593 -6.01575 0
M  V30 1053 H 99.7007 -3.01192 -4.87808 0
M  V30 1054 H 98.0977 -3.77406 -4.66567 0
M  V30 1055 H 99.1677 -3.58524 -3.26479 0
M  V30 1056 N 100.511 1.16574 -1.06058 0
M  V30 1057 C 101.927 1.3904 -0.783585 0
M  V30 1058 C 102.127 1.91784 0.618145 0
M  V30 1059 O 101.183 2.11511 1.37911 0
M  V30 1060 C 102.496 2.37329 -1.84649 0
M  V30 1061 C 104.044 2.51018 -1.86973 0
M  V30 1062 C 104.519 3.52588 -2.92311 0
M  V30 1063 N 106.01 3.60113 -2.91329 0
M  V30 1064 C 106.745 4.38486 -3.69482 0
M  V30 1065 N 106.241 5.20302 -4.57447 0
M  V30 1066 N 108.034 4.33446 -3.57885 0
M  V30 1067 H 100.185 0.806725 -1.96483 0
M  V30 1068 H 102.448 0.417117 -0.851303 0
M  V30 1069 H 102.154 2.05663 -2.85299 0
M  V30 1070 H 102.028 3.36946 -1.6955 0
M  V30 1071 H 104.415 2.81989 -0.869827 0
M  V30 1072 H 104.496 1.51445 -2.0615 0
M  V30 1073 H 104.14 3.22354 -3.92492 0
M  V30 1074 H 104.07 4.51886 -2.70383 0
M  V30 1075 H 106.561 3.01707 -2.27555 0
M  V30 1076 H 106.874 5.77311 -5.13743 0
M  V30 1077 H 105.219 5.19653 -4.61503 0
M  V30 1078 H 108.41 3.68586 -2.88551 0
M  V30 1079 H 108.583 4.94279 -4.19037 0
M  V30 1080 N 101.989 0.842826 1.3317 0
M  V30 1081 C 103.405 0.531128 1.50503 0
M  V30 1082 C 103.605 -0.940734 1.78192 0
M  V30 1083 O 102.661 -1.72436 1.84451 0
M  V30 1084 C 103.974 1.40789 2.65705 0
M  V30 1085 C 105.522 1.40708 2.79589 0
M  V30 1086 C 105.997 2.26878 3.97857 0
M  V30 1087 N 107.488 2.24609 4.05099 0
M  V30 1088 C 108.223 2.88019 4.95815 0
M  V30 1089 N 107.719 3.60496 5.9162 0
M  V30 1090 N 109.512 2.77469 4.88843 0
M  V30 1091 H 101.663 1.79557 1.1346 0
M  V30 1092 H 103.926 0.766267 0.558156 0
M  V30 1093 H 103.632 2.454 2.51936 0
M  V30 1094 H 103.506 1.08677 3.61205 0
M  V30 1095 H 105.893 0.368668 2.92788 0
M  V30 1096 H 105.974 1.76829 1.84838 0
M  V30 1097 H 105.618 3.3078 3.85418 0
M  V30 1098 H 105.548 1.88096 4.91861 0
M  V30 1099 H 108.039 1.71906 3.36536 0
M  V30 1100 H 108.352 4.06076 6.57512 0
M  V30 1101 H 106.697 3.64604 5.91683 0
M  V30 1102 H 109.888 2.20406 4.12963 0
M  V30 1103 H 110.061 3.2717 5.59342 0
M  V30 1104 N 103.467 -1.45747 0.599634 0
M  V30 1105 C 104.397 -2.33235 -0.111306 0
M  V30 1106 C 105.378 -1.46359 -0.866781 0
M  V30 1107 O 106.563 -1.75146 -0.838904 0
M  V30 1108 C 103.693 -3.28932 -1.11451 0
M  V30 1109 C 102.647 -4.25381 -0.472772 0
M  V30 1110 C 101.973 -5.1071 -1.58365 0
M  V30 1111 C 103.273 -5.18831 0.600948 0
M  V30 1112 H 104.967 -2.92927 0.61919 0
M  V30 1113 H 102.513 -1.40857 0.299215 0
M  V30 1114 H 104.466 -3.89002 -1.62036 0
M  V30 1115 H 103.19 -2.67381 -1.8755 0
M  V30 1116 H 101.849 -3.66598 0.0121472 0
M  V30 1117 H 101.497 -4.45533 -2.33473 0
M  V30 1118 H 101.197 -5.7604 -1.15982 0
M  V30 1119 H 102.721 -5.73647 -2.09194 0
M  V30 1120 H 104.135 -5.73019 0.179491 0
M  V30 1121 H 102.532 -5.92595 0.946076 0
M  V30 1122 H 103.602 -4.6174 1.48068 0
M  V30 1123 N 104.945 -0.338344 -1.53925 0
M  V30 1124 C 106.193 0.259245 -2.0043 0
M  V30 1125 C 106.514 1.51484 -1.22791 0
M  V30 1126 O 105.784 1.93037 -0.33368 0
M  V30 1127 H 104.364 0.0987845 -0.740439 0
M  V30 1128 H 107.026 -0.458302 -1.89435 0
M  V30 1129 H 106.122 0.505334 -3.07982 0
M  V30 1130 N 106.423 1.57458 -0.0668435 0
M  V30 1131 C 107.672 1.92477 0.602947 0
M  V30 1132 C 107.985 0.948419 1.71068 0
M  V30 1133 O 109.191 1.19124 2.43971 0
M  V30 1134 C 107.647 3.41903 1.12383 0
M  V30 1135 C 107.255 4.47975 0.04737 0
M  V30 1136 C 108.999 3.85931 1.76797 0
M  V30 1137 C 106.906 5.88529 0.582022 0
M  V30 1138 H 105.836 0.718387 0.22899 0
M  V30 1139 H 108.487 1.82978 -0.138276 0
M  V30 1140 H 106.869 3.46459 1.91787 0
M  V30 1141 H 108.043 4.55029 -0.726978 0
M  V30 1142 H 106.358 4.13384 -0.500243 0
M  V30 1143 H 108.955 4.88322 2.17821 0
M  V30 1144 H 109.298 3.23029 2.62599 0
M  V30 1145 H 109.831 3.83958 1.04024 0
M  V30 1146 H 106.57 6.55065 -0.238721 0
M  V30 1147 H 106.09 5.85004 1.324 0
M  V30 1148 H 107.769 6.38258 1.05999 0
M  V30 1149 N 107.901 -0.206675 1.56239 0
M  V30 1150 C 109.129 -0.945345 1.8404 0
M  V30 1151 C 109.544 -1.77336 0.647885 0
M  V30 1152 O 108.901 -1.78425 -0.383511 0
M  V30 1153 C 108.952 -1.8509 3.10522 0
M  V30 1154 O 108.673 -1.05634 4.25174 0
M  V30 1155 C 110.174 -2.70222 3.51418 0
M  V30 1156 H 107.394 -0.276372 0.61144 0
M  V30 1157 H 109.938 -0.217417 2.03341 0
M  V30 1158 H 108.093 -2.53259 2.93153 0
M  V30 1159 H 108.507 -1.67238 4.97124 0
M  V30 1160 H 109.981 -3.29438 4.42916 0
M  V30 1161 H 110.458 -3.43358 2.73864 0
M  V30 1162 H 111.064 -2.07443 3.71278 0
M  V30 1163 N 109.379 -1.50304 -0.473955 0
M  V30 1164 C 110.604 -1.65175 -1.25427 0
M  V30 1165 C 111.029 -0.333673 -1.85117 0
M  V30 1166 O 110.387 0.702114 -1.67153 0
M  V30 1167 C 110.435 -2.74295 -2.34082 0
M  V30 1168 O 109.539 -2.35349 -3.38651 0
M  V30 1169 H 108.88 -0.551944 -0.369126 0
M  V30 1170 H 111.41 -1.96662 -0.564364 0
M  V30 1171 H 111.42 -2.97285 -2.79438 0
M  V30 1172 H 110.095 -3.69959 -1.90008 0
M  V30 1173 H 108.672 -2.22794 -2.99027 0
M  V30 1174 N 110.857 0.726932 -1.39834 0
M  V30 1175 C 111.767 1.87131 -1.41489 0
M  V30 1176 C 112.783 1.71239 -0.308757 0
M  V30 1177 O 113.959 1.93701 -0.551529 0
M  V30 1178 C 111.024 3.22811 -1.26468 0
M  V30 1179 C 110.085 3.51039 -2.47124 0
M  V30 1180 C 109.318 4.80245 -2.3281 0
M  V30 1181 O 109.541 5.54537 -1.33585 0
M  V30 1182 O 108.475 5.08554 -3.21957 0
M  V30 1183 H 112.301 1.8869 -2.3797 0
M  V30 1184 H 109.886 0.875837 -1.21035 0
M  V30 1185 H 111.768 4.03877 -1.20255 0
M  V30 1186 H 110.443 3.22005 -0.330862 0
M  V30 1187 H 109.35 2.70027 -2.58914 0
M  V30 1188 H 110.683 3.56632 -3.39227 0
M  V30 1189 N 112.336 1.25143 0.95797 0
M  V30 1190 C 113.583 1.09692 1.70217 0
M  V30 1191 C 113.911 -0.362654 1.91089 0
M  V30 1192 O 113.166 -1.28386 1.47701 0
M  V30 1193 C 113.465 1.79272 3.09187 0
M  V30 1194 C 113.131 3.29196 3.08125 0
M  V30 1195 C 111.793 3.70096 3.07543 0
M  V30 1196 C 114.145 4.24995 3.0171 0
M  V30 1197 C 111.473 5.05213 2.9829 0
M  V30 1198 C 113.825 5.60132 2.93999 0
M  V30 1199 C 112.489 6.00365 2.9175 0
M  V30 1200 H 111.759 0.401393 0.622868 0
M  V30 1201 H 114.406 1.55372 1.11945 0
M  V30 1202 H 112.711 1.26014 3.70982 0
M  V30 1203 H 114.408 1.64773 3.65583 0
M  V30 1204 H 110.998 2.96651 3.09348 0
M  V30 1205 H 115.182 3.9439 3.01281 0
M  V30 1206 H 110.438 5.35569 2.94916 0
M  V30 1207 H 114.612 6.3406 2.87996 0
M  V30 1208 H 112.239 7.05023 2.84336 0
M  V30 1209 N 113.814 -1.1601 1.06675 0
M  V30 1210 C 115.063 -1.85973 0.780818 0
M  V30 1211 C 115.376 -1.82819 -0.695444 0
M  V30 1212 O 116.582 -2.484 -1.09589 0
M  V30 1213 C 115.038 -3.33757 1.34665 0
M  V30 1214 C 114.646 -3.45374 2.85343 0
M  V30 1215 C 116.39 -4.0895 1.13843 0
M  V30 1216 C 114.297 -4.87266 3.35151 0
M  V30 1217 H 113.227 -0.696661 0.288407 0
M  V30 1218 H 115.878 -1.30903 1.28595 0
M  V30 1219 H 114.26 -3.88456 0.769274 0
M  V30 1220 H 115.434 -3.00816 3.49065 0
M  V30 1221 H 113.749 -2.83619 3.04876 0
M  V30 1222 H 116.346 -5.13654 1.4854 0
M  V30 1223 H 116.689 -4.16229 0.0770282 0
M  V30 1224 H 117.222 -3.605 1.68179 0
M  V30 1225 H 113.961 -4.85168 4.40786 0
M  V30 1226 H 113.481 -5.32433 2.76179 0
M  V30 1227 H 115.16 -5.56097 3.30704 0
M  V30 1228 N 115.292 -0.849877 -1.32721 0
M  V30 1229 C 116.222 -0.306308 -2.31482 0
M  V30 1230 C 117.203 0.591952 -1.59468 0
M  V30 1231 O 118.388 0.513199 -1.87296 0
M  V30 1232 C 115.518 0.510204 -3.43532 0
M  V30 1233 C 114.472 -0.293209 -4.26994 0
M  V30 1234 C 113.798 0.647743 -5.30762 0
M  V30 1235 C 115.098 -1.51634 -4.99804 0
M  V30 1236 H 116.792 -1.13153 -2.77195 0
M  V30 1237 H 114.338 -0.545553 -1.33266 0
M  V30 1238 H 116.291 0.900856 -4.11658 0
M  V30 1239 H 115.015 1.36874 -2.96535 0
M  V30 1240 H 113.674 -0.665555 -3.60508 0
M  V30 1241 H 113.322 1.50299 -4.8002 0
M  V30 1242 H 113.022 0.11422 -5.87489 0
M  V30 1243 H 114.546 1.03567 -6.01753 0
M  V30 1244 H 115.96 -1.19824 -5.60638 0
M  V30 1245 H 114.357 -1.98745 -5.66234 0
M  V30 1246 H 115.427 -2.28018 -4.27943 0
M  V30 1247 N 116.77 1.45427 -0.607355 0
M  V30 1248 C 117.718 2.32269 0.12411 0
M  V30 1249 C 118.712 1.45955 0.859854 0
M  V30 1250 O 119.918 1.6244 0.775447 0
M  V30 1251 H 116.293 0.749691 0.0588839 0
M  V30 1252 H 118.264 2.91743 -0.626762 0
M  V30 1253 C 117.013 3.29567 1.1082 0
M  V30 1254 H 116.336 3.95978 0.551492 0
M  V30 1255 H 117.776 3.93061 1.58995 0
M  V30 1256 C 116.235 2.56722 2.18164 0
M  V30 1257 O 116.765 2.34842 3.25902 0
M  V30 1258 N 114.971 2.16861 1.93442 0
M  V30 1259 H 114.518 2.34855 1.05834 0
M  V30 1260 H 114.476 1.68444 2.65469 0
M  V30 1261 N 118.248 0.346503 1.53744 0
M  V30 1262 C 119.18 -0.543316 2.22667 0
M  V30 1263 C 120.193 -1.06159 1.23427 0
M  V30 1264 O 121.382 -0.971235 1.49764 0
M  V30 1265 C 118.482 -1.76076 2.89569 0
M  V30 1266 C 117.655 -1.37727 4.15151 0
M  V30 1267 C 116.714 -2.45471 4.65436 0
M  V30 1268 O 115.74 -2.08655 5.29577 0
M  V30 1269 N 116.942 -3.7677 4.41616 0
M  V30 1270 H 119.707 0.0469703 2.99663 0
M  V30 1271 H 117.268 0.170766 1.60997 0
M  V30 1272 H 119.26 -2.47593 3.20125 0
M  V30 1273 H 117.83 -2.25835 2.16142 0
M  V30 1274 H 117.05 -0.492746 3.91108 0
M  V30 1275 H 118.338 -1.09708 4.96832 0
M  V30 1276 H 117.736 -4.09467 3.90325 0
M  V30 1277 H 116.293 -4.44448 4.7677 0
M  V30 1278 N 119.726 -1.57421 0.075193 0
M  V30 1279 C 120.975 -1.92794 -0.592731 0
M  V30 1280 C 121.288 -0.957478 -1.70563 0
M  V30 1281 O 122.494 -1.20417 -2.43335 0
M  V30 1282 C 120.95 -3.42495 -1.10569 0
M  V30 1283 C 120.558 -4.47994 -0.0236121 0
M  V30 1284 C 122.302 -3.86864 -1.74748 0
M  V30 1285 C 120.209 -5.88829 -0.550803 0
M  V30 1286 H 119.139 -0.719591 -0.225177 0
M  V30 1287 H 121.79 -1.82902 0.147978 0
M  V30 1288 H 120.172 -3.47471 -1.89947 0
M  V30 1289 H 121.346 -4.54637 0.751099 0
M  V30 1290 H 119.661 -4.13113 0.522159 0
M  V30 1291 H 122.258 -4.8947 -2.15229 0
M  V30 1292 H 122.601 -3.24417 -2.60882 0
M  V30 1293 H 123.134 -3.84504 -1.01986 0
M  V30 1294 H 119.873 -6.54929 0.273457 0
M  V30 1295 H 119.393 -5.85698 -1.29296 0
M  V30 1296 H 121.072 -6.38811 -1.02613 0
M  V30 1297 N 121.204 0.198386 -1.56346 0
M  V30 1298 C 122.481 0.944982 -1.71258 0
M  V30 1299 C 122.861 2.0151 -0.629048 0
M  V30 1300 O 122.209 2.25639 0.360473 0
M  V30 1301 C 122.419 1.5344 -3.1346 0
M  V30 1302 C 123.767 2.01778 -3.73591 0
M  V30 1303 O 124.791 1.63288 -3.16568 0
M  V30 1304 O 123.65 2.72594 -4.73661 0
M  V30 1305 H 120.744 0.442939 -0.69838 0
M  V30 1306 H 123.29 0.188342 -1.68652 0
M  V30 1307 H 122.062 0.762869 -3.83792 0
M  V30 1308 H 121.685 2.35596 -3.20282 0
M  V30 1309 N 122.682 1.50554 0.465978 0
M  V30 1310 C 123.629 1.6979 1.56333 0
M  V30 1311 C 124.599 0.539239 1.57103 0
M  V30 1312 O 125.784 0.770401 1.74555 0
M  V30 1313 C 122.924 1.80273 2.94271 0
M  V30 1314 C 122.037 3.07674 3.0325 0
M  V30 1315 C 121.172 3.08922 4.32135 0
M  V30 1316 C 120.211 4.30755 4.34875 0
M  V30 1317 N 119.348 4.29714 5.55239 0
M  V30 1318 H 124.188 2.63472 1.39235 0
M  V30 1319 H 121.725 1.30602 0.676873 0
M  V30 1320 H 123.683 1.84332 3.74269 0
M  V30 1321 H 122.313 0.900258 3.09992 0
M  V30 1322 H 121.365 3.13062 2.16094 0
M  V30 1323 H 122.677 3.97642 3.01135 0
M  V30 1324 H 121.831 3.11738 5.20485 0
M  V30 1325 H 120.57 2.16792 4.36866 0
M  V30 1326 H 119.575 4.28146 3.44922 0
M  V30 1327 H 120.8 5.24117 4.31831 0
M  V30 1328 H 118.746 3.4044 5.60746 0
M  V30 1329 H 118.663 5.13456 5.54886 0
M  V30 1330 H 119.931 4.36683 6.457 0
M  V30 1331 N 124.16 -0.719506 1.40217 0
M  V30 1332 C 125.123 -1.8153 1.39927 0
M  V30 1333 C 126.123 -1.58095 0.293723 0
M  V30 1334 O 127.313 -1.65209 0.552429 0
M  V30 1335 C 124.445 -3.19561 1.18716 0
M  V30 1336 H 125.638 -1.83186 2.37451 0
M  V30 1337 H 123.191 -0.924746 1.26008 0
M  V30 1338 H 123.926 -3.23557 0.219366 0
M  V30 1339 H 123.711 -3.3797 1.98793 0
M  V30 1340 H 125.201 -3.99598 1.21291 0
M  V30 1341 N 125.638 -1.25649 -0.95132 0
M  V30 1342 C 126.866 -1.13343 -1.73092 0
M  V30 1343 C 127.281 0.312434 -1.86197 0
M  V30 1344 O 126.638 1.21465 -1.36207 0
M  V30 1345 C 126.689 -1.78602 -3.14299 0
M  V30 1346 O 126.41 -3.17537 -3.01831 0
M  V30 1347 C 127.911 -1.72119 -4.08522 0
M  V30 1348 H 125.131 -0.395181 -0.542285 0
M  V30 1349 H 127.675 -1.66076 -1.19328 0
M  V30 1350 H 125.83 -1.29832 -3.64996 0
M  V30 1351 H 126.244 -3.49676 -3.90931 0
M  V30 1352 H 127.718 -2.22435 -5.052 0
M  V30 1353 H 128.195 -0.685635 -4.33815 0
M  V30 1354 H 128.801 -2.20393 -3.63741 0
M  V30 1355 N 127.117 1.15442 -1.07289 0
M  V30 1356 C 128.342 1.90638 -0.816828 0
M  V30 1357 C 128.767 1.77445 0.624083 0
M  V30 1358 O 128.125 1.10671 1.43602 0
M  V30 1359 C 128.173 3.39008 -1.22906 0
M  V30 1360 O 127.277 4.10701 -0.373975 0
M  V30 1361 H 126.618 0.593555 -0.297638 0
M  V30 1362 H 129.148 1.46198 -1.43134 0
M  V30 1363 H 129.158 3.89801 -1.20497 0
M  V30 1364 H 127.833 3.47929 -2.27856 0
M  V30 1365 H 126.41 3.70046 -0.460499 0
M  V30 1366 N 128.595 0.856903 1.32268 0
M  V30 1367 C 130.011 0.547061 1.49931 0
M  V30 1368 C 130.211 -0.921781 1.7918 0
M  V30 1369 O 129.267 -1.70469 1.8627 0
M  V30 1370 C 130.58 1.43599 2.64196 0
M  V30 1371 C 132.128 1.43665 2.78081 0
M  V30 1372 C 132.603 2.31085 3.95428 0
M  V30 1373 N 134.094 2.28893 4.02694 0
M  V30 1374 C 134.829 2.93262 4.92732 0
M  V30 1375 N 134.325 3.66751 5.87763 0
M  V30 1376 N 136.118 2.82638 4.85873 0
M  V30 1377 H 128.269 1.8075 1.11549 0
M  V30 1378 H 130.532 0.772144 0.549997 0
M  V30 1379 H 130.238 2.48058 2.49319 0
M  V30 1380 H 130.112 1.12502 3.60032 0
M  V30 1381 H 132.499 0.399701 2.92381 0
M  V30 1382 H 132.58 1.7878 1.82952 0
M  V30 1383 H 132.224 3.34849 3.81888 0
M  V30 1384 H 132.154 1.93302 4.89839 0
M  V30 1385 H 134.645 1.75466 3.34694 0
M  V30 1386 H 134.958 4.13027 6.53168 0
M  V30 1387 H 133.303 3.70859 5.87783 0
M  V30 1388 H 136.494 2.24774 4.10602 0
M  V30 1389 H 136.667 3.33084 5.55841 0
M  V30 1390 N 130.073 -1.45103 0.615059 0
M  V30 1391 C 130.983 -2.34382 -0.101034 0
M  V30 1392 C 131.999 -1.51681 -0.852585 0
M  V30 1393 O 133.175 -1.8446 -0.808484 0
M  V30 1394 C 130.24 -3.29417 -1.08099 0
M  V30 1395 C 129.301 -4.28025 -0.330577 0
M  V30 1396 C 128.534 -5.1852 -1.26385 0
M  V30 1397 O 128.757 -5.12598 -2.50198 0
M  V30 1398 O 127.691 -5.97122 -0.756866 0
M  V30 1399 H 131.517 -2.97033 0.632855 0
M  V30 1400 H 129.102 -1.4461 0.375293 0
M  V30 1401 H 130.984 -3.87958 -1.6452 0
M  V30 1402 H 129.659 -2.69321 -1.79577 0
M  V30 1403 H 128.566 -3.73078 0.276283 0
M  V30 1404 H 129.899 -4.90997 0.343866 0
M  V30 1405 N 131.551 -0.354651 -1.53558 0
M  V30 1406 C 132.799 0.237972 -2.00694 0
M  V30 1407 C 133.12 1.50173 -1.24391 0
M  V30 1408 O 132.39 1.92673 -0.354135 0
M  V30 1409 H 130.97 0.0909256 -0.741446 0
M  V30 1410 H 133.632 -0.478368 -1.88938 0
M  V30 1411 H 132.728 0.47264 -3.085 0
M  V30 1412 N 133.029 1.57378 -0.0835403 0
M  V30 1413 C 133.959 2.1641 0.87686 0
M  V30 1414 C 134.94 1.09429 1.30228 0
M  V30 1415 O 136.125 1.37516 1.37124 0
M  V30 1416 C 133.255 2.73517 2.14022 0
M  V30 1417 C 132.209 3.85769 1.85381 0
M  V30 1418 C 131.535 4.29529 3.18448 0
M  V30 1419 C 132.835 5.09486 1.14984 0
M  V30 1420 H 134.529 2.96914 0.385059 0
M  V30 1421 H 132.075 1.42823 0.18377 0
M  V30 1422 H 134.028 3.13463 2.81636 0
M  V30 1423 H 132.752 1.90252 2.65465 0
M  V30 1424 H 131.411 3.46345 1.20169 0
M  V30 1425 H 131.059 3.43169 3.67755 0
M  V30 1426 H 130.759 5.05204 3.00071 0
M  V30 1427 H 132.283 4.72099 3.8724 0
M  V30 1428 H 133.697 5.46674 1.72687 0
M  V30 1429 H 132.094 5.90515 1.06826 0
M  V30 1430 H 133.164 4.84724 0.130749 0
M  V30 1431 N 134.507 -0.190092 1.56449 0
M  V30 1432 C 135.417 -1.25591 1.98152 0
M  V30 1433 C 136.433 -1.49519 0.889944 0
M  V30 1434 O 137.609 -1.62036 1.19609 0
M  V30 1435 C 134.674 -2.57916 2.3169 0
M  V30 1436 C 133.735 -2.42015 3.5458 0
M  V30 1437 C 132.968 -3.6803 3.8651 0
M  V30 1438 O 133.191 -4.72413 3.1966 0
M  V30 1439 O 132.125 -3.6326 4.79923 0
M  V30 1440 H 135.951 -0.931988 2.89046 0
M  V30 1441 H 133.536 -0.395488 1.4407 0
M  V30 1442 H 135.418 -3.36008 2.54316 0
M  V30 1443 H 134.093 -2.89925 1.43963 0
M  V30 1444 H 133 -1.62017 3.37196 0
M  V30 1445 H 134.333 -2.14937 4.4279 0
M  V30 1446 N 135.985 -1.50799 -0.457987 0
M  V30 1447 C 137.21 -1.66496 -1.23668 0
M  V30 1448 C 137.635 -0.353288 -1.84752 0
M  V30 1449 O 136.993 0.684346 -1.67888 0
M  V30 1450 C 137.041 -2.76763 -2.3116 0
M  V30 1451 O 136.145 -2.38928 -3.36136 0
M  V30 1452 H 135.486 -0.555828 -0.363252 0
M  V30 1453 H 138.016 -1.9725 -0.543474 0
M  V30 1454 H 138.026 -3.00232 -2.76269 0
M  V30 1455 H 136.701 -3.71954 -1.86073 0
M  V30 1456 H 135.278 -2.25953 -2.96647 0
M  V30 1457 N 137.463 0.71206 -1.40597 0
M  V30 1458 C 138.393 1.83889 -1.43899 0
M  V30 1459 C 139.374 1.67442 -0.299504 0
M  V30 1460 O 140.559 1.87421 -0.508624 0
M  V30 1461 C 137.689 3.21877 -1.30431 0
M  V30 1462 C 136.643 3.53002 -2.42019 0
M  V30 1463 C 135.969 4.90172 -2.13626 0
M  V30 1464 C 137.269 3.53643 -3.84362 0
M  V30 1465 H 138.963 1.81383 -2.38203 0
M  V30 1466 H 136.509 0.871237 -1.14654 0
M  V30 1467 H 138.462 4.00404 -1.31357 0
M  V30 1468 H 137.186 3.24968 -0.326049 0
M  V30 1469 H 135.845 2.76818 -2.40349 0
M  V30 1470 H 135.493 4.89869 -1.14182 0
M  V30 1471 H 135.193 5.11962 -2.88389 0
M  V30 1472 H 136.717 5.71028 -2.1624 0
M  V30 1473 H 138.131 4.22203 -3.87837 0
M  V30 1474 H 136.528 3.86961 -4.58673 0
M  V30 1475 H 137.598 2.52954 -4.13693 0
M  V30 1476 N 138.941 1.26152 0.944643 0
M  V30 1477 C 140.187 1.11657 1.69294 0
M  V30 1478 C 140.52 -0.339926 1.91202 0
M  V30 1479 O 139.795 -1.24994 1.49019 0
M  V30 1480 C 140.078 1.88236 3.06984 0
M  V30 1481 C 139.931 3.41772 2.92424 0
M  V30 1482 C 141.25 1.67343 4.07043 0
M  V30 1483 H 138.369 0.407004 0.614424 0
M  V30 1484 H 141.011 1.55106 1.09737 0
M  V30 1485 H 139.161 1.51308 3.57824 0
M  V30 1486 H 140.833 3.88433 2.48832 0
M  V30 1487 H 139.076 3.68974 2.28124 0
M  V30 1488 H 139.747 3.90579 3.90067 0
M  V30 1489 H 142.223 1.99509 3.65151 0
M  V30 1490 H 141.099 2.23346 5.01406 0
M  V30 1491 H 141.36 0.617158 4.37771 0
M  V30 1492 N 140.419 -1.14872 1.07899 0
M  V30 1493 C 141.351 -2.19425 0.662231 0
M  V30 1494 C 142.364 -1.60231 -0.288079 0
M  V30 1495 O 143.553 -1.78336 -0.076534 0
M  V30 1496 C 140.653 -3.38867 -0.0470695 0
M  V30 1497 C 139.826 -4.27597 0.920831 0
M  V30 1498 C 138.885 -5.25616 0.247805 0
M  V30 1499 O 137.911 -5.62189 0.890599 0
M  V30 1500 N 139.113 -5.71746 -1.00435 0
M  V30 1501 H 141.878 -2.55797 1.56166 0
M  V30 1502 H 139.439 -1.30042 0.964404 0
M  V30 1503 H 141.431 -4.01497 -0.50813 0
M  V30 1504 H 140.001 -3.00864 -0.848523 0
M  V30 1505 H 139.221 -3.61982 1.56087 0
M  V30 1506 H 140.509 -4.83748 1.57688 0
M  V30 1507 H 139.907 -5.44153 -1.54642 0
M  V30 1508 H 138.464 -6.36389 -1.40899 0
M  V30 1509 N 141.898 -0.863906 -1.31812 0
M  V30 1510 C 143.126 -0.486111 -2.01108 0
M  V30 1511 C 143.541 0.919755 -1.64882 0
M  V30 1512 O 142.898 1.60162 -0.874893 0
M  V30 1513 C 142.949 -0.626435 -3.56031 0
M  V30 1514 O 142.67 -1.97693 -3.90959 0
M  V30 1515 C 144.171 -0.248857 -4.42601 0
M  V30 1516 H 141.391 -0.190052 -0.643523 0
M  V30 1517 H 143.935 -1.1634 -1.68182 0
M  V30 1518 H 142.09 0.00322717 -3.874 0
M  V30 1519 H 142.504 -1.98034 -4.85678 0
M  V30 1520 H 143.978 -0.398016 -5.50563 0
M  V30 1521 H 144.455 0.811489 -4.31638 0
M  V30 1522 H 145.061 -0.853971 -4.16638 0
M  V30 1523 N 143.376 1.44774 -0.622745 0
M  V30 1524 C 144.625 2.01334 -0.121397 0
M  V30 1525 C 144.938 1.49505 1.26125 0
M  V30 1526 O 146.144 1.98139 1.85616 0
M  V30 1527 C 144.6 3.59516 -0.166298 0
M  V30 1528 C 144.208 4.20342 -1.54974 0
M  V30 1529 C 145.952 4.23582 0.279021 0
M  V30 1530 C 143.859 5.70721 -1.55021 0
M  V30 1531 H 142.789 0.752851 -0.0416172 0
M  V30 1532 H 145.44 1.66083 -0.780309 0
M  V30 1533 H 143.822 3.92027 0.559557 0
M  V30 1534 H 144.996 3.99381 -2.29851 0
M  V30 1535 H 143.311 3.68529 -1.93843 0
M  V30 1536 H 145.908 5.33868 0.298083 0
M  V30 1537 H 146.251 3.95327 1.30471 0
M  V30 1538 H 146.784 3.95843 -0.394063 0
M  V30 1539 H 143.523 6.03698 -2.55399 0
M  V30 1540 H 143.043 5.93829 -0.844245 0
M  V30 1541 H 144.722 6.34203 -1.28047 0
M  V30 1542 N 144.854 0.36279 1.53368 0
M  V30 1543 C 145.801 -0.485008 2.25646 0
M  V30 1544 C 146.771 -1.07982 1.2621 0
M  V30 1545 O 147.956 -1.11284 1.54986 0
M  V30 1546 C 145.096 -1.62023 3.04701 0
M  V30 1547 C 144.209 -1.05086 4.19024 0
M  V30 1548 C 143.344 -2.15496 4.85525 0
M  V30 1549 C 142.383 -1.5601 5.91884 0
M  V30 1550 N 141.52 -2.60241 6.52088 0
M  V30 1551 H 146.36 0.137864 2.97681 0
M  V30 1552 H 143.897 0.0798061 1.46883 0
M  V30 1553 H 145.855 -2.28887 3.48807 0
M  V30 1554 H 144.485 -2.2138 2.34927 0
M  V30 1555 H 143.537 -0.27259 3.79422 0
M  V30 1556 H 144.849 -0.575926 4.95464 0
M  V30 1557 H 144.003 -2.90186 5.32801 0
M  V30 1558 H 142.742 -2.66341 4.08551 0
M  V30 1559 H 141.747 -0.798338 5.43973 0
M  V30 1560 H 142.972 -1.05994 6.70777 0
M  V30 1561 H 140.918 -3.10304 5.77968 0
M  V30 1562 H 140.835 -2.17426 7.24059 0
M  V30 1563 H 142.103 -3.34641 7.04014 0
M  V30 1564 N 146.332 -1.57332 0.0918853 0
M  V30 1565 C 147.264 -2.10869 -0.898168 0
M  V30 1566 C 148.277 -1.04521 -1.24817 0
M  V30 1567 O 149.466 -1.31977 -1.20184 0
M  V30 1568 C 146.566 -2.57083 -2.2082 0
M  V30 1569 C 145.739 -3.87229 -2.03402 0
M  V30 1570 C 144.798 -4.19324 -3.17889 0
M  V30 1571 O 143.824 -4.88598 -2.91994 0
M  V30 1572 N 145.026 -3.74471 -4.43567 0
M  V30 1573 H 147.791 -2.96439 -0.440943 0
M  V30 1574 H 145.352 -1.61631 -0.0933064 0
M  V30 1575 H 147.344 -2.75602 -2.96354 0
M  V30 1576 H 145.914 -1.76541 -2.57977 0
M  V30 1577 H 145.134 -3.7789 -1.12218 0
M  V30 1578 H 146.422 -4.72379 -1.89038 0
M  V30 1579 H 145.82 -3.18546 -4.67488 0
M  V30 1580 H 144.377 -3.98151 -5.16061 0
M  V30 1581 N 147.81 0.181792 -1.56548 0
M  V30 1582 C 149.035 0.920019 -1.85877 0
M  V30 1583 C 149.46 1.75494 -0.677021 0
M  V30 1584 O 148.818 1.77399 0.374056 0
M  V30 1585 C 148.866 1.78112 -3.13542 0
M  V30 1586 O 147.97 2.88152 -2.95029 0
M  V30 1587 H 147.311 0.258334 -0.611686 0
M  V30 1588 H 149.841 0.183092 -2.03779 0
M  V30 1589 H 149.851 2.18314 -3.44678 0
M  V30 1590 H 148.526 1.16777 -3.99169 0
M  V30 1591 H 147.103 2.51609 -2.75222 0
M  V30 1592 N 149.288 1.51039 0.449983 0
M  V30 1593 C 150.518 1.66627 1.22143 0
M  V30 1594 C 150.926 0.357776 1.85786 0
M  V30 1595 O 150.269 -0.672424 1.70951 0
M  V30 1596 C 150.331 2.71562 2.35573 0
M  V30 1597 C 149.995 4.14526 1.92399 0
M  V30 1598 C 150.992 4.99717 1.43453 0
M  V30 1599 C 148.677 4.60559 2.00475 0
M  V30 1600 C 150.671 6.28998 1.03155 0
M  V30 1601 C 148.358 5.8984 1.59788 0
M  V30 1602 C 149.356 6.73886 1.11208 0
M  V30 1603 O 149.044 8.0075 0.710935 0
M  V30 1604 H 148.776 0.562635 0.374724 0
M  V30 1605 H 151.33 1.98146 0.541036 0
M  V30 1606 H 149.56 2.3533 3.06849 0
M  V30 1607 H 151.249 2.76156 2.97478 0
M  V30 1608 H 152.015 4.65361 1.36618 0
M  V30 1609 H 147.894 3.95273 2.37235 0
M  V30 1610 H 151.438 6.9455 0.651663 0
M  V30 1611 H 147.335 6.23713 1.66289 0
M  V30 1612 H 148.103 8.142 0.837913 0
M  V30 1613 N 150.766 -0.704594 1.40972 0
M  V30 1614 C 151.696 -1.83124 1.44872 0
M  V30 1615 C 152.677 -1.67281 0.30838 0
M  V30 1616 O 153.862 -1.87149 0.518556 0
M  V30 1617 C 150.992 -3.21181 1.32136 0
M  V30 1618 C 149.946 -3.51714 2.43888 0
M  V30 1619 C 149.272 -4.89032 2.16222 0
M  V30 1620 C 150.572 -3.516 3.86232 0
M  V30 1621 H 152.266 -1.80117 2.39161 0
M  V30 1622 H 149.812 -0.865145 1.15114 0
M  V30 1623 H 151.765 -3.99702 1.33479 0
M  V30 1624 H 150.489 -3.24791 0.343279 0
M  V30 1625 H 149.148 -2.75539 2.41813 0
M  V30 1626 H 148.796 -4.89256 1.16778 0
M  V30 1627 H 148.496 -5.10426 2.911 0
M  V30 1628 H 150.02 -5.69873 2.19265 0
M  V30 1629 H 151.434 -4.2014 3.9007 0
M  V30 1630 H 149.831 -3.84523 4.60719 0
M  V30 1631 H 150.901 -2.50757 4.15029 0
M  V30 1632 N 152.244 -1.26651 -0.937939 0
M  V30 1633 C 153.191 -1.0849 -2.03712 0
M  V30 1634 C 154.161 0.011033 -1.66096 0
M  V30 1635 O 155.346 -0.149353 -1.90215 0
M  V30 1636 C 152.486 -0.72735 -3.37348 0
M  V30 1637 C 151.599 -1.89986 -3.87981 0
M  V30 1638 C 150.734 -1.48513 -5.10017 0
M  V30 1639 C 149.773 -2.62575 -5.5292 0
M  V30 1640 N 148.91 -2.21762 -6.66158 0
M  V30 1641 H 153.75 -2.02551 -2.18579 0
M  V30 1642 H 151.287 -1.00844 -1.07093 0
M  V30 1643 H 153.245 -0.50092 -4.14182 0
M  V30 1644 H 151.875 0.176298 -3.22318 0
M  V30 1645 H 150.927 -2.23913 -3.07518 0
M  V30 1646 H 152.239 -2.75586 -4.15757 0
M  V30 1647 H 151.393 -1.21934 -5.94321 0
M  V30 1648 H 150.132 -0.60009 -4.83994 0
M  V30 1649 H 149.137 -2.8988 -4.67172 0
M  V30 1650 H 150.362 -3.51685 -5.80943 0
M  V30 1651 H 148.308 -1.35696 -6.41812 0
M  V30 1652 H 148.225 -3.00903 -6.93537 0
M  V30 1653 H 149.493 -1.98403 -7.53828 0
M  V30 1654 N 153.722 1.14298 -1.08507 0
M  V30 1655 C 154.999 1.81544 -0.728088 0
M  V30 1656 C 155.379 1.95838 0.78808 0
M  V30 1657 O 154.727 1.51904 1.70697 0
M  V30 1658 C 154.937 3.17169 -1.45619 0
M  V30 1659 C 156.285 3.9265 -1.61591 0
M  V30 1660 O 157.309 3.26762 -1.41793 0
M  V30 1661 O 156.168 5.10807 -1.94263 0
M  V30 1662 H 153.262 0.78491 -0.260471 0
M  V30 1663 H 155.808 1.21307 -1.18671 0
M  V30 1664 H 154.58 3.01934 -2.489 0
M  V30 1665 H 154.203 3.851 -0.989124 0
M  V30 1666 N 155.201 0.870884 1.31352 0
M  V30 1667 C 156.151 0.298889 2.26032 0
M  V30 1668 C 157.135 -0.564595 1.50669 0
M  V30 1669 O 158.327 -0.411323 1.72154 0
M  V30 1670 C 155.456 -0.497842 3.39671 0
M  V30 1671 C 154.542 0.378937 4.22404 0
M  V30 1672 N 154.933 1.47284 4.83881 0
M  V30 1673 C 153.231 0.171535 4.4567 0
M  V30 1674 C 153.932 2.01359 5.45738 0
M  V30 1675 N 152.908 1.31047 5.27568 0
M  V30 1676 H 156.71 1.13494 2.71102 0
M  V30 1677 H 154.224 0.718745 1.45629 0
M  V30 1678 H 156.221 -0.924155 4.06528 0
M  V30 1679 H 154.881 -1.33149 2.96144 0
M  V30 1680 H 155.892 1.85575 4.8351 0
M  V30 1681 H 152.569 -0.626091 4.12779 0
M  V30 1682 H 153.959 2.93143 6.0458 0
M  V30 1683 N 156.679 -1.44442 0.630414 0
M  V30 1684 C 158.09 -1.85434 0.217063 0
M  V30 1685 C 158.441 -1.52748 -1.23136 0
M  V30 1686 O 157.566 -0.965205 -1.93682 0
M  V30 1687 C 158.161 -3.36581 0.387168 0
M  V30 1688 C 156.72 -3.76389 0.0283297 0
M  V30 1689 C 155.867 -2.68296 0.700889 0
M  V30 1690 H 158.818 -1.34919 0.83562 0
M  V30 1691 H 158.839 -3.78657 -0.374086 0
M  V30 1692 H 158.351 -3.60339 1.44144 0
M  V30 1693 H 156.452 -3.58246 -1.02423 0
M  V30 1694 H 156.565 -4.77095 0.437892 0
M  V30 1695 H 154.929 -2.54335 0.136267 0
M  V30 1696 H 155.712 -2.94887 1.75774 0
M  V30 1697 N 158.157 -0.370918 -1.53173 0
M  V30 1698 C 159.406 0.218249 -2.00516 0
M  V30 1699 C 159.719 1.49429 -1.26215 0
M  V30 1700 O 160.925 2.16239 -1.64174 0
M  V30 1701 C 159.381 0.43948 -3.57207 0
M  V30 1702 C 158.989 -0.822244 -4.4039 0
M  V30 1703 C 160.733 0.986012 -4.1289 0
M  V30 1704 C 158.64 -0.570304 -5.88644 0
M  V30 1705 H 157.57 0.0853333 -0.749156 0
M  V30 1706 H 160.221 -0.490483 -1.76823 0
M  V30 1707 H 158.603 1.20961 -3.77074 0
M  V30 1708 H 159.777 -1.59557 -4.32294 0
M  V30 1709 H 158.092 -1.29238 -3.95836 0
M  V30 1710 H 160.689 1.18991 -5.21292 0
M  V30 1711 H 161.032 1.94972 -3.6782 0
M  V30 1712 H 161.565 0.27592 -3.96842 0
M  V30 1713 H 158.304 -1.50449 -6.38001 0
M  V30 1714 H 157.824 0.164427 -5.99575 0
M  V30 1715 H 159.503 -0.19784 -6.46697 0
M  V30 1716 N 159.635 1.57281 -0.100228 0
M  V30 1717 C 160.582 2.14305 0.856858 0
M  V30 1718 C 161.552 1.06296 1.27634 0
M  V30 1719 O 162.737 1.34109 1.35718 0
M  V30 1720 C 159.877 2.73184 2.10866 0
M  V30 1721 C 158.99 3.95442 1.73925 0
M  V30 1722 C 158.125 4.42468 2.93931 0
M  V30 1723 C 157.164 5.57303 2.5314 0
M  V30 1724 N 156.301 5.99158 3.65997 0
M  V30 1725 H 161.141 2.95772 0.363726 0
M  V30 1726 H 158.678 1.46139 0.167858 0
M  V30 1727 H 160.636 3.05442 2.84185 0
M  V30 1728 H 159.266 1.94437 2.57671 0
M  V30 1729 H 158.318 3.69464 0.905554 0
M  V30 1730 H 159.63 4.78769 1.39935 0
M  V30 1731 H 158.784 4.76537 3.75496 0
M  V30 1732 H 157.523 3.58052 3.31134 0
M  V30 1733 H 156.528 5.22857 1.70003 0
M  V30 1734 H 157.753 6.43471 2.17075 0
M  V30 1735 H 155.699 5.17687 4.02909 0
M  V30 1736 H 155.616 6.77295 3.35869 0
M  V30 1737 H 156.884 6.3786 4.48057 0
M  V30 1738 N 161.113 -0.173488 1.56642 0
M  V30 1739 C 162.023 -1.23482 1.99473 0
M  V30 1740 C 163.039 -1.48567 0.905752 0
M  V30 1741 O 164.215 -1.60758 1.21321 0
M  V30 1742 C 161.28 -2.55444 2.34413 0
M  V30 1743 C 160.341 -2.38241 3.57127 0
M  V30 1744 C 159.574 -3.63909 3.90392 0
M  V30 1745 O 159.797 -4.68996 3.24653 0
M  V30 1746 O 158.731 -3.58149 4.83749 0
M  V30 1747 H 162.557 -0.901279 2.90018 0
M  V30 1748 H 160.142 -0.380185 1.44482 0
M  V30 1749 H 162.024 -3.33292 2.57865 0
M  V30 1750 H 160.699 -2.88382 1.4703 0
M  V30 1751 H 159.606 -1.58431 3.38896 0
M  V30 1752 H 160.939 -2.10228 4.45045 0
M  V30 1753 N 162.591 -1.51276 -0.441967 0
M  V30 1754 C 163.501 -1.75092 -1.56141 0
M  V30 1755 C 164.517 -0.634963 -1.62001 0
M  V30 1756 O 165.693 -0.916686 -1.79329 0
M  V30 1757 C 162.758 -1.86666 -2.92158 0
M  V30 1758 C 161.819 -3.10506 -2.96453 0
M  V30 1759 C 161.052 -3.21519 -4.25982 0
M  V30 1760 O 161.275 -2.38586 -5.18105 0
M  V30 1761 O 160.209 -4.14465 -4.36466 0
M  V30 1762 H 164.035 -2.70044 -1.38961 0
M  V30 1763 H 161.62 -1.35722 -0.624499 0
M  V30 1764 H 163.502 -1.96292 -3.72891 0
M  V30 1765 H 162.177 -0.949014 -3.09476 0
M  V30 1766 H 161.084 -3.06363 -2.14692 0
M  V30 1767 H 162.417 -4.01945 -2.84079 0
M  V30 1768 N 164.069 0.697108 -1.41344 0
M  V30 1769 C 165.016 1.81106 -1.43071 0
M  V30 1770 C 165.986 1.63632 -0.285275 0
M  V30 1771 O 167.171 1.84504 -0.486091 0
M  V30 1772 C 164.311 3.18975 -1.31715 0
M  V30 1773 C 163.424 3.47892 -2.56115 0
M  V30 1774 C 162.559 4.75367 -2.37064 0
M  V30 1775 C 161.598 4.97247 -3.56948 0
M  V30 1776 N 160.735 6.15947 -3.36977 0
M  V30 1777 H 165.575 1.78965 -2.38276 0
M  V30 1778 H 163.112 0.873975 -1.18322 0
M  V30 1779 H 165.07 3.98615 -1.23133 0
M  V30 1780 H 163.7 3.20297 -0.401183 0
M  V30 1781 H 162.752 2.62669 -2.75153 0
M  V30 1782 H 164.064 3.59962 -3.45295 0
M  V30 1783 H 163.218 5.63059 -2.25941 0
M  V30 1784 H 161.957 4.65541 -1.45338 0
M  V30 1785 H 160.962 4.08004 -3.68527 0
M  V30 1786 H 162.187 5.08934 -4.49626 0
M  V30 1787 H 160.133 6.07336 -2.47949 0
M  V30 1788 H 160.05 6.28777 -4.19732 0
M  V30 1789 H 161.318 7.06377 -3.29623 0
M  V30 1790 N 165.547 1.27147 0.931209 0
M  V30 1791 C 166.775 1.16082 1.71267 0
M  V30 1792 C 167.19 -0.282772 1.8667 0
M  V30 1793 O 166.547 -1.19283 1.38122 0
M  V30 1794 C 166.598 1.8358 3.11417 0
M  V30 1795 O 166.319 3.22299 2.96741 0
M  V30 1796 C 167.82 1.78597 4.05732 0
M  V30 1797 H 165.04 0.403758 0.535929 0
M  V30 1798 H 167.584 1.67953 1.16671 0
M  V30 1799 H 165.739 1.35623 3.62885 0
M  V30 1800 H 166.153 3.55851 3.85319 0
M  V30 1801 H 167.627 2.30444 5.01597 0
M  V30 1802 H 168.104 0.754564 4.3267 0
M  V30 1803 H 168.71 2.26152 3.60188 0
M  V30 1804 N 167.025 -1.13721 1.09112 0
M  V30 1805 C 167.935 -2.22638 0.73957 0
M  V30 1806 C 168.951 -1.72091 -0.257068 0
M  V30 1807 O 170.127 -2.01155 -0.0992154 0
M  V30 1808 C 167.192 -3.46322 0.16191 0
M  V30 1809 C 166.253 -4.11775 1.21408 0
M  V30 1810 C 165.486 -5.29555 0.663891 0
M  V30 1811 O 165.709 -5.68077 -0.514274 0
M  V30 1812 O 164.643 -5.84973 1.41738 0
M  V30 1813 H 168.469 -2.55074 1.64836 0
M  V30 1814 H 166.054 -1.21791 0.865289 0
M  V30 1815 H 167.936 -4.21107 -0.157073 0
M  V30 1816 H 166.611 -3.15593 -0.719932 0
M  V30 1817 H 165.518 -3.3883 1.58571 0
M  V30 1818 H 166.851 -4.46627 2.06845 0
M  V30 1819 N 168.503 -0.877838 -1.30888 0
M  V30 1820 C 169.413 -0.343096 -2.32078 0
M  V30 1821 C 170.429 0.551022 -1.65045 0
M  V30 1822 O 171.605 0.445854 -1.96403 0
M  V30 1823 C 168.67 0.439905 -3.43898 0
M  V30 1824 C 167.731 -0.483111 -4.26573 0
M  V30 1825 C 166.964 0.262616 -5.33053 0
M  V30 1826 O 167.187 1.48967 -5.50604 0
M  V30 1827 O 166.121 -0.383593 -6.00676 0
M  V30 1828 H 169.947 -1.18203 -2.79753 0
M  V30 1829 H 167.532 -0.64145 -1.34929 0
M  V30 1830 H 169.414 0.883504 -4.12034 0
M  V30 1831 H 168.089 1.25526 -2.98371 0
M  V30 1832 H 166.996 -0.975374 -3.61161 0
M  V30 1833 H 168.329 -1.26427 -4.75686 0
M  V30 1834 N 169.982 1.44106 -0.638065 0
M  V30 1835 C 171.21 2.06336 -0.152615 0
M  V30 1836 C 171.625 1.47731 1.17563 0
M  V30 1837 O 170.982 0.602806 1.72257 0
M  V30 1838 C 171.033 3.61479 -0.0391491 0
M  V30 1839 O 170.754 4.17903 -1.31487 0
M  V30 1840 C 172.255 4.40757 0.474176 0
M  V30 1841 H 169.475 0.665862 -0.0828776 0
M  V30 1842 H 172.019 1.84862 -0.87443 0
M  V30 1843 H 170.174 3.82191 0.633142 0
M  V30 1844 H 170.588 5.11416 -1.16421 0
M  V30 1845 H 172.062 5.49707 0.502562 0
M  V30 1846 H 172.539 4.12697 1.50258 0
M  V30 1847 H 173.145 4.24979 -0.165102 0
M  V30 1848 N 171.46 0.379036 1.52974 0
M  V30 1849 C 172.871 -0.0972525 1.86447 0
M  V30 1850 C 173.222 -1.47027 1.29914 0
M  V30 1851 O 172.347 -2.07135 0.626433 0
M  V30 1852 C 172.942 -0.183248 3.38304 0
M  V30 1853 C 171.501 -0.603812 3.71525 0
M  V30 1854 C 170.648 0.240632 2.76254 0
M  V30 1855 H 173.599 0.597316 1.4703 0
M  V30 1856 H 173.62 -1.00432 3.67006 0
M  V30 1857 H 173.132 0.816191 3.79421 0
M  V30 1858 H 171.233 -1.61099 3.35973 0
M  V30 1859 H 171.346 -0.369086 4.77676 0
M  V30 1860 H 169.71 -0.292548 2.53014 0
M  V30 1861 H 170.493 1.23786 3.20206 0
M  V30 1862 N 172.938 -1.57226 0.108567 0
M  V30 1863 C 173.885 -2.14756 -0.845481 0
M  V30 1864 C 174.855 -1.06971 -1.27068 0
M  V30 1865 O 176.04 -1.34827 -1.35005 0
M  V30 1866 C 173.18 -2.74298 -2.09415 0
M  V30 1867 C 172.293 -3.96358 -1.71826 0
M  V30 1868 C 171.428 -4.44021 -2.9158 0
M  V30 1869 C 170.467 -5.58637 -2.50181 0
M  V30 1870 N 169.604 -6.01091 -3.62814 0
M  V30 1871 H 174.444 -2.95961 -0.348035 0
M  V30 1872 H 171.981 -1.46226 -0.160106 0
M  V30 1873 H 173.939 -3.06945 -2.82561 0
M  V30 1874 H 172.569 -1.95801 -2.56636 0
M  V30 1875 H 171.621 -3.69939 -0.885947 0
M  V30 1876 H 172.933 -4.79504 -1.37394 0
M  V30 1877 H 172.087 -4.78522 -3.72963 0
M  V30 1878 H 170.826 -3.59803 -3.29231 0
M  V30 1879 H 169.831 -5.23751 -1.67228 0
M  V30 1880 H 171.056 -6.44613 -2.13659 0
M  V30 1881 H 169.002 -5.19817 -4.00158 0
M  V30 1882 H 168.919 -6.79066 -3.32273 0
M  V30 1883 H 170.187 -6.40227 -4.44668 0
M  V30 1884 N 174.416 0.165178 -1.56732 0
M  V30 1885 C 175.646 0.894919 -1.86212 0
M  V30 1886 C 176.054 1.76066 -0.692627 0
M  V30 1887 O 175.397 1.80387 0.347303 0
M  V30 1888 C 175.459 1.8174 -3.10179 0
M  V30 1889 C 175.123 1.13064 -4.42793 0
M  V30 1890 C 176.12 0.493169 -5.17556 0
M  V30 1891 C 173.805 1.12556 -4.89527 0
M  V30 1892 C 175.799 -0.140209 -6.37246 0
M  V30 1893 C 173.486 0.488366 -6.09145 0
M  V30 1894 C 174.484 -0.143411 -6.82849 0
M  V30 1895 O 174.172 -0.77055 -8.00199 0
M  V30 1896 H 173.904 0.265114 -0.621844 0
M  V30 1897 H 176.458 0.168242 -2.0471 0
M  V30 1898 H 174.688 2.58455 -2.87642 0
M  V30 1899 H 176.377 2.4175 -3.26055 0
M  V30 1900 H 177.143 0.489023 -4.82528 0
M  V30 1901 H 173.022 1.60672 -4.32094 0
M  V30 1902 H 176.566 -0.633932 -6.94714 0
M  V30 1903 H 172.463 0.490116 -6.43637 0
M  V30 1904 H 173.231 -0.670408 -8.1575 0
M  V30 1905 N 175.894 1.51508 0.433938 0
M  V30 1906 C 176.842 1.73646 1.54757 0
M  V30 1907 C 177.836 0.602854 1.5831 0
M  V30 1908 O 179.042 0.784318 1.62014 0
M  V30 1909 H 175.417 0.548718 0.51421 0
M  V30 1910 H 177.388 2.66991 1.33261 0
M  V30 1911 C 176.137 1.88172 2.92381 0
M  V30 1912 H 175.46 2.74808 2.90381 0
M  V30 1913 H 176.9 2.07672 3.6966 0
M  V30 1914 C 175.359 0.64239 3.30719 0
M  V30 1915 O 175.889 -0.201362 4.01195 0
M  V30 1916 N 174.095 0.485489 2.86516 0
M  V30 1917 H 173.642 1.17318 2.29334 0
M  V30 1918 H 173.6 -0.342482 3.12529 0
M  V30 1919 N 177.372 -0.689602 1.41712 0
M  V30 1920 C 178.32 -1.82475 1.44242 0
M  V30 1921 C 179.314 -1.66354 0.319774 0
M  V30 1922 O 180.52 -1.73143 0.492089 0
M  V30 1923 H 176.895 -0.601416 0.451445 0
M  V30 1924 H 178.866 -1.77458 2.39899 0
M  V30 1925 C 177.615 -3.20535 1.3473 0
M  V30 1926 H 176.938 -3.33559 2.20405 0
M  V30 1927 H 178.378 -4.00023 1.40562 0
M  V30 1928 C 176.837 -3.36846 0.0603281 0
M  V30 1929 O 177.367 -3.91656 -0.892663 0
M  V30 1930 N 175.573 -2.90595 -0.0177039 0
M  V30 1931 H 175.12 -2.46178 0.758572 0
M  V30 1932 H 175.078 -3.01886 -0.878201 0
M  V30 1933 N 178.85 -1.27639 -0.924453 0
M  V30 1934 C 179.78 -1.13166 -2.04244 0
M  V30 1935 C 180.761 -0.032256 -1.70069 0
M  V30 1936 O 181.946 -0.207328 -1.9309 0
M  V30 1937 C 179.076 -0.781496 -3.38393 0
M  V30 1938 C 178.03 -1.83449 -3.86692 0
M  V30 1939 C 177.356 -1.33822 -5.17683 0
M  V30 1940 C 178.656 -3.23917 -4.09726 0
M  V30 1941 H 180.35 -2.06689 -2.1661 0
M  V30 1942 H 177.896 -0.995136 -1.04082 0
M  V30 1943 H 179.849 -0.667057 -4.16087 0
M  V30 1944 H 178.573 0.189439 -3.2605 0
M  V30 1945 H 177.232 -1.93789 -3.11193 0
M  V30 1946 H 176.88 -0.35665 -5.01734 0
M  V30 1947 H 176.58 -2.04224 -5.50968 0
M  V30 1948 H 178.104 -1.23679 -5.97943 0
M  V30 1949 H 179.518 -3.16559 -4.77978 0
M  V30 1950 H 177.915 -3.92059 -4.54324 0
M  V30 1951 H 178.985 -3.68729 -3.14908 0
M  V30 1952 N 180.328 1.1314 -1.09713 0
M  V30 1953 C 181.575 1.84484 -0.834987 0
M  V30 1954 C 181.903 1.83689 0.639418 0
M  V30 1955 O 181.158 1.2724 1.4869 0
M  V30 1956 C 181.457 3.32167 -1.3191 0
M  V30 1957 C 181.123 3.53139 -2.80363 0
M  V30 1958 C 179.785 3.58571 -3.20905 0
M  V30 1959 C 182.137 3.60866 -3.76065 0
M  V30 1960 C 179.465 3.69267 -4.55916 0
M  V30 1961 C 181.817 3.73089 -5.10869 0
M  V30 1962 C 180.481 3.76775 -5.50996 0
M  V30 1963 H 179.751 0.675073 -0.305544 0
M  V30 1964 H 182.398 1.33554 -1.37243 0
M  V30 1965 H 180.703 3.85469 -0.701517 0
M  V30 1966 H 182.4 3.85821 -1.09284 0
M  V30 1967 H 178.99 3.49569 -2.47991 0
M  V30 1968 H 183.174 3.55946 -3.45855 0
M  V30 1969 H 178.43 3.70388 -4.86438 0
M  V30 1970 H 182.604 3.78011 -5.84877 0
M  V30 1971 H 180.231 3.84815 -6.55608 0
M  V30 1972 N 181.806 0.884767 1.30421 0
M  V30 1973 C 183.083 0.423185 1.90967 0
M  V30 1974 C 183.463 -1.09605 1.80416 0
M  V30 1975 O 182.811 -1.93126 1.22125 0
M  V30 1976 C 183.021 0.921056 3.36627 0
M  V30 1977 C 184.369 0.955903 4.137 0
M  V30 1978 O 185.393 0.867706 3.4547 0
M  V30 1979 O 184.252 1.08614 5.35598 0
M  V30 1980 H 181.346 0.129369 0.816819 0
M  V30 1981 H 183.892 0.973653 1.3899 0
M  V30 1982 H 182.664 1.96489 3.3839 0
M  V30 1983 H 182.287 0.349741 3.96059 0
M  V30 1984 N 183.284 -1.43765 0.645699 0
M  V30 1985 C 184.231 -2.30745 -0.0504648 0
M  V30 1986 C 185.201 -1.4432 -0.822241 0
M  V30 1987 O 186.386 -1.73202 -0.800358 0
M  V30 1988 C 183.526 -3.29802 -1.0161 0
M  V30 1989 C 182.639 -4.31326 -0.241219 0
M  V30 1990 C 181.774 -5.17469 -1.19998 0
M  V30 1991 C 180.813 -6.10691 -0.415094 0
M  V30 1992 N 179.95 -6.89483 -1.32506 0
M  V30 1993 H 184.79 -2.8973 0.697155 0
M  V30 1994 H 182.327 -1.42738 0.355563 0
M  V30 1995 H 184.285 -3.85734 -1.58949 0
M  V30 1996 H 182.915 -2.72483 -1.73069 0
M  V30 1997 H 181.967 -3.77749 0.448334 0
M  V30 1998 H 183.279 -4.9743 0.369437 0
M  V30 1999 H 182.433 -5.7799 -1.84424 0
M  V30 2000 H 181.172 -4.51473 -1.84455 0
M  V30 2001 H 180.177 -5.49265 0.242565 0
M  V30 2002 H 181.402 -6.78727 0.224966 0
M  V30 2003 H 179.348 -6.26142 -1.95657 0
M  V30 2004 H 179.265 -7.52081 -0.768783 0
M  V30 2005 H 180.533 -7.54516 -1.9577 0
M  V30 2006 N 184.763 -0.387143 -1.52771 0
M  V30 2007 C 185.713 0.465942 -2.23188 0
M  V30 2008 C 186.697 1.03138 -1.23496 0
M  V30 2009 O 187.889 0.957845 -1.48843 0
M  V30 2010 C 185.018 1.59384 -3.04059 0
M  V30 2011 C 184.104 1.04024 -4.11144 0
M  V30 2012 N 184.495 0.211416 -5.05358 0
M  V30 2013 C 182.793 1.31295 -4.26237 0
M  V30 2014 C 183.494 -0.0941698 -5.81624 0
M  V30 2015 N 182.47 0.509207 -5.4121 0
M  V30 2016 H 186.272 -0.173856 -2.93385 0
M  V30 2017 H 183.786 -0.19633 -1.61209 0
M  V30 2018 H 185.783 2.21738 -3.53041 0
M  V30 2019 H 184.443 2.23648 -2.35397 0
M  V30 2020 H 185.454 -0.151151 -5.17679 0
M  V30 2021 H 182.131 1.95679 -3.68803 0
M  V30 2022 H 183.521 -0.765572 -6.67524 0
M  V30 2023 N 186.241 1.57166 -0.116904 0
M  V30 2024 C 187.151 2.18745 0.847812 0
M  V30 2025 C 188.167 1.163 1.29423 0
M  V30 2026 O 189.343 1.48761 1.35765 0
M  V30 2027 C 186.408 2.77307 2.0809 0
M  V30 2028 C 185.469 3.94781 1.68661 0
M  V30 2029 C 184.702 4.50541 2.86091 0
M  V30 2030 O 184.925 4.05202 4.01456 0
M  V30 2031 O 183.859 5.41256 2.63298 0
M  V30 2032 H 187.685 3.01632 0.353778 0
M  V30 2033 H 185.27 1.49005 0.108599 0
M  V30 2034 H 187.152 3.14647 2.80313 0
M  V30 2035 H 185.827 1.97452 2.56504 0
M  V30 2036 H 184.734 3.62214 0.935518 0
M  V30 2037 H 186.067 4.76065 1.24991 0
M  V30 2038 N 187.719 -0.156864 1.56817 0
M  V30 2039 C 188.649 -1.19589 2.00551 0
M  V30 2040 C 189.63 -1.4536 0.883426 0
M  V30 2041 O 190.815 -1.56449 1.15054 0
M  V30 2042 C 187.945 -2.53143 2.37773 0
M  V30 2043 C 186.899 -2.41913 3.53075 0
M  V30 2044 C 186.225 -3.80088 3.76081 0
M  V30 2045 C 187.525 -1.91157 4.86062 0
M  V30 2046 H 189.219 -0.832293 2.87599 0
M  V30 2047 H 186.765 -0.398918 1.38364 0
M  V30 2048 H 188.718 -3.26047 2.66967 0
M  V30 2049 H 187.442 -2.91319 1.4765 0
M  V30 2050 H 186.101 -1.71462 3.24031 0
M  V30 2051 H 185.749 -4.15683 2.83225 0
M  V30 2052 H 185.449 -3.73439 4.53671 0
M  V30 2053 H 186.973 -4.54556 4.0769 0
M  V30 2054 H 188.387 -2.53846 5.14038 0
M  V30 2055 H 186.784 -1.95422 5.67389 0
M  V30 2056 H 187.854 -0.866673 4.77092 0
M  V30 2057 N 189.197 -1.51736 -0.425897 0
M  V30 2058 C 190.445 -1.64644 -1.17204 0
M  V30 2059 C 190.766 -0.370486 -1.91448 0
M  V30 2060 O 190.036 0.614088 -1.86026 0
M  V30 2061 H 188.616 -0.606819 -0.435638 0
M  V30 2062 H 191.278 -1.88713 -0.487177 0
M  V30 2063 H 190.374 -2.47958 -1.89534 0
M  V30 2064 N 190.675 0.682077 -1.42076 0
M  V30 2065 C 191.923 1.4393 -1.41876 0
M  V30 2066 C 192.244 1.94971 -0.0335599 0
M  V30 2067 O 191.514 1.72591 0.926773 0
M  V30 2068 H 190.094 0.534085 -0.522267 0
M  V30 2069 H 192.756 0.806427 -1.77434 0
M  V30 2070 H 191.852 2.29588 -2.11414 0
M  V30 2071 N 192.153 1.28127 0.917671 0
M  V30 2072 C 193.083 1.14248 2.03641 0
M  V30 2073 C 194.064 0.0412748 1.7005 0
M  V30 2074 O 195.249 0.217566 1.92977 0
M  V30 2075 C 192.379 0.799431 3.37974 0
M  V30 2076 C 191.333 1.85497 3.85713 0
M  V30 2077 C 190.659 1.36565 5.16966 0
M  V30 2078 C 191.959 3.26085 4.08002 0
M  V30 2079 H 193.653 2.07835 2.15511 0
M  V30 2080 H 191.199 1.00064 1.03553 0
M  V30 2081 H 193.152 0.689114 4.15727 0
M  V30 2082 H 191.876 -0.172145 3.26146 0
M  V30 2083 H 190.535 1.95437 3.10161 0
M  V30 2084 H 190.183 0.383253 5.01538 0
M  V30 2085 H 189.883 2.07143 5.49878 0
M  V30 2086 H 191.407 1.26848 5.97279 0
M  V30 2087 H 192.821 3.19089 4.76293 0
M  V30 2088 H 191.218 3.94462 4.52238 0
M  V30 2089 H 192.288 3.70394 3.12948 0
M  V30 2090 N 193.631 -1.12557 1.10312 0
M  V30 2091 C 194.879 -1.83675 0.843091 0
M  V30 2092 C 195.2 -1.84435 -0.633131 0
M  V30 2093 O 194.47 -1.30657 -1.45964 0
M  V30 2094 H 193.05 -0.680138 0.308904 0
M  V30 2095 H 195.712 -1.36301 1.39313 0
M  V30 2096 H 194.808 -2.87908 1.2048 0
M  V30 2097 N 195.109 -0.891671 -1.2995 0
M  V30 2098 C 196.056 -0.361736 -2.27948 0
M  V30 2099 C 197.026 0.551761 -1.56668 0
M  V30 2100 O 198.211 0.478736 -1.84696 0
M  V30 2101 C 195.351 0.411825 -3.42634 0
M  V30 2102 C 194.464 -0.531651 -4.28716 0
M  V30 2103 C 193.599 0.258167 -5.30572 0
M  V30 2104 C 192.638 -0.680349 -6.08307 0
M  V30 2105 N 191.775 0.0745613 -7.0206 0
M  V30 2106 H 196.615 -1.20254 -2.72659 0
M  V30 2107 H 194.152 -0.604352 -1.34112 0
M  V30 2108 H 196.11 0.876304 -4.07893 0
M  V30 2109 H 194.74 1.21715 -2.98974 0
M  V30 2110 H 193.792 -1.11463 -3.63703 0
M  V30 2111 H 195.104 -1.25038 -4.82874 0
M  V30 2112 H 194.258 0.784204 -6.0161 0
M  V30 2113 H 192.997 1.01008 -4.77126 0
M  V30 2114 H 192.002 -1.21796 -5.3614 0
M  V30 2115 H 193.227 -1.43145 -6.63842 0
M  V30 2116 H 191.173 0.808883 -6.50994 0
M  V30 2117 H 191.09 -0.584409 -7.53738 0
M  V30 2118 H 192.358 0.581123 -7.77331 0
M  V30 2119 N 196.587 1.43421 -0.653314 0
M  V30 2120 C 197.864 1.95361 -0.0966581 0
M  V30 2121 C 198.244 1.59461 1.38331 0
M  V30 2122 O 197.592 0.879777 2.10884 0
M  V30 2123 C 197.802 3.47311 -0.342988 0
M  V30 2124 C 199.15 4.23875 -0.24798 0
M  V30 2125 O 200.174 3.55133 -0.275553 0
M  V30 2126 O 199.033 5.4623 -0.171771 0
M  V30 2127 H 196.127 0.826945 0.00956291 0
M  V30 2128 H 198.673 1.5336 -0.726558 0
M  V30 2129 H 197.445 3.66569 -1.36906 0
M  V30 2130 H 197.068 3.9631 0.319975 0
M  V30 2131 N 198.065 0.39524 1.52563 0
M  V30 2132 C 199.012 -0.437036 2.26624 0
M  V30 2133 C 199.982 -1.05281 1.28472 0
M  V30 2134 O 201.167 -1.07971 1.57311 0
M  V30 2135 C 198.307 -1.55524 3.08069 0
M  V30 2136 C 197.42 -0.961745 4.21158 0
M  V30 2137 C 196.555 -2.05149 4.89987 0
M  V30 2138 C 195.594 -1.4342 5.95061 0
M  V30 2139 N 194.731 -2.46351 6.57462 0
M  V30 2140 H 199.571 0.200976 2.97322 0
M  V30 2141 H 197.108 0.110944 1.46681 0
M  V30 2142 H 199.066 -2.21437 3.53584 0
M  V30 2143 H 197.696 -2.16348 2.3957 0
M  V30 2144 H 196.748 -0.192048 3.79915 0
M  V30 2145 H 198.06 -0.470701 4.96574 0
M  V30 2146 H 197.214 -2.78819 5.38837 0
M  V30 2147 H 195.953 -2.57615 4.14109 0
M  V30 2148 H 194.958 -0.682774 5.45544 0
M  V30 2149 H 196.183 -0.917416 6.72875 0
M  V30 2150 H 194.129 -2.97975 5.8442 0
M  V30 2151 H 194.046 -2.02019 7.28508 0
M  V30 2152 H 195.314 -3.19633 7.10954 0
M  V30 2153 N 199.544 -1.57102 0.125237 0
M  V30 2154 C 200.792 -1.95021 -0.530198 0
M  V30 2155 C 201.113 -1.00982 -1.66816 0
M  V30 2156 O 200.383 -0.0672693 -1.95784 0
M  V30 2157 H 198.963 -0.720046 -0.198853 0
M  V30 2158 H 201.625 -1.93916 0.19564 0
M  V30 2159 H 200.721 -2.98211 -0.920681 0
M  V30 2160 N 201.022 0.148545 -1.56898 0
M  V30 2161 C 202.433 0.708766 -1.72723 0
M  V30 2162 C 202.784 1.81734 -0.739395 0
M  V30 2163 O 201.909 2.16194 0.0943169 0
M  V30 2164 C 202.504 1.29245 -3.13179 0
M  V30 2165 C 201.063 1.79925 -3.30611 0
M  V30 2166 C 200.21 0.687111 -2.68652 0
M  V30 2167 H 203.161 -0.0771063 -1.58513 0
M  V30 2168 H 203.182 2.16224 -3.13093 0
M  V30 2169 H 202.694 0.485382 -3.85053 0
M  V30 2170 H 200.795 2.63203 -2.63732 0
M  V30 2171 H 200.908 1.92903 -4.38549 0
M  V30 2172 H 199.272 1.11335 -2.29078 0
M  V30 2173 H 200.055 -0.108483 -3.43129 0
M  V30 2174 N 202.5 1.5196 0.417844 0
M  V30 2175 C 203.748 1.65263 1.16329 0
M  V30 2176 C 204.069 0.380634 1.91249 0
M  V30 2177 O 203.339 -0.604214 1.86349 0
M  V30 2178 H 201.919 0.60912 0.432414 0
M  V30 2179 H 204.581 1.88969 0.477162 0
M  V30 2180 H 203.677 2.4896 1.88217 0
M  V30 2181 N 203.978 -0.674533 1.42435 0
M  V30 2182 C 205.394 -0.98769 1.25367 0
M  V30 2183 C 205.594 -2.00879 0.158044 0
M  V30 2184 O 204.65 -2.48075 -0.470633 0
M  V30 2185 C 205.963 -1.49224 2.6106 0
M  V30 2186 C 207.511 -1.61 2.68417 0
M  V30 2187 C 207.986 -2.14852 4.04478 0
M  V30 2188 N 209.477 -2.22185 4.06434 0
M  V30 2189 C 210.212 -2.64928 5.08528 0
M  V30 2190 N 209.708 -3.07121 6.21006 0
M  V30 2191 N 211.501 -2.64679 4.95885 0
M  V30 2192 H 203.652 0.00152503 2.124 0
M  V30 2193 H 205.915 -0.0618434 0.945981 0
M  V30 2194 H 205.621 -0.816453 3.42092 0
M  V30 2195 H 205.495 -2.47094 2.84999 0
M  V30 2196 H 207.882 -2.27686 1.87732 0
M  V30 2197 H 207.963 -0.616195 2.48267 0
M  V30 2198 H 207.607 -1.48775 4.85622 0
M  V30 2199 H 207.537 -3.15024 4.2198 0
M  V30 2200 H 210.028 -1.92435 3.25234 0
M  V30 2201 H 210.341 -3.38423 6.94759 0
M  V30 2202 H 208.686 -3.04978 6.24511 0
M  V30 2203 H 211.877 -2.31078 4.07088 0
M  V30 2204 H 212.05 -2.9767 5.75584 0
M  V30 2205 N 205.456 -1.28612 -0.910864 0
M  V30 2206 C 206.703 -1.15934 -1.66029 0
M  V30 2207 C 207.031 0.291483 -1.92303 0
M  V30 2208 O 206.286 1.22816 -1.52364 0
M  V30 2209 C 206.585 -1.90624 -3.0232 0
M  V30 2210 C 206.251 -3.40405 -2.95695 0
M  V30 2211 C 204.913 -3.81255 -2.93595 0
M  V30 2212 C 207.265 -4.359 -2.85728 0
M  V30 2213 C 204.593 -5.15936 -2.79334 0
M  V30 2214 C 206.945 -5.70657 -2.73007 0
M  V30 2215 C 205.609 -6.10779 -2.69267 0
M  V30 2216 H 204.879 -0.424234 -0.607541 0
M  V30 2217 H 207.526 -1.5942 -1.06101 0
M  V30 2218 H 205.831 -1.39696 -3.6605 0
M  V30 2219 H 207.528 -1.78228 -3.59215 0
M  V30 2220 H 204.118 -3.07927 -2.98125 0
M  V30 2221 H 208.302 -4.053 -2.86436 0
M  V30 2222 H 203.558 -5.46146 -2.74835 0
M  V30 2223 H 207.732 -6.44311 -2.64264 0
M  V30 2224 H 205.359 -7.1509 -2.57974 0
M  V30 2225 N 206.934 1.1197 -1.10907 0
M  V30 2226 C 208.211 1.79959 -0.766432 0
M  V30 2227 C 208.591 1.97466 0.746363 0
M  V30 2228 O 207.939 1.55491 1.67436 0
M  V30 2229 C 208.149 3.14009 -1.52314 0
M  V30 2230 C 209.497 3.89134 -1.69883 0
M  V30 2231 O 210.521 3.2368 -1.48692 0
M  V30 2232 O 209.38 5.06572 -2.05054 0
M  V30 2233 H 206.474 0.779208 -0.277062 0
M  V30 2234 H 209.02 1.18762 -1.21217 0
M  V30 2235 H 207.792 2.96587 -2.55249 0
M  V30 2236 H 207.415 3.82915 -1.07059 0
M  V30 2237 N 208.412 0.89855 1.29475 0
M  V30 2238 C 209.322 0.379974 2.31502 0
M  V30 2239 C 210.338 -0.524695 1.659 0
M  V30 2240 O 211.514 -0.414551 1.97087 0
M  V30 2241 C 208.579 -0.385138 3.44554 0
M  V30 2242 C 207.64 0.550914 4.2575 0
M  V30 2243 C 206.873 -0.177778 5.33404 0
M  V30 2244 O 207.096 -1.40189 5.52904 0
M  V30 2245 O 206.03 0.479106 5.9999 0
M  V30 2246 H 209.856 1.22639 2.77837 0
M  V30 2247 H 207.441 0.662834 1.33891 0
M  V30 2248 H 209.323 -0.817841 4.13388 0
M  V30 2249 H 207.998 -1.20763 3.0033 0
M  V30 2250 H 206.905 1.03271 3.59564 0
M  V30 2251 H 208.238 1.33979 4.73614 0
M  V30 2252 N 209.89 -1.43072 0.660911 0
M  V30 2253 C 210.838 -2.32569 -0.0378199 0
M  V30 2254 C 211.832 -1.49046 -0.805092 0
M  V30 2255 O 213.038 -1.65206 -0.714624 0
M  V30 2256 H 209.413 -0.75136 -0.031019 0
M  V30 2257 H 211.384 -2.89216 0.734609 0
M  V30 2258 C 210.133 -3.33453 -0.985124 0
M  V30 2259 H 209.456 -3.97752 -0.404147 0
M  V30 2260 H 210.896 -3.98691 -1.44297 0
M  V30 2261 C 209.355 -2.64642 -2.08486 0
M  V30 2262 O 209.885 -2.46776 -3.16961 0
M  V30 2263 N 208.091 -2.23891 -1.8526 0
M  V30 2264 H 207.638 -2.38621 -0.970449 0
M  V30 2265 H 207.596 -1.78181 -2.59034 0
M  V30 2266 N 211.368 -0.403325 -1.52352 0
M  V30 2267 C 212.616 0.174003 -2.0135 0
M  V30 2268 C 212.937 1.46139 -1.29106 0
M  V30 2269 O 212.207 1.91448 -0.415253 0
M  V30 2270 H 210.787 0.0672911 -0.743963 0
M  V30 2271 H 213.449 -0.538235 -1.87321 0
M  V30 2272 H 212.545 0.374254 -3.09848 0
M  V30 2273 N 212.846 1.57033 -0.133567 0
M  V30 2274 C 214.092 1.96764 0.515326 0
M  V30 2275 C 214.447 1.01653 1.63353 0
M  V30 2276 O 213.74 0.0491374 1.91537 0
M  V30 2277 C 213.934 3.40674 1.08057 0
M  V30 2278 C 213.763 4.49696 0.0186522 0
M  V30 2279 C 212.533 5.03567 -0.418174 0
M  V30 2280 C 214.731 5.08536 -0.767809 0
M  V30 2281 N 212.713 5.9618 -1.46434 0
M  V30 2282 C 214.084 5.97231 -1.6648 0
M  V30 2283 C 216.139 4.9115 -0.817087 0
M  V30 2284 C 214.842 6.70401 -2.60681 0
M  V30 2285 C 216.868 5.65012 -1.74687 0
M  V30 2286 C 216.23 6.53403 -2.63141 0
M  V30 2287 H 212.329 0.765919 0.157771 0
M  V30 2288 H 214.913 1.93395 -0.22506 0
M  V30 2289 H 213.084 3.44662 1.79061 0
M  V30 2290 H 214.816 3.67495 1.69497 0
M  V30 2291 H 211.571 4.73594 -0.0229803 0
M  V30 2292 H 211.995 6.47191 -1.98678 0
M  V30 2293 H 216.637 4.22543 -0.147326 0
M  V30 2294 H 214.355 7.38245 -3.28664 0
M  V30 2295 H 217.941 5.53559 -1.79063 0
M  V30 2296 H 216.821 7.09556 -3.33917 0
M  V30 2297 N 214.325 -0.140222 1.56975 0
M  V30 2298 C 215.235 -1.19223 2.02047 0
M  V30 2299 C 216.251 -1.46612 0.937062 0
M  V30 2300 O 217.427 -1.58148 1.24704 0
M  V30 2301 C 214.492 -2.50414 2.39778 0
M  V30 2302 C 213.553 -2.30612 3.621 0
M  V30 2303 C 212.786 -3.55547 3.98023 0
M  V30 2304 O 213.009 -4.62004 3.34528 0
M  V30 2305 O 211.943 -3.47808 4.91237 0
M  V30 2306 H 215.769 -0.839559 2.91865 0
M  V30 2307 H 213.354 -0.349453 1.45256 0
M  V30 2308 H 215.236 -3.27747 2.64877 0
M  V30 2309 H 213.911 -2.85198 1.53114 0
M  V30 2310 H 212.818 -1.51207 3.4218 0
M  V30 2311 H 214.151 -2.00741 4.49404 0
M  V30 2312 N 215.803 -1.52179 -0.40978 0
M  V30 2313 C 216.751 -1.76086 -1.51975 0
M  V30 2314 C 217.745 -0.627964 -1.57331 0
M  V30 2315 O 218.951 -0.809993 -1.60745 0
M  V30 2316 H 215.326 -0.556829 -0.505416 0
M  V30 2317 H 217.297 -2.69077 -1.28996 0
M  V30 2318 C 216.046 -1.92799 -2.8935 0
M  V30 2319 H 215.369 -2.79392 -2.85972 0
M  V30 2320 H 216.809 -2.13527 -3.66309 0
M  V30 2321 C 215.268 -0.694923 -3.29655 0
M  V30 2322 O 215.798 0.13751 -4.01465 0
M  V30 2323 N 214.004 -0.53101 -2.85707 0
M  V30 2324 H 213.551 -1.20952 -2.27439 0
M  V30 2325 H 213.509 0.292718 -3.13034 0
M  V30 2326 N 217.281 0.66697 -1.42791 0
M  V30 2327 C 218.229 1.80157 -1.47127 0
M  V30 2328 C 219.223 1.65825 -0.346199 0
M  V30 2329 O 220.429 1.72338 -0.519572 0
M  V30 2330 H 216.804 0.594158 -0.460956 0
M  V30 2331 H 218.775 1.73619 -2.42692 0
M  V30 2332 C 217.524 3.18351 -1.39813 0
M  V30 2333 H 216.847 3.3001 -2.25684 0
M  V30 2334 H 218.287 3.97736 -1.46908 0
M  V30 2335 C 216.746 3.36707 -0.11391 0
M  V30 2336 O 217.276 3.93027 0.830241 0
M  V30 2337 N 215.482 2.90586 -0.0285295 0
M  V30 2338 H 215.029 2.4494 -0.79764 0
M  V30 2339 H 214.987 3.03245 0.830063 0
M  V30 2340 N 218.759 1.29093 0.90403 0
M  V30 2341 C 219.669 1.15727 2.0407 0
M  V30 2342 C 220.685 0.0815308 1.73809 0
M  V30 2343 O 221.861 0.292749 1.99261 0
M  V30 2344 C 218.926 0.830424 3.36608 0
M  V30 2345 C 217.987 1.98955 3.80415 0
M  V30 2346 C 217.22 1.6782 5.06628 0
M  V30 2347 O 217.443 0.597105 5.67266 0
M  V30 2348 O 216.377 2.52486 5.46383 0
M  V30 2349 H 220.203 2.11171 2.18267 0
M  V30 2350 H 217.788 1.08504 1.027 0
M  V30 2351 H 219.67 0.662521 4.16159 0
M  V30 2352 H 218.345 -0.0942678 3.23563 0
M  V30 2353 H 217.252 2.21267 3.01648 0
M  V30 2354 H 218.585 2.89529 3.98037 0
M  V30 2355 N 220.237 -1.11381 1.11499 0
M  V30 2356 C 221.187 -2.15555 0.74298 0
M  V30 2357 C 222.171 -1.58894 -0.253276 0
M  V30 2358 O 223.363 -1.76897 -0.0602918 0
M  V30 2359 C 220.492 -3.42782 0.188481 0
M  V30 2360 C 219.578 -4.064 1.21244 0
M  V30 2361 N 219.969 -4.44864 2.40685 0
M  V30 2362 C 218.267 -4.3333 1.05552 0
M  V30 2363 C 218.968 -4.94715 3.05994 0
M  V30 2364 N 217.944 -4.90909 2.33472 0
M  V30 2365 H 221.746 -2.43074 1.65203 0
M  V30 2366 H 219.26 -1.28401 0.994329 0
M  V30 2367 H 221.257 -4.16789 -0.0961693 0
M  V30 2368 H 219.917 -3.16727 -0.715149 0
M  V30 2369 H 220.928 -4.36876 2.78136 0
M  V30 2370 H 217.605 -4.1698 0.208372 0
M  V30 2371 H 218.995 -5.34103 4.07656 0
M  V30 2372 N 221.715 -0.905404 -1.28997 0
M  V30 2373 C 222.963 -0.533192 -1.9494 0
M  V30 2374 C 223.284 0.924618 -1.71685 0
M  V30 2375 O 222.554 1.65268 -1.05183 0
M  V30 2376 H 221.134 -0.194194 -0.721317 0
M  V30 2377 H 223.796 -1.15294 -1.57141 0
M  V30 2378 H 222.892 -0.72059 -3.03667 0
M  V30 2379 N 223.193 1.4272 -0.668489 0
M  V30 2380 C 224.423 2.05668 -0.196063 0
M  V30 2381 C 224.831 1.5028 1.14946 0
M  V30 2382 O 224.174 0.6348 1.72383 0
M  V30 2383 C 224.236 3.59469 -0.0468879 0
M  V30 2384 C 223.9 4.37518 -1.32012 0
M  V30 2385 C 224.897 4.68584 -2.25222 0
M  V30 2386 C 222.582 4.77266 -1.56596 0
M  V30 2387 C 224.576 5.38326 -3.41297 0
M  V30 2388 C 222.263 5.4675 -2.72962 0
M  V30 2389 C 223.261 5.77204 -3.65137 0
M  V30 2390 O 222.949 6.45264 -4.79468 0
M  V30 2391 H 222.681 0.669382 -0.0943599 0
M  V30 2392 H 225.235 1.83954 -0.913788 0
M  V30 2393 H 223.465 3.79817 0.726357 0
M  V30 2394 H 225.154 4.04071 0.384852 0
M  V30 2395 H 225.92 4.38382 -2.07477 0
M  V30 2396 H 221.799 4.52959 -0.857249 0
M  V30 2397 H 225.343 5.62014 -4.13263 0
M  V30 2398 H 221.24 5.76369 -2.90635 0
M  V30 2399 H 222.008 6.63753 -4.78931 0
M  V30 2400 N 224.671 0.411399 1.52136 0
M  V30 2401 C 225.581 -0.419774 2.30814 0
M  V30 2402 C 226.597 -1.0515 1.38634 0
M  V30 2403 O 227.773 -1.05252 1.71709 0
M  V30 2404 C 224.838 -1.52019 3.11594 0
M  V30 2405 C 223.899 -0.91129 4.19516 0
M  V30 2406 C 223.132 -1.95927 4.96436 0
M  V30 2407 O 223.355 -3.17775 4.73683 0
M  V30 2408 O 222.289 -1.56423 5.81219 0
M  V30 2409 H 226.115 0.221805 3.02889 0
M  V30 2410 H 223.7 0.174547 1.48377 0
M  V30 2411 H 225.582 -2.15898 3.61892 0
M  V30 2412 H 224.257 -2.14633 2.42311 0
M  V30 2413 H 223.164 -0.235157 3.7336 0
M  V30 2414 H 224.497 -0.32904 4.91099 0
M  V30 2415 N 226.149 -1.5696 0.141893 0
M  V30 2416 C 227.377 -2.00322 -0.517579 0
M  V30 2417 C 227.792 -1.02193 -1.58752 0
M  V30 2418 O 227.149 -0.0181619 -1.82491 0
M  V30 2419 C 227.2 -3.43618 -1.12289 0
M  V30 2420 O 226.921 -4.37995 -0.0956929 0
M  V30 2421 C 228.422 -4.02231 -1.86347 0
M  V30 2422 H 225.642 -0.657243 -0.135177 0
M  V30 2423 H 228.186 -2.03146 0.234973 0
M  V30 2424 H 226.341 -3.41662 -1.82609 0
M  V30 2425 H 226.755 -5.21729 -0.538469 0
M  V30 2426 H 228.229 -5.04509 -2.23997 0
M  V30 2427 H 228.706 -3.42655 -2.74744 0
M  V30 2428 H 229.312 -4.07802 -1.20737 0
M  V30 2429 N 227.627 0.131896 -1.57047 0
M  V30 2430 C 229.043 0.485031 -1.52051 0
M  V30 2431 C 229.243 1.82563 -0.85281 0
M  V30 2432 O 228.299 2.48817 -0.429694 0
M  V30 2433 C 229.612 0.481409 -2.96821 0
M  V30 2434 C 231.16 0.565868 -3.07842 0
M  V30 2435 C 231.635 0.592762 -4.54148 0
M  V30 2436 N 233.126 0.654564 -4.58552 0
M  V30 2437 C 233.861 0.696608 -5.69153 0
M  V30 2438 N 233.357 0.697078 -6.89284 0
M  V30 2439 N 235.15 0.738639 -5.57226 0
M  V30 2440 H 227.301 -0.746664 -1.98843 0
M  V30 2441 H 229.564 -0.273999 -0.90754 0
M  V30 2442 H 229.27 -0.435731 -3.4899 0
M  V30 2443 H 229.144 1.3139 -3.53577 0
M  V30 2444 H 231.531 1.47343 -2.55684 0
M  V30 2445 H 231.612 -0.29406 -2.54104 0
M  V30 2446 H 231.256 -0.310701 -5.06949 0
M  V30 2447 H 231.186 1.46939 -5.05684 0
M  V30 2448 H 233.677 0.660887 -3.72076 0
M  V30 2449 H 233.99 0.731426 -7.69331 0
M  V30 2450 H 232.335 0.66471 -6.91814 0
M  V30 2451 H 235.526 0.735545 -4.62285 0
M  V30 2452 H 235.699 0.767938 -6.43434 0
M  V30 2453 N 229.106 1.52395 0.401703 0
M  V30 2454 C 230.016 1.7917 1.51444 0
M  V30 2455 C 231.032 0.677691 1.6026 0
M  V30 2456 O 232.208 0.963909 1.76835 0
M  V30 2457 C 229.273 1.94347 2.87107 0
M  V30 2458 C 228.334 3.18257 2.88116 0
M  V30 2459 C 227.567 3.32701 4.17308 0
M  V30 2460 O 227.79 2.52238 5.11598 0
M  V30 2461 O 226.724 4.25891 4.25324 0
M  V30 2462 H 230.55 2.73633 1.31752 0
M  V30 2463 H 228.135 1.3733 0.588296 0
M  V30 2464 H 230.017 2.06109 3.67555 0
M  V30 2465 H 228.692 1.03073 3.06851 0
M  V30 2466 H 227.599 3.11947 2.06494 0
M  V30 2467 H 228.932 4.09336 2.73322 0
M  V30 2468 N 230.584 -0.659388 1.43143 0
M  V30 2469 C 231.532 -1.79374 1.4808 0
M  V30 2470 C 232.526 -1.65639 0.354988 0
M  V30 2471 O 233.732 -1.7206 0.528704 0
M  V30 2472 H 230.107 -0.591705 0.4641 0
M  V30 2473 H 232.078 -1.72329 2.43609 0
M  V30 2474 C 230.827 -3.17606 1.41499 0
M  V30 2475 H 230.15 -3.28809 2.27431 0
M  V30 2476 H 231.59 -3.96951 1.49015 0
M  V30 2477 C 230.049 -3.36642 0.131765 0
M  V30 2478 O 230.579 -3.93461 -0.809386 0
M  V30 2479 N 228.785 -2.90567 0.0439396 0
M  V30 2480 H 228.332 -2.44513 0.810619 0
M  V30 2481 H 228.29 -3.03681 -0.813969 0
M  V30 2482 N 232.062 -1.29571 -0.897171 0
M  V30 2483 C 233.025 -1.14913 -1.98312 0
M  V30 2484 C 234.025 -0.0838629 -1.60581 0
M  V30 2485 O 235.215 -0.331006 -1.71026 0
M  V30 2486 C 232.347 -0.757835 -3.3237 0
M  V30 2487 H 233.54 -2.11377 -2.12743 0
M  V30 2488 H 231.093 -1.12793 -1.08201 0
M  V30 2489 H 231.828 0.206837 -3.2364 0
M  V30 2490 H 231.613 -1.52755 -3.61121 0
M  V30 2491 H 233.103 -0.678408 -4.12053 0
M  V30 2492 N 233.54 1.10788 -1.12088 0
M  V30 2493 C 234.45 2.20599 -0.798338 0
M  V30 2494 C 235.466 1.72712 0.21135 0
M  V30 2495 O 236.642 2.01348 0.0458477 0
M  V30 2496 C 233.707 3.45771 -0.253674 0
M  V30 2497 C 232.768 4.08411 -1.32283 0
M  V30 2498 C 232.001 5.27608 -0.80406 0
M  V30 2499 O 232.224 5.69241 0.363478 0
M  V30 2500 O 231.158 5.8101 -1.57198 0
M  V30 2501 H 234.984 2.50614 -1.7154 0
M  V30 2502 H 232.569 1.19454 -0.897275 0
M  V30 2503 H 234.451 4.21376 0.0453691 0
M  V30 2504 H 233.126 3.1739 0.636005 0
M  V30 2505 H 232.033 3.34507 -1.67499 0
M  V30 2506 H 233.366 4.40986 -2.18614 0
M  V30 2507 N 235.018 0.912232 1.28515 0
M  V30 2508 C 235.965 0.397954 2.27343 0
M  V30 2509 C 236.935 -0.526766 1.57526 0
M  V30 2510 O 238.12 -0.449292 1.85435 0
M  V30 2511 C 235.26 -0.357263 3.43246 0
M  V30 2512 C 234.373 0.599788 4.27816 0
M  V30 2513 C 233.508 -0.173725 5.30916 0
M  V30 2514 C 232.547 0.777039 6.07148 0
M  V30 2515 N 231.684 0.0371398 7.0209 0
M  V30 2516 H 236.524 1.24577 2.70711 0
M  V30 2517 H 234.061 0.625612 1.33133 0
M  V30 2518 H 236.019 -0.8113 4.09236 0
M  V30 2519 H 234.649 -1.16943 3.00872 0
M  V30 2520 H 233.701 1.17235 3.61884 0
M  V30 2521 H 235.013 1.32704 4.80823 0
M  V30 2522 H 234.167 -0.688394 6.02782 0
M  V30 2523 H 232.906 -0.934041 4.78672 0
M  V30 2524 H 231.911 1.3031 5.34134 0
M  V30 2525 H 233.136 1.53689 6.61481 0
M  V30 2526 H 231.082 -0.705213 6.52198 0
M  V30 2527 H 230.999 0.704249 7.52713 0
M  V30 2528 H 232.267 -0.457383 7.78157 0
M  V30 2529 N 236.496 -1.42363 0.676048 0
M  V30 2530 C 237.459 -2.29199 0.00766941 0
M  V30 2531 C 238.459 -1.43389 -0.727745 0
M  V30 2532 O 239.649 -1.64764 -0.56556 0
M  V30 2533 C 236.781 -3.2591 -0.999785 0
M  V30 2534 H 237.974 -2.89794 0.771988 0
M  V30 2535 H 235.527 -1.50024 0.438468 0
M  V30 2536 H 236.262 -2.70256 -1.79255 0
M  V30 2537 H 236.047 -3.89202 -0.475829 0
M  V30 2538 H 237.537 -3.91028 -1.46583 0
M  V30 2539 N 237.974 -0.419461 -1.51915 0
M  V30 2540 C 238.937 0.389116 -2.25873 0
M  V30 2541 C 239.937 0.964924 -1.28631 0
M  V30 2542 O 241.127 0.842179 -1.52489 0
M  V30 2543 C 238.259 1.54874 -3.03689 0
M  V30 2544 H 239.452 -0.258799 -2.98781 0
M  V30 2545 H 237.005 -0.172209 -1.55348 0
M  V30 2546 H 237.74 2.23323 -2.35154 0
M  V30 2547 H 237.525 1.14223 -3.75094 0
M  V30 2548 H 239.015 2.12046 -3.59759 0
M  V30 2549 N 239.452 1.56882 -0.150215 0
M  V30 2550 C 240.698 1.96518 0.500834 0
M  V30 2551 C 241.031 1.03527 1.64304 0
M  V30 2552 O 240.306 0.0782751 1.94342 0
M  V30 2553 C 240.589 3.45822 1.00395 0
M  V30 2554 C 240.442 4.49591 -0.136983 0
M  V30 2555 C 241.761 3.97704 1.88467 0
M  V30 2556 H 238.88 0.714535 0.18058 0
M  V30 2557 H 241.522 1.88577 -0.232091 0
M  V30 2558 H 239.672 3.5272 1.62851 0
M  V30 2559 H 241.344 4.5477 -0.77343 0
M  V30 2560 H 239.587 4.26441 -0.795652 0
M  V30 2561 H 240.258 5.51402 0.256815 0
M  V30 2562 H 242.734 3.93304 1.35834 0
M  V30 2563 H 241.61 5.0263 2.20578 0
M  V30 2564 H 241.871 3.40252 2.82279 0
M  V30 2565 N 240.93 -0.123565 1.57115 0
M  V30 2566 C 241.877 -1.15177 2.00007 0
M  V30 2567 C 242.847 -1.41403 0.871454 0
M  V30 2568 O 244.032 -1.53346 1.13533 0
M  V30 2569 C 241.172 -2.47436 2.40561 0
M  V30 2570 C 240.285 -2.28184 3.66819 0
M  V30 2571 C 239.42 -3.53641 3.96373 0
M  V30 2572 C 238.459 -3.29528 5.15827 0
M  V30 2573 N 237.596 -4.47175 5.41275 0
M  V30 2574 H 242.436 -0.779008 2.87638 0
M  V30 2575 H 239.973 -0.373166 1.42288 0
M  V30 2576 H 241.931 -3.24584 2.62109 0
M  V30 2577 H 240.561 -2.82614 1.55978 0
M  V30 2578 H 239.613 -1.41976 3.52912 0
M  V30 2579 H 240.925 -2.0634 4.5412 0
M  V30 2580 H 240.079 -4.39209 4.18545 0
M  V30 2581 H 238.818 -3.78512 3.07538 0
M  V30 2582 H 237.823 -2.42349 4.93505 0
M  V30 2583 H 239.048 -3.06031 6.06236 0
M  V30 2584 H 236.994 -4.72175 4.55397 0
M  V30 2585 H 236.911 -4.28419 6.22891 0
M  V30 2586 H 238.179 -5.3389 5.67963 0
M  V30 2587 N 242.408 -1.52605 -0.393616 0
M  V30 2588 C 243.371 -1.76415 -1.46323 0
M  V30 2589 C 244.371 -0.634126 -1.47768 0
M  V30 2590 O 245.561 -0.902142 -1.4902 0
M  V30 2591 C 242.693 -1.8607 -2.85641 0
M  V30 2592 H 243.886 -2.71916 -1.26498 0
M  V30 2593 H 241.439 -1.43257 -0.625073 0
M  V30 2594 H 242.174 -0.925378 -3.10817 0
M  V30 2595 H 241.959 -2.68235 -2.85993 0
M  V30 2596 H 243.449 -2.06179 -3.63153 0
M  V30 2597 N 243.887 0.651787 -1.4349 0
M  V30 2598 C 244.817 1.77621 -1.51569 0
M  V30 2599 C 245.798 1.66022 -0.370253 0
M  V30 2600 O 246.983 1.85095 -0.587658 0
M  V30 2601 C 244.113 3.16056 -1.43966 0
M  V30 2602 C 243.067 3.4242 -2.56774 0
M  V30 2603 C 242.393 4.8067 -2.34223 0
M  V30 2604 C 243.693 3.37023 -3.99015 0
M  V30 2605 H 245.387 1.71117 -2.45681 0
M  V30 2606 H 242.933 0.821825 -1.18246 0
M  V30 2607 H 244.886 3.94472 -1.48221 0
M  V30 2608 H 243.61 3.23293 -0.463586 0
M  V30 2609 H 242.269 2.66375 -2.51873 0
M  V30 2610 H 241.917 4.84585 -1.34856 0
M  V30 2611 H 241.617 4.9927 -3.09844 0
M  V30 2612 H 243.141 5.61342 -2.40265 0
M  V30 2613 H 244.555 4.05374 -4.05395 0
M  V30 2614 H 242.952 3.67159 -4.74673 0
M  V30 2615 H 244.022 2.3518 -4.2405 0
M  V30 2616 N 245.365 1.30045 0.890287 0
M  V30 2617 C 246.613 1.18327 1.63839 0
M  V30 2618 C 246.934 -0.263455 1.93212 0
M  V30 2619 O 246.204 -1.17856 1.56482 0
M  V30 2620 H 244.784 0.434933 0.607324 0
M  V30 2621 H 247.446 1.631 1.06698 0
M  V30 2622 H 246.542 1.74024 2.59079 0
M  V30 2623 N 246.843 -1.10192 1.12674 0
M  V30 2624 C 248.12 -1.78717 0.794965 0
M  V30 2625 C 248.5 -1.98628 -0.714853 0
M  V30 2626 O 247.848 -1.58135 -1.64941 0
M  V30 2627 C 248.058 -3.11546 1.5729 0
M  V30 2628 C 249.406 -3.86382 1.76052 0
M  V30 2629 O 250.43 -3.21274 1.53823 0
M  V30 2630 O 249.289 -5.03246 2.13087 0
M  V30 2631 H 246.383 -0.774702 0.289423 0
M  V30 2632 H 248.929 -1.16819 1.23091 0
M  V30 2633 H 247.701 -2.92489 2.59935 0
M  V30 2634 H 247.324 -3.81164 1.13137 0
M  V30 2635 N 248.321 -0.919034 -1.28029 0
M  V30 2636 C 249.268 -0.410005 -2.27129 0
M  V30 2637 C 250.238 0.518405 -1.57803 0
M  V30 2638 O 251.423 0.439451 -1.8567 0
M  V30 2639 C 248.563 0.339054 -3.4343 0
M  V30 2640 C 247.676 -0.622468 -4.27492 0
M  V30 2641 C 246.811 0.145567 -5.31001 0
M  V30 2642 C 245.85 -0.809226 -6.06727 0
M  V30 2643 N 244.987 -0.0743728 -7.02061 0
M  V30 2644 H 249.827 -1.26011 -2.70047 0
M  V30 2645 H 247.364 -0.632663 -1.328 0
M  V30 2646 H 249.322 0.789586 -4.0966 0
M  V30 2647 H 247.952 1.15346 -3.01488 0
M  V30 2648 H 247.004 -1.19153 -3.61257 0
M  V30 2649 H 248.316 -1.35252 -4.80113 0
M  V30 2650 H 247.47 0.656417 -6.03139 0
M  V30 2651 H 246.209 0.908643 -4.79161 0
M  V30 2652 H 245.214 -1.3314 -5.33436 0
M  V30 2653 H 246.439 -1.57194 -6.60656 0
M  V30 2654 H 244.385 0.670616 -6.52563 0
M  V30 2655 H 244.302 -0.744157 -7.52329 0
M  V30 2656 H 245.57 0.416109 -7.78389 0
M  V30 2657 N 249.799 1.42003 -0.683588 0
M  V30 2658 C 250.709 2.34597 -0.0109075 0
M  V30 2659 C 251.725 1.55576 0.779245 0
M  V30 2660 O 252.901 1.88107 0.719555 0
M  V30 2661 C 249.966 3.34199 0.922588 0
M  V30 2662 C 249.027 4.29115 0.125984 0
M  V30 2663 C 248.26 5.23959 1.01502 0
M  V30 2664 O 248.483 5.23952 2.25456 0
M  V30 2665 O 247.417 6.00053 0.47111 0
M  V30 2666 H 251.243 2.93675 -0.773853 0
M  V30 2667 H 248.828 1.42654 -0.443861 0
M  V30 2668 H 250.71 3.95365 1.45823 0
M  V30 2669 H 249.385 2.77582 1.66523 0
M  V30 2670 H 248.292 3.71335 -0.453969 0
M  V30 2671 H 249.625 4.88798 -0.577736 0
M  V30 2672 N 251.277 0.427512 1.51691 0
M  V30 2673 C 252.526 -0.143679 2.01188 0
M  V30 2674 C 252.839 -1.44642 1.31674 0
M  V30 2675 O 254.045 -2.09997 1.72086 0
M  V30 2676 C 252.501 -0.306602 3.58592 0
M  V30 2677 C 252.109 0.985125 4.37035 0
M  V30 2678 C 253.853 -0.832091 4.16265 0
M  V30 2679 C 251.76 0.788382 5.86122 0
M  V30 2680 H 250.69 -0.0574701 0.751807 0
M  V30 2681 H 253.341 0.555772 1.74881 0
M  V30 2682 H 251.723 -1.06882 3.81303 0
M  V30 2683 H 252.897 1.75492 4.26074 0
M  V30 2684 H 251.212 1.4384 3.90767 0
M  V30 2685 H 253.809 -0.995617 5.25349 0
M  V30 2686 H 254.152 -1.81186 3.74803 0
M  V30 2687 H 254.685 -0.128444 3.97593 0
M  V30 2688 H 251.424 1.74025 6.31978 0
M  V30 2689 H 250.944 0.0582143 5.99772 0
M  V30 2690 H 252.623 0.437722 6.45518 0
M  V30 2691 N 252.755 -1.56801 0.158532 0
M  V30 2692 C 253.703 -2.18638 -0.793729 0
M  V30 2693 C 254.697 -1.14669 -1.24689 0
M  V30 2694 O 255.903 -1.32895 -1.21403 0
M  V30 2695 H 252.278 -0.700226 -0.274204 0
M  V30 2696 H 254.249 -2.97367 -0.248095 0
M  V30 2697 C 252.998 -2.83139 -2.0181 0
M  V30 2698 H 252.321 -3.62863 -1.67841 0
M  V30 2699 H 253.761 -3.29894 -2.66357 0
M  V30 2700 C 252.22 -1.82244 -2.83353 0
M  V30 2701 O 252.75 -1.3 -3.80083 0
M  V30 2702 N 250.956 -1.51288 -2.48114 0
M  V30 2703 H 250.503 -1.93964 -1.69516 0
M  V30 2704 H 250.461 -0.840296 -3.02963 0
M  V30 2705 N 254.233 0.115231 -1.57178 0
M  V30 2706 C 255.18 1.14115 -2.00615 0
M  V30 2707 C 256.15 1.40939 -0.878941 0
M  V30 2708 O 257.335 1.52741 -1.14345 0
M  V30 2709 C 254.475 2.46156 -2.4187 0
M  V30 2710 C 253.588 2.26236 -3.68024 0
M  V30 2711 C 252.723 3.51534 -3.98243 0
M  V30 2712 C 251.762 3.26787 -5.17568 0
M  V30 2713 N 250.899 4.44298 -5.43639 0
M  V30 2714 H 255.739 0.763743 -2.88047 0
M  V30 2715 H 253.276 0.365615 -1.42484 0
M  V30 2716 H 255.234 3.23189 -2.63827 0
M  V30 2717 H 253.864 2.81783 -1.57475 0
M  V30 2718 H 252.916 1.40102 -3.5366 0
M  V30 2719 H 254.228 2.03929 -4.55208 0
M  V30 2720 H 253.382 4.36984 -4.20868 0
M  V30 2721 H 252.121 3.76876 -3.09541 0
M  V30 2722 H 251.126 2.39729 -4.94783 0
M  V30 2723 H 252.351 3.02812 -6.0785 0
M  V30 2724 H 250.297 4.69754 -4.57895 0
M  V30 2725 H 250.214 4.25109 -6.25154 0
M  V30 2726 H 251.482 5.3087 -5.70786 0
M  V30 2727 N 255.711 1.52812 0.385517 0
M  V30 2728 C 256.936 1.72207 1.15583 0
M  V30 2729 C 257.361 0.441034 1.82857 0
M  V30 2730 O 256.719 -0.603465 1.70962 0
M  V30 2731 C 256.767 2.87476 2.17692 0
M  V30 2732 O 255.871 2.54693 3.24354 0
M  V30 2733 H 255.212 0.572526 0.336319 0
M  V30 2734 H 257.742 1.99618 0.448744 0
M  V30 2735 H 257.752 3.13072 2.6163 0
M  V30 2736 H 256.427 3.80408 1.68115 0
M  V30 2737 H 255.004 2.3985 2.85529 0
M  V30 2738 N 257.189 -0.644168 1.43834 0
M  V30 2739 C 258.419 -1.42939 1.49171 0
M  V30 2740 C 258.827 -1.88874 0.111048 0
M  V30 2741 O 258.17 -1.60656 -0.8908 0
M  V30 2742 C 258.232 -2.69151 2.38324 0
M  V30 2743 C 257.896 -2.45097 3.85715 0
M  V30 2744 C 258.893 -2.07747 4.76589 0
M  V30 2745 C 256.578 -2.59141 4.30292 0
M  V30 2746 C 258.572 -1.8475 6.10038 0
M  V30 2747 C 256.259 -2.35759 5.63792 0
M  V30 2748 C 257.257 -1.9862 6.53482 0
M  V30 2749 O 256.945 -1.75489 7.84512 0
M  V30 2750 H 256.677 -0.445271 0.508635 0
M  V30 2751 H 259.231 -0.79621 1.8934 0
M  V30 2752 H 257.461 -3.3506 1.93058 0
M  V30 2753 H 259.15 -3.31123 2.3476 0
M  V30 2754 H 259.916 -1.96465 4.43426 0
M  V30 2755 H 255.795 -2.87022 3.60749 0
M  V30 2756 H 259.339 -1.55686 6.80006 0
M  V30 2757 H 255.236 -2.46646 5.9652 0
M  V30 2758 H 256.004 -1.89841 7.9618 0
M  V30 2759 N 258.668 -1.30515 -0.883378 0
M  V30 2760 C 259.896 -1.22359 -1.66841 0
M  V30 2761 C 260.311 0.213296 -1.87591 0
M  V30 2762 O 259.668 1.14075 -1.42454 0
M  V30 2763 C 259.719 -1.95011 -3.04389 0
M  V30 2764 O 259.44 -3.3309 -2.84575 0
M  V30 2765 C 260.941 -1.93532 -3.98824 0
M  V30 2766 H 258.161 -0.423371 -0.520575 0
M  V30 2767 H 260.705 -1.72167 -1.10357 0
M  V30 2768 H 258.86 -1.48997 -3.57601 0
M  V30 2769 H 259.274 -3.69907 -3.71846 0
M  V30 2770 H 260.748 -2.48902 -4.92699 0
M  V30 2771 H 261.225 -0.914627 -4.29571 0
M  V30 2772 H 261.831 -2.39364 -3.51547 0
M  V30 2773 N 260.146 1.09593 -1.13257 0
M  V30 2774 C 261.395 1.81105 -0.887917 0
M  V30 2775 C 261.708 1.86563 0.587672 0
M  V30 2776 O 262.914 2.54367 0.949204 0
M  V30 2777 C 261.37 3.25338 -1.53895 0
M  V30 2778 C 260.978 3.28151 -3.04994 0
M  V30 2779 C 262.722 4.01617 -1.37492 0
M  V30 2780 C 260.629 4.66897 -3.6299 0
M  V30 2781 H 259.559 0.678661 -0.328534 0
M  V30 2782 H 262.21 1.23183 -1.36008 0
M  V30 2783 H 260.592 3.8331 -0.994446 0
M  V30 2784 H 261.766 2.79953 -3.66009 0
M  V30 2785 H 260.081 2.65361 -3.20893 0
M  V30 2786 H 262.678 5.04119 -1.78235 0
M  V30 2787 H 263.021 4.15072 -0.31957 0
M  V30 2788 H 263.554 3.50082 -1.88912 0
M  V30 2789 H 260.293 4.58643 -4.68323 0
M  V30 2790 H 259.813 5.15426 -3.06752 0
M  V30 2791 H 261.492 5.3587 -3.62563 0
M  V30 2792 N 261.624 0.925811 1.2754 0
M  V30 2793 C 262.849 0.580924 1.99098 0
M  V30 2794 C 263.274 -0.833555 1.68622 0
M  V30 2795 O 262.632 -1.55903 0.925422 0
M  V30 2796 C 262.68 0.811186 3.51358 0
M  V30 2797 O 261.784 -0.124129 4.12213 0
M  V30 2798 H 261.125 0.223873 0.625122 0
M  V30 2799 H 263.655 1.24455 1.62395 0
M  V30 2800 H 263.665 0.72601 4.01489 0
M  V30 2801 H 262.34 1.84227 3.72872 0
M  V30 2802 H 260.917 0.0108006 3.72898 0
M  V30 2803 N 263.102 -1.41638 0.69111 0
M  V30 2804 C 264.034 -2.29194 -0.0161523 0
M  V30 2805 C 265.047 -1.44549 -0.748955 0
M  V30 2806 O 266.236 -1.681 -0.6004 0
M  V30 2807 C 263.336 -3.22325 -1.0469 0
M  V30 2808 C 262.509 -4.35706 -0.384621 0
M  V30 2809 C 261.568 -5.09443 -1.31737 0
M  V30 2810 O 260.594 -5.63386 -0.811451 0
M  V30 2811 N 261.796 -5.16487 -2.64993 0
M  V30 2812 H 264.561 -2.90534 0.735523 0
M  V30 2813 H 262.122 -1.52742 0.53679 0
M  V30 2814 H 264.114 -3.68522 -1.67252 0
M  V30 2815 H 262.684 -2.62323 -1.70015 0
M  V30 2816 H 261.904 -3.91948 0.420804 0
M  V30 2817 H 263.192 -5.08743 0.0760765 0
M  V30 2818 H 262.59 -4.741 -3.08619 0
M  V30 2819 H 261.147 -5.66276 -3.22761 0
M  V30 2820 N 264.58 -0.43555 -1.51462 0
M  V30 2821 C 265.828 0.131254 -2.01673 0
M  V30 2822 C 266.149 1.43368 -1.32177 0
M  V30 2823 O 265.419 1.90524 -0.455769 0
M  V30 2824 H 263.999 0.0514954 -0.745223 0
M  V30 2825 H 266.661 -0.577847 -1.86137 0
M  V30 2826 H 265.757 0.308446 -3.10572 0
M  V30 2827 N 266.058 1.56714 -0.166846 0
M  V30 2828 C 267.304 1.97039 0.479962 0
M  V30 2829 C 267.637 1.05264 1.63197 0
M  V30 2830 O 266.912 0.0988833 1.94248 0
M  V30 2831 C 267.195 3.46867 0.967212 0
M  V30 2832 C 267.048 4.49421 -0.18466 0
M  V30 2833 C 268.367 3.9968 1.84238 0
M  V30 2834 H 265.486 0.71641 0.172992 0
M  V30 2835 H 268.128 1.8832 -0.252079 0
M  V30 2836 H 266.278 3.54428 1.59101 0
M  V30 2837 H 267.95 4.53924 -0.821621 0
M  V30 2838 H 266.193 4.25573 -0.840837 0
M  V30 2839 H 266.864 5.51644 0.198317 0
M  V30 2840 H 269.34 3.94723 1.31655 0
M  V30 2841 H 268.216 5.04941 2.15234 0
M  V30 2842 H 268.477 3.43226 2.78654 0
M  V30 2843 N 267.536 -0.106894 1.57237 0
M  V30 2844 C 268.813 -0.843526 1.76477 0
M  V30 2845 C 269.193 -1.97499 0.745464 0
M  V30 2846 O 268.541 -2.27357 -0.228306 0
M  V30 2847 C 268.751 -1.34903 3.21873 0
M  V30 2848 C 270.099 -1.79654 3.8472 0
M  V30 2849 O 271.123 -1.44554 3.2555 0
M  V30 2850 O 269.982 -2.44515 4.88748 0
M  V30 2851 H 267.076 -0.401468 0.723016 0
M  V30 2852 H 269.622 -0.0896927 1.69463 0
M  V30 2853 H 268.394 -0.53781 3.87586 0
M  V30 2854 H 268.017 -2.16522 3.33473 0
M  V30 2855 N 269.014 -1.53014 -0.377408 0
M  V30 2856 C 270.262 -1.6829 -1.11906 0
M  V30 2857 C 270.583 -0.431206 -1.90173 0
M  V30 2858 O 269.853 0.554595 -1.87886 0
M  V30 2859 H 268.433 -0.620371 -0.416112 0
M  V30 2860 H 271.095 -1.90167 -0.426893 0
M  V30 2861 H 270.191 -2.53862 -1.8155 0
M  V30 2862 N 270.492 0.636531 -1.44174 0
M  V30 2863 C 271.908 0.954104 -1.27941 0
M  V30 2864 C 272.108 2.0039 -0.211248 0
M  V30 2865 O 271.164 2.49236 0.404695 0
M  V30 2866 C 272.477 1.4225 -2.64925 0
M  V30 2867 C 274.025 1.53827 -2.72592 0
M  V30 2868 C 274.5 2.04053 -4.10032 0
M  V30 2869 N 275.991 2.11331 -4.12182 0
M  V30 2870 C 276.726 2.51352 -5.15374 0
M  V30 2871 N 276.222 2.90549 -6.2893 0
M  V30 2872 N 278.015 2.51438 -5.02728 0
M  V30 2873 H 270.166 -0.0578386 -2.12321 0
M  V30 2874 H 272.429 0.0367406 -0.947288 0
M  V30 2875 H 272.135 0.725466 -3.44136 0
M  V30 2876 H 272.009 2.39451 -2.9145 0
M  V30 2877 H 274.396 2.22628 -1.93702 0
M  V30 2878 H 274.477 0.550154 -2.49814 0
M  V30 2879 H 274.121 1.35848 -4.89395 0
M  V30 2880 H 274.051 3.03726 -4.30184 0
M  V30 2881 H 276.542 1.83745 -3.30222 0
M  V30 2882 H 276.855 3.19884 -7.03487 0
M  V30 2883 H 275.2 2.88313 -6.32377 0
M  V30 2884 H 278.391 2.20203 -4.13072 0
M  V30 2885 H 278.564 2.82304 -5.83274 0
M  V30 2886 N 271.97 1.30982 0.876444 0
M  V30 2887 C 273.2 1.23063 1.65949 0
M  V30 2888 C 273.608 -0.207537 1.88058 0
M  V30 2889 O 272.951 -1.14781 1.43426 0
M  V30 2890 C 273.013 1.89768 3.05333 0
M  V30 2891 C 272.677 3.39106 3.0636 0
M  V30 2892 C 273.674 4.3496 2.84791 0
M  V30 2893 C 271.359 3.80693 3.27686 0
M  V30 2894 C 273.353 5.70375 2.84519 0
M  V30 2895 C 271.04 5.16223 3.27043 0
M  V30 2896 C 272.038 6.10875 3.05485 0
M  V30 2897 O 271.726 7.43928 3.04674 0
M  V30 2898 H 271.458 0.426685 0.524324 0
M  V30 2899 H 274.012 1.7329 1.10271 0
M  V30 2900 H 272.242 1.34082 3.6271 0
M  V30 2901 H 273.931 1.75853 3.65829 0
M  V30 2902 H 274.697 4.0416 2.68103 0
M  V30 2903 H 270.576 3.07457 3.43499 0
M  V30 2904 H 274.12 6.44228 2.67611 0
M  V30 2905 H 270.017 5.4666 3.43269 0
M  V30 2906 H 270.785 7.53022 3.2078 0
M  V30 2907 N 273.449 -1.08991 1.13837 0
M  V30 2908 C 274.679 -1.84743 0.924859 0
M  V30 2909 C 275.087 -1.81629 -0.529874 0
M  V30 2910 O 274.43 -1.21397 -1.37872 0
M  V30 2911 C 274.492 -3.33568 1.34061 0
M  V30 2912 C 274.156 -3.60425 2.80968 0
M  V30 2913 C 275.153 -3.55771 3.79108 0
M  V30 2914 C 272.838 -3.88627 3.18236 0
M  V30 2915 C 274.832 -3.78939 5.12527 0
M  V30 2916 C 272.519 -4.11449 4.51833 0
M  V30 2917 C 273.517 -4.06598 5.48787 0
M  V30 2918 O 273.205 -4.28826 6.79973 0
M  V30 2919 H 272.937 -0.590258 0.329502 0
M  V30 2920 H 275.491 -1.38598 1.51591 0
M  V30 2921 H 273.721 -3.80442 0.692853 0
M  V30 2922 H 275.41 -3.90743 1.09886 0
M  V30 2923 H 276.176 -3.34005 3.51661 0
M  V30 2924 H 272.055 -3.91526 2.43369 0
M  V30 2925 H 275.599 -3.75068 5.88192 0
M  V30 2926 H 271.496 -4.32698 4.79002 0
M  V30 2927 H 272.264 -4.46264 6.86142 0
M  V30 2928 N 274.927 -0.932562 -1.27047 0
M  V30 2929 C 276.157 -0.591173 -1.97961 0
M  V30 2930 C 276.565 0.836219 -1.69717 0
M  V30 2931 O 275.908 1.56801 -0.957036 0
M  V30 2932 C 275.97 -0.743082 -3.51736 0
M  V30 2933 C 275.634 -2.1435 -4.03613 0
M  V30 2934 C 276.631 -3.11815 -4.16014 0
M  V30 2935 C 274.316 -2.46175 -4.37839 0
M  V30 2936 C 276.31 -4.39211 -4.61923 0
M  V30 2937 C 273.997 -3.73806 -4.83438 0
M  V30 2938 C 274.995 -4.70137 -4.95439 0
M  V30 2939 O 274.683 -5.95496 -5.40037 0
M  V30 2940 H 274.415 -0.222375 -0.638377 0
M  V30 2941 H 276.969 -1.25317 -1.62742 0
M  V30 2942 H 275.199 -0.0239739 -3.86693 0
M  V30 2943 H 276.888 -0.40603 -4.03864 0
M  V30 2944 H 277.654 -2.88549 -3.89826 0
M  V30 2945 H 273.533 -1.71936 -4.27737 0
M  V30 2946 H 277.077 -5.14404 -4.71205 0
M  V30 2947 H 272.974 -3.96888 -5.09068 0
M  V30 2948 H 273.742 -5.98554 -5.58279 0
M  V30 2949 N 276.405 1.4127 -0.698611 0
M  V30 2950 C 277.651 2.01478 -0.231207 0
M  V30 2951 C 277.984 1.55215 1.16713 0
M  V30 2952 O 277.259 0.764672 1.78838 0
M  V30 2953 C 277.542 3.58912 -0.292281 0
M  V30 2954 C 277.395 4.15293 -1.72778 0
M  V30 2955 C 278.714 4.38736 0.346194 0
M  V30 2956 H 275.833 0.732025 -0.0854878 0
M  V30 2957 H 278.475 1.67977 -0.887906 0
M  V30 2958 H 276.625 3.87582 0.26686 0
M  V30 2959 H 278.297 3.97486 -2.341 0
M  V30 2960 H 276.54 3.7022 -2.26096 0
M  V30 2961 H 277.211 5.24452 -1.72202 0
M  V30 2962 H 279.687 4.15897 -0.130035 0
M  V30 2963 H 278.563 5.48221 0.272932 0
M  V30 2964 H 278.824 4.18425 1.42734 0
M  V30 2965 N 277.883 0.443576 1.51229 0
M  V30 2966 C 278.813 -0.355142 2.30783 0
M  V30 2967 C 279.794 -1.0154 1.36468 0
M  V30 2968 O 280.979 -1.01785 1.65389 0
M  V30 2969 C 278.109 -1.45312 3.15439 0
M  V30 2970 C 277.063 -0.916002 4.18083 0
M  V30 2971 C 276.389 -2.1102 4.91299 0
M  V30 2972 C 277.689 0.0538602 5.22272 0
M  V30 2973 H 279.383 0.308767 2.97804 0
M  V30 2974 H 276.929 0.149937 1.43217 0
M  V30 2975 H 278.882 -2.01914 3.69876 0
M  V30 2976 H 277.606 -2.14541 2.46252 0
M  V30 2977 H 276.265 -0.372145 3.64706 0
M  V30 2978 H 275.913 -2.78882 4.18609 0
M  V30 2979 H 275.613 -1.75717 5.60712 0
M  V30 2980 H 277.137 -2.68164 5.48562 0
M  V30 2981 H 278.551 -0.422069 5.71744 0
M  V30 2982 H 276.948 0.319776 5.99247 0
M  V30 2983 H 278.018 0.98858 4.74716 0
M  V30 2984 N 279.361 -1.56624 0.175154 0
M  V30 2985 C 280.586 -2.01813 -0.478137 0
M  V30 2986 C 281.011 -1.05457 -1.55757 0
M  V30 2987 O 280.369 -0.0347439 -1.81267 0
M  V30 2988 C 280.417 -3.45581 -1.02987 0
M  V30 2989 O 279.521 -3.52305 -2.14371 0
M  V30 2990 H 278.862 -0.65413 -0.114059 0
M  V30 2991 H 281.392 -2.02673 0.280173 0
M  V30 2992 H 281.402 -3.84965 -1.35151 0
M  V30 2993 H 280.077 -4.1521 -0.239556 0
M  V30 2994 H 278.654 -3.24783 -1.83222 0
M  V30 2995 N 280.839 0.0985539 -1.57292 0
M  V30 2996 C 282.255 0.45267 -1.53046 0
M  V30 2997 C 282.455 1.80713 -0.891342 0
M  V30 2998 O 281.511 2.4785 -0.482375 0
M  V30 2999 C 282.824 0.418341 -2.97776 0
M  V30 3000 C 284.372 0.500443 -3.08973 0
M  V30 3001 C 284.847 0.496297 -4.55303 0
M  V30 3002 N 286.338 0.557151 -4.59837 0
M  V30 3003 C 287.073 0.575726 -5.70502 0
M  V30 3004 N 286.569 0.550714 -6.90608 0
M  V30 3005 N 288.362 0.620277 -5.58667 0
M  V30 3006 H 280.513 -0.788673 -1.97215 0
M  V30 3007 H 282.776 -0.293188 -0.901524 0
M  V30 3008 H 282.482 -0.509659 -3.47988 0
M  V30 3009 H 282.356 1.2386 -3.56284 0
M  V30 3010 H 284.743 1.41886 -2.58751 0
M  V30 3011 H 284.824 -0.347894 -2.53423 0
M  V30 3012 H 284.468 -0.418162 -5.06176 0
M  V30 3013 H 284.398 1.3618 -5.08687 0
M  V30 3014 H 286.889 0.581816 -3.73394 0
M  V30 3015 H 287.202 0.568075 -7.70709 0
M  V30 3016 H 285.547 0.517816 -6.93068 0
M  V30 3017 H 288.738 0.637322 -4.63741 0
M  V30 3018 H 288.911 0.631283 -6.44918 0
M  V30 3019 N 282.317 1.53212 0.369288 0
M  V30 3020 C 283.227 1.82342 1.47609 0
M  V30 3021 C 284.243 0.711532 1.58787 0
M  V30 3022 O 285.419 1.0012 1.74751 0
M  V30 3023 C 282.484 2.00393 2.8292 0
M  V30 3024 C 281.545 3.24297 2.81301 0
M  V30 3025 C 280.778 3.41478 4.10157 0
M  V30 3026 O 281.001 2.63033 5.06132 0
M  V30 3027 O 279.935 4.34817 4.16194 0
M  V30 3028 H 283.761 2.76366 1.25918 0
M  V30 3029 H 281.346 1.38547 0.559034 0
M  V30 3030 H 283.228 2.13859 3.63101 0
M  V30 3031 H 281.903 1.09559 3.04596 0
M  V30 3032 H 280.81 3.16257 1.99831 0
M  V30 3033 H 282.143 4.15041 2.64578 0
M  V30 3034 N 283.795 -0.628877 1.44509 0
M  V30 3035 C 284.705 -1.7694 1.54044 0
M  V30 3036 C 285.721 -1.68705 0.425987 0
M  V30 3037 O 286.897 -1.89442 0.683656 0
M  V30 3038 C 283.962 -3.13332 1.48405 0
M  V30 3039 C 283.023 -3.33181 2.70719 0
M  V30 3040 C 282.256 -4.63067 2.6534 0
M  V30 3041 O 282.479 -5.44017 1.71469 0
M  V30 3042 O 281.413 -4.85167 3.56226 0
M  V30 3043 H 285.239 -1.71848 2.50403 0
M  V30 3044 H 282.824 -0.790378 1.26781 0
M  V30 3045 H 284.706 -3.94634 1.47791 0
M  V30 3046 H 283.381 -3.1896 0.551898 0
M  V30 3047 H 282.288 -2.51549 2.769 0
M  V30 3048 H 283.621 -3.32416 3.62988 0
M  V30 3049 N 285.273 -1.31445 -0.869486 0
M  V30 3050 C 286.236 -1.19094 -1.9583 0
M  V30 3051 C 287.236 -0.117906 -1.60367 0
M  V30 3052 O 288.426 -0.367208 -1.70286 0
M  V30 3053 C 285.558 -0.828165 -3.30688 0
M  V30 3054 H 286.751 -2.15842 -2.08212 0
M  V30 3055 H 284.304 -1.15063 -1.05784 0
M  V30 3056 H 285.039 0.138142 -3.24006 0
M  V30 3057 H 284.824 -1.6038 -3.578 0
M  V30 3058 H 286.314 -0.765658 -4.10521 0
M  V30 3059 N 286.751 1.08385 -1.14413 0
M  V30 3060 C 287.661 2.18856 -0.844951 0
M  V30 3061 C 288.677 1.73121 0.174668 0
M  V30 3062 O 289.853 2.014 0.00312857 0
M  V30 3063 C 286.918 3.45155 -0.32696 0
M  V30 3064 C 285.979 4.05513 -1.40916 0
M  V30 3065 C 285.212 5.25784 -0.915793 0
M  V30 3066 O 285.435 5.69884 0.242651 0
M  V30 3067 O 284.369 5.77545 -1.69487 0
M  V30 3068 H 288.195 2.46919 -1.76818 0
M  V30 3069 H 285.78 1.17524 -0.922411 0
M  V30 3070 H 287.662 4.21377 -0.0440211 0
M  V30 3071 H 286.337 3.18668 0.568539 0
M  V30 3072 H 285.244 3.30879 -1.74556 0
M  V30 3073 H 286.577 4.3625 -2.27919 0
M  V30 3074 N 288.23 0.939286 1.26551 0
M  V30 3075 C 289.458 0.602536 1.97932 0
M  V30 3076 C 289.873 -0.82206 1.69964 0
M  V30 3077 O 289.23 -1.54789 0.966784 0
M  V30 3078 C 289.281 0.832946 3.51773 0
M  V30 3079 O 289.002 2.20151 3.78768 0
M  V30 3080 C 290.503 0.506483 4.40397 0
M  V30 3081 H 287.723 0.227248 0.631347 0
M  V30 3082 H 290.267 1.25948 1.61113 0
M  V30 3083 H 288.422 0.222644 3.8676 0
M  V30 3084 H 288.836 2.26013 4.73306 0
M  V30 3085 H 290.31 0.718333 5.47306 0
M  V30 3086 H 290.787 -0.558451 4.35635 0
M  V30 3087 H 291.393 1.09543 4.10951 0
M  V30 3088 N 289.708 -1.40897 0.706093 0
M  V30 3089 C 291.119 -1.84023 0.315052 0
M  V30 3090 C 291.47 -1.5906 -1.14866 0
M  V30 3091 O 290.595 -1.06651 -1.88293 0
M  V30 3092 C 291.19 -3.34055 0.565038 0
M  V30 3093 C 289.749 -3.7571 0.227806 0
M  V30 3094 C 288.896 -2.64204 0.842122 0
M  V30 3095 H 291.847 -1.303 0.905963 0
M  V30 3096 H 291.868 -3.80107 -0.172843 0
M  V30 3097 H 291.38 -3.52192 1.63042 0
M  V30 3098 H 289.481 -3.63172 -0.832895 0
M  V30 3099 H 289.594 -4.74103 0.690174 0
M  V30 3100 H 287.958 -2.53255 0.270893 0
M  V30 3101 H 288.741 -2.85155 1.91158 0
M  V30 3102 N 291.186 -0.45159 -1.50991 0
M  V30 3103 C 292.133 0.352625 -2.2809 0
M  V30 3104 C 293.103 1.0044 -1.32291 0
M  V30 3105 O 294.288 1.02058 -1.6121 0
M  V30 3106 C 291.428 1.43983 -3.13629 0
M  V30 3107 C 290.541 0.804772 -4.24438 0
M  V30 3108 C 289.676 1.86822 -4.97263 0
M  V30 3109 C 288.715 1.21236 -5.99973 0
M  V30 3110 N 287.852 2.2178 -6.66152 0
M  V30 3111 H 292.692 -0.311186 -2.96371 0
M  V30 3112 H 290.229 -0.165308 -1.46168 0
M  V30 3113 H 292.187 2.08161 -3.61559 0
M  V30 3114 H 290.817 2.07307 -2.47434 0
M  V30 3115 H 289.869 0.0509129 -3.80366 0
M  V30 3116 H 291.181 0.286076 -4.97979 0
M  V30 3117 H 290.335 2.58628 -5.48813 0
M  V30 3118 H 289.074 2.42068 -4.23385 0
M  V30 3119 H 288.079 0.479828 -5.47702 0
M  V30 3120 H 289.304 0.667051 -6.75816 0
M  V30 3121 H 287.25 2.76079 -5.95077 0
M  V30 3122 H 287.167 1.74841 -7.35504 0
M  V30 3123 H 288.435 2.93026 -7.22327 0
M  V30 3124 N 292.664 1.56529 -0.183458 0
M  V30 3125 C 293.611 2.18546 0.742055 0
M  V30 3126 C 294.581 1.12912 1.2182 0
M  V30 3127 O 295.766 1.41115 1.28418 0
M  V30 3128 C 292.906 2.83977 1.96089 0
M  V30 3129 C 292.019 4.04105 1.52719 0
M  V30 3130 C 291.154 4.57427 2.70063 0
M  V30 3131 C 290.193 5.69938 2.23243 0
M  V30 3132 N 289.33 6.17717 3.33722 0
M  V30 3133 H 294.17 2.97284 0.206432 0
M  V30 3134 H 291.707 1.46823 0.0901571 0
M  V30 3135 H 293.665 3.20077 2.67594 0
M  V30 3136 H 292.295 2.07822 2.47002 0
M  V30 3137 H 291.347 3.73745 0.708436 0
M  V30 3138 H 292.659 4.85513 1.1436 0
M  V30 3139 H 291.813 4.95772 3.49708 0
M  V30 3140 H 290.552 3.75101 3.11689 0
M  V30 3141 H 289.557 5.31133 1.42048 0
M  V30 3142 H 290.782 6.54073 1.82661 0
M  V30 3143 H 288.728 5.38317 3.74902 0
M  V30 3144 H 288.645 6.94146 2.99495 0
M  V30 3145 H 289.913 6.60713 4.13616 0
M  V30 3146 N 294.142 -0.090211 1.57342 0
M  V30 3147 C 295.553 -0.644173 1.75235 0
M  V30 3148 C 295.904 -1.78865 0.806335 0
M  V30 3149 O 295.029 -2.16395 -0.0140128 0
M  V30 3150 C 295.624 -1.17532 3.1776 0
M  V30 3151 C 294.183 -1.67531 3.37061 0
M  V30 3152 C 293.33 -0.58693 2.71017 0
M  V30 3153 H 296.281 0.135884 1.58117 0
M  V30 3154 H 296.302 -2.04455 3.20902 0
M  V30 3155 H 295.814 -0.342138 3.86589 0
M  V30 3156 H 293.915 -2.53234 2.73319 0
M  V30 3157 H 294.028 -1.76493 4.45406 0
M  V30 3158 H 292.392 -1.02756 2.33052 0
M  V30 3159 H 293.175 0.235758 3.4249 0
M  V30 3160 N 295.62 -1.53406 -0.361157 0
M  V30 3161 C 296.53 -1.83122 -1.4664 0
M  V30 3162 C 297.546 -0.719943 -1.58407 0
M  V30 3163 O 298.722 -1.01046 -1.74218 0
M  V30 3164 C 295.787 -2.01891 -2.81853 0
M  V30 3165 C 294.848 -3.25784 -2.79577 0
M  V30 3166 C 294.081 -3.43648 -4.0834 0
M  V30 3167 O 294.304 -2.65714 -5.0473 0
M  V30 3168 O 293.238 -4.37018 -4.13883 0
M  V30 3169 H 297.064 -2.7703 -1.24451 0
M  V30 3170 H 294.649 -1.38841 -0.551678 0
M  V30 3171 H 296.531 -2.15782 -3.61962 0
M  V30 3172 H 295.206 -1.11173 -3.0401 0
M  V30 3173 H 294.113 -3.17312 -1.98151 0
M  V30 3174 H 295.446 -4.16439 -2.62373 0
M  V30 3175 N 297.098 0.621204 -1.44841 0
M  V30 3176 C 298.008 1.7612 -1.5498 0
M  V30 3177 C 299.024 1.68477 -0.434927 0
M  V30 3178 O 300.2 1.89076 -0.693693 0
M  V30 3179 C 297.265 3.1254 -1.50065 0
M  V30 3180 C 296.326 3.31741 -2.72482 0
M  V30 3181 C 295.559 4.61653 -2.67792 0
M  V30 3182 O 295.782 5.431 -1.74352 0
M  V30 3183 O 294.716 4.83271 -3.58794 0
M  V30 3184 H 298.542 1.70518 -2.51311 0
M  V30 3185 H 296.127 0.783643 -1.27198 0
M  V30 3186 H 298.009 3.93844 -1.49882 0
M  V30 3187 H 296.684 3.18663 -0.568806 0
M  V30 3188 H 295.591 2.50077 -2.7823 0
M  V30 3189 H 296.924 3.30486 -3.64746 0
M  V30 3190 N 298.576 1.31904 0.862503 0
M  V30 3191 C 299.523 1.20182 1.9704 0
M  V30 3192 C 300.493 0.0858247 1.65878 0
M  V30 3193 O 301.678 0.26 1.8902 0
M  V30 3194 C 298.818 0.922797 3.32533 0
M  V30 3195 C 297.931 2.12284 3.76244 0
M  V30 3196 C 297.066 1.77996 5.00491 0
M  V30 3197 C 296.105 2.94366 5.36671 0
M  V30 3198 N 295.242 2.60223 6.52095 0
M  V30 3199 H 300.082 2.14951 2.06398 0
M  V30 3200 H 297.619 1.06917 1.01031 0
M  V30 3201 H 299.577 0.741548 4.10557 0
M  V30 3202 H 298.207 0.0119227 3.22798 0
M  V30 3203 H 297.259 2.41461 2.9394 0
M  V30 3204 H 298.571 2.99357 3.98982 0
M  V30 3205 H 297.725 1.56377 5.862 0
M  V30 3206 H 296.464 0.881252 4.79672 0
M  V30 3207 H 295.469 3.16625 4.49476 0
M  V30 3208 H 296.694 3.84957 5.59451 0
M  V30 3209 H 294.64 1.72884 6.32809 0
M  V30 3210 H 294.557 3.40827 6.74814 0
M  V30 3211 H 295.825 2.42016 7.40978 0
M  V30 3212 N 300.054 -1.07777 1.14986 0
M  V30 3213 C 301.001 -2.14867 0.842672 0
M  V30 3214 C 301.971 -1.6486 -0.202552 0
M  V30 3215 O 303.156 -1.90668 -0.0710568 0
M  V30 3216 C 300.296 -3.43486 0.333363 0
M  V30 3217 C 299.409 -4.07306 1.43965 0
M  V30 3218 C 298.544 -5.23744 0.886914 0
M  V30 3219 C 297.583 -5.79517 1.97043 0
M  V30 3220 N 296.72 -6.87291 1.4344 0
M  V30 3221 H 301.56 -2.40485 1.75986 0
M  V30 3222 H 299.097 -1.1801 0.878179 0
M  V30 3223 H 301.055 -4.17195 0.0198163 0
M  V30 3224 H 299.685 -3.18133 -0.546916 0
M  V30 3225 H 298.737 -3.31293 1.86946 0
M  V30 3226 H 300.049 -4.44771 2.25788 0
M  V30 3227 H 299.203 -6.04419 0.525651 0
M  V30 3228 H 297.942 -4.87685 0.0377957 0
M  V30 3229 H 296.947 -4.97491 2.34057 0
M  V30 3230 H 298.172 -6.17632 2.82325 0
M  V30 3231 H 296.118 -6.5318 0.607567 0
M  V30 3232 H 296.035 -7.23617 2.18895 0
M  V30 3233 H 297.303 -7.71682 1.10124 0
M  V30 3234 N 301.532 -0.945985 -1.26051 0
M  V30 3235 C 302.943 -0.638096 -1.75457 0
M  V30 3236 C 303.294 0.846672 -1.76991 0
M  V30 3237 O 302.419 1.66262 -1.38513 0
M  V30 3238 C 303.014 -1.15157 -3.18629 0
M  V30 3239 C 301.573 -0.894004 -3.65629 0
M  V30 3240 C 300.72 -1.29967 -2.44957 0
M  V30 3241 H 303.671 -1.12376 -1.1206 0
M  V30 3242 H 303.692 -0.507615 -3.77099 0
M  V30 3243 H 303.204 -2.23222 -3.1748 0
M  V30 3244 H 301.305 0.172057 -3.72203 0
M  V30 3245 H 301.418 -1.52439 -4.54202 0
M  V30 3246 H 299.782 -0.718078 -2.44368 0
M  V30 3247 H 300.565 -2.38935 -2.46505 0
M  V30 3248 N 303.011 1.40521 -0.713556 0
M  V30 3249 C 303.921 2.34522 -0.0606667 0
M  V30 3250 C 304.937 1.57193 0.74607 0
M  V30 3251 O 306.113 1.89591 0.679493 0
M  V30 3252 C 303.178 3.36081 0.851491 0
M  V30 3253 C 302.239 4.29286 0.0349339 0
M  V30 3254 C 301.472 5.25994 0.903649 0
M  V30 3255 O 301.695 5.28616 2.14292 0
M  V30 3256 O 300.629 6.00918 0.343723 0
M  V30 3257 H 304.455 2.91968 -0.835972 0
M  V30 3258 H 302.04 1.41681 -0.47402 0
M  V30 3259 H 303.922 3.98369 1.37404 0
M  V30 3260 H 302.597 2.81052 1.60598 0
M  V30 3261 H 301.504 3.70289 -0.532633 0
M  V30 3262 H 302.837 4.87462 -0.681287 0
M  V30 3263 N 304.489 0.459591 1.5075 0
M  V30 3264 C 305.766 -0.160371 1.94941 0
M  V30 3265 C 306.146 -1.58048 1.39943 0
M  V30 3266 O 305.494 -2.206 0.595629 0
M  V30 3267 C 305.704 -0.115432 3.48809 0
M  V30 3268 C 307.052 -0.310026 4.23467 0
M  V30 3269 O 308.076 -0.192543 3.55679 0
M  V30 3270 O 306.935 -0.546031 5.43765 0
M  V30 3271 H 304.029 -0.117925 0.818549 0
M  V30 3272 H 306.575 0.519169 1.61563 0
M  V30 3273 H 305.347 0.87652 3.81357 0
M  V30 3274 H 304.97 -0.836928 3.88692 0
M  V30 3275 N 305.967 -1.56429 0.191757 0
M  V30 3276 C 306.914 -2.18936 -0.730454 0
M  V30 3277 C 307.884 -1.13557 -1.21219 0
M  V30 3278 O 309.069 -1.41794 -1.27668 0
M  V30 3279 C 306.209 -2.85013 -1.9458 0
M  V30 3280 C 305.322 -4.04909 -1.50574 0
M  V30 3281 C 304.457 -4.58853 -2.67634 0
M  V30 3282 C 303.496 -5.71114 -2.20217 0
M  V30 3283 N 302.633 -6.19478 -3.30442 0
M  V30 3284 H 307.473 -2.97389 -0.190664 0
M  V30 3285 H 305.01 -1.46869 -0.0823694 0
M  V30 3286 H 306.968 -3.21492 -2.65893 0
M  V30 3287 H 305.598 -2.09129 -2.45896 0
M  V30 3288 H 304.65 -3.74115 -0.688605 0
M  V30 3289 H 305.962 -4.86113 -1.11784 0
M  V30 3290 H 305.116 -4.97619 -3.47074 0
M  V30 3291 H 303.855 -3.76749 -3.09696 0
M  V30 3292 H 302.86 -5.31879 -1.3923 0
M  V30 3293 H 304.085 -6.55033 -1.79189 0
M  V30 3294 H 302.031 -5.40297 -3.72041 0
M  V30 3295 H 301.948 -6.95725 -2.9581 0
M  V30 3296 H 303.216 -6.62898 -4.10106 0
M  V30 3297 N 307.445 0.0818655 -1.57387 0
M  V30 3298 C 308.861 0.436412 -1.53517 0
M  V30 3299 C 309.061 1.79758 -0.910459 0
M  V30 3300 O 308.117 2.47324 -0.508636 0
M  V30 3301 C 309.43 0.386734 -2.98203 0
M  V30 3302 C 310.978 0.467644 -3.09487 0
M  V30 3303 C 311.453 0.447978 -4.55804 0
M  V30 3304 N 312.944 0.508348 -4.60402 0
M  V30 3305 C 313.679 0.515184 -5.71081 0
M  V30 3306 N 313.175 0.477435 -6.91153 0
M  V30 3307 N 314.968 0.560988 -5.59294 0
M  V30 3308 H 307.119 -0.809546 -1.96367 0
M  V30 3309 H 309.382 -0.302733 -0.898363 0
M  V30 3310 H 309.088 -0.546539 -3.47427 0
M  V30 3311 H 308.962 1.20075 -3.57578 0
M  V30 3312 H 311.349 1.39134 -2.60242 0
M  V30 3313 H 311.43 -0.374753 -2.5304 0
M  V30 3314 H 311.074 -0.471826 -5.05704 0
M  V30 3315 H 311.004 1.30777 -5.10103 0
M  V30 3316 H 313.495 0.54218 -3.7399 0
M  V30 3317 H 313.808 0.486299 -7.71268 0
M  V30 3318 H 312.153 0.444278 -6.93579 0
M  V30 3319 H 315.344 0.5881 -4.64391 0
M  V30 3320 H 315.517 0.562846 -6.45551 0
M  V30 3321 N 308.923 1.53595 0.353017 0
M  V30 3322 C 310.334 1.61937 0.929153 0
M  V30 3323 C 310.685 0.494686 1.89861 0
M  V30 3324 O 309.81 -0.377017 2.1309 0
M  V30 3325 C 310.405 2.93526 1.69199 0
M  V30 3326 C 308.964 3.04161 2.21727 0
M  V30 3327 C 308.111 2.57322 1.03348 0
M  V30 3328 H 311.062 1.58155 0.131431 0
M  V30 3329 H 311.083 2.82034 2.55416 0
M  V30 3330 H 310.595 3.75362 0.986144 0
M  V30 3331 H 308.696 2.26938 2.95516 0
M  V30 3332 H 308.809 4.09465 2.48748 0
M  V30 3333 H 307.173 2.12499 1.40414 0
M  V30 3334 H 307.956 3.41588 0.342428 0
M  V30 3335 N 310.401 -0.613514 1.45168 0
M  V30 3336 C 311.348 -1.72456 1.53387 0
M  V30 3337 C 312.318 -1.6169 0.380191 0
M  V30 3338 O 313.503 -1.81356 0.592836 0
M  V30 3339 C 310.643 -3.10753 1.50088 0
M  V30 3340 C 309.756 -3.32368 2.75963 0
M  V30 3341 C 308.891 -4.60737 2.64376 0
M  V30 3342 C 307.93 -4.7559 3.85332 0
M  V30 3343 N 307.067 -5.95253 3.72315 0
M  V30 3344 H 311.907 -1.64768 2.48305 0
M  V30 3345 H 309.444 -0.803503 1.23216 0
M  V30 3346 H 311.402 -3.90758 1.46164 0
M  V30 3347 H 310.032 -3.17413 0.587243 0
M  V30 3348 H 309.084 -2.4618 2.89999 0
M  V30 3349 H 310.396 -3.39218 3.65695 0
M  V30 3350 H 309.55 -5.48928 2.58385 0
M  V30 3351 H 308.289 -4.56275 1.72233 0
M  V30 3352 H 307.294 -3.85824 3.91688 0
M  V30 3353 H 308.519 -4.81854 4.78533 0
M  V30 3354 H 306.465 -5.91847 2.82937 0
M  V30 3355 H 306.382 -6.03236 4.55677 0
M  V30 3356 H 307.65 -6.85958 3.70246 0
M  V30 3357 N 311.879 -1.3236 -0.855495 0
M  V30 3358 C 312.812 -1.15559 -1.96777 0
M  V30 3359 C 313.79 -0.0552681 -1.62506 0
M  V30 3360 O 314.974 -0.214419 -1.87277 0
M  V30 3361 C 312.101 -0.768851 -3.29858 0
M  V30 3362 C 311.147 -1.87429 -3.83109 0
M  V30 3363 S 311.98 -3.48243 -4.06801 0
M  V30 3364 C 313.136 -3.11539 -5.42858 0
M  V30 3365 H 313.369 -2.09717 -2.10727 0
M  V30 3366 H 310.902 -1.17011 -1.00737 0
M  V30 3367 H 312.86 -0.55248 -4.06765 0
M  V30 3368 H 311.521 0.153857 -3.13723 0
M  V30 3369 H 310.714 -1.55667 -4.79358 0
M  V30 3370 H 310.316 -2.04647 -3.13042 0
M  V30 3371 H 312.608 -2.61331 -6.2507 0
M  V30 3372 H 313.551 -4.06806 -5.79582 0
M  V30 3373 H 313.959 -2.48582 -5.06821 0
M  V30 3374 N 313.357 1.07166 -1.15556 0
M  V30 3375 C 314.585 1.83514 -0.955519 0
M  V30 3376 C 315 1.82163 0.49621 0
M  V30 3377 O 314.357 1.23441 1.34419 0
M  V30 3378 C 314.408 3.30515 -1.46432 0
M  V30 3379 O 314.129 3.31937 -2.85918 0
M  V30 3380 C 315.63 4.23625 -1.30603 0
M  V30 3381 H 312.85 0.578926 -0.339244 0
M  V30 3382 H 315.394 1.35265 -1.53374 0
M  V30 3383 H 313.549 3.76106 -0.928584 0
M  V30 3384 H 313.963 4.23794 -3.09029 0
M  V30 3385 H 315.437 5.24831 -1.71047 0
M  V30 3386 H 315.914 4.38485 -0.250441 0
M  V30 3387 H 316.52 3.83871 -1.83094 0
M  V30 3388 N 314.835 0.952656 1.25548 0
M  V30 3389 C 316.084 0.602053 1.92505 0
M  V30 3390 C 316.397 -0.864663 1.75451 0
M  V30 3391 O 317.603 -1.32514 2.36965 0
M  V30 3392 C 316.059 1.02607 3.44963 0
M  V30 3393 C 315.667 2.51519 3.70732 0
M  V30 3394 C 317.411 0.747905 4.1786 0
M  V30 3395 C 315.318 2.87732 5.16686 0
M  V30 3396 H 314.248 0.22146 0.720744 0
M  V30 3397 H 316.899 1.15684 1.42441 0
M  V30 3398 H 315.281 0.399712 3.93978 0
M  V30 3399 H 316.455 3.19157 3.32378 0
M  V30 3400 H 314.77 2.76786 3.11092 0
M  V30 3401 H 317.367 0.994647 5.25367 0
M  V30 3402 H 317.71 -0.315629 4.15102 0
M  V30 3403 H 318.243 1.33452 3.74747 0
M  V30 3404 H 314.982 3.93095 5.24554 0
M  V30 3405 H 314.502 2.24765 5.56094 0
M  V30 3406 H 316.181 2.76817 5.84792 0
M  V30 3407 N 316.313 -1.40141 0.720998 0
M  V30 3408 C 317.59 -1.94677 0.189757 0
M  V30 3409 C 317.97 -1.65879 -1.30566 0
M  V30 3410 O 317.318 -0.979391 -2.06447 0
M  V30 3411 C 317.528 -3.45279 0.508304 0
M  V30 3412 C 318.876 -4.22209 0.449934 0
M  V30 3413 O 319.9 -3.53413 0.444677 0
M  V30 3414 O 318.759 -5.44788 0.432189 0
M  V30 3415 H 315.853 -0.826459 0.0299026 0
M  V30 3416 H 318.399 -1.49719 0.7989 0
M  V30 3417 H 317.171 -3.59619 1.54239 0
M  V30 3418 H 316.794 -3.97386 -0.130525 0
M  V30 3419 N 317.792 -0.46758 -1.50504 0
M  V30 3420 C 318.724 0.364655 -2.26281 0
M  V30 3421 C 319.737 0.960151 -1.31472 0
M  V30 3422 O 320.926 0.849153 -1.57008 0
M  V30 3423 C 318.026 1.52509 -3.02645 0
M  V30 3424 C 317.199 1.04302 -4.24782 0
M  V30 3425 C 316.258 2.07709 -4.8347 0
M  V30 3426 O 315.284 1.65913 -5.44483 0
M  V30 3427 N 316.486 3.40485 -4.70159 0
M  V30 3428 H 319.251 -0.28495 -2.98342 0
M  V30 3429 H 316.812 -0.298163 -1.59131 0
M  V30 3430 H 318.804 2.21371 -3.38787 0
M  V30 3431 H 317.374 2.07945 -2.33404 0
M  V30 3432 H 316.594 0.180393 -3.93787 0
M  V30 3433 H 317.882 0.698798 -5.03978 0
M  V30 3434 H 317.28 3.77155 -4.21629 0
M  V30 3435 H 315.837 4.05156 -5.1058 0
M  V30 3436 N 319.27 1.56325 -0.20005 0
M  V30 3437 C 320.516 1.98772 0.431408 0
M  V30 3438 C 320.871 1.0849 1.58895 0
M  V30 3439 O 320.164 0.130331 1.91156 0
M  V30 3440 C 320.358 3.4495 0.935103 0
M  V30 3441 C 320.187 4.49371 -0.172096 0
M  V30 3442 C 318.957 5.0134 -0.631377 0
M  V30 3443 C 321.155 5.04822 -0.982806 0
M  V30 3444 N 319.137 5.89433 -1.71588 0
M  V30 3445 C 320.508 5.89632 -1.91661 0
M  V30 3446 C 322.563 4.87242 -1.02467 0
M  V30 3447 C 321.266 6.58741 -2.88881 0
M  V30 3448 C 323.292 5.57094 -1.98494 0
M  V30 3449 C 322.654 6.41655 -2.90617 0
M  V30 3450 H 318.753 0.771922 0.125144 0
M  V30 3451 H 321.337 1.92266 -0.306883 0
M  V30 3452 H 319.508 3.51946 1.64282 0
M  V30 3453 H 321.24 3.74354 1.53758 0
M  V30 3454 H 317.995 4.73071 -0.223827 0
M  V30 3455 H 318.419 6.38182 -2.25948 0
M  V30 3456 H 323.061 4.21538 -0.326408 0
M  V30 3457 H 320.779 7.23641 -3.5968 0
M  V30 3458 H 324.365 5.45466 -2.0238 0
M  V30 3459 H 323.245 6.94755 -3.63711 0
M  V30 3460 N 320.748 -0.0735177 1.57428 0
M  V30 3461 C 321.678 -1.0879 2.06608 0
M  V30 3462 C 322.659 -1.40473 0.959237 0
M  V30 3463 O 323.844 -1.5013 1.23185 0
M  V30 3464 C 320.974 -2.40183 2.50857 0
M  V30 3465 C 319.928 -2.22858 3.65402 0
M  V30 3466 C 319.254 -3.59619 3.957 0
M  V30 3467 C 320.554 -1.65123 4.95511 0
M  V30 3468 H 322.248 -0.678673 2.91607 0
M  V30 3469 H 319.794 -0.325013 1.40284 0
M  V30 3470 H 321.747 -3.11437 2.83874 0
M  V30 3471 H 320.471 -2.83083 1.62885 0
M  V30 3472 H 319.13 -1.54045 3.32664 0
M  V30 3473 H 318.778 -4.00086 3.04861 0
M  V30 3474 H 318.478 -3.48866 4.72828 0
M  V30 3475 H 320.002 -4.32306 4.31212 0
M  V30 3476 H 321.416 -2.26241 5.26771 0
M  V30 3477 H 319.813 -1.65071 5.7695 0
M  V30 3478 H 320.883 -0.612559 4.81015 0
M  V30 3479 N 322.226 -1.5378 -0.344866 0
M  V30 3480 C 323.156 -1.84662 -1.42906 0
M  V30 3481 C 324.137 -0.701648 -1.54955 0
M  V30 3482 O 325.322 -0.953438 -1.69184 0
M  V30 3483 C 322.452 -2.05503 -2.79974 0
M  V30 3484 C 321.406 -3.21318 -2.82734 0
M  V30 3485 C 320.732 -3.2749 -4.22675 0
M  V30 3486 C 322.032 -4.59456 -2.48389 0
M  V30 3487 H 323.726 -2.75461 -1.17311 0
M  V30 3488 H 321.272 -1.32542 -0.562896 0
M  V30 3489 H 323.225 -2.25691 -3.55867 0
M  V30 3490 H 321.949 -1.11434 -3.07002 0
M  V30 3491 H 320.608 -3.00984 -2.09294 0
M  V30 3492 H 320.256 -2.31019 -4.4681 0
M  V30 3493 H 319.956 -4.05316 -4.25433 0
M  V30 3494 H 321.48 -3.49887 -5.00412 0
M  V30 3495 H 322.894 -4.79667 -3.13995 0
M  V30 3496 H 321.291 -5.39675 -2.62432 0
M  V30 3497 H 322.361 -4.63155 -1.4358 0
M  V30 3498 N 323.704 0.605807 -1.45491 0
M  V30 3499 C 324.651 1.7164 -1.54299 0
M  V30 3500 C 325.621 1.61486 -0.388761 0
M  V30 3501 O 326.806 1.81039 -0.602445 0
M  V30 3502 C 323.946 3.09953 -1.51734 0
M  V30 3503 C 323.059 3.309 -2.77721 0
M  V30 3504 C 322.194 4.59329 -2.66816 0
M  V30 3505 C 321.233 4.7354 -3.87848 0
M  V30 3506 N 320.37 5.9327 -3.75467 0
M  V30 3507 H 325.21 1.63449 -2.49176 0
M  V30 3508 H 322.747 0.796957 -1.23641 0
M  V30 3509 H 324.705 3.89977 -1.48235 0
M  V30 3510 H 323.335 3.17098 -0.604068 0
M  V30 3511 H 322.387 2.44639 -2.913 0
M  V30 3512 H 323.699 3.37274 -3.67488 0
M  V30 3513 H 322.853 5.4755 -2.61292 0
M  V30 3514 H 321.592 4.55355 -1.74651 0
M  V30 3515 H 320.597 3.83741 -3.93729 0
M  V30 3516 H 321.822 4.79309 -4.81082 0
M  V30 3517 H 319.768 5.90338 -2.86072 0
M  V30 3518 H 319.685 6.00811 -4.5887 0
M  V30 3519 H 320.953 6.83984 -3.73879 0
M  V30 3520 N 325.182 1.32811 0.848464 0
M  V30 3521 C 326.13 1.22231 1.97895 0
M  V30 3522 C 327.124 0.125749 1.68933 0
M  V30 3523 O 328.33 0.289083 1.77663 0
M  V30 3524 H 324.705 0.379058 0.649476 0
M  V30 3525 H 326.676 2.17828 2.03945 0
M  V30 3526 C 325.425 0.968572 3.33937 0
M  V30 3527 H 324.748 1.80458 3.56756 0
M  V30 3528 H 326.188 0.934808 4.13567 0
M  V30 3529 C 324.647 -0.328628 3.35293 0
M  V30 3530 O 325.177 -1.33848 3.78745 0
M  V30 3531 N 323.383 -0.352788 2.88451 0
M  V30 3532 H 322.93 0.469541 2.53285 0
M  V30 3533 H 322.888 -1.22057 2.89741 0
M  V30 3534 N 326.66 -1.06551 1.16123 0
M  V30 3535 C 327.623 -2.12132 0.867906 0
M  V30 3536 C 328.623 -1.60224 -0.135944 0
M  V30 3537 O 329.813 -1.73943 0.0946422 0
M  V30 3538 C 326.945 -3.396 0.297419 0
M  V30 3539 H 328.138 -2.39586 1.80385 0
M  V30 3540 H 325.691 -1.22574 0.969812 0
M  V30 3541 H 326.426 -3.17794 -0.64633 0
M  V30 3542 H 326.211 -3.78581 1.02073 0
M  V30 3543 H 327.701 -4.17455 0.110052 0
M  V30 3544 N 328.138 -0.959301 -1.25041 0
M  V30 3545 C 329.085 -0.482057 -2.2571 0
M  V30 3546 C 330.055 0.467939 -1.59372 0
M  V30 3547 O 331.24 0.380159 -1.86974 0
M  V30 3548 C 328.38 0.229623 -3.44335 0
M  V30 3549 C 327.493 -0.758156 -4.25295 0
M  V30 3550 C 326.628 -0.0234403 -5.31195 0
M  V30 3551 C 325.667 -1.00184 -6.03846 0
M  V30 3552 N 324.804 -0.29769 -7.01469 0
M  V30 3553 H 329.644 -1.34538 -2.65901 0
M  V30 3554 H 327.181 -0.674592 -1.3072 0
M  V30 3555 H 329.139 0.658856 -4.11965 0
M  V30 3556 H 327.769 1.05696 -3.05005 0
M  V30 3557 H 326.821 -1.30586 -3.57284 0
M  V30 3558 H 328.133 -1.50458 -4.75567 0
M  V30 3559 H 327.287 0.464201 -6.04922 0
M  V30 3560 H 326.026 0.755741 -4.81809 0
M  V30 3561 H 325.031 -1.50044 -5.2893 0
M  V30 3562 H 326.256 -1.78133 -6.55321 0
M  V30 3563 H 324.202 0.462668 -6.54366 0
M  V30 3564 H 324.119 -0.983128 -7.4958 0
M  V30 3565 H 325.387 0.16826 -7.79318 0
M  V30 3566 N 329.616 1.39756 -0.72842 0
M  V30 3567 C 330.526 2.34444 -0.0855374 0
M  V30 3568 C 331.542 1.57976 0.729356 0
M  V30 3569 O 332.718 1.90301 0.659346 0
M  V30 3570 C 329.783 3.36965 0.815798 0
M  V30 3571 C 328.844 4.29299 -0.0105996 0
M  V30 3572 C 328.077 5.26923 0.84781 0
M  V30 3573 O 328.3 5.30859 2.08673 0
M  V30 3574 O 327.234 6.01249 0.279969 0
M  V30 3575 H 331.06 2.91065 -0.866892 0
M  V30 3576 H 328.645 1.4117 -0.48902 0
M  V30 3577 H 330.527 3.99804 1.33171 0
M  V30 3578 H 329.202 2.82739 1.57608 0
M  V30 3579 H 328.109 3.69703 -0.571877 0
M  V30 3580 H 329.442 4.86712 -0.73295 0
M  V30 3581 N 331.094 0.475555 1.50254 0
M  V30 3582 C 332.371 -0.139685 1.95101 0
M  V30 3583 C 332.751 -1.56555 1.41611 0
M  V30 3584 O 332.099 -2.19956 0.618993 0
M  V30 3585 C 332.309 -0.0784298 3.48912 0
M  V30 3586 C 333.657 -0.265095 4.23772 0
M  V30 3587 O 334.681 -0.154808 3.55863 0
M  V30 3588 O 333.54 -0.488327 5.44314 0
M  V30 3589 H 330.634 -0.109236 0.819754 0
M  V30 3590 H 333.18 0.536276 1.61004 0
M  V30 3591 H 331.952 0.916918 3.80405 0
M  V30 3592 H 331.575 -0.795655 3.89558 0
M  V30 3593 N 332.573 -1.56217 0.208337 0
M  V30 3594 C 333.536 -2.18455 -0.693557 0
M  V30 3595 C 334.536 -1.14268 -1.13135 0
M  V30 3596 O 335.726 -1.39577 -1.0423 0
M  V30 3597 C 332.858 -2.79727 -1.94848 0
M  V30 3598 H 334.051 -2.99519 -0.15114 0
M  V30 3599 H 331.604 -1.56245 -0.041287 0
M  V30 3600 H 332.339 -2.02497 -2.53309 0
M  V30 3601 H 332.124 -3.56009 -1.64316 0
M  V30 3602 H 333.614 -3.27475 -2.59133 0
M  V30 3603 N 334.051 0.0651679 -1.57465 0
M  V30 3604 C 335.3 0.761916 -1.86756 0
M  V30 3605 C 335.613 1.78406 -0.801925 0
M  V30 3606 O 336.819 2.53084 -0.982885 0
M  V30 3607 C 335.275 1.40603 -3.31299 0
M  V30 3608 C 334.883 0.422115 -4.46007 0
M  V30 3609 C 336.627 2.08476 -3.69781 0
M  V30 3610 C 334.534 1.07252 -5.81593 0
M  V30 3611 H 333.464 0.288308 -0.696702 0
M  V30 3612 H 336.115 0.015344 -1.83494 0
M  V30 3613 H 334.497 2.20109 -3.29193 0
M  V30 3614 H 335.671 -0.343613 -4.59517 0
M  V30 3615 H 333.986 -0.152527 -4.16121 0
M  V30 3616 H 336.583 2.57925 -4.68379 0
M  V30 3617 H 336.926 2.88712 -2.99919 0
M  V30 3618 H 337.459 1.35792 -3.73905 0
M  V30 3619 H 334.198 0.310342 -6.54765 0
M  V30 3620 H 333.718 1.80895 -5.71872 0
M  V30 3621 H 335.397 1.59043 -6.27148 0
M  V30 3622 N 335.529 1.53961 0.336706 0
M  V30 3623 C 336.492 1.81724 1.39675 0
M  V30 3624 C 337.492 0.688532 1.45313 0
M  V30 3625 O 338.682 0.956829 1.45569 0
M  V30 3626 C 335.814 1.96543 2.78538 0
M  V30 3627 H 337.007 2.76424 1.16318 0
M  V30 3628 H 334.56 1.45478 0.571474 0
M  V30 3629 H 335.295 1.0401 3.07168 0
M  V30 3630 H 335.08 2.78665 2.75841 0
M  V30 3631 H 336.57 2.19516 3.5525 0
M  V30 3632 N 337.007 -0.598083 1.45811 0
M  V30 3633 C 337.917 -1.73632 1.57763 0
M  V30 3634 C 338.933 -1.67763 0.461676 0
M  V30 3635 O 340.109 -1.87949 0.723685 0
M  V30 3636 C 337.174 -3.10114 1.55018 0
M  V30 3637 C 336.235 -3.27364 2.77726 0
M  V30 3638 C 335.468 -4.57334 2.75102 0
M  V30 3639 O 335.691 -5.40258 1.8297 0
M  V30 3640 O 334.625 -4.77502 3.66437 0
M  V30 3641 H 338.451 -1.66498 2.53992 0
M  V30 3642 H 336.036 -0.763308 1.28429 0
M  V30 3643 H 337.918 -3.9141 1.56129 0
M  V30 3644 H 336.593 -3.17718 0.619431 0
M  V30 3645 H 335.5 -2.45619 2.82174 0
M  V30 3646 H 336.833 -3.24641 3.69958 0
M  V30 3647 N 338.485 -1.33259 -0.841409 0
M  V30 3648 C 339.415 -1.25926 -1.96634 0
M  V30 3649 C 340.396 -0.140349 -1.6952 0
M  V30 3650 O 341.581 -0.329707 -1.91381 0
M  V30 3651 C 338.711 -0.99512 -3.32738 0
M  V30 3652 C 337.665 -2.0767 -3.74242 0
M  V30 3653 C 336.991 -1.66474 -5.08125 0
M  V30 3654 C 338.291 -3.49318 -3.88297 0
M  V30 3655 H 339.985 -2.20046 -2.03027 0
M  V30 3656 H 337.531 -1.05931 -0.975425 0
M  V30 3657 H 339.484 -0.930323 -4.11002 0
M  V30 3658 H 338.208 -0.0183004 -3.26595 0
M  V30 3659 H 336.867 -2.13187 -2.98239 0
M  V30 3660 H 336.515 -0.675012 -4.9845 0
M  V30 3661 H 336.215 -2.3885 -5.36865 0
M  V30 3662 H 337.739 -1.61455 -5.88867 0
M  V30 3663 H 339.153 -3.46316 -4.56879 0
M  V30 3664 H 337.55 -4.20158 -4.28471 0
M  V30 3665 H 338.62 -3.8801 -2.9082 0
M  V30 3666 N 339.963 1.05934 -1.16686 0
M  V30 3667 C 340.91 2.13499 -0.876748 0
M  V30 3668 C 341.88 1.65162 0.176299 0
M  V30 3669 O 343.065 1.90757 0.0407143 0
M  V30 3670 C 340.205 3.42912 -0.387967 0
M  V30 3671 C 339.318 4.04964 -1.50426 0
M  V30 3672 C 338.453 5.22266 -0.970125 0
M  V30 3673 C 337.492 5.76309 -2.06238 0
M  V30 3674 N 336.629 6.84922 -1.54356 0
M  V30 3675 H 341.469 2.37654 -1.7979 0
M  V30 3676 H 339.006 1.16598 -0.896843 0
M  V30 3677 H 340.964 4.17111 -0.086186 0
M  V30 3678 H 339.594 3.18963 0.496235 0
M  V30 3679 H 338.646 3.28277 -1.92193 0
M  V30 3680 H 339.958 4.41122 -2.32836 0
M  V30 3681 H 339.112 6.03506 -0.621743 0
M  V30 3682 H 337.851 4.87564 -0.115377 0
M  V30 3683 H 336.856 4.93704 -2.41942 0
M  V30 3684 H 338.081 6.13062 -2.92115 0
M  V30 3685 H 336.027 6.52131 -0.711406 0
M  V30 3686 H 335.944 7.20043 -2.30379 0
M  V30 3687 H 337.212 7.69832 -1.22387 0
M  V30 3688 N 341.441 0.965919 1.2453 0
M  V30 3689 C 342.388 0.49402 2.25451 0
M  V30 3690 C 343.358 -0.45948 1.59618 0
M  V30 3691 O 344.543 -0.370238 1.87173 0
M  V30 3692 C 341.683 -0.211359 3.44452 0
M  V30 3693 C 340.796 0.7807 4.24887 0
M  V30 3694 C 339.931 0.0516105 5.31175 0
M  V30 3695 C 338.97 1.03385 6.03306 0
M  V30 3696 N 338.107 0.334887 7.01301 0
M  V30 3697 H 342.947 1.35946 2.65184 0
M  V30 3698 H 340.484 0.681515 1.3036 0
M  V30 3699 H 342.442 -0.637 4.12308 0
M  V30 3700 H 341.072 -1.04077 3.05562 0
M  V30 3701 H 340.124 1.32479 3.56586 0
M  V30 3702 H 341.436 1.52978 4.74762 0
M  V30 3703 H 340.59 -0.432114 6.05159 0
M  V30 3704 H 339.329 -0.730179 4.82203 0
M  V30 3705 H 338.334 1.52847 5.28127 0
M  V30 3706 H 339.559 1.81606 6.54367 0
M  V30 3707 H 337.505 -0.427959 6.54603 0
M  V30 3708 H 337.422 1.02287 7.49048 0
M  V30 3709 H 338.69 -0.126928 7.79397 0
M  V30 3710 N 342.919 -1.39368 0.735821 0
M  V30 3711 C 343.882 -2.2896 0.104874 0
M  V30 3712 C 344.882 -1.46347 -0.666274 0
M  V30 3713 O 346.072 -1.67014 -0.49517 0
M  V30 3714 C 343.204 -3.29857 -0.860656 0
M  V30 3715 H 344.397 -2.86259 0.894205 0
M  V30 3716 H 341.95 -1.48029 0.501704 0
M  V30 3717 H 342.685 -2.77615 -1.67631 0
M  V30 3718 H 342.47 -3.9087 -0.310327 0
M  V30 3719 H 343.96 -3.96893 -1.29867 0
M  V30 3720 N 344.397 -0.483516 -1.5 0
M  V30 3721 C 345.645 0.067027 -2.01989 0
M  V30 3722 C 345.966 1.3909 -1.36671 0
M  V30 3723 O 345.236 1.88978 -0.516152 0
M  V30 3724 H 343.816 0.0277606 -0.746484 0
M  V30 3725 H 346.478 -0.636773 -1.84204 0
M  V30 3726 H 345.574 0.209484 -3.11396 0
M  V30 3727 N 345.875 1.56104 -0.216619 0
M  V30 3728 C 347.124 1.97348 0.416744 0
M  V30 3729 C 347.437 1.10715 1.6125 0
M  V30 3730 O 348.643 1.41836 2.31506 0
M  V30 3731 C 347.099 3.51059 0.792835 0
M  V30 3732 C 346.707 4.46387 -0.379828 0
M  V30 3733 C 348.451 4.01026 1.39208 0
M  V30 3734 C 346.358 5.91397 0.0184223 0
M  V30 3735 H 345.288 0.736942 0.159475 0
M  V30 3736 H 347.939 1.80827 -0.31205 0
M  V30 3737 H 346.321 3.63162 1.57891 0
M  V30 3738 H 347.495 4.46029 -1.15737 0
M  V30 3739 H 345.81 4.06734 -0.891979 0
M  V30 3740 H 348.407 5.0686 1.70286 0
M  V30 3741 H 348.75 3.46587 2.30614 0
M  V30 3742 H 349.283 3.92125 0.669537 0
M  V30 3743 H 346.022 6.49807 -0.862002 0
M  V30 3744 H 345.542 5.94961 0.760384 0
M  V30 3745 H 347.221 6.45455 0.446818 0
M  V30 3746 N 347.353 -0.0568162 1.57498 0
M  V30 3747 C 348.581 -0.765626 1.92213 0
M  V30 3748 C 348.996 -1.70353 0.813961 0
M  V30 3749 O 348.353 -1.81268 -0.211701 0
M  V30 3750 C 348.404 -1.5465 3.2675 0
M  V30 3751 O 348.125 -0.646278 4.33307 0
M  V30 3752 C 349.626 -2.35497 3.75574 0
M  V30 3753 H 346.846 -0.216835 0.634999 0
M  V30 3754 H 349.39 -0.0226146 2.04487 0
M  V30 3755 H 347.545 -2.24165 3.15957 0
M  V30 3756 H 347.959 -1.19093 5.108 0
M  V30 3757 H 349.433 -2.85722 4.72299 0
M  V30 3758 H 349.91 -3.15692 3.05344 0
M  V30 3759 H 350.516 -1.7111 3.8936 0
M  V30 3760 N 348.832 -1.54138 -0.328536 0
M  V30 3761 C 350.057 -1.76378 -1.09112 0
M  V30 3762 C 350.482 -0.508596 -1.81094 0
M  V30 3763 O 349.84 0.539598 -1.73084 0
M  V30 3764 C 349.888 -2.95358 -2.06872 0
M  V30 3765 O 348.992 -2.66556 -3.14677 0
M  V30 3766 H 348.333 -0.584614 -0.314838 0
M  V30 3767 H 350.863 -2.01146 -0.374348 0
M  V30 3768 H 350.873 -3.22566 -2.4983 0
M  V30 3769 H 349.548 -3.86385 -1.5388 0
M  V30 3770 H 348.125 -2.50282 -2.7643 0
M  V30 3771 N 350.31 0.590341 -1.46126 0
M  V30 3772 C 351.587 1.35029 -1.41515 0
M  V30 3773 C 351.967 2.10888 -0.0946472 0
M  V30 3774 O 351.315 2.08998 0.923693 0
M  V30 3775 C 351.525 2.28269 -2.63997 0
M  V30 3776 C 352.873 2.90338 -3.09821 0
M  V30 3777 O 353.897 2.38585 -2.64492 0
M  V30 3778 O 352.756 3.84321 -3.88535 0
M  V30 3779 H 349.85 0.606317 -0.562413 0
M  V30 3780 H 352.396 0.611994 -1.58281 0
M  V30 3781 H 351.168 1.71591 -3.51671 0
M  V30 3782 H 350.791 3.0945 -2.49652 0
M  V30 3783 N 351.788 1.33704 0.83433 0
M  V30 3784 C 353.035 1.25417 1.58987 0
M  V30 3785 C 353.363 -0.178869 1.93676 0
M  V30 3786 O 352.618 -1.13723 1.59265 0
M  V30 3787 C 352.917 2.07926 2.90692 0
M  V30 3788 C 352.583 3.57066 2.75345 0
M  V30 3789 C 351.245 3.97724 2.70867 0
M  V30 3790 C 353.597 4.51817 2.59828 0
M  V30 3791 C 350.925 5.31344 2.48778 0
M  V30 3792 C 353.277 5.85604 2.39272 0
M  V30 3793 C 351.941 6.25439 2.33199 0
M  V30 3794 H 351.211 0.458934 0.581774 0
M  V30 3795 H 353.858 1.65335 0.966261 0
M  V30 3796 H 352.163 1.608 3.57282 0
M  V30 3797 H 353.86 1.98868 3.48213 0
M  V30 3798 H 350.45 3.24785 2.79665 0
M  V30 3799 H 354.634 4.21311 2.62319 0
M  V30 3800 H 349.89 5.61241 2.42526 0
M  V30 3801 H 354.064 6.58623 2.2625 0
M  V30 3802 H 351.691 7.28914 2.15843 0
M  V30 3803 N 353.266 -1.05314 1.17247 0
M  V30 3804 C 354.496 -1.81707 0.983166 0
M  V30 3805 C 354.904 -1.83222 -0.471822 0
M  V30 3806 O 354.247 -1.25721 -1.3394 0
M  V30 3807 C 354.309 -3.29134 1.44606 0
M  V30 3808 C 353.973 -3.51304 2.92292 0
M  V30 3809 C 354.97 -3.4353 3.90235 0
M  V30 3810 C 352.655 -3.78306 3.30439 0
M  V30 3811 C 354.649 -3.62442 5.24323 0
M  V30 3812 C 352.336 -3.96866 4.64694 0
M  V30 3813 C 353.334 -3.88933 5.61445 0
M  V30 3814 O 353.022 -4.06976 6.93272 0
M  V30 3815 H 352.754 -0.579476 0.348114 0
M  V30 3816 H 355.308 -1.33705 1.55924 0
M  V30 3817 H 353.538 -3.78046 0.813537 0
M  V30 3818 H 355.227 -3.87049 1.22262 0
M  V30 3819 H 355.993 -3.22648 3.62109 0
M  V30 3820 H 351.872 -3.83585 2.55702 0
M  V30 3821 H 355.416 -3.56165 5.99827 0
M  V30 3822 H 351.313 -4.1724 4.92525 0
M  V30 3823 H 352.081 -4.24209 6.99992 0
M  V30 3824 N 354.744 -0.972509 -1.24016 0
M  V30 3825 C 355.991 -0.637034 -1.92219 0
M  V30 3826 C 356.319 0.828418 -1.75976 0
M  V30 3827 O 355.574 1.61206 -1.10955 0
M  V30 3828 C 355.873 -0.963694 -3.44162 0
M  V30 3829 C 355.539 -2.41807 -3.80579 0
M  V30 3830 C 354.201 -2.81556 -3.9023 0
M  V30 3831 C 356.553 -3.36172 -3.98293 0
M  V30 3832 C 353.881 -4.14702 -4.15017 0
M  V30 3833 C 356.233 -4.68952 -4.24578 0
M  V30 3834 C 354.897 -5.08472 -4.32449 0
M  V30 3835 H 354.167 -0.233107 -0.703379 0
M  V30 3836 H 356.814 -1.2249 -1.47202 0
M  V30 3837 H 355.119 -0.29365 -3.90698 0
M  V30 3838 H 356.816 -0.682449 -3.9515 0
M  V30 3839 H 353.406 -2.09988 -3.73635 0
M  V30 3840 H 357.59 -3.06644 -3.90234 0
M  V30 3841 H 352.846 -4.4494 -4.19331 0
M  V30 3842 H 357.02 -5.42037 -4.37229 0
M  V30 3843 H 354.647 -6.11665 -4.51409 0
M  V30 3844 N 356.222 1.38976 -0.743202 0
M  V30 3845 C 357.17 2.32394 -0.0978389 0
M  V30 3846 C 358.164 1.53486 0.716824 0
M  V30 3847 O 359.37 1.69092 0.617088 0
M  V30 3848 H 355.745 0.75189 -0.0128402 0
M  V30 3849 H 357.716 2.84441 -0.901981 0
M  V30 3850 C 356.465 3.38629 0.789036 0
M  V30 3851 H 355.788 3.99432 0.171559 0
M  V30 3852 H 357.228 4.06426 1.20807 0
M  V30 3853 C 355.687 2.76347 1.92702 0
M  V30 3854 O 356.217 2.64836 3.02034 0
M  V30 3855 N 354.423 2.34311 1.71891 0
M  V30 3856 H 353.97 2.43873 0.829675 0
M  V30 3857 H 353.928 1.9298 2.48205 0
M  V30 3858 N 357.7 0.491464 1.49741 0
M  V30 3859 C 358.663 -0.280906 2.27472 0
M  V30 3860 C 359.663 -0.902454 1.33088 0
M  V30 3861 O 360.853 -0.768465 1.56334 0
M  V30 3862 C 357.985 -1.40209 3.10732 0
M  V30 3863 H 359.178 0.401056 2.97206 0
M  V30 3864 H 356.731 0.246131 1.5435 0
M  V30 3865 H 357.466 -2.11849 2.45541 0
M  V30 3866 H 357.251 -0.961969 3.80117 0
M  V30 3867 H 358.741 -1.9464 3.69466 0
M  V30 3868 N 359.178 -1.55987 0.224894 0
M  V30 3869 C 360.427 -1.97566 -0.406273 0
M  V30 3870 C 360.74 -1.11569 -1.6066 0
M  V30 3871 O 361.946 -1.43062 -2.3075 0
M  V30 3872 C 360.402 -3.51474 -0.774207 0
M  V30 3873 C 360.01 -4.46179 0.403496 0
M  V30 3874 C 361.754 -4.01758 -1.37079 0
M  V30 3875 C 359.661 -5.91399 0.0129412 0
M  V30 3876 H 358.591 -0.737777 -0.155565 0
M  V30 3877 H 361.242 -1.80659 0.321635 0
M  V30 3878 H 359.624 -3.63994 -1.55963 0
M  V30 3879 H 360.798 -4.45409 1.18101 0
M  V30 3880 H 359.113 -4.06255 0.913536 0
M  V30 3881 H 361.71 -5.07756 -1.67596 0
M  V30 3882 H 362.053 -3.47805 -2.28773 0
M  V30 3883 H 362.586 -3.92475 -0.648733 0
M  V30 3884 H 359.325 -6.49341 0.896451 0
M  V30 3885 H 358.845 -5.95356 -0.728821 0
M  V30 3886 H 360.524 -6.45683 -0.412582 0
M  V30 3887 N 360.656 0.0484629 -1.57525 0
M  V30 3888 C 361.604 1.07359 -2.06341 0
M  V30 3889 C 362.598 1.3865 -0.973269 0
M  V30 3890 O 363.804 1.37783 -1.15827 0
M  V30 3891 H 360.179 0.363662 -0.65822 0
M  V30 3892 H 362.15 0.635916 -2.91545 0
M  V30 3893 C 360.899 2.37198 -2.54229 0
M  V30 3894 H 360.222 2.13977 -3.37719 0
M  V30 3895 H 361.662 3.07319 -2.92115 0
M  V30 3896 C 360.121 3.04805 -1.43511 0
M  V30 3897 O 360.651 3.93848 -0.79034 0
M  V30 3898 N 358.857 2.65811 -1.17444 0
M  V30 3899 H 358.404 1.93488 -1.70059 0
M  V30 3900 H 358.362 3.11366 -0.435737 0
M  V30 3901 N 362.134 1.5431 0.320358 0
M  V30 3902 C 363.081 1.83918 1.39438 0
M  V30 3903 C 364.051 0.686525 1.51248 0
M  V30 3904 O 365.236 0.933269 1.66417 0
M  V30 3905 C 362.376 2.075 2.75749 0
M  V30 3906 C 361.489 3.35177 2.72544 0
M  V30 3907 C 360.624 3.48704 4.00723 0
M  V30 3908 C 359.663 4.70244 3.91838 0
M  V30 3909 N 358.8 4.80679 5.11754 0
M  V30 3910 H 363.64 2.75544 1.13489 0
M  V30 3911 H 361.177 1.36459 0.549309 0
M  V30 3912 H 363.135 2.19166 3.54996 0
M  V30 3913 H 361.765 1.19163 3 0
M  V30 3914 H 360.817 3.32233 1.85271 0
M  V30 3915 H 362.129 4.24534 2.61863 0
M  V30 3916 H 361.283 3.59928 4.88402 0
M  V30 3917 H 360.022 2.57445 4.14214 0
M  V30 3918 H 359.027 4.59072 3.02544 0
M  V30 3919 H 360.252 5.6289 3.7991 0
M  V30 3920 H 358.198 3.92337 5.25745 0
M  V30 3921 H 358.115 5.64007 5.0342 0
M  V30 3922 H 359.383 4.96239 6.01138 0
M  V30 3923 N 363.613 -0.582584 1.46437 0
M  V30 3924 C 364.576 -1.67366 1.56592 0
M  V30 3925 C 365.576 -1.54575 0.443072 0
M  V30 3926 O 366.766 -1.59191 0.707381 0
M  V30 3927 C 363.898 -3.06791 1.48634 0
M  V30 3928 H 365.091 -1.5972 2.5383 0
M  V30 3929 H 362.644 -0.800432 1.34249 0
M  V30 3930 H 363.379 -3.19993 0.526763 0
M  V30 3931 H 363.164 -3.17484 2.30101 0
M  V30 3932 H 364.654 -3.86218 1.58826 0
M  V30 3933 N 365.091 -1.34144 -0.827227 0
M  V30 3934 C 366.038 -1.25364 -1.93785 0
M  V30 3935 C 367.008 -0.129774 -1.65592 0
M  V30 3936 O 368.193 -0.310024 -1.88264 0
M  V30 3937 C 365.333 -1.01064 -3.2997 0
M  V30 3938 C 364.446 -2.22185 -3.70484 0
M  V30 3939 C 363.581 -1.91203 -4.95595 0
M  V30 3940 C 362.62 -3.08491 -5.28677 0
M  V30 3941 N 361.757 -2.77421 -6.44967 0
M  V30 3942 H 366.597 -2.20347 -2.00627 0
M  V30 3943 H 364.134 -1.09558 -0.981608 0
M  V30 3944 H 366.092 -0.850139 -4.08446 0
M  V30 3945 H 364.722 -0.0975026 -3.22653 0
M  V30 3946 H 363.774 -2.4917 -2.87434 0
M  V30 3947 H 365.086 -3.0983 -3.90905 0
M  V30 3948 H 364.24 -1.71864 -5.81848 0
M  V30 3949 H 362.979 -1.00812 -4.77167 0
M  V30 3950 H 361.984 -3.28431 -4.40923 0
M  V30 3951 H 363.209 -3.99655 -5.49047 0
M  V30 3952 H 361.155 -1.89601 -6.28003 0
M  V30 3953 H 361.072 -3.58598 -6.6554 0
M  V30 3954 H 362.34 -2.61577 -7.34301 0
M  V30 3955 N 366.569 1.04691 -1.17803 0
M  V30 3956 C 367.797 1.81446 -0.99423 0
M  V30 3957 C 368.212 1.83174 0.457459 0
M  V30 3958 O 367.569 1.26265 1.31771 0
M  V30 3959 C 367.62 3.27334 -1.5341 0
M  V30 3960 O 367.341 3.25798 -2.92895 0
M  V30 3961 C 368.842 4.20759 -1.39559 0
M  V30 3962 H 366.062 0.571599 -0.351447 0
M  V30 3963 H 368.606 1.31982 -1.56208 0
M  V30 3964 H 366.761 3.74052 -1.00815 0
M  V30 3965 H 367.175 4.17144 -3.17949 0
M  V30 3966 H 368.649 5.21084 -1.82141 0
M  V30 3967 H 369.126 4.37856 -0.343394 0
M  V30 3968 H 369.732 3.79901 -1.91195 0
M  V30 3969 N 368.047 0.979072 1.23499 0
M  V30 3970 C 369.293 0.648178 1.92163 0
M  V30 3971 C 369.626 -0.816049 1.76222 0
M  V30 3972 O 368.901 -1.58849 1.12237 0
M  V30 3973 C 369.184 1.03773 3.44824 0
M  V30 3974 C 369.037 2.55948 3.69879 0
M  V30 3975 C 370.356 0.580653 4.36253 0
M  V30 3976 H 367.475 0.236952 0.69787 0
M  V30 3977 H 370.117 1.22012 1.45647 0
M  V30 3978 H 368.267 0.551058 3.84572 0
M  V30 3979 H 369.939 3.12179 3.3962 0
M  V30 3980 H 368.182 2.98641 3.14636 0
M  V30 3981 H 368.853 2.78255 4.76737 0
M  V30 3982 H 371.329 0.998465 4.03943 0
M  V30 3983 H 370.205 0.881663 5.41773 0
M  V30 3984 H 370.466 -0.519052 4.39042 0
M  V30 3985 N 369.525 -1.3858 0.750561 0
M  V30 3986 C 370.435 -2.34278 0.122825 0
M  V30 3987 C 371.451 -1.59116 -0.704131 0
M  V30 3988 O 372.627 -1.91326 -0.628987 0
M  V30 3989 C 369.692 -3.38221 -0.762086 0
M  V30 3990 C 368.753 -4.29227 0.078896 0
M  V30 3991 C 367.986 -5.28205 -0.763874 0
M  V30 3992 O 368.209 -5.34112 -2.00201 0
M  V30 3993 O 367.143 -6.01618 -0.18428 0
M  V30 3994 H 370.969 -2.89649 0.913088 0
M  V30 3995 H 368.554 -1.40374 0.511417 0
M  V30 3996 H 370.436 -4.01872 -1.26793 0
M  V30 3997 H 369.111 -2.85211 -1.5309 0
M  V30 3998 H 368.018 -3.68747 0.630621 0
M  V30 3999 H 369.351 -4.85484 0.810289 0
M  V30 4000 N 371.003 -0.499398 -1.49478 0
M  V30 4001 C 371.913 0.284489 -2.32869 0
M  V30 4002 C 372.929 0.968885 -1.44529 0
M  V30 4003 O 374.105 0.95062 -1.77553 0
M  V30 4004 C 371.17 1.33594 -3.19928 0
M  V30 4005 C 370.231 0.665149 -4.24116 0
M  V30 4006 C 369.464 1.6665 -5.07014 0
M  V30 4007 O 369.687 2.89618 -4.91404 0
M  V30 4008 O 368.621 1.22271 -5.8935 0
M  V30 4009 H 372.447 -0.39802 -3.01081 0
M  V30 4010 H 370.032 -0.260758 -1.47107 0
M  V30 4011 H 371.914 1.94431 -3.73864 0
M  V30 4012 H 370.589 2.0014 -2.54412 0
M  V30 4013 H 369.496 0.0170769 -3.74096 0
M  V30 4014 H 370.829 0.0421555 -4.92182 0
M  V30 4015 N 372.481 1.55866 -0.233164 0
M  V30 4016 C 373.727 1.98897 0.395959 0
M  V30 4017 C 374.06 1.12091 1.58585 0
M  V30 4018 O 373.335 0.181182 1.93654 0
M  V30 4019 C 373.618 3.50658 0.819224 0
M  V30 4020 C 373.471 4.48233 -0.375109 0
M  V30 4021 C 374.79 4.07135 1.67121 0
M  V30 4022 H 371.909 0.723102 0.142451 0
M  V30 4023 H 374.551 1.87082 -0.331725 0
M  V30 4024 H 372.701 3.60857 1.43925 0
M  V30 4025 H 374.373 4.50031 -1.01341 0
M  V30 4026 H 372.616 4.21624 -1.02058 0
M  V30 4027 H 373.287 5.51988 -0.0358328 0
M  V30 4028 H 375.763 3.99952 1.14795 0
M  V30 4029 H 374.639 5.13615 1.93625 0
M  V30 4030 H 374.9 3.54736 2.63846 0
M  V30 4031 N 373.959 -0.0401083 1.57549 0
M  V30 4032 C 374.907 -1.06264 2.06908 0
M  V30 4033 C 375.901 -1.38132 0.980608 0
M  V30 4034 O 377.107 -1.37167 1.16556 0
M  V30 4035 H 373.482 -0.360166 0.660139 0
M  V30 4036 H 375.453 -0.620445 2.91878 0
M  V30 4037 C 374.202 -2.35846 2.55483 0
M  V30 4038 H 373.525 -2.12183 3.38849 0
M  V30 4039 H 374.965 -3.05765 2.93741 0
M  V30 4040 C 373.424 -3.0404 1.45126 0
M  V30 4041 O 373.954 -3.93424 0.811216 0
M  V30 4042 N 372.16 -2.65184 1.18852 0
M  V30 4043 H 371.707 -1.92584 1.71083 0
M  V30 4044 H 371.665 -3.1113 0.452244 0
M  V30 4045 N 375.437 -1.54477 -0.31217 0
M  V30 4046 C 376.4 -1.83923 -1.36766 0
M  V30 4047 C 377.4 -0.711563 -1.44199 0
M  V30 4048 O 378.59 -0.979866 -1.44029 0
M  V30 4049 C 375.722 -2.0095 -2.75376 0
M  V30 4050 H 376.915 -2.78239 -1.11906 0
M  V30 4051 H 374.468 -1.46369 -0.548257 0
M  V30 4052 H 375.203 -1.08883 -3.05475 0
M  V30 4053 H 374.988 -2.83018 -2.71373 0
M  V30 4054 H 376.478 -2.2514 -3.51713 0
M  V30 4055 N 376.915 0.57481 -1.46744 0
M  V30 4056 C 377.845 1.69337 -1.60771 0
M  V30 4057 C 378.826 1.63825 -0.457736 0
M  V30 4058 O 380.011 1.8172 -0.684947 0
M  V30 4059 C 377.141 3.0798 -1.60517 0
M  V30 4060 C 376.095 3.28327 -2.74564 0
M  V30 4061 C 375.421 4.67578 -2.59373 0
M  V30 4062 C 376.721 3.15398 -4.16319 0
M  V30 4063 H 378.415 1.57853 -2.54407 0
M  V30 4064 H 375.961 0.75799 -1.22436 0
M  V30 4065 H 377.914 3.86061 -1.68923 0
M  V30 4066 H 376.638 3.20381 -0.634305 0
M  V30 4067 H 375.297 2.52649 -2.65639 0
M  V30 4068 H 374.945 4.76755 -1.60353 0
M  V30 4069 H 374.645 4.82144 -3.35873 0
M  V30 4070 H 376.169 5.47817 -2.69682 0
M  V30 4071 H 377.583 3.83315 -4.26313 0
M  V30 4072 H 375.98 3.41482 -4.93468 0
M  V30 4073 H 377.05 2.12372 -4.3592 0
M  V30 4074 N 378.394 1.34581 0.820102 0
M  V30 4075 C 379.341 1.2639 1.93117 0
M  V30 4076 C 380.311 0.138554 1.65521 0
M  V30 4077 O 381.496 0.320004 1.88097 0
M  V30 4078 C 378.636 1.02812 3.29429 0
M  V30 4079 C 377.749 2.24146 3.693 0
M  V30 4080 C 376.884 1.93829 4.94574 0
M  V30 4081 C 375.923 3.1129 5.27034 0
M  V30 4082 N 375.06 2.80838 6.43486 0
M  V30 4083 H 379.9 2.21408 1.99455 0
M  V30 4084 H 377.437 1.10077 0.975784 0
M  V30 4085 H 379.395 0.871788 4.0799 0
M  V30 4086 H 378.025 0.114612 3.22596 0
M  V30 4087 H 377.077 2.50691 2.86109 0
M  V30 4088 H 378.389 3.11899 3.89257 0
M  V30 4089 H 377.543 1.74948 5.80929 0
M  V30 4090 H 376.282 1.03341 4.76626 0
M  V30 4091 H 375.287 3.30764 4.39175 0
M  V30 4092 H 376.512 4.02561 5.4692 0
M  V30 4093 H 374.458 1.92929 6.26988 0
M  V30 4094 H 374.375 3.62123 6.63629 0
M  V30 4095 H 375.643 2.65467 7.32903 0
M  V30 4096 N 379.872 -1.04064 1.18357 0
M  V30 4097 C 380.82 -2.14187 0.907007 0
M  V30 4098 C 381.814 -1.68879 -0.132725 0
M  V30 4099 O 383.02 -1.79993 0.0154248 0
M  V30 4100 H 379.395 -0.699585 0.275835 0
M  V30 4101 H 381.366 -2.34711 1.84264 0
M  V30 4102 C 380.115 -3.44785 0.449254 0
M  V30 4103 H 379.438 -3.80058 1.24081 0
M  V30 4104 H 380.878 -4.22974 0.294737 0
M  V30 4105 C 379.337 -3.26391 -0.834909 0
M  V30 4106 O 379.867 -3.53973 -1.89911 0
M  V30 4107 N 378.073 -2.79726 -0.787523 0
M  V30 4108 H 377.62 -2.5748 0.0787347 0
M  V30 4109 H 377.578 -2.67798 -1.64716 0
M  V30 4110 N 381.35 -0.985608 -1.22978 0
M  V30 4111 C 382.26 -0.538548 -2.28335 0
M  V30 4112 C 383.276 0.409163 -1.69121 0
M  V30 4113 O 384.452 0.277797 -1.99475 0
M  V30 4114 C 381.517 0.146867 -3.46389 0
M  V30 4115 C 380.578 -0.842896 -4.20944 0
M  V30 4116 C 379.811 -0.190095 -5.33361 0
M  V30 4117 O 380.034 1.01767 -5.61248 0
M  V30 4118 O 378.968 -0.891289 -5.95264 0
M  V30 4119 H 382.794 -1.41487 -2.68729 0
M  V30 4120 H 380.379 -0.753495 -1.29007 0
M  V30 4121 H 382.261 0.531125 -4.1804 0
M  V30 4122 H 380.936 0.997871 -3.07935 0
M  V30 4123 H 379.843 -1.27795 -3.51595 0
M  V30 4124 H 381.176 -1.66287 -4.6326 0
M  V30 4125 N 382.828 1.3818 -0.7579 0
M  V30 4126 C 384.077 1.99261 -0.312744 0
M  V30 4127 C 384.39 1.60846 1.11301 0
M  V30 4128 O 385.596 2.14929 1.65885 0
M  V30 4129 C 384.052 3.56294 -0.50821 0
M  V30 4130 C 383.66 4.03657 -1.94333 0
M  V30 4131 C 385.404 4.24313 -0.125982 0
M  V30 4132 C 383.311 5.53347 -2.08712 0
M  V30 4133 H 382.241 0.745456 -0.113185 0
M  V30 4134 H 384.892 1.57889 -0.935056 0
M  V30 4135 H 383.274 3.95575 0.183353 0
M  V30 4136 H 384.448 3.75655 -2.66871 0
M  V30 4137 H 382.763 3.48376 -2.28086 0
M  V30 4138 H 385.36 5.34279 -0.212125 0
M  V30 4139 H 385.703 4.05962 0.921964 0
M  V30 4140 H 386.236 3.90285 -0.769563 0
M  V30 4141 H 382.975 5.76607 -3.11777 0
M  V30 4142 H 382.495 5.83078 -1.4064 0
M  V30 4143 H 384.174 6.19111 -1.87912 0
M  V30 4144 N 384.306 0.507319 1.49211 0
M  V30 4145 C 385.236 -0.256939 2.32082 0
M  V30 4146 C 386.217 -0.956609 1.40652 0
M  V30 4147 O 387.402 -0.946788 1.69557 0
M  V30 4148 C 384.532 -1.31802 3.21318 0
M  V30 4149 C 383.486 -0.737855 4.21592 0
M  V30 4150 C 382.812 -1.89992 4.99807 0
M  V30 4151 C 384.112 0.275325 5.21574 0
M  V30 4152 H 385.806 0.434798 2.96226 0
M  V30 4153 H 383.352 0.210546 1.42452 0
M  V30 4154 H 385.305 -1.86045 3.78107 0
M  V30 4155 H 384.029 -2.03903 2.5513 0
M  V30 4156 H 382.688 -0.217126 3.65956 0
M  V30 4157 H 382.336 -2.60877 4.30061 0
M  V30 4158 H 382.036 -1.51777 5.6766 0
M  V30 4159 H 383.56 -2.44657 5.59442 0
M  V30 4160 H 384.974 -0.179193 5.7302 0
M  V30 4161 H 383.371 0.573649 5.97352 0
M  V30 4162 H 384.441 1.18903 4.70096 0
M  V30 4163 N 385.784 -1.5574 0.241426 0
M  V30 4164 C 386.731 -2.21149 -0.660432 0
M  V30 4165 C 387.701 -1.17356 -1.17545 0
M  V30 4166 O 388.886 -1.45784 -1.23093 0
M  V30 4167 C 386.026 -2.91059 -1.85414 0
M  V30 4168 C 385.139 -4.09495 -1.37616 0
M  V30 4169 C 384.274 -4.67135 -2.529 0
M  V30 4170 C 383.313 -5.77831 -2.01936 0
M  V30 4171 N 382.45 -6.29677 -3.10566 0
M  V30 4172 H 387.29 -2.97845 -0.095955 0
M  V30 4173 H 384.827 -1.47057 -0.0356024 0
M  V30 4174 H 386.785 -3.29788 -2.5553 0
M  V30 4175 H 385.415 -2.16846 -2.39118 0
M  V30 4176 H 384.467 -3.76117 -0.569235 0
M  V30 4177 H 385.779 -4.89423 -0.962618 0
M  V30 4178 H 384.933 -5.08409 -3.31067 0
M  V30 4179 H 383.672 -3.86411 -2.97553 0
M  V30 4180 H 382.677 -5.36039 -1.22238 0
M  V30 4181 H 383.902 -6.60402 -1.58259 0
M  V30 4182 H 381.848 -5.5186 -3.54664 0
M  V30 4183 H 381.765 -7.04783 -2.73526 0
M  V30 4184 H 383.033 -6.75609 -3.88809 0
M  V30 4185 N 387.262 0.0317525 -1.57568 0
M  V30 4186 C 388.225 1.01783 -2.0536 0
M  V30 4187 C 389.225 1.29203 -0.957253 0
M  V30 4188 O 390.415 1.24251 -1.22095 0
M  V30 4189 C 387.547 2.35137 -2.46827 0
M  V30 4190 H 388.74 0.605062 -2.93733 0
M  V30 4191 H 386.293 0.278514 -1.53799 0
M  V30 4192 H 387.028 2.81168 -1.61602 0
M  V30 4193 H 386.813 2.16566 -3.26866 0
M  V30 4194 H 388.303 3.05938 -2.84239 0
M  V30 4195 N 388.74 1.54641 0.303973 0
M  V30 4196 C 389.69 1.8177 1.37636 0
M  V30 4197 C 390.674 0.674697 1.46071 0
M  V30 4198 O 391.866 0.935251 1.50273 0
M  V30 4199 C 388.995 2.06584 2.74186 0
M  V30 4200 C 388.081 3.2706 2.69986 0
M  V30 4201 N 388.472 4.47682 2.35402 0
M  V30 4202 C 386.77 3.29028 3.01092 0
M  V30 4203 C 387.471 5.29689 2.40426 0
M  V30 4204 N 386.447 4.67339 2.7766 0
M  V30 4205 H 390.249 2.72596 1.09857 0
M  V30 4206 H 387.763 1.541 0.51254 0
M  V30 4207 H 389.76 2.24166 3.51504 0
M  V30 4208 H 388.42 1.17024 3.02879 0
M  V30 4209 H 389.431 4.74336 2.07908 0
M  V30 4210 H 386.108 2.49565 3.34699 0
M  V30 4211 H 387.498 6.3606 2.16512 0
M  V30 4212 N 390.218 -0.567019 1.47046 0
M  V30 4213 C 391.181 -1.65696 1.58359 0
M  V30 4214 C 392.181 -1.54097 0.459441 0
M  V30 4215 O 393.371 -1.58432 0.724225 0
M  V30 4216 C 390.503 -3.05197 1.51879 0
M  V30 4217 H 391.696 -1.57019 2.5551 0
M  V30 4218 H 389.249 -0.786148 1.3509 0
M  V30 4219 H 389.984 -3.19417 0.560673 0
M  V30 4220 H 389.769 -3.15025 2.33455 0
M  V30 4221 H 391.259 -3.84511 1.62913 0
M  V30 4222 N 391.696 -1.35014 -0.812953 0
M  V30 4223 C 392.944 -1.27678 -1.56661 0
M  V30 4224 C 393.265 0.150359 -1.94419 0
M  V30 4225 O 392.535 1.08532 -1.63088 0
M  V30 4226 H 391.115 -0.469602 -0.580933 0
M  V30 4227 H 393.777 -1.69043 -0.970076 0
M  V30 4228 H 392.873 -1.88833 -2.48492 0
M  V30 4229 N 393.175 1.03435 -1.18907 0
M  V30 4230 C 394.122 2.11591 -0.921837 0
M  V30 4231 C 395.092 1.65499 0.141226 0
M  V30 4232 O 396.277 1.908 0.000242829 0
M  V30 4233 C 393.417 3.42012 -0.460616 0
M  V30 4234 C 392.53 4.01682 -1.58982 0
M  V30 4235 C 391.665 5.20091 -1.08069 0
M  V30 4236 C 390.704 5.71805 -2.18416 0
M  V30 4237 N 389.841 6.81494 -1.68849 0
M  V30 4238 H 394.681 2.33787 -1.8479 0
M  V30 4239 H 392.218 1.1467 -0.921373 0
M  V30 4240 H 394.176 4.16834 -0.174642 0
M  V30 4241 H 392.806 3.19944 0.428467 0
M  V30 4242 H 391.858 3.24127 -1.99113 0
M  V30 4243 H 393.17 4.36084 -2.4214 0
M  V30 4244 H 392.324 6.02051 -0.749615 0
M  V30 4245 H 391.063 4.87209 -0.218771 0
M  V30 4246 H 390.068 4.88461 -2.5236 0
M  V30 4247 H 391.293 6.06728 -3.05054 0
M  V30 4248 H 389.239 6.50475 -0.849572 0
M  V30 4249 H 389.156 7.14994 -2.45601 0
M  V30 4250 H 390.424 7.67063 -1.38689 0
M  V30 4251 N 394.653 0.992116 1.22453 0
M  V30 4252 C 395.563 0.55065 2.28046 0
M  V30 4253 C 396.579 -0.400189 1.69335 0
M  V30 4254 O 397.755 -0.267215 1.99619 0
M  V30 4255 C 394.82 -0.128496 3.46462 0
M  V30 4256 C 393.881 0.865208 4.20491 0
M  V30 4257 C 393.114 0.218377 5.33253 0
M  V30 4258 O 393.337 -0.987894 5.6178 0
M  V30 4259 O 392.271 0.922845 5.94783 0
M  V30 4260 H 396.097 1.4291 2.67975 0
M  V30 4261 H 393.682 0.760326 1.28606 0
M  V30 4262 H 395.564 -0.508947 4.18315 0
M  V30 4263 H 394.239 -0.981526 3.0846 0
M  V30 4264 H 393.146 1.29658 3.50913 0
M  V30 4265 H 394.479 1.68741 4.62371 0
M  V30 4266 N 396.131 -1.37776 0.765217 0
M  V30 4267 C 397.377 -2.00145 0.327072 0
M  V30 4268 C 397.71 -1.60607 -1.09175 0
M  V30 4269 O 396.985 -0.849127 -1.74986 0
M  V30 4270 C 397.268 -3.57109 0.46319 0
M  V30 4271 C 397.121 -4.06576 1.92395 0
M  V30 4272 C 398.44 -4.39888 -0.136473 0
M  V30 4273 H 395.559 -0.727113 0.120316 0
M  V30 4274 H 398.201 -1.63549 0.967039 0
M  V30 4275 H 396.351 -3.88414 -0.0816358 0
M  V30 4276 H 398.023 -3.85864 2.52798 0
M  V30 4277 H 396.266 -3.59011 2.43503 0
M  V30 4278 H 396.937 -5.15639 1.97028 0
M  V30 4279 H 399.413 -4.14803 0.328317 0
M  V30 4280 H 398.289 -5.48899 -0.0110582 0
M  V30 4281 H 398.55 -4.24758 -1.22608 0
M  V30 4282 N 397.609 -0.515225 -1.4894 0
M  V30 4283 C 398.557 0.269115 -2.31038 0
M  V30 4284 C 399.551 0.949443 -1.40292 0
M  V30 4285 O 400.757 0.87551 -1.57273 0
M  V30 4286 H 397.132 0.10565 -0.744542 0
M  V30 4287 H 399.103 -0.443096 -2.95092 0
M  V30 4288 C 397.852 1.31213 -3.21991 0
M  V30 4289 H 397.175 0.798034 -3.91754 0
M  V30 4290 H 398.615 1.83263 -3.82349 0
M  V30 4291 C 397.074 2.33791 -2.42576 0
M  V30 4292 O 397.604 3.3995 -2.14003 0
M  V30 4293 N 395.81 2.06625 -2.0434 0
M  V30 4294 H 395.357 1.20314 -2.27777 0
M  V30 4295 H 395.315 2.75483 -1.51514 0
M  V30 4296 N 399.087 1.5561 -0.249682 0
M  V30 4297 C 400.498 1.84979 0.252949 0
M  V30 4298 C 400.849 1.17153 1.57384 0
M  V30 4299 O 399.974 0.450884 2.11651 0
M  V30 4300 C 400.569 3.35584 0.465732 0
M  V30 4301 C 399.128 3.65169 0.912624 0
M  V30 4302 C 398.275 2.77299 -0.00859085 0
M  V30 4303 H 401.226 1.51513 -0.47217 0
M  V30 4304 H 401.247 3.57313 1.30795 0
M  V30 4305 H 400.759 3.8492 -0.49579 0
M  V30 4306 H 398.86 3.21312 1.88652 0
M  V30 4307 H 398.973 4.72912 0.767559 0
M  V30 4308 H 397.337 2.49678 0.50327 0
M  V30 4309 H 398.12 3.29442 -0.965537 0
M  V30 4310 N 400.565 -0.0233959 1.57583 0
M  V30 4311 C 401.79 -0.728376 1.94189 0
M  V30 4312 C 402.215 -1.67793 0.850119 0
M  V30 4313 O 401.573 -1.80262 -0.19371 0
M  V30 4314 C 401.621 -1.45669 3.29868 0
M  V30 4315 O 400.725 -2.57013 3.22518 0
M  V30 4316 H 400.066 -0.195493 0.63457 0
M  V30 4317 H 402.596 0.0228214 2.04587 0
M  V30 4318 H 402.606 -1.82535 3.6489 0
M  V30 4319 H 401.281 -0.760314 4.08891 0
M  V30 4320 H 399.858 -2.22648 2.99136 0
M  V30 4321 N 402.043 -1.548 -0.295768 0
M  V30 4322 C 403.271 -1.78327 -1.04914 0
M  V30 4323 C 403.686 -0.545316 -1.80753 0
M  V30 4324 O 403.043 0.485013 -1.75937 0
M  V30 4325 C 403.094 -2.99418 -2.02561 0
M  V30 4326 O 402.815 -4.18431 -1.29798 0
M  V30 4327 C 404.316 -3.35375 -2.89895 0
M  V30 4328 H 401.536 -0.594618 -0.310918 0
M  V30 4329 H 404.08 -2.01763 -0.333454 0
M  V30 4330 H 402.235 -2.78175 -2.69624 0
M  V30 4331 H 402.649 -4.86736 -1.95419 0
M  V30 4332 H 404.123 -4.23332 -3.54251 0
M  V30 4333 H 404.6 -2.53761 -3.58472 0
M  V30 4334 H 405.206 -3.58796 -2.28355 0
M  V30 4335 N 403.521 0.559213 -1.47345 0
M  V30 4336 C 404.932 1.14134 -1.47751 0
M  V30 4337 C 405.283 1.94834 -0.231103 0
M  V30 4338 O 404.408 2.05957 0.664137 0
M  V30 4339 C 405.003 2.07653 -2.67705 0
M  V30 4340 C 403.562 2.61141 -2.71076 0
M  V30 4341 C 402.709 1.3748 -2.40821 0
M  V30 4342 H 405.66 0.345917 -1.54884 0
M  V30 4343 H 405.681 2.91497 -2.44561 0
M  V30 4344 H 405.193 1.4889 -3.58404 0
M  V30 4345 H 403.294 3.23707 -1.84511 0
M  V30 4346 H 403.407 3.02272 -3.7171 0
M  V30 4347 H 401.771 1.68086 -1.91362 0
M  V30 4348 H 402.554 0.805135 -3.33725 0
M  V30 4349 N 404.999 1.35443 0.805782 0
M  V30 4350 C 405.909 1.30546 1.94923 0
M  V30 4351 C 406.925 0.210233 1.72725 0
M  V30 4352 O 408.101 0.43975 1.9654 0
M  V30 4353 C 405.166 1.07782 3.29521 0
M  V30 4354 C 404.227 2.26625 3.64609 0
M  V30 4355 C 403.46 2.04938 4.92784 0
M  V30 4356 O 403.683 1.01624 5.61274 0
M  V30 4357 O 402.617 2.9232 5.26149 0
M  V30 4358 H 406.443 2.26779 2.02002 0
M  V30 4359 H 404.028 1.15823 0.943682 0
M  V30 4360 H 405.91 0.969392 4.10098 0
M  V30 4361 H 404.585 0.146003 3.23371 0
M  V30 4362 H 403.492 2.43033 2.84404 0
M  V30 4363 H 404.825 3.18257 3.75464 0
M  V30 4364 N 406.477 -1.02803 1.19454 0
M  V30 4365 C 407.723 -1.76478 0.999171 0
M  V30 4366 C 408.056 -1.88456 -0.468828 0
M  V30 4367 O 407.331 -1.40198 -1.34814 0
M  V30 4368 C 407.614 -3.19044 1.66981 0
M  V30 4369 C 407.467 -3.14932 3.21151 0
M  V30 4370 C 408.786 -4.17456 1.39349 0
M  V30 4371 H 405.905 -0.640614 0.364393 0
M  V30 4372 H 408.547 -1.20005 1.47305 0
M  V30 4373 H 406.697 -3.67263 1.2669 0
M  V30 4374 H 408.369 -2.74605 3.70661 0
M  V30 4375 H 406.612 -2.52625 3.52652 0
M  V30 4376 H 407.283 -4.1566 3.63223 0
M  V30 4377 H 409.759 -3.77842 1.74283 0
M  V30 4378 H 408.635 -5.154 1.88823 0
M  V30 4379 H 408.896 -4.40949 0.318813 0
M  V30 4380 N 407.956 -0.998596 -1.21925 0
M  V30 4381 C 409.184 -0.696286 -1.94832 0
M  V30 4382 C 409.599 0.740032 -1.73692 0
M  V30 4383 O 408.956 1.5 -1.03953 0
M  V30 4384 C 409.007 -0.999833 -3.47398 0
M  V30 4385 O 408.728 -2.37972 -3.67833 0
M  V30 4386 C 410.229 -0.716025 -4.37479 0
M  V30 4387 H 407.449 -0.257111 -0.619786 0
M  V30 4388 H 409.993 -1.33491 -1.54921 0
M  V30 4389 H 408.148 -0.406918 -3.85257 0
M  V30 4390 H 408.562 -2.48338 -4.61983 0
M  V30 4391 H 410.036 -0.978642 -5.43256 0
M  V30 4392 H 410.513 0.349968 -4.37803 0
M  V30 4393 H 411.119 -1.29025 -4.05256 0
M  V30 4394 N 409.434 1.37368 -0.772513 0
M  V30 4395 C 410.845 1.8231 -0.402493 0
M  V30 4396 C 411.196 1.6436 1.07146 0
M  V30 4397 O 410.321 1.15514 1.82991 0
M  V30 4398 C 410.916 3.30979 -0.723776 0
M  V30 4399 C 409.475 3.74195 -0.406802 0
M  V30 4400 C 408.622 2.59885 -0.967218 0
M  V30 4401 H 411.573 1.25829 -0.967099 0
M  V30 4402 H 411.594 3.80499 -0.00870832 0
M  V30 4403 H 411.106 3.44011 -1.7966 0
M  V30 4404 H 409.207 3.66732 0.658673 0
M  V30 4405 H 409.32 4.7027 -0.915588 0
M  V30 4406 H 407.684 2.51674 -0.391416 0
M  V30 4407 H 408.467 2.7571 -2.04546 0
M  V30 4408 N 410.912 0.523116 1.48665 0
M  V30 4409 C 412.137 -0.0117284 2.07397 0
M  V30 4410 C 412.562 -1.28031 1.37803 0
M  V30 4411 O 411.92 -1.75836 0.441762 0
M  V30 4412 C 411.968 -0.225786 3.59892 0
M  V30 4413 O 411.072 -1.29592 3.91509 0
M  V30 4414 H 410.413 0.0360673 0.66302 0
M  V30 4415 H 412.943 0.729066 1.9117 0
M  V30 4416 H 412.953 -0.450552 4.05505 0
M  V30 4417 H 411.628 0.700944 4.09951 0
M  V30 4418 H 410.205 -1.05436 3.57684 0
M  V30 4419 N 412.39 -1.55475 0.257931 0
M  V30 4420 C 413.636 -1.99502 -0.364266 0
M  V30 4421 C 413.969 -1.146 -1.56782 0
M  V30 4422 O 413.244 -0.211968 -1.93342 0
M  V30 4423 C 413.527 -3.51917 -0.763333 0
M  V30 4424 C 413.38 -4.4758 0.446371 0
M  V30 4425 C 414.699 -4.09742 -1.60623 0
M  V30 4426 H 411.818 -0.725277 -0.130929 0
M  V30 4427 H 414.46 -1.8653 0.361446 0
M  V30 4428 H 412.61 -3.63101 -1.38166 0
M  V30 4429 H 414.282 -4.48362 1.08487 0
M  V30 4430 H 412.525 -4.19947 1.08753 0
M  V30 4431 H 413.196 -5.51862 0.123645 0
M  V30 4432 H 415.672 -4.01727 -1.08418 0
M  V30 4433 H 414.548 -5.16631 -1.85429 0
M  V30 4434 H 414.809 -3.58889 -2.58169 0
M  V30 4435 N 413.868 0.0150385 -1.57593 0
M  V30 4436 C 415.279 0.559832 -1.78109 0
M  V30 4437 C 415.63 1.74814 -0.890756 0
M  V30 4438 O 414.755 2.16216 -0.0892482 0
M  V30 4439 C 415.35 1.02238 -3.23006 0
M  V30 4440 C 413.909 1.51258 -3.44671 0
M  V30 4441 C 413.056 0.456955 -2.73509 0
M  V30 4442 H 416.007 -0.211169 -1.57289 0
M  V30 4443 H 416.028 1.88912 -3.30292 0
M  V30 4444 H 415.54 0.157302 -3.87781 0
M  V30 4445 H 413.641 2.39905 -2.8509 0
M  V30 4446 H 413.754 1.55042 -4.5332 0
M  V30 4447 H 412.118 0.915196 -2.37689 0
M  V30 4448 H 412.901 -0.398896 -3.40975 0
M  V30 4449 N 415.346 1.54954 0.287554 0
M  V30 4450 C 416.278 1.83224 1.37701 0
M  V30 4451 C 417.291 0.715898 1.46215 0
M  V30 4452 O 418.48 0.993565 1.48292 0
M  V30 4453 C 415.58 1.96723 2.75959 0
M  V30 4454 C 414.753 3.27253 2.90215 0
M  V30 4455 C 413.812 3.30998 4.09056 0
M  V30 4456 O 412.838 4.04457 4.00503 0
M  V30 4457 N 414.04 2.57353 5.20336 0
M  V30 4458 H 416.805 2.77254 1.138 0
M  V30 4459 H 414.366 1.54694 0.477652 0
M  V30 4460 H 416.358 1.96615 3.5373 0
M  V30 4461 H 414.928 1.09626 2.92747 0
M  V30 4462 H 414.148 3.40022 1.99447 0
M  V30 4463 H 415.436 4.13365 2.96659 0
M  V30 4464 H 414.834 1.97327 5.30169 0
M  V30 4465 H 413.391 2.62984 5.96391 0
M  V30 4466 N 416.824 -0.551391 1.4764 0
M  V30 4467 C 417.772 -1.67896 1.60978 0
M  V30 4468 C 418.766 -1.62549 0.476877 0
M  V30 4469 O 419.972 -1.67664 0.654878 0
M  V30 4470 H 416.347 -0.555649 0.506713 0
M  V30 4471 H 418.318 -1.53784 2.55721 0
M  V30 4472 C 417.067 -3.06234 1.64669 0
M  V30 4473 H 416.39 -3.11033 2.51194 0
M  V30 4474 H 417.83 -3.84804 1.7805 0
M  V30 4475 C 416.289 -3.34737 0.381115 0
M  V30 4476 O 416.819 -3.98381 -0.515297 0
M  V30 4477 N 415.025 -2.8944 0.259354 0
M  V30 4478 H 414.572 -2.37827 0.98976 0
M  V30 4479 H 414.53 -3.08882 -0.586464 0
M  V30 4480 N 418.302 -1.35869 -0.798587 0
M  V30 4481 C 419.252 -1.25982 -1.90033 0
M  V30 4482 C 420.236 -0.153303 -1.60168 0
M  V30 4483 O 421.428 -0.38527 -1.72756 0
M  V30 4484 C 418.557 -1.04211 -3.27101 0
M  V30 4485 C 417.643 -2.19289 -3.63006 0
M  V30 4486 N 418.034 -3.44559 -3.70287 0
M  V30 4487 C 416.332 -2.10852 -3.93011 0
M  V30 4488 C 417.033 -4.20283 -4.02166 0
M  V30 4489 N 416.009 -3.49124 -4.16669 0
M  V30 4490 H 419.811 -2.20883 -1.93876 0
M  V30 4491 H 417.325 -1.28457 -0.993614 0
M  V30 4492 H 419.322 -0.952155 -4.05881 0
M  V30 4493 H 417.982 -0.102013 -3.2454 0
M  V30 4494 H 418.993 -3.7881 -3.53162 0
M  V30 4495 H 415.67 -1.24744 -3.98428 0
M  V30 4496 H 417.06 -5.28575 -4.14799 0
M  V30 4497 N 419.78 1.02168 -1.19998 0
M  V30 4498 C 421.01 1.79036 -1.031 0
M  V30 4499 C 421.418 1.84409 0.423078 0
M  V30 4500 O 420.761 1.29228 1.30559 0
M  V30 4501 C 420.823 3.25185 -1.53281 0
M  V30 4502 C 420.487 3.43431 -3.01503 0
M  V30 4503 C 421.484 3.33063 -3.99206 0
M  V30 4504 C 419.169 3.69412 -3.40353 0
M  V30 4505 C 421.163 3.48413 -5.33748 0
M  V30 4506 C 418.85 3.84406 -4.75053 0
M  V30 4507 C 419.848 3.7391 -5.71559 0
M  V30 4508 O 419.536 3.88452 -7.03818 0
M  V30 4509 H 419.268 0.570043 -0.363355 0
M  V30 4510 H 421.822 1.29524 -1.59414 0
M  V30 4511 H 420.052 3.75756 -0.913483 0
M  V30 4512 H 421.741 3.83671 -1.32481 0
M  V30 4513 H 422.507 3.12934 -3.70537 0
M  V30 4514 H 418.386 3.76671 -2.65782 0
M  V30 4515 H 421.93 3.40137 -6.09059 0
M  V30 4516 H 417.827 4.04035 -5.03415 0
M  V30 4517 H 418.595 4.055 -7.10993 0
M  V30 4518 N 421.258 1.00505 1.21394 0
M  V30 4519 C 422.208 0.536503 2.21598 0
M  V30 4520 C 423.192 -0.401914 1.55799 0
M  V30 4521 O 424.384 -0.226757 1.75541 0
M  V30 4522 C 421.513 -0.135446 3.43033 0
M  V30 4523 C 420.599 0.823992 4.16018 0
M  V30 4524 N 420.99 1.97683 4.6557 0
M  V30 4525 C 419.288 0.642387 4.4135 0
M  V30 4526 C 419.989 2.58003 5.21354 0
M  V30 4527 N 418.965 1.86162 5.1073 0
M  V30 4528 H 422.767 1.41557 2.57563 0
M  V30 4529 H 420.281 0.868878 1.37202 0
M  V30 4530 H 422.278 -0.488584 4.14027 0
M  V30 4531 H 420.938 -1.01049 3.08576 0
M  V30 4532 H 421.949 2.3572 4.61147 0
M  V30 4533 H 418.626 -0.185578 4.17087 0
M  V30 4534 H 420.016 3.555 5.70149 0
M  V30 4535 N 422.737 -1.36956 0.779787 0
M  V30 4536 C 423.647 -2.33965 0.172491 0
M  V30 4537 C 424.663 -1.60574 -0.670222 0
M  V30 4538 O 425.839 -1.92617 -0.588263 0
M  V30 4539 C 422.904 -3.39761 -0.690173 0
M  V30 4540 C 421.965 -4.28964 0.169924 0
M  V30 4541 C 421.198 -5.29707 -0.651662 0
M  V30 4542 O 421.421 -5.38238 -1.88827 0
M  V30 4543 O 420.355 -6.01873 -0.0566264 0
M  V30 4544 H 424.181 -2.87647 0.974321 0
M  V30 4545 H 421.766 -1.39258 0.541078 0
M  V30 4546 H 423.648 -4.04471 -1.1824 0
M  V30 4547 H 422.323 -2.88394 -1.47006 0
M  V30 4548 H 421.23 -3.67326 0.708696 0
M  V30 4549 H 422.563 -4.83656 0.913085 0
M  V30 4550 N 424.215 -0.530993 -1.48385 0
M  V30 4551 C 425.163 0.244595 -2.3131 0
M  V30 4552 C 426.157 0.93451 -1.41291 0
M  V30 4553 O 427.363 0.85878 -1.58193 0
M  V30 4554 H 423.738 0.0977472 -0.74562 0
M  V30 4555 H 425.709 -0.474369 -2.94605 0
M  V30 4556 C 424.458 1.2779 -3.23365 0
M  V30 4557 H 423.781 0.756439 -3.92579 0
M  V30 4558 H 425.221 1.79198 -3.84271 0
M  V30 4559 C 423.68 2.31205 -2.45042 0
M  V30 4560 O 424.21 3.37661 -2.17596 0
M  V30 4561 N 422.416 2.04446 -2.0652 0
M  V30 4562 H 421.963 1.17891 -2.2904 0
M  V30 4563 H 421.921 2.73861 -1.54427 0
M  V30 4564 N 425.693 1.55336 -0.266172 0
M  V30 4565 C 426.97 1.91372 0.404486 0
M  V30 4566 C 427.35 1.18935 1.74407 0
M  V30 4567 O 426.698 0.3132 2.26343 0
M  V30 4568 C 426.908 3.44581 0.553593 0
M  V30 4569 C 428.256 4.16196 0.840618 0
M  V30 4570 O 429.28 3.50426 0.638739 0
M  V30 4571 O 428.139 5.32567 1.22618 0
M  V30 4572 H 425.233 0.797194 0.220025 0
M  V30 4573 H 427.779 1.66813 -0.311664 0
M  V30 4574 H 426.551 3.89357 -0.389498 0
M  V30 4575 H 426.174 3.75065 1.31955 0
M  V30 4576 N 427.171 -0.0066808 1.57599 0
M  V30 4577 C 428.401 -0.703066 1.94269 0
M  V30 4578 C 428.809 -1.68206 0.866222 0
M  V30 4579 O 428.152 -1.82966 -0.164087 0
M  V30 4580 C 428.214 -1.49616 3.26887 0
M  V30 4581 C 427.878 -0.679494 4.5192 0
M  V30 4582 C 428.875 0.0299508 5.19891 0
M  V30 4583 C 426.56 -0.627433 4.98366 0
M  V30 4584 C 428.554 0.780514 6.32603 0
M  V30 4585 C 426.241 0.126861 6.10968 0
M  V30 4586 C 427.239 0.829574 6.77943 0
M  V30 4587 O 426.927 1.57157 7.88389 0
M  V30 4588 H 426.659 -0.201217 0.645359 0
M  V30 4589 H 429.213 0.0385326 2.05364 0
M  V30 4590 H 427.443 -2.28209 3.12182 0
M  V30 4591 H 429.132 -2.07726 3.48719 0
M  V30 4592 H 429.898 -0.00115963 4.85 0
M  V30 4593 H 425.777 -1.16392 4.46065 0
M  V30 4594 H 429.321 1.32954 6.84813 0
M  V30 4595 H 425.218 0.159815 6.45302 0
M  V30 4596 H 425.986 1.48758 8.04868 0
M  V30 4597 N 428.649 -1.55105 -0.279332 0
M  V30 4598 C 429.612 -1.86783 -1.32834 0
M  V30 4599 C 430.612 -0.74199 -1.42657 0
M  V30 4600 O 431.802 -1.0102 -1.41918 0
M  V30 4601 C 428.934 -2.06746 -2.71052 0
M  V30 4602 H 430.127 -2.8055 -1.05979 0
M  V30 4603 H 427.68 -1.47499 -0.517087 0
M  V30 4604 H 428.415 -1.15339 -3.03097 0
M  V30 4605 H 428.2 -2.88711 -2.65309 0
M  V30 4606 H 429.69 -2.32549 -3.46858 0
M  V30 4607 N 430.127 0.543554 -1.4793 0
M  V30 4608 C 431.075 1.67039 -1.61866 0
M  V30 4609 C 432.069 1.62294 -0.48549 0
M  V30 4610 O 433.275 1.67315 -0.66376 0
M  V30 4611 H 429.65 0.552954 -0.509652 0
M  V30 4612 H 431.621 1.52426 -2.56533 0
M  V30 4613 C 430.37 3.05357 -1.6629 0
M  V30 4614 H 429.693 3.09696 -2.5284 0
M  V30 4615 H 431.133 3.83855 -1.80088 0
M  V30 4616 C 429.592 3.34531 -0.398861 0
M  V30 4617 O 430.122 3.98649 0.494162 0
M  V30 4618 N 428.328 2.89299 -0.2747 0
M  V30 4619 H 427.875 2.37298 -1.00236 0
M  V30 4620 H 427.833 3.09188 0.570075 0
M  V30 4621 N 431.605 1.3629 0.791371 0
M  V30 4622 C 432.854 1.29742 1.54434 0
M  V30 4623 C 433.167 -0.121729 1.95221 0
M  V30 4624 O 434.373 -0.309579 2.69729 0
M  V30 4625 C 432.829 2.27623 2.78776 0
M  V30 4626 C 432.437 3.74963 2.45166 0
M  V30 4627 C 434.181 2.30047 3.56761 0
M  V30 4628 C 432.088 4.64626 3.65891 0
M  V30 4629 H 431.018 0.482113 0.579727 0
M  V30 4630 H 433.669 1.61642 0.868565 0
M  V30 4631 H 432.051 1.88714 3.48142 0
M  V30 4632 H 433.225 4.22596 1.83709 0
M  V30 4633 H 431.54 3.75295 1.80396 0
M  V30 4634 H 434.137 2.94247 4.46456 0
M  V30 4635 H 434.48 1.30846 3.95203 0
M  V30 4636 H 435.013 2.67563 2.94372 0
M  V30 4637 H 431.752 5.64883 3.32547 0
M  V30 4638 H 431.272 4.2171 4.26521 0
M  V30 4639 H 432.951 4.80801 4.32943 0
M  V30 4640 N 433.083 -1.0153 1.20538 0
M  V30 4641 C 434.331 -1.74803 1.01432 0
M  V30 4642 C 434.652 -1.8963 -0.454456 0
M  V30 4643 O 433.922 -1.43975 -1.32846 0
M  V30 4644 H 432.502 -0.647598 0.372324 0
M  V30 4645 H 435.164 -1.22402 1.5167 0
M  V30 4646 H 434.26 -2.75114 1.47373 0
M  V30 4647 N 434.561 -1.01147 -1.20859 0
M  V30 4648 C 435.524 -0.582224 -2.21682 0
M  V30 4649 C 436.524 0.344887 -1.57058 0
M  V30 4650 O 437.714 0.134281 -1.73682 0
M  V30 4651 C 434.846 0.150496 -3.40568 0
M  V30 4652 H 436.039 -1.47408 -2.61172 0
M  V30 4653 H 433.592 -0.800695 -1.34233 0
M  V30 4654 H 434.327 1.0575 -3.06574 0
M  V30 4655 H 434.112 -0.515444 -3.88697 0
M  V30 4656 H 435.602 0.438344 -4.15293 0
M  V30 4657 N 436.039 1.36541 -0.78704 0
M  V30 4658 C 437.287 1.98911 -0.357633 0
M  V30 4659 C 437.608 1.62778 1.07371 0
M  V30 4660 O 436.878 0.900612 1.73971 0
M  V30 4661 H 435.458 0.735734 -0.129246 0
M  V30 4662 H 438.12 1.66776 -1.00855 0
M  V30 4663 H 437.216 3.08874 -0.447549 0
M  V30 4664 N 437.518 0.538854 1.48102 0
M  V30 4665 C 438.428 -0.222648 2.33541 0
M  V30 4666 C 439.444 -0.930225 1.47047 0
M  V30 4667 O 440.62 -0.903211 1.80011 0
M  V30 4668 C 437.685 -1.25064 3.23357 0
M  V30 4669 C 436.746 -0.552469 4.2573 0
M  V30 4670 C 435.979 -1.53149 5.11254 0
M  V30 4671 O 436.202 -2.76487 4.9891 0
M  V30 4672 O 435.136 -1.06602 5.92385 0
M  V30 4673 H 438.962 0.477707 2.99919 0
M  V30 4674 H 436.547 0.299669 1.46364 0
M  V30 4675 H 438.429 -1.8445 3.78888 0
M  V30 4676 H 437.104 -1.93325 2.59629 0
M  V30 4677 H 436.011 0.082114 3.7401 0
M  V30 4678 H 437.344 0.0883526 4.92121 0
M  V30 4679 N 438.996 -1.55193 0.274407 0
M  V30 4680 C 440.244 -1.99187 -0.341902 0
M  V30 4681 C 440.565 -1.16422 -1.56431 0
M  V30 4682 O 439.835 -0.253573 -1.94252 0
M  V30 4683 H 438.415 -0.735721 -0.129317 0
M  V30 4684 H 441.077 -1.91168 0.379578 0
M  V30 4685 H 440.173 -3.05629 -0.632253 0
M  V30 4686 N 440.474 -0.00167713 -1.576 0
M  V30 4687 C 441.702 0.693759 -1.94922 0
M  V30 4688 C 442.117 1.67215 -0.876626 0
M  V30 4689 O 441.474 1.81929 0.144279 0
M  V30 4690 C 441.525 1.42416 -3.32265 0
M  V30 4691 O 441.246 0.485014 -4.35407 0
M  V30 4692 C 442.747 2.21395 -3.84056 0
M  V30 4693 H 439.967 0.193118 -0.642609 0
M  V30 4694 H 442.511 -0.0532952 -2.04431 0
M  V30 4695 H 440.666 2.12284 -3.24059 0
M  V30 4696 H 441.08 1.00053 -5.14868 0
M  V30 4697 H 442.554 2.67996 -4.82578 0
M  V30 4698 H 443.031 3.04142 -3.16851 0
M  V30 4699 H 443.637 1.56542 -3.95443 0
M  V30 4700 N 441.952 1.55251 0.271103 0
M  V30 4701 C 442.899 1.88261 1.33516 0
M  V30 4702 C 443.869 0.734296 1.48988 0
M  V30 4703 O 445.054 0.985741 1.63364 0
M  V30 4704 C 442.194 2.16168 2.69008 0
M  V30 4705 C 441.307 3.43678 2.61743 0
M  V30 4706 C 440.442 3.61276 3.89427 0
M  V30 4707 C 439.481 4.82472 3.7668 0
M  V30 4708 N 438.618 4.96717 4.96202 0
M  V30 4709 H 443.458 2.79015 1.04665 0
M  V30 4710 H 440.995 1.38137 0.505618 0
M  V30 4711 H 442.953 2.30349 3.47844 0
M  V30 4712 H 441.583 1.28646 2.96057 0
M  V30 4713 H 440.635 3.37959 1.74607 0
M  V30 4714 H 441.947 4.3265 2.48224 0
M  V30 4715 H 441.101 3.75284 4.76704 0
M  V30 4716 H 439.84 2.70492 4.05814 0
M  V30 4717 H 438.845 4.68465 2.87786 0
M  V30 4718 H 440.07 5.74692 3.61809 0
M  V30 4719 H 438.016 4.08865 5.12997 0
M  V30 4720 H 437.933 5.79738 4.85222 0
M  V30 4721 H 439.201 5.15113 5.85046 0
M  V30 4722 N 443.43 -0.535701 1.48216 0
M  V30 4723 C 444.34 -1.66785 1.64985 0
M  V30 4724 C 445.356 -1.65654 0.532414 0
M  V30 4725 O 446.532 -1.8471 0.80275 0
M  V30 4726 C 443.597 -3.0326 1.68031 0
M  V30 4727 C 442.658 -3.1529 2.9136 0
M  V30 4728 C 441.891 -4.45255 2.94252 0
M  V30 4729 O 442.114 -5.32011 2.05719 0
M  V30 4730 O 441.048 -4.6153 3.86359 0
M  V30 4731 H 444.874 -1.55576 2.60825 0
M  V30 4732 H 442.459 -0.70815 1.31551 0
M  V30 4733 H 444.341 -3.84436 1.72589 0
M  V30 4734 H 443.016 -3.14805 0.753628 0
M  V30 4735 H 441.923 -2.3343 2.92337 0
M  V30 4736 H 443.256 -3.08658 3.83394 0
M  V30 4737 N 444.908 -1.36708 -0.784132 0
M  V30 4738 C 446.185 -1.21776 -1.53069 0
M  V30 4739 C 446.565 0.193876 -2.10208 0
M  V30 4740 O 445.913 1.20012 -1.94446 0
M  V30 4741 C 446.123 -2.30395 -2.62143 0
M  V30 4742 C 447.471 -2.67325 -3.29882 0
M  V30 4743 O 448.495 -2.29478 -2.7243 0
M  V30 4744 O 447.354 -3.32485 -4.33724 0
M  V30 4745 H 444.448 -0.474459 -0.677361 0
M  V30 4746 H 446.994 -1.48454 -0.82216 0
M  V30 4747 H 445.766 -3.2498 -2.17953 0
M  V30 4748 H 445.389 -2.05112 -3.40609 0
M  V30 4749 N 446.386 1.0089 -1.21074 0
M  V30 4750 C 447.634 1.74262 -1.02358 0
M  V30 4751 C 447.955 1.89869 0.444393 0
M  V30 4752 O 447.225 1.44677 1.32081 0
M  V30 4753 H 445.805 0.645615 -0.375754 0
M  V30 4754 H 448.467 1.21596 -1.52317 0
M  V30 4755 H 447.563 2.74328 -1.4883 0
M  V30 4756 N 447.864 1.01787 1.20321 0
M  V30 4757 C 448.811 0.589197 2.23153 0
M  V30 4758 C 449.781 -0.391367 1.61423 0
M  V30 4759 O 450.966 -0.290518 1.88575 0
M  V30 4760 C 448.106 -0.0650747 3.45039 0
M  V30 4761 C 447.219 0.960207 4.21194 0
M  V30 4762 C 446.354 0.276854 5.30478 0
M  V30 4763 C 445.393 1.2888 5.98378 0
M  V30 4764 N 444.53 0.632031 6.99249 0
M  V30 4765 H 449.37 1.47071 2.59179 0
M  V30 4766 H 446.907 0.736192 1.27352 0
M  V30 4767 H 448.865 -0.461552 4.14639 0
M  V30 4768 H 447.495 -0.910233 3.09701 0
M  V30 4769 H 446.547 1.47484 3.50646 0
M  V30 4770 H 447.859 1.72977 4.67847 0
M  V30 4771 H 447.013 -0.175056 6.06447 0
M  V30 4772 H 445.752 -0.525004 4.84866 0
M  V30 4773 H 444.757 1.75109 5.21169 0
M  V30 4774 H 445.982 2.09196 6.46076 0
M  V30 4775 H 443.928 -0.149935 6.55829 0
M  V30 4776 H 443.845 1.33964 7.44036 0
M  V30 4777 H 445.113 0.203755 7.79234 0
M  V30 4778 N 449.342 -1.36122 0.79427 0
M  V30 4779 C 450.289 -2.29982 0.194101 0
M  V30 4780 C 451.259 -1.52214 -0.664833 0
M  V30 4781 O 452.444 -1.80702 -0.612498 0
M  V30 4782 C 449.584 -3.38706 -0.661244 0
M  V30 4783 C 448.697 -4.31456 0.216766 0
M  V30 4784 C 447.832 -5.27265 -0.645411 0
M  V30 4785 C 446.871 -6.11653 0.233756 0
M  V30 4786 N 446.008 -6.99636 -0.587682 0
M  V30 4787 H 450.848 -2.80722 0.999965 0
M  V30 4788 H 448.385 -1.38172 0.504677 0
M  V30 4789 H 450.343 -4.00394 -1.17219 0
M  V30 4790 H 448.973 -2.89274 -1.43249 0
M  V30 4791 H 448.025 -3.7088 0.845724 0
M  V30 4792 H 449.337 -4.90724 0.893973 0
M  V30 4793 H 448.491 -5.94266 -1.22198 0
M  V30 4794 H 447.23 -4.68463 -1.35623 0
M  V30 4795 H 446.235 -5.4361 0.82269 0
M  V30 4796 H 447.46 -6.72531 0.942247 0
M  V30 4797 H 445.406 -6.43337 -1.2827 0
M  V30 4798 H 445.323 -7.55993 0.0317402 0
M  V30 4799 H 446.591 -7.71001 -1.14792 0
M  V30 4800 N 450.82 -0.546701 -1.47814 0
M  V30 4801 C 451.73 0.21026 -2.33656 0
M  V30 4802 C 452.746 0.922413 -1.47538 0
M  V30 4803 O 453.922 0.893652 -1.80488 0
M  V30 4804 C 450.987 1.23348 -3.24016 0
M  V30 4805 C 450.048 0.529883 -4.26017 0
M  V30 4806 C 449.281 1.50435 -5.12059 0
M  V30 4807 O 449.504 2.73837 -5.00369 0
M  V30 4808 O 448.438 1.03459 -5.92942 0
M  V30 4809 H 452.264 -0.493605 -2.99662 0
M  V30 4810 H 449.849 -0.307427 -1.46203 0
M  V30 4811 H 451.731 1.82438 -3.79861 0
M  V30 4812 H 450.406 1.91945 -2.60651 0
M  V30 4813 H 449.313 -0.101948 -3.73961 0
M  V30 4814 H 450.646 -0.11445 -4.92067 0
M  V30 4815 N 452.299 1.55045 -0.282633 0
M  V30 4816 C 453.247 2.24254 0.617478 0
M  V30 4817 C 454.241 1.24215 1.15183 0
M  V30 4818 O 455.447 1.42123 1.10459 0
M  V30 4819 H 451.822 0.719801 0.217693 0
M  V30 4820 H 453.793 2.98398 0.0110076 0
M  V30 4821 C 452.542 2.98281 1.78672 0
M  V30 4822 H 451.865 3.75053 1.38475 0
M  V30 4823 H 453.305 3.50017 2.393 0
M  V30 4824 C 451.764 2.04184 2.67975 0
M  V30 4825 O 452.294 1.59792 3.6855 0
M  V30 4826 N 450.5 1.70526 2.35307 0
M  V30 4827 H 450.047 2.06821 1.53567 0
M  V30 4828 H 450.005 1.07839 2.95327 0
M  V30 4829 N 453.777 0.010035 1.57597 0
M  V30 4830 C 455.002 -0.687021 1.95691 0
M  V30 4831 C 455.427 -1.65952 0.885519 0
M  V30 4832 O 454.785 -1.80633 -0.15543 0
M  V30 4833 C 454.833 -1.3864 3.32884 0
M  V30 4834 O 453.937 -2.50115 3.27897 0
M  V30 4835 H 453.278 -0.181989 0.638573 0
M  V30 4836 H 455.808 0.0662122 2.04493 0
M  V30 4837 H 455.818 -1.74754 3.6868 0
M  V30 4838 H 454.493 -0.673411 4.10412 0
M  V30 4839 H 453.07 -2.16253 3.03791 0
M  V30 4840 N 455.255 -1.55392 -0.262866 0
M  V30 4841 C 456.202 -1.88966 -1.32516 0
M  V30 4842 C 457.172 -0.742187 -1.48596 0
M  V30 4843 O 458.357 -0.99439 -1.62839 0
M  V30 4844 C 455.497 -2.17592 -2.67858 0
M  V30 4845 C 454.61 -3.45061 -2.59917 0
M  V30 4846 C 453.745 -3.63336 -3.87505 0
M  V30 4847 C 452.784 -4.84462 -3.74116 0
M  V30 4848 N 451.921 -4.99342 -4.93561 0
M  V30 4849 H 456.761 -2.79566 -1.03184 0
M  V30 4850 H 454.298 -1.38404 -0.498285 0
M  V30 4851 H 456.256 -2.3219 -3.46617 0
M  V30 4852 H 454.886 -1.30215 -2.95371 0
M  V30 4853 H 453.938 -3.38881 -1.72812 0
M  V30 4854 H 455.25 -4.3396 -2.45926 0
M  V30 4855 H 454.404 -3.77807 -4.74707 0
M  V30 4856 H 453.143 -2.72641 -4.04374 0
M  V30 4857 H 452.148 -4.69985 -2.85297 0
M  V30 4858 H 453.373 -5.76603 -3.58757 0
M  V30 4859 H 451.319 -4.1158 -5.10821 0
M  V30 4860 H 451.236 -5.82303 -4.82141 0
M  V30 4861 H 452.504 -5.18208 -5.82306 0
M  V30 4862 N 456.733 0.527833 -1.48498 0
M  V30 4863 C 457.643 1.65907 -1.65867 0
M  V30 4864 C 458.659 1.6537 -0.541192 0
M  V30 4865 O 459.835 1.84282 -0.812534 0
M  V30 4866 C 456.9 3.02364 -1.69637 0
M  V30 4867 C 455.961 3.1374 -2.93028 0
M  V30 4868 C 455.194 4.43688 -2.96609 0
M  V30 4869 O 455.417 5.30913 -2.08538 0
M  V30 4870 O 454.351 4.59475 -3.88802 0
M  V30 4871 H 458.177 1.5419 -2.61647 0
M  V30 4872 H 455.762 0.701163 -1.31924 0
M  V30 4873 H 457.644 3.83515 -1.74625 0
M  V30 4874 H 456.319 3.14401 -0.770312 0
M  V30 4875 H 455.226 2.31877 -2.93571 0
M  V30 4876 H 456.559 3.06621 -3.85026 0
M  V30 4877 N 458.211 1.37122 0.776871 0
M  V30 4878 C 459.459 1.31787 1.53221 0
M  V30 4879 C 459.78 -0.0987589 1.9475 0
M  V30 4880 O 459.05 -1.0417 1.65908 0
M  V30 4881 H 457.63 0.484839 0.568278 0
M  V30 4882 H 460.292 1.71556 0.924917 0
M  V30 4883 H 459.388 1.95355 2.43398 0
M  V30 4884 N 459.689 -1.00246 1.21608 0
M  V30 4885 C 460.938 -1.73476 1.02902 0
M  V30 4886 C 461.251 -1.90643 -0.437561 0
M  V30 4887 O 462.457 -2.61105 -0.74407 0
M  V30 4888 C 460.913 -3.12079 1.79261 0
M  V30 4889 C 460.521 -3.02877 3.30106 0
M  V30 4890 C 462.265 -3.89421 1.68972 0
M  V30 4891 C 460.172 -4.36575 3.98944 0
M  V30 4892 H 459.102 -0.650408 0.381425 0
M  V30 4893 H 461.753 -1.11985 1.45367 0
M  V30 4894 H 460.135 -3.74196 1.2959 0
M  V30 4895 H 461.309 -2.49983 3.87098 0
M  V30 4896 H 459.624 -2.39022 3.40965 0
M  V30 4897 H 462.221 -4.88362 2.17731 0
M  V30 4898 H 462.564 -4.1122 0.648397 0
M  V30 4899 H 463.097 -3.33963 2.16133 0
M  V30 4900 H 459.836 -4.19978 5.03288 0
M  V30 4901 H 459.356 -4.8942 3.4674 0
M  V30 4902 H 461.035 -5.05364 4.04 0
M  V30 4903 N 461.167 -1.02423 -1.1978 0
M  V30 4904 C 462.114 -0.601023 -2.22837 0
M  V30 4905 C 463.084 0.382801 -1.61629 0
M  V30 4906 O 464.269 0.280514 -1.88727 0
M  V30 4907 C 461.409 0.0467755 -3.45068 0
M  V30 4908 C 460.522 -0.98253 -4.20678 0
M  V30 4909 C 459.657 -0.304982 -5.30324 0
M  V30 4910 C 458.696 -1.32052 -5.97686 0
M  V30 4911 N 457.833 -0.669105 -6.98904 0
M  V30 4912 H 462.673 -1.48444 -2.58396 0
M  V30 4913 H 460.21 -0.742936 -1.2696 0
M  V30 4914 H 462.168 0.439556 -4.14878 0
M  V30 4915 H 460.798 0.893796 -3.10179 0
M  V30 4916 H 459.85 -1.49341 -3.49859 0
M  V30 4917 H 461.162 -1.75455 -4.66923 0
M  V30 4918 H 460.316 0.142893 -6.06532 0
M  V30 4919 H 459.055 0.499283 -4.85138 0
M  V30 4920 H 458.06 -1.7787 -5.20233 0
M  V30 4921 H 459.285 -2.1262 -6.44957 0
M  V30 4922 H 457.231 0.115152 -6.55899 0
M  V30 4923 H 457.148 -1.37908 -7.43315 0
M  V30 4924 H 458.416 -0.245076 -7.79115 0
M  V30 4925 N 462.645 1.35699 -0.801477 0
M  V30 4926 C 464.061 1.52065 -0.484596 0
M  V30 4927 C 464.261 1.75215 0.995084 0
M  V30 4928 O 463.317 1.79061 1.78026 0
M  V30 4929 C 464.63 2.69908 -1.32552 0
M  V30 4930 C 466.178 2.83784 -1.32044 0
M  V30 4931 C 466.653 4.04646 -2.14536 0
M  V30 4932 N 468.144 4.11814 -2.12046 0
M  V30 4933 C 468.879 5.04437 -2.72636 0
M  V30 4934 N 468.375 6.02426 -3.42133 0
M  V30 4935 N 470.168 4.97144 -2.62305 0
M  V30 4936 H 462.319 1.18928 -1.75983 0
M  V30 4937 H 464.582 0.581455 -0.748741 0
M  V30 4938 H 464.288 2.59363 -2.37537 0
M  V30 4939 H 464.162 3.64376 -0.975181 0
M  V30 4940 H 466.549 2.93783 -0.27846 0
M  V30 4941 H 466.63 1.90188 -1.71062 0
M  V30 4942 H 466.274 3.95407 -3.18772 0
M  V30 4943 H 466.204 4.97413 -1.72882 0
M  V30 4944 H 468.695 3.41664 -1.61476 0
M  V30 4945 H 469.008 6.69688 -3.85666 0
M  V30 4946 H 467.353 6.02615 -3.46237 0
M  V30 4947 H 470.544 4.19546 -2.07603 0
M  V30 4948 H 470.717 5.69138 -3.09815 0
M  V30 4949 N 464.123 0.554532 1.47522 0
M  V30 4950 C 465.07 -0.19466 2.29978 0
M  V30 4951 C 466.04 -0.910882 1.38896 0
M  V30 4952 O 467.225 -0.907102 1.67858 0
M  V30 4953 C 464.365 -1.22035 3.22802 0
M  V30 4954 C 463.478 -0.510474 4.28973 0
M  V30 4955 C 462.613 -1.52123 5.08952 0
M  V30 4956 C 461.652 -0.796173 6.069 0
M  V30 4957 N 460.789 -1.75363 6.79847 0
M  V30 4958 H 465.629 0.51461 2.93523 0
M  V30 4959 H 463.166 0.265607 1.44682 0
M  V30 4960 H 465.124 -1.8276 3.7504 0
M  V30 4961 H 463.754 -1.89769 2.61127 0
M  V30 4962 H 462.806 0.211234 3.79813 0
M  V30 4963 H 464.118 0.0576503 4.98767 0
M  V30 4964 H 463.272 -2.20207 5.65326 0
M  V30 4965 H 462.011 -2.12327 4.39054 0
M  V30 4966 H 461.016 -0.101388 5.49707 0
M  V30 4967 H 462.241 -0.199911 6.78806 0
M  V30 4968 H 460.187 -2.3443 6.12682 0
M  V30 4969 H 460.104 -1.23759 7.45801 0
M  V30 4970 H 461.372 -2.4257 7.40797 0
M  V30 4971 N 465.601 -1.54893 0.290851 0
M  V30 4972 C 466.829 -2.04343 -0.324288 0
M  V30 4973 C 467.244 -1.16859 -1.48289 0
M  V30 4974 O 466.601 -0.192018 -1.81487 0
M  V30 4975 C 466.652 -3.52756 -0.79026 0
M  V30 4976 O 466.373 -4.36913 0.322213 0
M  V30 4977 C 467.874 -4.18161 -1.4716 0
M  V30 4978 H 465.094 -0.667135 -0.0719173 0
M  V30 4979 H 467.638 -1.99981 0.427529 0
M  V30 4980 H 465.793 -3.57511 -1.49213 0
M  V30 4981 H 466.207 -5.24486 -0.0387372 0
M  V30 4982 H 467.681 -5.23562 -1.7489 0
M  V30 4983 H 468.158 -3.67282 -2.40834 0
M  V30 4984 H 468.764 -4.17454 -0.813178 0
M  V30 4985 N 467.08 -0.0183926 -1.57589 0
M  V30 4986 C 468.043 0.951986 -2.08494 0
M  V30 4987 C 469.043 1.26092 -0.997874 0
M  V30 4988 O 470.233 1.20304 -1.25987 0
M  V30 4989 C 467.365 2.27165 -2.54182 0
M  V30 4990 H 468.558 0.511307 -2.95509 0
M  V30 4991 H 466.111 0.229444 -1.54607 0
M  V30 4992 H 466.846 2.75884 -1.70465 0
M  V30 4993 H 466.631 2.06057 -3.33591 0
M  V30 4994 H 468.121 2.9674 -2.93828 0
M  V30 4995 N 468.558 1.5553 0.254621 0
M  V30 4996 C 469.974 1.4778 0.602753 0
M  V30 4997 C 470.174 0.707047 1.88688 0
M  V30 4998 O 469.23 0.233288 2.5142 0
M  V30 4999 C 470.543 2.92133 0.712648 0
M  V30 5000 C 472.091 3.02458 0.805488 0
M  V30 5001 C 472.566 4.48102 0.947009 0
M  V30 5002 N 474.057 4.52008 1.01207 0
M  V30 5003 C 474.792 5.61939 1.1407 0
M  V30 5004 N 474.288 6.81697 1.23536 0
M  V30 5005 N 476.081 5.49719 1.17325 0
M  V30 5006 H 468.232 2.04085 -0.588463 0
M  V30 5007 H 470.495 0.926229 -0.202001 0
M  V30 5008 H 470.201 3.51332 -0.160766 0
M  V30 5009 H 470.075 3.42187 1.58707 0
M  V30 5010 H 472.462 2.43344 1.66936 0
M  V30 5011 H 472.543 2.55627 -0.0939266 0
M  V30 5012 H 472.187 5.07824 0.087725 0
M  V30 5013 H 472.117 4.92607 1.86135 0
M  V30 5014 H 474.608 3.65749 0.950577 0
M  V30 5015 H 474.921 7.61228 1.33236 0
M  V30 5016 H 473.266 6.84473 1.20508 0
M  V30 5017 H 476.457 4.55095 1.09573 0
M  V30 5018 H 476.63 6.35432 1.27005 0
M  V30 5019 N 470.036 -0.519951 1.48776 0
M  V30 5020 C 470.946 -1.65025 1.66745 0
M  V30 5021 C 471.962 -1.6508 0.549954 0
M  V30 5022 O 473.138 -1.83848 0.822295 0
M  V30 5023 C 470.203 -3.0146 1.71238 0
M  V30 5024 C 469.264 -3.12182 2.94688 0
M  V30 5025 C 468.497 -4.42109 2.98958 0
M  V30 5026 O 468.72 -5.29799 2.1135 0
M  V30 5027 O 467.654 -4.57406 3.91233 0
M  V30 5028 H 471.48 -1.52801 2.62461 0
M  V30 5029 H 469.065 -0.694157 1.32294 0
M  V30 5030 H 470.947 -3.82584 1.76657 0
M  V30 5031 H 469.622 -3.13988 0.786975 0
M  V30 5032 H 468.529 -2.30316 2.94797 0
M  V30 5033 H 469.862 -3.04574 3.86646 0
M  V30 5034 N 471.514 -1.37532 -0.769588 0
M  V30 5035 C 472.424 -1.35668 -1.91393 0
M  V30 5036 C 473.44 -0.255954 -1.72107 0
M  V30 5037 O 474.616 -0.491704 -1.95305 0
M  V30 5038 C 471.681 -1.16481 -3.26547 0
M  V30 5039 C 470.742 -2.36212 -3.58472 0
M  V30 5040 C 469.975 -2.17932 -4.87177 0
M  V30 5041 O 470.198 -1.1647 -5.58382 0
M  V30 5042 O 469.132 -3.06167 -5.18214 0
M  V30 5043 H 472.958 -2.32055 -1.95918 0
M  V30 5044 H 470.543 -1.18284 -0.912641 0
M  V30 5045 H 472.425 -1.07778 -4.07384 0
M  V30 5046 H 471.1 -0.231687 -3.2287 0
M  V30 5047 H 470.007 -2.50488 -2.77861 0
M  V30 5048 H 471.34 -3.281 -3.66894 0
M  V30 5049 N 472.992 0.995999 -1.22138 0
M  V30 5050 C 473.939 2.08551 -0.988687 0
M  V30 5051 C 474.909 1.65864 0.0885021 0
M  V30 5052 O 476.094 1.90704 -0.0604589 0
M  V30 5053 C 473.234 3.40374 -0.569191 0
M  V30 5054 C 472.347 3.96421 -1.71681 0
M  V30 5055 C 471.482 5.1639 -1.2456 0
M  V30 5056 C 470.521 5.64567 -2.36497 0
M  V30 5057 N 469.658 6.75777 -1.90445 0
M  V30 5058 H 474.498 2.2779 -1.92135 0
M  V30 5059 H 472.035 1.1168 -0.957388 0
M  V30 5060 H 473.993 4.16068 -0.307166 0
M  V30 5061 H 472.623 3.21145 0.326462 0
M  V30 5062 H 471.675 3.17628 -2.09324 0
M  V30 5063 H 472.987 4.2816 -2.55891 0
M  V30 5064 H 472.141 5.99362 -0.940774 0
M  V30 5065 H 470.88 4.86266 -0.373662 0
M  V30 5066 H 469.885 4.80185 -2.67772 0
M  V30 5067 H 471.11 5.96716 -3.24202 0
M  V30 5068 H 469.056 6.47443 -1.05609 0
M  V30 5069 H 468.973 7.06818 -2.68223 0
M  V30 5070 H 470.241 7.62262 -1.63022 0
M  V30 5071 N 474.47 1.03057 1.19235 0
M  V30 5072 C 475.881 0.757449 1.70645 0
M  V30 5073 C 476.232 -0.722735 1.82403 0
M  V30 5074 O 475.357 -1.56325 1.49638 0
M  V30 5075 C 475.952 1.36833 3.09939 0
M  V30 5076 C 474.511 1.14375 3.58602 0
M  V30 5077 C 473.658 1.46533 2.35422 0
M  V30 5078 H 476.609 1.19828 1.04052 0
M  V30 5079 H 476.63 0.766184 3.72706 0
M  V30 5080 H 476.142 2.44562 3.01349 0
M  V30 5081 H 474.243 0.0847542 3.72504 0
M  V30 5082 H 474.356 1.83366 4.42622 0
M  V30 5083 H 472.72 0.884712 2.38841 0
M  V30 5084 H 473.503 2.55349 2.2946 0
M  V30 5085 N 475.948 -1.35272 0.808662 0
M  V30 5086 C 477.196 -1.98316 0.389233 0
M  V30 5087 C 477.517 -1.64465 -1.04767 0
M  V30 5088 O 476.787 -0.928175 -1.72516 0
M  V30 5089 H 475.367 -0.733585 0.140935 0
M  V30 5090 H 478.029 -1.6515 1.03496 0
M  V30 5091 H 477.125 -3.08123 0.496631 0
M  V30 5092 N 477.426 -0.562348 -1.47226 0
M  V30 5093 C 478.373 0.182461 -2.30078 0
M  V30 5094 C 479.343 0.903503 -1.39377 0
M  V30 5095 O 480.528 0.898188 -1.68337 0
M  V30 5096 C 477.668 1.20322 -3.23445 0
M  V30 5097 C 476.781 0.487717 -4.29238 0
M  V30 5098 C 475.916 1.49422 -5.09752 0
M  V30 5099 C 474.955 0.763976 -6.07314 0
M  V30 5100 N 474.092 1.71755 -6.80768 0
M  V30 5101 H 478.932 -0.530169 -2.93246 0
M  V30 5102 H 476.469 -0.273276 -1.44539 0
M  V30 5103 H 478.427 1.80768 -3.76004 0
M  V30 5104 H 477.057 1.88382 -2.6213 0
M  V30 5105 H 476.109 -0.231374 -3.79696 0
M  V30 5106 H 477.421 -0.0841003 -4.98729 0
M  V30 5107 H 476.575 2.17206 -5.66486 0
M  V30 5108 H 475.314 2.09995 -4.40174 0
M  V30 5109 H 474.319 0.0722344 -5.49753 0
M  V30 5110 H 475.544 0.16391 -6.78902 0
M  V30 5111 H 473.49 2.31177 -6.13916 0
M  V30 5112 H 473.407 1.19802 -7.46447 0
M  V30 5113 H 474.675 2.38638 -7.42073 0
M  V30 5114 N 478.904 1.54736 -0.299062 0
M  V30 5115 C 479.814 2.27127 0.587413 0
M  V30 5116 C 480.83 1.30575 1.15005 0
M  V30 5117 O 482.006 1.63554 1.17525 0
M  V30 5118 C 479.071 2.99645 1.74395 0
M  V30 5119 C 478.132 4.11731 1.21559 0
M  V30 5120 C 477.365 4.80781 2.317 0
M  V30 5121 O 477.588 4.4918 3.51558 0
M  V30 5122 O 476.522 5.68226 1.98501 0
M  V30 5123 H 480.348 3.037 0.000250109 0
M  V30 5124 H 477.933 1.49256 -0.0655919 0
M  V30 5125 H 479.815 3.45138 2.4178 0
M  V30 5126 H 478.49 2.25969 2.31775 0
M  V30 5127 H 477.397 3.70641 0.507514 0
M  V30 5128 H 478.73 4.87379 0.687233 0
M  V30 5129 N 480.382 0.0267497 1.57577 0
M  V30 5130 C 481.292 -0.971633 2.13533 0
M  V30 5131 C 482.308 -1.35868 1.08701 0
M  V30 5132 O 483.484 -1.44058 1.40746 0
M  V30 5133 C 480.549 -2.23622 2.64941 0
M  V30 5134 C 479.61 -1.90982 3.8448 0
M  V30 5135 C 478.843 -3.11411 4.33427 0
M  V30 5136 O 479.066 -4.23992 3.81558 0
M  V30 5137 O 478 -2.93848 5.25297 0
M  V30 5138 H 481.826 -0.525853 2.99113 0
M  V30 5139 H 479.411 -0.193712 1.48139 0
M  V30 5140 H 481.293 -2.97864 2.98086 0
M  V30 5141 H 479.968 -2.67386 1.82446 0
M  V30 5142 H 478.875 -1.14132 3.56265 0
M  V30 5143 H 480.208 -1.52036 4.6813 0
M  V30 5144 N 481.861 -1.55662 -0.24637 0
M  V30 5145 C 482.808 -1.90361 -1.30504 0
M  V30 5146 C 483.778 -0.757905 -1.47801 0
M  V30 5147 O 484.963 -1.01161 -1.61775 0
M  V30 5148 C 482.103 -2.2042 -2.65535 0
M  V30 5149 C 481.216 -3.47799 -2.56242 0
M  V30 5150 C 480.351 -3.67426 -3.8363 0
M  V30 5151 C 479.39 -4.88403 -3.68956 0
M  V30 5152 N 478.527 -5.04548 -4.88237 0
M  V30 5153 H 483.367 -2.80645 -1.00213 0
M  V30 5154 H 480.904 -1.38924 -0.483577 0
M  V30 5155 H 482.862 -2.35853 -3.44135 0
M  V30 5156 H 481.492 -1.3334 -2.93973 0
M  V30 5157 H 480.544 -3.40694 -1.69208 0
M  V30 5158 H 481.856 -4.36544 -2.4131 0
M  V30 5159 H 481.01 -3.82821 -4.70673 0
M  V30 5160 H 479.749 -2.76914 -4.01459 0
M  V30 5161 H 478.754 -4.72984 -2.80296 0
M  V30 5162 H 479.979 -5.80375 -3.52621 0
M  V30 5163 H 477.925 -4.16974 -5.06427 0
M  V30 5164 H 477.842 -5.87384 -4.75937 0
M  V30 5165 H 479.11 -5.24355 -5.76777 0
M  V30 5166 N 483.339 0.512053 -1.4905 0
M  V30 5167 C 484.75 1.09376 -1.51307 0
M  V30 5168 C 485.101 1.94 -0.292971 0
M  V30 5169 O 484.226 2.07965 0.598277 0
M  V30 5170 C 484.821 1.99031 -2.74176 0
M  V30 5171 C 483.38 2.52385 -2.79247 0
M  V30 5172 C 482.527 1.29749 -2.45073 0
M  V30 5173 H 485.478 0.296467 -1.55906 0
M  V30 5174 H 485.499 2.83569 -2.53711 0
M  V30 5175 H 485.011 1.37412 -3.62959 0
M  V30 5176 H 483.112 3.17673 -1.94716 0
M  V30 5177 H 483.225 2.90293 -3.81139 0
M  V30 5178 H 481.589 1.61912 -1.96612 0
M  V30 5179 H 482.372 0.698555 -3.36118 0
M  V30 5180 N 484.817 1.37938 0.762283 0
M  V30 5181 C 485.78 1.34279 1.85747 0
M  V30 5182 C 486.78 0.244969 1.58923 0
M  V30 5183 O 487.97 0.501365 1.66829 0
M  V30 5184 C 485.102 1.08833 3.23061 0
M  V30 5185 H 486.295 2.31705 1.90401 0
M  V30 5186 H 483.848 1.23105 0.963057 0
M  V30 5187 H 484.583 0.119767 3.24079 0
M  V30 5188 H 484.368 1.88306 3.43923 0
M  V30 5189 H 485.858 1.08946 4.03138 0
M  V30 5190 N 486.295 -0.989507 1.22664 0
M  V30 5191 C 487.242 -2.08024 0.999733 0
M  V30 5192 C 488.212 -1.65909 -0.0797047 0
M  V30 5193 O 489.397 -1.90669 0.0705715 0
M  V30 5194 C 486.537 -3.40067 0.587234 0
M  V30 5195 C 485.65 -3.95505 1.73781 0
M  V30 5196 C 484.785 -5.15722 1.27297 0
M  V30 5197 C 483.824 -5.63305 2.39488 0
M  V30 5198 N 482.961 -6.74758 1.94026 0
M  V30 5199 H 487.801 -2.26768 1.9334 0
M  V30 5200 H 485.338 -1.11171 0.963297 0
M  V30 5201 H 487.296 -4.15899 0.329227 0
M  V30 5202 H 485.926 -3.21314 -0.309426 0
M  V30 5203 H 484.978 -3.16513 2.11006 0
M  V30 5204 H 486.29 -4.26797 2.58158 0
M  V30 5205 H 485.444 -5.98854 0.972546 0
M  V30 5206 H 484.183 -4.86061 0.399445 0
M  V30 5207 H 483.188 -4.78759 2.70315 0
M  V30 5208 H 484.413 -5.94988 3.27362 0
M  V30 5209 H 482.359 -6.46874 1.09041 0
M  V30 5210 H 482.276 -7.05386 2.71968 0
M  V30 5211 H 483.544 -7.61387 1.67062 0
M  V30 5212 N 487.773 -1.03688 -1.18687 0
M  V30 5213 C 488.683 -0.634908 -2.25845 0
M  V30 5214 C 489.699 0.337065 -1.70704 0
M  V30 5215 O 490.875 0.192943 -2.00474 0
M  V30 5216 C 487.94 -0.000180054 -3.467 0
M  V30 5217 C 487.001 -1.02067 -4.1699 0
M  V30 5218 C 486.234 -0.41614 -5.32075 0
M  V30 5219 O 486.457 0.778712 -5.65059 0
M  V30 5220 O 485.391 -1.14296 -5.90948 0
M  V30 5221 H 489.217 -1.52757 -2.62486 0
M  V30 5222 H 486.802 -0.807533 -1.25695 0
M  V30 5223 H 488.684 0.353342 -4.19916 0
M  V30 5224 H 487.359 0.866367 -3.11891 0
M  V30 5225 H 486.266 -1.42592 -3.45859 0
M  V30 5226 H 487.599 -1.85786 -4.5579 0
M  V30 5227 N 489.251 1.34841 -0.815825 0
M  V30 5228 C 490.528 1.92908 -0.323416 0
M  V30 5229 C 490.908 1.74479 1.18828 0
M  V30 5230 O 490.256 1.11928 1.99209 0
M  V30 5231 C 490.466 3.40957 -0.744952 0
M  V30 5232 C 491.814 4.18107 -0.739716 0
M  V30 5233 O 492.838 3.49511 -0.68708 0
M  V30 5234 O 491.697 5.40517 -0.806456 0
M  V30 5235 H 488.791 0.822436 -0.0867646 0
M  V30 5236 H 491.337 1.4386 -0.90014 0
M  V30 5237 H 490.109 3.4814 -1.78646 0
M  V30 5238 H 489.732 3.97341 -0.143535 0
M  V30 5239 N 490.729 0.570148 1.46925 0
M  V30 5240 C 491.676 -0.170257 2.30171 0
M  V30 5241 C 492.646 -0.896099 1.39855 0
M  V30 5242 O 493.831 -0.889248 1.68811 0
M  V30 5243 C 490.971 -1.18605 3.24079 0
M  V30 5244 C 490.084 -0.464947 4.29491 0
M  V30 5245 C 489.219 -1.46716 5.10537 0
M  V30 5246 C 488.258 -0.731758 6.0771 0
M  V30 5247 N 487.395 -1.68142 6.81669 0
M  V30 5248 H 492.235 0.545713 2.92961 0
M  V30 5249 H 489.772 0.280938 1.44392 0
M  V30 5250 H 491.73 -1.78771 3.76957 0
M  V30 5251 H 490.36 -1.86989 2.63125 0
M  V30 5252 H 489.412 0.251506 3.79568 0
M  V30 5253 H 490.724 0.110548 4.98677 0
M  V30 5254 H 489.878 -2.14199 5.6763 0
M  V30 5255 H 488.617 -2.07658 4.41282 0
M  V30 5256 H 487.622 -0.0430787 5.49783 0
M  V30 5257 H 488.847 -0.127904 6.7898 0
M  V30 5258 H 486.793 -2.27918 6.15134 0
M  V30 5259 H 486.71 -1.15841 7.47072 0
M  V30 5260 H 487.978 -2.347 7.43328 0
M  V30 5261 N 492.207 -1.54576 0.307264 0
M  V30 5262 C 493.154 -2.23751 -0.56604 0
M  V30 5263 C 494.124 -1.22235 -1.12462 0
M  V30 5264 O 495.309 -1.50873 -1.16799 0
M  V30 5265 C 492.449 -2.98661 -1.72903 0
M  V30 5266 C 491.562 -4.14963 -1.20124 0
M  V30 5267 C 490.697 -4.77441 -2.3286 0
M  V30 5268 C 489.736 -5.85875 -1.77247 0
M  V30 5269 N 488.873 -6.42282 -2.8358 0
M  V30 5270 H 493.713 -2.97984 0.0304578 0
M  V30 5271 H 491.25 -1.47076 0.0268015 0
M  V30 5272 H 493.208 -3.40329 -2.41313 0
M  V30 5273 H 491.838 -2.26793 -2.29706 0
M  V30 5274 H 490.89 -3.78193 -0.409198 0
M  V30 5275 H 492.202 -4.93066 -0.754171 0
M  V30 5276 H 491.356 -5.21993 -3.09205 0
M  V30 5277 H 490.095 -3.98684 -2.80896 0
M  V30 5278 H 489.1 -5.40741 -0.993926 0
M  V30 5279 H 490.325 -6.6652 -1.30107 0
M  V30 5280 H 488.271 -5.66406 -3.30939 0
M  V30 5281 H 488.188 -7.1575 -2.43388 0
M  V30 5282 H 489.456 -6.91492 -3.59804 0
M  V30 5283 N 493.685 -0.035106 -1.57561 0
M  V30 5284 C 494.595 0.960295 -2.14046 0
M  V30 5285 C 495.611 1.3529 -1.0942 0
M  V30 5286 O 496.787 1.43309 -1.41508 0
M  V30 5287 C 493.852 2.22214 -2.66124 0
M  V30 5288 C 492.913 1.8894 -3.85487 0
M  V30 5289 C 492.146 3.09109 -4.35072 0
M  V30 5290 O 492.369 4.21963 -3.83802 0
M  V30 5291 O 491.303 2.91058 -5.26848 0
M  V30 5292 H 495.129 0.509983 -2.99387 0
M  V30 5293 H 492.714 0.185853 -1.48239 0
M  V30 5294 H 494.596 2.96279 -2.99661 0
M  V30 5295 H 493.271 2.66414 -1.83862 0
M  V30 5296 H 492.178 1.12241 -3.56865 0
M  V30 5297 H 493.511 1.49551 -4.6893 0
M  V30 5298 N 495.163 1.55791 0.238111 0
M  V30 5299 C 496.111 1.91885 1.31464 0
M  V30 5300 C 497.105 0.798929 1.49377 0
M  V30 5301 O 498.311 0.983626 1.50747 0
M  V30 5302 H 494.686 0.609551 0.440399 0
M  V30 5303 H 496.657 2.81747 0.982925 0
M  V30 5304 C 495.406 2.23763 2.6613 0
M  V30 5305 H 494.729 3.09444 2.53149 0
M  V30 5306 H 496.169 2.52915 3.40309 0
M  V30 5307 C 494.628 1.05699 3.1989 0
M  V30 5308 O 495.158 0.309524 4.00506 0
M  V30 5309 N 493.364 0.845251 2.78036 0
M  V30 5310 H 492.911 1.4548 2.12588 0
M  V30 5311 H 492.869 0.0569973 3.14348 0
M  V30 5312 N 496.642 -0.504142 1.49319 0
M  V30 5313 C 497.589 -1.60603 1.65756 0
M  V30 5314 C 498.559 -1.58425 0.499082 0
M  V30 5315 O 499.744 -1.76459 0.725728 0
M  V30 5316 C 496.884 -2.98764 1.72726 0
M  V30 5317 C 495.997 -3.10982 2.99857 0
M  V30 5318 C 495.132 -4.39857 2.97824 0
M  V30 5319 C 494.171 -4.45697 4.19548 0
M  V30 5320 N 493.308 -5.65995 4.15444 0
M  V30 5321 H 498.148 -1.45895 2.59843 0
M  V30 5322 H 495.685 -0.709891 1.28837 0
M  V30 5323 H 497.643 -3.78839 1.74747 0
M  V30 5324 H 496.273 -3.12183 0.821075 0
M  V30 5325 H 495.325 -2.23991 3.07461 0
M  V30 5326 H 496.637 -3.11157 3.89849 0
M  V30 5327 H 495.791 -5.2825 2.98391 0
M  V30 5328 H 494.53 -4.42242 2.05604 0
M  V30 5329 H 493.535 -3.55707 4.19229 0
M  V30 5330 H 494.76 -4.4503 5.12957 0
M  V30 5331 H 492.706 -5.69229 3.26059 0
M  V30 5332 H 492.623 -5.67773 4.99169 0
M  V30 5333 H 493.891 -6.56604 4.20109 0
M  V30 5334 N 498.12 -1.38341 -0.754957 0
M  V30 5335 C 499.067 -1.3546 -1.86867 0
M  V30 5336 C 500.037 -0.217369 -1.64672 0
M  V30 5337 O 501.222 -0.409383 -1.86356 0
M  V30 5338 C 498.362 -1.18413 -3.24149 0
M  V30 5339 C 497.475 -2.41511 -3.58185 0
M  V30 5340 C 496.61 -2.17205 -4.84763 0
M  V30 5341 C 495.649 -3.36081 -5.11582 0
M  V30 5342 N 494.786 -3.11219 -6.29354 0
M  V30 5343 H 499.626 -2.30672 -1.88664 0
M  V30 5344 H 497.163 -1.14607 -0.922154 0
M  V30 5345 H 499.121 -1.06545 -4.03366 0
M  V30 5346 H 497.751 -0.268397 -3.21682 0
M  V30 5347 H 496.803 -2.64056 -2.73822 0
M  V30 5348 H 498.115 -3.30115 -3.73932 0
M  V30 5349 H 497.269 -2.02465 -5.7192 0
M  V30 5350 H 496.008 -1.25964 -4.71152 0
M  V30 5351 H 495.013 -3.51341 -4.22894 0
M  V30 5352 H 496.238 -4.28196 -5.27091 0
M  V30 5353 H 494.184 -2.22624 -6.17069 0
M  V30 5354 H 494.101 -3.93373 -6.45596 0
M  V30 5355 H 495.369 -3.00132 -7.19403 0
M  V30 5356 N 499.598 0.982988 -1.23187 0
M  V30 5357 C 500.545 2.07491 -1.01075 0
M  V30 5358 C 501.515 1.65949 0.070905 0
M  V30 5359 O 502.7 1.90629 -0.0806822 0
M  V30 5360 C 499.84 3.39751 -0.605261 0
M  V30 5361 C 498.953 3.94578 -1.75876 0
M  V30 5362 C 498.088 5.15039 -1.3003 0
M  V30 5363 C 497.127 5.62027 -2.42472 0
M  V30 5364 N 496.264 6.73719 -1.97602 0
M  V30 5365 H 501.104 2.25739 -1.9454 0
M  V30 5366 H 498.641 1.10659 -0.969179 0
M  V30 5367 H 500.599 4.15719 -0.351279 0
M  V30 5368 H 499.229 3.21473 0.292382 0
M  V30 5369 H 498.281 3.1539 -2.12681 0
M  V30 5370 H 499.593 4.25422 -2.60418 0
M  V30 5371 H 498.747 5.9833 -1.00429 0
M  V30 5372 H 497.486 4.85843 -0.425216 0
M  V30 5373 H 496.491 4.77318 -2.7285 0
M  V30 5374 H 497.716 5.93244 -3.30512 0
M  V30 5375 H 495.662 6.46287 -1.1247 0
M  V30 5376 H 495.579 7.03934 -2.75705 0
M  V30 5377 H 496.847 7.6049 -1.71098 0
M  V30 5378 N 501.076 1.04316 1.18135 0
M  V30 5379 C 501.986 0.646876 2.25505 0
M  V30 5380 C 503.002 -0.328008 1.7088 0
M  V30 5381 O 504.178 -0.182309 2.00573 0
M  V30 5382 C 501.243 0.0185664 3.46695 0
M  V30 5383 C 500.304 1.04277 4.16443 0
M  V30 5384 C 499.537 0.444352 5.31847 0
M  V30 5385 O 499.76 -0.748735 5.65465 0
M  V30 5386 O 498.694 1.17428 5.90334 0
M  V30 5387 H 502.52 1.54147 2.61672 0
M  V30 5388 H 500.105 0.814188 1.25265 0
M  V30 5389 H 501.987 -0.331068 4.20097 0
M  V30 5390 H 500.662 -0.849814 3.12346 0
M  V30 5391 H 499.569 1.44425 3.45098 0
M  V30 5392 H 500.902 1.882 4.54798 0
M  V30 5393 N 502.554 -1.34406 0.822964 0
M  V30 5394 C 503.502 -2.31428 0.233165 0
M  V30 5395 C 504.496 -1.57404 -0.626118 0
M  V30 5396 O 505.702 -1.72402 -0.517453 0
M  V30 5397 H 502.077 -0.749863 0.0566557 0
M  V30 5398 H 504.048 -2.78699 1.06628 0
M  V30 5399 C 502.797 -3.42653 -0.590264 0
M  V30 5400 H 502.12 -3.99753 0.0616129 0
M  V30 5401 H 503.56 -4.12778 -0.969054 0
M  V30 5402 C 502.019 -2.87112 -1.76262 0
M  V30 5403 O 502.549 -2.81995 -2.8608 0
M  V30 5404 N 500.755 -2.43934 -1.57938 0
M  V30 5405 H 500.302 -2.48296 -0.686078 0
M  V30 5406 H 500.26 -2.07123 -2.36532 0
M  V30 5407 N 504.032 -0.577932 -1.46621 0
M  V30 5408 C 505.26 -0.0671642 -2.06791 0
M  V30 5409 C 505.675 1.23571 -1.42743 0
M  V30 5410 O 505.032 1.74602 -0.531062 0
M  V30 5411 C 505.083 0.110357 -3.61332 0
M  V30 5412 O 504.804 -1.14095 -4.22982 0
M  V30 5413 C 506.305 0.656025 -4.38419 0
M  V30 5414 H 503.525 -0.0552732 -0.66872 0
M  V30 5415 H 506.069 -0.797242 -1.8832 0
M  V30 5416 H 504.224 0.790637 -3.79246 0
M  V30 5417 H 504.638 -0.951742 -5.15793 0
M  V30 5418 H 506.112 0.729438 -5.47159 0
M  V30 5419 H 506.589 1.67195 -4.06131 0
M  V30 5420 H 507.195 0.0107692 -4.25299 0
M  V30 5421 N 505.51 1.54411 -0.315457 0
M  V30 5422 C 506.787 1.92562 0.343398 0
M  V30 5423 C 507.167 1.24423 1.70535 0
M  V30 5424 O 506.515 0.385051 2.25232 0
M  V30 5425 C 506.725 3.46168 0.443687 0
M  V30 5426 C 508.073 4.18659 0.707783 0
M  V30 5427 O 509.097 3.52281 0.52693 0
M  V30 5428 O 507.956 5.36198 1.05612 0
M  V30 5429 H 505.05 0.80379 0.194552 0
M  V30 5430 H 507.596 1.65738 -0.364577 0
M  V30 5431 H 506.368 3.8792 -0.513172 0
M  V30 5432 H 505.991 3.79073 1.19956 0
M  V30 5433 N 506.988 0.0434614 1.5754 0
M  V30 5434 C 508.213 -0.645358 1.97104 0
M  V30 5435 C 508.638 -1.64037 0.920521 0
M  V30 5436 O 507.996 -1.80922 -0.11708 0
M  V30 5437 C 508.044 -1.31547 3.35749 0
M  V30 5438 O 507.148 -2.43103 3.33129 0
M  V30 5439 H 506.489 -0.168403 0.64229 0
M  V30 5440 H 509.019 0.109573 2.04306 0
M  V30 5441 H 509.029 -1.66895 3.72304 0
M  V30 5442 H 507.704 -0.586205 4.11748 0
M  V30 5443 H 506.281 -2.0976 3.0831 0
M  V30 5444 N 508.466 -1.55915 -0.229846 0
M  V30 5445 C 509.877 -1.68809 -0.797531 0
M  V30 5446 C 510.228 -0.643995 -1.8533 0
M  V30 5447 O 509.353 0.206492 -2.15413 0
M  V30 5448 C 509.948 -3.06043 -1.45338 0
M  V30 5449 C 508.507 -3.20819 -1.96856 0
M  V30 5450 C 507.654 -2.6472 -0.825736 0
M  V30 5451 H 510.605 -1.58699 -0.00533733 0
M  V30 5452 H 510.626 -3.01438 -2.32196 0
M  V30 5453 H 510.138 -3.82012 -0.684743 0
M  V30 5454 H 508.239 -2.49704 -2.76548 0
M  V30 5455 H 508.352 -4.27937 -2.15423 0
M  V30 5456 H 506.716 -2.22985 -1.23084 0
M  V30 5457 H 507.499 -3.43229 -0.0699019 0
M  V30 5458 N 509.944 0.496216 -1.49584 0
M  V30 5459 C 510.892 1.61805 -1.67098 0
M  V30 5460 C 511.886 1.60667 -0.536877 0
M  V30 5461 O 513.092 1.65118 -0.716654 0
M  V30 5462 H 509.467 0.53646 -0.526986 0
M  V30 5463 H 511.438 1.44187 -2.61252 0
M  V30 5464 C 510.187 2.99912 -1.75921 0
M  V30 5465 H 509.51 3.01496 -2.62565 0
M  V30 5466 H 510.95 3.77931 -1.92209 0
M  V30 5467 C 509.409 3.33092 -0.505088 0
M  V30 5468 O 509.939 4.00019 0.367085 0
M  V30 5469 N 508.145 2.88278 -0.366599 0
M  V30 5470 H 507.692 2.33989 -1.07735 0
M  V30 5471 H 507.65 3.10846 0.47142 0
M  V30 5472 N 511.423 1.38739 0.74761 0
M  V30 5473 C 512.37 1.36449 1.86146 0
M  V30 5474 C 513.34 0.226098 1.64554 0
M  V30 5475 O 514.525 0.41926 1.86137 0
M  V30 5476 C 511.665 1.2013 3.23516 0
M  V30 5477 C 510.778 2.43407 3.56899 0
M  V30 5478 C 509.913 2.19773 4.83605 0
M  V30 5479 C 508.952 3.3879 5.09792 0
M  V30 5480 N 508.089 3.14553 6.27695 0
M  V30 5481 H 512.929 2.3167 1.87438 0
M  V30 5482 H 510.466 1.15094 0.916063 0
M  V30 5483 H 512.424 1.08683 4.02795 0
M  V30 5484 H 511.054 0.285453 3.21535 0
M  V30 5485 H 510.106 2.65504 2.72418 0
M  V30 5486 H 511.418 3.32094 3.72176 0
M  V30 5487 H 510.572 2.05496 5.70838 0
M  V30 5488 H 509.311 1.28461 4.70478 0
M  V30 5489 H 508.316 3.53579 4.21025 0
M  V30 5490 H 509.541 4.30986 5.24812 0
M  V30 5491 H 507.487 2.25893 6.1588 0
M  V30 5492 H 507.404 3.96791 6.435 0
M  V30 5493 H 508.672 3.03943 7.17801 0
M  V30 5494 N 512.901 -0.976442 1.23707 0
M  V30 5495 C 513.848 -2.06952 1.02174 0
M  V30 5496 C 514.818 -1.65984 -0.0621034 0
M  V30 5497 O 516.003 -1.90584 0.0907906 0
M  V30 5498 C 513.143 -3.39425 0.62327 0
M  V30 5499 C 512.256 -3.9364 1.77966 0
M  V30 5500 C 511.391 -5.14343 1.3276 0
M  V30 5501 C 510.43 -5.60733 2.45449 0
M  V30 5502 N 509.567 -6.72662 2.01172 0
M  V30 5503 H 514.407 -2.24704 1.95734 0
M  V30 5504 H 511.944 -1.10143 0.975034 0
M  V30 5505 H 513.902 -4.15526 0.37332 0
M  V30 5506 H 512.532 -3.21624 -0.275329 0
M  V30 5507 H 511.584 -3.14258 2.14351 0
M  V30 5508 H 512.896 -4.24035 2.62671 0
M  V30 5509 H 512.05 -5.97789 1.03601 0
M  V30 5510 H 510.789 -4.8561 0.450975 0
M  V30 5511 H 509.794 -4.75865 2.75378 0
M  V30 5512 H 511.019 -5.91483 3.33654 0
M  V30 5513 H 508.965 -6.45681 1.15895 0
M  V30 5514 H 508.882 -7.02462 2.79434 0
M  V30 5515 H 510.15 -7.59572 1.75129 0
M  V30 5516 N 514.379 -1.04941 -1.1758 0
M  V30 5517 C 515.326 -0.648155 -2.21512 0
M  V30 5518 C 516.296 0.348431 -1.62404 0
M  V30 5519 O 517.481 0.240419 -1.89279 0
M  V30 5520 C 514.621 -0.0264291 -3.4509 0
M  V30 5521 C 513.734 -1.07154 -4.185 0
M  V30 5522 C 512.869 -0.417403 -5.29558 0
M  V30 5523 C 511.908 -1.447 -5.94751 0
M  V30 5524 N 511.045 -0.817203 -6.97328 0
M  V30 5525 H 515.885 -1.53891 -2.55189 0
M  V30 5526 H 513.422 -0.769699 -1.25356 0
M  V30 5527 H 515.38 0.351456 -4.15717 0
M  V30 5528 H 514.01 0.827802 -3.12005 0
M  V30 5529 H 513.062 -1.56728 -3.46613 0
M  V30 5530 H 514.374 -1.8532 -4.63096 0
M  V30 5531 H 513.528 0.0142061 -6.06698 0
M  V30 5532 H 512.267 0.396265 -4.86087 0
M  V30 5533 H 511.272 -1.88865 -5.16343 0
M  V30 5534 H 512.497 -2.26252 -6.40302 0
M  V30 5535 H 510.443 -0.0239995 -6.55996 0
M  V30 5536 H 510.36 -1.53644 -7.40223 0
M  V30 5537 H 511.628 -0.410283 -7.7842 0
M  V30 5538 N 515.857 1.33968 -0.830081 0
M  V30 5539 C 516.804 2.29387 -0.255008 0
M  V30 5540 C 517.774 1.53923 0.624243 0
M  V30 5541 O 518.959 1.82262 0.564372 0
M  V30 5542 C 516.099 3.4034 0.571209 0
M  V30 5543 C 515.212 4.30729 -0.331083 0
M  V30 5544 C 514.347 5.2879 0.505389 0
M  V30 5545 C 513.386 6.10819 -0.395843 0
M  V30 5546 N 512.523 7.00948 0.401979 0
M  V30 5547 H 517.363 2.77972 -1.07404 0
M  V30 5548 H 514.9 1.36785 -0.541133 0
M  V30 5549 H 516.858 4.03361 1.06562 0
M  V30 5550 H 515.488 2.9297 1.35529 0
M  V30 5551 H 514.54 3.68507 -0.943759 0
M  V30 5552 H 515.852 4.88181 -1.02377 0
M  V30 5553 H 515.006 5.97297 1.06399 0
M  V30 5554 H 513.745 4.71894 1.23155 0
M  V30 5555 H 512.75 5.41238 -0.966529 0
M  V30 5556 H 513.975 6.69797 -1.12023 0
M  V30 5557 H 511.921 6.46512 1.11168 0
M  V30 5558 H 511.838 7.55643 -0.232167 0
M  V30 5559 H 513.106 7.73774 0.943102 0
M  V30 5560 N 517.335 0.585699 1.46312 0
M  V30 5561 C 518.245 -0.148236 2.34131 0
M  V30 5562 C 519.261 -0.882972 1.49932 0
M  V30 5563 O 520.437 -0.845484 1.82794 0
M  V30 5564 C 517.502 -1.14714 3.27172 0
M  V30 5565 C 516.563 -0.416746 4.27272 0
M  V30 5566 C 515.796 -1.36806 5.15868 0
M  V30 5567 O 516.019 -2.60475 5.07454 0
M  V30 5568 O 514.953 -0.877018 5.95476 0
M  V30 5569 H 518.779 0.572882 2.98248 0
M  V30 5570 H 516.364 0.346082 1.45336 0
M  V30 5571 H 518.246 -1.72303 3.84564 0
M  V30 5572 H 516.921 -1.84967 2.65648 0
M  V30 5573 H 515.828 0.201061 3.73559 0
M  V30 5574 H 517.161 0.244872 4.9159 0
M  V30 5575 N 518.813 -1.54241 0.323641 0
M  V30 5576 C 519.76 -2.24339 -0.542277 0
M  V30 5577 C 520.73 -1.23421 -1.11159 0
M  V30 5578 O 521.915 -1.52104 -1.15192 0
M  V30 5579 C 519.055 -3.00479 -1.69725 0
M  V30 5580 C 518.168 -4.16214 -1.15716 0
M  V30 5581 C 517.303 -4.79884 -2.27783 0
M  V30 5582 C 516.342 -5.87722 -1.71023 0
M  V30 5583 N 515.479 -6.45254 -2.76752 0
M  V30 5584 H 520.319 -2.97935 0.0620613 0
M  V30 5585 H 517.856 -1.47039 0.0423993 0
M  V30 5586 H 519.814 -3.42869 -2.3769 0
M  V30 5587 H 518.444 -2.29217 -2.27288 0
M  V30 5588 H 517.496 -3.78605 -0.369063 0
M  V30 5589 H 518.808 -4.93838 -0.701832 0
M  V30 5590 H 517.962 -5.25243 -3.03651 0
M  V30 5591 H 516.701 -4.01641 -2.76652 0
M  V30 5592 H 515.706 -5.41765 -0.936518 0
M  V30 5593 H 516.931 -6.67863 -1.2303 0
M  V30 5594 H 514.877 -5.69884 -3.24912 0
M  V30 5595 H 514.794 -7.18292 -2.35782 0
M  V30 5596 H 516.062 -6.95269 -3.5245 0
M  V30 5597 N 520.291 -0.0518155 -1.57515 0
M  V30 5598 C 521.254 0.907547 -2.10467 0
M  V30 5599 C 522.254 1.23947 -1.02439 0
M  V30 5600 O 523.444 1.17604 -1.2851 0
M  V30 5601 C 520.576 2.21723 -2.58944 0
M  V30 5602 H 521.769 0.44851 -2.96527 0
M  V30 5603 H 519.322 0.196598 -1.55059 0
M  V30 5604 H 520.057 2.72206 -1.76279 0
M  V30 5605 H 519.842 1.98935 -3.37886 0
M  V30 5606 H 521.332 2.90441 -3.00056 0
M  V30 5607 N 521.769 1.56035 0.221574 0
M  V30 5608 C 522.732 1.91584 1.2581 0
M  V30 5609 C 523.732 0.794425 1.39805 0
M  V30 5610 O 524.922 1.06217 1.38071 0
M  V30 5611 C 522.054 2.16663 2.63192 0
M  V30 5612 H 523.247 2.8429 0.954935 0
M  V30 5613 H 520.8 1.49316 0.461988 0
M  V30 5614 H 521.535 1.26508 2.98607 0
M  V30 5615 H 521.32 2.98358 2.5441 0
M  V30 5616 H 522.81 2.45262 3.37988 0
M  V30 5617 N 523.247 -0.488276 1.49845 0
M  V30 5618 C 524.177 -1.59675 1.70371 0
M  V30 5619 C 525.158 -1.60878 0.552473 0
M  V30 5620 O 526.343 -1.77417 0.78973 0
M  V30 5621 C 523.473 -2.98098 1.782 0
M  V30 5622 C 522.427 -3.11761 2.93239 0
M  V30 5623 C 521.753 -4.51661 2.86193 0
M  V30 5624 C 523.053 -2.90589 4.33999 0
M  V30 5625 H 524.747 -1.42752 2.63177 0
M  V30 5626 H 522.293 -0.685317 1.26647 0
M  V30 5627 H 524.246 -3.75555 1.91144 0
M  V30 5628 H 522.97 -3.16138 0.820018 0
M  V30 5629 H 521.629 -2.36732 2.79917 0
M  V30 5630 H 521.277 -4.66595 1.87877 0
M  V30 5631 H 520.977 -4.61742 3.63412 0
M  V30 5632 H 522.501 -5.31162 3.01163 0
M  V30 5633 H 523.915 -3.57807 4.47936 0
M  V30 5634 H 522.312 -3.1213 5.12538 0
M  V30 5635 H 523.382 -1.86595 4.4756 0
M  V30 5636 N 524.725 -1.39134 -0.740242 0
M  V30 5637 C 526.136 -1.32208 -1.31825 0
M  V30 5638 C 526.487 0.0159919 -1.96193 0
M  V30 5639 O 525.612 0.918111 -1.95958 0
M  V30 5640 C 526.207 -2.39436 -2.39699 0
M  V30 5641 C 524.766 -2.36048 -2.93187 0
M  V30 5642 C 523.913 -2.21599 -1.66701 0
M  V30 5643 H 526.864 -1.49298 -0.538133 0
M  V30 5644 H 526.885 -2.05922 -3.19963 0
M  V30 5645 H 526.397 -3.36811 -1.92821 0
M  V30 5646 H 524.498 -1.42295 -3.44359 0
M  V30 5647 H 524.611 -3.30704 -3.46658 0
M  V30 5648 H 522.975 -1.68681 -1.90837 0
M  V30 5649 H 523.758 -3.20936 -1.21882 0
M  V30 5650 N 526.204 0.969867 -1.24223 0
M  V30 5651 C 527.114 2.09806 -1.0497 0
M  V30 5652 C 528.13 1.73998 0.00886455 0
M  V30 5653 O 529.306 2.00513 -0.188848 0
M  V30 5654 C 526.371 3.40467 -0.654452 0
M  V30 5655 C 525.432 3.90236 -1.78926 0
M  V30 5656 C 524.665 5.14662 -1.41277 0
M  V30 5657 O 524.888 5.69602 -0.301632 0
M  V30 5658 O 523.822 5.58761 -2.23763 0
M  V30 5659 H 527.648 2.28942 -1.99548 0
M  V30 5660 H 525.233 1.08197 -1.03023 0
M  V30 5661 H 527.115 4.19039 -0.445452 0
M  V30 5662 H 525.79 3.22636 0.262216 0
M  V30 5663 H 524.697 3.12735 -2.05299 0
M  V30 5664 H 526.03 4.1254 -2.68462 0
M  V30 5665 N 527.682 1.05563 1.17022 0
M  V30 5666 C 528.645 0.664098 2.19368 0
M  V30 5667 C 529.645 -0.286358 1.5823 0
M  V30 5668 O 530.835 -0.069728 1.7406 0
M  V30 5669 C 527.967 -0.0239932 3.40892 0
M  V30 5670 H 529.16 1.57 2.55521 0
M  V30 5671 H 526.713 0.849964 1.31169 0
M  V30 5672 H 527.448 -0.942988 3.10287 0
M  V30 5673 H 527.233 0.659351 3.86516 0
M  V30 5674 H 528.723 -0.283909 4.16634 0
M  V30 5675 N 529.16 -1.33526 0.837174 0
M  V30 5676 C 530.408 -1.97446 0.431211 0
M  V30 5677 C 530.729 -1.6665 -1.01255 0
M  V30 5678 O 529.999 -0.964559 -1.70508 0
M  V30 5679 H 528.579 -0.73043 0.156463 0
M  V30 5680 H 531.241 -1.62918 1.06976 0
M  V30 5681 H 530.337 -3.07001 0.561877 0
M  V30 5682 N 530.638 -0.59345 -1.46 0
M  V30 5683 C 532.054 -0.255965 -1.57534 0
M  V30 5684 C 532.254 1.24167 -1.58697 0
M  V30 5685 O 531.31 2.02398 -1.50968 0
M  V30 5686 C 532.623 -0.91466 -2.86451 0
M  V30 5687 C 534.171 -0.889253 -3.00102 0
M  V30 5688 C 534.646 -1.52769 -4.3177 0
M  V30 5689 N 536.137 -1.49253 -4.38495 0
M  V30 5690 C 536.872 -1.9558 -5.39014 0
M  V30 5691 N 536.368 -2.49929 -6.46148 0
M  V30 5692 N 538.161 -1.86432 -5.30282 0
M  V30 5693 H 530.312 -1.56604 -1.43489 0
M  V30 5694 H 532.575 -0.655207 -0.685133 0
M  V30 5695 H 532.281 -1.96861 -2.91442 0
M  V30 5696 H 532.155 -0.429356 -3.74748 0
M  V30 5697 H 534.542 0.156111 -2.94687 0
M  V30 5698 H 534.623 -1.41268 -2.13253 0
M  V30 5699 H 534.267 -2.57231 -4.37944 0
M  V30 5700 H 534.197 -0.979398 -5.17412 0
M  V30 5701 H 536.688 -1.09536 -3.61677 0
M  V30 5702 H 537.001 -2.83109 -7.19075 0
M  V30 5703 H 535.346 -2.53961 -6.46938 0
M  V30 5704 H 538.537 -1.43722 -4.4549 0
M  V30 5705 H 538.71 -2.22852 -6.08474 0
M  V30 5706 N 532.116 1.54067 -0.331816 0
M  V30 5707 C 533.532 1.59587 0.0205388 0
M  V30 5708 C 533.732 1.34813 1.49759 0
M  V30 5709 O 532.788 1.13661 2.25471 0
M  V30 5710 C 534.101 2.97959 -0.405103 0
M  V30 5711 C 535.649 3.10964 -0.356454 0
M  V30 5712 C 536.124 4.51694 -0.757384 0
M  V30 5713 N 537.615 4.57709 -0.71111 0
M  V30 5714 C 538.35 5.64729 -0.993427 0
M  V30 5715 N 537.846 6.79652 -1.3433 0
M  V30 5716 N 539.639 5.54546 -0.918442 0
M  V30 5717 H 531.79 1.68426 -1.29407 0
M  V30 5718 H 534.053 0.78819 -0.526745 0
M  V30 5719 H 533.759 3.21115 -1.43451 0
M  V30 5720 H 533.633 3.76524 0.225692 0
M  V30 5721 H 536.02 2.87538 0.663763 0
M  V30 5722 H 536.101 2.34484 -1.02229 0
M  V30 5723 H 535.745 4.75853 -1.77555 0
M  V30 5724 H 535.675 5.26555 -0.0691444 0
M  V30 5725 H 538.166 3.75176 -0.452883 0
M  V30 5726 H 538.479 7.57221 -1.54388 0
M  V30 5727 H 536.824 6.81128 -1.38164 0
M  V30 5728 H 540.015 4.63641 -0.644536 0
M  V30 5729 H 540.188 6.37861 -1.14181 0
M  V30 5730 N 533.594 0.0601682 1.57485 0
M  V30 5731 C 534.541 -0.91112 2.12055 0
M  V30 5732 C 535.511 -1.30298 1.03013 0
M  V30 5733 O 536.696 -1.39087 1.30612 0
M  V30 5734 C 533.836 -2.1775 2.67729 0
M  V30 5735 C 532.949 -1.83933 3.90887 0
M  V30 5736 C 532.084 -3.05096 4.34845 0
M  V30 5737 C 531.123 -2.67241 5.5068 0
M  V30 5738 N 530.26 -3.81127 5.8965 0
M  V30 5739 H 535.1 -0.43888 2.9475 0
M  V30 5740 H 532.637 -0.204995 1.45665 0
M  V30 5741 H 534.595 -2.91866 2.98111 0
M  V30 5742 H 533.225 -2.62535 1.87816 0
M  V30 5743 H 532.277 -0.999287 3.6704 0
M  V30 5744 H 533.589 -1.52074 4.75052 0
M  V30 5745 H 532.743 -3.87502 4.66827 0
M  V30 5746 H 531.482 -3.40139 3.49509 0
M  V30 5747 H 530.487 -1.83254 5.18361 0
M  V30 5748 H 531.712 -2.3338 6.37738 0
M  V30 5749 H 529.658 -4.15954 5.07266 0
M  V30 5750 H 529.575 -3.52997 6.68528 0
M  V30 5751 H 530.843 -4.64145 6.2625 0
M  V30 5752 N 535.072 -1.5615 -0.213296 0
M  V30 5753 C 536.035 -1.92249 -1.24792 0
M  V30 5754 C 537.035 -0.801828 -1.39382 0
M  V30 5755 O 538.225 -1.06948 -1.37506 0
M  V30 5756 C 535.357 -2.18056 -2.62039 0
M  V30 5757 H 536.55 -2.84793 -0.939845 0
M  V30 5758 H 534.103 -1.49559 -0.454062 0
M  V30 5759 H 534.838 -1.2809 -2.97932 0
M  V30 5760 H 534.623 -2.99703 -2.52825 0
M  V30 5761 H 536.113 -2.47051 -3.36683 0
M  V30 5762 N 536.55 0.480323 -1.50102 0
M  V30 5763 C 537.46 1.60547 -1.71061 0
M  V30 5764 C 538.476 1.63564 -0.593529 0
M  V30 5765 O 539.652 1.81604 -0.870751 0
M  V30 5766 C 536.717 2.96814 -1.79171 0
M  V30 5767 C 535.778 3.04259 -3.02861 0
M  V30 5768 C 535.011 4.34027 -3.10574 0
M  V30 5769 O 535.234 5.24009 -2.25323 0
M  V30 5770 O 534.168 4.46873 -4.03223 0
M  V30 5771 H 537.994 1.45788 -2.6642 0
M  V30 5772 H 535.579 0.658838 -1.34088 0
M  V30 5773 H 537.461 3.77765 -1.86738 0
M  V30 5774 H 536.136 3.11791 -0.869947 0
M  V30 5775 H 535.043 2.22419 -3.008 0
M  V30 5776 H 536.376 2.94216 -3.94586 0
M  V30 5777 N 538.028 1.39524 0.732853 0
M  V30 5778 C 539.277 1.36175 1.48792 0
M  V30 5779 C 539.59 -0.0388195 1.95561 0
M  V30 5780 O 540.796 -0.194899 2.708 0
M  V30 5781 C 539.252 2.39242 2.68871 0
M  V30 5782 C 538.86 3.85024 2.29042 0
M  V30 5783 C 540.604 2.44972 3.46683 0
M  V30 5784 C 538.511 4.79727 3.45856 0
M  V30 5785 H 537.441 0.506267 0.558757 0
M  V30 5786 H 540.092 1.65181 0.799226 0
M  V30 5787 H 538.474 2.0331 3.39825 0
M  V30 5788 H 539.648 4.30008 1.6562 0
M  V30 5789 H 537.963 3.82609 1.64316 0
M  V30 5790 H 540.56 3.12918 4.33574 0
M  V30 5791 H 540.903 1.4749 3.89297 0
M  V30 5792 H 541.436 2.79808 2.82759 0
M  V30 5793 H 538.175 5.78479 3.08289 0
M  V30 5794 H 537.695 4.39421 4.08251 0
M  V30 5795 H 539.374 4.98731 4.12161 0
M  V30 5796 N 539.506 -0.963266 1.24736 0
M  V30 5797 C 540.436 -2.07628 1.06832 0
M  V30 5798 C 541.417 -1.70088 -0.0200566 0
M  V30 5799 O 542.602 -1.93636 0.147854 0
M  V30 5800 C 539.732 -3.40636 0.677069 0
M  V30 5801 C 538.686 -3.9215 1.71471 0
M  V30 5802 C 538.012 -5.21553 1.1784 0
M  V30 5803 C 539.312 -4.19493 3.11164 0
M  V30 5804 H 541.006 -2.22864 1.9993 0
M  V30 5805 H 538.552 -1.07093 0.96266 0
M  V30 5806 H 540.505 -4.17941 0.538792 0
M  V30 5807 H 539.229 -3.25313 -0.289612 0
M  V30 5808 H 537.888 -3.17005 1.84128 0
M  V30 5809 H 537.536 -5.02593 0.202195 0
M  V30 5810 H 537.236 -5.56988 1.87185 0
M  V30 5811 H 538.76 -6.01463 1.05233 0
M  V30 5812 H 540.174 -4.87487 3.01711 0
M  V30 5813 H 538.571 -4.66165 3.77902 0
M  V30 5814 H 539.641 -3.26097 3.58871 0
M  V30 5815 N 540.985 -1.06182 -1.16461 0
M  V30 5816 C 542.213 -0.798583 -1.90867 0
M  V30 5817 C 542.628 0.646921 -1.77371 0
M  V30 5818 O 541.985 1.44279 -1.11758 0
M  V30 5819 C 542.036 -1.18258 -3.4161 0
M  V30 5820 O 541.757 -2.57135 -3.54701 0
M  V30 5821 C 543.258 -0.946917 -4.33069 0
M  V30 5822 H 540.478 -0.289603 -0.605286 0
M  V30 5823 H 543.022 -1.41515 -1.47627 0
M  V30 5824 H 541.177 -0.610562 -3.82558 0
M  V30 5825 H 541.591 -2.72477 -4.4817 0
M  V30 5826 H 543.065 -1.26523 -5.37304 0
M  V30 5827 H 543.542 0.117406 -4.39043 0
M  V30 5828 H 544.148 -1.50326 -3.97847 0
M  V30 5829 N 542.463 1.3308 -0.844243 0
M  V30 5830 C 543.393 2.3161 -0.296493 0
M  V30 5831 C 544.374 1.59215 0.598707 0
M  V30 5832 O 545.559 1.87077 0.521134 0
M  V30 5833 C 542.689 3.43313 0.524762 0
M  V30 5834 C 541.643 4.27115 -0.275106 0
M  V30 5835 C 540.969 5.30483 0.670236 0
M  V30 5836 C 542.269 5.00443 -1.49514 0
M  V30 5837 H 543.963 2.77672 -1.11976 0
M  V30 5838 H 541.509 1.33496 -0.539899 0
M  V30 5839 H 543.462 4.11273 0.918298 0
M  V30 5840 H 542.186 2.95952 1.3813 0
M  V30 5841 H 540.845 3.60787 -0.650267 0
M  V30 5842 H 540.493 4.79379 1.52332 0
M  V30 5843 H 540.193 5.87435 0.139123 0
M  V30 5844 H 541.717 6.01308 1.06117 0
M  V30 5845 H 543.131 5.61141 -1.17447 0
M  V30 5846 H 541.528 5.67071 -1.96343 0
M  V30 5847 H 542.598 4.28906 -2.26202 0
M  V30 5848 N 543.941 0.601185 1.45683 0
M  V30 5849 C 544.904 -0.111398 2.28929 0
M  V30 5850 C 545.904 -0.801246 1.39416 0
M  V30 5851 O 547.094 -0.650383 1.61603 0
M  V30 5852 C 544.226 -1.16773 3.20276 0
M  V30 5853 H 545.419 0.620412 2.93413 0
M  V30 5854 H 542.972 0.359946 1.52099 0
M  V30 5855 H 543.707 -1.93051 2.60579 0
M  V30 5856 H 543.492 -0.677358 3.86205 0
M  V30 5857 H 544.982 -1.66698 3.82886 0
M  V30 5858 N 545.419 -1.53889 0.339982 0
M  V30 5859 C 546.382 -2.23547 -0.50592 0
M  V30 5860 C 547.382 -1.23445 -1.03044 0
M  V30 5861 O 548.572 -1.47909 -0.920253 0
M  V30 5862 C 545.704 -2.95234 -1.7044 0
M  V30 5863 H 546.897 -2.99722 0.103247 0
M  V30 5864 H 544.45 -1.56033 0.0912804 0
M  V30 5865 H 545.185 -2.23236 -2.35236 0
M  V30 5866 H 544.97 -3.68654 -1.33553 0
M  V30 5867 H 546.46 -3.48258 -2.30447 0
M  V30 5868 N 546.897 -0.0685191 -1.57451 0
M  V30 5869 C 547.86 0.885173 -2.11417 0
M  V30 5870 C 548.86 1.22853 -1.03748 0
M  V30 5871 O 550.05 1.16235 -1.2975 0
M  V30 5872 C 547.182 2.18964 -2.61281 0
M  V30 5873 H 548.375 0.417034 -2.96986 0
M  V30 5874 H 545.928 0.18014 -1.55258 0
M  V30 5875 H 546.663 2.70321 -1.79156 0
M  V30 5876 H 546.448 1.9534 -3.39977 0
M  V30 5877 H 547.938 2.87242 -3.0312 0
M  V30 5878 N 548.375 1.56261 0.205012 0
M  V30 5879 C 549.6 1.84491 0.947512 0
M  V30 5880 C 550.025 0.650894 1.76479 0
M  V30 5881 O 549.383 -0.40035 1.76824 0
M  V30 5882 C 549.431 3.10863 1.82747 0
M  V30 5883 O 548.535 2.90719 2.925 0
M  V30 5884 H 547.876 0.607783 0.267386 0
M  V30 5885 H 550.406 2.03485 0.213323 0
M  V30 5886 H 550.416 3.41399 2.23407 0
M  V30 5887 H 549.091 3.97392 1.2269 0
M  V30 5888 H 547.668 2.71457 2.55667 0
M  V30 5889 N 549.853 -0.472356 1.50355 0
M  V30 5890 C 550.783 -1.57859 1.72055 0
M  V30 5891 C 551.764 -1.60283 0.569505 0
M  V30 5892 O 552.949 -1.7657 0.808503 0
M  V30 5893 C 550.079 -2.96191 1.81351 0
M  V30 5894 C 549.033 -3.08633 2.96529 0
M  V30 5895 C 548.359 -4.486 2.90968 0
M  V30 5896 C 549.659 -2.85969 4.37057 0
M  V30 5897 H 551.353 -1.39953 2.64676 0
M  V30 5898 H 548.899 -0.671846 1.27367 0
M  V30 5899 H 550.852 -3.73507 1.95117 0
M  V30 5900 H 549.576 -3.15251 0.853502 0
M  V30 5901 H 548.235 -2.33749 2.82413 0
M  V30 5902 H 547.883 -4.64577 1.92815 0
M  V30 5903 H 547.583 -4.57861 3.68289 0
M  V30 5904 H 549.107 -5.27938 3.0678 0
M  V30 5905 H 550.521 -3.53036 4.51706 0
M  V30 5906 H 548.918 -3.06677 5.15819 0
M  V30 5907 H 549.988 -1.81838 4.49514 0
M  V30 5908 N 551.331 -1.39911 -0.725443 0
M  V30 5909 C 552.556 -1.41137 -1.5197 0
M  V30 5910 C 552.981 -0.010262 -1.88097 0
M  V30 5911 O 552.339 0.979184 -1.52583 0
M  V30 5912 C 552.387 -2.2994 -2.77777 0
M  V30 5913 O 551.491 -1.73586 -3.74088 0
M  V30 5914 H 550.832 -0.480219 -0.458569 0
M  V30 5915 H 553.362 -1.84023 -0.894249 0
M  V30 5916 H 553.372 -2.44785 -3.26411 0
M  V30 5917 H 552.047 -3.31759 -2.50816 0
M  V30 5918 H 550.624 -1.68035 -3.32894 0
M  V30 5919 N 552.809 0.956637 -1.25245 0
M  V30 5920 C 554.034 1.74104 -1.12706 0
M  V30 5921 C 554.459 1.85436 0.315429 0
M  V30 5922 O 553.817 1.33334 1.22848 0
M  V30 5923 C 553.865 3.1338 -1.78396 0
M  V30 5924 O 552.969 3.98485 -1.06224 0
M  V30 5925 H 552.31 0.53476 -0.393609 0
M  V30 5926 H 554.84 1.19924 -1.65769 0
M  V30 5927 H 554.85 3.6385 -1.846 0
M  V30 5928 H 553.525 3.04448 -2.83345 0
M  V30 5929 H 552.102 3.56952 -1.07886 0
M  V30 5930 N 554.287 1.06798 1.15896 0
M  V30 5931 C 555.533 0.788934 1.86825 0
M  V30 5932 C 555.866 -0.683084 1.8179 0
M  V30 5933 O 555.141 -1.50086 1.23711 0
M  V30 5934 C 555.424 1.29065 3.36176 0
M  V30 5935 C 555.277 2.8268 3.49874 0
M  V30 5936 C 556.596 0.902655 4.30744 0
M  V30 5937 H 553.715 0.288066 0.678371 0
M  V30 5938 H 556.357 1.32479 1.36195 0
M  V30 5939 H 554.507 0.834806 3.79425 0
M  V30 5940 H 556.179 3.36511 3.15528 0
M  V30 5941 H 554.422 3.21157 2.91617 0
M  V30 5942 H 555.093 3.12852 4.54783 0
M  V30 5943 H 557.569 1.29535 3.95424 0
M  V30 5944 H 556.445 1.28111 5.3374 0
M  V30 5945 H 556.706 -0.191951 4.41683 0
M  V30 5946 N 555.766 -1.3263 0.851289 0
M  V30 5947 C 556.729 -2.27247 0.298541 0
M  V30 5948 C 557.729 -1.51467 -0.539847 0
M  V30 5949 O 558.919 -1.7061 -0.351843 0
M  V30 5950 C 556.051 -3.35964 -0.578004 0
M  V30 5951 H 557.244 -2.7765 1.13359 0
M  V30 5952 H 554.797 -1.43245 0.625354 0
M  V30 5953 H 555.532 -2.90823 -1.435 0
M  V30 5954 H 555.317 -3.92094 0.0220539 0
M  V30 5955 H 556.807 -4.06472 -0.957626 0
M  V30 5956 N 557.244 -0.608902 -1.45362 0
M  V30 5957 C 558.492 -0.104401 -2.0183 0
M  V30 5958 C 558.813 1.27007 -1.47967 0
M  V30 5959 O 558.083 1.83924 -0.674455 0
M  V30 5960 H 556.663 -0.0356042 -0.746151 0
M  V30 5961 H 559.325 -0.790596 -1.78145 0
M  V30 5962 H 558.421 -0.0551793 -3.12051 0
M  V30 5963 N 558.722 1.53707 -0.348139 0
M  V30 5964 C 559.685 2.23812 0.494058 0
M  V30 5965 C 560.685 1.23989 1.02388 0
M  V30 5966 O 561.875 1.48395 0.912396 0
M  V30 5967 C 559.007 2.96133 1.68872 0
M  V30 5968 H 560.2 2.99663 -0.119141 0
M  V30 5969 H 557.753 1.55983 -0.0995539 0
M  V30 5970 H 558.488 2.24481 2.34049 0
M  V30 5971 H 558.273 3.69357 1.31596 0
M  V30 5972 H 559.763 3.49475 2.28597 0
M  V30 5973 N 560.2 0.0768682 1.57412 0
M  V30 5974 C 561.447 -0.591085 1.93681 0
M  V30 5975 C 561.775 -1.69311 0.957286 0
M  V30 5976 O 561.03 -1.95682 -0.0262428 0
M  V30 5977 C 561.329 -1.20268 3.36557 0
M  V30 5978 C 560.995 -0.226286 4.50332 0
M  V30 5979 C 559.657 0.0423142 4.81181 0
M  V30 5980 C 562.009 0.441415 5.19327 0
M  V30 5981 C 559.337 0.985616 5.78362 0
M  V30 5982 C 561.689 1.37307 6.17519 0
M  V30 5983 C 560.353 1.65009 6.46783 0
M  V30 5984 H 559.623 -0.216293 0.70873 0
M  V30 5985 H 562.27 0.148824 1.90921 0
M  V30 5986 H 560.575 -2.01844 3.35807 0
M  V30 5987 H 562.272 -1.72688 3.61911 0
M  V30 5988 H 558.862 -0.445821 4.26275 0
M  V30 5989 H 563.046 0.247023 4.95685 0
M  V30 5990 H 558.302 1.20743 5.99359 0
M  V30 5991 H 562.476 1.89637 6.70083 0
M  V30 5992 H 560.103 2.38263 7.21897 0
M  V30 5993 N 561.678 -1.56367 -0.196722 0
M  V30 5994 C 562.927 -1.79724 -0.915539 0
M  V30 5995 C 563.24 -0.649804 -1.84491 0
M  V30 5996 O 564.446 -0.767631 -2.60422 0
M  V30 5997 C 562.902 -3.18369 -1.67836 0
M  V30 5998 C 562.51 -4.4091 -0.793897 0
M  V30 5999 C 564.254 -3.51037 -2.38691 0
M  V30 6000 C 562.161 -5.70577 -1.55549 0
M  V30 6001 H 561.091 -0.67013 -0.345604 0
M  V30 6002 H 563.742 -1.82721 -0.168856 0
M  V30 6003 H 562.124 -3.09617 -2.46887 0
M  V30 6004 H 563.298 -4.60781 -0.042163 0
M  V30 6005 H 561.613 -4.15937 -0.19626 0
M  V30 6006 H 564.21 -4.4515 -2.96219 0
M  V30 6007 H 564.553 -2.74704 -3.12799 0
M  V30 6008 H 565.086 -3.61229 -1.66608 0
M  V30 6009 H 561.825 -6.49871 -0.857226 0
M  V30 6010 H 561.345 -5.54726 -2.2812 0
M  V30 6011 H 563.024 -6.11637 -2.10971 0
M  V30 6012 N 563.156 0.464375 -1.50603 0
M  V30 6013 C 564.381 1.24372 -1.65971 0
M  V30 6014 C 564.806 1.84901 -0.345453 0
M  V30 6015 O 564.164 1.67596 0.691457 0
M  V30 6016 C 564.212 2.32331 -2.7578 0
M  V30 6017 O 563.316 3.37146 -2.375 0
M  V30 6018 H 562.657 0.365604 -0.554283 0
M  V30 6019 H 565.187 0.55183 -1.97018 0
M  V30 6020 H 565.197 2.77539 -2.99059 0
M  V30 6021 H 563.872 1.87648 -3.71162 0
M  V30 6022 H 562.449 2.97602 -2.24694 0
M  V30 6023 N 564.634 1.40294 0.718013 0
M  V30 6024 C 565.564 1.43118 1.84498 0
M  V30 6025 C 566.545 0.292403 1.67568 0
M  V30 6026 O 567.73 0.500675 1.87635 0
M  V30 6027 C 564.86 1.29065 3.22427 0
M  V30 6028 C 563.814 2.40521 3.54025 0
M  V30 6029 C 563.14 2.11546 4.91073 0
M  V30 6030 C 564.44 3.82859 3.55269 0
M  V30 6031 H 566.134 2.37432 1.82391 0
M  V30 6032 H 563.68 1.14283 0.87609 0
M  V30 6033 H 565.633 1.29658 4.00957 0
M  V30 6034 H 564.357 0.312271 3.25104 0
M  V30 6035 H 563.016 2.39173 2.77834 0
M  V30 6036 H 562.664 1.12104 4.90348 0
M  V30 6037 H 562.364 2.86216 5.1318 0
M  V30 6038 H 563.888 2.13817 5.71939 0
M  V30 6039 H 565.302 3.86044 4.23843 0
M  V30 6040 H 563.699 4.57029 3.88902 0
M  V30 6041 H 564.769 4.12617 2.54706 0
M  V30 6042 N 566.112 -0.949982 1.2575 0
M  V30 6043 C 567.059 -2.04738 1.06541 0
M  V30 6044 C 568.029 -1.66078 -0.0268818 0
M  V30 6045 O 569.214 -1.90348 0.131196 0
M  V30 6046 C 566.354 -3.38027 0.695127 0
M  V30 6047 C 565.467 -3.89776 1.86276 0
M  V30 6048 C 564.602 -5.11411 1.4364 0
M  V30 6049 C 563.641 -5.554 2.57287 0
M  V30 6050 N 562.778 -6.68244 2.15395 0
M  V30 6051 H 567.618 -2.20502 2.00457 0
M  V30 6052 H 565.155 -1.0805 0.998178 0
M  V30 6053 H 567.113 -4.14641 0.461375 0
M  V30 6054 H 565.743 -3.22135 -0.207046 0
M  V30 6055 H 564.795 -3.0964 2.20969 0
M  V30 6056 H 566.107 -4.18368 2.71606 0
M  V30 6057 H 565.261 -5.95457 1.16257 0
M  V30 6058 H 564 -4.84545 0.553879 0
M  V30 6059 H 563.005 -4.69916 2.85409 0
M  V30 6060 H 564.23 -5.84272 3.46125 0
M  V30 6061 H 562.176 -6.43078 1.29565 0
M  V30 6062 H 562.093 -6.96377 2.94272 0
M  V30 6063 H 563.361 -7.55687 1.91201 0
M  V30 6064 N 567.59 -1.07411 -1.15328 0
M  V30 6065 C 568.537 -0.694995 -2.20087 0
M  V30 6066 C 569.507 0.313904 -1.63107 0
M  V30 6067 O 570.692 0.200216 -1.89747 0
M  V30 6068 C 567.832 -0.0996218 -3.44956 0
M  V30 6069 C 566.945 -1.16007 -4.16133 0
M  V30 6070 C 566.08 -0.529636 -5.28553 0
M  V30 6071 C 565.119 -1.57283 -5.91548 0
M  V30 6072 N 564.256 -0.964932 -6.95438 0
M  V30 6073 H 569.096 -1.5927 -2.51867 0
M  V30 6074 H 566.633 -0.796115 -1.23695 0
M  V30 6075 H 568.591 0.263197 -4.16369 0
M  V30 6076 H 567.221 0.761435 -3.13691 0
M  V30 6077 H 566.273 -1.64045 -3.4321 0
M  V30 6078 H 567.585 -1.95101 -4.59061 0
M  V30 6079 H 566.739 -0.114487 -6.06592 0
M  V30 6080 H 565.478 0.29307 -4.86819 0
M  V30 6081 H 564.483 -1.99775 -5.12221 0
M  V30 6082 H 565.708 -2.39783 -6.35359 0
M  V30 6083 H 563.654 -0.16314 -6.55797 0
M  V30 6084 H 563.571 -1.69311 -7.36797 0
M  V30 6085 H 564.839 -0.575305 -7.77374 0
M  V30 6086 N 569.068 1.32177 -0.85831 0
M  V30 6087 C 570.484 1.49873 -0.548656 0
M  V30 6088 C 570.684 1.79278 0.919874 0
M  V30 6089 O 569.74 1.86451 1.70271 0
M  V30 6090 C 571.053 2.64043 -1.4388 0
M  V30 6091 C 572.601 2.77928 -1.43961 0
M  V30 6092 C 573.076 3.95182 -2.31506 0
M  V30 6093 N 574.567 4.0245 -2.29321 0
M  V30 6094 C 575.302 4.9242 -2.93786 0
M  V30 6095 N 574.798 5.87373 -3.67376 0
M  V30 6096 N 576.591 4.85572 -2.83155 0
M  V30 6097 H 568.742 1.11357 -1.80868 0
M  V30 6098 H 571.005 0.549175 -0.772729 0
M  V30 6099 H 570.711 2.49055 -2.48324 0
M  V30 6100 H 570.585 3.59912 -1.12885 0
M  V30 6101 H 572.972 2.92338 -0.402813 0
M  V30 6102 H 573.053 1.82762 -1.78974 0
M  V30 6103 H 572.697 3.81531 -3.35256 0
M  V30 6104 H 572.627 4.89633 -1.93823 0
M  V30 6105 H 575.118 3.34507 -1.75822 0
M  V30 6106 H 575.431 6.52728 -4.13722 0
M  V30 6107 H 573.776 5.87388 -3.71484 0
M  V30 6108 H 576.967 4.10363 -2.25211 0
M  V30 6109 H 577.14 5.55486 -3.33676 0
M  V30 6110 N 570.547 0.616602 1.45037 0
M  V30 6111 C 571.494 -0.0969439 2.30596 0
M  V30 6112 C 572.464 -0.851151 1.42635 0
M  V30 6113 O 573.649 -0.835092 1.71554 0
M  V30 6114 C 570.789 -1.08234 3.27688 0
M  V30 6115 C 569.902 -0.328072 4.30752 0
M  V30 6116 C 569.037 -1.30399 5.14946 0
M  V30 6117 C 568.076 -0.538049 6.09731 0
M  V30 6118 N 567.213 -1.46371 6.86673 0
M  V30 6119 H 572.053 0.63864 2.91076 0
M  V30 6120 H 569.59 0.326733 1.43425 0
M  V30 6121 H 571.548 -1.66688 3.82454 0
M  V30 6122 H 570.178 -1.78523 2.68941 0
M  V30 6123 H 569.23 0.372136 3.78575 0
M  V30 6124 H 570.542 0.269142 4.98073 0
M  V30 6125 H 569.696 -1.96032 5.74157 0
M  V30 6126 H 568.435 -1.93514 4.47665 0
M  V30 6127 H 567.44 0.131852 5.49642 0
M  V30 6128 H 568.665 0.0881732 6.79043 0
M  V30 6129 H 566.611 -2.08233 6.22073 0
M  V30 6130 H 566.528 -0.920152 7.50379 0
M  V30 6131 H 567.796 -2.10932 7.50418 0
M  V30 6132 O 572.064 -1.53615 0.498481 0
M  V30 6133 H 572.755 -1.9369 -0.0197948 0
M  V30 END ATOM
M  V30 BEGIN BOND
M  V30 END BOND
M  V30 END CTAB
M  END
$$$$
